=
 OpenBabel10222420153D

 52 54  0  0  1  0  0  0  0  0999 V2000
  188.2740  178.2950  141.5450 C   0  0  0  0  0  3  0  0  0  0  0  0
  189.5350  177.7400  141.2890 C   0  0  0  0  0  0  0  0  0  0  0  0
  191.1820  176.7820  139.6030 C   0  0  0  0  0  1  0  0  0  0  0  0
  187.6320  178.0740  139.2160 C   0  0  0  0  0  0  0  0  0  0  0  0
  187.3400  178.4620  140.5260 C   0  0  0  0  0  3  0  0  0  0  0  0
  188.8980  177.5220  138.9350 C   0  0  0  0  0  0  0  0  0  0  0  0
  189.8460  177.3540  139.9620 C   0  0  0  0  0  0  0  0  0  0  0  0
  189.2260  177.1610  137.6660 F   0  0  0  0  0  0  0  0  0  0  0  0
  186.5960  178.2470  138.1730 C   0  0  0  0  0  0  0  0  0  0  0  0
  185.2700  177.7450  138.3710 N   0  0  0  0  0  2  0  0  0  0  0  0
  186.8730  178.8730  137.1140 O   0  0  0  0  0  0  0  0  0  0  0  0
  184.2200  177.8970  137.3750 C   0  0  0  0  0  2  0  0  0  0  0  0
  184.3830  175.4270  137.1960 C   0  0  0  0  0  3  0  0  0  0  0  0
  182.2400  176.4560  136.6600 C   0  0  0  0  0  0  0  0  0  0  0  0
  182.5400  174.0470  136.4760 C   0  0  0  0  0  3  0  0  0  0  0  0
  183.5890  176.5730  137.0780 C   0  0  0  0  0  0  0  0  0  0  0  0
  183.8680  174.1580  136.9050 C   0  0  0  0  0  0  0  0  0  0  0  0
  181.7390  175.1820  136.3540 C   0  0  0  0  0  3  0  0  0  0  0  0
  181.2280  178.4870  135.4580 C   0  0  0  0  0  3  0  0  0  0  0  0
  181.3320  177.6260  136.5340 C   0  0  2  0  0  3  0  0  0  0  0  0
  180.3310  179.4580  135.7320 N   0  0  0  0  0  0  0  0  0  0  0  0
  180.4660  178.1120  137.4910 C   0  0  0  0  0  0  0  0  0  0  0  0
  179.8580  179.2370  136.9740 C   0  0  0  0  0  3  0  0  0  0  0  0
  180.2380  177.5490  138.7490 O   0  0  0  0  0  0  0  0  0  0  0  0
  181.1540  177.6980  139.8280 C   0  0  0  0  0  2  0  0  0  0  0  0
  179.1840  176.8210  141.7400 N   0  0  0  0  0  2  0  0  0  0  0  0
  179.6430  178.0260  141.8370 C   0  0  0  0  0  0  0  0  0  0  0  0
  180.5660  178.5330  140.8680 N   0  0  0  0  0  2  0  0  0  0  0  0
  179.7550  180.2950  142.8050 C   0  0  0  0  0  1  0  0  0  0  0  0
  179.1230  178.9200  142.9120 C   0  0  2  0  0  3  0  0  0  0  0  0
  179.4040  178.3740  144.1640 O   0  0  0  0  0  1  0  0  0  0  0  0
  185.3660  172.7740  138.2040 O   0  0  0  0  0  1  0  0  0  0  0  0
  184.8020  172.0050  135.9860 C   0  0  0  0  0  1  0  0  0  0  0  0
  184.6980  172.9940  137.0460 N   0  0  0  0  0  0  0  0  0  0  0  0
  190.4800  177.5440  142.4260 C   0  0  0  0  0  0  0  0  0  0  0  0
  191.4630  178.3220  142.5580 O   0  0  0  0  0  0  0  0  0  0  0  0
  190.3240  176.4430  143.4040 C   0  0  0  0  0  0  0  0  0  0  0  0
  190.3430  175.2390  143.0270 O   0  0  0  0  0  0  0  0  0  0  0  0
  190.1640  176.7580  144.8610 C   0  0  1  0  0  3  0  0  0  0  0  0
  191.4360  177.1760  145.4300 N   0  0  0  0  0  2  0  0  0  0  0  0
  191.9880  176.0870  146.0130 O   0  0  0  0  0  0  0  0  0  0  0  0
  191.6800  176.2190  147.3680 C   0  0  0  0  0  2  0  0  0  0  0  0
  192.8310  175.6970  148.2020 C   0  0  0  0  0  1  0  0  0  0  0  0
  189.1170  177.8470  145.0330 C   0  0  0  0  0  2  0  0  0  0  0  0
  187.7190  177.2510  145.0260 C   0  0  0  0  0  2  0  0  0  0  0  0
  186.8490  177.9160  146.0810 C   0  0  0  0  0  2  0  0  0  0  0  0
  183.0250  178.8000  144.0670 N   0  0  0  0  0  2  0  0  0  0  0  0
  185.5680  178.4060  145.4940 C   0  0  0  0  0  0  0  0  0  0  0  0
  184.0610  178.4700  141.9270 C   0  0  0  0  0  1  0  0  0  0  0  0
  184.7150  178.9570  146.2400 O   0  0  0  0  0  0  0  0  0  0  0  0
  184.1120  178.5620  143.4090 C   0  0  0  0  0  0  0  0  0  0  0  0
  185.3410  178.2720  144.0860 N   0  0  0  0  0  2  0  0  0  0  0  0
  2  1  1  0  0  0  0
  2 35  1  0  0  0  0
  3  7  1  0  0  0  0
  4  5  1  0  0  0  0
  5  1  2  0  0  0  0
  6  4  2  0  0  0  0
  6  7  1  0  0  0  0
  7  2  2  0  0  0  0
  8  6  1  0  0  0  0
  9 10  1  0  0  0  0
  9  4  1  0  0  0  0
 11  9  2  0  0  0  0
 12 10  1  0  0  0  0
 14 16  2  0  0  0  0
 15 17  1  0  0  0  0
 16 13  1  0  0  0  0
 16 12  1  0  0  0  0
 17 34  1  0  0  0  0
 17 13  2  0  0  0  0
 18 15  2  0  0  0  0
 18 14  1  0  0  0  0
 19 21  2  0  0  0  0
 19 20  1  0  0  0  0
 20 14  1  1  0  0  0
 20 22  1  0  0  0  0
 21 23  1  0  0  0  0
 22 24  1  0  0  0  0
 23 22  2  0  0  0  0
 24 25  1  0  0  0  0
 25 28  1  0  0  0  0
 26 27  2  0  0  0  0
 27 30  1  0  0  0  0
 28 27  1  0  0  0  0
 30 29  1  1  0  0  0
 30 31  1  0  0  0  0
 33 34  1  0  0  0  0
 34 32  1  0  0  0  0
 35 36  2  0  0  0  0
 35 37  1  0  0  0  0
 37 39  1  0  0  0  0
 38 37  2  0  0  0  0
 39 44  1  6  0  0  0
 39 40  1  0  0  0  0
 40 41  1  0  0  0  0
 41 42  1  0  0  0  0
 42 43  1  0  0  0  0
 45 44  1  0  0  0  0
 45 46  1  0  0  0  0
 48 46  1  0  0  0  0
 48 50  2  0  0  0  0
 49 51  1  0  0  0  0
 51 47  2  0  0  0  0
 51 52  1  0  0  0  0
 52 48  1  0  0  0  0
M  END
>  <MODEL>
1

>  <REMARK>
 VINA RESULT:      -8.0      0.000      0.000
  Name = 
  19 active torsions:
  status: ('A' for Active; 'I' for Inactive)
    1  A    between atoms: O_1  and  C_20
    2  A    between atoms: O_1  and  C_36
    3  A    between atoms: C_2  and  C_23
    4  A    between atoms: C_2  and  C_25
    5  A    between atoms: C_3  and  C_9
    6  A    between atoms: C_3  and  C_18
    7  A    between atoms: C_5  and  C_12
    8  A    between atoms: O_6  and  N_21
    9  A    between atoms: O_6  and  C_35
   10  A    between atoms: C_9  and  C_23
   11  A    between atoms: C_13  and  C_16
   12  A    between atoms: C_17  and  C_22
   13  A    between atoms: C_17  and  C_25
   14  A    between atoms: N_21  and  C_23
   15  A    between atoms: C_27  and  C_28
   16  A    between atoms: N_31  and  C_43
   17  A    between atoms: C_32  and  C_43
   18  A    between atoms: C_34  and  N_49
   19  A    between atoms: C_36  and  N_37
                            x       y       z     vdW  Elec       q    Type
                         _______ _______ _______ _____ _____    ______ ____

>  <TORSDO>
F 19

$$$$
=
 OpenBabel10222420153D

 52 54  0  0  1  0  0  0  0  0999 V2000
  187.6380  178.2090  141.8560 C   0  0  0  0  0  3  0  0  0  0  0  0
  188.7210  177.8430  141.0470 C   0  0  0  0  0  0  0  0  0  0  0  0
  189.6720  177.5260  138.7080 C   0  0  0  0  0  1  0  0  0  0  0  0
  186.2390  178.6100  139.9160 C   0  0  0  0  0  0  0  0  0  0  0  0
  186.4180  178.5880  141.3010 C   0  0  0  0  0  3  0  0  0  0  0  0
  187.3190  178.2540  139.0830 C   0  0  0  0  0  0  0  0  0  0  0  0
  188.5530  177.8720  139.6400 C   0  0  0  0  0  0  0  0  0  0  0  0
  187.1870  178.2930  137.7300 F   0  0  0  0  0  0  0  0  0  0  0  0
  184.9160  178.9940  139.3740 C   0  0  0  0  0  0  0  0  0  0  0  0
  184.0180  178.0010  138.8690 N   0  0  0  0  0  2  0  0  0  0  0  0
  184.5610  180.2040  139.3910 O   0  0  0  0  0  0  0  0  0  0  0  0
  182.7060  178.3340  138.3320 C   0  0  0  0  0  2  0  0  0  0  0  0
  181.4390  178.5910  140.4510 C   0  0  0  0  0  3  0  0  0  0  0  0
  180.8360  176.7310  138.9970 C   0  0  0  0  0  0  0  0  0  0  0  0
  179.6990  177.0620  141.1240 C   0  0  0  0  0  3  0  0  0  0  0  0
  181.6300  177.8730  139.2650 C   0  0  0  0  0  0  0  0  0  0  0  0
  180.4710  178.2000  141.3840 C   0  0  0  0  0  0  0  0  0  0  0  0
  179.8810  176.3370  139.9470 C   0  0  0  0  0  3  0  0  0  0  0  0
  180.0600  175.8590  136.7100 C   0  0  0  0  0  3  0  0  0  0  0  0
  180.9680  175.9340  137.7500 C   0  0  2  0  0  3  0  0  0  0  0  0
  180.5040  174.9940  135.7740 N   0  0  0  0  0  0  0  0  0  0  0  0
  181.9910  175.0700  137.4190 C   0  0  0  0  0  0  0  0  0  0  0  0
  181.6860  174.5060  136.1980 C   0  0  0  0  0  3  0  0  0  0  0  0
  183.1360  174.8300  138.1830 O   0  0  0  0  0  0  0  0  0  0  0  0
  184.2290  174.0600  137.6950 C   0  0  0  0  0  2  0  0  0  0  0  0
  185.7030  173.4030  135.3070 N   0  0  0  0  0  2  0  0  0  0  0  0
  185.8500  174.5820  135.8170 C   0  0  0  0  0  0  0  0  0  0  0  0
  185.1980  174.9310  137.0420 N   0  0  0  0  0  2  0  0  0  0  0  0
  188.0660  175.6610  135.9780 C   0  0  0  0  0  1  0  0  0  0  0  0
  186.7880  175.5440  135.1700 C   0  0  2  0  0  3  0  0  0  0  0  0
  186.1860  176.7980  135.0640 O   0  0  0  0  0  1  0  0  0  0  0  0
  180.3090  180.3150  142.5460 O   0  0  0  0  0  1  0  0  0  0  0  0
  180.0110  178.3120  143.8600 C   0  0  0  0  0  1  0  0  0  0  0  0
  180.2840  178.9610  142.5890 N   0  0  0  0  0  0  0  0  0  0  0  0
  189.9900  177.4030  141.6960 C   0  0  0  0  0  0  0  0  0  0  0  0
  190.7360  176.5780  141.1040 O   0  0  0  0  0  0  0  0  0  0  0  0
  190.4010  177.8810  143.0350 C   0  0  0  0  0  0  0  0  0  0  0  0
  190.7870  179.0710  143.2040 O   0  0  0  0  0  0  0  0  0  0  0  0
  190.3390  176.9520  144.2100 C   0  0  1  0  0  3  0  0  0  0  0  0
  191.1720  177.4500  145.2940 N   0  0  0  0  0  2  0  0  0  0  0  0
  191.8080  176.3830  145.8290 O   0  0  0  0  0  0  0  0  0  0  0  0
  191.5500  176.4700  147.1990 C   0  0  0  0  0  2  0  0  0  0  0  0
  192.5870  175.6720  147.9610 C   0  0  0  0  0  1  0  0  0  0  0  0
  188.8960  176.8080  144.6680 C   0  0  0  0  0  2  0  0  0  0  0  0
  188.4440  178.0530  145.4110 C   0  0  0  0  0  2  0  0  0  0  0  0
  187.4370  177.6940  146.4930 C   0  0  0  0  0  2  0  0  0  0  0  0
  183.3780  179.1230  145.5250 N   0  0  0  0  0  2  0  0  0  0  0  0
  186.1250  178.3610  146.2540 C   0  0  0  0  0  0  0  0  0  0  0  0
  183.7830  178.7330  143.1910 C   0  0  0  0  0  1  0  0  0  0  0  0
  185.5700  178.9920  147.1920 O   0  0  0  0  0  0  0  0  0  0  0  0
  184.2210  178.7700  144.6110 C   0  0  0  0  0  0  0  0  0  0  0  0
  185.5320  178.3030  144.9510 N   0  0  0  0  0  2  0  0  0  0  0  0
  2 35  1  0  0  0  0
  2  1  2  0  0  0  0
  3  7  1  0  0  0  0
  4  5  2  0  0  0  0
  5  1  1  0  0  0  0
  6  7  2  0  0  0  0
  6  4  1  0  0  0  0
  7  2  1  0  0  0  0
  8  6  1  0  0  0  0
  9 11  2  0  0  0  0
  9  4  1  0  0  0  0
 10  9  1  0  0  0  0
 12 10  1  0  0  0  0
 12 16  1  0  0  0  0
 13 17  1  0  0  0  0
 14 16  1  0  0  0  0
 14 18  2  0  0  0  0
 15 17  2  0  0  0  0
 16 13  2  0  0  0  0
 17 34  1  0  0  0  0
 18 15  1  0  0  0  0
 19 20  1  0  0  0  0
 20 14  1  1  0  0  0
 21 23  1  0  0  0  0
 21 19  2  0  0  0  0
 22 20  1  0  0  0  0
 22 24  1  0  0  0  0
 23 22  2  0  0  0  0
 25 24  1  0  0  0  0
 26 27  2  0  0  0  0
 27 28  1  0  0  0  0
 28 25  1  0  0  0  0
 30 27  1  0  0  0  0
 30 29  1  1  0  0  0
 31 30  1  0  0  0  0
 32 34  1  0  0  0  0
 34 33  1  0  0  0  0
 35 37  1  0  0  0  0
 36 35  2  0  0  0  0
 37 38  2  0  0  0  0
 37 39  1  0  0  0  0
 39 44  1  1  0  0  0
 39 40  1  0  0  0  0
 40 41  1  0  0  0  0
 41 42  1  0  0  0  0
 42 43  1  0  0  0  0
 44 45  1  0  0  0  0
 45 46  1  0  0  0  0
 48 46  1  0  0  0  0
 48 50  2  0  0  0  0
 49 51  1  0  0  0  0
 51 52  1  0  0  0  0
 51 47  2  0  0  0  0
 52 48  1  0  0  0  0
M  END
>  <MODEL>
2

>  <REMARK>
 VINA RESULT:      -7.9      1.820      4.976
  Name = 
  19 active torsions:
  status: ('A' for Active; 'I' for Inactive)
    1  A    between atoms: O_1  and  C_20
    2  A    between atoms: O_1  and  C_36
    3  A    between atoms: C_2  and  C_23
    4  A    between atoms: C_2  and  C_25
    5  A    between atoms: C_3  and  C_9
    6  A    between atoms: C_3  and  C_18
    7  A    between atoms: C_5  and  C_12
    8  A    between atoms: O_6  and  N_21
    9  A    between atoms: O_6  and  C_35
   10  A    between atoms: C_9  and  C_23
   11  A    between atoms: C_13  and  C_16
   12  A    between atoms: C_17  and  C_22
   13  A    between atoms: C_17  and  C_25
   14  A    between atoms: N_21  and  C_23
   15  A    between atoms: C_27  and  C_28
   16  A    between atoms: N_31  and  C_43
   17  A    between atoms: C_32  and  C_43
   18  A    between atoms: C_34  and  N_49
   19  A    between atoms: C_36  and  N_37
                            x       y       z     vdW  Elec       q    Type
                         _______ _______ _______ _____ _____    ______ ____

>  <TORSDO>
F 19

$$$$
=
 OpenBabel10222420153D

 52 54  0  0  1  0  0  0  0  0999 V2000
  187.2570  178.6210  141.9130 C   0  0  0  0  0  3  0  0  0  0  0  0
  188.5070  178.2530  141.4010 C   0  0  0  0  0  0  0  0  0  0  0  0
  189.9360  177.6650  139.3790 C   0  0  0  0  0  1  0  0  0  0  0  0
  186.2540  178.5370  139.7060 C   0  0  0  0  0  0  0  0  0  0  0  0
  186.1500  178.7640  141.0800 C   0  0  0  0  0  3  0  0  0  0  0  0
  187.5060  178.1740  139.1680 C   0  0  0  0  0  0  0  0  0  0  0  0
  188.6280  178.0310  140.0060 C   0  0  0  0  0  0  0  0  0  0  0  0
  187.6500  177.9750  137.8310 F   0  0  0  0  0  0  0  0  0  0  0  0
  185.0440  178.6750  138.8660 C   0  0  0  0  0  0  0  0  0  0  0  0
  184.0620  179.6740  139.1600 N   0  0  0  0  0  2  0  0  0  0  0  0
  184.8910  177.9300  137.8600 O   0  0  0  0  0  0  0  0  0  0  0  0
  182.8590  179.8490  138.3580 C   0  0  0  0  0  2  0  0  0  0  0  0
  181.3970  179.2140  140.2610 C   0  0  0  0  0  3  0  0  0  0  0  0
  180.8460  181.2540  139.0500 C   0  0  0  0  0  0  0  0  0  0  0  0
  179.4610  180.5000  140.9050 C   0  0  0  0  0  3  0  0  0  0  0  0
  181.6820  180.1270  139.2400 C   0  0  0  0  0  0  0  0  0  0  0  0
  180.2950  179.3940  141.1050 C   0  0  0  0  0  0  0  0  0  0  0  0
  179.7330  181.4170  139.8890 C   0  0  0  0  0  3  0  0  0  0  0  0
  181.8280  183.4440  138.1350 C   0  0  0  0  0  3  0  0  0  0  0  0
  181.0990  182.2770  138.0010 C   0  0  2  0  0  3  0  0  0  0  0  0
  181.7930  184.1420  136.9800 N   0  0  0  0  0  0  0  0  0  0  0  0
  180.6050  182.2880  136.7130 C   0  0  0  0  0  0  0  0  0  0  0  0
  181.0480  183.4420  136.1030 C   0  0  0  0  0  3  0  0  0  0  0  0
  179.8130  181.2930  136.1340 O   0  0  0  0  0  0  0  0  0  0  0  0
  180.3690  180.1350  135.5220 C   0  0  0  0  0  2  0  0  0  0  0  0
  181.6590  177.5790  135.8550 N   0  0  0  0  0  2  0  0  0  0  0  0
  180.4390  177.7110  136.2610 C   0  0  0  0  0  0  0  0  0  0  0  0
  179.7300  178.9370  136.0510 N   0  0  0  0  0  2  0  0  0  0  0  0
  179.7120  176.6570  138.3730 C   0  0  0  0  0  1  0  0  0  0  0  0
  179.7390  176.5380  136.8610 C   0  0  2  0  0  3  0  0  0  0  0  0
  180.3870  175.3590  136.4960 O   0  0  0  0  0  1  0  0  0  0  0  0
  179.6210  177.1950  141.8530 O   0  0  0  0  0  1  0  0  0  0  0  0
  180.2450  178.7920  143.5520 C   0  0  0  0  0  1  0  0  0  0  0  0
  180.0310  178.4500  142.1560 N   0  0  0  0  0  0  0  0  0  0  0  0
  189.6480  178.0710  142.3450 C   0  0  0  0  0  0  0  0  0  0  0  0
  190.3930  179.0510  142.6150 O   0  0  0  0  0  0  0  0  0  0  0  0
  189.9610  176.7630  142.9660 C   0  0  0  0  0  0  0  0  0  0  0  0
  190.1090  175.7320  142.2550 O   0  0  0  0  0  0  0  0  0  0  0  0
  190.1260  176.6660  144.4520 C   0  0  1  0  0  3  0  0  0  0  0  0
  191.5270  176.8080  144.8160 N   0  0  0  0  0  2  0  0  0  0  0  0
  191.5790  176.9190  146.1640 O   0  0  0  0  0  0  0  0  0  0  0  0
  192.0860  175.6920  146.5980 C   0  0  0  0  0  2  0  0  0  0  0  0
  192.5760  175.8240  148.0250 C   0  0  0  0  0  1  0  0  0  0  0  0
  189.2860  177.7380  145.1280 C   0  0  0  0  0  2  0  0  0  0  0  0
  187.9220  177.1880  145.5110 C   0  0  0  0  0  2  0  0  0  0  0  0
  187.3560  177.9450  146.7020 C   0  0  0  0  0  2  0  0  0  0  0  0
  183.2950  179.1920  145.5150 N   0  0  0  0  0  2  0  0  0  0  0  0
  186.0370  178.5590  146.3740 C   0  0  0  0  0  0  0  0  0  0  0  0
  183.7710  178.6160  143.2340 C   0  0  0  0  0  1  0  0  0  0  0  0
  185.4430  179.2530  147.2420 O   0  0  0  0  0  0  0  0  0  0  0  0
  184.1690  178.7830  144.6560 C   0  0  0  0  0  0  0  0  0  0  0  0
  185.4800  178.3780  145.0670 N   0  0  0  0  0  2  0  0  0  0  0  0
  2  1  1  0  0  0  0
  2 35  1  0  0  0  0
  3  7  1  0  0  0  0
  4  5  1  0  0  0  0
  5  1  2  0  0  0  0
  6  4  2  0  0  0  0
  6  7  1  0  0  0  0
  7  2  2  0  0  0  0
  8  6  1  0  0  0  0
  9 10  1  0  0  0  0
  9  4  1  0  0  0  0
 11  9  2  0  0  0  0
 12 10  1  0  0  0  0
 12 16  1  0  0  0  0
 13 17  1  0  0  0  0
 14 16  1  0  0  0  0
 14 18  2  0  0  0  0
 15 17  2  0  0  0  0
 16 13  2  0  0  0  0
 17 34  1  0  0  0  0
 18 15  1  0  0  0  0
 20 19  1  0  0  0  0
 20 14  1  1  0  0  0
 21 19  2  0  0  0  0
 22 20  1  0  0  0  0
 23 22  2  0  0  0  0
 23 21  1  0  0  0  0
 24 22  1  0  0  0  0
 25 28  1  0  0  0  0
 25 24  1  0  0  0  0
 26 27  2  0  0  0  0
 27 30  1  0  0  0  0
 28 27  1  0  0  0  0
 30 29  1  1  0  0  0
 31 30  1  0  0  0  0
 32 34  1  0  0  0  0
 34 33  1  0  0  0  0
 35 36  2  0  0  0  0
 35 37  1  0  0  0  0
 37 39  1  0  0  0  0
 38 37  2  0  0  0  0
 39 40  1  0  0  0  0
 39 44  1  1  0  0  0
 40 41  1  0  0  0  0
 41 42  1  0  0  0  0
 42 43  1  0  0  0  0
 44 45  1  0  0  0  0
 45 46  1  0  0  0  0
 48 46  1  0  0  0  0
 48 50  2  0  0  0  0
 49 51  1  0  0  0  0
 51 52  1  0  0  0  0
 51 47  2  0  0  0  0
 52 48  1  0  0  0  0
M  END
>  <MODEL>
3

>  <REMARK>
 VINA RESULT:      -7.7      2.237      4.380
  Name = 
  19 active torsions:
  status: ('A' for Active; 'I' for Inactive)
    1  A    between atoms: O_1  and  C_20
    2  A    between atoms: O_1  and  C_36
    3  A    between atoms: C_2  and  C_23
    4  A    between atoms: C_2  and  C_25
    5  A    between atoms: C_3  and  C_9
    6  A    between atoms: C_3  and  C_18
    7  A    between atoms: C_5  and  C_12
    8  A    between atoms: O_6  and  N_21
    9  A    between atoms: O_6  and  C_35
   10  A    between atoms: C_9  and  C_23
   11  A    between atoms: C_13  and  C_16
   12  A    between atoms: C_17  and  C_22
   13  A    between atoms: C_17  and  C_25
   14  A    between atoms: N_21  and  C_23
   15  A    between atoms: C_27  and  C_28
   16  A    between atoms: N_31  and  C_43
   17  A    between atoms: C_32  and  C_43
   18  A    between atoms: C_34  and  N_49
   19  A    between atoms: C_36  and  N_37
                            x       y       z     vdW  Elec       q    Type
                         _______ _______ _______ _____ _____    ______ ____

>  <TORSDO>
F 19

$$$$
=
 OpenBabel10222420153D

 52 54  0  0  1  0  0  0  0  0999 V2000
  188.6970  178.0740  141.3020 C   0  0  0  0  0  3  0  0  0  0  0  0
  189.9730  177.5540  141.0490 C   0  0  0  0  0  0  0  0  0  0  0  0
  191.6720  176.7030  139.3570 C   0  0  0  0  0  1  0  0  0  0  0  0
  188.1080  177.9510  138.9530 C   0  0  0  0  0  0  0  0  0  0  0  0
  187.7810  178.2730  140.2720 C   0  0  0  0  0  3  0  0  0  0  0  0
  189.3900  177.4340  138.6740 C   0  0  0  0  0  0  0  0  0  0  0  0
  190.3190  177.2350  139.7120 C   0  0  0  0  0  0  0  0  0  0  0  0
  189.7510  177.1380  137.3970 F   0  0  0  0  0  0  0  0  0  0  0  0
  187.0920  178.1550  137.8960 C   0  0  0  0  0  0  0  0  0  0  0  0
  186.0510  177.1940  137.6900 N   0  0  0  0  0  2  0  0  0  0  0  0
  187.1210  179.2010  137.1930 O   0  0  0  0  0  0  0  0  0  0  0  0
  185.0290  177.3570  136.6670 C   0  0  0  0  0  2  0  0  0  0  0  0
  185.8260  175.1730  135.7980 C   0  0  0  0  0  3  0  0  0  0  0  0
  183.4600  175.6930  135.5350 C   0  0  0  0  0  0  0  0  0  0  0  0
  184.3720  173.6030  134.6820 C   0  0  0  0  0  3  0  0  0  0  0  0
  184.7520  176.0480  135.9950 C   0  0  0  0  0  0  0  0  0  0  0  0
  185.6470  173.9450  135.1500 C   0  0  0  0  0  0  0  0  0  0  0  0
  183.2950  174.4680  134.8720 C   0  0  0  0  0  3  0  0  0  0  0  0
  181.9350  177.6900  135.0050 C   0  0  0  0  0  3  0  0  0  0  0  0
  182.2700  176.5610  135.7300 C   0  0  2  0  0  3  0  0  0  0  0  0
  180.8100  178.2420  135.5080 N   0  0  0  0  0  0  0  0  0  0  0  0
  181.3060  176.4440  136.7100 C   0  0  0  0  0  0  0  0  0  0  0  0
  180.4160  177.4860  136.5510 C   0  0  0  0  0  3  0  0  0  0  0  0
  181.2410  175.4360  137.6750 O   0  0  0  0  0  0  0  0  0  0  0  0
  181.3530  175.7070  139.0680 C   0  0  0  0  0  2  0  0  0  0  0  0
  180.8700  178.3740  140.0480 N   0  0  0  0  0  2  0  0  0  0  0  0
  182.0920  178.0010  139.8540 C   0  0  0  0  0  0  0  0  0  0  0  0
  182.3810  176.7140  139.2980 N   0  0  0  0  0  2  0  0  0  0  0  0
  183.4140  179.8650  138.9170 C   0  0  0  0  0  1  0  0  0  0  0  0
  183.1990  178.9650  140.1190 C   0  0  2  0  0  3  0  0  0  0  0  0
  184.3770  178.2720  140.4000 O   0  0  0  0  0  1  0  0  0  0  0  0
  187.9910  173.5570  134.6990 O   0  0  0  0  0  1  0  0  0  0  0  0
  186.6180  171.6180  135.1270 C   0  0  0  0  0  1  0  0  0  0  0  0
  186.7620  173.0560  134.9700 N   0  0  0  0  0  0  0  0  0  0  0  0
  190.8970  177.3200  142.1960 C   0  0  0  0  0  0  0  0  0  0  0  0
  191.9690  177.9790  142.2740 O   0  0  0  0  0  0  0  0  0  0  0  0
  190.6170  176.3150  143.2470 C   0  0  0  0  0  0  0  0  0  0  0  0
  190.4370  175.1030  142.9470 O   0  0  0  0  0  0  0  0  0  0  0  0
  190.5670  176.7360  144.6850 C   0  0  1  0  0  3  0  0  0  0  0  0
  191.9020  176.7140  145.2640 N   0  0  0  0  0  2  0  0  0  0  0  0
  191.9840  175.6040  146.0340 O   0  0  0  0  0  0  0  0  0  0  0  0
  191.6570  176.0430  147.3190 C   0  0  0  0  0  2  0  0  0  0  0  0
  192.8280  175.8020  148.2480 C   0  0  0  0  0  1  0  0  0  0  0  0
  189.9630  178.1270  144.7870 C   0  0  0  0  0  2  0  0  0  0  0  0
  189.0330  178.2190  145.9860 C   0  0  0  0  0  2  0  0  0  0  0  0
  187.8530  177.2730  145.8210 C   0  0  0  0  0  2  0  0  0  0  0  0
  183.7700  178.9240  146.0600 N   0  0  0  0  0  2  0  0  0  0  0  0
  186.5580  177.9860  146.0210 C   0  0  0  0  0  0  0  0  0  0  0  0
  183.7140  179.1640  143.6720 C   0  0  0  0  0  1  0  0  0  0  0  0
  186.2220  178.3470  147.1800 O   0  0  0  0  0  0  0  0  0  0  0  0
  184.4080  178.8220  144.9410 C   0  0  0  0  0  0  0  0  0  0  0  0
  185.7320  178.2770  144.8880 N   0  0  0  0  0  2  0  0  0  0  0  0
  2  1  1  0  0  0  0
  2 35  1  0  0  0  0
  3  7  1  0  0  0  0
  4  5  1  0  0  0  0
  5  1  2  0  0  0  0
  6  4  2  0  0  0  0
  6  7  1  0  0  0  0
  7  2  2  0  0  0  0
  8  6  1  0  0  0  0
  9  4  1  0  0  0  0
 10  9  1  0  0  0  0
 11  9  2  0  0  0  0
 12 10  1  0  0  0  0
 13 16  1  0  0  0  0
 14 16  2  0  0  0  0
 15 18  2  0  0  0  0
 15 17  1  0  0  0  0
 16 12  1  0  0  0  0
 17 13  2  0  0  0  0
 18 14  1  0  0  0  0
 19 21  2  0  0  0  0
 19 20  1  0  0  0  0
 20 14  1  1  0  0  0
 20 22  1  0  0  0  0
 21 23  1  0  0  0  0
 22 24  1  0  0  0  0
 23 22  2  0  0  0  0
 24 25  1  0  0  0  0
 25 28  1  0  0  0  0
 27 26  2  0  0  0  0
 27 30  1  0  0  0  0
 28 27  1  0  0  0  0
 30 29  1  6  0  0  0
 30 31  1  0  0  0  0
 32 34  1  0  0  0  0
 34 33  1  0  0  0  0
 34 17  1  0  0  0  0
 35 36  2  0  0  0  0
 35 37  1  0  0  0  0
 37 39  1  0  0  0  0
 38 37  2  0  0  0  0
 39 44  1  6  0  0  0
 39 40  1  0  0  0  0
 40 41  1  0  0  0  0
 41 42  1  0  0  0  0
 42 43  1  0  0  0  0
 44 45  1  0  0  0  0
 46 45  1  0  0  0  0
 46 48  1  0  0  0  0
 48 50  2  0  0  0  0
 49 51  1  0  0  0  0
 51 47  2  0  0  0  0
 52 51  1  0  0  0  0
 52 48  1  0  0  0  0
M  END
>  <MODEL>
4

>  <REMARK>
 VINA RESULT:      -7.1      1.873      2.125
  Name = 
  19 active torsions:
  status: ('A' for Active; 'I' for Inactive)
    1  A    between atoms: O_1  and  C_20
    2  A    between atoms: O_1  and  C_36
    3  A    between atoms: C_2  and  C_23
    4  A    between atoms: C_2  and  C_25
    5  A    between atoms: C_3  and  C_9
    6  A    between atoms: C_3  and  C_18
    7  A    between atoms: C_5  and  C_12
    8  A    between atoms: O_6  and  N_21
    9  A    between atoms: O_6  and  C_35
   10  A    between atoms: C_9  and  C_23
   11  A    between atoms: C_13  and  C_16
   12  A    between atoms: C_17  and  C_22
   13  A    between atoms: C_17  and  C_25
   14  A    between atoms: N_21  and  C_23
   15  A    between atoms: C_27  and  C_28
   16  A    between atoms: N_31  and  C_43
   17  A    between atoms: C_32  and  C_43
   18  A    between atoms: C_34  and  N_49
   19  A    between atoms: C_36  and  N_37
                            x       y       z     vdW  Elec       q    Type
                         _______ _______ _______ _____ _____    ______ ____

>  <TORSDO>
F 19

$$$$
=
 OpenBabel10222420153D

 52 54  0  0  1  0  0  0  0  0999 V2000
  187.7360  177.5270  142.4970 C   0  0  0  0  0  3  0  0  0  0  0  0
  188.9460  177.3450  141.8150 C   0  0  0  0  0  0  0  0  0  0  0  0
  190.2650  177.5380  139.6480 C   0  0  0  0  0  1  0  0  0  0  0  0
  186.6480  178.3340  140.4850 C   0  0  0  0  0  0  0  0  0  0  0  0
  186.6070  178.0160  141.8450 C   0  0  0  0  0  3  0  0  0  0  0  0
  187.8580  178.1670  139.7820 C   0  0  0  0  0  0  0  0  0  0  0  0
  189.0020  177.6750  140.4380 C   0  0  0  0  0  0  0  0  0  0  0  0
  187.9400  178.4950  138.4650 F   0  0  0  0  0  0  0  0  0  0  0  0
  185.4140  178.8250  139.8300 C   0  0  0  0  0  0  0  0  0  0  0  0
  184.8600  178.1330  138.7060 N   0  0  0  0  0  2  0  0  0  0  0  0
  184.8250  179.8420  140.2870 O   0  0  0  0  0  0  0  0  0  0  0  0
  183.6470  178.5780  138.0360 C   0  0  0  0  0  2  0  0  0  0  0  0
  183.2060  176.3020  137.1470 C   0  0  0  0  0  3  0  0  0  0  0  0
  181.3690  177.4510  138.2600 C   0  0  0  0  0  0  0  0  0  0  0  0
  181.0480  175.2350  137.3050 C   0  0  0  0  0  3  0  0  0  0  0  0
  182.7160  177.4240  137.8260 C   0  0  0  0  0  0  0  0  0  0  0  0
  182.3840  175.1990  136.8890 C   0  0  0  0  0  0  0  0  0  0  0  0
  180.5480  176.3490  137.9810 C   0  0  0  0  0  3  0  0  0  0  0  0
  181.0140  178.9340  140.3270 C   0  0  0  0  0  3  0  0  0  0  0  0
  180.7870  178.5990  139.0050 C   0  0  0  0  0  0  0  0  0  0  0  0
  180.2700  180.0100  140.6620 N   0  0  0  0  0  2  0  0  0  0  0  0
  179.8620  179.5100  138.5400 C   0  0  0  0  0  0  0  0  0  0  0  0
  179.5620  180.3710  139.5750 C   0  0  0  0  0  3  0  0  0  0  0  0
  179.3420  179.5560  137.2440 O   0  0  0  0  0  0  0  0  0  0  0  0
  179.1560  180.7790  136.5400 C   0  0  0  0  0  2  0  0  0  0  0  0
  179.5220  183.4360  135.4840 N   0  0  0  0  0  2  0  0  0  0  0  0
  179.9770  183.1750  136.6660 C   0  0  0  0  0  0  0  0  0  0  0  0
  179.8860  181.8520  137.2040 N   0  0  0  0  0  2  0  0  0  0  0  0
  179.7720  185.4260  137.6590 C   0  0  0  0  0  1  0  0  0  0  0  0
  180.6900  184.2420  137.4260 C   0  0  2  0  0  3  0  0  0  0  0  0
  181.8180  184.6570  136.7190 O   0  0  0  0  0  1  0  0  0  0  0  0
  184.1730  173.6300  136.4610 O   0  0  0  0  0  1  0  0  0  0  0  0
  182.1040  173.2910  135.2650 C   0  0  0  0  0  1  0  0  0  0  0  0
  182.9130  174.0520  136.2030 N   0  0  0  0  0  0  0  0  0  0  0  0
  190.1110  176.7760  142.5530 C   0  0  0  0  0  0  0  0  0  0  0  0
  190.5230  175.6200  142.2670 O   0  0  0  0  0  0  0  0  0  0  0  0
  190.7960  177.5140  143.6390 C   0  0  0  0  0  0  0  0  0  0  0  0
  191.5220  178.5130  143.3810 O   0  0  0  0  0  0  0  0  0  0  0  0
  190.6080  177.0850  145.0630 C   0  0  1  0  0  3  0  0  0  0  0  0
  191.8870  177.0640  145.7580 N   0  0  0  0  0  2  0  0  0  0  0  0
  191.6220  176.8990  147.0740 O   0  0  0  0  0  0  0  0  0  0  0  0
  192.1950  175.6670  147.3960 C   0  0  0  0  0  2  0  0  0  0  0  0
  193.0950  175.8290  148.6030 C   0  0  0  0  0  1  0  0  0  0  0  0
  189.6390  178.0300  145.7560 C   0  0  0  0  0  2  0  0  0  0  0  0
  188.2040  177.5810  145.5360 C   0  0  0  0  0  2  0  0  0  0  0  0
  187.3670  177.8400  146.7790 C   0  0  0  0  0  2  0  0  0  0  0  0
  183.3660  179.2710  145.5940 N   0  0  0  0  0  2  0  0  0  0  0  0
  186.0840  178.5180  146.4340 C   0  0  0  0  0  0  0  0  0  0  0  0
  183.7290  178.4750  143.3590 C   0  0  0  0  0  1  0  0  0  0  0  0
  185.5680  179.3220  147.2540 O   0  0  0  0  0  0  0  0  0  0  0  0
  184.1830  178.7300  144.7510 C   0  0  0  0  0  0  0  0  0  0  0  0
  185.4750  178.2680  145.1610 N   0  0  0  0  0  2  0  0  0  0  0  0
  2  1  2  0  0  0  0
  2 35  1  0  0  0  0
  3  7  1  0  0  0  0
  4  5  2  0  0  0  0
  5  1  1  0  0  0  0
  6  7  2  0  0  0  0
  6  4  1  0  0  0  0
  7  2  1  0  0  0  0
  8  6  1  0  0  0  0
  9 11  2  0  0  0  0
  9  4  1  0  0  0  0
 10  9  1  0  0  0  0
 12 10  1  0  0  0  0
 13 16  1  0  0  0  0
 14 20  1  0  0  0  0
 15 18  2  0  0  0  0
 16 12  1  0  0  0  0
 16 14  2  0  0  0  0
 17 13  2  0  0  0  0
 17 15  1  0  0  0  0
 18 14  1  0  0  0  0
 19 21  1  0  0  0  0
 20 19  2  0  0  0  0
 22 20  1  0  0  0  0
 22 23  2  0  0  0  0
 23 21  1  0  0  0  0
 24 22  1  0  0  0  0
 25 28  1  0  0  0  0
 25 24  1  0  0  0  0
 26 27  2  0  0  0  0
 27 28  1  0  0  0  0
 27 30  1  0  0  0  0
 30 29  1  6  0  0  0
 31 30  1  0  0  0  0
 33 34  1  0  0  0  0
 34 32  1  0  0  0  0
 34 17  1  0  0  0  0
 35 37  1  0  0  0  0
 36 35  2  0  0  0  0
 37 39  1  0  0  0  0
 38 37  2  0  0  0  0
 39 44  1  1  0  0  0
 39 40  1  0  0  0  0
 40 41  1  0  0  0  0
 41 42  1  0  0  0  0
 42 43  1  0  0  0  0
 45 44  1  0  0  0  0
 45 46  1  0  0  0  0
 48 46  1  0  0  0  0
 48 50  2  0  0  0  0
 49 51  1  0  0  0  0
 51 52  1  0  0  0  0
 51 47  2  0  0  0  0
 52 48  1  0  0  0  0
M  END
>  <MODEL>
5

>  <REMARK>
 VINA RESULT:      -7.1      2.241      3.376
  Name = 
  19 active torsions:
  status: ('A' for Active; 'I' for Inactive)
    1  A    between atoms: O_1  and  C_20
    2  A    between atoms: O_1  and  C_36
    3  A    between atoms: C_2  and  C_23
    4  A    between atoms: C_2  and  C_25
    5  A    between atoms: C_3  and  C_9
    6  A    between atoms: C_3  and  C_18
    7  A    between atoms: C_5  and  C_12
    8  A    between atoms: O_6  and  N_21
    9  A    between atoms: O_6  and  C_35
   10  A    between atoms: C_9  and  C_23
   11  A    between atoms: C_13  and  C_16
   12  A    between atoms: C_17  and  C_22
   13  A    between atoms: C_17  and  C_25
   14  A    between atoms: N_21  and  C_23
   15  A    between atoms: C_27  and  C_28
   16  A    between atoms: N_31  and  C_43
   17  A    between atoms: C_32  and  C_43
   18  A    between atoms: C_34  and  N_49
   19  A    between atoms: C_36  and  N_37
                            x       y       z     vdW  Elec       q    Type
                         _______ _______ _______ _____ _____    ______ ____

>  <TORSDO>
F 19

$$$$
=
 OpenBabel10222420153D

 52 54  0  0  1  0  0  0  0  0999 V2000
  188.0890  178.1420  141.9740 C   0  0  0  0  0  3  0  0  0  0  0  0
  187.7330  177.9880  143.3200 C   0  0  0  0  0  0  0  0  0  0  0  0
  185.8970  177.8510  145.0760 C   0  0  0  0  0  1  0  0  0  0  0  0
  185.7670  178.4050  141.3220 C   0  0  0  0  0  0  0  0  0  0  0  0
  187.1230  178.3440  140.9910 C   0  0  0  0  0  3  0  0  0  0  0  0
  185.3860  178.2440  142.6700 C   0  0  0  0  0  0  0  0  0  0  0  0
  186.3590  178.0370  143.6660 C   0  0  0  0  0  0  0  0  0  0  0  0
  184.0740  178.2680  143.0220 F   0  0  0  0  0  0  0  0  0  0  0  0
  184.7810  178.6480  140.2460 C   0  0  0  0  0  0  0  0  0  0  0  0
  183.8330  177.6390  139.8830 N   0  0  0  0  0  2  0  0  0  0  0  0
  184.7510  179.7680  139.6660 O   0  0  0  0  0  0  0  0  0  0  0  0
  182.8420  177.8380  138.8350 C   0  0  0  0  0  2  0  0  0  0  0  0
  181.4660  178.6810  140.7210 C   0  0  0  0  0  3  0  0  0  0  0  0
  180.2920  177.8430  138.7580 C   0  0  0  0  0  0  0  0  0  0  0  0
  179.0540  178.6540  140.6910 C   0  0  0  0  0  3  0  0  0  0  0  0
  181.5030  178.1310  139.4350 C   0  0  0  0  0  0  0  0  0  0  0  0
  180.2490  178.9540  141.3560 C   0  0  0  0  0  0  0  0  0  0  0  0
  179.0770  178.1040  139.4090 C   0  0  0  0  0  3  0  0  0  0  0  0
  179.9380  175.9830  137.0230 C   0  0  0  0  0  3  0  0  0  0  0  0
  180.2540  177.2800  137.3830 C   0  0  2  0  0  3  0  0  0  0  0  0
  180.0610  175.8350  135.6870 N   0  0  0  0  0  0  0  0  0  0  0  0
  180.5850  177.9260  136.2100 C   0  0  0  0  0  0  0  0  0  0  0  0
  180.4560  177.0190  135.1790 C   0  0  0  0  0  3  0  0  0  0  0  0
  180.9660  179.2650  136.0940 O   0  0  0  0  0  0  0  0  0  0  0  0
  180.0180  180.3260  136.0510 C   0  0  0  0  0  2  0  0  0  0  0  0
  179.4630  182.8740  137.2790 N   0  0  0  0  0  2  0  0  0  0  0  0
  180.4210  182.8030  136.4140 C   0  0  0  0  0  0  0  0  0  0  0  0
  180.6870  181.5780  135.7230 N   0  0  0  0  0  2  0  0  0  0  0  0
  181.1500  185.0200  137.2220 C   0  0  0  0  0  1  0  0  0  0  0  0
  181.1840  184.0370  136.0670 C   0  0  2  0  0  3  0  0  0  0  0  0
  180.6370  184.6310  134.9310 O   0  0  0  0  0  1  0  0  0  0  0  0
  180.0480  180.8640  142.8260 O   0  0  0  0  0  1  0  0  0  0  0  0
  180.3710  178.7080  143.8620 C   0  0  0  0  0  1  0  0  0  0  0  0
  180.2370  179.5320  142.6720 N   0  0  0  0  0  0  0  0  0  0  0  0
  188.8110  177.8190  144.3360 C   0  0  0  0  0  0  0  0  0  0  0  0
  188.5330  177.3220  145.4610 O   0  0  0  0  0  0  0  0  0  0  0  0
  190.2090  178.2390  144.0850 C   0  0  0  0  0  0  0  0  0  0  0  0
  190.5210  179.4620  144.0700 O   0  0  0  0  0  0  0  0  0  0  0  0
  191.2700  177.2040  143.8660 C   0  0  1  0  0  3  0  0  0  0  0  0
  191.2970  176.2650  144.9780 N   0  0  0  0  0  2  0  0  0  0  0  0
  192.1730  176.7520  145.8880 O   0  0  0  0  0  0  0  0  0  0  0  0
  191.5600  176.5260  147.1220 C   0  0  0  0  0  2  0  0  0  0  0  0
  192.4340  175.6190  147.9620 C   0  0  0  0  0  1  0  0  0  0  0  0
  191.0080  176.4750  142.5580 C   0  0  0  0  0  2  0  0  0  0  0  0
  191.6330  177.2250  141.3930 C   0  0  0  0  0  2  0  0  0  0  0  0
  190.7330  177.1580  140.1690 C   0  0  0  0  0  2  0  0  0  0  0  0
  192.1630  175.1060  136.5360 N   0  0  0  0  0  2  0  0  0  0  0  0
  191.3960  176.4280  139.0500 C   0  0  0  0  0  0  0  0  0  0  0  0
  190.3490  173.5420  136.6890 C   0  0  0  0  0  1  0  0  0  0  0  0
  192.5750  176.7300  138.7260 O   0  0  0  0  0  0  0  0  0  0  0  0
  191.1430  174.6860  137.2090 C   0  0  0  0  0  0  0  0  0  0  0  0
  190.6930  175.3730  138.3830 N   0  0  0  0  0  2  0  0  0  0  0  0
  1  2  1  0  0  0  0
  2  7  2  0  0  0  0
  2 35  1  0  0  0  0
  4  6  2  0  0  0  0
  5  4  1  0  0  0  0
  5  1  2  0  0  0  0
  6  8  1  0  0  0  0
  6  7  1  0  0  0  0
  7  3  1  0  0  0  0
  9  4  1  0  0  0  0
 10  9  1  0  0  0  0
 11  9  2  0  0  0  0
 12 16  1  0  0  0  0
 12 10  1  0  0  0  0
 13 17  1  0  0  0  0
 14 18  2  0  0  0  0
 14 16  1  0  0  0  0
 15 17  2  0  0  0  0
 16 13  2  0  0  0  0
 17 34  1  0  0  0  0
 18 15  1  0  0  0  0
 19 20  1  0  0  0  0
 20 14  1  1  0  0  0
 21 19  2  0  0  0  0
 22 20  1  0  0  0  0
 23 21  1  0  0  0  0
 23 22  2  0  0  0  0
 24 22  1  0  0  0  0
 25 24  1  0  0  0  0
 27 26  2  0  0  0  0
 28 25  1  0  0  0  0
 28 27  1  0  0  0  0
 30 27  1  0  0  0  0
 30 29  1  1  0  0  0
 31 30  1  0  0  0  0
 34 32  1  0  0  0  0
 34 33  1  0  0  0  0
 35 36  2  0  0  0  0
 37 35  1  0  0  0  0
 38 37  2  0  0  0  0
 39 44  1  6  0  0  0
 39 37  1  0  0  0  0
 39 40  1  0  0  0  0
 40 41  1  0  0  0  0
 41 42  1  0  0  0  0
 42 43  1  0  0  0  0
 45 44  1  0  0  0  0
 46 45  1  0  0  0  0
 47 51  2  0  0  0  0
 48 46  1  0  0  0  0
 49 51  1  0  0  0  0
 50 48  2  0  0  0  0
 51 52  1  0  0  0  0
 52 48  1  0  0  0  0
M  END
>  <MODEL>
6

>  <REMARK>
 VINA RESULT:      -6.8      3.053      6.154
  Name = 
  19 active torsions:
  status: ('A' for Active; 'I' for Inactive)
    1  A    between atoms: O_1  and  C_20
    2  A    between atoms: O_1  and  C_36
    3  A    between atoms: C_2  and  C_23
    4  A    between atoms: C_2  and  C_25
    5  A    between atoms: C_3  and  C_9
    6  A    between atoms: C_3  and  C_18
    7  A    between atoms: C_5  and  C_12
    8  A    between atoms: O_6  and  N_21
    9  A    between atoms: O_6  and  C_35
   10  A    between atoms: C_9  and  C_23
   11  A    between atoms: C_13  and  C_16
   12  A    between atoms: C_17  and  C_22
   13  A    between atoms: C_17  and  C_25
   14  A    between atoms: N_21  and  C_23
   15  A    between atoms: C_27  and  C_28
   16  A    between atoms: N_31  and  C_43
   17  A    between atoms: C_32  and  C_43
   18  A    between atoms: C_34  and  N_49
   19  A    between atoms: C_36  and  N_37
                            x       y       z     vdW  Elec       q    Type
                         _______ _______ _______ _____ _____    ______ ____

>  <TORSDO>
F 19

$$$$
=
 OpenBabel10222420153D

 52 54  0  0  1  0  0  0  0  0999 V2000
  183.0170  179.7820  139.3540 C   0  0  0  0  0  3  0  0  0  0  0  0
  182.0160  179.1690  138.5900 C   0  0  0  0  0  0  0  0  0  0  0  0
  181.3690  177.4030  136.8770 C   0  0  0  0  0  1  0  0  0  0  0  0
  184.7250  178.3680  138.3700 C   0  0  0  0  0  0  0  0  0  0  0  0
  184.3490  179.3870  139.2490 C   0  0  0  0  0  3  0  0  0  0  0  0
  183.7310  177.7320  137.5980 C   0  0  0  0  0  0  0  0  0  0  0  0
  182.3850  178.1270  137.7040 C   0  0  0  0  0  0  0  0  0  0  0  0
  184.0590  176.7170  136.7550 F   0  0  0  0  0  0  0  0  0  0  0  0
  186.1560  178.0020  138.2740 C   0  0  0  0  0  0  0  0  0  0  0  0
  186.6520  177.2930  137.1340 N   0  0  0  0  0  2  0  0  0  0  0  0
  186.9530  178.3480  139.1870 O   0  0  0  0  0  0  0  0  0  0  0  0
  188.0520  176.9170  136.9960 C   0  0  0  0  0  2  0  0  0  0  0  0
  187.0340  174.6810  136.6450 C   0  0  0  0  0  3  0  0  0  0  0  0
  189.4200  174.7680  137.1320 C   0  0  0  0  0  0  0  0  0  0  0  0
  188.2960  172.6320  136.8160 C   0  0  0  0  0  3  0  0  0  0  0  0
  188.1860  175.4290  136.9150 C   0  0  0  0  0  0  0  0  0  0  0  0
  187.0780  173.2830  136.5850 C   0  0  0  0  0  0  0  0  0  0  0  0
  189.4500  173.3660  137.0870 C   0  0  0  0  0  3  0  0  0  0  0  0
  191.7240  175.7180  136.5150 C   0  0  0  0  0  3  0  0  0  0  0  0
  190.6860  175.4980  137.4010 C   0  0  2  0  0  3  0  0  0  0  0  0
  192.7270  176.3740  137.1380 N   0  0  0  0  0  0  0  0  0  0  0  0
  191.0950  176.0400  138.6020 C   0  0  0  0  0  0  0  0  0  0  0  0
  192.3510  176.5760  138.4150 C   0  0  0  0  0  3  0  0  0  0  0  0
  190.3540  176.0530  139.7860 O   0  0  0  0  0  0  0  0  0  0  0  0
  190.2150  177.2230  140.5860 C   0  0  0  0  0  2  0  0  0  0  0  0
  192.0580  177.5270  142.7810 N   0  0  0  0  0  2  0  0  0  0  0  0
  190.8680  177.0900  143.0320 C   0  0  0  0  0  0  0  0  0  0  0  0
  189.9410  176.8510  141.9680 N   0  0  0  0  0  2  0  0  0  0  0  0
  189.4390  177.6890  144.9550 C   0  0  0  0  0  1  0  0  0  0  0  0
  190.5000  176.7390  144.4340 C   0  0  2  0  0  3  0  0  0  0  0  0
  191.6270  176.8030  145.2530 O   0  0  0  0  0  1  0  0  0  0  0  0
  184.8100  172.6290  137.1110 O   0  0  0  0  0  1  0  0  0  0  0  0
  185.7790  171.7160  135.0970 C   0  0  0  0  0  1  0  0  0  0  0  0
  185.8850  172.5370  136.2920 N   0  0  0  0  0  0  0  0  0  0  0  0
  180.6130  179.6630  138.7110 C   0  0  0  0  0  0  0  0  0  0  0  0
  179.9450  179.8960  137.6680 O   0  0  0  0  0  0  0  0  0  0  0  0
  179.9740  179.9170  140.0220 C   0  0  0  0  0  0  0  0  0  0  0  0
  180.0100  181.0650  140.5450 O   0  0  0  0  0  0  0  0  0  0  0  0
  179.2560  178.8070  140.7280 C   0  0  1  0  0  3  0  0  0  0  0  0
  179.5120  177.5370  140.0650 N   0  0  0  0  0  2  0  0  0  0  0  0
  178.9380  176.5710  140.8200 O   0  0  0  0  0  0  0  0  0  0  0  0
  179.4460  175.3760  140.3070 C   0  0  0  0  0  2  0  0  0  0  0  0
  180.9170  175.5460  139.9910 C   0  0  0  0  0  1  0  0  0  0  0  0
  179.7060  178.7520  142.1790 C   0  0  0  0  0  2  0  0  0  0  0  0
  181.2170  178.6210  142.2660 C   0  0  0  0  0  2  0  0  0  0  0  0
  181.7230  179.1410  143.6030 C   0  0  0  0  0  2  0  0  0  0  0  0
  185.9260  178.1260  144.4750 N   0  0  0  0  0  2  0  0  0  0  0  0
  183.1930  178.9340  143.7420 C   0  0  0  0  0  0  0  0  0  0  0  0
  185.6680  178.9310  146.7210 C   0  0  0  0  0  1  0  0  0  0  0  0
  183.8890  178.7200  142.7140 O   0  0  0  0  0  0  0  0  0  0  0  0
  185.1610  178.7010  145.3430 C   0  0  0  0  0  0  0  0  0  0  0  0
  183.7970  179.0160  145.0380 N   0  0  0  0  0  2  0  0  0  0  0  0
  2 35  1  0  0  0  0
  2  1  2  0  0  0  0
  3  7  1  0  0  0  0
  4  5  2  0  0  0  0
  5  1  1  0  0  0  0
  6  7  2  0  0  0  0
  6  4  1  0  0  0  0
  7  2  1  0  0  0  0
  8  6  1  0  0  0  0
  9  4  1  0  0  0  0
  9 11  2  0  0  0  0
 10  9  1  0  0  0  0
 12 10  1  0  0  0  0
 13 16  1  0  0  0  0
 15 18  2  0  0  0  0
 16 12  1  0  0  0  0
 16 14  2  0  0  0  0
 17 13  2  0  0  0  0
 17 15  1  0  0  0  0
 18 14  1  0  0  0  0
 19 21  2  0  0  0  0
 19 20  1  0  0  0  0
 20 14  1  1  0  0  0
 20 22  1  0  0  0  0
 21 23  1  0  0  0  0
 22 24  1  0  0  0  0
 23 22  2  0  0  0  0
 24 25  1  0  0  0  0
 25 28  1  0  0  0  0
 26 27  2  0  0  0  0
 27 30  1  0  0  0  0
 28 27  1  0  0  0  0
 30 29  1  1  0  0  0
 30 31  1  0  0  0  0
 33 34  1  0  0  0  0
 34 17  1  0  0  0  0
 34 32  1  0  0  0  0
 35 37  1  0  0  0  0
 36 35  2  0  0  0  0
 37 38  2  0  0  0  0
 37 39  1  0  0  0  0
 39 44  1  1  0  0  0
 40 39  1  0  0  0  0
 40 41  1  0  0  0  0
 42 41  1  0  0  0  0
 43 42  1  0  0  0  0
 44 45  1  0  0  0  0
 45 46  1  0  0  0  0
 46 48  1  0  0  0  0
 47 51  2  0  0  0  0
 48 52  1  0  0  0  0
 50 48  2  0  0  0  0
 51 49  1  0  0  0  0
 52 51  1  0  0  0  0
M  END
>  <MODEL>
7

>  <REMARK>
 VINA RESULT:      -6.8      2.562      8.681
  Name = 
  19 active torsions:
  status: ('A' for Active; 'I' for Inactive)
    1  A    between atoms: O_1  and  C_20
    2  A    between atoms: O_1  and  C_36
    3  A    between atoms: C_2  and  C_23
    4  A    between atoms: C_2  and  C_25
    5  A    between atoms: C_3  and  C_9
    6  A    between atoms: C_3  and  C_18
    7  A    between atoms: C_5  and  C_12
    8  A    between atoms: O_6  and  N_21
    9  A    between atoms: O_6  and  C_35
   10  A    between atoms: C_9  and  C_23
   11  A    between atoms: C_13  and  C_16
   12  A    between atoms: C_17  and  C_22
   13  A    between atoms: C_17  and  C_25
   14  A    between atoms: N_21  and  C_23
   15  A    between atoms: C_27  and  C_28
   16  A    between atoms: N_31  and  C_43
   17  A    between atoms: C_32  and  C_43
   18  A    between atoms: C_34  and  N_49
   19  A    between atoms: C_36  and  N_37
                            x       y       z     vdW  Elec       q    Type
                         _______ _______ _______ _____ _____    ______ ____

>  <TORSDO>
F 19

$$$$
=
 OpenBabel10222420153D

 52 54  0  0  1  0  0  0  0  0999 V2000
  188.3250  176.4710  143.5510 C   0  0  0  0  0  3  0  0  0  0  0  0
  188.7980  177.3050  144.5720 C   0  0  0  0  0  0  0  0  0  0  0  0
  190.5450  178.9680  145.3800 C   0  0  0  0  0  1  0  0  0  0  0  0
  190.1950  177.0540  142.1200 C   0  0  0  0  0  0  0  0  0  0  0  0
  189.0100  176.3490  142.3440 C   0  0  0  0  0  3  0  0  0  0  0  0
  190.6830  177.9060  143.1310 C   0  0  0  0  0  0  0  0  0  0  0  0
  189.9930  178.0330  144.3510 C   0  0  0  0  0  0  0  0  0  0  0  0
  191.8170  178.6290  142.9340 F   0  0  0  0  0  0  0  0  0  0  0  0
  190.9000  176.8710  140.8320 C   0  0  0  0  0  0  0  0  0  0  0  0
  190.3690  176.0030  139.8250 N   0  0  0  0  0  2  0  0  0  0  0  0
  191.9620  177.5120  140.6030 O   0  0  0  0  0  0  0  0  0  0  0  0
  191.0260  175.7980  138.5430 C   0  0  0  0  0  2  0  0  0  0  0  0
  189.0090  176.9130  137.6220 C   0  0  0  0  0  3  0  0  0  0  0  0
  190.1540  175.3020  136.1970 C   0  0  0  0  0  0  0  0  0  0  0  0
  188.1370  176.4260  135.4260 C   0  0  0  0  0  3  0  0  0  0  0  0
  190.0570  176.0070  137.4220 C   0  0  0  0  0  0  0  0  0  0  0  0
  188.0480  177.1370  136.6290 C   0  0  0  0  0  0  0  0  0  0  0  0
  189.1760  175.5200  135.2150 C   0  0  0  0  0  3  0  0  0  0  0  0
  191.1700  172.9630  135.8990 C   0  0  0  0  0  3  0  0  0  0  0  0
  191.2510  174.3430  135.9060 C   0  0  2  0  0  3  0  0  0  0  0  0
  192.3850  172.4330  135.6410 N   0  0  0  0  0  0  0  0  0  0  0  0
  192.5720  174.6430  135.6490 C   0  0  0  0  0  0  0  0  0  0  0  0
  193.2500  173.4540  135.4850 C   0  0  0  0  0  3  0  0  0  0  0  0
  193.1140  175.9280  135.5550 O   0  0  0  0  0  0  0  0  0  0  0  0
  194.0820  176.4160  136.4780 C   0  0  0  0  0  2  0  0  0  0  0  0
  194.6690  175.6270  139.1880 N   0  0  0  0  0  2  0  0  0  0  0  0
  195.1920  174.9460  138.2210 C   0  0  0  0  0  0  0  0  0  0  0  0
  194.9910  175.3430  136.8600 N   0  0  0  0  0  2  0  0  0  0  0  0
  197.1080  173.6040  137.4300 C   0  0  0  0  0  1  0  0  0  0  0  0
  196.0920  173.8010  138.5390 C   0  0  2  0  0  3  0  0  0  0  0  0
  195.3430  172.6350  138.6970 O   0  0  0  0  0  1  0  0  0  0  0  0
  187.2610  179.4070  136.8970 O   0  0  0  0  0  1  0  0  0  0  0  0
  185.6050  177.6530  136.9810 C   0  0  0  0  0  1  0  0  0  0  0  0
  186.9880  178.0820  136.8530 N   0  0  0  0  0  0  0  0  0  0  0  0
  188.0480  177.3630  145.8610 C   0  0  0  0  0  0  0  0  0  0  0  0
  188.4090  176.6320  146.8230 O   0  0  0  0  0  0  0  0  0  0  0  0
  186.8670  178.2350  146.0510 C   0  0  0  0  0  0  0  0  0  0  0  0
  186.8280  179.0690  146.9970 O   0  0  0  0  0  0  0  0  0  0  0  0
  185.7140  178.1450  145.0980 C   0  0  1  0  0  3  0  0  0  0  0  0
  184.4930  178.6150  145.7350 N   0  0  0  0  0  2  0  0  0  0  0  0
  183.8100  179.3270  144.8090 O   0  0  0  0  0  0  0  0  0  0  0  0
  182.5840  178.6690  144.6940 C   0  0  0  0  0  2  0  0  0  0  0  0
  181.9630  178.9890  143.3500 C   0  0  0  0  0  1  0  0  0  0  0  0
  186.0170  178.9650  143.8540 C   0  0  0  0  0  2  0  0  0  0  0  0
  185.5040  178.2580  142.6100 C   0  0  0  0  0  2  0  0  0  0  0  0
  185.7930  179.0870  141.3670 C   0  0  0  0  0  2  0  0  0  0  0  0
  182.1240  178.6910  138.9510 N   0  0  0  0  0  2  0  0  0  0  0  0
  184.6780  178.9890  140.3820 C   0  0  0  0  0  0  0  0  0  0  0  0
  181.8250  176.4470  139.7490 C   0  0  0  0  0  1  0  0  0  0  0  0
  184.5530  179.8770  139.4970 O   0  0  0  0  0  0  0  0  0  0  0  0
  182.5950  177.7150  139.6540 C   0  0  0  0  0  0  0  0  0  0  0  0
  183.7860  177.8690  140.4360 N   0  0  0  0  0  2  0  0  0  0  0  0
  1  2  1  0  0  0  0
  2 35  1  0  0  0  0
  4  5  1  0  0  0  0
  4  6  2  0  0  0  0
  5  1  2  0  0  0  0
  6  7  1  0  0  0  0
  7  2  2  0  0  0  0
  7  3  1  0  0  0  0
  8  6  1  0  0  0  0
  9  4  1  0  0  0  0
 10  9  1  0  0  0  0
 11  9  2  0  0  0  0
 12 10  1  0  0  0  0
 14 16  2  0  0  0  0
 15 17  1  0  0  0  0
 16 13  1  0  0  0  0
 16 12  1  0  0  0  0
 17 34  1  0  0  0  0
 17 13  2  0  0  0  0
 18 15  2  0  0  0  0
 18 14  1  0  0  0  0
 19 20  1  0  0  0  0
 20 14  1  1  0  0  0
 21 19  2  0  0  0  0
 22 20  1  0  0  0  0
 23 21  1  0  0  0  0
 23 22  2  0  0  0  0
 24 22  1  0  0  0  0
 24 25  1  0  0  0  0
 25 28  1  0  0  0  0
 27 30  1  0  0  0  0
 27 26  2  0  0  0  0
 28 27  1  0  0  0  0
 30 29  1  6  0  0  0
 30 31  1  0  0  0  0
 34 32  1  0  0  0  0
 34 33  1  0  0  0  0
 35 37  1  0  0  0  0
 35 36  2  0  0  0  0
 37 38  2  0  0  0  0
 39 44  1  6  0  0  0
 39 40  1  0  0  0  0
 39 37  1  0  0  0  0
 41 40  1  0  0  0  0
 42 41  1  0  0  0  0
 43 42  1  0  0  0  0
 45 44  1  0  0  0  0
 46 45  1  0  0  0  0
 47 51  2  0  0  0  0
 48 52  1  0  0  0  0
 48 46  1  0  0  0  0
 50 48  2  0  0  0  0
 51 49  1  0  0  0  0
 51 52  1  0  0  0  0
M  END
>  <MODEL>
8

>  <REMARK>
 VINA RESULT:      -6.6      3.826      9.122
  Name = 
  19 active torsions:
  status: ('A' for Active; 'I' for Inactive)
    1  A    between atoms: O_1  and  C_20
    2  A    between atoms: O_1  and  C_36
    3  A    between atoms: C_2  and  C_23
    4  A    between atoms: C_2  and  C_25
    5  A    between atoms: C_3  and  C_9
    6  A    between atoms: C_3  and  C_18
    7  A    between atoms: C_5  and  C_12
    8  A    between atoms: O_6  and  N_21
    9  A    between atoms: O_6  and  C_35
   10  A    between atoms: C_9  and  C_23
   11  A    between atoms: C_13  and  C_16
   12  A    between atoms: C_17  and  C_22
   13  A    between atoms: C_17  and  C_25
   14  A    between atoms: N_21  and  C_23
   15  A    between atoms: C_27  and  C_28
   16  A    between atoms: N_31  and  C_43
   17  A    between atoms: C_32  and  C_43
   18  A    between atoms: C_34  and  N_49
   19  A    between atoms: C_36  and  N_37
                            x       y       z     vdW  Elec       q    Type
                         _______ _______ _______ _____ _____    ______ ____

>  <TORSDO>
F 19

$$$$
=
 OpenBabel10222420153D

 52 54  0  0  1  0  0  0  0  0999 V2000
  182.1790  177.3440  140.6850 C   0  0  0  0  0  3  0  0  0  0  0  0
  181.5200  178.0560  139.6750 C   0  0  0  0  0  0  0  0  0  0  0  0
  181.5900  179.8920  137.9150 C   0  0  0  0  0  1  0  0  0  0  0  0
  184.1770  178.6950  140.4240 C   0  0  0  0  0  0  0  0  0  0  0  0
  183.4860  177.6550  141.0520 C   0  0  0  0  0  3  0  0  0  0  0  0
  183.5340  179.4190  139.3990 C   0  0  0  0  0  0  0  0  0  0  0  0
  182.2150  179.1050  139.0240 C   0  0  0  0  0  0  0  0  0  0  0  0
  184.1880  180.4170  138.7470 F   0  0  0  0  0  0  0  0  0  0  0  0
  185.5540  179.0050  140.8680 C   0  0  0  0  0  0  0  0  0  0  0  0
  186.6840  178.4960  140.1510 N   0  0  0  0  0  2  0  0  0  0  0  0
  185.7360  179.7550  141.8650 O   0  0  0  0  0  0  0  0  0  0  0  0
  188.0550  178.7810  140.5480 C   0  0  0  0  0  2  0  0  0  0  0  0
  188.7410  177.5170  138.5250 C   0  0  0  0  0  3  0  0  0  0  0  0
  190.1130  177.2730  140.5230 C   0  0  0  0  0  0  0  0  0  0  0  0
  190.6550  176.0490  138.4900 C   0  0  0  0  0  3  0  0  0  0  0  0
  189.0000  177.8460  139.8600 C   0  0  0  0  0  0  0  0  0  0  0  0
  189.5650  176.6260  137.8270 C   0  0  0  0  0  0  0  0  0  0  0  0
  190.9230  176.3680  139.8210 C   0  0  0  0  0  3  0  0  0  0  0  0
  191.6840  178.0300  142.4080 C   0  0  0  0  0  3  0  0  0  0  0  0
  190.4620  177.5930  141.9320 C   0  0  0  0  0  0  0  0  0  0  0  0
  191.6330  178.1660  143.7510 N   0  0  0  0  0  2  0  0  0  0  0  0
  189.6540  177.4570  143.0420 C   0  0  0  0  0  0  0  0  0  0  0  0
  190.3930  177.8180  144.1480 C   0  0  0  0  0  3  0  0  0  0  0  0
  188.3190  177.0430  143.0330 O   0  0  0  0  0  0  0  0  0  0  0  0
  187.7200  176.3820  144.1420 C   0  0  0  0  0  2  0  0  0  0  0  0
  187.4590  177.6040  146.7400 N   0  0  0  0  0  2  0  0  0  0  0  0
  186.5120  177.7810  145.8780 C   0  0  0  0  0  0  0  0  0  0  0  0
  186.5590  177.1350  144.6020 N   0  0  0  0  0  2  0  0  0  0  0  0
  184.6990  179.2330  145.0380 C   0  0  0  0  0  1  0  0  0  0  0  0
  185.3160  178.5850  146.2630 C   0  0  2  0  0  3  0  0  0  0  0  0
  185.6800  179.5720  147.1790 O   0  0  0  0  0  1  0  0  0  0  0  0
  188.0650  176.5760  135.9320 O   0  0  0  0  0  1  0  0  0  0  0  0
  190.3110  175.7680  135.5780 C   0  0  0  0  0  1  0  0  0  0  0  0
  189.2870  176.3140  136.4530 N   0  0  0  0  0  0  0  0  0  0  0  0
  180.1050  177.7080  139.3540 C   0  0  0  0  0  0  0  0  0  0  0  0
  179.1790  178.1160  140.1060 O   0  0  0  0  0  0  0  0  0  0  0  0
  179.7410  176.8720  138.1870 C   0  0  0  0  0  0  0  0  0  0  0  0
  178.9910  177.3260  137.2790 O   0  0  0  0  0  0  0  0  0  0  0  0
  180.2850  175.4810  138.0700 C   0  0  1  0  0  3  0  0  0  0  0  0
  179.2770  174.5890  137.5160 N   0  0  0  0  0  2  0  0  0  0  0  0
  179.9340  173.5730  136.9110 O   0  0  0  0  0  0  0  0  0  0  0  0
  179.6100  172.4450  137.6670 C   0  0  0  0  0  2  0  0  0  0  0  0
  179.8100  171.1990  136.8290 C   0  0  0  0  0  1  0  0  0  0  0  0
  181.5270  175.4930  137.1930 C   0  0  0  0  0  2  0  0  0  0  0  0
  182.7510  175.0780  137.9940 C   0  0  0  0  0  2  0  0  0  0  0  0
  183.9710  175.8710  137.5530 C   0  0  0  0  0  2  0  0  0  0  0  0
  186.4160  173.0240  135.2350 N   0  0  0  0  0  2  0  0  0  0  0  0
  184.8320  175.0710  136.6360 C   0  0  0  0  0  0  0  0  0  0  0  0
  187.8640  172.7100  137.1230 C   0  0  0  0  0  1  0  0  0  0  0  0
  184.6220  175.1130  135.3950 O   0  0  0  0  0  0  0  0  0  0  0  0
  186.7200  173.3700  136.4420 C   0  0  0  0  0  0  0  0  0  0  0  0
  185.9070  174.2930  137.1770 N   0  0  0  0  0  2  0  0  0  0  0  0
  1  5  1  0  0  0  0
  2  1  2  0  0  0  0
  3  7  1  0  0  0  0
  4  9  1  0  0  0  0
  4  5  2  0  0  0  0
  6  4  1  0  0  0  0
  7  6  2  0  0  0  0
  7  2  1  0  0  0  0
  8  6  1  0  0  0  0
  9 11  2  0  0  0  0
 10 12  1  0  0  0  0
 10  9  1  0  0  0  0
 13 16  1  0  0  0  0
 14 20  1  0  0  0  0
 15 18  2  0  0  0  0
 16 14  2  0  0  0  0
 16 12  1  0  0  0  0
 17 15  1  0  0  0  0
 17 13  2  0  0  0  0
 18 14  1  0  0  0  0
 19 21  1  0  0  0  0
 20 19  2  0  0  0  0
 20 22  1  0  0  0  0
 21 23  1  0  0  0  0
 22 23  2  0  0  0  0
 24 22  1  0  0  0  0
 24 25  1  0  0  0  0
 25 28  1  0  0  0  0
 27 30  1  0  0  0  0
 27 26  2  0  0  0  0
 28 27  1  0  0  0  0
 30 29  1  6  0  0  0
 30 31  1  0  0  0  0
 32 34  1  0  0  0  0
 33 34  1  0  0  0  0
 34 17  1  0  0  0  0
 35  2  1  0  0  0  0
 35 36  2  0  0  0  0
 37 35  1  0  0  0  0
 38 37  2  0  0  0  0
 39 44  1  6  0  0  0
 39 37  1  0  0  0  0
 40 39  1  0  0  0  0
 41 40  1  0  0  0  0
 41 42  1  0  0  0  0
 43 42  1  0  0  0  0
 44 45  1  0  0  0  0
 46 45  1  0  0  0  0
 47 51  2  0  0  0  0
 48 52  1  0  0  0  0
 48 46  1  0  0  0  0
 50 48  2  0  0  0  0
 51 49  1  0  0  0  0
 51 52  1  0  0  0  0
M  END
>  <MODEL>
9

>  <REMARK>
 VINA RESULT:      -6.6      2.701      9.532
  Name = 
  19 active torsions:
  status: ('A' for Active; 'I' for Inactive)
    1  A    between atoms: O_1  and  C_20
    2  A    between atoms: O_1  and  C_36
    3  A    between atoms: C_2  and  C_23
    4  A    between atoms: C_2  and  C_25
    5  A    between atoms: C_3  and  C_9
    6  A    between atoms: C_3  and  C_18
    7  A    between atoms: C_5  and  C_12
    8  A    between atoms: O_6  and  N_21
    9  A    between atoms: O_6  and  C_35
   10  A    between atoms: C_9  and  C_23
   11  A    between atoms: C_13  and  C_16
   12  A    between atoms: C_17  and  C_22
   13  A    between atoms: C_17  and  C_25
   14  A    between atoms: N_21  and  C_23
   15  A    between atoms: C_27  and  C_28
   16  A    between atoms: N_31  and  C_43
   17  A    between atoms: C_32  and  C_43
   18  A    between atoms: C_34  and  N_49
   19  A    between atoms: C_36  and  N_37
                            x       y       z     vdW  Elec       q    Type
                         _______ _______ _______ _____ _____    ______ ____

>  <TORSDO>
F 19

$$$$
