=
 OpenBabel10222416103D

 26 29  0  0  1  0  0  0  0  0999 V2000
  186.6180  178.3880  141.9200 C   0  0  1  0  0  3  0  0  0  0  0  0
  189.6090  177.0700  144.6330 C   0  0  0  0  0  0  0  0  0  0  0  0
  191.7930  176.2780  145.5650 C   0  0  0  0  0  3  0  0  0  0  0  0
  188.7690  177.3630  143.5850 N   0  0  0  0  0  0  0  0  0  0  0  0
  189.3230  177.1800  147.1860 C   0  0  0  0  0  0  0  0  0  0  0  0
  189.0330  177.1610  141.8330 S   0  0  0  0  0  0  0  0  0  0  0  0
  186.7370  178.1350  146.3920 C   0  0  0  0  0  3  0  0  0  0  0  0
  190.9360  176.6010  144.5150 C   0  0  0  0  0  0  0  0  0  0  0  0
  188.9480  177.3020  145.7710 C   0  0  0  0  0  0  0  0  0  0  0  0
  190.5400  176.7270  147.6600 C   0  0  0  0  0  3  0  0  0  0  0  0
  191.5710  176.4100  143.1820 C   0  0  0  0  0  1  0  0  0  0  0  0
  187.0840  178.0250  147.7430 C   0  0  0  0  0  3  0  0  0  0  0  0
  187.6040  177.7950  144.1250 C   0  0  0  0  0  0  0  0  0  0  0  0
  188.0340  178.6160  141.3990 C   0  0  0  0  0  2  0  0  0  0  0  0
  188.3520  177.5520  148.1260 C   0  0  0  0  0  3  0  0  0  0  0  0
  191.6630  176.3110  146.9590 C   0  0  0  0  0  0  0  0  0  0  0  0
  187.6500  177.7690  145.4620 N   0  0  0  0  0  0  0  0  0  0  0  0
  186.5840  178.2970  143.4190 C   0  0  0  0  0  3  0  0  0  0  0  0
  185.7180  179.3890  141.4430 O   0  0  0  0  0  0  0  0  0  0  0  0
  182.6750  177.7760  139.8750 C   0  0  0  0  0  1  0  0  0  0  0  0
  183.7690  178.0820  140.7810 N   0  0  0  0  0  2  0  0  0  0  0  0
  184.6860  179.1470  140.5280 C   0  0  0  0  0  0  0  0  0  0  0  0
  184.5620  179.8580  139.4920 O   0  0  0  0  0  0  0  0  0  0  0  0
  192.7430  175.9020  147.7510 O   0  0  0  0  0  0  0  0  0  0  0  0
  193.1720  176.5860  148.8600 C   0  0  0  0  0  0  0  0  0  0  0  0
  193.5350  177.1630  149.7950 N   0  0  0  0  0  0  0  0  0  0  0  0
  1 19  1  1  0  0  0
  1 18  1  0  0  0  0
  2  9  2  0  0  0  0
  3 16  1  0  0  0  0
  4 13  1  0  0  0  0
  4  2  1  0  0  0  0
  5 10  1  0  0  0  0
  5 15  2  0  0  0  0
  6  4  1  0  0  0  0
  7 12  2  0  0  0  0
  8  2  1  0  0  0  0
  8  3  2  0  0  0  0
  9  5  1  0  0  0  0
 11  8  1  0  0  0  0
 12 15  1  0  0  0  0
 13 17  1  0  0  0  0
 14  6  1  0  0  0  0
 14  1  1  0  0  0  0
 16 10  2  0  0  0  0
 16 24  1  0  0  0  0
 17  9  1  0  0  0  0
 17  7  1  0  0  0  0
 18 13  2  0  0  0  0
 20 21  1  0  0  0  0
 22 21  1  0  0  0  0
 22 19  1  0  0  0  0
 23 22  2  0  0  0  0
 24 25  1  0  0  0  0
 25 26  3  0  0  0  0
M  END
>  <MODEL>
1

>  <REMARK>
 VINA RESULT:      -9.2      0.000      0.000
  Name = 
  4 active torsions:
  status: ('A' for Active; 'I' for Inactive)
    1  A    between atoms: C_1  and  O_10
    2  A    between atoms: C_7  and  O_23
    3  A    between atoms: O_10  and  C_21
    4  A    between atoms: C_22  and  O_23
                            x       y       z     vdW  Elec       q    Type
                         _______ _______ _______ _____ _____    ______ ____

>  <TORSDO>
F 4

$$$$
=
 OpenBabel10222416103D

 26 29  0  0  1  0  0  0  0  0999 V2000
  187.4270  178.0020  139.7540 C   0  0  1  0  0  3  0  0  0  0  0  0
  189.2310  177.3860  143.5500 C   0  0  0  0  0  0  0  0  0  0  0  0
  190.9430  177.0120  145.3380 C   0  0  0  0  0  3  0  0  0  0  0  0
  188.8450  177.4580  142.2330 N   0  0  0  0  0  0  0  0  0  0  0  0
  187.9560  177.6740  145.7640 C   0  0  0  0  0  0  0  0  0  0  0  0
  189.7950  177.1450  140.7570 S   0  0  0  0  0  0  0  0  0  0  0  0
  185.8050  178.1610  143.9280 C   0  0  0  0  0  3  0  0  0  0  0  0
  190.5380  177.1110  144.0080 C   0  0  0  0  0  0  0  0  0  0  0  0
  188.1550  177.6160  144.3100 C   0  0  0  0  0  0  0  0  0  0  0  0
  188.9280  177.4520  146.7200 C   0  0  0  0  0  3  0  0  0  0  0  0
  191.6620  176.9010  143.0550 C   0  0  0  0  0  1  0  0  0  0  0  0
  185.6030  178.2220  145.3110 C   0  0  0  0  0  3  0  0  0  0  0  0
  187.5230  177.7570  142.2270 C   0  0  0  0  0  0  0  0  0  0  0  0
  188.9020  178.3920  139.7810 C   0  0  0  0  0  2  0  0  0  0  0  0
  186.6610  177.9790  146.2060 C   0  0  0  0  0  3  0  0  0  0  0  0
  190.2720  177.1480  146.5600 C   0  0  0  0  0  0  0  0  0  0  0  0
  187.0430  177.8560  143.4720 N   0  0  0  0  0  0  0  0  0  0  0  0
  186.8170  178.0380  141.1260 C   0  0  0  0  0  3  0  0  0  0  0  0
  186.6890  178.8120  138.8390 O   0  0  0  0  0  0  0  0  0  0  0  0
  183.0640  179.8910  138.9700 C   0  0  0  0  0  1  0  0  0  0  0  0
  184.5120  179.8770  139.1000 N   0  0  0  0  0  2  0  0  0  0  0  0
  185.2980  178.7590  138.6870 C   0  0  0  0  0  0  0  0  0  0  0  0
  184.7410  177.7410  138.1910 O   0  0  0  0  0  0  0  0  0  0  0  0
  190.9910  176.9740  147.7500 O   0  0  0  0  0  0  0  0  0  0  0  0
  192.1420  176.2340  147.8390 C   0  0  0  0  0  0  0  0  0  0  0  0
  193.1140  175.6090  147.9150 N   0  0  0  0  0  0  0  0  0  0  0  0
  1 19  1  6  0  0  0
  1 14  1  0  0  0  0
  1 18  1  0  0  0  0
  2  8  1  0  0  0  0
  2  9  2  0  0  0  0
  3 16  1  0  0  0  0
  4  2  1  0  0  0  0
  5 15  2  0  0  0  0
  5 10  1  0  0  0  0
  6  4  1  0  0  0  0
  7 12  2  0  0  0  0
  8  3  2  0  0  0  0
  9  5  1  0  0  0  0
 11  8  1  0  0  0  0
 12 15  1  0  0  0  0
 13  4  1  0  0  0  0
 13 17  1  0  0  0  0
 14  6  1  0  0  0  0
 16 10  2  0  0  0  0
 16 24  1  0  0  0  0
 17  7  1  0  0  0  0
 17  9  1  0  0  0  0
 18 13  2  0  0  0  0
 20 21  1  0  0  0  0
 22 19  1  0  0  0  0
 22 21  1  0  0  0  0
 23 22  2  0  0  0  0
 24 25  1  0  0  0  0
 25 26  3  0  0  0  0
M  END
>  <MODEL>
2

>  <REMARK>
 VINA RESULT:      -8.9      1.600      2.037
  Name = 
  4 active torsions:
  status: ('A' for Active; 'I' for Inactive)
    1  A    between atoms: C_1  and  O_10
    2  A    between atoms: C_7  and  O_23
    3  A    between atoms: O_10  and  C_21
    4  A    between atoms: C_22  and  O_23
                            x       y       z     vdW  Elec       q    Type
                         _______ _______ _______ _____ _____    ______ ____

>  <TORSDO>
F 4

$$$$
=
 OpenBabel10222416103D

 26 29  0  0  1  0  0  0  0  0999 V2000
  184.5100  178.9040  141.7310 C   0  0  1  0  0  3  0  0  0  0  0  0
  187.4220  177.9550  144.6730 C   0  0  0  0  0  0  0  0  0  0  0  0
  188.5110  177.4800  146.8780 C   0  0  0  0  0  3  0  0  0  0  0  0
  186.3660  178.3870  143.9070 N   0  0  0  0  0  0  0  0  0  0  0  0
  189.7680  177.0820  144.0840 C   0  0  0  0  0  0  0  0  0  0  0  0
  184.8000  179.0680  144.4210 S   0  0  0  0  0  0  0  0  0  0  0  0
  188.7620  177.5210  141.4340 C   0  0  0  0  0  3  0  0  0  0  0  0
  187.4420  177.8940  146.0840 C   0  0  0  0  0  0  0  0  0  0  0  0
  188.4180  177.6110  143.8500 C   0  0  0  0  0  0  0  0  0  0  0  0
  190.3360  176.8430  145.3210 C   0  0  0  0  0  3  0  0  0  0  0  0
  186.2510  178.2800  146.8900 C   0  0  0  0  0  1  0  0  0  0  0  0
  190.0490  177.0150  141.6430 C   0  0  0  0  0  3  0  0  0  0  0  0
  186.7470  178.2720  142.6120 C   0  0  0  0  0  0  0  0  0  0  0  0
  183.8980  178.3510  143.0150 C   0  0  0  0  0  2  0  0  0  0  0  0
  190.5380  176.8050  142.9460 C   0  0  0  0  0  3  0  0  0  0  0  0
  189.8000  177.0170  146.5890 C   0  0  0  0  0  0  0  0  0  0  0  0
  188.0000  177.8110  142.5150 N   0  0  0  0  0  0  0  0  0  0  0  0
  185.9390  178.4740  141.5650 C   0  0  0  0  0  3  0  0  0  0  0  0
  183.7300  178.5530  140.5880 O   0  0  0  0  0  0  0  0  0  0  0  0
  181.6420  180.3740  138.0090 C   0  0  0  0  0  1  0  0  0  0  0  0
  182.0560  179.4750  139.0740 N   0  0  0  0  0  2  0  0  0  0  0  0
  183.3980  179.4430  139.5580 C   0  0  0  0  0  0  0  0  0  0  0  0
  184.2700  180.2090  139.0620 O   0  0  0  0  0  0  0  0  0  0  0  0
  190.6530  176.6820  147.6490 O   0  0  0  0  0  0  0  0  0  0  0  0
  191.8220  175.9820  147.4880 C   0  0  0  0  0  0  0  0  0  0  0  0
  192.8090  175.3920  147.3540 N   0  0  0  0  0  0  0  0  0  0  0  0
  1 19  1  6  0  0  0
  1 14  1  0  0  0  0
  2  8  1  0  0  0  0
  4  6  1  0  0  0  0
  4  2  1  0  0  0  0
  5 10  1  0  0  0  0
  7 12  2  0  0  0  0
  7 17  1  0  0  0  0
  8  3  2  0  0  0  0
  8 11  1  0  0  0  0
  9  5  1  0  0  0  0
  9  2  2  0  0  0  0
 10 16  2  0  0  0  0
 12 15  1  0  0  0  0
 13  4  1  0  0  0  0
 14  6  1  0  0  0  0
 15  5  2  0  0  0  0
 16  3  1  0  0  0  0
 16 24  1  0  0  0  0
 17 13  1  0  0  0  0
 17  9  1  0  0  0  0
 18  1  1  0  0  0  0
 18 13  2  0  0  0  0
 20 21  1  0  0  0  0
 21 22  1  0  0  0  0
 22 19  1  0  0  0  0
 23 22  2  0  0  0  0
 25 24  1  0  0  0  0
 26 25  3  0  0  0  0
M  END
>  <MODEL>
3

>  <REMARK>
 VINA RESULT:      -8.7      1.948      3.590
  Name = 
  4 active torsions:
  status: ('A' for Active; 'I' for Inactive)
    1  A    between atoms: C_1  and  O_10
    2  A    between atoms: C_7  and  O_23
    3  A    between atoms: O_10  and  C_21
    4  A    between atoms: C_22  and  O_23
                            x       y       z     vdW  Elec       q    Type
                         _______ _______ _______ _____ _____    ______ ____

>  <TORSDO>
F 4

$$$$
=
 OpenBabel10222416103D

 26 29  0  0  1  0  0  0  0  0999 V2000
  189.9350  177.2380  143.4460 C   0  0  1  0  0  3  0  0  0  0  0  0
  185.8710  178.3330  142.8750 C   0  0  0  0  0  0  0  0  0  0  0  0
  183.6700  178.8270  141.7890 C   0  0  0  0  0  3  0  0  0  0  0  0
  187.2180  178.0620  142.8250 N   0  0  0  0  0  0  0  0  0  0  0  0
  184.2160  178.6170  144.8230 C   0  0  0  0  0  0  0  0  0  0  0  0
  188.3030  177.9780  141.4130 S   0  0  0  0  0  0  0  0  0  0  0  0
  186.5970  178.0560  146.3210 C   0  0  0  0  0  3  0  0  0  0  0  0
  185.0310  178.5300  141.7570 C   0  0  0  0  0  0  0  0  0  0  0  0
  185.5050  178.3790  144.1600 C   0  0  0  0  0  0  0  0  0  0  0  0
  183.0220  178.8970  144.1850 C   0  0  0  0  0  3  0  0  0  0  0  0
  185.5580  178.4230  140.3690 C   0  0  0  0  0  1  0  0  0  0  0  0
  185.3740  178.2790  146.9640 C   0  0  0  0  0  3  0  0  0  0  0  0
  187.6390  177.9270  144.1060 C   0  0  0  0  0  0  0  0  0  0  0  0
  189.3480  176.6860  142.1500 C   0  0  0  0  0  2  0  0  0  0  0  0
  184.2110  178.5570  146.2230 C   0  0  0  0  0  3  0  0  0  0  0  0
  182.7480  179.0030  142.8290 C   0  0  0  0  0  0  0  0  0  0  0  0
  186.6350  178.1210  144.9690 N   0  0  0  0  0  0  0  0  0  0  0  0
  188.8670  177.5310  144.4600 C   0  0  0  0  0  3  0  0  0  0  0  0
  190.9300  176.3650  143.9820 O   0  0  0  0  0  0  0  0  0  0  0  0
  192.4290  175.6280  147.3780 C   0  0  0  0  0  1  0  0  0  0  0  0
  191.7540  175.4810  146.0990 N   0  0  0  0  0  2  0  0  0  0  0  0
  191.5890  176.5770  145.2000 C   0  0  0  0  0  0  0  0  0  0  0  0
  192.0350  177.7180  145.5020 O   0  0  0  0  0  0  0  0  0  0  0  0
  181.4180  179.3090  142.5110 O   0  0  0  0  0  0  0  0  0  0  0  0
  180.3400  178.7650  143.1610 C   0  0  0  0  0  0  0  0  0  0  0  0
  179.4290  178.3060  143.7100 N   0  0  0  0  0  0  0  0  0  0  0  0
  1 19  1  1  0  0  0
  1 18  1  0  0  0  0
  2  9  2  0  0  0  0
  3 16  1  0  0  0  0
  4  2  1  0  0  0  0
  4 13  1  0  0  0  0
  5 15  2  0  0  0  0
  6 14  1  0  0  0  0
  6  4  1  0  0  0  0
  7 12  2  0  0  0  0
  8  3  2  0  0  0  0
  8  2  1  0  0  0  0
  9  5  1  0  0  0  0
  9 17  1  0  0  0  0
 10  5  1  0  0  0  0
 11  8  1  0  0  0  0
 13 18  2  0  0  0  0
 13 17  1  0  0  0  0
 14  1  1  0  0  0  0
 15 12  1  0  0  0  0
 16 10  2  0  0  0  0
 17  7  1  0  0  0  0
 19 22  1  0  0  0  0
 21 20  1  0  0  0  0
 22 23  2  0  0  0  0
 22 21  1  0  0  0  0
 24 16  1  0  0  0  0
 24 25  1  0  0  0  0
 25 26  3  0  0  0  0
M  END
>  <MODEL>
4

>  <REMARK>
 VINA RESULT:      -8.4      2.581      7.751
  Name = 
  4 active torsions:
  status: ('A' for Active; 'I' for Inactive)
    1  A    between atoms: C_1  and  O_10
    2  A    between atoms: C_7  and  O_23
    3  A    between atoms: O_10  and  C_21
    4  A    between atoms: C_22  and  O_23
                            x       y       z     vdW  Elec       q    Type
                         _______ _______ _______ _____ _____    ______ ____

>  <TORSDO>
F 4

$$$$
=
 OpenBabel10222416103D

 26 29  0  0  1  0  0  0  0  0999 V2000
  190.6230  177.1310  138.6130 C   0  0  1  0  0  3  0  0  0  0  0  0
  188.3190  177.7780  142.1220 C   0  0  0  0  0  0  0  0  0  0  0  0
  186.3960  178.2640  143.6500 C   0  0  0  0  0  3  0  0  0  0  0  0
  188.8980  177.7220  140.8760 N   0  0  0  0  0  0  0  0  0  0  0  0
  189.1920  177.2480  144.4820 C   0  0  0  0  0  0  0  0  0  0  0  0
  188.2300  178.2060  139.2960 S   0  0  0  0  0  0  0  0  0  0  0  0
  191.5410  176.6020  142.9660 C   0  0  0  0  0  3  0  0  0  0  0  0
  186.9920  178.1790  142.3920 C   0  0  0  0  0  0  0  0  0  0  0  0
  189.2310  177.3940  143.0200 C   0  0  0  0  0  0  0  0  0  0  0  0
  188.1100  177.5370  145.2910 C   0  0  0  0  0  3  0  0  0  0  0  0
  186.0610  178.5580  141.2950 C   0  0  0  0  0  1  0  0  0  0  0  0
  191.5160  176.4570  144.3570 C   0  0  0  0  0  3  0  0  0  0  0  0
  190.1650  177.2740  141.0520 C   0  0  0  0  0  0  0  0  0  0  0  0
  189.1290  176.9110  138.3910 C   0  0  0  0  0  2  0  0  0  0  0  0
  190.3620  176.7780  145.0950 C   0  0  0  0  0  3  0  0  0  0  0  0
  186.8470  177.9990  144.9480 C   0  0  0  0  0  0  0  0  0  0  0  0
  190.4300  177.0660  142.3470 N   0  0  0  0  0  0  0  0  0  0  0  0
  191.0020  176.9640  140.0560 C   0  0  0  0  0  3  0  0  0  0  0  0
  191.4060  176.2840  137.7710 O   0  0  0  0  0  0  0  0  0  0  0  0
  194.7460  174.5290  138.0710 C   0  0  0  0  0  1  0  0  0  0  0  0
  193.3210  174.7850  137.9390 N   0  0  0  0  0  2  0  0  0  0  0  0
  192.7900  176.1090  137.9010 C   0  0  0  0  0  0  0  0  0  0  0  0
  193.5610  177.1040  137.9810 O   0  0  0  0  0  0  0  0  0  0  0  0
  185.9730  178.1990  146.0240 O   0  0  0  0  0  0  0  0  0  0  0  0
  184.6810  178.6390  145.8790 C   0  0  0  0  0  0  0  0  0  0  0  0
  183.5910  179.0090  145.7570 N   0  0  0  0  0  0  0  0  0  0  0  0
  1 19  1  6  0  0  0
  1 18  1  0  0  0  0
  2  8  1  0  0  0  0
  2  9  2  0  0  0  0
  3 16  1  0  0  0  0
  4 13  1  0  0  0  0
  4  2  1  0  0  0  0
  5 15  2  0  0  0  0
  5 10  1  0  0  0  0
  6  4  1  0  0  0  0
  7 12  2  0  0  0  0
  8  3  2  0  0  0  0
  9  5  1  0  0  0  0
 11  8  1  0  0  0  0
 12 15  1  0  0  0  0
 13 17  1  0  0  0  0
 14  1  1  0  0  0  0
 14  6  1  0  0  0  0
 16 10  2  0  0  0  0
 16 24  1  0  0  0  0
 17  7  1  0  0  0  0
 17  9  1  0  0  0  0
 18 13  2  0  0  0  0
 19 22  1  0  0  0  0
 21 20  1  0  0  0  0
 22 21  1  0  0  0  0
 22 23  2  0  0  0  0
 25 24  1  0  0  0  0
 26 25  3  0  0  0  0
M  END
>  <MODEL>
5

>  <REMARK>
 VINA RESULT:      -8.3      3.842      6.587
  Name = 
  4 active torsions:
  status: ('A' for Active; 'I' for Inactive)
    1  A    between atoms: C_1  and  O_10
    2  A    between atoms: C_7  and  O_23
    3  A    between atoms: O_10  and  C_21
    4  A    between atoms: C_22  and  O_23
                            x       y       z     vdW  Elec       q    Type
                         _______ _______ _______ _____ _____    ______ ____

>  <TORSDO>
F 4

$$$$
=
 OpenBabel10222416103D

 26 29  0  0  1  0  0  0  0  0999 V2000
  183.8290  179.0620  141.2360 C   0  0  1  0  0  3  0  0  0  0  0  0
  186.5700  178.1400  144.3460 C   0  0  0  0  0  0  0  0  0  0  0  0
  187.5240  177.6400  146.6070 C   0  0  0  0  0  3  0  0  0  0  0  0
  185.5510  178.5520  143.5210 N   0  0  0  0  0  0  0  0  0  0  0  0
  188.9860  177.3830  143.8980 C   0  0  0  0  0  0  0  0  0  0  0  0
  183.9270  179.1530  143.9430 S   0  0  0  0  0  0  0  0  0  0  0  0
  188.1470  177.8650  141.1970 C   0  0  0  0  0  3  0  0  0  0  0  0
  186.4950  178.0350  145.7530 C   0  0  0  0  0  0  0  0  0  0  0  0
  187.6340  177.8630  143.5850 C   0  0  0  0  0  0  0  0  0  0  0  0
  189.4780  177.1270  145.1640 C   0  0  0  0  0  3  0  0  0  0  0  0
  185.2370  178.3460  146.4840 C   0  0  0  0  0  1  0  0  0  0  0  0
  189.4370  177.4050  141.4820 C   0  0  0  0  0  3  0  0  0  0  0  0
  186.0260  178.4940  142.2530 C   0  0  0  0  0  0  0  0  0  0  0  0
  183.1550  178.4450  142.4580 C   0  0  0  0  0  2  0  0  0  0  0  0
  189.8430  177.1730  142.8080 C   0  0  0  0  0  3  0  0  0  0  0  0
  188.8490  177.2390  146.3960 C   0  0  0  0  0  0  0  0  0  0  0  0
  187.3000  178.0890  142.2310 N   0  0  0  0  0  0  0  0  0  0  0  0
  185.2830  178.6960  141.1580 C   0  0  0  0  0  3  0  0  0  0  0  0
  183.1450  178.7170  140.0310 O   0  0  0  0  0  0  0  0  0  0  0  0
  184.5190  176.5480  137.2520 C   0  0  0  0  0  1  0  0  0  0  0  0
  184.1990  177.6940  138.0860 N   0  0  0  0  0  2  0  0  0  0  0  0
  183.4160  177.5710  139.2730 C   0  0  0  0  0  0  0  0  0  0  0  0
  182.9780  176.4430  139.6300 O   0  0  0  0  0  0  0  0  0  0  0  0
  189.6410  176.9060  147.5020 O   0  0  0  0  0  0  0  0  0  0  0  0
  190.9760  176.6030  147.4150 C   0  0  0  0  0  0  0  0  0  0  0  0
  192.1030  176.3480  147.3420 N   0  0  0  0  0  0  0  0  0  0  0  0
  1 19  1  6  0  0  0
  1 14  1  0  0  0  0
  2  8  1  0  0  0  0
  4  6  1  0  0  0  0
  4  2  1  0  0  0  0
  5 10  1  0  0  0  0
  7 12  2  0  0  0  0
  7 17  1  0  0  0  0
  8 11  1  0  0  0  0
  8  3  2  0  0  0  0
  9  5  1  0  0  0  0
  9  2  2  0  0  0  0
 10 16  2  0  0  0  0
 12 15  1  0  0  0  0
 13  4  1  0  0  0  0
 14  6  1  0  0  0  0
 15  5  2  0  0  0  0
 16  3  1  0  0  0  0
 16 24  1  0  0  0  0
 17 13  1  0  0  0  0
 17  9  1  0  0  0  0
 18  1  1  0  0  0  0
 18 13  2  0  0  0  0
 20 21  1  0  0  0  0
 21 22  1  0  0  0  0
 22 23  2  0  0  0  0
 22 19  1  0  0  0  0
 25 24  1  0  0  0  0
 26 25  3  0  0  0  0
M  END
>  <MODEL>
6

>  <REMARK>
 VINA RESULT:      -8.3      2.227      4.056
  Name = 
  4 active torsions:
  status: ('A' for Active; 'I' for Inactive)
    1  A    between atoms: C_1  and  O_10
    2  A    between atoms: C_7  and  O_23
    3  A    between atoms: O_10  and  C_21
    4  A    between atoms: C_22  and  O_23
                            x       y       z     vdW  Elec       q    Type
                         _______ _______ _______ _____ _____    ______ ____

>  <TORSDO>
F 4

$$$$
=
 OpenBabel10222416103D

 26 29  0  0  1  0  0  0  0  0999 V2000
  185.1860  178.5480  144.0350 C   0  0  1  0  0  3  0  0  0  0  0  0
  188.7870  177.4480  145.9980 C   0  0  0  0  0  0  0  0  0  0  0  0
  190.4500  176.8980  147.7880 C   0  0  0  0  0  3  0  0  0  0  0  0
  187.5720  177.9290  145.5750 N   0  0  0  0  0  0  0  0  0  0  0  0
  190.8260  176.5030  144.7470 C   0  0  0  0  0  0  0  0  0  0  0  0
  186.2500  178.6570  146.5250 S   0  0  0  0  0  0  0  0  0  0  0  0
  189.1120  177.0220  142.5060 C   0  0  0  0  0  3  0  0  0  0  0  0
  189.2130  177.3620  147.3420 C   0  0  0  0  0  0  0  0  0  0  0  0
  189.4880  177.0830  144.9190 C   0  0  0  0  0  0  0  0  0  0  0  0
  191.7190  176.2230  145.7640 C   0  0  0  0  0  3  0  0  0  0  0  0
  188.3230  177.7760  148.4610 C   0  0  0  0  0  1  0  0  0  0  0  0
  190.3840  176.4670  142.3300 C   0  0  0  0  0  3  0  0  0  0  0  0
  187.5560  177.8220  144.2230 C   0  0  0  0  0  0  0  0  0  0  0  0
  184.9520  177.9960  145.4380 C   0  0  0  0  0  2  0  0  0  0  0  0
  191.2210  176.2180  143.4330 C   0  0  0  0  0  3  0  0  0  0  0  0
  191.5810  176.3940  147.1340 C   0  0  0  0  0  0  0  0  0  0  0  0
  188.7080  177.3200  143.7640 N   0  0  0  0  0  0  0  0  0  0  0  0
  186.4870  178.0700  143.4580 C   0  0  0  0  0  3  0  0  0  0  0  0
  184.0940  178.2440  143.1650 O   0  0  0  0  0  0  0  0  0  0  0  0
  180.6870  179.3890  141.9830 C   0  0  0  0  0  1  0  0  0  0  0  0
  181.9370  178.6590  142.1080 N   0  0  0  0  0  2  0  0  0  0  0  0
  182.9100  178.9900  143.0990 C   0  0  0  0  0  0  0  0  0  0  0  0
  182.7010  179.9410  143.9010 O   0  0  0  0  0  0  0  0  0  0  0  0
  192.6910  176.0120  147.8980 O   0  0  0  0  0  0  0  0  0  0  0  0
  193.1510  176.7260  148.9760 C   0  0  0  0  0  0  0  0  0  0  0  0
  193.5390  177.3280  149.8850 N   0  0  0  0  0  0  0  0  0  0  0  0
  1 19  1  6  0  0  0
  1 14  1  0  0  0  0
  2  8  1  0  0  0  0
  4  2  1  0  0  0  0
  4  6  1  0  0  0  0
  5  9  1  0  0  0  0
  5 10  1  0  0  0  0
  7 17  1  0  0  0  0
  8  3  2  0  0  0  0
  8 11  1  0  0  0  0
  9  2  2  0  0  0  0
 10 16  2  0  0  0  0
 12  7  2  0  0  0  0
 12 15  1  0  0  0  0
 13  4  1  0  0  0  0
 14  6  1  0  0  0  0
 15  5  2  0  0  0  0
 16  3  1  0  0  0  0
 16 24  1  0  0  0  0
 17 13  1  0  0  0  0
 17  9  1  0  0  0  0
 18  1  1  0  0  0  0
 18 13  2  0  0  0  0
 20 21  1  0  0  0  0
 21 22  1  0  0  0  0
 22 19  1  0  0  0  0
 22 23  2  0  0  0  0
 24 25  1  0  0  0  0
 25 26  3  0  0  0  0
M  END
>  <MODEL>
7

>  <REMARK>
 VINA RESULT:      -8.2      1.924      3.420
  Name = 
  4 active torsions:
  status: ('A' for Active; 'I' for Inactive)
    1  A    between atoms: C_1  and  O_10
    2  A    between atoms: C_7  and  O_23
    3  A    between atoms: O_10  and  C_21
    4  A    between atoms: C_22  and  O_23
                            x       y       z     vdW  Elec       q    Type
                         _______ _______ _______ _____ _____    ______ ____

>  <TORSDO>
F 4

$$$$
=
 OpenBabel10222416103D

 26 29  0  0  1  0  0  0  0  0999 V2000
  189.5590  177.6110  138.4040 C   0  0  1  0  0  3  0  0  0  0  0  0
  188.0620  177.8330  142.3730 C   0  0  0  0  0  0  0  0  0  0  0  0
  186.4950  177.9700  144.3210 C   0  0  0  0  0  3  0  0  0  0  0  0
  188.3350  177.8830  141.0270 N   0  0  0  0  0  0  0  0  0  0  0  0
  189.5380  177.4540  144.4440 C   0  0  0  0  0  0  0  0  0  0  0  0
  187.2450  178.2500  139.6640 S   0  0  0  0  0  0  0  0  0  0  0  0
  191.5430  177.2330  142.4040 C   0  0  0  0  0  3  0  0  0  0  0  0
  186.7870  177.9960  142.9580 C   0  0  0  0  0  0  0  0  0  0  0  0
  189.2100  177.6100  143.0210 C   0  0  0  0  0  0  0  0  0  0  0  0
  188.6420  177.5470  145.4920 C   0  0  0  0  0  3  0  0  0  0  0  0
  185.5750  178.2110  142.1200 C   0  0  0  0  0  1  0  0  0  0  0  0
  191.8680  177.0800  143.7560 C   0  0  0  0  0  3  0  0  0  0  0  0
  189.6650  177.6630  140.8880 C   0  0  0  0  0  0  0  0  0  0  0  0
  188.1140  177.1340  138.5210 C   0  0  0  0  0  2  0  0  0  0  0  0
  190.8800  177.1930  144.7520 C   0  0  0  0  0  3  0  0  0  0  0  0
  187.2750  177.7830  145.4680 C   0  0  0  0  0  0  0  0  0  0  0  0
  190.2560  177.4990  142.0770 N   0  0  0  0  0  0  0  0  0  0  0  0
  190.2870  177.5070  139.7130 C   0  0  0  0  0  3  0  0  0  0  0  0
  190.2560  176.9160  137.3690 O   0  0  0  0  0  0  0  0  0  0  0  0
  193.6430  175.2530  137.6510 C   0  0  0  0  0  1  0  0  0  0  0  0
  192.5960  176.2360  137.4300 N   0  0  0  0  0  2  0  0  0  0  0  0
  191.2140  175.9200  137.5970 C   0  0  0  0  0  0  0  0  0  0  0  0
  190.8660  174.7580  137.9460 O   0  0  0  0  0  0  0  0  0  0  0  0
  186.6550  177.8240  146.7240 O   0  0  0  0  0  0  0  0  0  0  0  0
  187.3410  177.9550  147.9040 C   0  0  0  0  0  0  0  0  0  0  0  0
  187.9200  178.0650  148.9010 N   0  0  0  0  0  0  0  0  0  0  0  0
  1 19  1  6  0  0  0
  1 14  1  0  0  0  0
  1 18  1  0  0  0  0
  2  8  1  0  0  0  0
  2  9  2  0  0  0  0
  3 16  1  0  0  0  0
  4  2  1  0  0  0  0
  5 15  2  0  0  0  0
  5 10  1  0  0  0  0
  6  4  1  0  0  0  0
  7 12  2  0  0  0  0
  8  3  2  0  0  0  0
  9  5  1  0  0  0  0
 11  8  1  0  0  0  0
 12 15  1  0  0  0  0
 13  4  1  0  0  0  0
 13 17  1  0  0  0  0
 14  6  1  0  0  0  0
 16 10  2  0  0  0  0
 16 24  1  0  0  0  0
 17  7  1  0  0  0  0
 17  9  1  0  0  0  0
 18 13  2  0  0  0  0
 19 22  1  0  0  0  0
 21 22  1  0  0  0  0
 21 20  1  0  0  0  0
 22 23  2  0  0  0  0
 24 25  1  0  0  0  0
 25 26  3  0  0  0  0
M  END
>  <MODEL>
8

>  <REMARK>
 VINA RESULT:      -8.1      3.595      5.772
  Name = 
  4 active torsions:
  status: ('A' for Active; 'I' for Inactive)
    1  A    between atoms: C_1  and  O_10
    2  A    between atoms: C_7  and  O_23
    3  A    between atoms: O_10  and  C_21
    4  A    between atoms: C_22  and  O_23
                            x       y       z     vdW  Elec       q    Type
                         _______ _______ _______ _____ _____    ______ ____

>  <TORSDO>
F 4

$$$$
=
 OpenBabel10222416103D

 26 29  0  0  1  0  0  0  0  0999 V2000
  190.3020  176.9030  146.9350 C   0  0  1  0  0  3  0  0  0  0  0  0
  186.6280  177.9260  145.0680 C   0  0  0  0  0  0  0  0  0  0  0  0
  184.2550  178.6480  144.7200 C   0  0  0  0  0  3  0  0  0  0  0  0
  187.6730  177.5310  145.8680 N   0  0  0  0  0  0  0  0  0  0  0  0
  186.3970  178.2580  142.5280 C   0  0  0  0  0  0  0  0  0  0  0  0
  187.7030  177.2380  147.6270 S   0  0  0  0  0  0  0  0  0  0  0  0
  189.1530  177.4680  142.6410 C   0  0  0  0  0  3  0  0  0  0  0  0
  185.3330  178.2670  145.5180 C   0  0  0  0  0  0  0  0  0  0  0  0
  187.0530  177.9260  143.8000 C   0  0  0  0  0  0  0  0  0  0  0  0
  185.0790  178.6440  142.3780 C   0  0  0  0  0  3  0  0  0  0  0  0
  184.9920  178.2560  146.9670 C   0  0  0  0  0  1  0  0  0  0  0  0
  188.5410  177.7840  141.4230 C   0  0  0  0  0  3  0  0  0  0  0  0
  188.7330  177.3170  145.0520 C   0  0  0  0  0  0  0  0  0  0  0  0
  189.4240  177.7970  147.8050 C   0  0  0  0  0  2  0  0  0  0  0  0
  187.1890  178.1680  141.3750 C   0  0  0  0  0  3  0  0  0  0  0  0
  184.0950  178.8220  143.3390 C   0  0  0  0  0  0  0  0  0  0  0  0
  188.4100  177.5330  143.7710 N   0  0  0  0  0  0  0  0  0  0  0  0
  189.9720  177.0460  145.4770 C   0  0  0  0  0  3  0  0  0  0  0  0
  191.6900  177.1410  147.1760 O   0  0  0  0  0  0  0  0  0  0  0  0
  193.7870  176.7510  150.3010 C   0  0  0  0  0  1  0  0  0  0  0  0
  193.0090  177.3260  149.2180 N   0  0  0  0  0  2  0  0  0  0  0  0
  192.4300  176.5210  148.1910 C   0  0  0  0  0  0  0  0  0  0  0  0
  192.5860  175.2690  148.2040 O   0  0  0  0  0  0  0  0  0  0  0  0
  182.8440  179.2160  142.8470 O   0  0  0  0  0  0  0  0  0  0  0  0
  181.6560  178.9000  143.4560 C   0  0  0  0  0  0  0  0  0  0  0  0
  180.6530  178.6340  143.9710 N   0  0  0  0  0  0  0  0  0  0  0  0
  1 19  1  6  0  0  0
  1 14  1  0  0  0  0
  2  8  1  0  0  0  0
  2  4  1  0  0  0  0
  3  8  2  0  0  0  0
  4  6  1  0  0  0  0
  5  9  1  0  0  0  0
  6 14  1  0  0  0  0
  7 17  1  0  0  0  0
  8 11  1  0  0  0  0
  9  2  2  0  0  0  0
 10  5  1  0  0  0  0
 10 16  2  0  0  0  0
 12  7  2  0  0  0  0
 13 18  2  0  0  0  0
 13  4  1  0  0  0  0
 15 12  1  0  0  0  0
 15  5  2  0  0  0  0
 16  3  1  0  0  0  0
 17  9  1  0  0  0  0
 17 13  1  0  0  0  0
 18  1  1  0  0  0  0
 19 22  1  0  0  0  0
 21 20  1  0  0  0  0
 22 23  2  0  0  0  0
 22 21  1  0  0  0  0
 24 16  1  0  0  0  0
 24 25  1  0  0  0  0
 25 26  3  0  0  0  0
M  END
>  <MODEL>
9

>  <REMARK>
 VINA RESULT:      -8.1      2.222      8.455
  Name = 
  4 active torsions:
  status: ('A' for Active; 'I' for Inactive)
    1  A    between atoms: C_1  and  O_10
    2  A    between atoms: C_7  and  O_23
    3  A    between atoms: O_10  and  C_21
    4  A    between atoms: C_22  and  O_23
                            x       y       z     vdW  Elec       q    Type
                         _______ _______ _______ _____ _____    ______ ____

>  <TORSDO>
F 4

$$$$
