=
 OpenBabel10222418303D

 49 55  0  0  1  0  0  0  0  0999 V2000
  188.3230  177.8850  142.9180 C   0  0  0  0  0  3  0  0  0  0  0  0
  184.1090  178.6970  143.8550 C   0  0  0  0  0  0  0  0  0  0  0  0
  185.9790  178.4440  142.4680 C   0  0  0  0  0  0  0  0  0  0  0  0
  185.2170  178.6470  141.3570 C   0  0  0  0  0  0  0  0  0  0  0  0
  188.8530  177.7600  147.3330 C   0  0  0  0  0  1  0  0  0  0  0  0
  187.3290  178.0570  145.2620 C   0  0  0  0  0  0  0  0  0  0  0  0
  183.8340  178.8030  141.4480 C   0  0  0  0  0  0  0  0  0  0  0  0
  182.9940  178.7050  140.2230 C   0  0  0  0  0  2  0  0  0  0  0  0
  187.5320  178.0180  146.6910 C   0  0  0  0  0  0  0  0  0  0  0  0
  186.0590  178.5580  140.2740 C   0  0  0  0  0  0  0  0  0  0  0  0
  184.9960  178.5400  145.8170 C   0  0  0  0  0  0  0  0  0  0  0  0
  187.3160  178.2780  140.7260 N   0  0  0  0  0  0  0  0  0  0  0  0
  180.4260  179.6670  139.4900 O   0  0  0  0  0  0  0  0  0  0  0  0
  186.5110  178.7150  137.9610 O   0  0  0  0  0  0  0  0  0  0  0  0
  186.4930  178.2530  147.5530 N   0  0  0  0  0  0  0  0  0  0  0  0
  185.6980  178.9470  138.8890 C   0  0  0  0  0  0  0  0  0  0  0  0
  184.5280  179.7280  138.5910 N   0  0  0  0  0  0  0  0  0  0  0  0
  181.0080  180.7090  139.0810 C   0  0  0  0  0  0  0  0  0  0  0  0
  183.3640  179.7170  139.1720 C   0  0  0  0  0  0  0  0  0  0  0  0
  187.2590  178.2070  142.0880 C   0  0  0  0  0  0  0  0  0  0  0  0
  185.9960  178.3620  144.8930 C   0  0  0  0  0  0  0  0  0  0  0  0
  183.7680  178.7530  145.1990 C   0  0  0  0  0  3  0  0  0  0  0  0
  188.3840  177.7710  144.3240 C   0  0  0  0  0  0  0  0  0  0  0  0
  185.4340  178.4550  143.6890 N   0  0  0  0  0  0  0  0  0  0  0  0
  182.4040  180.6960  138.7590 N   0  0  0  0  0  2  0  0  0  0  0  0
  185.2510  178.5070  147.1370 N   0  0  0  0  0  0  0  0  0  0  0  0
  183.2510  178.8320  142.7400 C   0  0  0  0  0  3  0  0  0  0  0  0
  180.2280  181.9670  138.9280 C   0  0  0  0  0  2  0  0  0  0  0  0
  180.3520  181.9000  135.1860 C   0  0  0  0  0  3  0  0  0  0  0  0
  180.8050  183.3350  135.4670 C   0  0  0  0  0  2  0  0  0  0  0  0
  180.0800  182.3070  137.5220 N   0  0  0  0  0  0  0  0  0  0  0  0
  179.8180  181.3120  136.5030 C   0  0  0  0  0  3  0  0  0  0  0  0
  180.9870  184.4670  137.5940 O   0  0  0  0  0  0  0  0  0  0  0  0
  180.6490  183.4540  136.9290 C   0  0  0  0  0  0  0  0  0  0  0  0
  189.6350  177.2700  144.8240 N   0  0  0  0  0  2  0  0  0  0  0  0
  190.8750  177.2220  144.0530 C   0  0  2  0  0  3  0  0  0  0  0  0
  191.6680  176.1800  144.5280 O   0  0  0  0  0  1  0  0  0  0  0  0
  191.6270  178.5300  144.2180 C   0  0  0  0  0  1  0  0  0  0  0  0
  188.4970  178.0250  139.8970 C   0  0  0  0  0  2  0  0  0  0  0  0
  189.2670  176.8160  140.4190 C   0  0  0  0  0  2  0  0  0  0  0  0
  190.6050  176.6730  139.7170 C   0  0  0  0  0  2  0  0  0  0  0  0
  190.6020  177.4500  138.4150 C   0  0  0  0  0  2  0  0  0  0  0  0
  190.9510  176.5530  137.2200 C   0  0  0  0  0  2  0  0  0  0  0  0
  190.6420  173.7530  137.5930 O   0  0  0  0  0  0  0  0  0  0  0  0
  189.7950  175.7830  136.7670 N   0  0  0  0  0  0  0  0  0  0  0  0
  188.4680  173.5930  136.6770 C   0  0  0  0  0  1  0  0  0  0  0  0
  189.6920  174.3670  137.0400 C   0  0  0  0  0  0  0  0  0  0  0  0
  189.0210  177.3590  135.0560 C   0  0  0  0  0  1  0  0  0  0  0  0
  188.6440  176.5490  136.2840 C   0  0  0  0  0  2  0  0  0  0  0  0
  1 23  2  0  0  0  0
  2 22  2  0  0  0  0
  3 24  1  0  0  0  0
  4  7  1  0  0  0  0
  4  3  1  0  0  0  0
  6  9  1  0  0  0  0
  7 27  2  0  0  0  0
  8  7  1  0  0  0  0
  9  5  1  0  0  0  0
  9 15  2  0  0  0  0
 10 12  1  0  0  0  0
 10  4  2  0  0  0  0
 11 26  2  0  0  0  0
 12 20  1  0  0  0  0
 14 16  2  0  0  0  0
 16 10  1  0  0  0  0
 17 16  1  0  0  0  0
 17 19  2  0  0  0  0
 18 13  2  0  0  0  0
 19  8  1  0  0  0  0
 20  3  2  0  0  0  0
 20  1  1  0  0  0  0
 21  6  2  0  0  0  0
 21 11  1  0  0  0  0
 22 11  1  0  0  0  0
 23 35  1  0  0  0  0
 23  6  1  0  0  0  0
 24  2  1  0  0  0  0
 24 21  1  0  0  0  0
 25 18  1  0  0  0  0
 25 19  1  0  0  0  0
 26 15  1  0  0  0  0
 27  2  1  0  0  0  0
 28 18  1  0  0  0  0
 29 30  1  0  0  0  0
 29 32  2  0  0  0  0
 30 34  1  0  0  0  0
 31 28  1  0  0  0  0
 32 31  1  0  0  0  0
 34 31  1  0  0  0  0
 34 33  2  0  0  0  0
 36 38  1  1  0  0  0
 36 37  1  0  0  0  0
 36 35  1  0  0  0  0
 39 40  1  0  0  0  0
 39 12  1  0  0  0  0
 41 40  1  0  0  0  0
 42 41  1  0  0  0  0
 43 42  1  0  0  0  0
 45 47  1  0  0  0  0
 45 43  1  0  0  0  0
 46 47  1  0  0  0  0
 47 44  2  0  0  0  0
 48 49  1  0  0  0  0
 49 45  1  0  0  0  0
M  END
>  <MODEL>
1

>  <REMARK>
 VINA RESULT:     -10.0      0.000      0.000
  Name = 
  11 active torsions:
  status: ('A' for Active; 'I' for Inactive)
    1  A    between atoms: C_1  and  N_22
    2  A    between atoms: C_1  and  C_31
    3  A    between atoms: C_3  and  C_6
    4  A    between atoms: C_3  and  C_41
    5  A    between atoms: C_6  and  C_36
    6  A    between atoms: C_10  and  N_30
    7  A    between atoms: C_20  and  N_43
    8  A    between atoms: N_23  and  C_36
    9  A    between atoms: C_24  and  C_41
   10  A    between atoms: C_24  and  N_43
   11  A    between atoms: N_30  and  C_42
                            x       y       z     vdW  Elec       q    Type
                         _______ _______ _______ _____ _____    ______ ____

>  <TORSDO>
F 11

$$$$
=
 OpenBabel10222418303D

 49 55  0  0  1  0  0  0  0  0999 V2000
  188.1850  177.7390  142.8740 C   0  0  0  0  0  3  0  0  0  0  0  0
  184.0240  178.7500  143.8530 C   0  0  0  0  0  0  0  0  0  0  0  0
  185.8590  178.3860  142.4450 C   0  0  0  0  0  0  0  0  0  0  0  0
  185.0900  178.5950  141.3410 C   0  0  0  0  0  0  0  0  0  0  0  0
  188.7780  177.6950  147.2820 C   0  0  0  0  0  1  0  0  0  0  0  0
  187.2360  178.0080  145.2280 C   0  0  0  0  0  0  0  0  0  0  0  0
  183.7160  178.8110  141.4480 C   0  0  0  0  0  0  0  0  0  0  0  0
  182.8540  178.7190  140.2380 C   0  0  0  0  0  2  0  0  0  0  0  0
  187.4590  177.9940  146.6530 C   0  0  0  0  0  0  0  0  0  0  0  0
  185.9100  178.4450  140.2480 C   0  0  0  0  0  0  0  0  0  0  0  0
  184.9340  178.6010  145.8050 C   0  0  0  0  0  0  0  0  0  0  0  0
  187.1620  178.1230  140.6880 N   0  0  0  0  0  0  0  0  0  0  0  0
  180.3170  179.7720  139.5200 O   0  0  0  0  0  0  0  0  0  0  0  0
  186.3320  178.5280  137.9250 O   0  0  0  0  0  0  0  0  0  0  0  0
  186.4450  178.2930  147.5250 N   0  0  0  0  0  0  0  0  0  0  0  0
  185.5440  178.8160  138.8600 C   0  0  0  0  0  0  0  0  0  0  0  0
  184.4030  179.6380  138.5600 N   0  0  0  0  0  0  0  0  0  0  0  0
  180.9360  180.7780  139.0770 C   0  0  0  0  0  0  0  0  0  0  0  0
  183.2490  179.6900  139.1580 C   0  0  0  0  0  0  0  0  0  0  0  0
  187.1230  178.0860  142.0520 C   0  0  0  0  0  0  0  0  0  0  0  0
  185.9110  178.3600  144.8710 C   0  0  0  0  0  0  0  0  0  0  0  0
  183.7070  178.8510  145.1990 C   0  0  0  0  0  3  0  0  0  0  0  0
  188.2630  177.6560  144.2810 C   0  0  0  0  0  0  0  0  0  0  0  0
  185.3350  178.4490  143.6740 N   0  0  0  0  0  0  0  0  0  0  0  0
  182.3240  180.6990  138.7360 N   0  0  0  0  0  2  0  0  0  0  0  0
  185.2080  178.5890  147.1210 N   0  0  0  0  0  0  0  0  0  0  0  0
  183.1550  178.8950  142.7470 C   0  0  0  0  0  3  0  0  0  0  0  0
  180.2060  182.0640  138.9060 C   0  0  0  0  0  2  0  0  0  0  0  0
  180.1660  181.8730  135.1660 C   0  0  0  0  0  3  0  0  0  0  0  0
  180.8900  183.2040  135.3820 C   0  0  0  0  0  2  0  0  0  0  0  0
  180.0690  182.3870  137.4940 N   0  0  0  0  0  0  0  0  0  0  0  0
  179.5850  181.4310  136.5200 C   0  0  0  0  0  3  0  0  0  0  0  0
  181.3640  184.3400  137.4610 O   0  0  0  0  0  0  0  0  0  0  0  0
  180.8170  183.3910  136.8440 C   0  0  0  0  0  0  0  0  0  0  0  0
  189.5000  177.1140  144.7750 N   0  0  0  0  0  2  0  0  0  0  0  0
  190.7660  177.1460  144.0470 C   0  0  2  0  0  3  0  0  0  0  0  0
  191.6440  176.2260  144.6170 O   0  0  0  0  0  1  0  0  0  0  0  0
  191.3740  178.5330  144.1450 C   0  0  0  0  0  1  0  0  0  0  0  0
  188.3170  177.8010  139.8480 C   0  0  0  0  0  2  0  0  0  0  0  0
  189.6160  178.1270  140.5780 C   0  0  0  0  0  2  0  0  0  0  0  0
  190.7660  177.2850  140.0560 C   0  0  0  0  0  2  0  0  0  0  0  0
  190.2810  176.3480  138.9680 C   0  0  0  0  0  2  0  0  0  0  0  0
  191.0780  176.5270  137.6690 C   0  0  0  0  0  2  0  0  0  0  0  0
  193.8330  176.7500  138.3330 O   0  0  0  0  0  0  0  0  0  0  0  0
  192.0590  175.4600  137.4880 N   0  0  0  0  0  0  0  0  0  0  0  0
  194.4210  174.5190  137.8150 C   0  0  0  0  0  1  0  0  0  0  0  0
  193.4350  175.6380  137.8970 C   0  0  0  0  0  0  0  0  0  0  0  0
  190.7100  174.2080  135.8690 C   0  0  0  0  0  1  0  0  0  0  0  0
  191.5350  174.1370  137.1420 C   0  0  0  0  0  2  0  0  0  0  0  0
  1 23  2  0  0  0  0
  2 22  2  0  0  0  0
  3 24  1  0  0  0  0
  4  7  1  0  0  0  0
  4  3  1  0  0  0  0
  6  9  1  0  0  0  0
  7 27  2  0  0  0  0
  8  7  1  0  0  0  0
  9  5  1  0  0  0  0
  9 15  2  0  0  0  0
 10 12  1  0  0  0  0
 10  4  2  0  0  0  0
 11 26  2  0  0  0  0
 12 20  1  0  0  0  0
 14 16  2  0  0  0  0
 16 10  1  0  0  0  0
 17 16  1  0  0  0  0
 17 19  2  0  0  0  0
 18 13  2  0  0  0  0
 19  8  1  0  0  0  0
 20  3  2  0  0  0  0
 20  1  1  0  0  0  0
 21  6  2  0  0  0  0
 21 11  1  0  0  0  0
 22 11  1  0  0  0  0
 23 35  1  0  0  0  0
 23  6  1  0  0  0  0
 24  2  1  0  0  0  0
 24 21  1  0  0  0  0
 25 18  1  0  0  0  0
 25 19  1  0  0  0  0
 26 15  1  0  0  0  0
 27  2  1  0  0  0  0
 28 18  1  0  0  0  0
 29 30  1  0  0  0  0
 29 32  2  0  0  0  0
 30 34  1  0  0  0  0
 31 28  1  0  0  0  0
 32 31  1  0  0  0  0
 34 33  2  0  0  0  0
 34 31  1  0  0  0  0
 36 38  1  1  0  0  0
 36 37  1  0  0  0  0
 36 35  1  0  0  0  0
 39 40  1  0  0  0  0
 39 12  1  0  0  0  0
 41 40  1  0  0  0  0
 42 41  1  0  0  0  0
 43 42  1  0  0  0  0
 45 43  1  0  0  0  0
 45 47  1  0  0  0  0
 46 47  1  0  0  0  0
 47 44  2  0  0  0  0
 48 49  1  0  0  0  0
 49 45  1  0  0  0  0
M  END
>  <MODEL>
2

>  <REMARK>
 VINA RESULT:      -9.9      1.104      1.520
  Name = 
  11 active torsions:
  status: ('A' for Active; 'I' for Inactive)
    1  A    between atoms: C_1  and  N_22
    2  A    between atoms: C_1  and  C_31
    3  A    between atoms: C_3  and  C_6
    4  A    between atoms: C_3  and  C_41
    5  A    between atoms: C_6  and  C_36
    6  A    between atoms: C_10  and  N_30
    7  A    between atoms: C_20  and  N_43
    8  A    between atoms: N_23  and  C_36
    9  A    between atoms: C_24  and  C_41
   10  A    between atoms: C_24  and  N_43
   11  A    between atoms: N_30  and  C_42
                            x       y       z     vdW  Elec       q    Type
                         _______ _______ _______ _____ _____    ______ ____

>  <TORSDO>
F 11

$$$$
=
 OpenBabel10222418303D

 49 55  0  0  1  0  0  0  0  0999 V2000
  187.1650  177.7660  143.9610 C   0  0  0  0  0  3  0  0  0  0  0  0
  191.4480  176.8980  143.5270 C   0  0  0  0  0  0  0  0  0  0  0  0
  189.2740  177.3460  142.7840 C   0  0  0  0  0  0  0  0  0  0  0  0
  189.6890  177.3580  141.4870 C   0  0  0  0  0  0  0  0  0  0  0  0
  187.8920  177.1080  148.3000 C   0  0  0  0  0  1  0  0  0  0  0  0
  188.7690  177.2100  145.8670 C   0  0  0  0  0  0  0  0  0  0  0  0
  191.0370  177.2200  141.1580 C   0  0  0  0  0  0  0  0  0  0  0  0
  191.5040  177.5490  139.7840 C   0  0  0  0  0  2  0  0  0  0  0  0
  188.9740  176.9950  147.2790 C   0  0  0  0  0  0  0  0  0  0  0  0
  188.5810  177.6150  140.7150 C   0  0  0  0  0  0  0  0  0  0  0  0
  191.1490  176.6910  145.6550 C   0  0  0  0  0  0  0  0  0  0  0  0
  187.5080  177.7840  141.5420 N   0  0  0  0  0  0  0  0  0  0  0  0
  193.7380  176.7860  138.2060 O   0  0  0  0  0  0  0  0  0  0  0  0
  187.4970  177.8540  138.6300 O   0  0  0  0  0  0  0  0  0  0  0  0
  190.2050  176.6370  147.7620 N   0  0  0  0  0  0  0  0  0  0  0  0
  188.5300  177.4820  139.2390 C   0  0  0  0  0  0  0  0  0  0  0  0
  189.5480  176.7920  138.4950 N   0  0  0  0  0  0  0  0  0  0  0  0
  193.0360  175.8190  137.8020 C   0  0  0  0  0  0  0  0  0  0  0  0
  190.8280  176.7270  138.7190 C   0  0  0  0  0  0  0  0  0  0  0  0
  187.9440  177.6180  142.8240 C   0  0  0  0  0  0  0  0  0  0  0  0
  189.9360  177.0050  145.0930 C   0  0  0  0  0  0  0  0  0  0  0  0
  192.1490  176.6170  144.6900 C   0  0  0  0  0  3  0  0  0  0  0  0
  187.5010  177.6310  145.3250 C   0  0  0  0  0  0  0  0  0  0  0  0
  190.1370  177.1350  143.7830 N   0  0  0  0  0  0  0  0  0  0  0  0
  191.6070  175.8570  137.8910 N   0  0  0  0  0  2  0  0  0  0  0  0
  191.2740  176.4870  146.9780 N   0  0  0  0  0  0  0  0  0  0  0  0
  191.9570  176.9790  142.2100 C   0  0  0  0  0  3  0  0  0  0  0  0
  193.7080  174.6250  137.2210 C   0  0  0  0  0  2  0  0  0  0  0  0
  197.3270  174.6870  136.2600 C   0  0  0  0  0  3  0  0  0  0  0  0
  197.4050  174.0450  137.6470 C   0  0  0  0  0  2  0  0  0  0  0  0
  195.1520  174.7950  137.2370 N   0  0  0  0  0  0  0  0  0  0  0  0
  195.8990  175.2270  136.0740 C   0  0  0  0  0  3  0  0  0  0  0  0
  195.6150  173.6250  139.2140 O   0  0  0  0  0  0  0  0  0  0  0  0
  196.0110  174.1170  138.1270 C   0  0  0  0  0  0  0  0  0  0  0  0
  186.4550  178.0090  146.2350 N   0  0  0  0  0  2  0  0  0  0  0  0
  185.6480  179.2210  146.1100 C   0  0  2  0  0  3  0  0  0  0  0  0
  185.6720  179.9130  147.3190 O   0  0  0  0  0  1  0  0  0  0  0  0
  184.2140  178.8460  145.7850 C   0  0  0  0  0  1  0  0  0  0  0  0
  186.1500  178.1510  141.1330 C   0  0  0  0  0  2  0  0  0  0  0  0
  185.6420  179.3280  141.9610 C   0  0  0  0  0  2  0  0  0  0  0  0
  184.1320  179.2850  142.1070 C   0  0  0  0  0  2  0  0  0  0  0  0
  183.6010  177.9280  141.6890 C   0  0  0  0  0  2  0  0  0  0  0  0
  182.5070  178.0520  140.6210 C   0  0  0  0  0  2  0  0  0  0  0  0
  184.0320  179.2620  138.5500 O   0  0  0  0  0  0  0  0  0  0  0  0
  182.8880  177.3840  139.3790 N   0  0  0  0  0  0  0  0  0  0  0  0
  184.1910  177.3470  137.1720 C   0  0  0  0  0  1  0  0  0  0  0  0
  183.7070  178.0560  138.3950 C   0  0  0  0  0  0  0  0  0  0  0  0
  181.1920  175.6320  139.6360 C   0  0  0  0  0  1  0  0  0  0  0  0
  182.6420  175.9420  139.3060 C   0  0  0  0  0  2  0  0  0  0  0  0
  1 23  2  0  0  0  0
  2 24  1  0  0  0  0
  2 22  2  0  0  0  0
  3 20  2  0  0  0  0
  3 24  1  0  0  0  0
  4  3  1  0  0  0  0
  6  9  1  0  0  0  0
  7  4  1  0  0  0  0
  7 27  2  0  0  0  0
  8  7  1  0  0  0  0
  9 15  2  0  0  0  0
  9  5  1  0  0  0  0
 10  4  2  0  0  0  0
 10 12  1  0  0  0  0
 11 26  2  0  0  0  0
 12 20  1  0  0  0  0
 14 16  2  0  0  0  0
 16 10  1  0  0  0  0
 17 19  2  0  0  0  0
 17 16  1  0  0  0  0
 18 25  1  0  0  0  0
 18 13  2  0  0  0  0
 19  8  1  0  0  0  0
 20  1  1  0  0  0  0
 21 11  1  0  0  0  0
 21  6  2  0  0  0  0
 22 11  1  0  0  0  0
 23  6  1  0  0  0  0
 23 35  1  0  0  0  0
 24 21  1  0  0  0  0
 25 19  1  0  0  0  0
 26 15  1  0  0  0  0
 27  2  1  0  0  0  0
 28 31  1  0  0  0  0
 28 18  1  0  0  0  0
 29 30  1  0  0  0  0
 30 34  1  0  0  0  0
 31 34  1  0  0  0  0
 32 29  2  0  0  0  0
 32 31  1  0  0  0  0
 34 33  2  0  0  0  0
 36 38  1  1  0  0  0
 36 35  1  0  0  0  0
 36 37  1  0  0  0  0
 39 12  1  0  0  0  0
 39 40  1  0  0  0  0
 40 41  1  0  0  0  0
 42 41  1  0  0  0  0
 43 42  1  0  0  0  0
 45 43  1  0  0  0  0
 46 47  1  0  0  0  0
 47 44  2  0  0  0  0
 47 45  1  0  0  0  0
 49 45  1  0  0  0  0
 49 48  1  0  0  0  0
M  END
>  <MODEL>
3

>  <REMARK>
 VINA RESULT:      -9.7      3.101      9.077
  Name = 
  11 active torsions:
  status: ('A' for Active; 'I' for Inactive)
    1  A    between atoms: C_1  and  N_22
    2  A    between atoms: C_1  and  C_31
    3  A    between atoms: C_3  and  C_6
    4  A    between atoms: C_3  and  C_41
    5  A    between atoms: C_6  and  C_36
    6  A    between atoms: C_10  and  N_30
    7  A    between atoms: C_20  and  N_43
    8  A    between atoms: N_23  and  C_36
    9  A    between atoms: C_24  and  C_41
   10  A    between atoms: C_24  and  N_43
   11  A    between atoms: N_30  and  C_42
                            x       y       z     vdW  Elec       q    Type
                         _______ _______ _______ _____ _____    ______ ____

>  <TORSDO>
F 11

$$$$
=
 OpenBabel10222418303D

 49 55  0  0  1  0  0  0  0  0999 V2000
  188.4520  177.8980  142.9400 C   0  0  0  0  0  3  0  0  0  0  0  0
  184.1960  178.6370  143.7340 C   0  0  0  0  0  0  0  0  0  0  0  0
  186.1160  178.4200  142.4120 C   0  0  0  0  0  0  0  0  0  0  0  0
  185.3890  178.6130  141.2750 C   0  0  0  0  0  0  0  0  0  0  0  0
  188.8320  177.7680  147.3710 C   0  0  0  0  0  1  0  0  0  0  0  0
  187.3750  178.0460  145.2490 C   0  0  0  0  0  0  0  0  0  0  0  0
  184.0020  178.7450  141.3190 C   0  0  0  0  0  0  0  0  0  0  0  0
  183.2070  178.6370  140.0660 C   0  0  0  0  0  2  0  0  0  0  0  0
  187.5290  178.0070  146.6840 C   0  0  0  0  0  0  0  0  0  0  0  0
  186.2690  178.5410  140.2220 C   0  0  0  0  0  0  0  0  0  0  0  0
  185.0170  178.4890  145.7240 C   0  0  0  0  0  0  0  0  0  0  0  0
  187.5150  178.2810  140.7160 N   0  0  0  0  0  0  0  0  0  0  0  0
  180.6490  179.5590  139.2470 O   0  0  0  0  0  0  0  0  0  0  0  0
  186.7980  178.7120  137.9260 O   0  0  0  0  0  0  0  0  0  0  0  0
  186.4580  178.2220  147.5100 N   0  0  0  0  0  0  0  0  0  0  0  0
  185.9500  178.9280  138.8260 C   0  0  0  0  0  0  0  0  0  0  0  0
  184.7780  179.6900  138.4900 N   0  0  0  0  0  0  0  0  0  0  0  0
  181.2270  180.6110  138.8600 C   0  0  0  0  0  0  0  0  0  0  0  0
  183.5950  179.6580  139.0300 C   0  0  0  0  0  0  0  0  0  0  0  0
  187.4130  178.2040  142.0750 C   0  0  0  0  0  0  0  0  0  0  0  0
  186.0510  178.3300  144.8350 C   0  0  0  0  0  0  0  0  0  0  0  0
  183.8080  178.6830  145.0650 C   0  0  0  0  0  3  0  0  0  0  0  0
  188.4670  177.7810  144.3470 C   0  0  0  0  0  0  0  0  0  0  0  0
  185.5300  178.4180  143.6130 N   0  0  0  0  0  0  0  0  0  0  0  0
  182.6330  180.6220  138.5870 N   0  0  0  0  0  2  0  0  0  0  0  0
  185.2260  178.4560  147.0520 N   0  0  0  0  0  0  0  0  0  0  0  0
  183.3740  178.7610  142.5900 C   0  0  0  0  0  3  0  0  0  0  0  0
  180.4320  181.8560  138.6840 C   0  0  0  0  0  2  0  0  0  0  0  0
  181.0610  184.4990  136.1070 C   0  0  0  0  0  3  0  0  0  0  0  0
  180.5140  183.3660  135.2350 C   0  0  0  0  0  2  0  0  0  0  0  0
  180.8460  182.5590  137.4800 N   0  0  0  0  0  0  0  0  0  0  0  0
  181.3390  183.9210  137.5040 C   0  0  0  0  0  3  0  0  0  0  0  0
  179.8730  181.1330  135.8950 O   0  0  0  0  0  0  0  0  0  0  0  0
  180.3700  182.2500  136.1880 C   0  0  0  0  0  0  0  0  0  0  0  0
  189.7080  177.3000  144.8890 N   0  0  0  0  0  2  0  0  0  0  0  0
  190.9670  177.2420  144.1490 C   0  0  2  0  0  3  0  0  0  0  0  0
  191.8080  176.3090  144.7530 O   0  0  0  0  0  1  0  0  0  0  0  0
  191.6370  178.6030  144.1790 C   0  0  0  0  0  1  0  0  0  0  0  0
  188.7270  178.0500  139.9270 C   0  0  0  0  0  2  0  0  0  0  0  0
  188.7710  176.6100  139.4230 C   0  0  0  0  0  2  0  0  0  0  0  0
  189.6860  176.4770  138.2200 C   0  0  0  0  0  2  0  0  0  0  0  0
  189.0640  175.5590  137.1850 C   0  0  0  0  0  2  0  0  0  0  0  0
  187.5570  175.3860  137.4150 C   0  0  0  0  0  2  0  0  0  0  0  0
  185.8450  173.1320  137.6720 O   0  0  0  0  0  0  0  0  0  0  0  0
  186.9160  174.7040  136.2930 N   0  0  0  0  0  0  0  0  0  0  0  0
  185.2750  172.9580  135.3840 C   0  0  0  0  0  1  0  0  0  0  0  0
  186.0190  173.5920  136.5140 C   0  0  0  0  0  0  0  0  0  0  0  0
  186.1620  176.6280  134.9740 C   0  0  0  0  0  1  0  0  0  0  0  0
  187.0020  175.3630  134.9880 C   0  0  0  0  0  2  0  0  0  0  0  0
  1 23  2  0  0  0  0
  2 22  2  0  0  0  0
  3 24  1  0  0  0  0
  4  7  1  0  0  0  0
  4  3  1  0  0  0  0
  6  9  1  0  0  0  0
  7 27  2  0  0  0  0
  8  7  1  0  0  0  0
  9  5  1  0  0  0  0
  9 15  2  0  0  0  0
 10 12  1  0  0  0  0
 10  4  2  0  0  0  0
 11 26  2  0  0  0  0
 12 20  1  0  0  0  0
 14 16  2  0  0  0  0
 16 10  1  0  0  0  0
 17 16  1  0  0  0  0
 17 19  2  0  0  0  0
 18 13  2  0  0  0  0
 19  8  1  0  0  0  0
 20  3  2  0  0  0  0
 20  1  1  0  0  0  0
 21  6  2  0  0  0  0
 21 11  1  0  0  0  0
 22 11  1  0  0  0  0
 23 35  1  0  0  0  0
 23  6  1  0  0  0  0
 24  2  1  0  0  0  0
 24 21  1  0  0  0  0
 25 18  1  0  0  0  0
 25 19  1  0  0  0  0
 26 15  1  0  0  0  0
 27  2  1  0  0  0  0
 28 18  1  0  0  0  0
 29 32  2  0  0  0  0
 30 29  1  0  0  0  0
 30 34  1  0  0  0  0
 31 32  1  0  0  0  0
 31 28  1  0  0  0  0
 33 34  2  0  0  0  0
 34 31  1  0  0  0  0
 36 38  1  1  0  0  0
 36 37  1  0  0  0  0
 36 35  1  0  0  0  0
 39 12  1  0  0  0  0
 40 39  1  0  0  0  0
 41 40  1  0  0  0  0
 42 43  1  0  0  0  0
 42 41  1  0  0  0  0
 45 47  1  0  0  0  0
 45 43  1  0  0  0  0
 46 47  1  0  0  0  0
 47 44  2  0  0  0  0
 48 49  1  0  0  0  0
 49 45  1  0  0  0  0
M  END
>  <MODEL>
4

>  <REMARK>
 VINA RESULT:      -9.6      1.394      1.670
  Name = 
  11 active torsions:
  status: ('A' for Active; 'I' for Inactive)
    1  A    between atoms: C_1  and  N_22
    2  A    between atoms: C_1  and  C_31
    3  A    between atoms: C_3  and  C_6
    4  A    between atoms: C_3  and  C_41
    5  A    between atoms: C_6  and  C_36
    6  A    between atoms: C_10  and  N_30
    7  A    between atoms: C_20  and  N_43
    8  A    between atoms: N_23  and  C_36
    9  A    between atoms: C_24  and  C_41
   10  A    between atoms: C_24  and  N_43
   11  A    between atoms: N_30  and  C_42
                            x       y       z     vdW  Elec       q    Type
                         _______ _______ _______ _____ _____    ______ ____

>  <TORSDO>
F 11

$$$$
=
 OpenBabel10222418303D

 49 55  0  0  1  0  0  0  0  0999 V2000
  186.9890  178.3690  143.9700 C   0  0  0  0  0  3  0  0  0  0  0  0
  190.6070  177.0110  141.8830 C   0  0  0  0  0  0  0  0  0  0  0  0
  188.4160  177.8180  142.0540 C   0  0  0  0  0  0  0  0  0  0  0  0
  188.3190  177.9240  140.7000 C   0  0  0  0  0  0  0  0  0  0  0  0
  189.1500  177.1320  147.6570 C   0  0  0  0  0  1  0  0  0  0  0  0
  189.0710  177.3970  145.0830 C   0  0  0  0  0  0  0  0  0  0  0  0
  189.4080  177.6510  139.8730 C   0  0  0  0  0  0  0  0  0  0  0  0
  189.3810  178.0720  138.4460 C   0  0  0  0  0  2  0  0  0  0  0  0
  189.7450  176.9980  146.2950 C   0  0  0  0  0  0  0  0  0  0  0  0
  187.0610  178.4080  140.4260 C   0  0  0  0  0  0  0  0  0  0  0  0
  191.0860  176.6030  143.9470 C   0  0  0  0  0  0  0  0  0  0  0  0
  186.4130  178.6190  141.6090 N   0  0  0  0  0  0  0  0  0  0  0  0
  190.7190  177.2130  136.0940 O   0  0  0  0  0  0  0  0  0  0  0  0
  185.3380  179.0220  138.9310 O   0  0  0  0  0  0  0  0  0  0  0  0
  190.9910  176.4310  146.2490 N   0  0  0  0  0  0  0  0  0  0  0  0
  186.4480  178.4520  139.0770 C   0  0  0  0  0  0  0  0  0  0  0  0
  186.9920  177.7260  137.9620 N   0  0  0  0  0  0  0  0  0  0  0  0
  189.7700  176.3970  135.9340 C   0  0  0  0  0  0  0  0  0  0  0  0
  188.2360  177.4710  137.6760 C   0  0  0  0  0  0  0  0  0  0  0  0
  187.2590  178.2530  142.6150 C   0  0  0  0  0  0  0  0  0  0  0  0
  189.8190  177.1320  143.9110 C   0  0  0  0  0  0  0  0  0  0  0  0
  191.6320  176.5110  142.6710 C   0  0  0  0  0  3  0  0  0  0  0  0
  187.7790  178.0370  145.0920 C   0  0  0  0  0  0  0  0  0  0  0  0
  189.5400  177.3840  142.6330 N   0  0  0  0  0  0  0  0  0  0  0  0
  188.5020  176.6080  136.5650 N   0  0  0  0  0  2  0  0  0  0  0  0
  191.6560  176.2350  145.1080 N   0  0  0  0  0  0  0  0  0  0  0  0
  190.5990  177.1750  140.4780 C   0  0  0  0  0  3  0  0  0  0  0  0
  189.9760  175.2000  135.0740 C   0  0  0  0  0  2  0  0  0  0  0  0
  187.0510  173.0610  136.0180 C   0  0  0  0  0  3  0  0  0  0  0  0
  187.9790  172.8310  137.2130 C   0  0  0  0  0  2  0  0  0  0  0  0
  189.1450  174.0970  135.5280 N   0  0  0  0  0  0  0  0  0  0  0  0
  187.8590  173.7950  134.9340 C   0  0  0  0  0  3  0  0  0  0  0  0
  190.2110  173.6820  137.5730 O   0  0  0  0  0  0  0  0  0  0  0  0
  189.2060  173.5530  136.8280 C   0  0  0  0  0  0  0  0  0  0  0  0
  187.2190  178.4410  146.3520 N   0  0  0  0  0  2  0  0  0  0  0  0
  185.9650  179.1760  146.5030 C   0  0  2  0  0  3  0  0  0  0  0  0
  186.0540  180.0070  147.6180 O   0  0  0  0  0  1  0  0  0  0  0  0
  184.8240  178.1970  146.7070 C   0  0  0  0  0  1  0  0  0  0  0  0
  185.0790  179.2020  141.7710 C   0  0  0  0  0  2  0  0  0  0  0  0
  184.1660  178.2450  142.5320 C   0  0  0  0  0  2  0  0  0  0  0  0
  183.3250  178.9850  143.5550 C   0  0  0  0  0  2  0  0  0  0  0  0
  181.8630  178.6150  143.4010 C   0  0  0  0  0  2  0  0  0  0  0  0
  181.2280  179.3080  142.1890 C   0  0  0  0  0  2  0  0  0  0  0  0
  178.9500  177.6100  142.0900 O   0  0  0  0  0  0  0  0  0  0  0  0
  180.9500  178.3620  141.1110 N   0  0  0  0  0  0  0  0  0  0  0  0
  179.3960  176.6780  139.9640 C   0  0  0  0  0  1  0  0  0  0  0  0
  179.7420  177.5670  141.1120 C   0  0  0  0  0  0  0  0  0  0  0  0
  181.6350  179.8200  139.2630 C   0  0  0  0  0  1  0  0  0  0  0  0
  181.7940  178.4590  139.9180 C   0  0  0  0  0  2  0  0  0  0  0  0
  1 23  2  0  0  0  0
  2 24  1  0  0  0  0
  2 22  2  0  0  0  0
  3 20  2  0  0  0  0
  3 24  1  0  0  0  0
  4  3  1  0  0  0  0
  6 23  1  0  0  0  0
  6  9  1  0  0  0  0
  7 27  2  0  0  0  0
  7  4  1  0  0  0  0
  8  7  1  0  0  0  0
  9  5  1  0  0  0  0
 10  4  2  0  0  0  0
 10 12  1  0  0  0  0
 11 26  2  0  0  0  0
 12 39  1  0  0  0  0
 12 20  1  0  0  0  0
 14 16  2  0  0  0  0
 15  9  2  0  0  0  0
 16 10  1  0  0  0  0
 17 16  1  0  0  0  0
 18 13  2  0  0  0  0
 18 25  1  0  0  0  0
 19 17  2  0  0  0  0
 19  8  1  0  0  0  0
 20  1  1  0  0  0  0
 21 11  1  0  0  0  0
 21  6  2  0  0  0  0
 22 11  1  0  0  0  0
 23 35  1  0  0  0  0
 24 21  1  0  0  0  0
 25 19  1  0  0  0  0
 26 15  1  0  0  0  0
 27  2  1  0  0  0  0
 28 31  1  0  0  0  0
 28 18  1  0  0  0  0
 29 30  1  0  0  0  0
 31 34  1  0  0  0  0
 32 31  1  0  0  0  0
 32 29  2  0  0  0  0
 34 30  1  0  0  0  0
 34 33  2  0  0  0  0
 35 36  1  0  0  0  0
 36 38  1  1  0  0  0
 36 37  1  0  0  0  0
 39 40  1  0  0  0  0
 40 41  1  0  0  0  0
 42 41  1  0  0  0  0
 43 42  1  0  0  0  0
 45 47  1  0  0  0  0
 45 43  1  0  0  0  0
 46 47  1  0  0  0  0
 47 44  2  0  0  0  0
 48 49  1  0  0  0  0
 49 45  1  0  0  0  0
M  END
>  <MODEL>
5

>  <REMARK>
 VINA RESULT:      -9.4      2.580      7.863
  Name = 
  11 active torsions:
  status: ('A' for Active; 'I' for Inactive)
    1  A    between atoms: C_1  and  N_22
    2  A    between atoms: C_1  and  C_31
    3  A    between atoms: C_3  and  C_6
    4  A    between atoms: C_3  and  C_41
    5  A    between atoms: C_6  and  C_36
    6  A    between atoms: C_10  and  N_30
    7  A    between atoms: C_20  and  N_43
    8  A    between atoms: N_23  and  C_36
    9  A    between atoms: C_24  and  C_41
   10  A    between atoms: C_24  and  N_43
   11  A    between atoms: N_30  and  C_42
                            x       y       z     vdW  Elec       q    Type
                         _______ _______ _______ _____ _____    ______ ____

>  <TORSDO>
F 11

$$$$
=
 OpenBabel10222418303D

 49 55  0  0  1  0  0  0  0  0999 V2000
  187.1430  177.9640  144.0110 C   0  0  0  0  0  3  0  0  0  0  0  0
  191.3610  176.8500  143.5030 C   0  0  0  0  0  0  0  0  0  0  0  0
  189.2100  177.4480  142.7980 C   0  0  0  0  0  0  0  0  0  0  0  0
  189.6120  177.4690  141.4970 C   0  0  0  0  0  0  0  0  0  0  0  0
  187.8750  177.1490  148.3230 C   0  0  0  0  0  1  0  0  0  0  0  0
  188.7300  177.2620  145.8830 C   0  0  0  0  0  0  0  0  0  0  0  0
  190.9450  177.2580  141.1490 C   0  0  0  0  0  0  0  0  0  0  0  0
  191.4170  177.5940  139.7780 C   0  0  0  0  0  2  0  0  0  0  0  0
  188.9370  176.9980  147.2860 C   0  0  0  0  0  0  0  0  0  0  0  0
  188.5130  177.8130  140.7450 C   0  0  0  0  0  0  0  0  0  0  0  0
  191.0730  176.6050  145.6280 C   0  0  0  0  0  0  0  0  0  0  0  0
  187.4610  178.0240  141.5890 N   0  0  0  0  0  0  0  0  0  0  0  0
  193.5840  176.7400  138.1540 O   0  0  0  0  0  0  0  0  0  0  0  0
  187.4230  178.1710  138.6800 O   0  0  0  0  0  0  0  0  0  0  0  0
  190.1490  176.5530  147.7450 N   0  0  0  0  0  0  0  0  0  0  0  0
  188.4390  177.7210  139.2670 C   0  0  0  0  0  0  0  0  0  0  0  0
  189.4050  176.9910  138.4930 N   0  0  0  0  0  0  0  0  0  0  0  0
  192.8200  175.8280  137.7340 C   0  0  0  0  0  0  0  0  0  0  0  0
  190.6810  176.8430  138.7000 C   0  0  0  0  0  0  0  0  0  0  0  0
  187.9000  177.7980  142.8610 C   0  0  0  0  0  0  0  0  0  0  0  0
  189.8750  177.0060  145.0890 C   0  0  0  0  0  0  0  0  0  0  0  0
  192.0560  176.4960  144.6500 C   0  0  0  0  0  3  0  0  0  0  0  0
  187.4850  177.7730  145.3670 C   0  0  0  0  0  0  0  0  0  0  0  0
  190.0690  177.1590  143.7810 N   0  0  0  0  0  0  0  0  0  0  0  0
  191.3970  175.9500  137.8410 N   0  0  0  0  0  2  0  0  0  0  0  0
  191.1990  176.3600  146.9440 N   0  0  0  0  0  0  0  0  0  0  0  0
  191.8600  176.9340  142.1830 C   0  0  0  0  0  3  0  0  0  0  0  0
  193.4120  174.6110  137.1140 C   0  0  0  0  0  2  0  0  0  0  0  0
  197.0510  174.4340  136.2480 C   0  0  0  0  0  3  0  0  0  0  0  0
  197.0370  173.7130  137.5980 C   0  0  0  0  0  2  0  0  0  0  0  0
  194.8640  174.6630  137.1760 N   0  0  0  0  0  0  0  0  0  0  0  0
  195.6770  175.0970  136.0580 C   0  0  0  0  0  3  0  0  0  0  0  0
  195.1750  173.3520  139.0940 O   0  0  0  0  0  0  0  0  0  0  0  0
  195.6410  173.8700  138.0470 C   0  0  0  0  0  0  0  0  0  0  0  0
  186.4730  178.1890  146.2990 N   0  0  0  0  0  2  0  0  0  0  0  0
  185.6580  179.3930  146.1510 C   0  0  2  0  0  3  0  0  0  0  0  0
  185.6800  180.1090  147.3460 O   0  0  0  0  0  1  0  0  0  0  0  0
  184.2260  179.0010  145.8380 C   0  0  0  0  0  1  0  0  0  0  0  0
  186.1240  178.4830  141.2060 C   0  0  0  0  0  2  0  0  0  0  0  0
  185.1240  178.2080  142.3250 C   0  0  0  0  0  2  0  0  0  0  0  0
  183.7160  178.5970  141.9110 C   0  0  0  0  0  2  0  0  0  0  0  0
  183.4270  178.1080  140.5060 C   0  0  0  0  0  2  0  0  0  0  0  0
  181.9310  177.8430  140.2950 C   0  0  0  0  0  2  0  0  0  0  0  0
  180.0240  178.8610  142.1410 O   0  0  0  0  0  0  0  0  0  0  0  0
  181.1840  179.0850  140.1100 N   0  0  0  0  0  0  0  0  0  0  0  0
  179.5790  180.8780  140.9910 C   0  0  0  0  0  1  0  0  0  0  0  0
  180.2650  179.5580  141.1210 C   0  0  0  0  0  0  0  0  0  0  0  0
  180.7300  179.7270  137.7880 C   0  0  0  0  0  1  0  0  0  0  0  0
  181.6090  179.9480  139.0060 C   0  0  0  0  0  2  0  0  0  0  0  0
  1 23  2  0  0  0  0
  2 24  1  0  0  0  0
  2 22  2  0  0  0  0
  3 20  2  0  0  0  0
  3 24  1  0  0  0  0
  4  3  1  0  0  0  0
  6  9  1  0  0  0  0
  7  4  1  0  0  0  0
  7 27  2  0  0  0  0
  8  7  1  0  0  0  0
  9 15  2  0  0  0  0
  9  5  1  0  0  0  0
 10  4  2  0  0  0  0
 10 12  1  0  0  0  0
 11 26  2  0  0  0  0
 12 20  1  0  0  0  0
 14 16  2  0  0  0  0
 16 10  1  0  0  0  0
 17 19  2  0  0  0  0
 17 16  1  0  0  0  0
 18 25  1  0  0  0  0
 18 13  2  0  0  0  0
 19  8  1  0  0  0  0
 20  1  1  0  0  0  0
 21 11  1  0  0  0  0
 21  6  2  0  0  0  0
 22 11  1  0  0  0  0
 23  6  1  0  0  0  0
 23 35  1  0  0  0  0
 24 21  1  0  0  0  0
 25 19  1  0  0  0  0
 26 15  1  0  0  0  0
 27  2  1  0  0  0  0
 28 31  1  0  0  0  0
 28 18  1  0  0  0  0
 29 30  1  0  0  0  0
 30 34  1  0  0  0  0
 31 34  1  0  0  0  0
 32 29  2  0  0  0  0
 32 31  1  0  0  0  0
 34 33  2  0  0  0  0
 36 38  1  1  0  0  0
 36 35  1  0  0  0  0
 36 37  1  0  0  0  0
 39 12  1  0  0  0  0
 39 40  1  0  0  0  0
 41 40  1  0  0  0  0
 42 41  1  0  0  0  0
 43 42  1  0  0  0  0
 45 43  1  0  0  0  0
 45 47  1  0  0  0  0
 46 47  1  0  0  0  0
 47 44  2  0  0  0  0
 48 49  1  0  0  0  0
 49 45  1  0  0  0  0
M  END
>  <MODEL>
6

>  <REMARK>
 VINA RESULT:      -9.2      2.783      9.381
  Name = 
  11 active torsions:
  status: ('A' for Active; 'I' for Inactive)
    1  A    between atoms: C_1  and  N_22
    2  A    between atoms: C_1  and  C_31
    3  A    between atoms: C_3  and  C_6
    4  A    between atoms: C_3  and  C_41
    5  A    between atoms: C_6  and  C_36
    6  A    between atoms: C_10  and  N_30
    7  A    between atoms: C_20  and  N_43
    8  A    between atoms: N_23  and  C_36
    9  A    between atoms: C_24  and  C_41
   10  A    between atoms: C_24  and  N_43
   11  A    between atoms: N_30  and  C_42
                            x       y       z     vdW  Elec       q    Type
                         _______ _______ _______ _____ _____    ______ ____

>  <TORSDO>
F 11

$$$$
=
 OpenBabel10222418303D

 49 55  0  0  1  0  0  0  0  0999 V2000
  186.8980  178.2380  143.9660 C   0  0  0  0  0  3  0  0  0  0  0  0
  190.6030  177.0050  141.9550 C   0  0  0  0  0  0  0  0  0  0  0  0
  188.3870  177.7510  142.0800 C   0  0  0  0  0  0  0  0  0  0  0  0
  188.3220  177.8730  140.7250 C   0  0  0  0  0  0  0  0  0  0  0  0
  188.9970  177.0080  147.6900 C   0  0  0  0  0  1  0  0  0  0  0  0
  188.9750  177.3060  145.1190 C   0  0  0  0  0  0  0  0  0  0  0  0
  189.4400  177.6400  139.9240 C   0  0  0  0  0  0  0  0  0  0  0  0
  189.4380  178.0800  138.5020 C   0  0  0  0  0  2  0  0  0  0  0  0
  189.6290  176.9090  146.3430 C   0  0  0  0  0  0  0  0  0  0  0  0
  187.0600  178.3270  140.4250 C   0  0  0  0  0  0  0  0  0  0  0  0
  191.0400  176.5810  144.0260 C   0  0  0  0  0  0  0  0  0  0  0  0
  186.3750  178.5040  141.5930 N   0  0  0  0  0  0  0  0  0  0  0  0
  190.8580  177.2890  136.1740 O   0  0  0  0  0  0  0  0  0  0  0  0
  185.3590  178.9150  138.8940 O   0  0  0  0  0  0  0  0  0  0  0  0
  190.8910  176.3750  146.3220 N   0  0  0  0  0  0  0  0  0  0  0  0
  186.4800  178.3730  139.0610 C   0  0  0  0  0  0  0  0  0  0  0  0
  187.0720  177.6770  137.9520 N   0  0  0  0  0  0  0  0  0  0  0  0
  189.9350  176.4500  135.9800 C   0  0  0  0  0  0  0  0  0  0  0  0
  188.3290  177.4600  137.6950 C   0  0  0  0  0  0  0  0  0  0  0  0
  187.2050  178.1470  142.6160 C   0  0  0  0  0  0  0  0  0  0  0  0
  189.7610  177.0780  143.9640 C   0  0  0  0  0  0  0  0  0  0  0  0
  191.6210  176.5210  142.7640 C   0  0  0  0  0  3  0  0  0  0  0  0
  187.6680  177.9120  145.1030 C   0  0  0  0  0  0  0  0  0  0  0  0
  189.5080  177.3390  142.6830 N   0  0  0  0  0  0  0  0  0  0  0  0
  188.6460  176.6190  136.5800 N   0  0  0  0  0  2  0  0  0  0  0  0
  191.5900  176.2130  145.1970 N   0  0  0  0  0  0  0  0  0  0  0  0
  190.6270  177.1880  140.5530 C   0  0  0  0  0  3  0  0  0  0  0  0
  190.1960  175.2710  135.1090 C   0  0  0  0  0  2  0  0  0  0  0  0
  187.3700  173.0010  136.0510 C   0  0  0  0  0  3  0  0  0  0  0  0
  188.3220  172.7860  137.2290 C   0  0  0  0  0  2  0  0  0  0  0  0
  189.4140  174.1280  135.5530 N   0  0  0  0  0  0  0  0  0  0  0  0
  188.1330  173.7860  134.9710 C   0  0  0  0  0  3  0  0  0  0  0  0
  190.5240  173.7170  137.5760 O   0  0  0  0  0  0  0  0  0  0  0  0
  189.5150  173.5620  136.8420 C   0  0  0  0  0  0  0  0  0  0  0  0
  187.0650  178.2830  146.3540 N   0  0  0  0  0  2  0  0  0  0  0  0
  185.8700  179.1160  146.4810 C   0  0  2  0  0  3  0  0  0  0  0  0
  185.9480  179.8470  147.6650 O   0  0  0  0  0  1  0  0  0  0  0  0
  184.6380  178.2320  146.5280 C   0  0  0  0  0  1  0  0  0  0  0  0
  185.0230  179.0500  141.7290 C   0  0  0  0  0  2  0  0  0  0  0  0
  183.9980  177.9220  141.8100 C   0  0  0  0  0  2  0  0  0  0  0  0
  182.5940  178.4360  141.5460 C   0  0  0  0  0  2  0  0  0  0  0  0
  182.1290  178.0110  140.1670 C   0  0  0  0  0  2  0  0  0  0  0  0
  182.4680  176.5420  139.8830 C   0  0  0  0  0  2  0  0  0  0  0  0
  183.8050  176.0990  137.4150 O   0  0  0  0  0  0  0  0  0  0  0  0
  181.8170  176.0630  138.6660 N   0  0  0  0  0  0  0  0  0  0  0  0
  181.9440  175.2280  136.2470 C   0  0  0  0  0  1  0  0  0  0  0  0
  182.5790  175.8180  137.4620 C   0  0  0  0  0  0  0  0  0  0  0  0
  180.1290  175.2580  140.2510 C   0  0  0  0  0  1  0  0  0  0  0  0
  180.4380  175.5880  138.8020 C   0  0  0  0  0  2  0  0  0  0  0  0
  1 23  2  0  0  0  0
  2 24  1  0  0  0  0
  2 22  2  0  0  0  0
  3 20  2  0  0  0  0
  3 24  1  0  0  0  0
  4  3  1  0  0  0  0
  6  9  1  0  0  0  0
  7 27  2  0  0  0  0
  7  4  1  0  0  0  0
  8  7  1  0  0  0  0
  9  5  1  0  0  0  0
 10  4  2  0  0  0  0
 10 12  1  0  0  0  0
 11 26  2  0  0  0  0
 12 39  1  0  0  0  0
 12 20  1  0  0  0  0
 14 16  2  0  0  0  0
 15  9  2  0  0  0  0
 16 10  1  0  0  0  0
 17 16  1  0  0  0  0
 18 13  2  0  0  0  0
 18 25  1  0  0  0  0
 19 17  2  0  0  0  0
 19  8  1  0  0  0  0
 20  1  1  0  0  0  0
 21 11  1  0  0  0  0
 21  6  2  0  0  0  0
 22 11  1  0  0  0  0
 23  6  1  0  0  0  0
 23 35  1  0  0  0  0
 24 21  1  0  0  0  0
 25 19  1  0  0  0  0
 26 15  1  0  0  0  0
 27  2  1  0  0  0  0
 28 31  1  0  0  0  0
 28 18  1  0  0  0  0
 29 30  1  0  0  0  0
 31 34  1  0  0  0  0
 32 31  1  0  0  0  0
 32 29  2  0  0  0  0
 34 30  1  0  0  0  0
 34 33  2  0  0  0  0
 35 36  1  0  0  0  0
 36 38  1  1  0  0  0
 36 37  1  0  0  0  0
 39 40  1  0  0  0  0
 41 40  1  0  0  0  0
 42 41  1  0  0  0  0
 43 42  1  0  0  0  0
 44 47  2  0  0  0  0
 45 49  1  0  0  0  0
 45 43  1  0  0  0  0
 46 47  1  0  0  0  0
 47 45  1  0  0  0  0
 49 48  1  0  0  0  0
M  END
>  <MODEL>
7

>  <REMARK>
 VINA RESULT:      -9.0      3.113      7.488
  Name = 
  11 active torsions:
  status: ('A' for Active; 'I' for Inactive)
    1  A    between atoms: C_1  and  N_22
    2  A    between atoms: C_1  and  C_31
    3  A    between atoms: C_3  and  C_6
    4  A    between atoms: C_3  and  C_41
    5  A    between atoms: C_6  and  C_36
    6  A    between atoms: C_10  and  N_30
    7  A    between atoms: C_20  and  N_43
    8  A    between atoms: N_23  and  C_36
    9  A    between atoms: C_24  and  C_41
   10  A    between atoms: C_24  and  N_43
   11  A    between atoms: N_30  and  C_42
                            x       y       z     vdW  Elec       q    Type
                         _______ _______ _______ _____ _____    ______ ____

>  <TORSDO>
F 11

$$$$
=
 OpenBabel10222418303D

 49 55  0  0  1  0  0  0  0  0999 V2000
  185.5240  178.7440  142.5010 C   0  0  0  0  0  3  0  0  0  0  0  0
  189.6480  177.3660  143.1200 C   0  0  0  0  0  0  0  0  0  0  0  0
  187.7790  178.0200  141.8700 C   0  0  0  0  0  0  0  0  0  0  0  0
  188.4830  177.9120  140.7090 C   0  0  0  0  0  0  0  0  0  0  0  0
  185.1350  178.2460  146.9050 C   0  0  0  0  0  1  0  0  0  0  0  0
  186.5590  178.1130  144.7480 C   0  0  0  0  0  0  0  0  0  0  0  0
  189.8430  177.6020  140.7140 C   0  0  0  0  0  0  0  0  0  0  0  0
  190.6530  177.7990  139.4810 C   0  0  0  0  0  2  0  0  0  0  0  0
  186.4010  177.9540  146.1730 C   0  0  0  0  0  0  0  0  0  0  0  0
  187.6260  178.2520  139.6890 C   0  0  0  0  0  0  0  0  0  0  0  0
  188.8390  177.3120  145.1200 C   0  0  0  0  0  0  0  0  0  0  0  0
  186.4200  178.5890  140.2330 N   0  0  0  0  0  0  0  0  0  0  0  0
  193.0800  176.6980  138.5000 O   0  0  0  0  0  0  0  0  0  0  0  0
  187.0950  178.4990  137.4010 O   0  0  0  0  0  0  0  0  0  0  0  0
  187.4320  177.4830  146.9440 N   0  0  0  0  0  0  0  0  0  0  0  0
  187.9040  178.0440  138.2470 C   0  0  0  0  0  0  0  0  0  0  0  0
  188.9720  177.2020  137.7850 N   0  0  0  0  0  0  0  0  0  0  0  0
  192.3760  175.7980  137.9660 C   0  0  0  0  0  0  0  0  0  0  0  0
  190.1460  177.0030  138.3080 C   0  0  0  0  0  0  0  0  0  0  0  0
  186.5220  178.4450  141.5860 C   0  0  0  0  0  0  0  0  0  0  0  0
  187.8390  177.7320  144.2780 C   0  0  0  0  0  0  0  0  0  0  0  0
  190.0190  177.0700  144.4230 C   0  0  0  0  0  3  0  0  0  0  0  0
  185.5150  178.6470  143.9090 C   0  0  0  0  0  0  0  0  0  0  0  0
  188.3530  177.7660  143.0510 N   0  0  0  0  0  0  0  0  0  0  0  0
  190.9820  176.0050  137.7120 N   0  0  0  0  0  2  0  0  0  0  0  0
  188.6270  177.1680  146.4400 N   0  0  0  0  0  0  0  0  0  0  0  0
  190.4550  177.3150  141.9600 C   0  0  0  0  0  3  0  0  0  0  0  0
  193.0100  174.5040  137.5930 C   0  0  0  0  0  2  0  0  0  0  0  0
  196.4110  174.7030  136.0370 C   0  0  0  0  0  3  0  0  0  0  0  0
  196.7160  173.8990  137.3030 C   0  0  0  0  0  2  0  0  0  0  0  0
  194.4380  174.6800  137.3800 N   0  0  0  0  0  0  0  0  0  0  0  0
  194.9810  175.2530  136.1660 C   0  0  0  0  0  3  0  0  0  0  0  0
  195.2160  173.2810  139.0930 O   0  0  0  0  0  0  0  0  0  0  0  0
  195.4270  173.9030  138.0210 C   0  0  0  0  0  0  0  0  0  0  0  0
  184.3410  179.1920  144.5340 N   0  0  0  0  0  2  0  0  0  0  0  0
  183.0270  179.2710  143.8990 C   0  0  2  0  0  3  0  0  0  0  0  0
  182.0860  178.6490  144.7190 O   0  0  0  0  0  1  0  0  0  0  0  0
  183.0650  178.5550  142.5620 C   0  0  0  0  0  1  0  0  0  0  0  0
  185.2510  179.0860  139.5030 C   0  0  0  0  0  2  0  0  0  0  0  0
  184.3050  177.9390  139.1630 C   0  0  0  0  0  2  0  0  0  0  0  0
  183.1690  178.4090  138.2730 C   0  0  0  0  0  2  0  0  0  0  0  0
  182.3010  179.4090  139.0130 C   0  0  0  0  0  2  0  0  0  0  0  0
  180.8320  178.9690  139.0440 C   0  0  0  0  0  2  0  0  0  0  0  0
  180.0660  181.2510  140.5550 O   0  0  0  0  0  0  0  0  0  0  0  0
  180.3130  178.9180  140.4080 N   0  0  0  0  0  0  0  0  0  0  0  0
  179.2690  180.0730  142.4440 C   0  0  0  0  0  1  0  0  0  0  0  0
  179.9000  180.1240  141.0920 C   0  0  0  0  0  0  0  0  0  0  0  0
  180.6940  176.5110  140.1490 C   0  0  0  0  0  1  0  0  0  0  0  0
  179.9750  177.5940  140.9340 C   0  0  0  0  0  2  0  0  0  0  0  0
  1 23  2  0  0  0  0
  2 22  2  0  0  0  0
  3 24  1  0  0  0  0
  4  7  1  0  0  0  0
  4  3  1  0  0  0  0
  6  9  1  0  0  0  0
  7 27  2  0  0  0  0
  8  7  1  0  0  0  0
  9  5  1  0  0  0  0
  9 15  2  0  0  0  0
 10 12  1  0  0  0  0
 10  4  2  0  0  0  0
 11 26  2  0  0  0  0
 12 20  1  0  0  0  0
 14 16  2  0  0  0  0
 16 10  1  0  0  0  0
 17 16  1  0  0  0  0
 17 19  2  0  0  0  0
 18 13  2  0  0  0  0
 19  8  1  0  0  0  0
 20  3  2  0  0  0  0
 20  1  1  0  0  0  0
 21  6  2  0  0  0  0
 21 11  1  0  0  0  0
 22 11  1  0  0  0  0
 23 35  1  0  0  0  0
 23  6  1  0  0  0  0
 24  2  1  0  0  0  0
 24 21  1  0  0  0  0
 25 18  1  0  0  0  0
 25 19  1  0  0  0  0
 26 15  1  0  0  0  0
 27  2  1  0  0  0  0
 28 18  1  0  0  0  0
 29 32  2  0  0  0  0
 29 30  1  0  0  0  0
 30 34  1  0  0  0  0
 31 28  1  0  0  0  0
 31 34  1  0  0  0  0
 32 31  1  0  0  0  0
 34 33  2  0  0  0  0
 36 38  1  6  0  0  0
 36 35  1  0  0  0  0
 36 37  1  0  0  0  0
 39 12  1  0  0  0  0
 40 39  1  0  0  0  0
 41 42  1  0  0  0  0
 41 40  1  0  0  0  0
 42 43  1  0  0  0  0
 43 45  1  0  0  0  0
 44 47  2  0  0  0  0
 45 49  1  0  0  0  0
 45 47  1  0  0  0  0
 47 46  1  0  0  0  0
 48 49  1  0  0  0  0
M  END
>  <MODEL>
8

>  <REMARK>
 VINA RESULT:      -8.7      2.621      9.293
  Name = 
  11 active torsions:
  status: ('A' for Active; 'I' for Inactive)
    1  A    between atoms: C_1  and  N_22
    2  A    between atoms: C_1  and  C_31
    3  A    between atoms: C_3  and  C_6
    4  A    between atoms: C_3  and  C_41
    5  A    between atoms: C_6  and  C_36
    6  A    between atoms: C_10  and  N_30
    7  A    between atoms: C_20  and  N_43
    8  A    between atoms: N_23  and  C_36
    9  A    between atoms: C_24  and  C_41
   10  A    between atoms: C_24  and  N_43
   11  A    between atoms: N_30  and  C_42
                            x       y       z     vdW  Elec       q    Type
                         _______ _______ _______ _____ _____    ______ ____

>  <TORSDO>
F 11

$$$$
=
 OpenBabel10222418303D

 49 55  0  0  1  0  0  0  0  0999 V2000
  183.5460  178.2070  137.9440 C   0  0  0  0  0  3  0  0  0  0  0  0
  184.6490  178.8480  142.1460 C   0  0  0  0  0  0  0  0  0  0  0  0
  185.0360  178.4100  139.8790 C   0  0  0  0  0  0  0  0  0  0  0  0
  186.3830  178.4050  140.0810 C   0  0  0  0  0  0  0  0  0  0  0  0
  179.3610  178.3880  139.4440 C   0  0  0  0  0  1  0  0  0  0  0  0
  181.9100  178.4880  139.8830 C   0  0  0  0  0  0  0  0  0  0  0  0
  186.9280  178.7090  141.3280 C   0  0  0  0  0  0  0  0  0  0  0  0
  188.3810  179.0070  141.4510 C   0  0  0  0  0  2  0  0  0  0  0  0
  180.5430  178.5350  140.3420 C   0  0  0  0  0  0  0  0  0  0  0  0
  186.9690  178.1600  138.8620 C   0  0  0  0  0  0  0  0  0  0  0  0
  182.4930  178.8140  142.2360 C   0  0  0  0  0  0  0  0  0  0  0  0
  185.9840  178.0430  137.9240 N   0  0  0  0  0  0  0  0  0  0  0  0
  190.2640  178.8870  143.5730 O   0  0  0  0  0  0  0  0  0  0  0  0
  188.8490  177.7440  137.4930 O   0  0  0  0  0  0  0  0  0  0  0  0
  180.2560  178.6940  141.6730 N   0  0  0  0  0  0  0  0  0  0  0  0
  188.4030  177.8360  138.6630 C   0  0  0  0  0  0  0  0  0  0  0  0
  189.2630  177.4600  139.7520 N   0  0  0  0  0  0  0  0  0  0  0  0
  190.4770  177.6930  143.2250 C   0  0  0  0  0  0  0  0  0  0  0  0
  189.2570  177.8760  140.9840 C   0  0  0  0  0  0  0  0  0  0  0  0
  184.7870  178.2010  138.5610 C   0  0  0  0  0  0  0  0  0  0  0  0
  182.8580  178.6110  140.9280 C   0  0  0  0  0  0  0  0  0  0  0  0
  183.6070  178.9760  143.0530 C   0  0  0  0  0  3  0  0  0  0  0  0
  182.2530  178.3680  138.4880 C   0  0  0  0  0  0  0  0  0  0  0  0
  184.1880  178.6400  140.8870 N   0  0  0  0  0  0  0  0  0  0  0  0
  190.1470  177.2390  141.9070 N   0  0  0  0  0  2  0  0  0  0  0  0
  181.2000  178.8330  142.6050 N   0  0  0  0  0  0  0  0  0  0  0  0
  186.0360  178.9370  142.4060 C   0  0  0  0  0  3  0  0  0  0  0  0
  191.0840  176.7480  144.2010 C   0  0  0  0  0  2  0  0  0  0  0  0
  188.5810  177.4790  146.8890 C   0  0  0  0  0  3  0  0  0  0  0  0
  189.8490  177.2710  147.7200 C   0  0  0  0  0  2  0  0  0  0  0  0
  190.2960  176.7020  145.4230 N   0  0  0  0  0  0  0  0  0  0  0  0
  188.8840  177.0240  145.4520 C   0  0  0  0  0  3  0  0  0  0  0  0
  192.0580  176.6470  146.9670 O   0  0  0  0  0  0  0  0  0  0  0  0
  190.8430  176.8510  146.7150 C   0  0  0  0  0  0  0  0  0  0  0  0
  181.2050  178.4650  137.5100 N   0  0  0  0  0  2  0  0  0  0  0  0
  181.1840  179.4310  136.4130 C   0  0  2  0  0  3  0  0  0  0  0  0
  180.0400  180.2190  136.5210 O   0  0  0  0  0  1  0  0  0  0  0  0
  181.1520  178.6930  135.0870 C   0  0  0  0  0  1  0  0  0  0  0  0
  186.1780  177.8580  136.4840 C   0  0  0  0  0  2  0  0  0  0  0  0
  186.1220  176.3760  136.1240 C   0  0  0  0  0  2  0  0  0  0  0  0
  185.4540  176.1630  134.7780 C   0  0  0  0  0  2  0  0  0  0  0  0
  183.9470  176.2480  134.9190 C   0  0  0  0  0  2  0  0  0  0  0  0
  183.3310  174.8820  135.2450 C   0  0  0  0  0  2  0  0  0  0  0  0
  180.6280  175.3150  136.0100 O   0  0  0  0  0  0  0  0  0  0  0  0
  182.8430  174.8240  136.6200 N   0  0  0  0  0  0  0  0  0  0  0  0
  180.9160  174.8460  138.3090 C   0  0  0  0  0  1  0  0  0  0  0  0
  181.4410  175.0100  136.9210 C   0  0  0  0  0  0  0  0  0  0  0  0
  184.2630  172.9200  137.2310 C   0  0  0  0  0  1  0  0  0  0  0  0
  183.7730  174.3030  137.6250 C   0  0  0  0  0  2  0  0  0  0  0  0
  1 23  2  0  0  0  0
  1 20  1  0  0  0  0
  2 27  1  0  0  0  0
  2 22  2  0  0  0  0
  3  4  1  0  0  0  0
  3 24  1  0  0  0  0
  4  7  1  0  0  0  0
  5  9  1  0  0  0  0
  6  9  2  0  0  0  0
  6 21  1  0  0  0  0
  7  8  1  0  0  0  0
  7 27  2  0  0  0  0
  9 15  1  0  0  0  0
 10  4  2  0  0  0  0
 11 26  1  0  0  0  0
 11 22  1  0  0  0  0
 12 20  1  0  0  0  0
 12 10  1  0  0  0  0
 14 16  2  0  0  0  0
 15 26  2  0  0  0  0
 16 10  1  0  0  0  0
 16 17  1  0  0  0  0
 17 19  2  0  0  0  0
 18 13  2  0  0  0  0
 18 28  1  0  0  0  0
 19  8  1  0  0  0  0
 19 25  1  0  0  0  0
 20  3  2  0  0  0  0
 21 11  2  0  0  0  0
 23  6  1  0  0  0  0
 24 21  1  0  0  0  0
 24  2  1  0  0  0  0
 25 18  1  0  0  0  0
 28 31  1  0  0  0  0
 29 30  1  0  0  0  0
 31 32  1  0  0  0  0
 31 34  1  0  0  0  0
 32 29  2  0  0  0  0
 34 33  2  0  0  0  0
 34 30  1  0  0  0  0
 35 23  1  0  0  0  0
 36 38  1  6  0  0  0
 36 37  1  0  0  0  0
 36 35  1  0  0  0  0
 39 12  1  0  0  0  0
 40 39  1  0  0  0  0
 41 42  1  0  0  0  0
 41 40  1  0  0  0  0
 42 43  1  0  0  0  0
 43 45  1  0  0  0  0
 44 47  2  0  0  0  0
 45 47  1  0  0  0  0
 45 49  1  0  0  0  0
 47 46  1  0  0  0  0
 48 49  1  0  0  0  0
M  END
>  <MODEL>
9

>  <REMARK>
 VINA RESULT:      -8.5      2.862      8.937
  Name = 
  11 active torsions:
  status: ('A' for Active; 'I' for Inactive)
    1  A    between atoms: C_1  and  N_22
    2  A    between atoms: C_1  and  C_31
    3  A    between atoms: C_3  and  C_6
    4  A    between atoms: C_3  and  C_41
    5  A    between atoms: C_6  and  C_36
    6  A    between atoms: C_10  and  N_30
    7  A    between atoms: C_20  and  N_43
    8  A    between atoms: N_23  and  C_36
    9  A    between atoms: C_24  and  C_41
   10  A    between atoms: C_24  and  N_43
   11  A    between atoms: N_30  and  C_42
                            x       y       z     vdW  Elec       q    Type
                         _______ _______ _______ _____ _____    ______ ____

>  <TORSDO>
F 11

$$$$
