=
 OpenBabel10222419323D

 26 28  0  0  1  0  0  0  0  0999 V2000
  184.9340  178.2890  146.6770 C   0  0  0  0  0  3  0  0  0  0  0  0
  188.3060  177.3600  145.8860 C   0  0  0  0  0  0  0  0  0  0  0  0
  184.7730  179.3220  144.5070 C   0  0  0  0  0  3  0  0  0  0  0  0
  186.1590  177.6430  146.2080 C   0  0  1  0  0  3  0  0  0  0  0  0
  186.3590  177.4440  144.7250 C   0  0  2  0  0  3  0  0  0  0  0  0
  189.9560  176.8200  144.4970 C   0  0  0  0  0  3  0  0  0  0  0  0
  188.7540  177.0060  143.8090 C   0  0  0  0  0  0  0  0  0  0  0  0
  189.6490  177.0510  145.8470 C   0  0  0  0  0  0  0  0  0  0  0  0
  187.2990  177.5810  146.9140 C   0  0  0  0  0  2  0  0  0  0  0  0
  187.7990  177.3750  144.6750 N   0  0  0  0  0  0  0  0  0  0  0  0
  184.2890  179.0560  145.8440 N   0  0  0  0  0  0  0  0  0  0  0  0
  185.7910  178.6200  143.9790 C   0  0  0  0  0  3  0  0  0  0  0  0
  191.6740  176.0230  146.9060 N   0  0  0  0  0  2  0  0  0  0  0  0
  190.3830  177.6130  148.0250 O   0  0  0  0  0  0  0  0  0  0  0  0
  192.6150  175.8600  148.0010 C   0  0  0  0  0  1  0  0  0  0  0  0
  190.5690  176.9250  146.9850 C   0  0  0  0  0  0  0  0  0  0  0  0
  188.5460  176.8200  142.3460 C   0  0  0  0  0  2  0  0  0  0  0  0
  189.3330  177.7990  141.6070 N   0  0  0  0  0  0  0  0  0  0  0  0
  190.4160  177.1000  140.9290 C   0  0  0  0  0  1  0  0  0  0  0  0
  188.4850  178.4910  140.6280 C   0  0  0  0  0  2  0  0  0  0  0  0
  188.7580  178.0970  139.1730 C   0  0  0  0  0  2  0  0  0  0  0  0
  187.4540  177.9140  138.4230 C   0  0  0  0  0  2  0  0  0  0  0  0
  186.3960  178.6370  139.1090 N   0  0  0  0  0  2  0  0  0  0  0  0
  183.9810  179.2330  139.5010 C   0  0  0  0  0  1  0  0  0  0  0  0
  185.0210  178.4670  138.7670 C   0  0  0  0  0  0  0  0  0  0  0  0
  184.6800  177.6750  137.8480 O   0  0  0  0  0  0  0  0  0  0  0  0
  2  9  1  0  0  0  0
  3 11  1  0  0  0  0
  4  1  1  6  0  0  0
  4  9  1  0  0  0  0
  5 12  1  6  0  0  0
  5  4  1  0  0  0  0
  6  8  1  0  0  0  0
  7  6  2  0  0  0  0
  7 10  1  0  0  0  0
  8  2  2  0  0  0  0
  8 16  1  0  0  0  0
 10  5  1  0  0  0  0
 10  2  1  0  0  0  0
 11  1  2  0  0  0  0
 12  3  2  0  0  0  0
 13 16  1  0  0  0  0
 13 15  1  0  0  0  0
 16 14  2  0  0  0  0
 17  7  1  0  0  0  0
 18 17  1  0  0  0  0
 19 18  1  0  0  0  0
 20 18  1  0  0  0  0
 21 20  1  0  0  0  0
 22 23  1  0  0  0  0
 22 21  1  0  0  0  0
 25 23  1  0  0  0  0
 25 24  1  0  0  0  0
 26 25  2  0  0  0  0
M  END
>  <MODEL>
1

>  <REMARK>
 VINA RESULT:      -8.1      0.000      0.000
  Name = 
  7 active torsions:
  status: ('A' for Active; 'I' for Inactive)
    1  A    between atoms: C_2  and  N_10
    2  A    between atoms: C_2  and  C_24
    3  A    between atoms: N_3  and  C_17
    4  A    between atoms: N_10  and  C_13
    5  A    between atoms: C_13  and  C_15
    6  A    between atoms: C_16  and  C_19
    7  A    between atoms: C_17  and  C_24
                            x       y       z     vdW  Elec       q    Type
                         _______ _______ _______ _____ _____    ______ ____

>  <TORSDO>
F 7

$$$$
=
 OpenBabel10222419323D

 26 28  0  0  1  0  0  0  0  0999 V2000
  190.5340  177.3850  141.2270 C   0  0  0  0  0  3  0  0  0  0  0  0
  187.1270  178.0920  142.0920 C   0  0  0  0  0  0  0  0  0  0  0  0
  191.1720  178.0380  143.4560 C   0  0  0  0  0  3  0  0  0  0  0  0
  189.1510  177.3560  141.7010 C   0  0  1  0  0  3  0  0  0  0  0  0
  188.8860  177.1540  143.1730 C   0  0  2  0  0  3  0  0  0  0  0  0
  185.4230  178.2810  143.5080 C   0  0  0  0  0  3  0  0  0  0  0  0
  186.5730  177.8230  144.1570 C   0  0  0  0  0  0  0  0  0  0  0  0
  185.7980  178.4500  142.1660 C   0  0  0  0  0  0  0  0  0  0  0  0
  188.1150  177.8970  141.0410 C   0  0  0  0  0  2  0  0  0  0  0  0
  187.5850  177.7670  143.2800 N   0  0  0  0  0  0  0  0  0  0  0  0
  191.4680  177.6860  142.0850 N   0  0  0  0  0  0  0  0  0  0  0  0
  189.9460  177.8580  143.9760 C   0  0  0  0  0  3  0  0  0  0  0  0
  183.5490  178.4750  141.0610 N   0  0  0  0  0  2  0  0  0  0  0  0
  185.3850  179.5680  140.1220 O   0  0  0  0  0  0  0  0  0  0  0  0
  182.6400  178.8590  139.9950 C   0  0  0  0  0  1  0  0  0  0  0  0
  184.9230  178.8660  141.0620 C   0  0  0  0  0  0  0  0  0  0  0  0
  186.6740  177.4410  145.5930 C   0  0  0  0  0  2  0  0  0  0  0  0
  186.2470  178.5560  146.4300 N   0  0  0  0  0  0  0  0  0  0  0  0
  184.8850  178.2970  146.8790 C   0  0  0  0  0  1  0  0  0  0  0  0
  187.1440  178.6890  147.5860 C   0  0  0  0  0  2  0  0  0  0  0  0
  187.9250  177.4150  147.9240 C   0  0  0  0  0  2  0  0  0  0  0  0
  189.4080  177.7130  148.0100 C   0  0  0  0  0  2  0  0  0  0  0  0
  190.1410  176.7610  147.1930 N   0  0  0  0  0  2  0  0  0  0  0  0
  192.2250  175.5050  146.5440 C   0  0  0  0  0  1  0  0  0  0  0  0
  191.5250  176.4880  147.4100 C   0  0  0  0  0  0  0  0  0  0  0  0
  192.1590  177.0710  148.3300 O   0  0  0  0  0  0  0  0  0  0  0  0
  1  4  1  0  0  0  0
  1 11  2  0  0  0  0
  2  8  2  0  0  0  0
  2 10  1  0  0  0  0
  3 12  2  0  0  0  0
  4  9  1  1  0  0  0
  4  5  1  0  0  0  0
  5 10  1  0  0  0  0
  5 12  1  1  0  0  0
  6  7  2  0  0  0  0
  7 17  1  0  0  0  0
  8  6  1  0  0  0  0
  9  2  1  0  0  0  0
 10  7  1  0  0  0  0
 11  3  1  0  0  0  0
 13 16  1  0  0  0  0
 14 16  2  0  0  0  0
 15 13  1  0  0  0  0
 16  8  1  0  0  0  0
 17 18  1  0  0  0  0
 18 19  1  0  0  0  0
 18 20  1  0  0  0  0
 20 21  1  0  0  0  0
 21 22  1  0  0  0  0
 23 25  1  0  0  0  0
 23 22  1  0  0  0  0
 24 25  1  0  0  0  0
 25 26  2  0  0  0  0
M  END
>  <MODEL>
2

>  <REMARK>
 VINA RESULT:      -7.9      1.725      7.902
  Name = 
  7 active torsions:
  status: ('A' for Active; 'I' for Inactive)
    1  A    between atoms: C_2  and  N_10
    2  A    between atoms: C_2  and  C_24
    3  A    between atoms: N_3  and  C_17
    4  A    between atoms: N_10  and  C_13
    5  A    between atoms: C_13  and  C_15
    6  A    between atoms: C_16  and  C_19
    7  A    between atoms: C_17  and  C_24
                            x       y       z     vdW  Elec       q    Type
                         _______ _______ _______ _____ _____    ______ ____

>  <TORSDO>
F 7

$$$$
=
 OpenBabel10222419323D

 26 28  0  0  1  0  0  0  0  0999 V2000
  184.9780  178.3220  146.6550 C   0  0  0  0  0  3  0  0  0  0  0  0
  188.3500  177.3520  145.9150 C   0  0  0  0  0  0  0  0  0  0  0  0
  184.8380  179.2920  144.4540 C   0  0  0  0  0  3  0  0  0  0  0  0
  186.2020  177.6560  146.2130 C   0  0  1  0  0  3  0  0  0  0  0  0
  186.4120  177.4120  144.7380 C   0  0  2  0  0  3  0  0  0  0  0  0
  190.0060  176.7620  144.5530 C   0  0  0  0  0  3  0  0  0  0  0  0
  188.8100  176.9350  143.8520 C   0  0  0  0  0  0  0  0  0  0  0  0
  189.6910  177.0340  145.8940 C   0  0  0  0  0  0  0  0  0  0  0  0
  187.3370  177.6090  146.9290 C   0  0  0  0  0  2  0  0  0  0  0  0
  187.8510  177.3340  144.7000 N   0  0  0  0  0  0  0  0  0  0  0  0
  184.3430  179.0680  145.7950 N   0  0  0  0  0  0  0  0  0  0  0  0
  185.8550  178.5690  143.9540 C   0  0  0  0  0  3  0  0  0  0  0  0
  191.7040  176.0290  146.9950 N   0  0  0  0  0  2  0  0  0  0  0  0
  190.4120  177.6540  148.0600 O   0  0  0  0  0  0  0  0  0  0  0  0
  192.6370  175.8930  148.1010 C   0  0  0  0  0  1  0  0  0  0  0  0
  190.6030  176.9360  147.0410 C   0  0  0  0  0  0  0  0  0  0  0  0
  188.6100  176.7070  142.3940 C   0  0  0  0  0  2  0  0  0  0  0  0
  189.1970  177.8070  141.6380 N   0  0  0  0  0  0  0  0  0  0  0  0
  190.5280  177.4050  141.2030 C   0  0  0  0  0  1  0  0  0  0  0  0
  188.3580  178.1220  140.4750 C   0  0  0  0  0  2  0  0  0  0  0  0
  189.1460  178.4990  139.2160 C   0  0  0  0  0  2  0  0  0  0  0  0
  188.8760  177.5020  138.1070 C   0  0  0  0  0  2  0  0  0  0  0  0
  190.0930  177.2890  137.3420 N   0  0  0  0  0  2  0  0  0  0  0  0
  192.1620  175.9830  136.7420 C   0  0  0  0  0  1  0  0  0  0  0  0
  190.9280  176.1500  137.5520 C   0  0  0  0  0  0  0  0  0  0  0  0
  190.6280  175.2860  138.4180 O   0  0  0  0  0  0  0  0  0  0  0  0
  2  9  1  0  0  0  0
  3 11  1  0  0  0  0
  4  1  1  6  0  0  0
  4  9  1  0  0  0  0
  5 12  1  6  0  0  0
  5  4  1  0  0  0  0
  6  8  1  0  0  0  0
  7  6  2  0  0  0  0
  7 10  1  0  0  0  0
  8  2  2  0  0  0  0
  8 16  1  0  0  0  0
 10  5  1  0  0  0  0
 10  2  1  0  0  0  0
 11  1  2  0  0  0  0
 12  3  2  0  0  0  0
 13 16  1  0  0  0  0
 13 15  1  0  0  0  0
 16 14  2  0  0  0  0
 17  7  1  0  0  0  0
 18 17  1  0  0  0  0
 19 18  1  0  0  0  0
 20 18  1  0  0  0  0
 21 20  1  0  0  0  0
 22 21  1  0  0  0  0
 23 25  1  0  0  0  0
 23 22  1  0  0  0  0
 24 25  1  0  0  0  0
 25 26  2  0  0  0  0
M  END
>  <MODEL>
3

>  <REMARK>
 VINA RESULT:      -7.9      1.914      2.703
  Name = 
  7 active torsions:
  status: ('A' for Active; 'I' for Inactive)
    1  A    between atoms: C_2  and  N_10
    2  A    between atoms: C_2  and  C_24
    3  A    between atoms: N_3  and  C_17
    4  A    between atoms: N_10  and  C_13
    5  A    between atoms: C_13  and  C_15
    6  A    between atoms: C_16  and  C_19
    7  A    between atoms: C_17  and  C_24
                            x       y       z     vdW  Elec       q    Type
                         _______ _______ _______ _____ _____    ______ ____

>  <TORSDO>
F 7

$$$$
=
 OpenBabel10222419323D

 26 28  0  0  1  0  0  0  0  0999 V2000
  191.3720  177.1510  147.7010 C   0  0  0  0  0  3  0  0  0  0  0  0
  188.7400  177.1830  145.2660 C   0  0  0  0  0  0  0  0  0  0  0  0
  192.3450  175.2810  146.5370 C   0  0  0  0  0  3  0  0  0  0  0  0
  190.5190  177.3530  146.5320 C   0  0  1  0  0  3  0  0  0  0  0  0
  190.9800  176.8340  145.1910 C   0  0  2  0  0  3  0  0  0  0  0  0
  187.8820  176.8220  143.2470 C   0  0  0  0  0  3  0  0  0  0  0  0
  189.2410  176.5010  143.2850 C   0  0  0  0  0  0  0  0  0  0  0  0
  187.5700  177.2670  144.5420 C   0  0  0  0  0  0  0  0  0  0  0  0
  189.1970  177.5800  146.5900 C   0  0  0  0  0  2  0  0  0  0  0  0
  189.7070  176.6890  144.5280 N   0  0  0  0  0  0  0  0  0  0  0  0
  192.2410  176.1810  147.6640 N   0  0  0  0  0  0  0  0  0  0  0  0
  191.7080  175.5320  145.3800 C   0  0  0  0  0  3  0  0  0  0  0  0
  185.3320  178.2790  144.0500 N   0  0  0  0  0  2  0  0  0  0  0  0
  185.9860  177.7600  146.2290 O   0  0  0  0  0  0  0  0  0  0  0  0
  184.0320  178.7910  144.4490 C   0  0  0  0  0  1  0  0  0  0  0  0
  186.2700  177.7740  145.0000 C   0  0  0  0  0  0  0  0  0  0  0  0
  190.0620  176.0320  142.1340 C   0  0  0  0  0  2  0  0  0  0  0  0
  190.3640  177.1540  141.2540 N   0  0  0  0  0  0  0  0  0  0  0  0
  191.7670  177.5050  141.4230 C   0  0  0  0  0  1  0  0  0  0  0  0
  190.0990  176.7830  139.8580 C   0  0  0  0  0  2  0  0  0  0  0  0
  189.2920  177.8230  139.0740 C   0  0  0  0  0  2  0  0  0  0  0  0
  188.1230  178.3170  139.9020 C   0  0  0  0  0  2  0  0  0  0  0  0
  186.9050  178.2400  139.1130 N   0  0  0  0  0  2  0  0  0  0  0  0
  184.4560  178.6790  138.7280 C   0  0  0  0  0  1  0  0  0  0  0  0
  185.6710  178.7870  139.5760 C   0  0  0  0  0  0  0  0  0  0  0  0
  185.6010  179.3610  140.6950 O   0  0  0  0  0  0  0  0  0  0  0  0
  2  9  1  0  0  0  0
  3 11  1  0  0  0  0
  4  9  1  1  0  0  0
  4  1  1  0  0  0  0
  5 12  1  1  0  0  0
  5  4  1  0  0  0  0
  6  7  2  0  0  0  0
  6  8  1  0  0  0  0
  7 10  1  0  0  0  0
  8 16  1  0  0  0  0
  8  2  2  0  0  0  0
 10  5  1  0  0  0  0
 10  2  1  0  0  0  0
 11  1  2  0  0  0  0
 12  3  2  0  0  0  0
 13 15  1  0  0  0  0
 13 16  1  0  0  0  0
 16 14  2  0  0  0  0
 17  7  1  0  0  0  0
 18 19  1  0  0  0  0
 18 17  1  0  0  0  0
 20 18  1  0  0  0  0
 21 20  1  0  0  0  0
 21 22  1  0  0  0  0
 23 25  1  0  0  0  0
 23 22  1  0  0  0  0
 24 25  1  0  0  0  0
 25 26  2  0  0  0  0
M  END
>  <MODEL>
4

>  <REMARK>
 VINA RESULT:      -7.7      1.690      4.514
  Name = 
  7 active torsions:
  status: ('A' for Active; 'I' for Inactive)
    1  A    between atoms: C_2  and  N_10
    2  A    between atoms: C_2  and  C_24
    3  A    between atoms: N_3  and  C_17
    4  A    between atoms: N_10  and  C_13
    5  A    between atoms: C_13  and  C_15
    6  A    between atoms: C_16  and  C_19
    7  A    between atoms: C_17  and  C_24
                            x       y       z     vdW  Elec       q    Type
                         _______ _______ _______ _____ _____    ______ ____

>  <TORSDO>
F 7

$$$$
=
 OpenBabel10222419323D

 26 28  0  0  1  0  0  0  0  0999 V2000
  185.4120  178.8280  140.1410 C   0  0  0  0  0  3  0  0  0  0  0  0
  188.7760  177.5900  140.0670 C   0  0  0  0  0  0  0  0  0  0  0  0
  185.2830  178.1680  142.4540 C   0  0  0  0  0  3  0  0  0  0  0  0
  186.8570  178.6320  140.2320 C   0  0  1  0  0  3  0  0  0  0  0  0
  187.5250  178.7210  141.5830 C   0  0  2  0  0  3  0  0  0  0  0  0
  190.7400  177.0860  140.9800 C   0  0  0  0  0  3  0  0  0  0  0  0
  189.8830  177.6760  141.9130 C   0  0  0  0  0  0  0  0  0  0  0  0
  190.0070  177.0380  139.7840 C   0  0  0  0  0  0  0  0  0  0  0  0
  187.5900  177.9780  139.3170 C   0  0  0  0  0  2  0  0  0  0  0  0
  188.6990  177.9200  141.3360 N   0  0  0  0  0  0  0  0  0  0  0  0
  184.6980  178.6250  141.2130 N   0  0  0  0  0  0  0  0  0  0  0  0
  186.6160  178.1420  142.6320 C   0  0  0  0  0  3  0  0  0  0  0  0
  191.0430  175.2410  138.3790 N   0  0  0  0  0  2  0  0  0  0  0  0
  190.4120  177.2940  137.4660 O   0  0  0  0  0  0  0  0  0  0  0  0
  191.5340  174.7110  137.1180 C   0  0  0  0  0  1  0  0  0  0  0  0
  190.4900  176.5530  138.4840 C   0  0  0  0  0  0  0  0  0  0  0  0
  190.2190  177.9980  143.3280 C   0  0  0  0  0  2  0  0  0  0  0  0
  190.1860  176.7830  144.1320 N   0  0  0  0  0  0  0  0  0  0  0  0
  191.3800  176.7510  144.9660 C   0  0  0  0  0  1  0  0  0  0  0  0
  188.9810  176.7680  144.9720 C   0  0  0  0  0  2  0  0  0  0  0  0
  188.9400  177.8760  146.0300 C   0  0  0  0  0  2  0  0  0  0  0  0
  187.7800  177.6560  146.9800 C   0  0  0  0  0  2  0  0  0  0  0  0
  186.5340  177.6780  146.2330 N   0  0  0  0  0  2  0  0  0  0  0  0
  184.2650  178.6290  145.6900 C   0  0  0  0  0  1  0  0  0  0  0  0
  185.5210  178.6530  146.4830 C   0  0  0  0  0  0  0  0  0  0  0  0
  185.6820  179.5330  147.3690 O   0  0  0  0  0  0  0  0  0  0  0  0
  1  4  1  0  0  0  0
  1 11  2  0  0  0  0
  2 10  1  0  0  0  0
  3 12  2  0  0  0  0
  4  9  1  1  0  0  0
  4  5  1  0  0  0  0
  5 12  1  1  0  0  0
  6  7  2  0  0  0  0
  7 17  1  0  0  0  0
  8  2  2  0  0  0  0
  8  6  1  0  0  0  0
  9  2  1  0  0  0  0
 10  5  1  0  0  0  0
 10  7  1  0  0  0  0
 11  3  1  0  0  0  0
 13 16  1  0  0  0  0
 14 16  2  0  0  0  0
 15 13  1  0  0  0  0
 16  8  1  0  0  0  0
 17 18  1  0  0  0  0
 18 19  1  0  0  0  0
 18 20  1  0  0  0  0
 20 21  1  0  0  0  0
 21 22  1  0  0  0  0
 23 25  1  0  0  0  0
 23 22  1  0  0  0  0
 24 25  1  0  0  0  0
 25 26  2  0  0  0  0
M  END
>  <MODEL>
5

>  <REMARK>
 VINA RESULT:      -7.4      2.414      6.446
  Name = 
  7 active torsions:
  status: ('A' for Active; 'I' for Inactive)
    1  A    between atoms: C_2  and  N_10
    2  A    between atoms: C_2  and  C_24
    3  A    between atoms: N_3  and  C_17
    4  A    between atoms: N_10  and  C_13
    5  A    between atoms: C_13  and  C_15
    6  A    between atoms: C_16  and  C_19
    7  A    between atoms: C_17  and  C_24
                            x       y       z     vdW  Elec       q    Type
                         _______ _______ _______ _____ _____    ______ ____

>  <TORSDO>
F 7

$$$$
=
 OpenBabel10222419323D

 26 28  0  0  1  0  0  0  0  0999 V2000
  191.6850  176.2010  143.5360 C   0  0  0  0  0  3  0  0  0  0  0  0
  189.2210  177.5020  141.2780 C   0  0  0  0  0  0  0  0  0  0  0  0
  190.5680  177.3600  145.3280 C   0  0  0  0  0  3  0  0  0  0  0  0
  190.5020  176.4600  142.7170 C   0  0  1  0  0  3  0  0  0  0  0  0
  189.1770  176.7000  143.3990 C   0  0  2  0  0  3  0  0  0  0  0  0
  187.2000  178.2630  140.7490 C   0  0  0  0  0  3  0  0  0  0  0  0
  187.2600  177.8700  142.0890 C   0  0  0  0  0  0  0  0  0  0  0  0
  188.4830  178.0150  140.2340 C   0  0  0  0  0  0  0  0  0  0  0  0
  190.5420  176.9150  141.4550 C   0  0  0  0  0  2  0  0  0  0  0  0
  188.5040  177.4630  142.3770 N   0  0  0  0  0  0  0  0  0  0  0  0
  191.6760  176.6160  144.7720 N   0  0  0  0  0  0  0  0  0  0  0  0
  189.3990  177.4700  144.6720 C   0  0  0  0  0  3  0  0  0  0  0  0
  189.1790  177.0770  138.0180 N   0  0  0  0  0  2  0  0  0  0  0  0
  189.0550  179.3780  138.3860 O   0  0  0  0  0  0  0  0  0  0  0  0
  189.6100  177.2140  136.6370 C   0  0  0  0  0  1  0  0  0  0  0  0
  188.9170  178.2110  138.8450 C   0  0  0  0  0  0  0  0  0  0  0  0
  186.1270  177.8860  143.0560 C   0  0  0  0  0  2  0  0  0  0  0  0
  185.2840  179.0490  142.8080 N   0  0  0  0  0  0  0  0  0  0  0  0
  184.1120  178.6150  142.0600 C   0  0  0  0  0  1  0  0  0  0  0  0
  184.8750  179.6540  144.0830 C   0  0  0  0  0  2  0  0  0  0  0  0
  184.7460  178.6550  145.2380 C   0  0  0  0  0  2  0  0  0  0  0  0
  185.6800  179.0340  146.3690 C   0  0  0  0  0  2  0  0  0  0  0  0
  186.5240  177.8980  146.7000 N   0  0  0  0  0  2  0  0  0  0  0  0
  188.3060  176.7530  148.0630 C   0  0  0  0  0  1  0  0  0  0  0  0
  187.4670  177.9440  147.7700 C   0  0  0  0  0  0  0  0  0  0  0  0
  187.5960  178.9850  148.4690 O   0  0  0  0  0  0  0  0  0  0  0  0
  1 11  2  0  0  0  0
  2  9  1  0  0  0  0
  2 10  1  0  0  0  0
  4  9  1  1  0  0  0
  4  5  1  0  0  0  0
  4  1  1  0  0  0  0
  5 12  1  1  0  0  0
  6  7  2  0  0  0  0
  7 10  1  0  0  0  0
  7 17  1  0  0  0  0
  8  6  1  0  0  0  0
  8  2  2  0  0  0  0
 10  5  1  0  0  0  0
 11  3  1  0  0  0  0
 12  3  2  0  0  0  0
 13 16  1  0  0  0  0
 14 16  2  0  0  0  0
 15 13  1  0  0  0  0
 16  8  1  0  0  0  0
 18 17  1  0  0  0  0
 18 20  1  0  0  0  0
 19 18  1  0  0  0  0
 20 21  1  0  0  0  0
 21 22  1  0  0  0  0
 22 23  1  0  0  0  0
 23 25  1  0  0  0  0
 25 24  1  0  0  0  0
 25 26  2  0  0  0  0
M  END
>  <MODEL>
6

>  <REMARK>
 VINA RESULT:      -7.3      2.093      7.147
  Name = 
  7 active torsions:
  status: ('A' for Active; 'I' for Inactive)
    1  A    between atoms: C_2  and  N_10
    2  A    between atoms: C_2  and  C_24
    3  A    between atoms: N_3  and  C_17
    4  A    between atoms: N_10  and  C_13
    5  A    between atoms: C_13  and  C_15
    6  A    between atoms: C_16  and  C_19
    7  A    between atoms: C_17  and  C_24
                            x       y       z     vdW  Elec       q    Type
                         _______ _______ _______ _____ _____    ______ ____

>  <TORSDO>
F 7

$$$$
=
 OpenBabel10222419323D

 26 28  0  0  1  0  0  0  0  0999 V2000
  185.0370  179.3780  140.3280 C   0  0  0  0  0  3  0  0  0  0  0  0
  187.6580  177.8060  142.2030 C   0  0  0  0  0  0  0  0  0  0  0  0
  183.4380  178.1650  141.6600 C   0  0  0  0  0  3  0  0  0  0  0  0
  186.0500  178.9930  141.3090 C   0  0  1  0  0  3  0  0  0  0  0  0
  185.6160  178.6500  142.7140 C   0  0  2  0  0  3  0  0  0  0  0  0
  188.5220  176.8520  144.0160 C   0  0  0  0  0  3  0  0  0  0  0  0
  187.2120  177.2800  144.2440 C   0  0  0  0  0  0  0  0  0  0  0  0
  188.8000  177.2020  142.6850 C   0  0  0  0  0  0  0  0  0  0  0  0
  187.2640  178.5140  140.9930 C   0  0  0  0  0  2  0  0  0  0  0  0
  186.7140  177.8050  143.1150 N   0  0  0  0  0  0  0  0  0  0  0  0
  183.8090  178.9930  140.5340 N   0  0  0  0  0  0  0  0  0  0  0  0
  184.2940  177.9340  142.6710 C   0  0  0  0  0  3  0  0  0  0  0  0
  190.1620  177.2960  140.5840 N   0  0  0  0  0  2  0  0  0  0  0  0
  191.0890  176.6080  142.6130 O   0  0  0  0  0  0  0  0  0  0  0  0
  191.3980  177.1280  139.8400 C   0  0  0  0  0  1  0  0  0  0  0  0
  190.0750  177.0140  141.9820 C   0  0  0  0  0  0  0  0  0  0  0  0
  186.4720  177.1840  145.5320 C   0  0  0  0  0  2  0  0  0  0  0  0
  186.7910  178.3320  146.3710 N   0  0  0  0  0  0  0  0  0  0  0  0
  185.6790  179.2710  146.3060 C   0  0  0  0  0  1  0  0  0  0  0  0
  187.0060  177.8980  147.7580 C   0  0  0  0  0  2  0  0  0  0  0  0
  188.4140  178.1820  148.2920 C   0  0  0  0  0  2  0  0  0  0  0  0
  189.4500  177.9160  147.2180 C   0  0  0  0  0  2  0  0  0  0  0  0
  190.3600  176.8780  147.6710 N   0  0  0  0  0  2  0  0  0  0  0  0
  192.4310  175.4630  147.4490 C   0  0  0  0  0  1  0  0  0  0  0  0
  191.5360  176.5340  146.9400 C   0  0  0  0  0  0  0  0  0  0  0  0
  191.8230  177.1280  145.8670 O   0  0  0  0  0  0  0  0  0  0  0  0
  1 11  2  0  0  0  0
  2  8  2  0  0  0  0
  2 10  1  0  0  0  0
  3 12  2  0  0  0  0
  4  1  1  6  0  0  0
  4  5  1  0  0  0  0
  5 12  1  6  0  0  0
  5 10  1  0  0  0  0
  6  7  2  0  0  0  0
  7 17  1  0  0  0  0
  8  6  1  0  0  0  0
  9  4  1  0  0  0  0
  9  2  1  0  0  0  0
 10  7  1  0  0  0  0
 11  3  1  0  0  0  0
 13 16  1  0  0  0  0
 15 13  1  0  0  0  0
 16 14  2  0  0  0  0
 16  8  1  0  0  0  0
 17 18  1  0  0  0  0
 18 20  1  0  0  0  0
 19 18  1  0  0  0  0
 20 21  1  0  0  0  0
 22 23  1  0  0  0  0
 22 21  1  0  0  0  0
 25 24  1  0  0  0  0
 25 23  1  0  0  0  0
 26 25  2  0  0  0  0
M  END
>  <MODEL>
7

>  <REMARK>
 VINA RESULT:      -7.3      2.299      6.634
  Name = 
  7 active torsions:
  status: ('A' for Active; 'I' for Inactive)
    1  A    between atoms: C_2  and  N_10
    2  A    between atoms: C_2  and  C_24
    3  A    between atoms: N_3  and  C_17
    4  A    between atoms: N_10  and  C_13
    5  A    between atoms: C_13  and  C_15
    6  A    between atoms: C_16  and  C_19
    7  A    between atoms: C_17  and  C_24
                            x       y       z     vdW  Elec       q    Type
                         _______ _______ _______ _____ _____    ______ ____

>  <TORSDO>
F 7

$$$$
=
 OpenBabel10222419323D

 26 28  0  0  1  0  0  0  0  0999 V2000
  191.2630  177.1660  147.7770 C   0  0  0  0  0  3  0  0  0  0  0  0
  188.7210  177.2040  145.2480 C   0  0  0  0  0  0  0  0  0  0  0  0
  192.3490  175.3840  146.5730 C   0  0  0  0  0  3  0  0  0  0  0  0
  190.4460  177.3860  146.5850 C   0  0  1  0  0  3  0  0  0  0  0  0
  190.9740  176.9420  145.2430 C   0  0  2  0  0  3  0  0  0  0  0  0
  187.9500  176.8980  143.1850 C   0  0  0  0  0  3  0  0  0  0  0  0
  189.3190  176.6260  143.2610 C   0  0  0  0  0  0  0  0  0  0  0  0
  187.5760  177.2750  144.4840 C   0  0  0  0  0  0  0  0  0  0  0  0
  189.1150  177.5610  146.6040 C   0  0  0  0  0  2  0  0  0  0  0  0
  189.7320  176.7770  144.5270 N   0  0  0  0  0  0  0  0  0  0  0  0
  192.1700  176.2310  147.7320 N   0  0  0  0  0  0  0  0  0  0  0  0
  191.7450  175.6610  145.4040 C   0  0  0  0  0  3  0  0  0  0  0  0
  185.3470  178.2950  143.9660 N   0  0  0  0  0  2  0  0  0  0  0  0
  185.8900  177.5720  146.1170 O   0  0  0  0  0  0  0  0  0  0  0  0
  184.0160  178.7440  144.3380 C   0  0  0  0  0  1  0  0  0  0  0  0
  186.2410  177.7130  144.9150 C   0  0  0  0  0  0  0  0  0  0  0  0
  190.1980  176.2370  142.1230 C   0  0  0  0  0  2  0  0  0  0  0  0
  190.4440  177.3950  141.2720 N   0  0  0  0  0  0  0  0  0  0  0  0
  191.8820  177.5230  141.0780 C   0  0  0  0  0  1  0  0  0  0  0  0
  189.7720  177.2210  139.9780 C   0  0  0  0  0  2  0  0  0  0  0  0
  188.8720  178.3940  139.5760 C   0  0  0  0  0  2  0  0  0  0  0  0
  188.7010  178.4360  138.0710 C   0  0  0  0  0  2  0  0  0  0  0  0
  189.8040  177.7310  137.4400 N   0  0  0  0  0  2  0  0  0  0  0  0
  190.7600  176.1010  135.7740 C   0  0  0  0  0  1  0  0  0  0  0  0
  189.5960  176.7940  136.3830 C   0  0  0  0  0  0  0  0  0  0  0  0
  188.4340  176.5490  135.9610 O   0  0  0  0  0  0  0  0  0  0  0  0
  2  9  1  0  0  0  0
  3 11  1  0  0  0  0
  4  9  1  1  0  0  0
  4  1  1  0  0  0  0
  5 12  1  1  0  0  0
  5  4  1  0  0  0  0
  6  7  2  0  0  0  0
  6  8  1  0  0  0  0
  7 10  1  0  0  0  0
  8 16  1  0  0  0  0
  8  2  2  0  0  0  0
 10  5  1  0  0  0  0
 10  2  1  0  0  0  0
 11  1  2  0  0  0  0
 12  3  2  0  0  0  0
 13 15  1  0  0  0  0
 13 16  1  0  0  0  0
 16 14  2  0  0  0  0
 17  7  1  0  0  0  0
 18 17  1  0  0  0  0
 19 18  1  0  0  0  0
 20 18  1  0  0  0  0
 21 20  1  0  0  0  0
 22 21  1  0  0  0  0
 23 22  1  0  0  0  0
 24 25  1  0  0  0  0
 25 23  1  0  0  0  0
 26 25  2  0  0  0  0
M  END
>  <MODEL>
8

>  <REMARK>
 VINA RESULT:      -7.3      2.265      4.976
  Name = 
  7 active torsions:
  status: ('A' for Active; 'I' for Inactive)
    1  A    between atoms: C_2  and  N_10
    2  A    between atoms: C_2  and  C_24
    3  A    between atoms: N_3  and  C_17
    4  A    between atoms: N_10  and  C_13
    5  A    between atoms: C_13  and  C_15
    6  A    between atoms: C_16  and  C_19
    7  A    between atoms: C_17  and  C_24
                            x       y       z     vdW  Elec       q    Type
                         _______ _______ _______ _____ _____    ______ ____

>  <TORSDO>
F 7

$$$$
=
 OpenBabel10222419323D

 26 28  0  0  1  0  0  0  0  0999 V2000
  187.1610  177.6900  136.2470 C   0  0  0  0  0  3  0  0  0  0  0  0
  185.7200  178.4730  139.4350 C   0  0  0  0  0  0  0  0  0  0  0  0
  189.2190  178.6880  136.9990 C   0  0  0  0  0  3  0  0  0  0  0  0
  186.7150  177.7140  137.6390 C   0  0  1  0  0  3  0  0  0  0  0  0
  187.7490  177.7380  138.7380 C   0  0  2  0  0  3  0  0  0  0  0  0
  185.7990  178.8530  141.6250 C   0  0  0  0  0  3  0  0  0  0  0  0
  187.0590  178.5160  141.1220 C   0  0  0  0  0  0  0  0  0  0  0  0
  184.9380  178.8180  140.5170 C   0  0  0  0  0  0  0  0  0  0  0  0
  185.5030  178.1320  138.0370 C   0  0  0  0  0  2  0  0  0  0  0  0
  186.9760  178.3410  139.7960 N   0  0  0  0  0  0  0  0  0  0  0  0
  188.3570  178.1330  135.9800 N   0  0  0  0  0  0  0  0  0  0  0  0
  188.9230  178.5720  138.3060 C   0  0  0  0  0  3  0  0  0  0  0  0
  182.7160  178.6220  141.6570 N   0  0  0  0  0  2  0  0  0  0  0  0
  182.9280  179.6180  139.5580 O   0  0  0  0  0  0  0  0  0  0  0  0
  181.2790  178.8240  141.7250 C   0  0  0  0  0  1  0  0  0  0  0  0
  183.4870  179.0460  140.5330 C   0  0  0  0  0  0  0  0  0  0  0  0
  188.3070  178.3620  141.9210 C   0  0  0  0  0  2  0  0  0  0  0  0
  188.5200  176.9550  142.2360 N   0  0  0  0  0  0  0  0  0  0  0  0
  189.9530  176.6930  142.2130 C   0  0  0  0  0  1  0  0  0  0  0  0
  187.9700  176.6480  143.5630 C   0  0  0  0  0  2  0  0  0  0  0  0
  188.5860  177.4670  144.7020 C   0  0  0  0  0  2  0  0  0  0  0  0
  187.5510  177.7380  145.7760 C   0  0  0  0  0  2  0  0  0  0  0  0
  186.2530  177.9380  145.1560 N   0  0  0  0  0  2  0  0  0  0  0  0
  183.9490  178.9510  145.0610 C   0  0  0  0  0  1  0  0  0  0  0  0
  185.2600  178.7830  145.7380 C   0  0  0  0  0  0  0  0  0  0  0  0
  185.4850  179.3870  146.8210 O   0  0  0  0  0  0  0  0  0  0  0  0
  2 10  1  0  0  0  0
  2  8  2  0  0  0  0
  3 12  2  0  0  0  0
  4  1  1  6  0  0  0
  4  9  1  0  0  0  0
  4  5  1  0  0  0  0
  5 12  1  6  0  0  0
  5 10  1  0  0  0  0
  7  6  2  0  0  0  0
  7 17  1  0  0  0  0
  8 16  1  0  0  0  0
  8  6  1  0  0  0  0
  9  2  1  0  0  0  0
 10  7  1  0  0  0  0
 11  1  2  0  0  0  0
 11  3  1  0  0  0  0
 13 15  1  0  0  0  0
 14 16  2  0  0  0  0
 16 13  1  0  0  0  0
 17 18  1  0  0  0  0
 18 20  1  0  0  0  0
 19 18  1  0  0  0  0
 20 21  1  0  0  0  0
 21 22  1  0  0  0  0
 23 25  1  0  0  0  0
 23 22  1  0  0  0  0
 24 25  1  0  0  0  0
 25 26  2  0  0  0  0
M  END
>  <MODEL>
9

>  <REMARK>
 VINA RESULT:      -7.3      2.391      7.685
  Name = 
  7 active torsions:
  status: ('A' for Active; 'I' for Inactive)
    1  A    between atoms: C_2  and  N_10
    2  A    between atoms: C_2  and  C_24
    3  A    between atoms: N_3  and  C_17
    4  A    between atoms: N_10  and  C_13
    5  A    between atoms: C_13  and  C_15
    6  A    between atoms: C_16  and  C_19
    7  A    between atoms: C_17  and  C_24
                            x       y       z     vdW  Elec       q    Type
                         _______ _______ _______ _____ _____    ______ ____

>  <TORSDO>
F 7

$$$$
