=
 OpenBabel10222416063D

 61 67  0  0  1  0  0  0  0  0999 V2000
  189.0840  178.3090  142.2890 C   0  0  0  0  0  3  0  0  0  0  0  0
  190.3580  178.0240  141.9490 C   0  0  0  0  0  0  0  0  0  0  0  0
  190.6070  177.4730  140.6170 C   0  0  0  0  0  0  0  0  0  0  0  0
  191.7580  177.0520  139.9510 C   0  0  0  0  0  3  0  0  0  0  0  0
  188.2590  177.4870  139.9970 C   0  0  0  0  0  0  0  0  0  0  0  0
  189.5960  177.2480  139.7540 C   0  0  2  0  0  3  0  0  0  0  0  0
  187.8640  176.5810  137.7400 C   0  0  0  0  0  0  0  0  0  0  0  0
  187.8930  178.0890  141.3490 C   0  0  0  0  0  3  0  0  0  0  0  0
  190.0670  176.7240  138.6300 N   0  0  0  0  0  0  0  0  0  0  0  0
  189.8110  175.8150  136.4120 N   0  0  0  0  0  1  0  0  0  0  0  0
  187.3470  177.1370  138.9610 C   0  0  0  0  0  0  0  0  0  0  0  0
  189.2600  176.3810  137.5990 C   0  0  0  0  0  0  0  0  0  0  0  0
  191.3840  176.5950  138.7210 N   0  0  0  0  0  0  0  0  0  0  0  0
  186.1470  177.3250  136.0610 C   0  0  2  0  0  3  0  0  0  0  0  0
  186.9710  176.1880  136.5890 C   0  0  2  0  0  3  0  0  0  0  0  0
  185.9500  175.1600  136.9630 C   0  0  0  0  0  2  0  0  0  0  0  0
  184.8580  176.7710  135.6630 N   0  0  0  0  0  0  0  0  0  0  0  0
  184.7450  175.4590  136.1960 N   0  0  0  0  0  0  0  0  0  0  0  0
  186.8360  177.9420  134.8550 C   0  0  0  0  0  1  0  0  0  0  0  0
  183.8330  177.5880  136.3020 C   0  0  0  0  0  2  0  0  0  0  0  0
  181.2290  179.9240  138.5360 C   0  0  0  0  0  3  0  0  0  0  0  0
  181.4820  176.8560  136.6380 C   0  0  0  0  0  2  0  0  0  0  0  0
  182.9090  176.7250  137.1500 C   0  0  2  0  0  3  0  0  0  0  0  0
  181.2840  176.8860  139.2030 C   0  0  1  0  0  3  0  0  0  0  0  0
  181.8690  177.5290  137.9370 C   0  0  2  0  0  0  0  0  0  0  0  0
  179.8180  177.2430  139.3000 C   0  0  0  0  0  2  0  0  0  0  0  0
  180.2370  179.7090  139.6090 C   0  0  0  0  0  3  0  0  0  0  0  0
  179.6410  178.5690  139.9700 C   0  0  0  0  0  3  0  0  0  0  0  0
  181.9210  179.0230  137.8290 C   0  0  0  0  0  3  0  0  0  0  0  0
  181.4370  175.3740  139.2690 C   0  0  0  0  0  1  0  0  0  0  0  0
  184.7340  174.5380  135.0650 C   0  0  0  0  0  2  0  0  0  0  0  0
  184.4370  173.1300  135.5450 C   0  0  0  0  0  2  0  0  0  0  0  0
  181.9910  173.9840  134.8730 O   0  0  0  0  0  0  0  0  0  0  0  0
  182.6770  172.8990  135.6490 S   0  0  0  0  0  0  0  0  0  0  0  0
  182.2520  172.9770  137.0870 O   0  0  0  0  0  0  0  0  0  0  0  0
  182.2530  171.2920  134.9760 C   0  0  1  0  0  3  0  0  0  0  0  0
  183.5340  169.7650  135.9700 C   0  0  0  0  0  1  0  0  0  0  0  0
  183.4050  170.5070  134.7920 O   0  0  0  0  0  0  0  0  0  0  0  0
  181.2580  170.5880  135.8000 N   0  0  0  0  0  2  0  0  0  0  0  0
  179.6320  171.7520  134.5940 O   0  0  0  0  0  1  0  0  0  0  0  0
  178.9520  170.0800  136.0500 N   0  0  0  0  0  1  0  0  0  0  0  0
  179.9740  170.5060  135.1120 C   0  0  2  0  0  3  0  0  0  0  0  0
  185.9250  177.3200  139.0920 N   0  0  0  0  0  2  0  0  0  0  0  0
  185.2070  178.5650  138.8840 C   0  0  2  0  0  3  0  0  0  0  0  0
  186.0320  179.4810  138.2290 O   0  0  0  0  0  1  0  0  0  0  0  0
  184.6840  179.0950  140.2200 C   0  0  2  0  0  3  0  0  0  0  0  0
  185.6920  179.7720  140.9030 O   0  0  0  0  0  1  0  0  0  0  0  0
  184.0140  178.0440  141.1100 C   0  0  0  0  0  2  0  0  0  0  0  0
  183.0350  178.6690  142.0940 C   0  0  0  0  0  2  0  0  0  0  0  0
  183.5170  178.5730  143.5440 C   0  0  1  0  0  3  0  0  0  0  0  0
  184.5810  179.6130  143.8650 C   0  0  0  0  0  1  0  0  0  0  0  0
  182.4410  178.6890  144.4360 O   0  0  0  0  0  1  0  0  0  0  0  0
  191.4750  178.2440  142.9130 C   0  0  0  0  0  2  0  0  0  0  0  0
  189.5530  177.5850  146.0580 C   0  0  2  0  0  3  0  0  0  0  0  0
  191.9200  175.6370  144.2340 O   0  0  0  0  0  0  0  0  0  0  0  0
  190.3820  176.2980  145.9730 C   0  0  2  0  0  3  0  0  0  0  0  0
  191.2170  176.1740  147.0740 F   0  0  0  0  0  0  0  0  0  0  0  0
  191.0890  177.8360  144.2540 N   0  0  0  0  0  0  0  0  0  0  0  0
  190.1530  178.5870  145.0590 C   0  0  0  0  0  2  0  0  0  0  0  0
  191.2000  176.5240  144.7620 C   0  0  0  0  0  0  0  0  0  0  0  0
  189.5540  178.1100  147.3400 F   0  0  0  0  0  0  0  0  0  0  0  0
  2  1  1  0  0  0  0
  2 53  1  0  0  0  0
  3  2  2  0  0  0  0
  4  3  1  0  0  0  0
  5  8  1  0  0  0  0
  6  5  1  1  0  0  0
  6  3  1  0  0  0  0
  7 11  1  0  0  0  0
  8  1  2  0  0  0  0
  9 13  1  0  0  0  0
  9  6  1  0  0  0  0
 10 12  1  0  0  0  0
 11 43  1  0  0  0  0
 11  5  2  0  0  0  0
 12  7  2  0  0  0  0
 12  9  1  0  0  0  0
 13  4  2  0  0  0  0
 14 19  1  6  0  0  0
 14 15  1  0  0  0  0
 15 16  1  0  0  0  0
 15  7  1  1  0  0  0
 17 14  1  0  0  0  0
 17 18  1  0  0  0  0
 17 20  1  0  0  0  0
 18 16  1  0  0  0  0
 21 27  1  0  0  0  0
 22 23  1  0  0  0  0
 23 20  1  6  0  0  0
 23 25  1  0  0  0  0
 24 30  1  6  0  0  0
 24 26  1  0  0  0  0
 25 22  1  6  0  0  0
 25 24  1  0  0  0  0
 26 28  1  0  0  0  0
 27 28  2  0  0  0  0
 29 25  1  0  0  0  0
 29 21  2  0  0  0  0
 31 32  1  0  0  0  0
 31 18  1  0  0  0  0
 32 34  1  0  0  0  0
 33 34  2  0  0  0  0
 34 35  2  0  0  0  0
 36 38  1  1  0  0  0
 36 34  1  0  0  0  0
 36 39  1  0  0  0  0
 38 37  1  0  0  0  0
 42 40  1  1  0  0  0
 42 39  1  0  0  0  0
 42 41  1  0  0  0  0
 44 45  1  1  0  0  0
 44 43  1  0  0  0  0
 44 46  1  0  0  0  0
 46 47  1  1  0  0  0
 46 48  1  0  0  0  0
 48 49  1  0  0  0  0
 49 50  1  0  0  0  0
 50 51  1  1  0  0  0
 50 52  1  0  0  0  0
 53 58  1  0  0  0  0
 54 61  1  1  0  0  0
 55 60  2  0  0  0  0
 56 54  1  0  0  0  0
 56 57  1  1  0  0  0
 58 60  1  0  0  0  0
 58 59  1  0  0  0  0
 59 54  1  0  0  0  0
 60 56  1  0  0  0  0
M  END
>  <MODEL>
1

>  <REMARK>
 VINA RESULT:      -6.0      0.000      0.000
  Name = 
  18 active torsions:
  status: ('A' for Active; 'I' for Inactive)
    1  A    between atoms: C_2  and  N_9
    2  A    between atoms: C_2  and  C_29
    3  A    between atoms: C_3  and  C_30
    4  A    between atoms: C_3  and  C_58
    5  A    between atoms: C_4  and  C_8
    6  A    between atoms: C_4  and  N_44
    7  A    between atoms: N_9  and  C_51
    8  A    between atoms: C_12  and  S_16
    9  A    between atoms: C_12  and  C_26
   10  A    between atoms: O_13  and  C_15
   11  A    between atoms: C_15  and  S_16
   12  A    between atoms: C_15  and  N_35
   13  A    between atoms: C_18  and  C_19
   14  A    between atoms: C_18  and  N_41
   15  A    between atoms: C_23  and  C_37
   16  A    between atoms: C_26  and  N_45
   17  A    between atoms: C_29  and  C_58
   18  A    between atoms: N_35  and  C_40
                            x       y       z     vdW  Elec       q    Type
                         _______ _______ _______ _____ _____    ______ ____

>  <TORSDO>
F 18

$$$$
=
 OpenBabel10222416063D

 61 67  0  0  1  0  0  0  0  0999 V2000
  188.8790  178.5980  141.8270 C   0  0  0  0  0  3  0  0  0  0  0  0
  189.6910  177.9710  140.9510 C   0  0  0  0  0  0  0  0  0  0  0  0
  189.1070  177.4770  139.7030 C   0  0  0  0  0  0  0  0  0  0  0  0
  189.6230  176.7830  138.6090 C   0  0  0  0  0  3  0  0  0  0  0  0
  186.8710  178.2460  140.2600 C   0  0  0  0  0  0  0  0  0  0  0  0
  187.7950  177.6360  139.4370 C   0  0  2  0  0  3  0  0  0  0  0  0
  185.2110  177.6810  138.5290 C   0  0  0  0  0  0  0  0  0  0  0  0
  187.3830  178.8220  141.5750 C   0  0  0  0  0  3  0  0  0  0  0  0
  187.5010  177.0840  138.2660 N   0  0  0  0  0  0  0  0  0  0  0  0
  185.9730  176.4720  136.5040 N   0  0  0  0  0  1  0  0  0  0  0  0
  185.5220  178.2700  139.8030 C   0  0  0  0  0  0  0  0  0  0  0  0
  186.2440  177.0820  137.7640 C   0  0  0  0  0  0  0  0  0  0  0  0
  188.5970  176.5580  137.7380 N   0  0  0  0  0  0  0  0  0  0  0  0
  183.3800  176.3150  137.4810 C   0  0  2  0  0  3  0  0  0  0  0  0
  183.8110  177.6670  137.9650 C   0  0  2  0  0  3  0  0  0  0  0  0
  183.6560  178.5370  136.7590 C   0  0  0  0  0  2  0  0  0  0  0  0
  182.5470  176.5280  136.3020 N   0  0  0  0  0  0  0  0  0  0  0  0
  182.7040  177.8730  135.8750 N   0  0  0  0  0  0  0  0  0  0  0  0
  182.5730  175.6150  138.5610 C   0  0  0  0  0  1  0  0  0  0  0  0
  183.0820  175.6730  135.2490 C   0  0  0  0  0  2  0  0  0  0  0  0
  180.1520  172.7940  134.6510 C   0  0  0  0  0  3  0  0  0  0  0  0
  183.7270  173.3430  134.6740 C   0  0  0  0  0  2  0  0  0  0  0  0
  183.5100  174.3270  135.8140 C   0  0  2  0  0  3  0  0  0  0  0  0
  182.5200  171.9970  136.5050 C   0  0  1  0  0  3  0  0  0  0  0  0
  182.5030  173.2020  135.5530 C   0  0  2  0  0  0  0  0  0  0  0  0
  182.2570  170.7410  135.7080 C   0  0  0  0  0  2  0  0  0  0  0  0
  179.9080  171.3990  135.0720 C   0  0  0  0  0  3  0  0  0  0  0  0
  180.7860  170.5130  135.5510 C   0  0  0  0  0  3  0  0  0  0  0  0
  181.2320  173.5620  134.8460 C   0  0  0  0  0  3  0  0  0  0  0  0
  183.8140  171.8320  137.2870 C   0  0  0  0  0  1  0  0  0  0  0  0
  181.4200  178.5360  136.0750 C   0  0  0  0  0  2  0  0  0  0  0  0
  181.3780  179.8340  135.2900 C   0  0  0  0  0  2  0  0  0  0  0  0
  178.9330  180.0640  136.3550 O   0  0  0  0  0  0  0  0  0  0  0  0
  180.1200  180.8940  135.9650 S   0  0  0  0  0  0  0  0  0  0  0  0
  179.7040  181.8930  134.9240 O   0  0  0  0  0  0  0  0  0  0  0  0
  180.7770  181.7480  137.3980 C   0  0  1  0  0  3  0  0  0  0  0  0
  180.3960  183.9400  137.4970 C   0  0  0  0  0  1  0  0  0  0  0  0
  179.8630  182.7040  137.8740 O   0  0  0  0  0  0  0  0  0  0  0  0
  181.1740  180.8170  138.4670 N   0  0  0  0  0  2  0  0  0  0  0  0
  180.3780  180.9560  140.6590 O   0  0  0  0  0  1  0  0  0  0  0  0
  179.7710  179.1260  139.3690 N   0  0  0  0  0  1  0  0  0  0  0  0
  180.0560  180.5500  139.3670 C   0  0  2  0  0  3  0  0  0  0  0  0
  184.4590  178.8600  140.5720 N   0  0  0  0  0  2  0  0  0  0  0  0
  183.7740  178.2380  141.6910 C   0  0  2  0  0  3  0  0  0  0  0  0
  182.4400  178.0000  141.3520 O   0  0  0  0  0  1  0  0  0  0  0  0
  183.9170  179.1070  142.9400 C   0  0  2  0  0  3  0  0  0  0  0  0
  184.9450  180.0330  142.7750 O   0  0  0  0  0  1  0  0  0  0  0  0
  184.0710  178.3280  144.2500 C   0  0  0  0  0  2  0  0  0  0  0  0
  185.5260  177.9920  144.5480 C   0  0  0  0  0  2  0  0  0  0  0  0
  185.8590  178.0890  146.0390 C   0  0  1  0  0  3  0  0  0  0  0  0
  187.3200  177.7660  146.3230 C   0  0  0  0  0  1  0  0  0  0  0  0
  185.5370  179.3580  146.5410 O   0  0  0  0  0  1  0  0  0  0  0  0
  191.1370  177.7680  141.2570 C   0  0  0  0  0  2  0  0  0  0  0  0
  191.1360  177.7030  145.0010 C   0  0  2  0  0  3  0  0  0  0  0  0
  190.4610  175.1980  142.5540 O   0  0  0  0  0  0  0  0  0  0  0  0
  190.8050  176.2360  144.7060 C   0  0  2  0  0  3  0  0  0  0  0  0
  191.7860  175.3950  145.2090 F   0  0  0  0  0  0  0  0  0  0  0  0
  191.3210  177.3840  142.6470 N   0  0  0  0  0  0  0  0  0  0  0  0
  191.6180  178.3410  143.6880 C   0  0  0  0  0  2  0  0  0  0  0  0
  190.8350  176.1920  143.2270 C   0  0  0  0  0  0  0  0  0  0  0  0
  192.1010  177.8200  145.9870 F   0  0  0  0  0  0  0  0  0  0  0  0
  2 53  1  0  0  0  0
  2  1  1  0  0  0  0
  3  2  2  0  0  0  0
  4  3  1  0  0  0  0
  5  8  1  0  0  0  0
  6  3  1  1  0  0  0
  6  5  1  0  0  0  0
  7 11  1  0  0  0  0
  8  1  2  0  0  0  0
  9  6  1  0  0  0  0
 10 12  1  0  0  0  0
 11  5  2  0  0  0  0
 11 43  1  0  0  0  0
 12  9  1  0  0  0  0
 12  7  2  0  0  0  0
 13  9  1  0  0  0  0
 13  4  2  0  0  0  0
 14 15  1  0  0  0  0
 14 19  1  1  0  0  0
 15  7  1  6  0  0  0
 16 15  1  0  0  0  0
 17 14  1  0  0  0  0
 18 31  1  0  0  0  0
 18 17  1  0  0  0  0
 18 16  1  0  0  0  0
 20 17  1  0  0  0  0
 21 29  2  0  0  0  0
 21 27  1  0  0  0  0
 22 23  1  0  0  0  0
 23 20  1  6  0  0  0
 24 30  1  6  0  0  0
 25 22  1  6  0  0  0
 25 23  1  0  0  0  0
 25 24  1  0  0  0  0
 26 24  1  0  0  0  0
 27 28  2  0  0  0  0
 28 26  1  0  0  0  0
 29 25  1  0  0  0  0
 32 34  1  0  0  0  0
 32 31  1  0  0  0  0
 34 33  2  0  0  0  0
 34 36  1  0  0  0  0
 35 34  2  0  0  0  0
 36 38  1  1  0  0  0
 36 39  1  0  0  0  0
 37 38  1  0  0  0  0
 39 42  1  0  0  0  0
 42 41  1  1  0  0  0
 42 40  1  0  0  0  0
 43 44  1  0  0  0  0
 44 45  1  6  0  0  0
 44 46  1  0  0  0  0
 46 47  1  6  0  0  0
 46 48  1  0  0  0  0
 48 49  1  0  0  0  0
 49 50  1  0  0  0  0
 50 51  1  6  0  0  0
 50 52  1  0  0  0  0
 53 58  1  0  0  0  0
 54 61  1  1  0  0  0
 55 60  2  0  0  0  0
 56 54  1  0  0  0  0
 56 57  1  1  0  0  0
 58 60  1  0  0  0  0
 58 59  1  0  0  0  0
 59 54  1  0  0  0  0
 60 56  1  0  0  0  0
M  END
>  <MODEL>
2

>  <REMARK>
 VINA RESULT:      -5.8      3.128      5.754
  Name = 
  18 active torsions:
  status: ('A' for Active; 'I' for Inactive)
    1  A    between atoms: C_2  and  N_9
    2  A    between atoms: C_2  and  C_29
    3  A    between atoms: C_3  and  C_30
    4  A    between atoms: C_3  and  C_58
    5  A    between atoms: C_4  and  C_8
    6  A    between atoms: C_4  and  N_44
    7  A    between atoms: N_9  and  C_51
    8  A    between atoms: C_12  and  S_16
    9  A    between atoms: C_12  and  C_26
   10  A    between atoms: O_13  and  C_15
   11  A    between atoms: C_15  and  S_16
   12  A    between atoms: C_15  and  N_35
   13  A    between atoms: C_18  and  C_19
   14  A    between atoms: C_18  and  N_41
   15  A    between atoms: C_23  and  C_37
   16  A    between atoms: C_26  and  N_45
   17  A    between atoms: C_29  and  C_58
   18  A    between atoms: N_35  and  C_40
                            x       y       z     vdW  Elec       q    Type
                         _______ _______ _______ _____ _____    ______ ____

>  <TORSDO>
F 18

$$$$
=
 OpenBabel10222416063D

 61 67  0  0  1  0  0  0  0  0999 V2000
  188.6100  177.7920  143.4770 C   0  0  0  0  0  3  0  0  0  0  0  0
  187.9510  177.9700  144.6400 C   0  0  0  0  0  0  0  0  0  0  0  0
  186.5080  178.2050  144.5840 C   0  0  0  0  0  0  0  0  0  0  0  0
  185.5350  178.4440  145.5540 C   0  0  0  0  0  3  0  0  0  0  0  0
  186.4240  178.0980  142.1590 C   0  0  0  0  0  0  0  0  0  0  0  0
  185.8540  178.2510  143.4060 C   0  0  0  0  0  0  0  0  0  0  0  0
  184.1600  178.4860  141.2660 C   0  0  0  0  0  0  0  0  0  0  0  0
  187.9220  177.8200  142.1060 C   0  0  0  0  0  2  0  0  0  0  0  0
  184.5680  178.5020  143.6120 N   0  0  0  0  0  0  0  0  0  0  0  0
  182.3100  178.8990  142.8630 N   0  0  0  0  0  1  0  0  0  0  0  0
  185.5560  178.2260  141.0370 C   0  0  0  0  0  0  0  0  0  0  0  0
  183.6830  178.6220  142.5950 C   0  0  0  0  0  0  0  0  0  0  0  0
  184.3440  178.6230  144.9140 N   0  0  0  0  0  0  0  0  0  0  0  0
  182.6940  177.3160  139.5930 C   0  0  2  0  0  3  0  0  0  0  0  0
  183.1690  178.6300  140.1380 C   0  0  2  0  0  3  0  0  0  0  0  0
  183.7400  179.3200  138.9400 C   0  0  0  0  0  2  0  0  0  0  0  0
  182.5130  177.4880  138.1560 N   0  0  0  0  0  0  0  0  0  0  0  0
  183.1310  178.7060  137.7650 N   0  0  0  0  0  0  0  0  0  0  0  0
  181.3710  176.9380  140.2370 C   0  0  0  0  0  1  0  0  0  0  0  0
  183.2390  176.4040  137.5050 C   0  0  0  0  0  2  0  0  0  0  0  0
  184.9110  172.6780  136.7650 C   0  0  0  0  0  3  0  0  0  0  0  0
  181.8180  174.3660  137.5770 C   0  0  0  0  0  2  0  0  0  0  0  0
  182.2880  175.5230  136.7070 C   0  0  2  0  0  3  0  0  0  0  0  0
  182.2660  173.3330  135.2640 C   0  0  1  0  0  3  0  0  0  0  0  0
  182.8180  174.1050  136.4710 C   0  0  2  0  0  0  0  0  0  0  0  0
  182.1060  171.8790  135.6460 C   0  0  0  0  0  2  0  0  0  0  0  0
  184.5760  171.4850  135.9610 C   0  0  0  0  0  3  0  0  0  0  0  0
  183.3910  171.1370  135.4500 C   0  0  0  0  0  3  0  0  0  0  0  0
  184.1870  173.7820  136.9860 C   0  0  0  0  0  3  0  0  0  0  0  0
  180.9420  173.8590  134.7320 C   0  0  0  0  0  1  0  0  0  0  0  0
  182.0680  179.6040  137.3300 C   0  0  0  0  0  2  0  0  0  0  0  0
  181.4040  179.0550  136.0800 C   0  0  0  0  0  2  0  0  0  0  0  0
  178.9310  179.0750  137.1040 O   0  0  0  0  0  0  0  0  0  0  0  0
  179.7350  179.6620  135.9820 S   0  0  0  0  0  0  0  0  0  0  0  0
  179.1330  179.2440  134.6710 O   0  0  0  0  0  0  0  0  0  0  0  0
  179.7520  181.4510  136.1000 C   0  0  1  0  0  3  0  0  0  0  0  0
  179.0110  183.3520  135.2080 C   0  0  0  0  0  1  0  0  0  0  0  0
  179.3540  182.0360  134.8850 O   0  0  0  0  0  0  0  0  0  0  0  0
  178.9310  181.9430  137.2190 N   0  0  0  0  0  2  0  0  0  0  0  0
  181.1000  182.4950  137.8850 O   0  0  0  0  0  1  0  0  0  0  0  0
  179.5010  182.1010  139.5190 N   0  0  0  0  0  1  0  0  0  0  0  0
  179.7520  182.6480  138.1980 C   0  0  2  0  0  3  0  0  0  0  0  0
  186.0250  178.1050  139.6830 N   0  0  0  0  0  2  0  0  0  0  0  0
  187.3830  178.3470  139.2300 C   0  0  2  0  0  3  0  0  0  0  0  0
  187.3630  179.1510  138.0890 O   0  0  0  0  0  1  0  0  0  0  0  0
  188.1020  177.0170  138.9990 C   0  0  2  0  0  3  0  0  0  0  0  0
  189.4820  177.1880  139.0770 O   0  0  0  0  0  1  0  0  0  0  0  0
  187.7010  176.2860  137.7150 C   0  0  0  0  0  2  0  0  0  0  0  0
  188.8420  175.4470  137.1540 C   0  0  0  0  0  2  0  0  0  0  0  0
  189.3230  175.9470  135.7890 C   0  0  1  0  0  3  0  0  0  0  0  0
  188.5180  175.3470  134.6440 C   0  0  0  0  0  1  0  0  0  0  0  0
  189.2840  177.3470  135.7280 O   0  0  0  0  0  1  0  0  0  0  0  0
  188.6780  177.9480  145.9430 C   0  0  0  0  0  2  0  0  0  0  0  0
  191.8390  176.2170  144.9260 C   0  0  2  0  0  3  0  0  0  0  0  0
  190.5780  177.2520  148.0980 O   0  0  0  0  0  0  0  0  0  0  0  0
  192.0250  176.2480  146.4480 C   0  0  2  0  0  3  0  0  0  0  0  0
  192.1000  174.9630  146.9640 F   0  0  0  0  0  0  0  0  0  0  0  0
  189.8220  177.0540  145.8810 N   0  0  0  0  0  0  0  0  0  0  0  0
  190.3730  176.5760  144.6330 C   0  0  0  0  0  2  0  0  0  0  0  0
  190.7740  176.8880  146.9100 C   0  0  0  0  0  0  0  0  0  0  0  0
  192.1540  174.9760  144.3980 F   0  0  0  0  0  0  0  0  0  0  0  0
  1  2  2  0  0  0  0
  2 53  1  0  0  0  0
  3  2  1  0  0  0  0
  3  4  1  0  0  0  0
  5  6  1  0  0  0  0
  6  9  1  0  0  0  0
  6  3  2  0  0  0  0
  7 12  2  0  0  0  0
  8  5  1  0  0  0  0
  8  1  1  0  0  0  0
  9 13  1  0  0  0  0
 11  7  1  0  0  0  0
 11  5  2  0  0  0  0
 12 10  1  0  0  0  0
 12  9  1  0  0  0  0
 13  4  2  0  0  0  0
 14 15  1  0  0  0  0
 14 19  1  1  0  0  0
 15  7  1  1  0  0  0
 16 15  1  0  0  0  0
 17 14  1  0  0  0  0
 18 17  1  0  0  0  0
 18 16  1  0  0  0  0
 20 17  1  0  0  0  0
 21 29  2  0  0  0  0
 23 20  1  1  0  0  0
 23 22  1  0  0  0  0
 24 30  1  1  0  0  0
 24 26  1  0  0  0  0
 24 25  1  0  0  0  0
 25 23  1  0  0  0  0
 25 29  1  1  0  0  0
 25 22  1  0  0  0  0
 27 21  1  0  0  0  0
 28 26  1  0  0  0  0
 28 27  2  0  0  0  0
 31 18  1  0  0  0  0
 32 31  1  0  0  0  0
 34 32  1  0  0  0  0
 34 36  1  0  0  0  0
 34 33  2  0  0  0  0
 35 34  2  0  0  0  0
 36 38  1  6  0  0  0
 36 39  1  0  0  0  0
 38 37  1  0  0  0  0
 39 42  1  0  0  0  0
 42 40  1  6  0  0  0
 42 41  1  0  0  0  0
 43 11  1  0  0  0  0
 44 45  1  6  0  0  0
 44 43  1  0  0  0  0
 46 47  1  6  0  0  0
 46 44  1  0  0  0  0
 48 46  1  0  0  0  0
 49 48  1  0  0  0  0
 50 51  1  6  0  0  0
 50 49  1  0  0  0  0
 52 50  1  0  0  0  0
 54 61  1  1  0  0  0
 54 56  1  0  0  0  0
 56 60  1  0  0  0  0
 56 57  1  1  0  0  0
 58 53  1  0  0  0  0
 58 60  1  0  0  0  0
 59 54  1  0  0  0  0
 59 58  1  0  0  0  0
 60 55  2  0  0  0  0
M  END
>  <MODEL>
3

>  <REMARK>
 VINA RESULT:      -5.7      3.527      6.967
  Name = 
  18 active torsions:
  status: ('A' for Active; 'I' for Inactive)
    1  A    between atoms: C_2  and  N_9
    2  A    between atoms: C_2  and  C_29
    3  A    between atoms: C_3  and  C_30
    4  A    between atoms: C_3  and  C_58
    5  A    between atoms: C_4  and  C_8
    6  A    between atoms: C_4  and  N_44
    7  A    between atoms: N_9  and  C_51
    8  A    between atoms: C_12  and  S_16
    9  A    between atoms: C_12  and  C_26
   10  A    between atoms: O_13  and  C_15
   11  A    between atoms: C_15  and  S_16
   12  A    between atoms: C_15  and  N_35
   13  A    between atoms: C_18  and  C_19
   14  A    between atoms: C_18  and  N_41
   15  A    between atoms: C_23  and  C_37
   16  A    between atoms: C_26  and  N_45
   17  A    between atoms: C_29  and  C_58
   18  A    between atoms: N_35  and  C_40
                            x       y       z     vdW  Elec       q    Type
                         _______ _______ _______ _____ _____    ______ ____

>  <TORSDO>
F 18

$$$$
=
 OpenBabel10222416063D

 61 67  0  0  1  0  0  0  0  0999 V2000
  189.5530  178.1710  142.5600 C   0  0  0  0  0  3  0  0  0  0  0  0
  189.0080  178.1830  143.7930 C   0  0  0  0  0  0  0  0  0  0  0  0
  187.5490  178.1860  143.9000 C   0  0  0  0  0  0  0  0  0  0  0  0
  186.6640  178.2190  144.9780 C   0  0  0  0  0  3  0  0  0  0  0  0
  187.2130  178.1870  141.4950 C   0  0  0  0  0  0  0  0  0  0  0  0
  186.7690  178.1850  142.8010 C   0  0  0  0  0  0  0  0  0  0  0  0
  184.8320  178.2510  140.8650 C   0  0  0  0  0  0  0  0  0  0  0  0
  188.7210  178.1550  141.2720 C   0  0  0  0  0  2  0  0  0  0  0  0
  185.4900  178.2170  143.1530 N   0  0  0  0  0  0  0  0  0  0  0  0
  183.1290  178.2840  142.6650 N   0  0  0  0  0  1  0  0  0  0  0  0
  186.2170  178.2290  140.4780 C   0  0  0  0  0  0  0  0  0  0  0  0
  184.4900  178.2440  142.2410 C   0  0  0  0  0  0  0  0  0  0  0  0
  185.3960  178.2360  144.4760 N   0  0  0  0  0  0  0  0  0  0  0  0
  183.7330  177.1350  138.8990 C   0  0  2  0  0  3  0  0  0  0  0  0
  183.7120  178.2900  139.8550 C   0  0  2  0  0  3  0  0  0  0  0  0
  183.7700  179.4870  138.9600 C   0  0  0  0  0  2  0  0  0  0  0  0
  183.2860  177.6410  137.6060 N   0  0  0  0  0  0  0  0  0  0  0  0
  183.2940  179.0600  137.6480 N   0  0  0  0  0  0  0  0  0  0  0  0
  182.7870  176.0490  139.3820 C   0  0  0  0  0  1  0  0  0  0  0  0
  184.2820  177.2300  136.6240 C   0  0  0  0  0  2  0  0  0  0  0  0
  182.1370  174.3100  134.5990 C   0  0  0  0  0  3  0  0  0  0  0  0
  185.4530  175.2410  135.7010 C   0  0  0  0  0  2  0  0  0  0  0  0
  184.8100  175.8380  136.9440 C   0  0  2  0  0  3  0  0  0  0  0  0
  184.1300  173.3100  136.7690 C   0  0  1  0  0  3  0  0  0  0  0  0
  184.1090  174.7220  136.1630 C   0  0  2  0  0  0  0  0  0  0  0  0
  184.2860  172.3020  135.6530 C   0  0  0  0  0  2  0  0  0  0  0  0
  182.0620  172.8350  134.5940 C   0  0  0  0  0  3  0  0  0  0  0  0
  182.9550  171.9580  135.0620 C   0  0  0  0  0  3  0  0  0  0  0  0
  182.9860  175.1130  135.2510 C   0  0  0  0  0  3  0  0  0  0  0  0
  185.2220  173.0860  137.8030 C   0  0  0  0  0  1  0  0  0  0  0  0
  181.9070  179.4990  137.5470 C   0  0  0  0  0  2  0  0  0  0  0  0
  181.6750  180.7000  138.4450 C   0  0  0  0  0  2  0  0  0  0  0  0
  179.1290  179.9040  138.2290 O   0  0  0  0  0  0  0  0  0  0  0  0
  180.0640  180.5800  139.1880 S   0  0  0  0  0  0  0  0  0  0  0  0
  179.5530  181.9610  139.4850 O   0  0  0  0  0  0  0  0  0  0  0  0
  180.1840  179.6370  140.7070 C   0  0  1  0  0  3  0  0  0  0  0  0
  179.4740  180.5510  142.6100 C   0  0  0  0  0  1  0  0  0  0  0  0
  180.5910  180.4570  141.7740 O   0  0  0  0  0  0  0  0  0  0  0  0
  178.9310  178.9340  141.0270 N   0  0  0  0  0  2  0  0  0  0  0  0
  179.5980  177.0870  142.2930 O   0  0  0  0  0  1  0  0  0  0  0  0
  180.1100  177.1290  140.0310 N   0  0  0  0  0  1  0  0  0  0  0  0
  179.1340  177.4880  141.0430 C   0  0  2  0  0  3  0  0  0  0  0  0
  186.5460  178.2520  139.0780 N   0  0  0  0  0  2  0  0  0  0  0  0
  187.8700  178.4640  138.5200 C   0  0  2  0  0  3  0  0  0  0  0  0
  187.8580  179.5910  137.6950 O   0  0  0  0  0  1  0  0  0  0  0  0
  188.3370  177.2050  137.7900 C   0  0  2  0  0  3  0  0  0  0  0  0
  188.1350  176.0780  138.5830 O   0  0  0  0  0  1  0  0  0  0  0  0
  189.7720  177.2660  137.2600 C   0  0  0  0  0  2  0  0  0  0  0  0
  190.3250  175.8820  136.9460 C   0  0  0  0  0  2  0  0  0  0  0  0
  189.6400  175.2350  135.7390 C   0  0  1  0  0  3  0  0  0  0  0  0
  190.6130  174.9830  134.5950 C   0  0  0  0  0  1  0  0  0  0  0  0
  189.0050  174.0400  136.1070 O   0  0  0  0  0  1  0  0  0  0  0  0
  189.8690  178.2140  145.0110 C   0  0  0  0  0  2  0  0  0  0  0  0
  192.1570  175.3020  144.4550 C   0  0  2  0  0  3  0  0  0  0  0  0
  191.4120  177.2570  147.3440 O   0  0  0  0  0  0  0  0  0  0  0  0
  192.3640  175.5250  145.9580 C   0  0  2  0  0  3  0  0  0  0  0  0
  191.9700  174.4110  146.6830 F   0  0  0  0  0  0  0  0  0  0  0  0
  190.6040  176.9680  145.1560 N   0  0  0  0  0  0  0  0  0  0  0  0
  190.9220  176.1140  144.0340 C   0  0  0  0  0  2  0  0  0  0  0  0
  191.4430  176.6460  146.2450 C   0  0  0  0  0  0  0  0  0  0  0  0
  191.9870  173.9600  144.1560 F   0  0  0  0  0  0  0  0  0  0  0  0
  1  2  2  0  0  0  0
  2  3  1  0  0  0  0
  2 53  1  0  0  0  0
  3  4  1  0  0  0  0
  5  6  1  0  0  0  0
  6  9  1  0  0  0  0
  6  3  2  0  0  0  0
  7 12  2  0  0  0  0
  8  5  1  0  0  0  0
  8  1  1  0  0  0  0
  9 13  1  0  0  0  0
 11  7  1  0  0  0  0
 11  5  2  0  0  0  0
 12 10  1  0  0  0  0
 12  9  1  0  0  0  0
 13  4  2  0  0  0  0
 14 19  1  1  0  0  0
 14 15  1  0  0  0  0
 15  7  1  1  0  0  0
 16 15  1  0  0  0  0
 17 18  1  0  0  0  0
 17 14  1  0  0  0  0
 18 16  1  0  0  0  0
 20 17  1  0  0  0  0
 21 29  2  0  0  0  0
 22 25  1  0  0  0  0
 22 23  1  0  0  0  0
 23 20  1  6  0  0  0
 24 30  1  1  0  0  0
 25 29  1  6  0  0  0
 25 24  1  0  0  0  0
 25 23  1  0  0  0  0
 26 24  1  0  0  0  0
 27 21  1  0  0  0  0
 27 28  2  0  0  0  0
 28 26  1  0  0  0  0
 31 18  1  0  0  0  0
 31 32  1  0  0  0  0
 32 34  1  0  0  0  0
 33 34  2  0  0  0  0
 34 35  2  0  0  0  0
 34 36  1  0  0  0  0
 36 39  1  1  0  0  0
 36 38  1  0  0  0  0
 38 37  1  0  0  0  0
 39 42  1  0  0  0  0
 42 41  1  6  0  0  0
 42 40  1  0  0  0  0
 43 11  1  0  0  0  0
 44 45  1  6  0  0  0
 44 43  1  0  0  0  0
 46 44  1  0  0  0  0
 46 47  1  1  0  0  0
 48 46  1  0  0  0  0
 49 48  1  0  0  0  0
 50 51  1  6  0  0  0
 50 52  1  0  0  0  0
 50 49  1  0  0  0  0
 53 58  1  0  0  0  0
 54 61  1  1  0  0  0
 54 56  1  0  0  0  0
 56 60  1  0  0  0  0
 56 57  1  1  0  0  0
 58 60  1  0  0  0  0
 59 54  1  0  0  0  0
 59 58  1  0  0  0  0
 60 55  2  0  0  0  0
M  END
>  <MODEL>
4

>  <REMARK>
 VINA RESULT:      -5.7      3.371      6.622
  Name = 
  18 active torsions:
  status: ('A' for Active; 'I' for Inactive)
    1  A    between atoms: C_2  and  N_9
    2  A    between atoms: C_2  and  C_29
    3  A    between atoms: C_3  and  C_30
    4  A    between atoms: C_3  and  C_58
    5  A    between atoms: C_4  and  C_8
    6  A    between atoms: C_4  and  N_44
    7  A    between atoms: N_9  and  C_51
    8  A    between atoms: C_12  and  S_16
    9  A    between atoms: C_12  and  C_26
   10  A    between atoms: O_13  and  C_15
   11  A    between atoms: C_15  and  S_16
   12  A    between atoms: C_15  and  N_35
   13  A    between atoms: C_18  and  C_19
   14  A    between atoms: C_18  and  N_41
   15  A    between atoms: C_23  and  C_37
   16  A    between atoms: C_26  and  N_45
   17  A    between atoms: C_29  and  C_58
   18  A    between atoms: N_35  and  C_40
                            x       y       z     vdW  Elec       q    Type
                         _______ _______ _______ _____ _____    ______ ____

>  <TORSDO>
F 18

$$$$
=
 OpenBabel10222416063D

 61 67  0  0  1  0  0  0  0  0999 V2000
  182.6830  178.0580  136.7560 C   0  0  0  0  0  3  0  0  0  0  0  0
  181.9190  178.5600  137.7480 C   0  0  0  0  0  0  0  0  0  0  0  0
  182.5710  178.9000  139.0140 C   0  0  0  0  0  0  0  0  0  0  0  0
  182.1080  179.4050  140.2280 C   0  0  0  0  0  3  0  0  0  0  0  0
  184.7680  178.1930  138.2550 C   0  0  0  0  0  0  0  0  0  0  0  0
  183.8950  178.7100  139.1890 C   0  0  0  0  0  0  0  0  0  0  0  0
  186.4980  178.4320  139.9920 C   0  0  0  0  0  0  0  0  0  0  0  0
  184.1940  177.8320  136.8900 C   0  0  0  0  0  2  0  0  0  0  0  0
  184.2430  179.0640  140.4200 N   0  0  0  0  0  0  0  0  0  0  0  0
  185.8430  179.3440  142.2020 N   0  0  0  0  0  1  0  0  0  0  0  0
  186.1230  178.0360  138.6620 C   0  0  0  0  0  0  0  0  0  0  0  0
  185.5150  178.9560  140.8690 C   0  0  0  0  0  0  0  0  0  0  0  0
  183.1730  179.4940  141.0760 N   0  0  0  0  0  0  0  0  0  0  0  0
  188.9220  178.0960  139.4170 C   0  0  2  0  0  3  0  0  0  0  0  0
  187.9120  178.3070  140.5050 C   0  0  2  0  0  3  0  0  0  0  0  0
  188.1080  177.1250  141.4000 C   0  0  0  0  0  2  0  0  0  0  0  0
  189.9420  177.1980  139.9480 N   0  0  0  0  0  0  0  0  0  0  0  0
  189.4560  176.6230  141.1520 N   0  0  0  0  0  0  0  0  0  0  0  0
  189.5540  179.4240  139.0350 C   0  0  0  0  0  1  0  0  0  0  0  0
  190.0960  176.1160  138.9820 C   0  0  0  0  0  2  0  0  0  0  0  0
  190.5560  173.1040  136.1630 C   0  0  0  0  0  3  0  0  0  0  0  0
  191.6970  176.4050  137.1030 C   0  0  0  0  0  2  0  0  0  0  0  0
  191.5510  175.9780  138.5560 C   0  0  2  0  0  3  0  0  0  0  0  0
  193.1700  174.3090  137.3430 C   0  0  1  0  0  3  0  0  0  0  0  0
  191.7720  174.9350  137.4570 C   0  0  2  0  0  0  0  0  0  0  0  0
  193.5000  174.1120  135.8810 C   0  0  0  0  0  2  0  0  0  0  0  0
  191.6780  172.4130  135.4960 C   0  0  0  0  0  3  0  0  0  0  0  0
  192.9490  172.8120  135.3870 C   0  0  0  0  0  3  0  0  0  0  0  0
  190.5800  174.1590  136.9870 C   0  0  0  0  0  3  0  0  0  0  0  0
  194.2770  175.1190  138.0010 C   0  0  0  0  0  1  0  0  0  0  0  0
  190.2930  177.1290  142.2340 C   0  0  0  0  0  2  0  0  0  0  0  0
  189.9720  176.3970  143.5250 C   0  0  0  0  0  2  0  0  0  0  0  0
  190.5330  178.8400  144.4630 O   0  0  0  0  0  0  0  0  0  0  0  0
  190.4310  177.4120  144.9110 S   0  0  0  0  0  0  0  0  0  0  0  0
  191.7660  176.9620  145.4320 O   0  0  0  0  0  0  0  0  0  0  0  0
  189.1910  177.2500  146.1950 C   0  0  1  0  0  3  0  0  0  0  0  0
  188.9880  178.2820  148.1580 C   0  0  0  0  0  1  0  0  0  0  0  0
  189.7750  177.3550  147.4700 O   0  0  0  0  0  0  0  0  0  0  0  0
  188.0940  178.2180  146.0340 N   0  0  0  0  0  2  0  0  0  0  0  0
  186.1390  177.5170  144.9650 O   0  0  0  0  0  1  0  0  0  0  0  0
  185.9930  178.3190  147.1370 N   0  0  0  0  0  1  0  0  0  0  0  0
  186.7970  177.5670  146.1910 C   0  0  2  0  0  3  0  0  0  0  0  0
  187.1310  177.4930  137.7910 N   0  0  0  0  0  2  0  0  0  0  0  0
  187.7910  178.2040  136.7110 C   0  0  2  0  0  3  0  0  0  0  0  0
  187.2280  179.4750  136.5710 O   0  0  0  0  0  1  0  0  0  0  0  0
  187.7170  177.3830  135.4230 C   0  0  2  0  0  3  0  0  0  0  0  0
  186.7030  177.8630  134.5970 O   0  0  0  0  0  1  0  0  0  0  0  0
  187.5990  175.8710  135.6310 C   0  0  0  0  0  2  0  0  0  0  0  0
  186.2400  175.3380  135.1990 C   0  0  0  0  0  2  0  0  0  0  0  0
  185.9110  173.9840  135.8350 C   0  0  1  0  0  3  0  0  0  0  0  0
  186.6410  173.7780  137.1550 C   0  0  0  0  0  1  0  0  0  0  0  0
  184.5280  173.8430  136.0190 O   0  0  0  0  0  1  0  0  0  0  0  0
  180.4500  178.7440  137.5660 C   0  0  0  0  0  2  0  0  0  0  0  0
  180.5150  182.3760  136.6550 C   0  0  2  0  0  3  0  0  0  0  0  0
  180.0710  179.4180  134.7120 O   0  0  0  0  0  0  0  0  0  0  0  0
  180.2240  181.7580  135.2830 C   0  0  2  0  0  3  0  0  0  0  0  0
  179.0000  182.1920  134.7950 F   0  0  0  0  0  0  0  0  0  0  0  0
  180.1610  180.0410  136.9770 N   0  0  0  0  0  0  0  0  0  0  0  0
  180.2970  181.2790  137.7110 C   0  0  0  0  0  2  0  0  0  0  0  0
  180.1430  180.3140  135.5920 C   0  0  0  0  0  0  0  0  0  0  0  0
  179.7020  183.4670  136.9080 F   0  0  0  0  0  0  0  0  0  0  0  0
  1  8  1  0  0  0  0
  1  2  2  0  0  0  0
  2  3  1  0  0  0  0
  3  6  2  0  0  0  0
  3  4  1  0  0  0  0
  4 13  2  0  0  0  0
  5 11  2  0  0  0  0
  5  6  1  0  0  0  0
  6  9  1  0  0  0  0
  7 12  2  0  0  0  0
  8  5  1  0  0  0  0
  9 12  1  0  0  0  0
  9 13  1  0  0  0  0
 11  7  1  0  0  0  0
 12 10  1  0  0  0  0
 14 19  1  1  0  0  0
 14 17  1  0  0  0  0
 14 15  1  0  0  0  0
 15  7  1  6  0  0  0
 15 16  1  0  0  0  0
 17 18  1  0  0  0  0
 18 16  1  0  0  0  0
 18 31  1  0  0  0  0
 20 17  1  0  0  0  0
 21 29  2  0  0  0  0
 22 25  1  0  0  0  0
 22 23  1  0  0  0  0
 23 20  1  6  0  0  0
 24 25  1  0  0  0  0
 24 30  1  6  0  0  0
 25 29  1  6  0  0  0
 25 23  1  0  0  0  0
 26 24  1  0  0  0  0
 27 21  1  0  0  0  0
 28 27  2  0  0  0  0
 28 26  1  0  0  0  0
 31 32  1  0  0  0  0
 32 34  1  0  0  0  0
 33 34  2  0  0  0  0
 34 35  2  0  0  0  0
 34 36  1  0  0  0  0
 36 39  1  6  0  0  0
 36 38  1  0  0  0  0
 38 37  1  0  0  0  0
 39 42  1  0  0  0  0
 42 40  1  6  0  0  0
 42 41  1  0  0  0  0
 43 11  1  0  0  0  0
 44 45  1  6  0  0  0
 44 43  1  0  0  0  0
 46 47  1  1  0  0  0
 46 48  1  0  0  0  0
 46 44  1  0  0  0  0
 49 48  1  0  0  0  0
 49 50  1  0  0  0  0
 50 52  1  0  0  0  0
 50 51  1  1  0  0  0
 53  2  1  0  0  0  0
 54 61  1  1  0  0  0
 54 59  1  0  0  0  0
 55 60  2  0  0  0  0
 56 57  1  1  0  0  0
 56 60  1  0  0  0  0
 56 54  1  0  0  0  0
 58 53  1  0  0  0  0
 58 59  1  0  0  0  0
 60 58  1  0  0  0  0
M  END
>  <MODEL>
5

>  <REMARK>
 VINA RESULT:      -5.6      4.531     10.785
  Name = 
  18 active torsions:
  status: ('A' for Active; 'I' for Inactive)
    1  A    between atoms: C_2  and  N_9
    2  A    between atoms: C_2  and  C_29
    3  A    between atoms: C_3  and  C_30
    4  A    between atoms: C_3  and  C_58
    5  A    between atoms: C_4  and  C_8
    6  A    between atoms: C_4  and  N_44
    7  A    between atoms: N_9  and  C_51
    8  A    between atoms: C_12  and  S_16
    9  A    between atoms: C_12  and  C_26
   10  A    between atoms: O_13  and  C_15
   11  A    between atoms: C_15  and  S_16
   12  A    between atoms: C_15  and  N_35
   13  A    between atoms: C_18  and  C_19
   14  A    between atoms: C_18  and  N_41
   15  A    between atoms: C_23  and  C_37
   16  A    between atoms: C_26  and  N_45
   17  A    between atoms: C_29  and  C_58
   18  A    between atoms: N_35  and  C_40
                            x       y       z     vdW  Elec       q    Type
                         _______ _______ _______ _____ _____    ______ ____

>  <TORSDO>
F 18

$$$$
=
 OpenBabel10222416063D

 61 67  0  0  1  0  0  0  0  0999 V2000
  189.0480  177.0730  144.6340 C   0  0  0  0  0  3  0  0  0  0  0  0
  189.9910  177.0580  143.6710 C   0  0  0  0  0  0  0  0  0  0  0  0
  189.5880  177.4020  142.3070 C   0  0  0  0  0  0  0  0  0  0  0  0
  190.2690  177.4690  141.0920 C   0  0  0  0  0  3  0  0  0  0  0  0
  187.2620  177.7510  142.9120 C   0  0  0  0  0  0  0  0  0  0  0  0
  188.3100  177.7170  142.0160 C   0  0  2  0  0  3  0  0  0  0  0  0
  185.8530  178.3450  140.9800 C   0  0  0  0  0  0  0  0  0  0  0  0
  187.5810  177.4350  144.3690 C   0  0  0  0  0  3  0  0  0  0  0  0
  188.1880  177.9620  140.7180 N   0  0  0  0  0  0  0  0  0  0  0  0
  186.9170  178.5320  138.7500 N   0  0  0  0  0  1  0  0  0  0  0  0
  185.9770  178.0680  142.3860 C   0  0  0  0  0  0  0  0  0  0  0  0
  187.0020  178.2830  140.1510 C   0  0  0  0  0  0  0  0  0  0  0  0
  189.3690  177.8200  140.1280 N   0  0  0  0  0  0  0  0  0  0  0  0
  183.7710  177.4970  139.8550 C   0  0  2  0  0  3  0  0  0  0  0  0
  184.5330  178.6950  140.3390 C   0  0  2  0  0  3  0  0  0  0  0  0
  184.6830  179.5350  139.1100 C   0  0  0  0  0  2  0  0  0  0  0  0
  183.0890  177.8910  138.6270 N   0  0  0  0  0  0  0  0  0  0  0  0
  183.6290  179.1280  138.1860 N   0  0  0  0  0  0  0  0  0  0  0  0
  182.7510  177.0790  140.8990 C   0  0  0  0  0  1  0  0  0  0  0  0
  183.4200  176.8900  137.6200 C   0  0  0  0  0  2  0  0  0  0  0  0
  186.1520  173.8290  136.9910 C   0  0  0  0  0  3  0  0  0  0  0  0
  184.5350  176.6510  135.4120 C   0  0  0  0  0  2  0  0  0  0  0  0
  184.5830  177.3590  136.7580 C   0  0  2  0  0  3  0  0  0  0  0  0
  187.0210  176.6720  136.0740 C   0  0  1  0  0  3  0  0  0  0  0  0
  185.5860  176.2500  136.4230 C   0  0  2  0  0  0  0  0  0  0  0  0
  187.5410  175.7710  134.9770 C   0  0  0  0  0  2  0  0  0  0  0  0
  187.4960  173.6880  136.3940 C   0  0  0  0  0  3  0  0  0  0  0  0
  188.1200  174.5180  135.5530 C   0  0  0  0  0  3  0  0  0  0  0  0
  185.3420  174.8940  137.0130 C   0  0  0  0  0  3  0  0  0  0  0  0
  187.1620  178.1230  135.6400 C   0  0  0  0  0  1  0  0  0  0  0  0
  182.5690  180.1230  138.3020 C   0  0  0  0  0  2  0  0  0  0  0  0
  181.3080  179.4760  138.8470 C   0  0  0  0  0  2  0  0  0  0  0  0
  180.5430  180.1280  136.3670 O   0  0  0  0  0  0  0  0  0  0  0  0
  179.9770  179.7070  137.6910 S   0  0  0  0  0  0  0  0  0  0  0  0
  179.0610  180.7820  138.2010 O   0  0  0  0  0  0  0  0  0  0  0  0
  179.0740  178.1680  137.5190 C   0  0  1  0  0  3  0  0  0  0  0  0
  179.3660  177.9570  135.3220 C   0  0  0  0  0  1  0  0  0  0  0  0
  179.6650  177.3470  136.5430 O   0  0  0  0  0  0  0  0  0  0  0  0
  178.9400  177.4550  138.8000 N   0  0  0  0  0  2  0  0  0  0  0  0
  178.9530  175.2470  138.0390 O   0  0  0  0  0  1  0  0  0  0  0  0
  179.8480  175.7080  140.1290 N   0  0  0  0  0  1  0  0  0  0  0  0
  179.6680  176.1900  138.7720 C   0  0  2  0  0  3  0  0  0  0  0  0
  184.7990  178.1210  143.2090 N   0  0  0  0  0  2  0  0  0  0  0  0
  184.1250  179.3300  143.6490 C   0  0  2  0  0  3  0  0  0  0  0  0
  185.0710  180.2820  144.0360 O   0  0  0  0  0  1  0  0  0  0  0  0
  183.1350  178.9980  144.7660 C   0  0  2  0  0  3  0  0  0  0  0  0
  183.7400  178.1970  145.7330 O   0  0  0  0  0  1  0  0  0  0  0  0
  181.8100  178.3950  144.2910 C   0  0  0  0  0  2  0  0  0  0  0  0
  180.7720  179.4660  143.9820 C   0  0  0  0  0  2  0  0  0  0  0  0
  179.5990  178.9270  143.1590 C   0  0  1  0  0  3  0  0  0  0  0  0
  179.5180  179.5750  141.7830 C   0  0  0  0  0  1  0  0  0  0  0  0
  179.6750  177.5320  143.0340 O   0  0  0  0  0  1  0  0  0  0  0  0
  191.4000  176.6820  143.9850 C   0  0  0  0  0  2  0  0  0  0  0  0
  191.0070  177.0670  147.6890 C   0  0  2  0  0  3  0  0  0  0  0  0
  192.3600  174.4530  145.6740 O   0  0  0  0  0  0  0  0  0  0  0  0
  191.7170  175.7090  147.6330 C   0  0  2  0  0  3  0  0  0  0  0  0
  192.9420  175.7630  148.2810 F   0  0  0  0  0  0  0  0  0  0  0  0
  191.6240  176.6710  145.4220 N   0  0  0  0  0  0  0  0  0  0  0  0
  191.1250  177.7070  146.2970 C   0  0  0  0  0  2  0  0  0  0  0  0
  191.9390  175.5240  146.1820 C   0  0  0  0  0  0  0  0  0  0  0  0
  191.5580  177.8910  148.6560 F   0  0  0  0  0  0  0  0  0  0  0  0
  2 53  1  0  0  0  0
  2  1  1  0  0  0  0
  3  2  2  0  0  0  0
  4  3  1  0  0  0  0
  5  8  1  0  0  0  0
  6  3  1  6  0  0  0
  6  5  1  0  0  0  0
  7 11  1  0  0  0  0
  8  1  2  0  0  0  0
  9  6  1  0  0  0  0
 10 12  1  0  0  0  0
 11  5  2  0  0  0  0
 11 43  1  0  0  0  0
 12  9  1  0  0  0  0
 12  7  2  0  0  0  0
 13  9  1  0  0  0  0
 13  4  2  0  0  0  0
 14 15  1  0  0  0  0
 14 19  1  1  0  0  0
 15  7  1  6  0  0  0
 16 15  1  0  0  0  0
 17 14  1  0  0  0  0
 18 31  1  0  0  0  0
 18 17  1  0  0  0  0
 18 16  1  0  0  0  0
 20 17  1  0  0  0  0
 21 29  2  0  0  0  0
 22 23  1  0  0  0  0
 23 20  1  1  0  0  0
 24 30  1  6  0  0  0
 24 25  1  0  0  0  0
 25 22  1  6  0  0  0
 25 23  1  0  0  0  0
 25 29  1  0  0  0  0
 26 28  1  0  0  0  0
 26 24  1  0  0  0  0
 27 21  1  0  0  0  0
 28 27  2  0  0  0  0
 31 32  1  0  0  0  0
 33 34  2  0  0  0  0
 34 35  2  0  0  0  0
 34 32  1  0  0  0  0
 36 38  1  6  0  0  0
 36 34  1  0  0  0  0
 36 39  1  0  0  0  0
 37 38  1  0  0  0  0
 42 40  1  6  0  0  0
 42 39  1  0  0  0  0
 42 41  1  0  0  0  0
 43 44  1  0  0  0  0
 44 45  1  1  0  0  0
 44 46  1  0  0  0  0
 46 47  1  1  0  0  0
 48 46  1  0  0  0  0
 49 48  1  0  0  0  0
 50 51  1  6  0  0  0
 50 49  1  0  0  0  0
 52 50  1  0  0  0  0
 53 58  1  0  0  0  0
 54 61  1  1  0  0  0
 55 60  2  0  0  0  0
 56 54  1  0  0  0  0
 56 57  1  1  0  0  0
 58 60  1  0  0  0  0
 58 59  1  0  0  0  0
 59 54  1  0  0  0  0
 60 56  1  0  0  0  0
M  END
>  <MODEL>
6

>  <REMARK>
 VINA RESULT:      -5.3      3.065      5.313
  Name = 
  18 active torsions:
  status: ('A' for Active; 'I' for Inactive)
    1  A    between atoms: C_2  and  N_9
    2  A    between atoms: C_2  and  C_29
    3  A    between atoms: C_3  and  C_30
    4  A    between atoms: C_3  and  C_58
    5  A    between atoms: C_4  and  C_8
    6  A    between atoms: C_4  and  N_44
    7  A    between atoms: N_9  and  C_51
    8  A    between atoms: C_12  and  S_16
    9  A    between atoms: C_12  and  C_26
   10  A    between atoms: O_13  and  C_15
   11  A    between atoms: C_15  and  S_16
   12  A    between atoms: C_15  and  N_35
   13  A    between atoms: C_18  and  C_19
   14  A    between atoms: C_18  and  N_41
   15  A    between atoms: C_23  and  C_37
   16  A    between atoms: C_26  and  N_45
   17  A    between atoms: C_29  and  C_58
   18  A    between atoms: N_35  and  C_40
                            x       y       z     vdW  Elec       q    Type
                         _______ _______ _______ _____ _____    ______ ____

>  <TORSDO>
F 18

$$$$
=
 OpenBabel10222416063D

 61 67  0  0  1  0  0  0  0  0999 V2000
  185.1060  178.7950  143.2440 C   0  0  0  0  0  3  0  0  0  0  0  0
  186.0400  178.6540  144.2060 C   0  0  0  0  0  0  0  0  0  0  0  0
  187.4180  178.3800  143.7930 C   0  0  0  0  0  0  0  0  0  0  0  0
  188.6040  178.1600  144.4920 C   0  0  0  0  0  3  0  0  0  0  0  0
  186.8750  178.3730  141.4260 C   0  0  0  0  0  0  0  0  0  0  0  0
  187.7450  178.2630  142.4910 C   0  0  0  0  0  0  0  0  0  0  0  0
  188.8260  177.8870  140.0020 C   0  0  0  0  0  0  0  0  0  0  0  0
  185.4180  178.6870  141.7460 C   0  0  0  0  0  2  0  0  0  0  0  0
  189.0370  177.9880  142.3720 N   0  0  0  0  0  0  0  0  0  0  0  0
  191.0200  177.5000  141.0890 N   0  0  0  0  0  1  0  0  0  0  0  0
  187.4230  178.1720  140.1270 C   0  0  0  0  0  0  0  0  0  0  0  0
  189.6280  177.7990  141.1690 C   0  0  0  0  0  0  0  0  0  0  0  0
  189.5880  177.9210  143.5770 N   0  0  0  0  0  0  0  0  0  0  0  0
  188.6320  178.0630  137.5020 C   0  0  2  0  0  3  0  0  0  0  0  0
  189.4910  177.6660  138.6660 C   0  0  2  0  0  3  0  0  0  0  0  0
  189.8040  176.2280  138.3970 C   0  0  0  0  0  2  0  0  0  0  0  0
  188.9040  177.1150  136.4270 N   0  0  0  0  0  0  0  0  0  0  0  0
  189.6230  176.0150  136.9650 N   0  0  0  0  0  0  0  0  0  0  0  0
  188.9920  179.4680  137.0520 C   0  0  0  0  0  1  0  0  0  0  0  0
  187.6130  176.6090  135.9750 C   0  0  0  0  0  2  0  0  0  0  0  0
  183.9630  175.1340  134.6600 C   0  0  0  0  0  3  0  0  0  0  0  0
  187.5300  174.5440  134.5940 C   0  0  0  0  0  2  0  0  0  0  0  0
  187.5880  175.0880  136.0140 C   0  0  2  0  0  3  0  0  0  0  0  0
  185.9080  173.0740  135.9460 C   0  0  1  0  0  3  0  0  0  0  0  0
  186.2940  174.4810  135.4640 C   0  0  2  0  0  0  0  0  0  0  0  0
  185.2980  172.3130  134.7910 C   0  0  0  0  0  2  0  0  0  0  0  0
  183.2880  173.8210  134.6000 C   0  0  0  0  0  3  0  0  0  0  0  0
  183.8350  172.6050  134.6800 C   0  0  0  0  0  3  0  0  0  0  0  0
  185.2180  175.4260  135.0210 C   0  0  0  0  0  3  0  0  0  0  0  0
  187.0620  172.2690  136.5240 C   0  0  0  0  0  1  0  0  0  0  0  0
  190.9550  176.0440  136.3700 C   0  0  0  0  0  2  0  0  0  0  0  0
  191.8310  174.9820  137.0070 C   0  0  0  0  0  2  0  0  0  0  0  0
  193.5570  176.4420  138.4410 O   0  0  0  0  0  0  0  0  0  0  0  0
  193.4840  175.6120  137.1930 S   0  0  0  0  0  0  0  0  0  0  0  0
  193.8210  176.4720  136.0080 O   0  0  0  0  0  0  0  0  0  0  0  0
  194.6300  174.2380  137.2930 C   0  0  1  0  0  3  0  0  0  0  0  0
  194.6770  172.0470  136.8930 C   0  0  0  0  0  1  0  0  0  0  0  0
  194.3420  173.2730  136.3120 O   0  0  0  0  0  0  0  0  0  0  0  0
  196.0330  174.6760  137.2100 N   0  0  0  0  0  2  0  0  0  0  0  0
  195.9190  174.1360  139.4800 O   0  0  0  0  0  1  0  0  0  0  0  0
  197.7940  175.2530  138.6960 N   0  0  0  0  0  1  0  0  0  0  0  0
  196.7800  174.2590  138.3930 C   0  0  2  0  0  3  0  0  0  0  0  0
  186.6220  178.2430  138.9340 N   0  0  0  0  0  2  0  0  0  0  0  0
  185.2280  177.8520  138.8230 C   0  0  2  0  0  3  0  0  0  0  0  0
  185.1160  176.7370  137.9900 O   0  0  0  0  0  1  0  0  0  0  0  0
  184.3910  179.0350  138.3360 C   0  0  2  0  0  3  0  0  0  0  0  0
  184.5450  180.1260  139.1890 O   0  0  0  0  0  1  0  0  0  0  0  0
  182.9120  178.7200  138.0950 C   0  0  0  0  0  2  0  0  0  0  0  0
  181.9930  179.7060  138.8040 C   0  0  0  0  0  2  0  0  0  0  0  0
  180.9720  179.0110  139.7100 C   0  0  1  0  0  3  0  0  0  0  0  0
  181.0250  177.4950  139.5760 C   0  0  0  0  0  1  0  0  0  0  0  0
  181.1560  179.3870  141.0480 O   0  0  0  0  0  1  0  0  0  0  0  0
  185.6750  178.7540  145.6490 C   0  0  0  0  0  2  0  0  0  0  0  0
  188.0090  178.2190  148.5280 C   0  0  2  0  0  3  0  0  0  0  0  0
  186.6640  176.0010  146.0800 O   0  0  0  0  0  0  0  0  0  0  0  0
  187.9730  176.8030  147.9430 C   0  0  2  0  0  3  0  0  0  0  0  0
  189.2340  176.4090  147.5210 F   0  0  0  0  0  0  0  0  0  0  0  0
  186.7740  178.3130  146.4920 N   0  0  0  0  0  0  0  0  0  0  0  0
  187.3830  179.1640  147.4890 C   0  0  0  0  0  2  0  0  0  0  0  0
  187.0920  176.9650  146.7660 C   0  0  0  0  0  0  0  0  0  0  0  0
  189.3010  178.6130  148.8320 F   0  0  0  0  0  0  0  0  0  0  0  0
  1  2  2  0  0  0  0
  2 53  1  0  0  0  0
  3  2  1  0  0  0  0
  3  4  1  0  0  0  0
  5  8  1  0  0  0  0
  5  6  1  0  0  0  0
  6  3  2  0  0  0  0
  7 11  1  0  0  0  0
  7 12  2  0  0  0  0
  8  1  1  0  0  0  0
  9  6  1  0  0  0  0
  9 13  1  0  0  0  0
 10 12  1  0  0  0  0
 11  5  2  0  0  0  0
 12  9  1  0  0  0  0
 13  4  2  0  0  0  0
 14 19  1  6  0  0  0
 14 15  1  0  0  0  0
 15  7  1  1  0  0  0
 16 15  1  0  0  0  0
 17 18  1  0  0  0  0
 17 14  1  0  0  0  0
 18 16  1  0  0  0  0
 20 17  1  0  0  0  0
 21 29  2  0  0  0  0
 22 23  1  0  0  0  0
 23 20  1  6  0  0  0
 24 30  1  6  0  0  0
 25 22  1  6  0  0  0
 25 24  1  0  0  0  0
 25 23  1  0  0  0  0
 26 24  1  0  0  0  0
 27 21  1  0  0  0  0
 27 28  2  0  0  0  0
 28 26  1  0  0  0  0
 29 25  1  0  0  0  0
 31 18  1  0  0  0  0
 31 32  1  0  0  0  0
 32 34  1  0  0  0  0
 34 36  1  0  0  0  0
 34 33  2  0  0  0  0
 35 34  2  0  0  0  0
 36 38  1  6  0  0  0
 38 37  1  0  0  0  0
 39 36  1  0  0  0  0
 39 42  1  0  0  0  0
 42 41  1  1  0  0  0
 42 40  1  0  0  0  0
 43 11  1  0  0  0  0
 44 45  1  6  0  0  0
 44 43  1  0  0  0  0
 46 44  1  0  0  0  0
 46 47  1  1  0  0  0
 48 46  1  0  0  0  0
 48 49  1  0  0  0  0
 49 50  1  0  0  0  0
 50 51  1  1  0  0  0
 50 52  1  0  0  0  0
 53 58  1  0  0  0  0
 54 61  1  6  0  0  0
 55 60  2  0  0  0  0
 56 57  1  6  0  0  0
 56 54  1  0  0  0  0
 58 60  1  0  0  0  0
 58 59  1  0  0  0  0
 59 54  1  0  0  0  0
 60 56  1  0  0  0  0
M  END
>  <MODEL>
7

>  <REMARK>
 VINA RESULT:      -5.1      3.577      7.333
  Name = 
  18 active torsions:
  status: ('A' for Active; 'I' for Inactive)
    1  A    between atoms: C_2  and  N_9
    2  A    between atoms: C_2  and  C_29
    3  A    between atoms: C_3  and  C_30
    4  A    between atoms: C_3  and  C_58
    5  A    between atoms: C_4  and  C_8
    6  A    between atoms: C_4  and  N_44
    7  A    between atoms: N_9  and  C_51
    8  A    between atoms: C_12  and  S_16
    9  A    between atoms: C_12  and  C_26
   10  A    between atoms: O_13  and  C_15
   11  A    between atoms: C_15  and  S_16
   12  A    between atoms: C_15  and  N_35
   13  A    between atoms: C_18  and  C_19
   14  A    between atoms: C_18  and  N_41
   15  A    between atoms: C_23  and  C_37
   16  A    between atoms: C_26  and  N_45
   17  A    between atoms: C_29  and  C_58
   18  A    between atoms: N_35  and  C_40
                            x       y       z     vdW  Elec       q    Type
                         _______ _______ _______ _____ _____    ______ ____

>  <TORSDO>
F 18

$$$$
=
 OpenBabel10222416063D

 61 67  0  0  1  0  0  0  0  0999 V2000
  189.0380  178.3360  142.6580 C   0  0  0  0  0  3  0  0  0  0  0  0
  190.3230  178.0870  142.3340 C   0  0  0  0  0  0  0  0  0  0  0  0
  190.6110  177.6110  140.9800 C   0  0  0  0  0  0  0  0  0  0  0  0
  191.7830  177.2420  140.3200 C   0  0  0  0  0  3  0  0  0  0  0  0
  188.2770  177.6270  140.3060 C   0  0  0  0  0  0  0  0  0  0  0  0
  189.6220  177.4190  140.0830 C   0  0  2  0  0  3  0  0  0  0  0  0
  187.9470  176.8370  137.9960 C   0  0  0  0  0  0  0  0  0  0  0  0
  187.8710  178.1510  141.6790 C   0  0  0  0  0  3  0  0  0  0  0  0
  190.1270  176.9620  138.9440 N   0  0  0  0  0  0  0  0  0  0  0  0
  189.9350  176.1690  136.6760 N   0  0  0  0  0  1  0  0  0  0  0  0
  187.3940  177.3200  139.2320 C   0  0  0  0  0  0  0  0  0  0  0  0
  189.3490  176.6640  137.8780 C   0  0  0  0  0  0  0  0  0  0  0  0
  191.4440  176.8460  139.0590 N   0  0  0  0  0  0  0  0  0  0  0  0
  186.0210  177.5120  136.5280 C   0  0  2  0  0  3  0  0  0  0  0  0
  187.0870  176.4940  136.8050 C   0  0  2  0  0  3  0  0  0  0  0  0
  186.3180  175.2230  136.9840 C   0  0  0  0  0  2  0  0  0  0  0  0
  184.8490  176.7880  136.0510 N   0  0  0  0  0  0  0  0  0  0  0  0
  185.0350  175.4040  136.3130 N   0  0  0  0  0  0  0  0  0  0  0  0
  186.4990  178.4800  135.4590 C   0  0  0  0  0  1  0  0  0  0  0  0
  183.7190  177.2340  136.8570 C   0  0  0  0  0  2  0  0  0  0  0  0
  181.1830  180.2930  138.0560 C   0  0  0  0  0  3  0  0  0  0  0  0
  182.4040  178.4940  135.1660 C   0  0  0  0  0  2  0  0  0  0  0  0
  182.4400  177.2430  136.0320 C   0  0  2  0  0  3  0  0  0  0  0  0
  180.0050  178.2200  136.0570 C   0  0  1  0  0  3  0  0  0  0  0  0
  181.4970  178.4010  136.3750 C   0  0  2  0  0  0  0  0  0  0  0  0
  179.4460  179.5380  135.5720 C   0  0  0  0  0  2  0  0  0  0  0  0
  179.7990  180.7230  137.7680 C   0  0  0  0  0  3  0  0  0  0  0  0
  179.0290  180.3920  136.7270 C   0  0  0  0  0  3  0  0  0  0  0  0
  181.9060  179.3230  137.4840 C   0  0  0  0  0  3  0  0  0  0  0  0
  179.7080  177.1400  135.0290 C   0  0  0  0  0  1  0  0  0  0  0  0
  185.1440  174.7360  135.0210 C   0  0  0  0  0  2  0  0  0  0  0  0
  186.1900  173.6390  135.0900 C   0  0  0  0  0  2  0  0  0  0  0  0
  185.6920  172.1550  137.2610 O   0  0  0  0  0  0  0  0  0  0  0  0
  185.4620  172.1700  135.7790 S   0  0  0  0  0  0  0  0  0  0  0  0
  186.1110  170.9620  135.1660 O   0  0  0  0  0  0  0  0  0  0  0  0
  183.7050  172.1620  135.4240 C   0  0  1  0  0  3  0  0  0  0  0  0
  182.5980  170.2300  135.3940 C   0  0  0  0  0  1  0  0  0  0  0  0
  183.3670  171.0790  134.5940 O   0  0  0  0  0  0  0  0  0  0  0  0
  182.8890  172.1650  136.6490 N   0  0  0  0  0  2  0  0  0  0  0  0
  181.8210  173.7430  135.2980 O   0  0  0  0  0  1  0  0  0  0  0  0
  181.9810  174.1540  137.5760 N   0  0  0  0  0  1  0  0  0  0  0  0
  181.8060  173.1400  136.5530 C   0  0  2  0  0  3  0  0  0  0  0  0
  185.9680  177.4760  139.3390 N   0  0  0  0  0  2  0  0  0  0  0  0
  185.2750  178.6860  139.7440 C   0  0  2  0  0  3  0  0  0  0  0  0
  186.1720  179.5580  140.3640 O   0  0  0  0  0  1  0  0  0  0  0  0
  184.0860  178.3330  140.6380 C   0  0  2  0  0  3  0  0  0  0  0  0
  183.1700  179.3820  140.6690 O   0  0  0  0  0  1  0  0  0  0  0  0
  184.4580  177.8750  142.0510 C   0  0  0  0  0  2  0  0  0  0  0  0
  183.9620  178.8430  143.1160 C   0  0  0  0  0  2  0  0  0  0  0  0
  184.8760  178.8860  144.3440 C   0  0  1  0  0  3  0  0  0  0  0  0
  184.0860  178.9660  145.6430 C   0  0  0  0  0  1  0  0  0  0  0  0
  185.7340  177.7770  144.3660 O   0  0  0  0  0  1  0  0  0  0  0  0
  191.4140  178.2700  143.3330 C   0  0  0  0  0  2  0  0  0  0  0  0
  189.2890  177.6410  146.3520 C   0  0  2  0  0  3  0  0  0  0  0  0
  192.0510  175.8760  144.9460 O   0  0  0  0  0  0  0  0  0  0  0  0
  190.2780  176.4760  146.4700 C   0  0  2  0  0  3  0  0  0  0  0  0
  191.0090  176.5640  147.6460 F   0  0  0  0  0  0  0  0  0  0  0  0
  190.9520  177.9350  144.6700 N   0  0  0  0  0  0  0  0  0  0  0  0
  189.8540  178.6220  145.3110 C   0  0  0  0  0  2  0  0  0  0  0  0
  191.1770  176.7010  145.3170 C   0  0  0  0  0  0  0  0  0  0  0  0
  189.0970  178.2740  147.5680 F   0  0  0  0  0  0  0  0  0  0  0  0
  2  1  1  0  0  0  0
  2 53  1  0  0  0  0
  3  2  2  0  0  0  0
  4  3  1  0  0  0  0
  5  8  1  0  0  0  0
  6  5  1  1  0  0  0
  6  3  1  0  0  0  0
  7 11  1  0  0  0  0
  8  1  2  0  0  0  0
  9 13  1  0  0  0  0
  9  6  1  0  0  0  0
 10 12  1  0  0  0  0
 11 43  1  0  0  0  0
 11  5  2  0  0  0  0
 12  7  2  0  0  0  0
 12  9  1  0  0  0  0
 13  4  2  0  0  0  0
 14 19  1  6  0  0  0
 14 15  1  0  0  0  0
 15 16  1  0  0  0  0
 15  7  1  1  0  0  0
 17 18  1  0  0  0  0
 17 14  1  0  0  0  0
 17 20  1  0  0  0  0
 18 16  1  0  0  0  0
 22 23  1  0  0  0  0
 23 25  1  0  0  0  0
 23 20  1  1  0  0  0
 24 30  1  6  0  0  0
 24 25  1  0  0  0  0
 25 22  1  6  0  0  0
 25 29  1  0  0  0  0
 26 24  1  0  0  0  0
 26 28  1  0  0  0  0
 27 21  1  0  0  0  0
 28 27  2  0  0  0  0
 29 21  2  0  0  0  0
 31 32  1  0  0  0  0
 31 18  1  0  0  0  0
 32 34  1  0  0  0  0
 34 33  2  0  0  0  0
 35 34  2  0  0  0  0
 36 38  1  1  0  0  0
 36 34  1  0  0  0  0
 36 39  1  0  0  0  0
 38 37  1  0  0  0  0
 42 40  1  6  0  0  0
 42 39  1  0  0  0  0
 42 41  1  0  0  0  0
 43 44  1  0  0  0  0
 44 45  1  1  0  0  0
 44 46  1  0  0  0  0
 46 47  1  1  0  0  0
 46 48  1  0  0  0  0
 48 49  1  0  0  0  0
 49 50  1  0  0  0  0
 50 52  1  0  0  0  0
 50 51  1  1  0  0  0
 53 58  1  0  0  0  0
 54 56  1  0  0  0  0
 54 61  1  1  0  0  0
 55 60  2  0  0  0  0
 56 57  1  1  0  0  0
 58 59  1  0  0  0  0
 58 60  1  0  0  0  0
 59 54  1  0  0  0  0
 60 56  1  0  0  0  0
M  END
>  <MODEL>
8

>  <REMARK>
 VINA RESULT:      -4.8      1.519      2.007
  Name = 
  18 active torsions:
  status: ('A' for Active; 'I' for Inactive)
    1  A    between atoms: C_2  and  N_9
    2  A    between atoms: C_2  and  C_29
    3  A    between atoms: C_3  and  C_30
    4  A    between atoms: C_3  and  C_58
    5  A    between atoms: C_4  and  C_8
    6  A    between atoms: C_4  and  N_44
    7  A    between atoms: N_9  and  C_51
    8  A    between atoms: C_12  and  S_16
    9  A    between atoms: C_12  and  C_26
   10  A    between atoms: O_13  and  C_15
   11  A    between atoms: C_15  and  S_16
   12  A    between atoms: C_15  and  N_35
   13  A    between atoms: C_18  and  C_19
   14  A    between atoms: C_18  and  N_41
   15  A    between atoms: C_23  and  C_37
   16  A    between atoms: C_26  and  N_45
   17  A    between atoms: C_29  and  C_58
   18  A    between atoms: N_35  and  C_40
                            x       y       z     vdW  Elec       q    Type
                         _______ _______ _______ _____ _____    ______ ____

>  <TORSDO>
F 18

$$$$
=
 OpenBabel10222416063D

 61 67  0  0  1  0  0  0  0  0999 V2000
  192.1230  177.7740  142.0860 C   0  0  0  0  0  3  0  0  0  0  0  0
  191.2440  178.1030  143.0550 C   0  0  0  0  0  0  0  0  0  0  0  0
  189.8230  178.1480  142.7080 C   0  0  0  0  0  0  0  0  0  0  0  0
  188.6680  178.4620  143.4250 C   0  0  0  0  0  3  0  0  0  0  0  0
  190.2070  177.5460  140.3870 C   0  0  0  0  0  0  0  0  0  0  0  0
  189.4020  177.8780  141.4560 C   0  0  0  0  0  0  0  0  0  0  0  0
  188.1290  177.4730  139.0650 C   0  0  0  0  0  0  0  0  0  0  0  0
  191.7050  177.4420  140.6480 C   0  0  0  0  0  2  0  0  0  0  0  0
  188.0830  178.0110  141.3840 N   0  0  0  0  0  0  0  0  0  0  0  0
  185.9840  177.9770  140.1990 N   0  0  0  0  0  1  0  0  0  0  0  0
  189.5590  177.3400  139.1350 C   0  0  0  0  0  0  0  0  0  0  0  0
  187.4010  177.8170  140.2320 C   0  0  0  0  0  0  0  0  0  0  0  0
  187.6090  178.3650  142.5710 N   0  0  0  0  0  0  0  0  0  0  0  0
  186.1080  178.0900  137.7020 C   0  0  2  0  0  3  0  0  0  0  0  0
  187.3600  177.2680  137.7830 C   0  0  2  0  0  3  0  0  0  0  0  0
  186.8700  175.8650  137.6120 C   0  0  0  0  0  2  0  0  0  0  0  0
  185.1120  177.2860  137.0050 N   0  0  0  0  0  0  0  0  0  0  0  0
  185.5780  175.9460  136.9380 N   0  0  0  0  0  0  0  0  0  0  0  0
  186.3790  179.3650  136.9220 C   0  0  0  0  0  1  0  0  0  0  0  0
  183.9130  177.2860  137.8350 C   0  0  0  0  0  2  0  0  0  0  0  0
  180.5490  177.3920  140.2640 C   0  0  0  0  0  3  0  0  0  0  0  0
  183.0150  179.4660  138.6230 C   0  0  0  0  0  2  0  0  0  0  0  0
  183.0140  178.4620  137.4790 C   0  0  2  0  0  3  0  0  0  0  0  0
  180.5680  179.3400  137.8380 C   0  0  1  0  0  3  0  0  0  0  0  0
  181.7940  178.6020  138.3950 C   0  0  2  0  0  0  0  0  0  0  0  0
  179.9470  180.1600  138.9460 C   0  0  0  0  0  2  0  0  0  0  0  0
  179.2870  178.1570  140.3270 C   0  0  0  0  0  3  0  0  0  0  0  0
  178.9990  179.3280  139.7500 C   0  0  0  0  0  3  0  0  0  0  0  0
  181.6060  177.5650  139.4610 C   0  0  0  0  0  3  0  0  0  0  0  0
  180.8640  180.2440  136.6510 C   0  0  0  0  0  1  0  0  0  0  0  0
  185.8250  175.6500  135.5310 C   0  0  0  0  0  2  0  0  0  0  0  0
  184.5150  175.3400  134.8280 C   0  0  0  0  0  2  0  0  0  0  0  0
  182.9370  173.1910  134.6020 O   0  0  0  0  0  0  0  0  0  0  0  0
  183.7330  173.9530  135.6190 S   0  0  0  0  0  0  0  0  0  0  0  0
  182.8120  174.4520  136.6960 O   0  0  0  0  0  0  0  0  0  0  0  0
  184.9930  172.8980  136.3380 C   0  0  1  0  0  3  0  0  0  0  0  0
  183.6480  171.2310  136.9480 C   0  0  0  0  0  1  0  0  0  0  0  0
  184.4940  172.2180  137.4620 O   0  0  0  0  0  0  0  0  0  0  0  0
  185.5580  171.9570  135.3570 N   0  0  0  0  0  2  0  0  0  0  0  0
  187.5640  171.0210  134.6130 O   0  0  0  0  0  1  0  0  0  0  0  0
  187.5770  172.2750  136.5650 N   0  0  0  0  0  1  0  0  0  0  0  0
  187.0020  172.1300  135.2400 C   0  0  2  0  0  3  0  0  0  0  0  0
  190.2830  177.0050  137.9390 N   0  0  0  0  0  2  0  0  0  0  0  0
  190.5020  175.6630  137.4260 C   0  0  2  0  0  3  0  0  0  0  0  0
  191.1280  174.8840  138.4010 O   0  0  0  0  0  1  0  0  0  0  0  0
  191.2980  175.7250  136.1220 C   0  0  2  0  0  3  0  0  0  0  0  0
  190.5100  175.3140  135.0500 O   0  0  0  0  0  1  0  0  0  0  0  0
  192.6350  174.9810  136.1510 C   0  0  0  0  0  2  0  0  0  0  0  0
  193.8200  175.9270  136.0100 C   0  0  0  0  0  2  0  0  0  0  0  0
  195.1610  175.2310  136.2600 C   0  0  1  0  0  3  0  0  0  0  0  0
  196.2970  175.8800  135.4800 C   0  0  0  0  0  1  0  0  0  0  0  0
  195.4640  175.2080  137.6290 O   0  0  0  0  0  1  0  0  0  0  0  0
  191.7110  178.4310  144.4330 C   0  0  0  0  0  2  0  0  0  0  0  0
  191.6210  175.7720  147.0690 C   0  0  2  0  0  3  0  0  0  0  0  0
  189.5600  178.6170  146.4530 O   0  0  0  0  0  0  0  0  0  0  0  0
  190.3820  176.5840  147.4610 C   0  0  2  0  0  3  0  0  0  0  0  0
  189.2350  175.8080  147.3760 F   0  0  0  0  0  0  0  0  0  0  0  0
  191.2750  177.4190  145.3810 N   0  0  0  0  0  0  0  0  0  0  0  0
  192.0470  176.2310  145.6640 C   0  0  0  0  0  2  0  0  0  0  0  0
  190.3420  177.6320  146.4190 C   0  0  0  0  0  0  0  0  0  0  0  0
  191.3670  174.4110  147.0840 F   0  0  0  0  0  0  0  0  0  0  0  0
  1  2  2  0  0  0  0
  2 53  1  0  0  0  0
  3  2  1  0  0  0  0
  3  4  1  0  0  0  0
  5  8  1  0  0  0  0
  5  6  1  0  0  0  0
  6  3  2  0  0  0  0
  7 11  1  0  0  0  0
  7 12  2  0  0  0  0
  8  1  1  0  0  0  0
  9  6  1  0  0  0  0
  9 13  1  0  0  0  0
 10 12  1  0  0  0  0
 11  5  2  0  0  0  0
 12  9  1  0  0  0  0
 13  4  2  0  0  0  0
 14 19  1  6  0  0  0
 14 15  1  0  0  0  0
 15  7  1  1  0  0  0
 16 15  1  0  0  0  0
 17 14  1  0  0  0  0
 17 20  1  0  0  0  0
 18 17  1  0  0  0  0
 18 16  1  0  0  0  0
 21 27  1  0  0  0  0
 23 20  1  1  0  0  0
 23 25  1  0  0  0  0
 23 22  1  0  0  0  0
 24 30  1  6  0  0  0
 24 25  1  0  0  0  0
 24 26  1  0  0  0  0
 25 22  1  1  0  0  0
 25 29  1  0  0  0  0
 26 28  1  0  0  0  0
 28 27  2  0  0  0  0
 29 21  2  0  0  0  0
 31 18  1  0  0  0  0
 32 31  1  0  0  0  0
 32 34  1  0  0  0  0
 33 34  2  0  0  0  0
 34 36  1  0  0  0  0
 34 35  2  0  0  0  0
 36 39  1  6  0  0  0
 36 38  1  0  0  0  0
 37 38  1  0  0  0  0
 42 40  1  1  0  0  0
 42 39  1  0  0  0  0
 42 41  1  0  0  0  0
 43 11  1  0  0  0  0
 44 43  1  0  0  0  0
 44 45  1  1  0  0  0
 46 47  1  6  0  0  0
 46 48  1  0  0  0  0
 46 44  1  0  0  0  0
 49 48  1  0  0  0  0
 49 50  1  0  0  0  0
 50 51  1  6  0  0  0
 50 52  1  0  0  0  0
 53 58  1  0  0  0  0
 54 61  1  6  0  0  0
 54 56  1  0  0  0  0
 56 57  1  6  0  0  0
 58 59  1  0  0  0  0
 58 60  1  0  0  0  0
 59 54  1  0  0  0  0
 60 55  2  0  0  0  0
 60 56  1  0  0  0  0
M  END
>  <MODEL>
9

>  <REMARK>
 VINA RESULT:      -4.8      2.663      5.383
  Name = 
  18 active torsions:
  status: ('A' for Active; 'I' for Inactive)
    1  A    between atoms: C_2  and  N_9
    2  A    between atoms: C_2  and  C_29
    3  A    between atoms: C_3  and  C_30
    4  A    between atoms: C_3  and  C_58
    5  A    between atoms: C_4  and  C_8
    6  A    between atoms: C_4  and  N_44
    7  A    between atoms: N_9  and  C_51
    8  A    between atoms: C_12  and  S_16
    9  A    between atoms: C_12  and  C_26
   10  A    between atoms: O_13  and  C_15
   11  A    between atoms: C_15  and  S_16
   12  A    between atoms: C_15  and  N_35
   13  A    between atoms: C_18  and  C_19
   14  A    between atoms: C_18  and  N_41
   15  A    between atoms: C_23  and  C_37
   16  A    between atoms: C_26  and  N_45
   17  A    between atoms: C_29  and  C_58
   18  A    between atoms: N_35  and  C_40
                            x       y       z     vdW  Elec       q    Type
                         _______ _______ _______ _____ _____    ______ ____

>  <TORSDO>
F 18

$$$$
