=
 OpenBabel10222415533D

 29 33  0  0  1  0  0  0  0  0999 V2000
  186.3070  179.3320  141.9420 C   0  0  2  0  0  3  0  0  0  0  0  0
  184.5830  178.0000  140.5380 C   0  0  0  0  0  2  0  0  0  0  0  0
  187.3500  178.4040  141.3030 C   0  0  0  0  0  0  0  0  0  0  0  0
  185.9630  178.8750  143.3590 C   0  0  0  0  0  2  0  0  0  0  0  0
  184.6180  178.4390  142.9800 N   0  0  0  0  0  0  0  0  0  0  0  0
  184.8330  179.0080  141.6530 C   0  0  1  0  0  3  0  0  0  0  0  0
  185.1050  178.5950  139.2830 C   0  0  0  0  0  3  0  0  0  0  0  0
  186.3780  178.6780  139.0560 N   0  0  0  0  0  0  0  0  0  0  0  0
  187.4130  178.2020  139.9510 C   0  0  0  0  0  0  0  0  0  0  0  0
  193.2150  175.3680  136.5260 N   0  0  0  0  0  1  0  0  0  0  0  0
  192.1300  175.9310  137.2400 C   0  0  0  0  0  0  0  0  0  0  0  0
  190.0420  176.3290  137.8030 C   0  0  0  0  0  0  0  0  0  0  0  0
  190.8260  175.7140  136.8970 N   0  0  0  0  0  0  0  0  0  0  0  0
  190.6520  177.0150  138.7900 C   0  0  0  0  0  0  0  0  0  0  0  0
  188.5600  177.5120  139.2990 C   0  0  0  0  0  0  0  0  0  0  0  0
  188.3900  176.5250  137.9000 S   0  0  0  0  0  0  0  0  0  0  0  0
  192.3220  176.9050  138.6420 S   0  0  0  0  0  0  0  0  0  0  0  0
  189.8680  177.6990  139.6490 N   0  0  0  0  0  0  0  0  0  0  0  0
  189.3620  175.9100  143.3130 C   0  0  0  0  0  3  0  0  0  0  0  0
  188.3440  176.4690  142.5280 C   0  0  0  0  0  3  0  0  0  0  0  0
  190.4600  178.0720  143.4050 C   0  0  0  0  0  3  0  0  0  0  0  0
  189.4530  178.6250  142.6150 C   0  0  0  0  0  3  0  0  0  0  0  0
  188.3770  177.8310  142.1960 C   0  0  0  0  0  0  0  0  0  0  0  0
  190.4200  176.7220  143.7700 C   0  0  0  0  0  0  0  0  0  0  0  0
  191.6150  176.6070  145.9260 C   0  0  0  0  0  1  0  0  0  0  0  0
  191.4400  176.2050  144.5730 O   0  0  0  0  0  0  0  0  0  0  0  0
  183.5650  179.1740  143.7110 C   0  0  0  0  0  3  0  0  0  0  0  0
  182.1860  178.8530  143.1400 C   0  0  0  0  0  1  0  0  0  0  0  0
  183.5550  178.9500  145.2340 C   0  0  0  0  0  1  0  0  0  0  0  0
  1  4  1  1  0  0  0
  3  1  1  0  0  0  0
  3 23  1  0  0  0  0
  5  4  1  0  0  0  0
  5 27  1  0  0  0  0
  6  2  1  6  0  0  0
  6  1  1  0  0  0  0
  6  5  1  0  0  0  0
  7  2  1  0  0  0  0
  8  7  2  0  0  0  0
  8  9  1  0  0  0  0
  9  3  2  0  0  0  0
 10 11  1  0  0  0  0
 11 17  1  0  0  0  0
 12 16  1  0  0  0  0
 12 14  2  0  0  0  0
 13 11  2  0  0  0  0
 13 12  1  0  0  0  0
 14 18  1  0  0  0  0
 15 18  2  0  0  0  0
 15  9  1  0  0  0  0
 16 15  1  0  0  0  0
 17 14  1  0  0  0  0
 19 24  1  0  0  0  0
 20 19  2  0  0  0  0
 21 24  2  0  0  0  0
 22 21  1  0  0  0  0
 23 20  1  0  0  0  0
 23 22  2  0  0  0  0
 24 26  1  0  0  0  0
 26 25  1  0  0  0  0
 27 29  1  0  0  0  0
 28 27  1  0  0  0  0
M  END
>  <MODEL>
1

>  <REMARK>
 VINA RESULT:      -7.3      0.000      0.000
  Name = 
  4 active torsions:
  status: ('A' for Active; 'I' for Inactive)
    1  A    between atoms: C_7  and  N_19
    2  A    between atoms: C_13  and  C_21
    3  A    between atoms: C_16  and  C_26
    4  A    between atoms: C_28  and  O_29
                            x       y       z     vdW  Elec       q    Type
                         _______ _______ _______ _____ _____    ______ ____

>  <TORSDO>
F 4

$$$$
=
 OpenBabel10222415533D

 29 33  0  0  1  0  0  0  0  0999 V2000
  189.0610  178.1050  139.1920 C   0  0  2  0  0  3  0  0  0  0  0  0
  190.4360  176.0440  138.4320 C   0  0  0  0  0  2  0  0  0  0  0  0
  189.4360  177.6680  140.6140 C   0  0  0  0  0  0  0  0  0  0  0  0
  187.6400  177.6690  138.8410 C   0  0  0  0  0  2  0  0  0  0  0  0
  188.0970  176.6640  137.8800 N   0  0  0  0  0  0  0  0  0  0  0  0
  189.4620  177.1530  138.0540 C   0  0  1  0  0  3  0  0  0  0  0  0
  191.6990  176.6950  138.8580 C   0  0  0  0  0  3  0  0  0  0  0  0
  191.7930  177.3000  139.9990 N   0  0  0  0  0  0  0  0  0  0  0  0
  190.7280  177.3970  140.9770 C   0  0  0  0  0  0  0  0  0  0  0  0
  192.2010  176.2230  148.0390 N   0  0  0  0  0  1  0  0  0  0  0  0
  191.9390  176.3910  146.6580 C   0  0  0  0  0  0  0  0  0  0  0  0
  191.5430  177.4410  144.7670 C   0  0  0  0  0  0  0  0  0  0  0  0
  191.6850  177.6100  146.0960 N   0  0  0  0  0  0  0  0  0  0  0  0
  191.6450  176.1860  144.2840 C   0  0  0  0  0  0  0  0  0  0  0  0
  191.1390  177.2170  142.3960 C   0  0  0  0  0  0  0  0  0  0  0  0
  191.1330  178.4980  143.5450 S   0  0  0  0  0  0  0  0  0  0  0  0
  191.9610  175.0990  145.5260 S   0  0  0  0  0  0  0  0  0  0  0  0
  191.4210  176.0070  142.9660 N   0  0  0  0  0  0  0  0  0  0  0  0
  187.3180  176.7120  143.5990 C   0  0  0  0  0  3  0  0  0  0  0  0
  188.2930  176.6630  142.5930 C   0  0  0  0  0  3  0  0  0  0  0  0
  186.4960  178.8030  142.6820 C   0  0  0  0  0  3  0  0  0  0  0  0
  187.4740  178.7600  141.6890 C   0  0  0  0  0  3  0  0  0  0  0  0
  188.3590  177.6750  141.6260 C   0  0  0  0  0  0  0  0  0  0  0  0
  186.4000  177.7810  143.6340 C   0  0  0  0  0  0  0  0  0  0  0  0
  185.3190  178.9300  145.5310 C   0  0  0  0  0  1  0  0  0  0  0  0
  185.4000  177.8520  144.6070 O   0  0  0  0  0  0  0  0  0  0  0  0
  187.6040  176.9320  136.5130 C   0  0  0  0  0  3  0  0  0  0  0  0
  188.0660  175.8420  135.5490 C   0  0  0  0  0  1  0  0  0  0  0  0
  186.0800  177.1090  136.3960 C   0  0  0  0  0  1  0  0  0  0  0  0
  1  4  1  1  0  0  0
  1  3  1  0  0  0  0
  2  7  1  0  0  0  0
  3  9  2  0  0  0  0
  3 23  1  0  0  0  0
  5  6  1  0  0  0  0
  5  4  1  0  0  0  0
  6  2  1  1  0  0  0
  6  1  1  0  0  0  0
  7  8  2  0  0  0  0
  8  9  1  0  0  0  0
  9 15  1  0  0  0  0
 11 10  1  0  0  0  0
 12 13  1  0  0  0  0
 13 11  2  0  0  0  0
 14 12  2  0  0  0  0
 14 17  1  0  0  0  0
 15 18  2  0  0  0  0
 15 16  1  0  0  0  0
 16 12  1  0  0  0  0
 17 11  1  0  0  0  0
 18 14  1  0  0  0  0
 19 24  1  0  0  0  0
 20 19  2  0  0  0  0
 21 24  2  0  0  0  0
 22 21  1  0  0  0  0
 23 22  2  0  0  0  0
 23 20  1  0  0  0  0
 24 26  1  0  0  0  0
 26 25  1  0  0  0  0
 27  5  1  0  0  0  0
 28 27  1  0  0  0  0
 29 27  1  0  0  0  0
M  END
>  <MODEL>
2

>  <REMARK>
 VINA RESULT:      -7.2      3.345      6.362
  Name = 
  4 active torsions:
  status: ('A' for Active; 'I' for Inactive)
    1  A    between atoms: C_7  and  N_19
    2  A    between atoms: C_13  and  C_21
    3  A    between atoms: C_16  and  C_26
    4  A    between atoms: C_28  and  O_29
                            x       y       z     vdW  Elec       q    Type
                         _______ _______ _______ _____ _____    ______ ____

>  <TORSDO>
F 4

$$$$
=
 OpenBabel10222415533D

 29 33  0  0  1  0  0  0  0  0999 V2000
  186.5130  177.0550  144.3660 C   0  0  2  0  0  3  0  0  0  0  0  0
  185.7160  179.0710  145.7860 C   0  0  0  0  0  2  0  0  0  0  0  0
  187.8770  177.2940  145.0280 C   0  0  0  0  0  0  0  0  0  0  0  0
  186.4770  177.6430  142.9560 C   0  0  0  0  0  2  0  0  0  0  0  0
  185.5510  178.7110  143.3360 N   0  0  0  0  0  0  0  0  0  0  0  0
  185.4200  178.0950  144.6540 C   0  0  1  0  0  3  0  0  0  0  0  0
  185.8340  178.2740  147.0320 C   0  0  0  0  0  3  0  0  0  0  0  0
  186.8730  177.5380  147.2640 N   0  0  0  0  0  0  0  0  0  0  0  0
  188.0180  177.4160  146.3840 C   0  0  0  0  0  0  0  0  0  0  0  0
  194.3520  176.8230  149.9820 N   0  0  0  0  0  1  0  0  0  0  0  0
  193.1480  176.8950  149.2400 C   0  0  0  0  0  0  0  0  0  0  0  0
  191.2320  177.7090  148.5310 C   0  0  0  0  0  0  0  0  0  0  0  0
  192.2230  177.8830  149.4260 N   0  0  0  0  0  0  0  0  0  0  0  0
  191.3240  176.6520  147.6980 C   0  0  0  0  0  0  0  0  0  0  0  0
  189.3470  177.3980  147.0540 C   0  0  0  0  0  0  0  0  0  0  0  0
  189.7850  178.5020  148.2990 S   0  0  0  0  0  0  0  0  0  0  0  0
  192.7350  175.7880  147.9930 S   0  0  0  0  0  0  0  0  0  0  0  0
  190.2920  176.4310  146.8580 N   0  0  0  0  0  0  0  0  0  0  0  0
  190.4330  176.1090  142.5030 C   0  0  0  0  0  3  0  0  0  0  0  0
  189.3500  176.1140  143.3930 C   0  0  0  0  0  3  0  0  0  0  0  0
  190.9250  178.4070  143.1100 C   0  0  0  0  0  3  0  0  0  0  0  0
  189.8410  178.4150  143.9870 C   0  0  0  0  0  3  0  0  0  0  0  0
  189.0650  177.2590  144.1500 C   0  0  0  0  0  0  0  0  0  0  0  0
  191.2380  177.2590  142.3730 C   0  0  0  0  0  0  0  0  0  0  0  0
  192.2010  177.4930  140.1130 C   0  0  0  0  0  1  0  0  0  0  0  0
  192.3390  177.2830  141.5140 O   0  0  0  0  0  0  0  0  0  0  0  0
  184.2800  178.6420  142.5860 C   0  0  0  0  0  3  0  0  0  0  0  0
  183.1830  179.4190  143.3100 C   0  0  0  0  0  1  0  0  0  0  0  0
  184.3630  179.1130  141.1230 C   0  0  0  0  0  1  0  0  0  0  0  0
  1  4  1  6  0  0  0
  1  6  1  0  0  0  0
  1  3  1  0  0  0  0
  2  7  1  0  0  0  0
  3  9  2  0  0  0  0
  4  5  1  0  0  0  0
  5  6  1  0  0  0  0
  6  2  1  1  0  0  0
  7  8  2  0  0  0  0
  9 15  1  0  0  0  0
  9  8  1  0  0  0  0
 11 13  2  0  0  0  0
 11 10  1  0  0  0  0
 12 13  1  0  0  0  0
 14 17  1  0  0  0  0
 14 12  2  0  0  0  0
 15 16  1  0  0  0  0
 16 12  1  0  0  0  0
 17 11  1  0  0  0  0
 18 15  2  0  0  0  0
 18 14  1  0  0  0  0
 19 20  1  0  0  0  0
 20 23  2  0  0  0  0
 21 22  2  0  0  0  0
 22 23  1  0  0  0  0
 23  3  1  0  0  0  0
 24 19  2  0  0  0  0
 24 21  1  0  0  0  0
 25 26  1  0  0  0  0
 26 24  1  0  0  0  0
 27 28  1  0  0  0  0
 27  5  1  0  0  0  0
 29 27  1  0  0  0  0
M  END
>  <MODEL>
3

>  <REMARK>
 VINA RESULT:      -7.2      4.532      6.778
  Name = 
  4 active torsions:
  status: ('A' for Active; 'I' for Inactive)
    1  A    between atoms: C_7  and  N_19
    2  A    between atoms: C_13  and  C_21
    3  A    between atoms: C_16  and  C_26
    4  A    between atoms: C_28  and  O_29
                            x       y       z     vdW  Elec       q    Type
                         _______ _______ _______ _____ _____    ______ ____

>  <TORSDO>
F 4

$$$$
=
 OpenBabel10222415533D

 29 33  0  0  1  0  0  0  0  0999 V2000
  188.7030  176.6520  144.9920 C   0  0  2  0  0  3  0  0  0  0  0  0
  191.1190  177.4690  145.4530 C   0  0  0  0  0  2  0  0  0  0  0  0
  189.0000  177.0090  143.5290 C   0  0  0  0  0  0  0  0  0  0  0  0
  187.8770  177.7480  145.6660 C   0  0  0  0  0  2  0  0  0  0  0  0
  188.9900  178.1780  146.5140 N   0  0  0  0  0  0  0  0  0  0  0  0
  189.7710  177.0460  146.0240 C   0  0  1  0  0  3  0  0  0  0  0  0
  191.6810  176.2960  144.7390 C   0  0  0  0  0  3  0  0  0  0  0  0
  191.2060  175.9140  143.5960 N   0  0  0  0  0  0  0  0  0  0  0  0
  190.1240  176.5670  142.8850 C   0  0  0  0  0  0  0  0  0  0  0  0
  191.0890  176.5660  135.6400 N   0  0  0  0  0  1  0  0  0  0  0  0
  190.8390  176.5520  137.0340 C   0  0  0  0  0  0  0  0  0  0  0  0
  191.1550  176.9690  139.1700 C   0  0  0  0  0  0  0  0  0  0  0  0
  191.7080  177.0790  137.9470 N   0  0  0  0  0  0  0  0  0  0  0  0
  189.9460  176.3780  139.2550 C   0  0  0  0  0  0  0  0  0  0  0  0
  190.3040  176.6920  141.4130 C   0  0  0  0  0  0  0  0  0  0  0  0
  191.7320  177.3260  140.6920 S   0  0  0  0  0  0  0  0  0  0  0  0
  189.4000  175.9250  137.7320 S   0  0  0  0  0  0  0  0  0  0  0  0
  189.4300  176.1940  140.4880 N   0  0  0  0  0  0  0  0  0  0  0  0
  187.3080  179.2390  140.9840 C   0  0  0  0  0  3  0  0  0  0  0  0
  188.3060  178.5990  141.7340 C   0  0  0  0  0  3  0  0  0  0  0  0
  185.6120  178.1480  142.3340 C   0  0  0  0  0  3  0  0  0  0  0  0
  186.6040  177.5030  143.0710 C   0  0  0  0  0  3  0  0  0  0  0  0
  187.9550  177.7470  142.7910 C   0  0  0  0  0  0  0  0  0  0  0  0
  185.9510  179.0260  141.2980 C   0  0  0  0  0  0  0  0  0  0  0  0
  184.3670  179.1050  139.4070 C   0  0  0  0  0  1  0  0  0  0  0  0
  184.9300  179.6640  140.5880 O   0  0  0  0  0  0  0  0  0  0  0  0
  188.6850  178.0340  147.9530 C   0  0  0  0  0  3  0  0  0  0  0  0
  189.8050  178.6280  148.8040 C   0  0  0  0  0  1  0  0  0  0  0  0
  187.3360  178.6280  148.3930 C   0  0  0  0  0  1  0  0  0  0  0  0
  1  4  1  1  0  0  0
  1  6  1  0  0  0  0
  3  1  1  0  0  0  0
  4  5  1  0  0  0  0
  5 27  1  0  0  0  0
  6  2  1  6  0  0  0
  6  5  1  0  0  0  0
  7  2  1  0  0  0  0
  8  7  2  0  0  0  0
  9  3  2  0  0  0  0
  9  8  1  0  0  0  0
 10 11  1  0  0  0  0
 11 17  1  0  0  0  0
 11 13  2  0  0  0  0
 12 14  2  0  0  0  0
 12 16  1  0  0  0  0
 13 12  1  0  0  0  0
 14 18  1  0  0  0  0
 15  9  1  0  0  0  0
 16 15  1  0  0  0  0
 17 14  1  0  0  0  0
 18 15  2  0  0  0  0
 19 24  2  0  0  0  0
 19 20  1  0  0  0  0
 20 23  2  0  0  0  0
 21 22  2  0  0  0  0
 23 22  1  0  0  0  0
 23  3  1  0  0  0  0
 24 21  1  0  0  0  0
 25 26  1  0  0  0  0
 26 24  1  0  0  0  0
 27 29  1  0  0  0  0
 27 28  1  0  0  0  0
M  END
>  <MODEL>
4

>  <REMARK>
 VINA RESULT:      -6.1      2.822      5.314
  Name = 
  4 active torsions:
  status: ('A' for Active; 'I' for Inactive)
    1  A    between atoms: C_7  and  N_19
    2  A    between atoms: C_13  and  C_21
    3  A    between atoms: C_16  and  C_26
    4  A    between atoms: C_28  and  O_29
                            x       y       z     vdW  Elec       q    Type
                         _______ _______ _______ _____ _____    ______ ____

>  <TORSDO>
F 4

$$$$
=
 OpenBabel10222415533D

 29 33  0  0  1  0  0  0  0  0999 V2000
  189.4360  178.3170  145.6750 C   0  0  2  0  0  3  0  0  0  0  0  0
  188.2870  176.7230  147.3650 C   0  0  0  0  0  2  0  0  0  0  0  0
  188.1890  178.0880  144.8100 C   0  0  0  0  0  0  0  0  0  0  0  0
  190.6040  177.4570  145.1920 C   0  0  0  0  0  2  0  0  0  0  0  0
  190.5550  176.5860  146.3670 N   0  0  0  0  0  0  0  0  0  0  0  0
  189.5490  177.4690  146.9510 C   0  0  1  0  0  3  0  0  0  0  0  0
  187.2530  177.7450  147.6660 C   0  0  0  0  0  3  0  0  0  0  0  0
  186.6680  178.4090  146.7210 N   0  0  0  0  0  0  0  0  0  0  0  0
  186.9220  178.2350  145.3040 C   0  0  0  0  0  0  0  0  0  0  0  0
  181.2830  178.8370  140.6920 N   0  0  0  0  0  1  0  0  0  0  0  0
  182.4060  178.6820  141.5420 C   0  0  0  0  0  0  0  0  0  0  0  0
  183.5690  178.6740  143.4080 C   0  0  0  0  0  0  0  0  0  0  0  0
  182.3750  178.9930  142.8720 N   0  0  0  0  0  0  0  0  0  0  0  0
  184.5080  178.1700  142.5810 C   0  0  0  0  0  0  0  0  0  0  0  0
  185.7190  178.2610  144.4270 C   0  0  0  0  0  0  0  0  0  0  0  0
  184.2000  178.8890  144.9350 S   0  0  0  0  0  0  0  0  0  0  0  0
  183.9110  178.0420  141.0160 S   0  0  0  0  0  0  0  0  0  0  0  0
  185.7290  177.9280  143.1020 N   0  0  0  0  0  0  0  0  0  0  0  0
  188.6790  178.6450  141.1000 C   0  0  0  0  0  3  0  0  0  0  0  0
  188.3950  178.8840  142.4520 C   0  0  0  0  0  3  0  0  0  0  0  0
  189.0150  176.2940  141.5990 C   0  0  0  0  0  3  0  0  0  0  0  0
  188.7440  176.5340  142.9450 C   0  0  0  0  0  3  0  0  0  0  0  0
  188.4070  177.8260  143.3720 C   0  0  0  0  0  0  0  0  0  0  0  0
  188.9740  177.3370  140.6660 C   0  0  0  0  0  0  0  0  0  0  0  0
  189.1910  178.0620  138.3180 C   0  0  0  0  0  1  0  0  0  0  0  0
  189.2390  177.0570  139.3230 O   0  0  0  0  0  0  0  0  0  0  0  0
  191.8120  176.6220  147.1430 C   0  0  0  0  0  3  0  0  0  0  0  0
  191.5940  177.2970  148.4950 C   0  0  0  0  0  1  0  0  0  0  0  0
  192.4830  175.2530  147.3550 C   0  0  0  0  0  1  0  0  0  0  0  0
  1  4  1  6  0  0  0
  1  6  1  0  0  0  0
  2  7  1  0  0  0  0
  3  9  2  0  0  0  0
  3  1  1  0  0  0  0
  4  5  1  0  0  0  0
  5  6  1  0  0  0  0
  5 27  1  0  0  0  0
  6  2  1  6  0  0  0
  8  7  2  0  0  0  0
  9  8  1  0  0  0  0
 10 11  1  0  0  0  0
 11 13  2  0  0  0  0
 12 16  1  0  0  0  0
 13 12  1  0  0  0  0
 14 18  1  0  0  0  0
 14 12  2  0  0  0  0
 15 16  1  0  0  0  0
 15  9  1  0  0  0  0
 17 11  1  0  0  0  0
 17 14  1  0  0  0  0
 18 15  2  0  0  0  0
 19 20  1  0  0  0  0
 20 23  2  0  0  0  0
 21 22  2  0  0  0  0
 22 23  1  0  0  0  0
 23  3  1  0  0  0  0
 24 19  2  0  0  0  0
 24 21  1  0  0  0  0
 25 26  1  0  0  0  0
 26 24  1  0  0  0  0
 27 29  1  0  0  0  0
 27 28  1  0  0  0  0
M  END
>  <MODEL>
5

>  <REMARK>
 VINA RESULT:      -6.1      3.873      7.424
  Name = 
  4 active torsions:
  status: ('A' for Active; 'I' for Inactive)
    1  A    between atoms: C_7  and  N_19
    2  A    between atoms: C_13  and  C_21
    3  A    between atoms: C_16  and  C_26
    4  A    between atoms: C_28  and  O_29
                            x       y       z     vdW  Elec       q    Type
                         _______ _______ _______ _____ _____    ______ ____

>  <TORSDO>
F 4

$$$$
=
 OpenBabel10222415533D

 29 33  0  0  1  0  0  0  0  0999 V2000
  188.9020  178.5440  141.7550 C   0  0  2  0  0  3  0  0  0  0  0  0
  187.4290  177.0190  143.2460 C   0  0  0  0  0  2  0  0  0  0  0  0
  187.7860  178.3840  140.7140 C   0  0  0  0  0  0  0  0  0  0  0  0
  190.0780  177.6200  141.4430 C   0  0  0  0  0  2  0  0  0  0  0  0
  189.8080  176.7530  142.5920 N   0  0  0  0  0  0  0  0  0  0  0  0
  188.7790  177.6920  143.0280 C   0  0  1  0  0  3  0  0  0  0  0  0
  186.4210  178.0970  143.3990 C   0  0  0  0  0  3  0  0  0  0  0  0
  186.0200  178.7920  142.3820 N   0  0  0  0  0  0  0  0  0  0  0  0
  186.4690  178.6030  141.0180 C   0  0  0  0  0  0  0  0  0  0  0  0
  180.8630  178.9690  136.3420 N   0  0  0  0  0  1  0  0  0  0  0  0
  181.9410  178.9610  137.2600 C   0  0  0  0  0  0  0  0  0  0  0  0
  183.7840  178.2710  138.2410 C   0  0  0  0  0  0  0  0  0  0  0  0
  182.8580  177.9510  137.3160 N   0  0  0  0  0  0  0  0  0  0  0  0
  183.6240  179.4330  138.9060 C   0  0  0  0  0  0  0  0  0  0  0  0
  185.4130  178.6960  139.9730 C   0  0  0  0  0  0  0  0  0  0  0  0
  185.0910  177.4340  138.8480 S   0  0  0  0  0  0  0  0  0  0  0  0
  182.2500  180.2370  138.3680 S   0  0  0  0  0  0  0  0  0  0  0  0
  184.5050  179.7140  139.8890 N   0  0  0  0  0  0  0  0  0  0  0  0
  189.0870  178.8850  137.1970 C   0  0  0  0  0  3  0  0  0  0  0  0
  188.6220  179.1560  138.4920 C   0  0  0  0  0  3  0  0  0  0  0  0
  188.7290  176.5150  137.5800 C   0  0  0  0  0  3  0  0  0  0  0  0
  188.2780  176.7850  138.8710 C   0  0  0  0  0  3  0  0  0  0  0  0
  188.1980  178.1090  139.3220 C   0  0  0  0  0  0  0  0  0  0  0  0
  189.1240  177.5550  136.7300 C   0  0  0  0  0  0  0  0  0  0  0  0
  190.5770  176.2860  135.1920 C   0  0  0  0  0  1  0  0  0  0  0  0
  189.5590  177.2490  135.4390 O   0  0  0  0  0  0  0  0  0  0  0  0
  190.9380  176.7190  143.5440 C   0  0  0  0  0  3  0  0  0  0  0  0
  190.4940  177.1980  144.9250 C   0  0  0  0  0  1  0  0  0  0  0  0
  191.6360  175.3540  143.6740 C   0  0  0  0  0  1  0  0  0  0  0  0
  1  4  1  6  0  0  0
  1  6  1  0  0  0  0
  2  7  1  0  0  0  0
  3  9  2  0  0  0  0
  3  1  1  0  0  0  0
  4  5  1  0  0  0  0
  5  6  1  0  0  0  0
  5 27  1  0  0  0  0
  6  2  1  6  0  0  0
  8  7  2  0  0  0  0
  9  8  1  0  0  0  0
 10 11  1  0  0  0  0
 11 13  2  0  0  0  0
 11 17  1  0  0  0  0
 12 16  1  0  0  0  0
 12 14  2  0  0  0  0
 13 12  1  0  0  0  0
 14 18  1  0  0  0  0
 15  9  1  0  0  0  0
 16 15  1  0  0  0  0
 17 14  1  0  0  0  0
 18 15  2  0  0  0  0
 19 20  1  0  0  0  0
 20 23  2  0  0  0  0
 21 22  2  0  0  0  0
 22 23  1  0  0  0  0
 23  3  1  0  0  0  0
 24 19  2  0  0  0  0
 24 21  1  0  0  0  0
 25 26  1  0  0  0  0
 26 24  1  0  0  0  0
 27 29  1  0  0  0  0
 27 28  1  0  0  0  0
M  END
>  <MODEL>
6

>  <REMARK>
 VINA RESULT:      -5.6      3.377      6.829
  Name = 
  4 active torsions:
  status: ('A' for Active; 'I' for Inactive)
    1  A    between atoms: C_7  and  N_19
    2  A    between atoms: C_13  and  C_21
    3  A    between atoms: C_16  and  C_26
    4  A    between atoms: C_28  and  O_29
                            x       y       z     vdW  Elec       q    Type
                         _______ _______ _______ _____ _____    ______ ____

>  <TORSDO>
F 4

$$$$
=
 OpenBabel10222415533D

 29 33  0  0  1  0  0  0  0  0999 V2000
  183.9150  179.6450  143.2260 C   0  0  2  0  0  3  0  0  0  0  0  0
  183.0150  178.2240  141.2540 C   0  0  0  0  0  2  0  0  0  0  0  0
  185.2490  178.9330  142.9610 C   0  0  0  0  0  0  0  0  0  0  0  0
  183.1850  179.0170  144.4120 C   0  0  0  0  0  2  0  0  0  0  0  0
  182.1400  178.4370  143.5670 N   0  0  0  0  0  0  0  0  0  0  0  0
  182.7020  179.1500  142.4230 C   0  0  1  0  0  3  0  0  0  0  0  0
  183.8330  178.9990  140.2880 C   0  0  0  0  0  3  0  0  0  0  0  0
  185.0750  179.2760  140.5280 N   0  0  0  0  0  0  0  0  0  0  0  0
  185.8040  178.8660  141.7110 C   0  0  0  0  0  0  0  0  0  0  0  0
  192.8380  177.1830  140.6610 N   0  0  0  0  0  1  0  0  0  0  0  0
  191.4850  177.5030  140.9280 C   0  0  0  0  0  0  0  0  0  0  0  0
  189.3360  177.7700  140.5480 C   0  0  0  0  0  0  0  0  0  0  0  0
  190.5160  177.4860  139.9650 N   0  0  0  0  0  0  0  0  0  0  0  0
  189.3410  178.0240  141.8730 C   0  0  0  0  0  0  0  0  0  0  0  0
  187.1990  178.4030  141.4800 C   0  0  0  0  0  0  0  0  0  0  0  0
  187.8080  177.9970  139.9230 S   0  0  0  0  0  0  0  0  0  0  0  0
  190.8960  177.8950  142.4940 S   0  0  0  0  0  0  0  0  0  0  0  0
  188.1720  178.3900  142.4400 N   0  0  0  0  0  0  0  0  0  0  0  0
  186.6600  178.6600  146.4600 C   0  0  0  0  0  3  0  0  0  0  0  0
  186.0260  179.1760  145.3210 C   0  0  0  0  0  3  0  0  0  0  0  0
  187.1870  176.6340  145.2330 C   0  0  0  0  0  3  0  0  0  0  0  0
  186.5460  177.1420  144.1040 C   0  0  0  0  0  3  0  0  0  0  0  0
  185.9860  178.4260  144.1370 C   0  0  0  0  0  0  0  0  0  0  0  0
  187.2610  177.3860  146.4110 C   0  0  0  0  0  0  0  0  0  0  0  0
  189.3250  176.9920  147.7050 C   0  0  0  0  0  1  0  0  0  0  0  0
  187.9220  176.8500  147.5190 O   0  0  0  0  0  0  0  0  0  0  0  0
  180.7970  178.9500  143.9070 C   0  0  0  0  0  3  0  0  0  0  0  0
  180.2410  179.8050  142.7710 C   0  0  0  0  0  1  0  0  0  0  0  0
  179.7670  177.8710  144.2880 C   0  0  0  0  0  1  0  0  0  0  0  0
  1  4  1  1  0  0  0
  3  1  1  0  0  0  0
  3 23  1  0  0  0  0
  5 27  1  0  0  0  0
  5  4  1  0  0  0  0
  6  2  1  6  0  0  0
  6  1  1  0  0  0  0
  6  5  1  0  0  0  0
  7  8  2  0  0  0  0
  7  2  1  0  0  0  0
  8  9  1  0  0  0  0
  9  3  2  0  0  0  0
 10 11  1  0  0  0  0
 11 17  1  0  0  0  0
 12 14  2  0  0  0  0
 13 12  1  0  0  0  0
 13 11  2  0  0  0  0
 14 18  1  0  0  0  0
 14 17  1  0  0  0  0
 15  9  1  0  0  0  0
 15 18  2  0  0  0  0
 16 12  1  0  0  0  0
 16 15  1  0  0  0  0
 20 19  2  0  0  0  0
 21 24  2  0  0  0  0
 22 23  2  0  0  0  0
 22 21  1  0  0  0  0
 23 20  1  0  0  0  0
 24 19  1  0  0  0  0
 24 26  1  0  0  0  0
 26 25  1  0  0  0  0
 27 29  1  0  0  0  0
 28 27  1  0  0  0  0
M  END
>  <MODEL>
7

>  <REMARK>
 VINA RESULT:      -5.6      2.399      3.359
  Name = 
  4 active torsions:
  status: ('A' for Active; 'I' for Inactive)
    1  A    between atoms: C_7  and  N_19
    2  A    between atoms: C_13  and  C_21
    3  A    between atoms: C_16  and  C_26
    4  A    between atoms: C_28  and  O_29
                            x       y       z     vdW  Elec       q    Type
                         _______ _______ _______ _____ _____    ______ ____

>  <TORSDO>
F 4

$$$$
=
 OpenBabel10222415533D

 29 33  0  0  1  0  0  0  0  0999 V2000
  192.8140  174.5010  135.8050 C   0  0  2  0  0  3  0  0  0  0  0  0
  194.1230  173.9450  137.9700 C   0  0  0  0  0  2  0  0  0  0  0  0
  191.7380  175.0510  136.7510 C   0  0  0  0  0  0  0  0  0  0  0  0
  192.4440  173.1050  135.3060 C   0  0  0  0  0  2  0  0  0  0  0  0
  193.5000  172.4580  136.0840 N   0  0  0  0  0  0  0  0  0  0  0  0
  193.9990  173.7770  136.4610 C   0  0  1  0  0  3  0  0  0  0  0  0
  194.3540  175.3870  138.2340 C   0  0  0  0  0  3  0  0  0  0  0  0
  193.3980  176.2530  138.1180 N   0  0  0  0  0  0  0  0  0  0  0  0
  192.0310  175.9370  137.7520 C   0  0  0  0  0  0  0  0  0  0  0  0
  186.5420  178.9690  141.5060 N   0  0  0  0  0  1  0  0  0  0  0  0
  187.6320  178.3630  140.8350 C   0  0  0  0  0  0  0  0  0  0  0  0
  189.0500  177.9420  139.2080 C   0  0  0  0  0  0  0  0  0  0  0  0
  187.9280  178.6160  139.5260 N   0  0  0  0  0  0  0  0  0  0  0  0
  189.6110  177.1800  140.1690 C   0  0  0  0  0  0  0  0  0  0  0  0
  190.9770  176.6640  138.5100 C   0  0  0  0  0  0  0  0  0  0  0  0
  189.8690  177.7530  137.7700 S   0  0  0  0  0  0  0  0  0  0  0  0
  188.7330  177.2880  141.5980 S   0  0  0  0  0  0  0  0  0  0  0  0
  190.6870  176.4410  139.8270 N   0  0  0  0  0  0  0  0  0  0  0  0
  188.3720  174.8410  135.0370 C   0  0  0  0  0  3  0  0  0  0  0  0
  189.6750  175.2460  135.3570 C   0  0  0  0  0  3  0  0  0  0  0  0
  188.4070  173.2950  136.9070 C   0  0  0  0  0  3  0  0  0  0  0  0
  189.7070  173.6900  137.2190 C   0  0  0  0  0  3  0  0  0  0  0  0
  190.3360  174.6860  136.4600 C   0  0  0  0  0  0  0  0  0  0  0  0
  187.7250  173.8700  135.8290 C   0  0  0  0  0  0  0  0  0  0  0  0
  185.6180  172.7880  136.5190 C   0  0  0  0  0  1  0  0  0  0  0  0
  186.4190  173.4590  135.5540 O   0  0  0  0  0  0  0  0  0  0  0  0
  194.4700  171.7450  135.2270 C   0  0  0  0  0  3  0  0  0  0  0  0
  195.7590  171.4570  135.9930 C   0  0  0  0  0  1  0  0  0  0  0  0
  193.9460  170.4430  134.5960 C   0  0  0  0  0  1  0  0  0  0  0  0
  1  4  1  6  0  0  0
  1  6  1  0  0  0  0
  1  3  1  0  0  0  0
  2  7  1  0  0  0  0
  3  9  2  0  0  0  0
  4  5  1  0  0  0  0
  5  6  1  0  0  0  0
  6  2  1  1  0  0  0
  8  7  2  0  0  0  0
  9  8  1  0  0  0  0
  9 15  1  0  0  0  0
 11 10  1  0  0  0  0
 11 17  1  0  0  0  0
 12 13  1  0  0  0  0
 12 14  2  0  0  0  0
 13 11  2  0  0  0  0
 14 17  1  0  0  0  0
 15 18  2  0  0  0  0
 16 15  1  0  0  0  0
 16 12  1  0  0  0  0
 18 14  1  0  0  0  0
 19 20  2  0  0  0  0
 19 24  1  0  0  0  0
 20 23  1  0  0  0  0
 21 22  1  0  0  0  0
 23  3  1  0  0  0  0
 23 22  2  0  0  0  0
 24 21  2  0  0  0  0
 26 24  1  0  0  0  0
 26 25  1  0  0  0  0
 27 28  1  0  0  0  0
 27  5  1  0  0  0  0
 29 27  1  0  0  0  0
M  END
>  <MODEL>
8

>  <REMARK>
 VINA RESULT:      -5.6      3.693      9.355
  Name = 
  4 active torsions:
  status: ('A' for Active; 'I' for Inactive)
    1  A    between atoms: C_7  and  N_19
    2  A    between atoms: C_13  and  C_21
    3  A    between atoms: C_16  and  C_26
    4  A    between atoms: C_28  and  O_29
                            x       y       z     vdW  Elec       q    Type
                         _______ _______ _______ _____ _____    ______ ____

>  <TORSDO>
F 4

$$$$
=
 OpenBabel10222415533D

 29 33  0  0  1  0  0  0  0  0999 V2000
  186.9100  178.7770  139.3410 C   0  0  2  0  0  3  0  0  0  0  0  0
  187.8080  176.6250  138.2090 C   0  0  0  0  0  2  0  0  0  0  0  0
  187.6340  178.2630  140.5940 C   0  0  0  0  0  0  0  0  0  0  0  0
  185.4130  178.4800  139.4130 C   0  0  0  0  0  2  0  0  0  0  0  0
  185.4790  177.4690  138.3570 N   0  0  0  0  0  0  0  0  0  0  0  0
  186.8770  177.8290  138.1330 C   0  0  1  0  0  3  0  0  0  0  0  0
  189.1970  177.1480  138.2560 C   0  0  0  0  0  3  0  0  0  0  0  0
  189.6690  177.7060  139.3250 N   0  0  0  0  0  0  0  0  0  0  0  0
  188.9430  177.8670  140.5680 C   0  0  0  0  0  0  0  0  0  0  0  0
  192.3090  176.2220  146.8440 N   0  0  0  0  0  1  0  0  0  0  0  0
  191.6820  176.4860  145.6030 C   0  0  0  0  0  0  0  0  0  0  0  0
  190.7040  177.6530  144.0160 C   0  0  0  0  0  0  0  0  0  0  0  0
  191.1680  177.7100  145.2790 N   0  0  0  0  0  0  0  0  0  0  0  0
  190.8060  176.4740  143.3680 C   0  0  0  0  0  0  0  0  0  0  0  0
  189.7240  177.6060  141.8080 C   0  0  0  0  0  0  0  0  0  0  0  0
  189.8850  178.7590  143.0760 S   0  0  0  0  0  0  0  0  0  0  0  0
  191.5420  175.3230  144.3460 S   0  0  0  0  0  0  0  0  0  0  0  0
  190.2670  176.3950  142.1330 N   0  0  0  0  0  0  0  0  0  0  0  0
  185.2180  179.3880  143.2790 C   0  0  0  0  0  3  0  0  0  0  0  0
  185.9730  179.3650  142.0980 C   0  0  0  0  0  3  0  0  0  0  0  0
  186.2930  177.3330  143.9920 C   0  0  0  0  0  3  0  0  0  0  0  0
  187.0360  177.3040  142.8120 C   0  0  0  0  0  3  0  0  0  0  0  0
  186.8970  178.3350  141.8730 C   0  0  0  0  0  0  0  0  0  0  0  0
  185.3920  178.3740  144.2420 C   0  0  0  0  0  0  0  0  0  0  0  0
  185.3140  178.4980  146.7050 C   0  0  0  0  0  1  0  0  0  0  0  0
  184.6740  178.3760  145.4410 O   0  0  0  0  0  0  0  0  0  0  0  0
  184.6430  177.8230  137.1910 C   0  0  0  0  0  3  0  0  0  0  0  0
  184.7580  176.7590  136.1010 C   0  0  0  0  0  1  0  0  0  0  0  0
  183.1590  178.0740  137.5080 C   0  0  0  0  0  1  0  0  0  0  0  0
  1  4  1  1  0  0  0
  1  3  1  0  0  0  0
  2  7  1  0  0  0  0
  3 23  1  0  0  0  0
  5  4  1  0  0  0  0
  6  2  1  1  0  0  0
  6  5  1  0  0  0  0
  6  1  1  0  0  0  0
  7  8  2  0  0  0  0
  8  9  1  0  0  0  0
  9  3  2  0  0  0  0
  9 15  1  0  0  0  0
 11 10  1  0  0  0  0
 12 13  1  0  0  0  0
 13 11  2  0  0  0  0
 14 12  2  0  0  0  0
 14 17  1  0  0  0  0
 15 18  2  0  0  0  0
 15 16  1  0  0  0  0
 16 12  1  0  0  0  0
 17 11  1  0  0  0  0
 18 14  1  0  0  0  0
 19 24  1  0  0  0  0
 20 19  2  0  0  0  0
 21 24  2  0  0  0  0
 22 21  1  0  0  0  0
 23 20  1  0  0  0  0
 23 22  2  0  0  0  0
 24 26  1  0  0  0  0
 26 25  1  0  0  0  0
 27 29  1  0  0  0  0
 27  5  1  0  0  0  0
 28 27  1  0  0  0  0
M  END
>  <MODEL>
9

>  <REMARK>
 VINA RESULT:      -5.4      3.074      5.507
  Name = 
  4 active torsions:
  status: ('A' for Active; 'I' for Inactive)
    1  A    between atoms: C_7  and  N_19
    2  A    between atoms: C_13  and  C_21
    3  A    between atoms: C_16  and  C_26
    4  A    between atoms: C_28  and  O_29
                            x       y       z     vdW  Elec       q    Type
                         _______ _______ _______ _____ _____    ______ ____

>  <TORSDO>
F 4

$$$$
