=
 OpenBabel10222416103D

 26 29  0  0  1  0  0  0  0  0999 V2000
  190.0180  177.1170  143.8250 C   0  0  0  0  0  3  0  0  0  0  0  0
  185.5130  178.5160  142.6850 C   0  0  0  0  0  3  0  0  0  0  0  0
  190.9820  176.8080  144.7850 C   0  0  0  0  0  3  0  0  0  0  0  0
  186.7950  177.8320  147.2050 O   0  0  0  0  0  0  0  0  0  0  0  0
  187.0800  177.8240  145.9750 C   0  0  0  0  0  0  0  0  0  0  0  0
  186.1120  178.1590  145.0070 C   0  0  2  0  0  3  0  0  0  0  0  0
  183.9030  178.8950  144.3920 N   0  0  0  0  0  0  0  0  0  0  0  0
  188.7010  177.4630  144.1960 C   0  0  0  0  0  0  0  0  0  0  0  0
  188.3750  177.4860  145.5720 C   0  0  0  0  0  0  0  0  0  0  0  0
  189.3550  177.1720  146.5290 C   0  0  0  0  0  3  0  0  0  0  0  0
  186.4740  178.1270  143.6320 C   0  0  0  0  0  0  0  0  0  0  0  0
  184.7900  178.5440  145.3570 C   0  0  0  0  0  0  0  0  0  0  0  0
  190.6500  176.8350  146.1380 C   0  0  0  0  0  0  0  0  0  0  0  0
  184.2340  178.8940  143.0780 C   0  0  0  0  0  3  0  0  0  0  0  0
  187.7490  177.7540  143.2450 N   0  0  0  0  0  0  0  0  0  0  0  0
  184.4140  178.5740  146.5600 O   0  0  0  0  0  0  0  0  0  0  0  0
  192.4380  176.2600  147.9260 N   0  0  0  0  0  0  0  0  0  0  0  0
  191.6400  176.5170  147.1280 C   0  0  0  0  0  0  0  0  0  0  0  0
  188.5020  178.7330  141.1170 C   0  0  0  0  0  3  0  0  0  0  0  0
  188.1560  177.6800  141.8540 C   0  0  0  0  0  3  0  0  0  0  0  0
  187.8620  177.9000  138.9130 C   0  0  0  0  0  0  0  0  0  0  0  0
  189.6260  176.4760  138.8440 C   0  0  0  0  0  3  0  0  0  0  0  0
  188.9160  178.5690  139.6920 C   0  0  2  0  0  3  0  0  0  0  0  0
  186.7190  178.3730  138.6800 O   0  0  0  0  0  0  0  0  0  0  0  0
  188.2900  176.6940  138.4350 O   0  0  0  0  0  0  0  0  0  0  0  0
  190.0570  177.6520  139.6230 N   0  0  0  0  0  0  0  0  0  0  0  0
  1  8  2  0  0  0  0
  1  3  1  0  0  0  0
  2 14  1  0  0  0  0
  2 11  2  0  0  0  0
  3 13  2  0  0  0  0
  5  4  2  0  0  0  0
  6 11  1  1  0  0  0
  6 12  1  0  0  0  0
  6  5  1  0  0  0  0
  7 12  1  0  0  0  0
  8  9  1  0  0  0  0
  9  5  1  0  0  0  0
  9 10  2  0  0  0  0
 12 16  2  0  0  0  0
 13 10  1  0  0  0  0
 13 18  1  0  0  0  0
 14  7  2  0  0  0  0
 15 11  1  0  0  0  0
 15  8  1  0  0  0  0
 18 17  3  0  0  0  0
 19 20  2  0  0  0  0
 20 15  1  0  0  0  0
 21 23  1  0  0  0  0
 22 26  2  0  0  0  0
 23 19  1  1  0  0  0
 24 21  2  0  0  0  0
 25 22  1  0  0  0  0
 25 21  1  0  0  0  0
 26 23  1  0  0  0  0
M  END
>  <MODEL>
1

>  <REMARK>
 VINA RESULT:     -10.0      0.000      0.000
  Name = 
  3 active torsions:
  status: ('A' for Active; 'I' for Inactive)
    1  A    between atoms: C_4  and  C_5
    2  A    between atoms: C_8  and  C_23
    3  A    between atoms: C_11  and  N_25
                            x       y       z     vdW  Elec       q    Type
                         _______ _______ _______ _____ _____    ______ ____

>  <TORSDO>
F 3

$$$$
=
 OpenBabel10222416103D

 26 29  0  0  1  0  0  0  0  0999 V2000
  190.0180  176.5470  144.2500 C   0  0  0  0  0  3  0  0  0  0  0  0
  185.5140  178.1340  143.3800 C   0  0  0  0  0  3  0  0  0  0  0  0
  191.0690  176.3160  145.1380 C   0  0  0  0  0  3  0  0  0  0  0  0
  187.2910  178.0940  147.7840 O   0  0  0  0  0  0  0  0  0  0  0  0
  187.4220  177.8580  146.5500 C   0  0  0  0  0  0  0  0  0  0  0  0
  186.3670  178.1130  145.6500 C   0  0  2  0  0  3  0  0  0  0  0  0
  184.1560  178.9320  145.1610 N   0  0  0  0  0  0  0  0  0  0  0  0
  188.7830  177.0650  144.6960 C   0  0  0  0  0  0  0  0  0  0  0  0
  188.6310  177.3440  146.0750 C   0  0  0  0  0  0  0  0  0  0  0  0
  189.6960  177.1060  146.9580 C   0  0  0  0  0  3  0  0  0  0  0  0
  186.5550  177.8230  144.2710 C   0  0  0  0  0  0  0  0  0  0  0  0
  185.1290  178.6670  146.0700 C   0  0  0  0  0  0  0  0  0  0  0  0
  190.9080  176.5960  146.4940 C   0  0  0  0  0  0  0  0  0  0  0  0
  184.3230  178.6840  143.8390 C   0  0  0  0  0  3  0  0  0  0  0  0
  187.7450  177.2790  143.8180 N   0  0  0  0  0  0  0  0  0  0  0  0
  184.9050  178.9290  147.2830 O   0  0  0  0  0  0  0  0  0  0  0  0
  192.8570  176.1670  148.1490 N   0  0  0  0  0  0  0  0  0  0  0  0
  191.9870  176.3580  147.4100 C   0  0  0  0  0  0  0  0  0  0  0  0
  188.2230  177.8310  141.4690 C   0  0  0  0  0  3  0  0  0  0  0  0
  187.9720  176.9410  142.4250 C   0  0  0  0  0  3  0  0  0  0  0  0
  189.8870  177.2070  139.7960 C   0  0  0  0  0  0  0  0  0  0  0  0
  189.2650  178.9000  138.4200 C   0  0  0  0  0  3  0  0  0  0  0  0
  188.4530  177.3980  140.0590 C   0  0  2  0  0  3  0  0  0  0  0  0
  190.6170  176.3360  140.3370 O   0  0  0  0  0  0  0  0  0  0  0  0
  190.3380  178.0850  138.8500 O   0  0  0  0  0  0  0  0  0  0  0  0
  188.0560  178.4770  139.1510 N   0  0  0  0  0  0  0  0  0  0  0  0
  1  8  2  0  0  0  0
  1  3  1  0  0  0  0
  2 14  1  0  0  0  0
  2 11  2  0  0  0  0
  3 13  2  0  0  0  0
  5  4  2  0  0  0  0
  6 11  1  6  0  0  0
  6 12  1  0  0  0  0
  6  5  1  0  0  0  0
  7 12  1  0  0  0  0
  8  9  1  0  0  0  0
  9  5  1  0  0  0  0
  9 10  2  0  0  0  0
 12 16  2  0  0  0  0
 13 10  1  0  0  0  0
 13 18  1  0  0  0  0
 14  7  2  0  0  0  0
 15 11  1  0  0  0  0
 15  8  1  0  0  0  0
 18 17  3  0  0  0  0
 19 20  2  0  0  0  0
 20 15  1  0  0  0  0
 21 23  1  0  0  0  0
 21 24  2  0  0  0  0
 22 25  1  0  0  0  0
 22 26  2  0  0  0  0
 23 19  1  1  0  0  0
 25 21  1  0  0  0  0
 26 23  1  0  0  0  0
M  END
>  <MODEL>
2

>  <REMARK>
 VINA RESULT:      -9.8      1.232      1.484
  Name = 
  3 active torsions:
  status: ('A' for Active; 'I' for Inactive)
    1  A    between atoms: C_4  and  C_5
    2  A    between atoms: C_8  and  C_23
    3  A    between atoms: C_11  and  N_25
                            x       y       z     vdW  Elec       q    Type
                         _______ _______ _______ _____ _____    ______ ____

>  <TORSDO>
F 3

$$$$
=
 OpenBabel10222416103D

 26 29  0  0  1  0  0  0  0  0999 V2000
  186.7520  178.4310  142.0550 C   0  0  0  0  0  3  0  0  0  0  0  0
  190.7490  177.1750  144.5060 C   0  0  0  0  0  3  0  0  0  0  0  0
  185.3770  178.6700  142.0230 C   0  0  0  0  0  3  0  0  0  0  0  0
  186.5580  177.5880  146.7000 O   0  0  0  0  0  0  0  0  0  0  0  0
  187.2520  177.6590  145.6480 C   0  0  0  0  0  0  0  0  0  0  0  0
  188.6370  177.3950  145.6770 C   0  0  2  0  0  3  0  0  0  0  0  0
  190.6390  176.7320  146.8380 N   0  0  0  0  0  0  0  0  0  0  0  0
  187.4070  178.0880  143.2570 C   0  0  0  0  0  0  0  0  0  0  0  0
  186.6360  177.9950  144.4400 C   0  0  0  0  0  0  0  0  0  0  0  0
  185.2530  178.2400  144.3940 C   0  0  0  0  0  3  0  0  0  0  0  0
  189.3810  177.4950  144.4700 C   0  0  0  0  0  0  0  0  0  0  0  0
  189.3120  177.0140  146.8670 C   0  0  0  0  0  0  0  0  0  0  0  0
  184.6280  178.5740  143.1940 C   0  0  0  0  0  0  0  0  0  0  0  0
  191.3630  176.7990  145.6950 C   0  0  0  0  0  3  0  0  0  0  0  0
  188.7650  177.8670  143.2870 N   0  0  0  0  0  0  0  0  0  0  0  0
  188.7020  176.9250  147.9670 O   0  0  0  0  0  0  0  0  0  0  0  0
  182.0740  179.0190  143.1400 N   0  0  0  0  0  0  0  0  0  0  0  0
  183.2130  178.8210  143.1640 C   0  0  0  0  0  0  0  0  0  0  0  0
  189.5360  177.0780  141.0870 C   0  0  0  0  0  3  0  0  0  0  0  0
  189.4890  178.0090  142.0370 C   0  0  0  0  0  3  0  0  0  0  0  0
  189.4400  177.9120  138.7950 C   0  0  0  0  0  0  0  0  0  0  0  0
  190.0340  175.8950  137.9450 C   0  0  0  0  0  3  0  0  0  0  0  0
  190.2990  177.3080  139.8250 C   0  0  2  0  0  3  0  0  0  0  0  0
  188.9190  179.0560  138.8610 O   0  0  0  0  0  0  0  0  0  0  0  0
  189.2970  177.0810  137.7200 O   0  0  0  0  0  0  0  0  0  0  0  0
  190.6950  176.0160  139.2580 N   0  0  0  0  0  0  0  0  0  0  0  0
  1  8  1  0  0  0  0
  2 14  1  0  0  0  0
  3  1  2  0  0  0  0
  3 13  1  0  0  0  0
  5  6  1  0  0  0  0
  5  4  2  0  0  0  0
  6 11  1  6  0  0  0
  6 12  1  0  0  0  0
  7 12  1  0  0  0  0
  8 15  1  0  0  0  0
  8  9  2  0  0  0  0
  9  5  1  0  0  0  0
 10  9  1  0  0  0  0
 11  2  2  0  0  0  0
 12 16  2  0  0  0  0
 13 10  2  0  0  0  0
 14  7  2  0  0  0  0
 15 11  1  0  0  0  0
 17 18  3  0  0  0  0
 18 13  1  0  0  0  0
 19 20  2  0  0  0  0
 20 15  1  0  0  0  0
 21 24  2  0  0  0  0
 21 23  1  0  0  0  0
 22 26  2  0  0  0  0
 23 19  1  1  0  0  0
 25 22  1  0  0  0  0
 25 21  1  0  0  0  0
 26 23  1  0  0  0  0
M  END
>  <MODEL>
3

>  <REMARK>
 VINA RESULT:      -9.5      1.312      4.830
  Name = 
  3 active torsions:
  status: ('A' for Active; 'I' for Inactive)
    1  A    between atoms: C_4  and  C_5
    2  A    between atoms: C_8  and  C_23
    3  A    between atoms: C_11  and  N_25
                            x       y       z     vdW  Elec       q    Type
                         _______ _______ _______ _____ _____    ______ ____

>  <TORSDO>
F 3

$$$$
=
 OpenBabel10222416103D

 26 29  0  0  1  0  0  0  0  0999 V2000
  185.6140  177.7320  142.7660 C   0  0  0  0  0  3  0  0  0  0  0  0
  189.3830  176.8880  145.7050 C   0  0  0  0  0  3  0  0  0  0  0  0
  184.3200  178.2160  142.5670 C   0  0  0  0  0  3  0  0  0  0  0  0
  185.4950  179.1090  147.2850 O   0  0  0  0  0  0  0  0  0  0  0  0
  186.1320  178.5550  146.3450 C   0  0  0  0  0  0  0  0  0  0  0  0
  187.4290  178.0460  146.5540 C   0  0  2  0  0  3  0  0  0  0  0  0
  189.3070  177.5640  147.9820 N   0  0  0  0  0  0  0  0  0  0  0  0
  186.2450  177.8320  144.0240 C   0  0  0  0  0  0  0  0  0  0  0  0
  185.5360  178.4400  145.0860 C   0  0  0  0  0  0  0  0  0  0  0  0
  184.2350  178.9240  144.8710 C   0  0  0  0  0  3  0  0  0  0  0  0
  188.1130  177.4390  145.4650 C   0  0  0  0  0  0  0  0  0  0  0  0
  188.0720  178.1020  147.8190 C   0  0  0  0  0  0  0  0  0  0  0  0
  183.6300  178.8130  143.6200 C   0  0  0  0  0  0  0  0  0  0  0  0
  189.9670  176.9600  146.9640 C   0  0  0  0  0  3  0  0  0  0  0  0
  187.5270  177.3650  144.2130 N   0  0  0  0  0  0  0  0  0  0  0  0
  187.5160  178.6430  148.8130 O   0  0  0  0  0  0  0  0  0  0  0  0
  181.2270  179.7150  143.2540 N   0  0  0  0  0  0  0  0  0  0  0  0
  182.3000  179.3120  143.4170 C   0  0  0  0  0  0  0  0  0  0  0  0
  188.9900  177.4520  142.2380 C   0  0  0  0  0  3  0  0  0  0  0  0
  188.1960  176.7790  143.0670 C   0  0  0  0  0  3  0  0  0  0  0  0
  190.9950  177.3140  140.8510 C   0  0  0  0  0  0  0  0  0  0  0  0
  189.8320  177.8200  138.9700 C   0  0  0  0  0  3  0  0  0  0  0  0
  189.6480  176.7710  141.0840 C   0  0  2  0  0  3  0  0  0  0  0  0
  191.9650  177.2200  141.6480 O   0  0  0  0  0  0  0  0  0  0  0  0
  191.0800  177.9180  139.6280 O   0  0  0  0  0  0  0  0  0  0  0  0
  188.9120  177.0820  139.8550 N   0  0  0  0  0  0  0  0  0  0  0  0
  1  8  1  0  0  0  0
  2 14  1  0  0  0  0
  3  1  2  0  0  0  0
  3 13  1  0  0  0  0
  5  6  1  0  0  0  0
  5  4  2  0  0  0  0
  6 11  1  1  0  0  0
  6 12  1  0  0  0  0
  8 15  1  0  0  0  0
  8  9  2  0  0  0  0
  9  5  1  0  0  0  0
 10  9  1  0  0  0  0
 11  2  2  0  0  0  0
 12  7  1  0  0  0  0
 12 16  2  0  0  0  0
 13 10  2  0  0  0  0
 14  7  2  0  0  0  0
 15 11  1  0  0  0  0
 17 18  3  0  0  0  0
 18 13  1  0  0  0  0
 19 20  2  0  0  0  0
 20 15  1  0  0  0  0
 21 23  1  0  0  0  0
 21 24  2  0  0  0  0
 22 25  1  0  0  0  0
 22 26  2  0  0  0  0
 23 19  1  1  0  0  0
 25 21  1  0  0  0  0
 26 23  1  0  0  0  0
M  END
>  <MODEL>
4

>  <REMARK>
 VINA RESULT:      -9.3      1.903      5.171
  Name = 
  3 active torsions:
  status: ('A' for Active; 'I' for Inactive)
    1  A    between atoms: C_4  and  C_5
    2  A    between atoms: C_8  and  C_23
    3  A    between atoms: C_11  and  N_25
                            x       y       z     vdW  Elec       q    Type
                         _______ _______ _______ _____ _____    ______ ____

>  <TORSDO>
F 3

$$$$
=
 OpenBabel10222416103D

 26 29  0  0  1  0  0  0  0  0999 V2000
  189.8900  176.9400  142.8080 C   0  0  0  0  0  3  0  0  0  0  0  0
  185.1560  178.0120  142.8250 C   0  0  0  0  0  3  0  0  0  0  0  0
  191.1110  176.8650  142.1370 C   0  0  0  0  0  3  0  0  0  0  0  0
  187.8330  178.8010  138.9830 O   0  0  0  0  0  0  0  0  0  0  0  0
  187.7240  178.4010  140.1760 C   0  0  0  0  0  0  0  0  0  0  0  0
  186.4850  178.4550  140.8460 C   0  0  2  0  0  3  0  0  0  0  0  0
  184.1240  178.9280  140.8900 N   0  0  0  0  0  0  0  0  0  0  0  0
  188.7370  177.4500  142.1740 C   0  0  0  0  0  0  0  0  0  0  0  0
  188.8460  177.8900  140.8340 C   0  0  0  0  0  0  0  0  0  0  0  0
  190.0820  177.8110  140.1700 C   0  0  0  0  0  3  0  0  0  0  0  0
  186.4100  178.0020  142.1910 C   0  0  0  0  0  0  0  0  0  0  0  0
  185.3030  178.9310  140.2170 C   0  0  0  0  0  0  0  0  0  0  0  0
  191.2070  177.3020  140.8170 C   0  0  0  0  0  0  0  0  0  0  0  0
  184.0260  178.4790  142.1650 C   0  0  0  0  0  3  0  0  0  0  0  0
  187.5380  177.5340  142.8440 N   0  0  0  0  0  0  0  0  0  0  0  0
  185.3180  179.3580  139.0310 O   0  0  0  0  0  0  0  0  0  0  0  0
  193.4740  177.1660  139.5650 N   0  0  0  0  0  0  0  0  0  0  0  0
  192.4630  177.2270  140.1240 C   0  0  0  0  0  0  0  0  0  0  0  0
  187.8410  177.8500  145.2650 C   0  0  0  0  0  3  0  0  0  0  0  0
  187.5150  177.0870  144.2250 C   0  0  0  0  0  3  0  0  0  0  0  0
  187.0500  178.2290  147.5430 C   0  0  0  0  0  0  0  0  0  0  0  0
  189.1600  178.1830  148.3750 C   0  0  0  0  0  3  0  0  0  0  0  0
  187.7840  177.3130  146.6570 C   0  0  2  0  0  3  0  0  0  0  0  0
  185.8270  178.5120  147.4450 O   0  0  0  0  0  0  0  0  0  0  0  0
  187.8610  178.7230  148.5260 O   0  0  0  0  0  0  0  0  0  0  0  0
  189.1380  177.2720  147.2150 N   0  0  0  0  0  0  0  0  0  0  0  0
  3  1  2  0  0  0  0
  4  5  2  0  0  0  0
  5  9  1  0  0  0  0
  6  5  1  6  0  0  0
  6 11  1  0  0  0  0
  7 14  2  0  0  0  0
  8  1  1  0  0  0  0
  8 15  1  0  0  0  0
  9  8  2  0  0  0  0
 10 13  2  0  0  0  0
 10  9  1  0  0  0  0
 11  2  2  0  0  0  0
 11 15  1  0  0  0  0
 12  6  1  0  0  0  0
 12  7  1  0  0  0  0
 13  3  1  0  0  0  0
 14  2  1  0  0  0  0
 15 20  1  0  0  0  0
 16 12  2  0  0  0  0
 17 18  3  0  0  0  0
 18 13  1  0  0  0  0
 20 19  2  0  0  0  0
 21 25  1  0  0  0  0
 22 25  1  0  0  0  0
 23 19  1  6  0  0  0
 23 26  1  0  0  0  0
 23 21  1  0  0  0  0
 24 21  2  0  0  0  0
 26 22  2  0  0  0  0
M  END
>  <MODEL>
5

>  <REMARK>
 VINA RESULT:      -8.7      1.970      6.005
  Name = 
  3 active torsions:
  status: ('A' for Active; 'I' for Inactive)
    1  A    between atoms: C_4  and  C_5
    2  A    between atoms: C_8  and  C_23
    3  A    between atoms: C_11  and  N_25
                            x       y       z     vdW  Elec       q    Type
                         _______ _______ _______ _____ _____    ______ ____

>  <TORSDO>
F 3

$$$$
=
 OpenBabel10222416103D

 26 29  0  0  1  0  0  0  0  0999 V2000
  188.8710  177.5290  141.9320 C   0  0  0  0  0  3  0  0  0  0  0  0
  187.2300  177.6580  146.4980 C   0  0  0  0  0  3  0  0  0  0  0  0
  188.6620  177.7180  140.5650 C   0  0  0  0  0  3  0  0  0  0  0  0
  184.5130  179.0910  142.8760 O   0  0  0  0  0  0  0  0  0  0  0  0
  185.6090  178.6340  143.3060 C   0  0  0  0  0  0  0  0  0  0  0  0
  185.8120  178.4220  144.6850 C   0  0  2  0  0  3  0  0  0  0  0  0
  185.0290  178.4240  146.9620 N   0  0  0  0  0  0  0  0  0  0  0  0
  187.8640  177.8270  142.8740 C   0  0  0  0  0  0  0  0  0  0  0  0
  186.6280  178.3290  142.4010 C   0  0  0  0  0  0  0  0  0  0  0  0
  186.4310  178.5160  141.0230 C   0  0  0  0  0  3  0  0  0  0  0  0
  187.0650  177.9150  145.1260 C   0  0  0  0  0  0  0  0  0  0  0  0
  184.8010  178.6810  145.6490 C   0  0  0  0  0  0  0  0  0  0  0  0
  187.4410  178.2120  140.1100 C   0  0  0  0  0  0  0  0  0  0  0  0
  186.2070  177.9190  147.4010 C   0  0  0  0  0  3  0  0  0  0  0  0
  188.0790  177.6520  144.2220 N   0  0  0  0  0  0  0  0  0  0  0  0
  183.6780  179.1450  145.3130 O   0  0  0  0  0  0  0  0  0  0  0  0
  187.0480  178.5670  137.5720 N   0  0  0  0  0  0  0  0  0  0  0  0
  187.2230  178.4080  138.7050 C   0  0  0  0  0  0  0  0  0  0  0  0
  190.3550  177.9260  145.1160 C   0  0  0  0  0  3  0  0  0  0  0  0
  189.3830  177.1600  144.6280 C   0  0  0  0  0  3  0  0  0  0  0  0
  191.8320  175.9900  144.9520 C   0  0  0  0  0  0  0  0  0  0  0  0
  191.8150  175.6780  147.1990 C   0  0  0  0  0  3  0  0  0  0  0  0
  191.6670  177.3370  145.5170 C   0  0  2  0  0  3  0  0  0  0  0  0
  191.9200  175.7210  143.7250 O   0  0  0  0  0  0  0  0  0  0  0  0
  191.9130  175.0460  145.9370 O   0  0  0  0  0  0  0  0  0  0  0  0
  191.6800  177.1290  146.9670 N   0  0  0  0  0  0  0  0  0  0  0  0
  1  8  1  0  0  0  0
  2 14  1  0  0  0  0
  3  1  2  0  0  0  0
  4  5  2  0  0  0  0
  6  5  1  6  0  0  0
  6 11  1  0  0  0  0
  6 12  1  0  0  0  0
  7 14  2  0  0  0  0
  8 15  1  0  0  0  0
  9  8  2  0  0  0  0
  9  5  1  0  0  0  0
 10  9  1  0  0  0  0
 11  2  2  0  0  0  0
 12  7  1  0  0  0  0
 13  3  1  0  0  0  0
 13 10  2  0  0  0  0
 15 20  1  0  0  0  0
 15 11  1  0  0  0  0
 16 12  2  0  0  0  0
 17 18  3  0  0  0  0
 18 13  1  0  0  0  0
 20 19  2  0  0  0  0
 21 23  1  0  0  0  0
 21 25  1  0  0  0  0
 23 19  1  6  0  0  0
 23 26  1  0  0  0  0
 24 21  2  0  0  0  0
 25 22  1  0  0  0  0
 26 22  2  0  0  0  0
M  END
>  <MODEL>
6

>  <REMARK>
 VINA RESULT:      -8.6      2.324      5.732
  Name = 
  3 active torsions:
  status: ('A' for Active; 'I' for Inactive)
    1  A    between atoms: C_4  and  C_5
    2  A    between atoms: C_8  and  C_23
    3  A    between atoms: C_11  and  N_25
                            x       y       z     vdW  Elec       q    Type
                         _______ _______ _______ _____ _____    ______ ____

>  <TORSDO>
F 3

$$$$
=
 OpenBabel10222416103D

 26 29  0  0  1  0  0  0  0  0999 V2000
  185.5070  177.8710  144.4970 C   0  0  0  0  0  3  0  0  0  0  0  0
  189.7760  177.1410  142.3060 C   0  0  0  0  0  3  0  0  0  0  0  0
  184.1960  178.3470  144.4630 C   0  0  0  0  0  3  0  0  0  0  0  0
  186.1080  179.0310  139.9560 O   0  0  0  0  0  0  0  0  0  0  0  0
  186.5950  178.5480  141.0170 C   0  0  0  0  0  0  0  0  0  0  0  0
  187.9270  178.0880  141.0560 C   0  0  2  0  0  3  0  0  0  0  0  0
  190.0770  177.7480  140.0280 N   0  0  0  0  0  0  0  0  0  0  0  0
  186.3350  177.9270  143.3550 C   0  0  0  0  0  0  0  0  0  0  0  0
  185.8030  178.4770  142.1660 C   0  0  0  0  0  0  0  0  0  0  0  0
  184.4810  178.9520  142.1450 C   0  0  0  0  0  3  0  0  0  0  0  0
  188.4310  177.5430  142.2690 C   0  0  0  0  0  0  0  0  0  0  0  0
  188.7900  178.1670  139.9310 C   0  0  0  0  0  0  0  0  0  0  0  0
  183.6820  178.8880  143.2860 C   0  0  0  0  0  0  0  0  0  0  0  0
  190.5840  177.2460  141.1800 C   0  0  0  0  0  3  0  0  0  0  0  0
  187.6230  177.4440  143.3890 N   0  0  0  0  0  0  0  0  0  0  0  0
  188.3890  178.6280  138.8280 O   0  0  0  0  0  0  0  0  0  0  0  0
  181.2460  179.7710  143.2190 N   0  0  0  0  0  0  0  0  0  0  0  0
  182.3330  179.3770  143.2490 C   0  0  0  0  0  0  0  0  0  0  0  0
  188.5330  177.5810  145.6710 C   0  0  0  0  0  3  0  0  0  0  0  0
  188.0850  176.8700  144.6390 C   0  0  0  0  0  3  0  0  0  0  0  0
  189.0870  177.8780  148.0300 C   0  0  0  0  0  0  0  0  0  0  0  0
  191.2040  177.1280  147.7160 C   0  0  0  0  0  3  0  0  0  0  0  0
  188.9830  176.9110  146.9270 C   0  0  2  0  0  3  0  0  0  0  0  0
  188.1220  178.5080  148.5380 O   0  0  0  0  0  0  0  0  0  0  0  0
  190.3760  177.9920  148.4690 O   0  0  0  0  0  0  0  0  0  0  0  0
  190.3510  176.4160  146.7470 N   0  0  0  0  0  0  0  0  0  0  0  0
  3  1  1  0  0  0  0
  4  5  2  0  0  0  0
  5  6  1  0  0  0  0
  5  9  1  0  0  0  0
  6 12  1  1  0  0  0
  6 11  1  0  0  0  0
  7 14  2  0  0  0  0
  8 15  1  0  0  0  0
  8  1  2  0  0  0  0
  9  8  1  0  0  0  0
 10  9  2  0  0  0  0
 10 13  1  0  0  0  0
 11  2  2  0  0  0  0
 11 15  1  0  0  0  0
 12  7  1  0  0  0  0
 13  3  2  0  0  0  0
 14  2  1  0  0  0  0
 15 20  1  0  0  0  0
 16 12  2  0  0  0  0
 17 18  3  0  0  0  0
 18 13  1  0  0  0  0
 20 19  2  0  0  0  0
 21 25  1  0  0  0  0
 21 24  2  0  0  0  0
 22 25  1  0  0  0  0
 23 19  1  6  0  0  0
 23 21  1  0  0  0  0
 26 23  1  0  0  0  0
 26 22  2  0  0  0  0
M  END
>  <MODEL>
7

>  <REMARK>
 VINA RESULT:      -8.6      1.654      7.162
  Name = 
  3 active torsions:
  status: ('A' for Active; 'I' for Inactive)
    1  A    between atoms: C_4  and  C_5
    2  A    between atoms: C_8  and  C_23
    3  A    between atoms: C_11  and  N_25
                            x       y       z     vdW  Elec       q    Type
                         _______ _______ _______ _____ _____    ______ ____

>  <TORSDO>
F 3

$$$$
=
 OpenBabel10222416103D

 26 29  0  0  1  0  0  0  0  0999 V2000
  188.3390  177.6820  144.0540 C   0  0  0  0  0  3  0  0  0  0  0  0
  185.0730  178.4620  140.5480 C   0  0  0  0  0  3  0  0  0  0  0  0
  188.6720  177.6350  145.4080 C   0  0  0  0  0  3  0  0  0  0  0  0
  183.8570  178.7180  145.1310 O   0  0  0  0  0  0  0  0  0  0  0  0
  184.7290  178.5110  144.2420 C   0  0  0  0  0  0  0  0  0  0  0  0
  184.3970  178.5820  142.8740 C   0  0  2  0  0  3  0  0  0  0  0  0
  182.8260  179.0040  141.0990 N   0  0  0  0  0  0  0  0  0  0  0  0
  187.0240  177.9750  143.6340 C   0  0  0  0  0  0  0  0  0  0  0  0
  186.0420  178.2190  144.6230 C   0  0  0  0  0  0  0  0  0  0  0  0
  186.3900  178.1670  145.9820 C   0  0  0  0  0  3  0  0  0  0  0  0
  185.4090  178.3340  141.9070 C   0  0  0  0  0  0  0  0  0  0  0  0
  183.0890  178.9100  142.4270 C   0  0  0  0  0  0  0  0  0  0  0  0
  187.6970  177.8780  146.3730 C   0  0  0  0  0  0  0  0  0  0  0  0
  183.7810  178.7940  140.1610 C   0  0  0  0  0  3  0  0  0  0  0  0
  186.6960  178.0070  142.2970 N   0  0  0  0  0  0  0  0  0  0  0  0
  182.1520  179.1240  143.2420 O   0  0  0  0  0  0  0  0  0  0  0  0
  188.3110  177.7910  148.8900 N   0  0  0  0  0  0  0  0  0  0  0  0
  188.0370  177.8290  147.7670 C   0  0  0  0  0  0  0  0  0  0  0  0
  188.3320  178.6300  140.5690 C   0  0  0  0  0  3  0  0  0  0  0  0
  187.7540  177.7190  141.3470 C   0  0  0  0  0  3  0  0  0  0  0  0
  189.0550  178.5870  138.2380 C   0  0  0  0  0  0  0  0  0  0  0  0
  189.2520  176.3280  138.2500 C   0  0  0  0  0  3  0  0  0  0  0  0
  189.4220  178.2500  139.6210 C   0  0  2  0  0  3  0  0  0  0  0  0
  188.8770  179.7530  137.7960 O   0  0  0  0  0  0  0  0  0  0  0  0
  188.9590  177.4660  137.4630 O   0  0  0  0  0  0  0  0  0  0  0  0
  189.5690  176.7920  139.6140 N   0  0  0  0  0  0  0  0  0  0  0  0
  1  3  1  0  0  0  0
  2 11  2  0  0  0  0
  3 13  2  0  0  0  0
  5  9  1  0  0  0  0
  5  4  2  0  0  0  0
  6 11  1  6  0  0  0
  6  5  1  0  0  0  0
  7 12  1  0  0  0  0
  8  1  2  0  0  0  0
  8  9  1  0  0  0  0
  9 10  2  0  0  0  0
 10 13  1  0  0  0  0
 11 15  1  0  0  0  0
 12  6  1  0  0  0  0
 12 16  2  0  0  0  0
 13 18  1  0  0  0  0
 14  2  1  0  0  0  0
 14  7  2  0  0  0  0
 15  8  1  0  0  0  0
 18 17  3  0  0  0  0
 19 20  2  0  0  0  0
 20 15  1  0  0  0  0
 21 23  1  0  0  0  0
 22 26  2  0  0  0  0
 23 19  1  1  0  0  0
 24 21  2  0  0  0  0
 25 21  1  0  0  0  0
 25 22  1  0  0  0  0
 26 23  1  0  0  0  0
M  END
>  <MODEL>
8

>  <REMARK>
 VINA RESULT:      -8.6      1.940      2.629
  Name = 
  3 active torsions:
  status: ('A' for Active; 'I' for Inactive)
    1  A    between atoms: C_4  and  C_5
    2  A    between atoms: C_8  and  C_23
    3  A    between atoms: C_11  and  N_25
                            x       y       z     vdW  Elec       q    Type
                         _______ _______ _______ _____ _____    ______ ____

>  <TORSDO>
F 3

$$$$
=
 OpenBabel10222416103D

 26 29  0  0  1  0  0  0  0  0999 V2000
  189.0190  177.7700  140.8310 C   0  0  0  0  0  3  0  0  0  0  0  0
  186.4860  177.8210  144.9710 C   0  0  0  0  0  3  0  0  0  0  0  0
  190.2360  177.6570  140.1590 C   0  0  0  0  0  3  0  0  0  0  0  0
  191.1610  176.9900  144.9690 O   0  0  0  0  0  0  0  0  0  0  0  0
  190.0940  177.2320  144.3390 C   0  0  0  0  0  0  0  0  0  0  0  0
  188.8680  177.3700  145.0210 C   0  0  2  0  0  3  0  0  0  0  0  0
  187.5750  177.4500  147.0510 N   0  0  0  0  0  0  0  0  0  0  0  0
  188.9420  177.6340  142.2330 C   0  0  0  0  0  0  0  0  0  0  0  0
  190.1340  177.3740  142.9490 C   0  0  0  0  0  0  0  0  0  0  0  0
  191.3530  177.2610  142.2600 C   0  0  0  0  0  3  0  0  0  0  0  0
  187.6890  177.6330  144.2710 C   0  0  0  0  0  0  0  0  0  0  0  0
  188.7710  177.2720  146.4350 C   0  0  0  0  0  0  0  0  0  0  0  0
  191.4040  177.4020  140.8750 C   0  0  0  0  0  0  0  0  0  0  0  0
  186.4440  177.7240  146.3570 C   0  0  0  0  0  3  0  0  0  0  0  0
  187.7360  177.7330  142.8910 N   0  0  0  0  0  0  0  0  0  0  0  0
  189.7830  177.0250  147.1460 O   0  0  0  0  0  0  0  0  0  0  0  0
  193.6690  177.1880  139.6300 N   0  0  0  0  0  0  0  0  0  0  0  0
  192.6590  177.2840  140.1850 C   0  0  0  0  0  0  0  0  0  0  0  0
  186.0680  179.1800  141.8060 C   0  0  0  0  0  3  0  0  0  0  0  0
  186.5560  177.9730  142.0810 C   0  0  0  0  0  3  0  0  0  0  0  0
  183.7740  178.4470  141.4110 C   0  0  0  0  0  0  0  0  0  0  0  0
  184.2700  177.7380  139.3150 C   0  0  0  0  0  3  0  0  0  0  0  0
  184.8500  179.3400  140.9570 C   0  0  2  0  0  3  0  0  0  0  0  0
  183.1880  178.5200  142.5230 O   0  0  0  0  0  0  0  0  0  0  0  0
  183.4550  177.5280  140.4510 O   0  0  0  0  0  0  0  0  0  0  0  0
  185.1480  178.8890  139.5950 N   0  0  0  0  0  0  0  0  0  0  0  0
  1  8  1  0  0  0  0
  2 14  1  0  0  0  0
  3  1  2  0  0  0  0
  3 13  1  0  0  0  0
  5  4  2  0  0  0  0
  5  6  1  0  0  0  0
  6 11  1  1  0  0  0
  6 12  1  0  0  0  0
  8 15  1  0  0  0  0
  8  9  2  0  0  0  0
  9  5  1  0  0  0  0
 10  9  1  0  0  0  0
 11  2  2  0  0  0  0
 12  7  1  0  0  0  0
 12 16  2  0  0  0  0
 13 10  2  0  0  0  0
 14  7  2  0  0  0  0
 15 11  1  0  0  0  0
 17 18  3  0  0  0  0
 18 13  1  0  0  0  0
 19 20  2  0  0  0  0
 20 15  1  0  0  0  0
 21 24  2  0  0  0  0
 22 26  2  0  0  0  0
 22 25  1  0  0  0  0
 23 21  1  0  0  0  0
 23 19  1  1  0  0  0
 25 21  1  0  0  0  0
 26 23  1  0  0  0  0
M  END
>  <MODEL>
9

>  <REMARK>
 VINA RESULT:      -8.5      2.576      4.496
  Name = 
  3 active torsions:
  status: ('A' for Active; 'I' for Inactive)
    1  A    between atoms: C_4  and  C_5
    2  A    between atoms: C_8  and  C_23
    3  A    between atoms: C_11  and  N_25
                            x       y       z     vdW  Elec       q    Type
                         _______ _______ _______ _____ _____    ______ ____

>  <TORSDO>
F 3

$$$$
