=
 OpenBabel10222417413D

 30 32  0  0  1  0  0  0  0  0999 V2000
  188.6410  177.6940  144.7900 C   0  0  0  0  0  0  0  0  0  0  0  0
  188.4310  177.9300  148.5240 C   0  0  0  0  0  1  0  0  0  0  0  0
  188.7410  177.7100  147.0800 C   0  0  0  0  0  0  0  0  0  0  0  0
  187.8220  178.1030  145.9720 C   0  0  2  0  0  3  0  0  0  0  0  0
  189.8610  177.1700  146.5980 C   0  0  0  0  0  0  0  0  0  0  0  0
  189.8040  177.1620  145.1420 C   0  0  0  0  0  3  0  0  0  0  0  0
  191.6930  177.4410  148.0970 O   0  0  0  0  0  0  0  0  0  0  0  0
  191.3660  175.2910  147.3050 N   0  0  0  0  0  1  0  0  0  0  0  0
  191.0130  176.6680  147.3730 C   0  0  0  0  0  0  0  0  0  0  0  0
  188.2320  177.9060  143.4370 N   0  0  0  0  0  2  0  0  0  0  0  0
  188.6170  177.0140  142.3520 C   0  0  0  0  0  2  0  0  0  0  0  0
  189.4930  177.7520  141.3590 C   0  0  0  0  0  2  0  0  0  0  0  0
  188.7900  177.8520  140.0160 C   0  0  0  0  0  2  0  0  0  0  0  0
  189.4580  176.9510  138.9930 C   0  0  0  0  0  2  0  0  0  0  0  0
  190.9130  176.7190  139.3670 C   0  0  0  0  0  2  0  0  0  0  0  0
  191.7580  176.5200  138.1190 C   0  0  0  0  0  2  0  0  0  0  0  0
  193.5800  177.1940  139.6100 O   0  0  0  0  0  0  0  0  0  0  0  0
  193.1720  176.5820  138.4490 N   0  0  0  0  0  0  0  0  0  0  0  0
  194.0040  175.9840  137.7390 O   0  0  0  0  0  0  0  0  0  0  0  0
  186.5390  177.2840  146.0490 C   0  0  0  0  0  2  0  0  0  0  0  0
  185.7070  179.3320  147.1530 N   0  0  0  0  0  2  0  0  0  0  0  0
  185.6320  179.4790  145.6930 C   0  0  2  0  0  3  0  0  0  0  0  0
  184.5080  178.6430  145.1220 C   0  0  2  0  0  3  0  0  0  0  0  0
  185.3360  178.1830  146.3180 C   0  0  1  0  0  0  0  0  0  0  0  0
  184.9440  178.0530  143.7860 C   0  0  0  0  0  2  0  0  0  0  0  0
  184.1370  178.6470  142.6830 C   0  0  0  0  0  0  0  0  0  0  0  0
  182.9110  178.8720  142.8650 O   0  0  0  0  0  0  0  0  0  0  0  0
  184.7700  178.9970  141.4050 C   0  0  0  0  0  0  0  0  0  0  0  0
  185.8970  179.5620  141.3880 O   0  0  0  0  0  1  0  0  0  0  0  0
  184.1320  178.7070  140.2050 O   0  0  0  0  0  0  0  0  0  0  0  0
  1  6  2  0  0  0  0
  1  4  1  0  0  0  0
  3  2  1  0  0  0  0
  4 20  1  1  0  0  0
  4  3  1  0  0  0  0
  5  3  2  0  0  0  0
  5  9  1  0  0  0  0
  6  5  1  0  0  0  0
  8  9  1  0  0  0  0
  9  7  2  0  0  0  0
 10  1  1  0  0  0  0
 11 10  1  0  0  0  0
 12 11  1  0  0  0  0
 13 12  1  0  0  0  0
 14 15  1  0  0  0  0
 14 13  1  0  0  0  0
 16 18  1  0  0  0  0
 16 15  1  0  0  0  0
 18 17  2  0  0  0  0
 19 18  2  0  0  0  0
 22 24  1  0  0  0  0
 22 21  1  1  0  0  0
 23 25  1  6  0  0  0
 23 22  1  0  0  0  0
 23 24  1  0  0  0  0
 24 20  1  6  0  0  0
 24 21  1  0  0  0  0
 26 27  2  0  0  0  0
 26 25  1  0  0  0  0
 28 26  1  0  0  0  0
 29 28  1  0  0  0  0
 30 28  2  0  0  0  0
M  END
>  <MODEL>
1

>  <REMARK>
 VINA RESULT:      -7.6      0.000      0.000
  Name = 
  14 active torsions:
  status: ('A' for Active; 'I' for Inactive)
    1  A    between atoms: C_2  and  N_8
    2  A    between atoms: C_2  and  C_10
    3  A    between atoms: C_4  and  N_8
    4  A    between atoms: C_5  and  C_22
    5  A    between atoms: C_10  and  C_12
    6  A    between atoms: C_11  and  C_15
    7  A    between atoms: C_11  and  C_22
    8  A    between atoms: C_12  and  C_28
    9  A    between atoms: N_13  and  C_18
   10  A    between atoms: C_18  and  C_25
   11  A    between atoms: C_21  and  C_24
   12  A    between atoms: C_23  and  C_24
   13  A    between atoms: C_25  and  C_28
   14  A    between atoms: C_27  and  C_29
                            x       y       z     vdW  Elec       q    Type
                         _______ _______ _______ _____ _____    ______ ____

>  <TORSDO>
F 14

$$$$
=
 OpenBabel10222417413D

 30 32  0  0  1  0  0  0  0  0999 V2000
  188.7950  177.7140  144.8020 C   0  0  0  0  0  0  0  0  0  0  0  0
  188.4810  177.8710  148.5320 C   0  0  0  0  0  1  0  0  0  0  0  0
  188.8330  177.6840  147.0940 C   0  0  0  0  0  0  0  0  0  0  0  0
  187.9380  178.0860  145.9690 C   0  0  2  0  0  3  0  0  0  0  0  0
  189.9740  177.1710  146.6320 C   0  0  0  0  0  0  0  0  0  0  0  0
  189.9570  177.1920  145.1750 C   0  0  0  0  0  3  0  0  0  0  0  0
  191.7620  177.4400  148.1820 O   0  0  0  0  0  0  0  0  0  0  0  0
  191.4860  175.3000  147.3450 N   0  0  0  0  0  1  0  0  0  0  0  0
  191.1120  176.6710  147.4270 C   0  0  0  0  0  0  0  0  0  0  0  0
  188.4190  177.9470  143.4430 N   0  0  0  0  0  2  0  0  0  0  0  0
  188.5720  176.9390  142.4030 C   0  0  0  0  0  2  0  0  0  0  0  0
  189.4510  177.4730  141.2880 C   0  0  0  0  0  2  0  0  0  0  0  0
  188.6250  178.3100  140.3270 C   0  0  0  0  0  2  0  0  0  0  0  0
  188.4150  177.5700  139.0170 C   0  0  0  0  0  2  0  0  0  0  0  0
  189.4840  177.9650  138.0120 C   0  0  0  0  0  2  0  0  0  0  0  0
  190.0530  176.7320  137.3290 C   0  0  0  0  0  2  0  0  0  0  0  0
  191.1110  174.7070  138.2100 O   0  0  0  0  0  0  0  0  0  0  0  0
  191.0260  176.0790  138.1890 N   0  0  0  0  0  0  0  0  0  0  0  0
  191.8570  176.7600  138.8210 O   0  0  0  0  0  0  0  0  0  0  0  0
  186.6660  177.2470  145.9940 C   0  0  0  0  0  2  0  0  0  0  0  0
  185.7280  179.2990  147.0030 N   0  0  0  0  0  2  0  0  0  0  0  0
  185.7570  179.4230  145.5390 C   0  0  2  0  0  3  0  0  0  0  0  0
  184.6890  178.5610  144.9020 C   0  0  2  0  0  3  0  0  0  0  0  0
  185.4350  178.1310  146.1610 C   0  0  1  0  0  0  0  0  0  0  0  0
  185.2290  177.9580  143.6100 C   0  0  0  0  0  2  0  0  0  0  0  0
  184.7810  178.7720  142.4450 C   0  0  0  0  0  0  0  0  0  0  0  0
  185.5150  179.7060  142.0240 O   0  0  0  0  0  0  0  0  0  0  0  0
  183.5110  178.4700  141.7730 C   0  0  0  0  0  0  0  0  0  0  0  0
  183.5050  177.8480  140.6760 O   0  0  0  0  0  0  0  0  0  0  0  0
  182.3070  178.8660  142.3420 O   0  0  0  0  0  1  0  0  0  0  0  0
  1  6  2  0  0  0  0
  1  4  1  0  0  0  0
  3  2  1  0  0  0  0
  4 20  1  6  0  0  0
  4  3  1  0  0  0  0
  5  3  2  0  0  0  0
  5  9  1  0  0  0  0
  6  5  1  0  0  0  0
  8  9  1  0  0  0  0
  9  7  2  0  0  0  0
 10  1  1  0  0  0  0
 11 10  1  0  0  0  0
 12 11  1  0  0  0  0
 13 12  1  0  0  0  0
 14 13  1  0  0  0  0
 15 14  1  0  0  0  0
 16 15  1  0  0  0  0
 16 18  1  0  0  0  0
 18 17  2  0  0  0  0
 18 19  2  0  0  0  0
 22 24  1  0  0  0  0
 22 21  1  1  0  0  0
 23 25  1  6  0  0  0
 23 22  1  0  0  0  0
 23 24  1  0  0  0  0
 24 20  1  6  0  0  0
 24 21  1  0  0  0  0
 26 25  1  0  0  0  0
 27 26  2  0  0  0  0
 28 30  1  0  0  0  0
 28 26  1  0  0  0  0
 29 28  2  0  0  0  0
M  END
>  <MODEL>
2

>  <REMARK>
 VINA RESULT:      -7.5      1.009      1.469
  Name = 
  14 active torsions:
  status: ('A' for Active; 'I' for Inactive)
    1  A    between atoms: C_2  and  N_8
    2  A    between atoms: C_2  and  C_10
    3  A    between atoms: C_4  and  N_8
    4  A    between atoms: C_5  and  C_22
    5  A    between atoms: C_10  and  C_12
    6  A    between atoms: C_11  and  C_15
    7  A    between atoms: C_11  and  C_22
    8  A    between atoms: C_12  and  C_28
    9  A    between atoms: N_13  and  C_18
   10  A    between atoms: C_18  and  C_25
   11  A    between atoms: C_21  and  C_24
   12  A    between atoms: C_23  and  C_24
   13  A    between atoms: C_25  and  C_28
   14  A    between atoms: C_27  and  C_29
                            x       y       z     vdW  Elec       q    Type
                         _______ _______ _______ _____ _____    ______ ____

>  <TORSDO>
F 14

$$$$
=
 OpenBabel10222417413D

 30 32  0  0  1  0  0  0  0  0999 V2000
  189.5260  177.8300  144.3080 C   0  0  0  0  0  0  0  0  0  0  0  0
  188.6990  177.2790  147.9210 C   0  0  0  0  0  1  0  0  0  0  0  0
  189.2600  177.3880  146.5410 C   0  0  0  0  0  0  0  0  0  0  0  0
  188.4840  177.9090  145.3770 C   0  0  2  0  0  3  0  0  0  0  0  0
  190.5020  177.0670  146.1780 C   0  0  0  0  0  0  0  0  0  0  0  0
  190.6780  177.3510  144.7600 C   0  0  0  0  0  3  0  0  0  0  0  0
  191.9440  177.1490  148.0730 O   0  0  0  0  0  0  0  0  0  0  0  0
  192.1960  175.2940  146.7110 N   0  0  0  0  0  1  0  0  0  0  0  0
  191.5710  176.5300  147.0420 C   0  0  0  0  0  0  0  0  0  0  0  0
  189.3120  178.2720  142.9660 N   0  0  0  0  0  2  0  0  0  0  0  0
  189.3480  177.3670  141.8260 C   0  0  0  0  0  2  0  0  0  0  0  0
  190.7510  177.3100  141.2520 C   0  0  0  0  0  2  0  0  0  0  0  0
  190.7050  176.8460  139.8060 C   0  0  0  0  0  2  0  0  0  0  0  0
  189.3280  177.0830  139.2110 C   0  0  0  0  0  2  0  0  0  0  0  0
  189.4030  178.1330  138.1150 C   0  0  0  0  0  2  0  0  0  0  0  0
  188.8760  177.5720  136.8040 C   0  0  0  0  0  2  0  0  0  0  0  0
  187.2340  178.1230  135.0730 O   0  0  0  0  0  0  0  0  0  0  0  0
  187.7820  178.3880  136.3060 N   0  0  0  0  0  0  0  0  0  0  0  0
  187.2660  179.2540  137.0380 O   0  0  0  0  0  0  0  0  0  0  0  0
  187.3220  176.9730  145.0680 C   0  0  0  0  0  2  0  0  0  0  0  0
  186.1520  178.6090  146.5040 N   0  0  0  0  0  2  0  0  0  0  0  0
  186.1200  179.0520  145.1030 C   0  0  2  0  0  3  0  0  0  0  0  0
  185.1570  178.2130  144.2930 C   0  0  2  0  0  3  0  0  0  0  0  0
  185.9900  177.6240  145.4270 C   0  0  1  0  0  0  0  0  0  0  0  0
  185.7330  177.9850  142.9000 C   0  0  0  0  0  2  0  0  0  0  0  0
  184.8230  178.5690  141.8740 C   0  0  0  0  0  0  0  0  0  0  0  0
  183.5960  178.6920  142.1330 O   0  0  0  0  0  0  0  0  0  0  0  0
  185.3550  179.0280  140.5840 C   0  0  0  0  0  0  0  0  0  0  0  0
  186.5320  178.7340  140.2430 O   0  0  0  0  0  1  0  0  0  0  0  0
  184.5640  179.7870  139.7310 O   0  0  0  0  0  0  0  0  0  0  0  0
  1  6  2  0  0  0  0
  1  4  1  0  0  0  0
  3  2  1  0  0  0  0
  4 20  1  6  0  0  0
  4  3  1  0  0  0  0
  5  3  2  0  0  0  0
  5  9  1  0  0  0  0
  6  5  1  0  0  0  0
  8  9  1  0  0  0  0
  9  7  2  0  0  0  0
 10  1  1  0  0  0  0
 11 10  1  0  0  0  0
 12 11  1  0  0  0  0
 13 12  1  0  0  0  0
 14 13  1  0  0  0  0
 15 14  1  0  0  0  0
 16 15  1  0  0  0  0
 17 18  2  0  0  0  0
 18 16  1  0  0  0  0
 18 19  2  0  0  0  0
 22 24  1  0  0  0  0
 22 21  1  1  0  0  0
 23 25  1  6  0  0  0
 23 22  1  0  0  0  0
 23 24  1  0  0  0  0
 24 20  1  6  0  0  0
 24 21  1  0  0  0  0
 26 27  2  0  0  0  0
 26 25  1  0  0  0  0
 28 26  1  0  0  0  0
 29 28  1  0  0  0  0
 30 28  2  0  0  0  0
M  END
>  <MODEL>
3

>  <REMARK>
 VINA RESULT:      -7.4      2.389      2.600
  Name = 
  14 active torsions:
  status: ('A' for Active; 'I' for Inactive)
    1  A    between atoms: C_2  and  N_8
    2  A    between atoms: C_2  and  C_10
    3  A    between atoms: C_4  and  N_8
    4  A    between atoms: C_5  and  C_22
    5  A    between atoms: C_10  and  C_12
    6  A    between atoms: C_11  and  C_15
    7  A    between atoms: C_11  and  C_22
    8  A    between atoms: C_12  and  C_28
    9  A    between atoms: N_13  and  C_18
   10  A    between atoms: C_18  and  C_25
   11  A    between atoms: C_21  and  C_24
   12  A    between atoms: C_23  and  C_24
   13  A    between atoms: C_25  and  C_28
   14  A    between atoms: C_27  and  C_29
                            x       y       z     vdW  Elec       q    Type
                         _______ _______ _______ _____ _____    ______ ____

>  <TORSDO>
F 14

$$$$
=
 OpenBabel10222417413D

 30 32  0  0  1  0  0  0  0  0999 V2000
  187.9410  177.3640  144.6120 C   0  0  0  0  0  0  0  0  0  0  0  0
  191.0490  176.8760  146.6470 C   0  0  0  0  0  1  0  0  0  0  0  0
  189.7080  177.1660  146.0590 C   0  0  0  0  0  0  0  0  0  0  0  0
  189.3810  176.9650  144.6170 C   0  0  2  0  0  3  0  0  0  0  0  0
  188.6440  177.6080  146.7290 C   0  0  0  0  0  0  0  0  0  0  0  0
  187.5160  177.7310  145.8150 C   0  0  0  0  0  3  0  0  0  0  0  0
  189.3880  178.6960  148.7130 O   0  0  0  0  0  0  0  0  0  0  0  0
  187.5400  177.3240  148.9640 N   0  0  0  0  0  1  0  0  0  0  0  0
  188.5630  177.9150  148.1700 C   0  0  0  0  0  0  0  0  0  0  0  0
  187.1100  177.3020  143.4510 N   0  0  0  0  0  2  0  0  0  0  0  0
  186.2650  178.4110  143.0310 C   0  0  0  0  0  2  0  0  0  0  0  0
  184.8130  178.1050  143.3420 C   0  0  0  0  0  2  0  0  0  0  0  0
  184.3470  178.9320  144.5280 C   0  0  0  0  0  2  0  0  0  0  0  0
  182.8340  179.0570  144.5330 C   0  0  0  0  0  2  0  0  0  0  0  0
  182.2840  178.8490  143.1320 C   0  0  0  0  0  2  0  0  0  0  0  0
  180.8740  179.4080  143.0250 C   0  0  0  0  0  2  0  0  0  0  0  0
  179.5350  177.5070  142.2590 O   0  0  0  0  0  0  0  0  0  0  0  0
  179.8940  178.3640  143.2720 N   0  0  0  0  0  0  0  0  0  0  0  0
  179.4640  178.1730  144.4260 O   0  0  0  0  0  0  0  0  0  0  0  0
  190.2080  177.9180  143.7610 C   0  0  0  0  0  2  0  0  0  0  0  0
  191.5230  175.8470  143.4650 N   0  0  0  0  0  2  0  0  0  0  0  0
  190.4790  175.9330  142.4350 C   0  0  2  0  0  3  0  0  0  0  0  0
  190.8250  176.9810  141.4010 C   0  0  2  0  0  3  0  0  0  0  0  0
  191.1810  177.1470  142.8740 C   0  0  1  0  0  0  0  0  0  0  0  0
  189.5550  177.7060  140.9710 C   0  0  0  0  0  2  0  0  0  0  0  0
  189.3480  177.5400  139.5040 C   0  0  0  0  0  0  0  0  0  0  0  0
  189.9170  176.5900  138.9030 O   0  0  0  0  0  0  0  0  0  0  0  0
  188.4650  178.4560  138.7710 C   0  0  0  0  0  0  0  0  0  0  0  0
  187.2220  178.4390  138.9760 O   0  0  0  0  0  1  0  0  0  0  0  0
  188.9940  179.3480  137.8460 O   0  0  0  0  0  0  0  0  0  0  0  0
  1  4  1  0  0  0  0
  1  6  2  0  0  0  0
  3  2  1  0  0  0  0
  3  5  2  0  0  0  0
  4 20  1  6  0  0  0
  4  3  1  0  0  0  0
  5  9  1  0  0  0  0
  6  5  1  0  0  0  0
  9  7  2  0  0  0  0
  9  8  1  0  0  0  0
 10  1  1  0  0  0  0
 11 12  1  0  0  0  0
 11 10  1  0  0  0  0
 12 13  1  0  0  0  0
 13 14  1  0  0  0  0
 15 14  1  0  0  0  0
 16 15  1  0  0  0  0
 16 18  1  0  0  0  0
 17 18  2  0  0  0  0
 18 19  2  0  0  0  0
 22 24  1  0  0  0  0
 22 21  1  6  0  0  0
 23 25  1  1  0  0  0
 23 22  1  0  0  0  0
 23 24  1  0  0  0  0
 24 21  1  0  0  0  0
 24 20  1  1  0  0  0
 26 25  1  0  0  0  0
 27 26  2  0  0  0  0
 28 29  1  0  0  0  0
 28 26  1  0  0  0  0
 30 28  2  0  0  0  0
M  END
>  <MODEL>
4

>  <REMARK>
 VINA RESULT:      -7.4      2.583      7.208
  Name = 
  14 active torsions:
  status: ('A' for Active; 'I' for Inactive)
    1  A    between atoms: C_2  and  N_8
    2  A    between atoms: C_2  and  C_10
    3  A    between atoms: C_4  and  N_8
    4  A    between atoms: C_5  and  C_22
    5  A    between atoms: C_10  and  C_12
    6  A    between atoms: C_11  and  C_15
    7  A    between atoms: C_11  and  C_22
    8  A    between atoms: C_12  and  C_28
    9  A    between atoms: N_13  and  C_18
   10  A    between atoms: C_18  and  C_25
   11  A    between atoms: C_21  and  C_24
   12  A    between atoms: C_23  and  C_24
   13  A    between atoms: C_25  and  C_28
   14  A    between atoms: C_27  and  C_29
                            x       y       z     vdW  Elec       q    Type
                         _______ _______ _______ _____ _____    ______ ____

>  <TORSDO>
F 14

$$$$
=
 OpenBabel10222417413D

 30 32  0  0  1  0  0  0  0  0999 V2000
  188.1890  177.2890  144.7570 C   0  0  0  0  0  0  0  0  0  0  0  0
  191.5810  175.9980  143.8260 C   0  0  0  0  0  1  0  0  0  0  0  0
  190.3360  176.5550  144.4340 C   0  0  1  0  0  3  0  0  0  0  0  0
  189.0740  176.7730  143.6680 C   0  0  2  0  0  3  0  0  0  0  0  0
  190.1810  176.8990  145.7120 C   0  0  0  0  0  0  0  0  0  0  0  0
  188.8160  177.3620  145.9250 C   0  0  0  0  0  3  0  0  0  0  0  0
  192.2800  176.2130  146.6060 O   0  0  0  0  0  0  0  0  0  0  0  0
  190.9390  177.4350  148.0430 N   0  0  0  0  0  1  0  0  0  0  0  0
  191.1920  176.8190  146.7850 C   0  0  0  0  0  0  0  0  0  0  0  0
  186.8100  177.6130  144.5650 N   0  0  0  0  0  0  0  0  0  0  0  0
  185.9170  177.9300  145.6710 C   0  0  0  0  0  2  0  0  0  0  0  0
  184.8400  178.8920  145.2080 C   0  0  0  0  0  2  0  0  0  0  0  0
  184.9780  179.1540  143.7180 C   0  0  0  0  0  2  0  0  0  0  0  0
  183.6930  178.8010  142.9900 C   0  0  0  0  0  2  0  0  0  0  0  0
  184.0080  178.1290  141.6640 C   0  0  0  0  0  2  0  0  0  0  0  0
  182.9080  178.4080  140.6520 C   0  0  0  0  0  2  0  0  0  0  0  0
  184.6510  179.8420  139.7030 O   0  0  0  0  0  0  0  0  0  0  0  0
  183.3560  179.3840  139.6730 N   0  0  0  0  0  0  0  0  0  0  0  0
  182.6020  179.7220  138.7390 O   0  0  0  0  0  0  0  0  0  0  0  0
  189.2930  177.8390  142.6010 C   0  0  0  0  0  2  0  0  0  0  0  0
  187.4380  178.4280  141.0780 N   0  0  0  0  0  2  0  0  0  0  0  0
  188.7290  178.6190  140.4010 C   0  0  2  0  0  3  0  0  0  0  0  0
  189.3560  177.2890  140.0480 C   0  0  2  0  0  3  0  0  0  0  0  0
  188.5410  177.4890  141.3210 C   0  0  1  0  0  0  0  0  0  0  0  0
  190.8660  177.3730  140.2420 C   0  0  0  0  0  2  0  0  0  0  0  0
  191.5560  176.5410  139.2170 C   0  0  0  0  0  0  0  0  0  0  0  0
  190.9150  175.6360  138.6210 O   0  0  0  0  0  0  0  0  0  0  0  0
  192.9630  176.7950  138.8800 C   0  0  0  0  0  0  0  0  0  0  0  0
  193.3770  176.6120  137.7040 O   0  0  0  0  0  0  0  0  0  0  0  0
  193.8470  177.2400  139.8550 O   0  0  0  0  0  1  0  0  0  0  0  0
  1  6  1  0  0  0  0
  3  2  1  1  0  0  0
  3  5  1  0  0  0  0
  4 20  1  6  0  0  0
  4  3  1  0  0  0  0
  4  1  1  0  0  0  0
  5  6  2  0  0  0  0
  5  9  1  0  0  0  0
  7  9  2  0  0  0  0
  9  8  1  0  0  0  0
 10  1  2  0  0  0  0
 10 11  1  0  0  0  0
 12 11  1  0  0  0  0
 13 12  1  0  0  0  0
 14 13  1  0  0  0  0
 15 14  1  0  0  0  0
 16 15  1  0  0  0  0
 18 17  2  0  0  0  0
 18 16  1  0  0  0  0
 19 18  2  0  0  0  0
 21 24  1  0  0  0  0
 22 21  1  6  0  0  0
 22 24  1  0  0  0  0
 23 25  1  1  0  0  0
 23 22  1  0  0  0  0
 23 24  1  0  0  0  0
 24 20  1  1  0  0  0
 26 25  1  0  0  0  0
 27 26  2  0  0  0  0
 28 26  1  0  0  0  0
 28 30  1  0  0  0  0
 29 28  2  0  0  0  0
M  END
>  <MODEL>
5

>  <REMARK>
 VINA RESULT:      -7.2      1.935      6.690
  Name = 
  14 active torsions:
  status: ('A' for Active; 'I' for Inactive)
    1  A    between atoms: C_2  and  N_8
    2  A    between atoms: C_2  and  C_10
    3  A    between atoms: C_4  and  N_8
    4  A    between atoms: C_5  and  C_22
    5  A    between atoms: C_10  and  C_12
    6  A    between atoms: C_11  and  C_15
    7  A    between atoms: C_11  and  C_22
    8  A    between atoms: C_12  and  C_28
    9  A    between atoms: N_13  and  C_18
   10  A    between atoms: C_18  and  C_25
   11  A    between atoms: C_21  and  C_24
   12  A    between atoms: C_23  and  C_24
   13  A    between atoms: C_25  and  C_28
   14  A    between atoms: C_27  and  C_29
                            x       y       z     vdW  Elec       q    Type
                         _______ _______ _______ _____ _____    ______ ____

>  <TORSDO>
F 14

$$$$
=
 OpenBabel10222417413D

 30 32  0  0  1  0  0  0  0  0999 V2000
  185.5830  178.9880  142.0630 C   0  0  0  0  0  0  0  0  0  0  0  0
  186.8860  176.8750  144.8690 C   0  0  0  0  0  1  0  0  0  0  0  0
  186.2360  177.8450  143.9400 C   0  0  0  0  0  0  0  0  0  0  0  0
  186.5120  177.8910  142.4740 C   0  0  2  0  0  3  0  0  0  0  0  0
  185.3280  178.7600  144.2800 C   0  0  0  0  0  0  0  0  0  0  0  0
  184.9060  179.4860  143.0900 C   0  0  0  0  0  3  0  0  0  0  0  0
  183.5480  178.9610  145.8510 O   0  0  0  0  0  0  0  0  0  0  0  0
  185.6690  179.3370  146.6980 N   0  0  0  0  0  1  0  0  0  0  0  0
  184.7860  179.0180  145.6290 C   0  0  0  0  0  0  0  0  0  0  0  0
  185.4120  179.4090  140.7080 N   0  0  0  0  0  2  0  0  0  0  0  0
  184.8920  178.5280  139.6730 C   0  0  0  0  0  2  0  0  0  0  0  0
  183.7930  179.2290  138.8980 C   0  0  0  0  0  2  0  0  0  0  0  0
  182.5300  179.3060  139.7380 C   0  0  0  0  0  2  0  0  0  0  0  0
  181.7330  178.0190  139.6270 C   0  0  0  0  0  2  0  0  0  0  0  0
  180.8780  177.8200  140.8680 C   0  0  0  0  0  2  0  0  0  0  0  0
  181.2770  178.8080  141.9520 C   0  0  0  0  0  2  0  0  0  0  0  0
  180.0160  180.6790  142.9040 O   0  0  0  0  0  0  0  0  0  0  0  0
  180.0970  179.3370  142.6160 N   0  0  0  0  0  0  0  0  0  0  0  0
  179.1140  178.5990  142.8230 O   0  0  0  0  0  0  0  0  0  0  0  0
  187.9620  178.2930  142.2330 C   0  0  0  0  0  2  0  0  0  0  0  0
  189.1530  177.2960  140.3100 N   0  0  0  0  0  2  0  0  0  0  0  0
  190.1070  177.6310  141.3770 C   0  0  2  0  0  3  0  0  0  0  0  0
  189.9840  176.6650  142.5350 C   0  0  2  0  0  3  0  0  0  0  0  0
  188.7760  177.1100  141.7170 C   0  0  1  0  0  0  0  0  0  0  0  0
  190.1740  177.4200  143.8460 C   0  0  0  0  0  2  0  0  0  0  0  0
  191.0460  176.6320  144.7620 C   0  0  0  0  0  0  0  0  0  0  0  0
  191.8510  175.7920  144.2790 O   0  0  0  0  0  0  0  0  0  0  0  0
  190.9930  176.8560  146.2120 C   0  0  0  0  0  0  0  0  0  0  0  0
  189.9150  177.2090  146.7610 O   0  0  0  0  0  0  0  0  0  0  0  0
  192.1310  176.6770  146.9900 O   0  0  0  0  0  1  0  0  0  0  0  0
  1  4  1  0  0  0  0
  1  6  2  0  0  0  0
  3  5  2  0  0  0  0
  3  2  1  0  0  0  0
  4 20  1  1  0  0  0
  4  3  1  0  0  0  0
  5  9  1  0  0  0  0
  6  5  1  0  0  0  0
  9  7  2  0  0  0  0
  9  8  1  0  0  0  0
 10  1  1  0  0  0  0
 11 10  1  0  0  0  0
 12 11  1  0  0  0  0
 12 13  1  0  0  0  0
 14 13  1  0  0  0  0
 14 15  1  0  0  0  0
 15 16  1  0  0  0  0
 16 18  1  0  0  0  0
 18 19  2  0  0  0  0
 18 17  2  0  0  0  0
 21 24  1  0  0  0  0
 22 21  1  6  0  0  0
 22 24  1  0  0  0  0
 22 23  1  0  0  0  0
 23 25  1  1  0  0  0
 24 20  1  1  0  0  0
 24 23  1  0  0  0  0
 25 26  1  0  0  0  0
 26 28  1  0  0  0  0
 27 26  2  0  0  0  0
 28 29  2  0  0  0  0
 28 30  1  0  0  0  0
M  END
>  <MODEL>
6

>  <REMARK>
 VINA RESULT:      -7.2      3.110      8.118
  Name = 
  14 active torsions:
  status: ('A' for Active; 'I' for Inactive)
    1  A    between atoms: C_2  and  N_8
    2  A    between atoms: C_2  and  C_10
    3  A    between atoms: C_4  and  N_8
    4  A    between atoms: C_5  and  C_22
    5  A    between atoms: C_10  and  C_12
    6  A    between atoms: C_11  and  C_15
    7  A    between atoms: C_11  and  C_22
    8  A    between atoms: C_12  and  C_28
    9  A    between atoms: N_13  and  C_18
   10  A    between atoms: C_18  and  C_25
   11  A    between atoms: C_21  and  C_24
   12  A    between atoms: C_23  and  C_24
   13  A    between atoms: C_25  and  C_28
   14  A    between atoms: C_27  and  C_29
                            x       y       z     vdW  Elec       q    Type
                         _______ _______ _______ _____ _____    ______ ____

>  <TORSDO>
F 14

$$$$
=
 OpenBabel10222417413D

 30 32  0  0  1  0  0  0  0  0999 V2000
  183.8590  179.1270  144.2940 C   0  0  0  0  0  0  0  0  0  0  0  0
  181.9780  178.8840  141.0630 C   0  0  0  0  0  1  0  0  0  0  0  0
  182.4920  178.9440  142.4630 C   0  0  0  0  0  0  0  0  0  0  0  0
  183.9400  179.0770  142.8020 C   0  0  2  0  0  3  0  0  0  0  0  0
  181.7470  178.9150  143.5680 C   0  0  0  0  0  0  0  0  0  0  0  0
  182.6110  179.0350  144.7350 C   0  0  0  0  0  3  0  0  0  0  0  0
  179.5390  179.7980  143.4230 O   0  0  0  0  0  0  0  0  0  0  0  0
  179.6790  177.5570  143.9850 N   0  0  0  0  0  1  0  0  0  0  0  0
  180.2780  178.8030  143.6480 C   0  0  0  0  0  0  0  0  0  0  0  0
  184.9980  179.3070  145.1390 N   0  0  0  0  0  2  0  0  0  0  0  0
  185.1310  178.6450  146.4280 C   0  0  0  0  0  2  0  0  0  0  0  0
  186.2320  177.6040  146.3670 C   0  0  0  0  0  2  0  0  0  0  0  0
  187.5740  178.2460  146.6740 C   0  0  0  0  0  2  0  0  0  0  0  0
  188.0520  177.8530  148.0600 C   0  0  0  0  0  2  0  0  0  0  0  0
  189.5400  177.5440  148.0360 C   0  0  0  0  0  2  0  0  0  0  0  0
  189.9790  177.1510  146.6350 C   0  0  0  0  0  2  0  0  0  0  0  0
  191.8980  176.1320  145.5060 O   0  0  0  0  0  0  0  0  0  0  0  0
  191.3420  176.6460  146.6530 N   0  0  0  0  0  0  0  0  0  0  0  0
  192.0440  176.7820  147.6740 O   0  0  0  0  0  0  0  0  0  0  0  0
  184.6940  177.8340  142.3440 C   0  0  0  0  0  2  0  0  0  0  0  0
  185.4450  179.4980  140.6780 N   0  0  0  0  0  2  0  0  0  0  0  0
  186.4350  179.3820  141.7590 C   0  0  2  0  0  3  0  0  0  0  0  0
  187.2020  178.0830  141.6520 C   0  0  2  0  0  3  0  0  0  0  0  0
  185.7270  178.1880  141.2780 C   0  0  1  0  0  0  0  0  0  0  0  0
  187.4630  177.5340  143.0500 C   0  0  0  0  0  2  0  0  0  0  0  0
  188.7950  176.8670  143.0920 C   0  0  0  0  0  0  0  0  0  0  0  0
  188.8560  175.6130  143.1960 O   0  0  0  0  0  0  0  0  0  0  0  0
  190.0260  177.6600  142.9800 C   0  0  0  0  0  0  0  0  0  0  0  0
  191.0670  177.1510  142.4840 O   0  0  0  0  0  0  0  0  0  0  0  0
  190.0510  178.9780  143.4190 O   0  0  0  0  0  1  0  0  0  0  0  0
  1  6  2  0  0  0  0
  1 10  1  0  0  0  0
  2  3  1  0  0  0  0
  3  4  1  0  0  0  0
  3  5  2  0  0  0  0
  4 20  1  1  0  0  0
  4  1  1  0  0  0  0
  5  9  1  0  0  0  0
  5  6  1  0  0  0  0
  7  9  2  0  0  0  0
  9  8  1  0  0  0  0
 10 11  1  0  0  0  0
 12 11  1  0  0  0  0
 12 13  1  0  0  0  0
 13 14  1  0  0  0  0
 15 14  1  0  0  0  0
 16 18  1  0  0  0  0
 16 15  1  0  0  0  0
 17 18  2  0  0  0  0
 18 19  2  0  0  0  0
 21 24  1  0  0  0  0
 22 21  1  6  0  0  0
 23 22  1  0  0  0  0
 23 25  1  1  0  0  0
 24 23  1  0  0  0  0
 24 22  1  0  0  0  0
 24 20  1  1  0  0  0
 25 26  1  0  0  0  0
 26 27  2  0  0  0  0
 28 26  1  0  0  0  0
 28 30  1  0  0  0  0
 29 28  2  0  0  0  0
M  END
>  <MODEL>
7

>  <REMARK>
 VINA RESULT:      -7.1      3.109      7.519
  Name = 
  14 active torsions:
  status: ('A' for Active; 'I' for Inactive)
    1  A    between atoms: C_2  and  N_8
    2  A    between atoms: C_2  and  C_10
    3  A    between atoms: C_4  and  N_8
    4  A    between atoms: C_5  and  C_22
    5  A    between atoms: C_10  and  C_12
    6  A    between atoms: C_11  and  C_15
    7  A    between atoms: C_11  and  C_22
    8  A    between atoms: C_12  and  C_28
    9  A    between atoms: N_13  and  C_18
   10  A    between atoms: C_18  and  C_25
   11  A    between atoms: C_21  and  C_24
   12  A    between atoms: C_23  and  C_24
   13  A    between atoms: C_25  and  C_28
   14  A    between atoms: C_27  and  C_29
                            x       y       z     vdW  Elec       q    Type
                         _______ _______ _______ _____ _____    ______ ____

>  <TORSDO>
F 14

$$$$
=
 OpenBabel10222417413D

 30 32  0  0  1  0  0  0  0  0999 V2000
  187.6740  178.3380  141.1310 C   0  0  0  0  0  0  0  0  0  0  0  0
  186.8460  177.1460  144.5850 C   0  0  0  0  0  1  0  0  0  0  0  0
  186.9510  177.7560  143.2270 C   0  0  0  0  0  0  0  0  0  0  0  0
  188.1220  177.5570  142.3240 C   0  0  2  0  0  3  0  0  0  0  0  0
  186.0270  178.5200  142.6430 C   0  0  0  0  0  0  0  0  0  0  0  0
  186.4790  178.8880  141.3080 C   0  0  0  0  0  3  0  0  0  0  0  0
  184.6670  179.6510  144.2400 O   0  0  0  0  0  0  0  0  0  0  0  0
  183.5180  178.5180  142.5800 N   0  0  0  0  0  1  0  0  0  0  0  0
  184.7270  178.9330  143.2070 C   0  0  0  0  0  0  0  0  0  0  0  0
  188.4290  178.4310  139.9210 N   0  0  0  0  0  2  0  0  0  0  0  0
  188.5920  177.3080  139.0100 C   0  0  0  0  0  2  0  0  0  0  0  0
  189.0540  177.8030  137.6530 C   0  0  0  0  0  2  0  0  0  0  0  0
  190.1780  176.9250  137.1310 C   0  0  0  0  0  2  0  0  0  0  0  0
  190.2180  175.6040  137.8790 C   0  0  0  0  0  2  0  0  0  0  0  0
  191.5090  174.8640  137.5710 C   0  0  0  0  0  2  0  0  0  0  0  0
  192.5570  175.8230  137.0300 C   0  0  0  0  0  2  0  0  0  0  0  0
  194.8390  175.3060  137.7500 O   0  0  0  0  0  0  0  0  0  0  0  0
  193.6530  175.9630  137.9740 N   0  0  0  0  0  0  0  0  0  0  0  0
  193.5590  176.7630  138.9250 O   0  0  0  0  0  0  0  0  0  0  0  0
  189.3660  178.1840  142.9430 C   0  0  0  0  0  2  0  0  0  0  0  0
  191.5790  177.4560  142.1200 N   0  0  0  0  0  2  0  0  0  0  0  0
  191.6790  177.8910  143.5200 C   0  0  2  0  0  3  0  0  0  0  0  0
  191.0530  176.8740  144.4480 C   0  0  2  0  0  3  0  0  0  0  0  0
  190.4900  177.1600  143.0600 C   0  0  1  0  0  0  0  0  0  0  0  0
  190.3370  177.5980  145.5830 C   0  0  0  0  0  2  0  0  0  0  0  0
  190.3870  176.7720  146.8220 C   0  0  0  0  0  0  0  0  0  0  0  0
  189.3110  176.3810  147.3490 O   0  0  0  0  0  0  0  0  0  0  0  0
  191.6780  176.3880  147.4070 C   0  0  0  0  0  0  0  0  0  0  0  0
  192.1720  177.0610  148.3510 O   0  0  0  0  0  1  0  0  0  0  0  0
  192.3640  175.2800  146.9240 O   0  0  0  0  0  0  0  0  0  0  0  0
  1  6  2  0  0  0  0
  1  4  1  0  0  0  0
  3  2  1  0  0  0  0
  4 20  1  1  0  0  0
  4  3  1  0  0  0  0
  5  9  1  0  0  0  0
  5  3  2  0  0  0  0
  6  5  1  0  0  0  0
  8  9  1  0  0  0  0
  9  7  2  0  0  0  0
 10  1  1  0  0  0  0
 11 10  1  0  0  0  0
 12 11  1  0  0  0  0
 13 12  1  0  0  0  0
 13 14  1  0  0  0  0
 15 14  1  0  0  0  0
 16 15  1  0  0  0  0
 16 18  1  0  0  0  0
 17 18  2  0  0  0  0
 18 19  2  0  0  0  0
 21 24  1  0  0  0  0
 22 21  1  6  0  0  0
 22 23  1  0  0  0  0
 23 25  1  1  0  0  0
 24 20  1  6  0  0  0
 24 22  1  0  0  0  0
 24 23  1  0  0  0  0
 25 26  1  0  0  0  0
 26 27  2  0  0  0  0
 26 28  1  0  0  0  0
 28 29  1  0  0  0  0
 30 28  2  0  0  0  0
M  END
>  <MODEL>
8

>  <REMARK>
 VINA RESULT:      -7.1      2.334      6.067
  Name = 
  14 active torsions:
  status: ('A' for Active; 'I' for Inactive)
    1  A    between atoms: C_2  and  N_8
    2  A    between atoms: C_2  and  C_10
    3  A    between atoms: C_4  and  N_8
    4  A    between atoms: C_5  and  C_22
    5  A    between atoms: C_10  and  C_12
    6  A    between atoms: C_11  and  C_15
    7  A    between atoms: C_11  and  C_22
    8  A    between atoms: C_12  and  C_28
    9  A    between atoms: N_13  and  C_18
   10  A    between atoms: C_18  and  C_25
   11  A    between atoms: C_21  and  C_24
   12  A    between atoms: C_23  and  C_24
   13  A    between atoms: C_25  and  C_28
   14  A    between atoms: C_27  and  C_29
                            x       y       z     vdW  Elec       q    Type
                         _______ _______ _______ _____ _____    ______ ____

>  <TORSDO>
F 14

$$$$
=
 OpenBabel10222417413D

 30 32  0  0  1  0  0  0  0  0999 V2000
  187.0230  177.6930  143.1330 C   0  0  0  0  0  0  0  0  0  0  0  0
  184.3330  179.9940  144.3610 C   0  0  0  0  0  1  0  0  0  0  0  0
  185.4150  178.9940  144.1210 C   0  0  0  0  0  0  0  0  0  0  0  0
  185.9890  178.7100  142.7730 C   0  0  2  0  0  3  0  0  0  0  0  0
  186.0160  178.2570  145.0560 C   0  0  0  0  0  0  0  0  0  0  0  0
  187.0430  177.4320  144.4340 C   0  0  0  0  0  3  0  0  0  0  0  0
  184.5550  178.2530  146.9390 O   0  0  0  0  0  0  0  0  0  0  0  0
  186.8170  178.2680  147.4340 N   0  0  0  0  0  1  0  0  0  0  0  0
  185.7380  178.2590  146.5060 C   0  0  0  0  0  0  0  0  0  0  0  0
  187.9220  177.1130  142.1850 N   0  0  0  0  0  2  0  0  0  0  0  0
  188.9310  177.8920  141.4820 C   0  0  0  0  0  2  0  0  0  0  0  0
  190.3000  177.2690  141.6800 C   0  0  0  0  0  2  0  0  0  0  0  0
  190.1820  176.0080  142.5190 C   0  0  0  0  0  2  0  0  0  0  0  0
  191.2150  176.0060  143.6310 C   0  0  0  0  0  2  0  0  0  0  0  0
  191.5280  177.4290  144.0620 C   0  0  0  0  0  2  0  0  0  0  0  0
  190.6210  177.8500  145.2070 C   0  0  0  0  0  2  0  0  0  0  0  0
  192.0550  176.7520  146.8600 O   0  0  0  0  0  0  0  0  0  0  0  0
  190.7980  176.9650  146.3460 N   0  0  0  0  0  0  0  0  0  0  0  0
  189.8040  176.4880  146.9270 O   0  0  0  0  0  0  0  0  0  0  0  0
  184.9210  178.0980  141.8740 C   0  0  0  0  0  2  0  0  0  0  0  0
  185.5190  179.0020  139.6530 N   0  0  0  0  0  2  0  0  0  0  0  0
  184.2710  178.2310  139.5650 C   0  0  2  0  0  3  0  0  0  0  0  0
  183.1230  178.9850  140.1980 C   0  0  2  0  0  3  0  0  0  0  0  0
  184.5430  179.0570  140.7490 C   0  0  1  0  0  0  0  0  0  0  0  0
  182.2110  178.0040  140.9250 C   0  0  0  0  0  2  0  0  0  0  0  0
  180.9500  178.6870  141.3280 C   0  0  0  0  0  0  0  0  0  0  0  0
  179.9890  178.7430  140.5140 O   0  0  0  0  0  0  0  0  0  0  0  0
  180.8140  179.2620  142.6720 C   0  0  0  0  0  0  0  0  0  0  0  0
  181.2310  178.6290  143.6790 O   0  0  0  0  0  1  0  0  0  0  0  0
  180.2270  180.5100  142.8430 O   0  0  0  0  0  0  0  0  0  0  0  0
  1  6  2  0  0  0  0
  3  2  1  0  0  0  0
  3  5  2  0  0  0  0
  4 20  1  6  0  0  0
  4  1  1  0  0  0  0
  4  3  1  0  0  0  0
  5  9  1  0  0  0  0
  6  5  1  0  0  0  0
  9  7  2  0  0  0  0
  9  8  1  0  0  0  0
 10  1  1  0  0  0  0
 11 12  1  0  0  0  0
 11 10  1  0  0  0  0
 12 13  1  0  0  0  0
 13 14  1  0  0  0  0
 14 15  1  0  0  0  0
 15 16  1  0  0  0  0
 16 18  1  0  0  0  0
 18 17  2  0  0  0  0
 18 19  2  0  0  0  0
 21 24  1  0  0  0  0
 22 21  1  6  0  0  0
 22 23  1  0  0  0  0
 22 24  1  0  0  0  0
 23 24  1  0  0  0  0
 23 25  1  1  0  0  0
 24 20  1  1  0  0  0
 25 26  1  0  0  0  0
 26 28  1  0  0  0  0
 27 26  2  0  0  0  0
 28 30  2  0  0  0  0
 28 29  1  0  0  0  0
M  END
>  <MODEL>
9

>  <REMARK>
 VINA RESULT:      -7.1      3.273      5.330
  Name = 
  14 active torsions:
  status: ('A' for Active; 'I' for Inactive)
    1  A    between atoms: C_2  and  N_8
    2  A    between atoms: C_2  and  C_10
    3  A    between atoms: C_4  and  N_8
    4  A    between atoms: C_5  and  C_22
    5  A    between atoms: C_10  and  C_12
    6  A    between atoms: C_11  and  C_15
    7  A    between atoms: C_11  and  C_22
    8  A    between atoms: C_12  and  C_28
    9  A    between atoms: N_13  and  C_18
   10  A    between atoms: C_18  and  C_25
   11  A    between atoms: C_21  and  C_24
   12  A    between atoms: C_23  and  C_24
   13  A    between atoms: C_25  and  C_28
   14  A    between atoms: C_27  and  C_29
                            x       y       z     vdW  Elec       q    Type
                         _______ _______ _______ _____ _____    ______ ____

>  <TORSDO>
F 14

$$$$
