=
 OpenBabel10222419413D

 36 41  0  0  1  0  0  0  0  0999 V2000
  187.6640  177.7650  145.9090 C   0  0  0  0  0  0  0  0  0  0  0  0
  182.6230  178.5850  142.0640 C   0  0  0  0  0  3  0  0  0  0  0  0
  188.5800  177.3180  144.9750 C   0  0  0  0  0  0  0  0  0  0  0  0
  185.6050  178.2500  144.6580 C   0  0  0  0  0  0  0  0  0  0  0  0
  189.7960  176.9060  145.6230 C   0  0  0  0  0  0  0  0  0  0  0  0
  188.3640  177.6110  147.4050 S   0  0  0  0  0  0  0  0  0  0  0  0
  184.2480  178.4980  144.9460 O   0  0  0  0  0  0  0  0  0  0  0  0
  186.6950  178.5620  140.5430 C   0  0  0  0  0  3  0  0  0  0  0  0
  189.8410  177.0120  146.9750 N   0  0  0  0  0  0  0  0  0  0  0  0
  189.2000  176.5010  142.9630 O   0  0  0  0  0  0  0  0  0  0  0  0
  186.3700  178.0680  145.7510 N   0  0  0  0  0  0  0  0  0  0  0  0
  188.3860  177.2370  143.5870 C   0  0  0  0  0  0  0  0  0  0  0  0
  190.9440  176.4440  144.9140 N   0  0  0  0  0  1  0  0  0  0  0  0
  183.4400  179.3110  144.1130 C   0  0  2  0  0  3  0  0  0  0  0  0
  186.0680  178.2740  143.2960 C   0  0  0  0  0  0  0  0  0  0  0  0
  187.3850  177.9090  142.8220 C   0  0  0  0  0  0  0  0  0  0  0  0
  181.5100  178.6920  142.9330 N   0  0  0  0  0  0  0  0  0  0  0  0
  181.9500  179.0170  144.2790 C   0  0  0  0  0  2  0  0  0  0  0  0
  185.4090  178.7790  140.9720 C   0  0  0  0  0  3  0  0  0  0  0  0
  183.7150  178.9280  142.7210 C   0  0  0  0  0  0  0  0  0  0  0  0
  187.6780  178.1480  141.4320 C   0  0  0  0  0  0  0  0  0  0  0  0
  185.0910  178.6490  142.3150 C   0  0  0  0  0  0  0  0  0  0  0  0
  189.0570  178.0670  140.8430 C   0  0  0  0  0  2  0  0  0  0  0  0
  189.0640  178.5940  139.4140 C   0  0  0  0  0  2  0  0  0  0  0  0
  189.6620  177.5790  138.4920 C   0  0  0  0  0  0  0  0  0  0  0  0
  191.2070  175.6440  138.1600 C   0  0  0  0  0  2  0  0  0  0  0  0
  190.5100  176.6720  139.0070 C   0  0  0  0  0  3  0  0  0  0  0  0
  190.0720  176.5920  136.1750 C   0  0  0  0  0  2  0  0  0  0  0  0
  189.4940  177.7510  136.9920 C   0  0  1  0  0  3  0  0  0  0  0  0
  188.0310  177.9310  136.6230 C   0  0  0  0  0  1  0  0  0  0  0  0
  191.4170  176.1560  136.7410 C   0  0  0  0  0  2  0  0  0  0  0  0
  180.1360  178.3830  142.5690 C   0  0  0  0  0  2  0  0  0  0  0  0
  179.4420  179.6180  142.0040 C   0  0  1  0  0  3  0  0  0  0  0  0
  179.9570  180.7790  142.5900 O   0  0  0  0  0  1  0  0  0  0  0  0
  179.5720  179.6780  140.4860 C   0  0  0  0  0  2  0  0  0  0  0  0
  180.0610  181.0400  140.0080 C   0  0  0  0  0  1  0  0  0  0  0  0
  1  6  1  0  0  0  0
  2 20  2  0  0  0  0
  2 17  1  0  0  0  0
  3  5  1  0  0  0  0
  3  1  2  0  0  0  0
  4  7  1  0  0  0  0
  4 11  2  0  0  0  0
  5  9  2  0  0  0  0
  8 19  2  0  0  0  0
  8 21  1  0  0  0  0
  9  6  1  0  0  0  0
 10 12  2  0  0  0  0
 11  1  1  0  0  0  0
 12  3  1  0  0  0  0
 13  5  1  0  0  0  0
 14 18  1  1  0  0  0
 14  7  1  0  0  0  0
 15  4  1  0  0  0  0
 16 15  1  0  0  0  0
 16 12  1  0  0  0  0
 17 18  1  0  0  0  0
 19 22  1  0  0  0  0
 20 14  1  0  0  0  0
 21 16  2  0  0  0  0
 22 20  1  0  0  0  0
 22 15  2  0  0  0  0
 23 21  1  0  0  0  0
 24 23  1  0  0  0  0
 25 27  2  0  0  0  0
 25 24  1  0  0  0  0
 26 27  1  0  0  0  0
 28 31  1  0  0  0  0
 28 29  1  0  0  0  0
 29 30  1  1  0  0  0
 29 25  1  0  0  0  0
 31 26  1  0  0  0  0
 32 17  1  0  0  0  0
 33 32  1  0  0  0  0
 33 34  1  1  0  0  0
 35 33  1  0  0  0  0
 36 35  1  0  0  0  0
M  END
>  <MODEL>
1

>  <REMARK>
 VINA RESULT:      -9.5      0.000      0.000
  Name = 
  6 active torsions:
  status: ('A' for Active; 'I' for Inactive)
    1  A    between atoms: C_4  and  C_25
    2  A    between atoms: C_4  and  C_32
    3  A    between atoms: C_5  and  C_34
    4  A    between atoms: C_7  and  C_34
    5  A    between atoms: C_7  and  C_35
    6  A    between atoms: N_27  and  C_32
                            x       y       z     vdW  Elec       q    Type
                         _______ _______ _______ _____ _____    ______ ____

>  <TORSDO>
F 6

$$$$
=
 OpenBabel10222419413D

 36 41  0  0  1  0  0  0  0  0999 V2000
  187.7090  177.8960  138.2590 C   0  0  0  0  0  0  0  0  0  0  0  0
  181.9300  179.9510  140.0580 C   0  0  0  0  0  3  0  0  0  0  0  0
  188.3610  177.9840  139.4750 C   0  0  0  0  0  0  0  0  0  0  0  0
  185.3840  178.5640  138.6880 C   0  0  0  0  0  0  0  0  0  0  0  0
  189.7630  177.7110  139.3140 C   0  0  0  0  0  0  0  0  0  0  0  0
  188.8490  177.5280  137.1110 S   0  0  0  0  0  0  0  0  0  0  0  0
  184.2520  178.9310  137.9320 O   0  0  0  0  0  0  0  0  0  0  0  0
  184.7680  178.2940  142.9030 C   0  0  0  0  0  3  0  0  0  0  0  0
  190.1970  177.4320  138.0600 N   0  0  0  0  0  0  0  0  0  0  0  0
  188.5870  178.6670  141.6170 O   0  0  0  0  0  0  0  0  0  0  0  0
  186.4550  178.2400  137.9410 N   0  0  0  0  0  0  0  0  0  0  0  0
  187.7810  178.3140  140.7110 C   0  0  0  0  0  0  0  0  0  0  0  0
  190.6850  177.6800  140.4020 N   0  0  0  0  0  1  0  0  0  0  0  0
  182.9330  178.6870  138.3880 C   0  0  2  0  0  3  0  0  0  0  0  0
  185.3010  178.4970  140.1220 C   0  0  0  0  0  0  0  0  0  0  0  0
  186.3930  178.2740  141.0440 C   0  0  0  0  0  0  0  0  0  0  0  0
  181.2550  180.2590  138.8510 N   0  0  0  0  0  0  0  0  0  0  0  0
  181.9070  179.6070  137.7280 C   0  0  0  0  0  2  0  0  0  0  0  0
  183.7560  178.6390  142.0420 C   0  0  0  0  0  3  0  0  0  0  0  0
  182.8780  179.0690  139.8070 C   0  0  0  0  0  0  0  0  0  0  0  0
  186.0610  178.1000  142.4340 C   0  0  0  0  0  0  0  0  0  0  0  0
  184.0010  178.7340  140.6800 C   0  0  0  0  0  0  0  0  0  0  0  0
  187.0320  177.6130  143.4710 C   0  0  0  0  0  2  0  0  0  0  0  0
  186.3740  177.5570  144.8430 C   0  0  0  0  0  2  0  0  0  0  0  0
  187.3950  177.7690  145.9150 C   0  0  0  0  0  0  0  0  0  0  0  0
  189.7720  177.5910  146.6650 C   0  0  0  0  0  2  0  0  0  0  0  0
  188.6760  177.4680  145.6420 C   0  0  0  0  0  3  0  0  0  0  0  0
  188.0810  178.3610  148.3000 C   0  0  0  0  0  2  0  0  0  0  0  0
  186.9320  178.0740  147.3300 C   0  0  1  0  0  3  0  0  0  0  0  0
  185.9670  179.2480  147.3480 C   0  0  0  0  0  1  0  0  0  0  0  0
  189.2300  177.3880  148.0730 C   0  0  0  0  0  2  0  0  0  0  0  0
  180.1560  181.2040  138.7290 C   0  0  0  0  0  2  0  0  0  0  0  0
  180.1940  181.8960  137.3710 C   0  0  1  0  0  3  0  0  0  0  0  0
  178.9310  181.8640  136.7710 O   0  0  0  0  0  1  0  0  0  0  0  0
  180.6930  183.3310  137.4960 C   0  0  0  0  0  2  0  0  0  0  0  0
  180.9850  183.9560  136.1370 C   0  0  0  0  0  1  0  0  0  0  0  0
  1  3  2  0  0  0  0
  3 12  1  0  0  0  0
  4 15  1  0  0  0  0
  5  3  1  0  0  0  0
  5 13  1  0  0  0  0
  6  9  1  0  0  0  0
  6  1  1  0  0  0  0
  7 14  1  0  0  0  0
  7  4  1  0  0  0  0
  9  5  2  0  0  0  0
 11  1  1  0  0  0  0
 11  4  2  0  0  0  0
 12 16  1  0  0  0  0
 12 10  2  0  0  0  0
 14 18  1  6  0  0  0
 14 20  1  0  0  0  0
 15 22  2  0  0  0  0
 15 16  1  0  0  0  0
 16 21  2  0  0  0  0
 17  2  1  0  0  0  0
 18 17  1  0  0  0  0
 19  8  2  0  0  0  0
 20  2  2  0  0  0  0
 20 22  1  0  0  0  0
 21  8  1  0  0  0  0
 21 23  1  0  0  0  0
 22 19  1  0  0  0  0
 23 24  1  0  0  0  0
 24 25  1  0  0  0  0
 25 29  1  0  0  0  0
 26 31  1  0  0  0  0
 27 25  2  0  0  0  0
 27 26  1  0  0  0  0
 29 30  1  6  0  0  0
 29 28  1  0  0  0  0
 31 28  1  0  0  0  0
 32 17  1  0  0  0  0
 33 34  1  1  0  0  0
 33 35  1  0  0  0  0
 33 32  1  0  0  0  0
 36 35  1  0  0  0  0
M  END
>  <MODEL>
2

>  <REMARK>
 VINA RESULT:      -9.4      3.547      6.541
  Name = 
  6 active torsions:
  status: ('A' for Active; 'I' for Inactive)
    1  A    between atoms: C_4  and  C_25
    2  A    between atoms: C_4  and  C_32
    3  A    between atoms: C_5  and  C_34
    4  A    between atoms: C_7  and  C_34
    5  A    between atoms: C_7  and  C_35
    6  A    between atoms: N_27  and  C_32
                            x       y       z     vdW  Elec       q    Type
                         _______ _______ _______ _____ _____    ______ ____

>  <TORSDO>
F 6

$$$$
=
 OpenBabel10222419413D

 36 41  0  0  1  0  0  0  0  0999 V2000
  185.7830  178.7320  139.6940 C   0  0  0  0  0  0  0  0  0  0  0  0
  191.2740  176.1100  137.7350 C   0  0  0  0  0  3  0  0  0  0  0  0
  185.9170  178.5270  141.0550 C   0  0  0  0  0  0  0  0  0  0  0  0
  187.8470  177.8720  138.6750 C   0  0  0  0  0  0  0  0  0  0  0  0
  184.7100  178.9040  141.7400 C   0  0  0  0  0  0  0  0  0  0  0  0
  184.2520  179.3140  139.4280 S   0  0  0  0  0  0  0  0  0  0  0  0
  188.3080  177.5360  137.3870 O   0  0  0  0  0  0  0  0  0  0  0  0
  190.7390  177.5580  141.7990 C   0  0  0  0  0  3  0  0  0  0  0  0
  183.6880  179.3690  140.9790 N   0  0  0  0  0  0  0  0  0  0  0  0
  186.8420  177.5900  142.8900 O   0  0  0  0  0  0  0  0  0  0  0  0
  186.5910  178.3550  138.6960 N   0  0  0  0  0  0  0  0  0  0  0  0
  187.0410  178.0060  141.7150 C   0  0  0  0  0  0  0  0  0  0  0  0
  184.5650  178.8520  143.1580 N   0  0  0  0  0  1  0  0  0  0  0  0
  189.6750  177.6380  137.0270 C   0  0  2  0  0  3  0  0  0  0  0  0
  188.7240  177.7480  139.8080 C   0  0  0  0  0  0  0  0  0  0  0  0
  188.3700  177.9170  141.2010 C   0  0  0  0  0  0  0  0  0  0  0  0
  191.1150  175.9190  136.3410 N   0  0  0  0  0  0  0  0  0  0  0  0
  190.0340  176.7490  135.8380 C   0  0  0  0  0  2  0  0  0  0  0  0
  191.0460  177.2650  140.4930 C   0  0  0  0  0  3  0  0  0  0  0  0
  190.4650  177.0740  138.1310 C   0  0  0  0  0  0  0  0  0  0  0  0
  189.4410  177.8900  142.1640 C   0  0  0  0  0  0  0  0  0  0  0  0
  190.0730  177.3620  139.5100 C   0  0  0  0  0  0  0  0  0  0  0  0
  189.2830  178.2980  143.6000 C   0  0  0  0  0  2  0  0  0  0  0  0
  189.6050  177.1350  144.5300 C   0  0  0  0  0  2  0  0  0  0  0  0
  188.9790  177.3560  145.8700 C   0  0  0  0  0  0  0  0  0  0  0  0
  186.9310  177.8430  147.2160 C   0  0  0  0  0  2  0  0  0  0  0  0
  187.6510  177.5570  145.9270 C   0  0  0  0  0  3  0  0  0  0  0  0
  189.1040  177.7090  148.3930 C   0  0  0  0  0  2  0  0  0  0  0  0
  189.8740  177.5930  147.0750 C   0  0  1  0  0  3  0  0  0  0  0  0
  190.9150  176.4940  147.2080 C   0  0  0  0  0  1  0  0  0  0  0  0
  187.8460  178.5470  148.2080 C   0  0  0  0  0  2  0  0  0  0  0  0
  191.8310  174.9310  135.5480 C   0  0  0  0  0  2  0  0  0  0  0  0
  192.2250  173.7370  136.4100 C   0  0  1  0  0  3  0  0  0  0  0  0
  191.6360  172.5660  135.9200 O   0  0  0  0  0  1  0  0  0  0  0  0
  193.7400  173.5860  136.4850 C   0  0  0  0  0  2  0  0  0  0  0  0
  194.2890  173.9970  137.8450 C   0  0  0  0  0  1  0  0  0  0  0  0
  1  3  2  0  0  0  0
  2 20  2  0  0  0  0
  3 12  1  0  0  0  0
  3  5  1  0  0  0  0
  4 11  2  0  0  0  0
  4 15  1  0  0  0  0
  5 13  1  0  0  0  0
  6  1  1  0  0  0  0
  6  9  1  0  0  0  0
  7  4  1  0  0  0  0
  8 21  1  0  0  0  0
  9  5  2  0  0  0  0
 11  1  1  0  0  0  0
 12 10  2  0  0  0  0
 14 18  1  6  0  0  0
 14  7  1  0  0  0  0
 14 20  1  0  0  0  0
 15 16  1  0  0  0  0
 16 12  1  0  0  0  0
 16 21  2  0  0  0  0
 17  2  1  0  0  0  0
 18 17  1  0  0  0  0
 19  8  2  0  0  0  0
 20 22  1  0  0  0  0
 21 23  1  0  0  0  0
 22 15  2  0  0  0  0
 22 19  1  0  0  0  0
 23 24  1  0  0  0  0
 24 25  1  0  0  0  0
 25 27  2  0  0  0  0
 25 29  1  0  0  0  0
 26 31  1  0  0  0  0
 27 26  1  0  0  0  0
 29 30  1  1  0  0  0
 29 28  1  0  0  0  0
 31 28  1  0  0  0  0
 32 17  1  0  0  0  0
 32 33  1  0  0  0  0
 33 34  1  6  0  0  0
 33 35  1  0  0  0  0
 35 36  1  0  0  0  0
M  END
>  <MODEL>
3

>  <REMARK>
 VINA RESULT:      -9.3      3.480      9.322
  Name = 
  6 active torsions:
  status: ('A' for Active; 'I' for Inactive)
    1  A    between atoms: C_4  and  C_25
    2  A    between atoms: C_4  and  C_32
    3  A    between atoms: C_5  and  C_34
    4  A    between atoms: C_7  and  C_34
    5  A    between atoms: C_7  and  C_35
    6  A    between atoms: N_27  and  C_32
                            x       y       z     vdW  Elec       q    Type
                         _______ _______ _______ _____ _____    ______ ____

>  <TORSDO>
F 6

$$$$
=
 OpenBabel10222419413D

 36 41  0  0  1  0  0  0  0  0999 V2000
  184.0500  179.2120  139.2330 C   0  0  0  0  0  0  0  0  0  0  0  0
  190.0430  177.0300  138.8060 C   0  0  0  0  0  3  0  0  0  0  0  0
  183.7800  178.8560  140.5420 C   0  0  0  0  0  0  0  0  0  0  0  0
  186.3790  178.5490  138.8180 C   0  0  0  0  0  0  0  0  0  0  0  0
  182.4010  179.1090  140.8560 C   0  0  0  0  0  0  0  0  0  0  0  0
  182.6340  179.7670  138.5680 S   0  0  0  0  0  0  0  0  0  0  0  0
  187.2300  178.3820  137.7060 O   0  0  0  0  0  0  0  0  0  0  0  0
  188.2080  177.9770  142.6310 C   0  0  0  0  0  3  0  0  0  0  0  0
  181.6260  179.6230  139.8680 N   0  0  0  0  0  0  0  0  0  0  0  0
  184.1720  177.7450  142.4690 O   0  0  0  0  0  0  0  0  0  0  0  0
  185.1450  178.9820  138.4990 N   0  0  0  0  0  0  0  0  0  0  0  0
  184.6870  178.3020  141.4590 C   0  0  0  0  0  0  0  0  0  0  0  0
  181.8390  178.8880  142.1480 N   0  0  0  0  0  1  0  0  0  0  0  0
  188.6300  178.5720  137.7970 C   0  0  2  0  0  3  0  0  0  0  0  0
  186.8800  178.3260  140.1470 C   0  0  0  0  0  0  0  0  0  0  0  0
  186.1120  178.3200  141.3730 C   0  0  0  0  0  0  0  0  0  0  0  0
  190.3250  176.9960  137.4190 N   0  0  0  0  0  0  0  0  0  0  0  0
  189.3920  177.8400  136.6930 C   0  0  0  0  0  2  0  0  0  0  0  0
  188.9150  177.8490  141.4600 C   0  0  0  0  0  3  0  0  0  0  0  0
  189.0870  177.9120  139.0280 C   0  0  0  0  0  0  0  0  0  0  0  0
  186.8420  178.2190  142.6110 C   0  0  0  0  0  0  0  0  0  0  0  0
  188.2790  178.0240  140.2410 C   0  0  0  0  0  0  0  0  0  0  0  0
  186.2300  178.4520  143.9620 C   0  0  0  0  0  2  0  0  0  0  0  0
  186.4730  177.2590  144.8770 C   0  0  0  0  0  2  0  0  0  0  0  0
  187.4080  177.6360  145.9810 C   0  0  0  0  0  0  0  0  0  0  0  0
  189.7290  177.6370  146.9080 C   0  0  0  0  0  2  0  0  0  0  0  0
  188.7140  177.3500  145.8360 C   0  0  0  0  0  3  0  0  0  0  0  0
  187.9040  178.5390  148.3150 C   0  0  0  0  0  2  0  0  0  0  0  0
  186.8360  178.0940  147.3120 C   0  0  1  0  0  3  0  0  0  0  0  0
  185.8410  179.2260  147.1190 C   0  0  0  0  0  1  0  0  0  0  0  0
  189.0930  177.5880  148.2900 C   0  0  0  0  0  2  0  0  0  0  0  0
  191.3140  176.1330  136.7900 C   0  0  0  0  0  2  0  0  0  0  0  0
  191.5570  174.8910  137.6400 C   0  0  1  0  0  3  0  0  0  0  0  0
  190.5610  173.9360  137.4060 O   0  0  0  0  0  1  0  0  0  0  0  0
  192.9380  174.3020  137.3760 C   0  0  0  0  0  2  0  0  0  0  0  0
  194.0530  175.2090  137.8800 C   0  0  0  0  0  1  0  0  0  0  0  0
  1  3  2  0  0  0  0
  2 20  2  0  0  0  0
  3  5  1  0  0  0  0
  3 12  1  0  0  0  0
  4 15  1  0  0  0  0
  5 13  1  0  0  0  0
  6  1  1  0  0  0  0
  6  9  1  0  0  0  0
  7 14  1  0  0  0  0
  7  4  1  0  0  0  0
  9  5  2  0  0  0  0
 11  4  2  0  0  0  0
 11  1  1  0  0  0  0
 12 10  2  0  0  0  0
 14 18  1  6  0  0  0
 14 20  1  0  0  0  0
 15 22  2  0  0  0  0
 15 16  1  0  0  0  0
 16 12  1  0  0  0  0
 16 21  2  0  0  0  0
 17  2  1  0  0  0  0
 18 17  1  0  0  0  0
 19  8  2  0  0  0  0
 20 22  1  0  0  0  0
 21  8  1  0  0  0  0
 21 23  1  0  0  0  0
 22 19  1  0  0  0  0
 23 24  1  0  0  0  0
 24 25  1  0  0  0  0
 25 29  1  0  0  0  0
 26 31  1  0  0  0  0
 27 25  2  0  0  0  0
 27 26  1  0  0  0  0
 29 30  1  6  0  0  0
 29 28  1  0  0  0  0
 31 28  1  0  0  0  0
 32 17  1  0  0  0  0
 32 33  1  0  0  0  0
 33 34  1  6  0  0  0
 35 33  1  0  0  0  0
 35 36  1  0  0  0  0
M  END
>  <MODEL>
4

>  <REMARK>
 VINA RESULT:      -9.2      3.488      9.043
  Name = 
  6 active torsions:
  status: ('A' for Active; 'I' for Inactive)
    1  A    between atoms: C_4  and  C_25
    2  A    between atoms: C_4  and  C_32
    3  A    between atoms: C_5  and  C_34
    4  A    between atoms: C_7  and  C_34
    5  A    between atoms: C_7  and  C_35
    6  A    between atoms: N_27  and  C_32
                            x       y       z     vdW  Elec       q    Type
                         _______ _______ _______ _____ _____    ______ ____

>  <TORSDO>
F 6

$$$$
=
 OpenBabel10222419413D

 36 41  0  0  1  0  0  0  0  0999 V2000
  187.6110  177.7860  138.3120 C   0  0  0  0  0  0  0  0  0  0  0  0
  181.8140  179.8500  140.0420 C   0  0  0  0  0  3  0  0  0  0  0  0
  188.2870  178.0160  139.4960 C   0  0  0  0  0  0  0  0  0  0  0  0
  185.2760  178.4290  138.7300 C   0  0  0  0  0  0  0  0  0  0  0  0
  189.6930  177.7670  139.3280 C   0  0  0  0  0  0  0  0  0  0  0  0
  188.7360  177.3370  137.1780 S   0  0  0  0  0  0  0  0  0  0  0  0
  184.1170  178.6860  137.9710 O   0  0  0  0  0  0  0  0  0  0  0  0
  184.7640  178.5690  142.9650 C   0  0  0  0  0  3  0  0  0  0  0  0
  190.1070  177.3750  138.0970 N   0  0  0  0  0  0  0  0  0  0  0  0
  188.5400  178.9170  141.5520 O   0  0  0  0  0  0  0  0  0  0  0  0
  186.3410  178.0620  137.9920 N   0  0  0  0  0  0  0  0  0  0  0  0
  187.7260  178.4520  140.7070 C   0  0  0  0  0  0  0  0  0  0  0  0
  190.6390  177.8710  140.3890 N   0  0  0  0  0  1  0  0  0  0  0  0
  182.8170  178.4530  138.4820 C   0  0  2  0  0  3  0  0  0  0  0  0
  185.2280  178.5050  140.1660 C   0  0  0  0  0  0  0  0  0  0  0  0
  186.3470  178.4070  141.0770 C   0  0  0  0  0  0  0  0  0  0  0  0
  181.1030  180.0160  138.8270 N   0  0  0  0  0  0  0  0  0  0  0  0
  181.7490  179.2730  137.7590 C   0  0  0  0  0  2  0  0  0  0  0  0
  183.7230  178.7970  142.1000 C   0  0  0  0  0  3  0  0  0  0  0  0
  182.7820  178.9740  139.8560 C   0  0  0  0  0  0  0  0  0  0  0  0
  186.0510  178.3650  142.4860 C   0  0  0  0  0  0  0  0  0  0  0  0
  183.9350  178.7610  140.7300 C   0  0  0  0  0  0  0  0  0  0  0  0
  187.0600  178.0130  143.5410 C   0  0  0  0  0  2  0  0  0  0  0  0
  186.3760  177.7590  144.8780 C   0  0  0  0  0  2  0  0  0  0  0  0
  187.3950  177.6500  145.9670 C   0  0  0  0  0  0  0  0  0  0  0  0
  187.9190  177.6670  148.4100 C   0  0  0  0  0  2  0  0  0  0  0  0
  186.9730  177.7110  147.2420 C   0  0  0  0  0  3  0  0  0  0  0  0
  189.7990  177.5060  146.8090 C   0  0  0  0  0  2  0  0  0  0  0  0
  188.8700  177.7260  145.6110 C   0  0  1  0  0  3  0  0  0  0  0  0
  189.2230  176.7240  144.5250 C   0  0  0  0  0  1  0  0  0  0  0  0
  189.2770  178.2430  148.0350 C   0  0  0  0  0  2  0  0  0  0  0  0
  179.9740  180.9130  138.6390 C   0  0  0  0  0  2  0  0  0  0  0  0
  180.1610  181.7520  137.3800 C   0  0  1  0  0  3  0  0  0  0  0  0
  178.9370  182.2820  136.9590 O   0  0  0  0  0  1  0  0  0  0  0  0
  181.1790  182.8640  137.6040 C   0  0  0  0  0  2  0  0  0  0  0  0
  180.6250  184.2320  137.2240 C   0  0  0  0  0  1  0  0  0  0  0  0
  1  3  2  0  0  0  0
  3 12  1  0  0  0  0
  4 15  1  0  0  0  0
  5  3  1  0  0  0  0
  5 13  1  0  0  0  0
  6  9  1  0  0  0  0
  6  1  1  0  0  0  0
  7 14  1  0  0  0  0
  7  4  1  0  0  0  0
  9  5  2  0  0  0  0
 11  1  1  0  0  0  0
 11  4  2  0  0  0  0
 12 16  1  0  0  0  0
 12 10  2  0  0  0  0
 14 18  1  6  0  0  0
 14 20  1  0  0  0  0
 15 22  2  0  0  0  0
 15 16  1  0  0  0  0
 16 21  2  0  0  0  0
 17  2  1  0  0  0  0
 18 17  1  0  0  0  0
 19  8  2  0  0  0  0
 20  2  2  0  0  0  0
 20 22  1  0  0  0  0
 21  8  1  0  0  0  0
 21 23  1  0  0  0  0
 22 19  1  0  0  0  0
 23 24  1  0  0  0  0
 24 25  1  0  0  0  0
 25 27  2  0  0  0  0
 27 26  1  0  0  0  0
 28 31  1  0  0  0  0
 29 30  1  6  0  0  0
 29 25  1  0  0  0  0
 29 28  1  0  0  0  0
 31 26  1  0  0  0  0
 32 17  1  0  0  0  0
 33 34  1  1  0  0  0
 33 35  1  0  0  0  0
 33 32  1  0  0  0  0
 36 35  1  0  0  0  0
M  END
>  <MODEL>
5

>  <REMARK>
 VINA RESULT:      -8.6      3.482      6.386
  Name = 
  6 active torsions:
  status: ('A' for Active; 'I' for Inactive)
    1  A    between atoms: C_4  and  C_25
    2  A    between atoms: C_4  and  C_32
    3  A    between atoms: C_5  and  C_34
    4  A    between atoms: C_7  and  C_34
    5  A    between atoms: C_7  and  C_35
    6  A    between atoms: N_27  and  C_32
                            x       y       z     vdW  Elec       q    Type
                         _______ _______ _______ _____ _____    ______ ____

>  <TORSDO>
F 6

$$$$
=
 OpenBabel10222419413D

 36 41  0  0  1  0  0  0  0  0999 V2000
  189.3050  177.2520  145.8190 C   0  0  0  0  0  0  0  0  0  0  0  0
  183.9430  178.5700  142.5980 C   0  0  0  0  0  3  0  0  0  0  0  0
  190.0430  176.6890  144.7940 C   0  0  0  0  0  0  0  0  0  0  0  0
  187.1720  177.9440  144.8150 C   0  0  0  0  0  0  0  0  0  0  0  0
  191.2780  176.1540  145.3000 C   0  0  0  0  0  0  0  0  0  0  0  0
  190.1670  177.0450  147.2220 S   0  0  0  0  0  0  0  0  0  0  0  0
  185.8970  178.3490  145.2600 O   0  0  0  0  0  0  0  0  0  0  0  0
  187.7650  178.0630  140.5910 C   0  0  0  0  0  3  0  0  0  0  0  0
  191.5040  176.2770  146.6320 N   0  0  0  0  0  0  0  0  0  0  0  0
  190.3120  175.7740  142.7460 O   0  0  0  0  0  0  0  0  0  0  0  0
  188.0430  177.6960  145.8110 N   0  0  0  0  0  0  0  0  0  0  0  0
  189.6690  176.6070  143.4430 C   0  0  0  0  0  0  0  0  0  0  0  0
  192.2700  175.5540  144.4700 N   0  0  0  0  0  1  0  0  0  0  0  0
  185.0850  179.2330  144.5090 C   0  0  2  0  0  3  0  0  0  0  0  0
  187.4610  177.8940  143.4070 C   0  0  0  0  0  0  0  0  0  0  0  0
  188.6600  177.3750  142.7870 C   0  0  0  0  0  0  0  0  0  0  0  0
  182.9660  178.8170  143.5930 N   0  0  0  0  0  0  0  0  0  0  0  0
  183.6040  179.1120  144.8650 C   0  0  0  0  0  2  0  0  0  0  0  0
  186.5750  178.4310  141.1670 C   0  0  0  0  0  3  0  0  0  0  0  0
  185.1400  178.7990  143.1050 C   0  0  0  0  0  0  0  0  0  0  0  0
  188.8010  177.5570  141.3650 C   0  0  0  0  0  0  0  0  0  0  0  0
  186.4160  178.3600  142.5430 C   0  0  0  0  0  0  0  0  0  0  0  0
  190.0780  177.3100  140.6130 C   0  0  0  0  0  2  0  0  0  0  0  0
  189.9670  177.8170  139.1810 C   0  0  0  0  0  2  0  0  0  0  0  0
  189.8740  176.6650  138.2320 C   0  0  0  0  0  0  0  0  0  0  0  0
  188.4760  175.2590  136.7120 C   0  0  0  0  0  2  0  0  0  0  0  0
  188.6920  176.4230  137.6390 C   0  0  0  0  0  3  0  0  0  0  0  0
  190.8340  174.6020  137.0780 C   0  0  0  0  0  2  0  0  0  0  0  0
  191.0220  175.6730  138.1570 C   0  0  1  0  0  3  0  0  0  0  0  0
  192.3440  176.3830  137.9200 C   0  0  0  0  0  1  0  0  0  0  0  0
  189.3970  174.0990  137.0660 C   0  0  0  0  0  2  0  0  0  0  0  0
  181.5320  178.6590  143.4100 C   0  0  0  0  0  2  0  0  0  0  0  0
  181.0640  179.4180  142.1740 C   0  0  1  0  0  3  0  0  0  0  0  0
  181.5870  178.8360  141.0150 O   0  0  0  0  0  1  0  0  0  0  0  0
  179.5420  179.4780  142.1050 C   0  0  0  0  0  2  0  0  0  0  0  0
  179.0230  179.2400  140.6930 C   0  0  0  0  0  1  0  0  0  0  0  0
  1  6  1  0  0  0  0
  2 20  2  0  0  0  0
  2 17  1  0  0  0  0
  3  5  1  0  0  0  0
  3  1  2  0  0  0  0
  4  7  1  0  0  0  0
  4 11  2  0  0  0  0
  5  9  2  0  0  0  0
  8 19  2  0  0  0  0
  8 21  1  0  0  0  0
  9  6  1  0  0  0  0
 10 12  2  0  0  0  0
 11  1  1  0  0  0  0
 12  3  1  0  0  0  0
 13  5  1  0  0  0  0
 14 18  1  1  0  0  0
 14  7  1  0  0  0  0
 15  4  1  0  0  0  0
 16 15  1  0  0  0  0
 16 12  1  0  0  0  0
 17 18  1  0  0  0  0
 19 22  1  0  0  0  0
 20 14  1  0  0  0  0
 21 16  2  0  0  0  0
 22 20  1  0  0  0  0
 22 15  2  0  0  0  0
 23 21  1  0  0  0  0
 24 23  1  0  0  0  0
 25 24  1  0  0  0  0
 26 31  1  0  0  0  0
 26 27  1  0  0  0  0
 27 25  2  0  0  0  0
 28 29  1  0  0  0  0
 29 30  1  6  0  0  0
 29 25  1  0  0  0  0
 31 28  1  0  0  0  0
 32 17  1  0  0  0  0
 33 34  1  6  0  0  0
 33 32  1  0  0  0  0
 35 33  1  0  0  0  0
 36 35  1  0  0  0  0
M  END
>  <MODEL>
6

>  <REMARK>
 VINA RESULT:      -8.6      1.376      1.964
  Name = 
  6 active torsions:
  status: ('A' for Active; 'I' for Inactive)
    1  A    between atoms: C_4  and  C_25
    2  A    between atoms: C_4  and  C_32
    3  A    between atoms: C_5  and  C_34
    4  A    between atoms: C_7  and  C_34
    5  A    between atoms: C_7  and  C_35
    6  A    between atoms: N_27  and  C_32
                            x       y       z     vdW  Elec       q    Type
                         _______ _______ _______ _____ _____    ______ ____

>  <TORSDO>
F 6

$$$$
=
 OpenBabel10222419413D

 36 41  0  0  1  0  0  0  0  0999 V2000
  184.2730  178.8120  143.0650 C   0  0  0  0  0  0  0  0  0  0  0  0
  187.1500  177.2270  137.5820 C   0  0  0  0  0  3  0  0  0  0  0  0
  185.2860  178.4840  143.9470 C   0  0  0  0  0  0  0  0  0  0  0  0
  185.1610  178.3700  140.8170 C   0  0  0  0  0  0  0  0  0  0  0  0
  184.8300  178.6090  145.3040 C   0  0  0  0  0  0  0  0  0  0  0  0
  182.9340  179.1950  143.9690 S   0  0  0  0  0  0  0  0  0  0  0  0
  184.6580  178.2440  139.5070 O   0  0  0  0  0  0  0  0  0  0  0  0
  189.4080  178.1390  141.1820 C   0  0  0  0  0  3  0  0  0  0  0  0
  183.5450  179.0030  145.4900 N   0  0  0  0  0  0  0  0  0  0  0  0
  187.2310  177.4970  144.5330 O   0  0  0  0  0  0  0  0  0  0  0  0
  184.2220  178.6640  141.7360 N   0  0  0  0  0  0  0  0  0  0  0  0
  186.5810  178.0610  143.6090 C   0  0  0  0  0  0  0  0  0  0  0  0
  185.6690  178.3850  146.4360 N   0  0  0  0  0  1  0  0  0  0  0  0
  185.4330  178.5780  138.3690 C   0  0  2  0  0  3  0  0  0  0  0  0
  186.5740  178.2530  141.0600 C   0  0  0  0  0  0  0  0  0  0  0  0
  187.2320  178.2190  142.3480 C   0  0  0  0  0  0  0  0  0  0  0  0
  186.1090  177.1660  136.6230 N   0  0  0  0  0  0  0  0  0  0  0  0
  184.9390  177.8820  137.1020 C   0  0  0  0  0  2  0  0  0  0  0  0
  188.7760  178.0360  139.9670 C   0  0  0  0  0  3  0  0  0  0  0  0
  186.7770  178.0180  138.5700 C   0  0  0  0  0  0  0  0  0  0  0  0
  188.6730  178.2420  142.3560 C   0  0  0  0  0  0  0  0  0  0  0  0
  187.3930  178.0970  139.8930 C   0  0  0  0  0  0  0  0  0  0  0  0
  189.4980  178.4670  143.5900 C   0  0  0  0  0  2  0  0  0  0  0  0
  190.6770  177.5040  143.6330 C   0  0  0  0  0  2  0  0  0  0  0  0
  190.8630  176.9760  145.0200 C   0  0  0  0  0  0  0  0  0  0  0  0
  190.2710  177.0890  147.4440 C   0  0  0  0  0  2  0  0  0  0  0  0
  190.1230  177.5080  146.0080 C   0  0  0  0  0  3  0  0  0  0  0  0
  192.0460  175.5130  146.7430 C   0  0  0  0  0  2  0  0  0  0  0  0
  192.0340  176.0510  145.3090 C   0  0  1  0  0  3  0  0  0  0  0  0
  192.0550  174.8780  144.3430 C   0  0  0  0  0  1  0  0  0  0  0  0
  191.6890  176.6150  147.7320 C   0  0  0  0  0  2  0  0  0  0  0  0
  186.1490  176.3820  135.3980 C   0  0  0  0  0  2  0  0  0  0  0  0
  185.5480  175.0000  135.6280 C   0  0  1  0  0  3  0  0  0  0  0  0
  184.5050  174.7650  134.7260 O   0  0  0  0  0  1  0  0  0  0  0  0
  186.6090  173.9110  135.5180 C   0  0  0  0  0  2  0  0  0  0  0  0
  186.9250  173.2810  136.8690 C   0  0  0  0  0  1  0  0  0  0  0  0
  1  3  2  0  0  0  0
  1  6  1  0  0  0  0
  2 20  2  0  0  0  0
  3  5  1  0  0  0  0
  4 15  1  0  0  0  0
  4 11  2  0  0  0  0
  5  9  2  0  0  0  0
  5 13  1  0  0  0  0
  6  9  1  0  0  0  0
  7  4  1  0  0  0  0
  8 21  1  0  0  0  0
 11  1  1  0  0  0  0
 12  3  1  0  0  0  0
 12 10  2  0  0  0  0
 14 18  1  6  0  0  0
 14 20  1  0  0  0  0
 14  7  1  0  0  0  0
 15 16  1  0  0  0  0
 16 21  2  0  0  0  0
 16 12  1  0  0  0  0
 17 18  1  0  0  0  0
 17  2  1  0  0  0  0
 19  8  2  0  0  0  0
 20 22  1  0  0  0  0
 21 23  1  0  0  0  0
 22 19  1  0  0  0  0
 22 15  2  0  0  0  0
 23 24  1  0  0  0  0
 24 25  1  0  0  0  0
 25 29  1  0  0  0  0
 25 27  2  0  0  0  0
 26 31  1  0  0  0  0
 27 26  1  0  0  0  0
 28 31  1  0  0  0  0
 29 30  1  6  0  0  0
 29 28  1  0  0  0  0
 32 33  1  0  0  0  0
 32 17  1  0  0  0  0
 33 34  1  6  0  0  0
 35 33  1  0  0  0  0
 35 36  1  0  0  0  0
M  END
>  <MODEL>
7

>  <REMARK>
 VINA RESULT:      -8.5      3.319      6.837
  Name = 
  6 active torsions:
  status: ('A' for Active; 'I' for Inactive)
    1  A    between atoms: C_4  and  C_25
    2  A    between atoms: C_4  and  C_32
    3  A    between atoms: C_5  and  C_34
    4  A    between atoms: C_7  and  C_34
    5  A    between atoms: C_7  and  C_35
    6  A    between atoms: N_27  and  C_32
                            x       y       z     vdW  Elec       q    Type
                         _______ _______ _______ _____ _____    ______ ____

>  <TORSDO>
F 6

$$$$
=
 OpenBabel10222419413D

 36 41  0  0  1  0  0  0  0  0999 V2000
  182.9200  178.6290  141.7760 C   0  0  0  0  0  0  0  0  0  0  0  0
  188.8790  177.9450  143.9850 C   0  0  0  0  0  3  0  0  0  0  0  0
  183.2090  179.1280  140.5190 C   0  0  0  0  0  0  0  0  0  0  0  0
  185.0890  178.1850  142.8420 C   0  0  0  0  0  0  0  0  0  0  0  0
  182.0010  179.5200  139.8450 C   0  0  0  0  0  0  0  0  0  0  0  0
  181.2760  178.7190  141.9790 S   0  0  0  0  0  0  0  0  0  0  0  0
  185.5740  177.9110  144.1370 O   0  0  0  0  0  0  0  0  0  0  0  0
  188.0060  178.0770  139.7290 C   0  0  0  0  0  3  0  0  0  0  0  0
  180.8360  179.3510  140.5190 N   0  0  0  0  0  0  0  0  0  0  0  0
  184.5560  180.0450  138.9540 O   0  0  0  0  0  0  0  0  0  0  0  0
  183.7510  178.3220  142.7790 N   0  0  0  0  0  0  0  0  0  0  0  0
  184.4840  179.2720  139.9510 C   0  0  0  0  0  0  0  0  0  0  0  0
  181.9760  180.0250  138.5120 N   0  0  0  0  0  1  0  0  0  0  0  0
  186.7360  177.1310  144.3540 C   0  0  2  0  0  3  0  0  0  0  0  0
  185.9970  178.2290  141.7270 C   0  0  0  0  0  0  0  0  0  0  0  0
  185.6870  178.6280  140.3720 C   0  0  0  0  0  0  0  0  0  0  0  0
  188.7380  177.7870  145.3850 N   0  0  0  0  0  0  0  0  0  0  0  0
  187.3760  177.4030  145.7150 C   0  0  0  0  0  2  0  0  0  0  0  0
  188.3330  177.8280  141.0390 C   0  0  0  0  0  3  0  0  0  0  0  0
  187.7560  177.5810  143.3960 C   0  0  0  0  0  0  0  0  0  0  0  0
  186.7170  178.4570  139.3800 C   0  0  0  0  0  0  0  0  0  0  0  0
  187.3590  177.8920  142.0240 C   0  0  0  0  0  0  0  0  0  0  0  0
  186.4820  178.5790  137.9020 C   0  0  0  0  0  2  0  0  0  0  0  0
  187.1750  177.4500  137.1500 C   0  0  0  0  0  2  0  0  0  0  0  0
  186.2620  176.2720  137.0300 C   0  0  0  0  0  0  0  0  0  0  0  0
  183.9300  175.3820  136.9140 C   0  0  0  0  0  2  0  0  0  0  0  0
  184.9370  176.4970  136.9790 C   0  0  0  0  0  3  0  0  0  0  0  0
  185.8020  173.7630  136.9720 C   0  0  0  0  0  2  0  0  0  0  0  0
  186.8270  174.8740  137.2170 C   0  0  1  0  0  3  0  0  0  0  0  0
  188.0270  174.6440  136.3130 C   0  0  0  0  0  1  0  0  0  0  0  0
  184.4600  174.1270  137.5930 C   0  0  0  0  0  2  0  0  0  0  0  0
  189.7650  178.1000  146.3670 C   0  0  0  0  0  2  0  0  0  0  0  0
  190.8820  177.0640  146.3210 C   0  0  1  0  0  3  0  0  0  0  0  0
  191.9210  177.5020  145.4920 O   0  0  0  0  0  1  0  0  0  0  0  0
  191.4050  176.7520  147.7190 C   0  0  0  0  0  2  0  0  0  0  0  0
  192.4330  175.6280  147.7080 C   0  0  0  0  0  1  0  0  0  0  0  0
  1  6  1  0  0  0  0
  1 11  1  0  0  0  0
  2 17  1  0  0  0  0
  3  1  2  0  0  0  0
  4  7  1  0  0  0  0
  5  9  2  0  0  0  0
  5  3  1  0  0  0  0
  7 14  1  0  0  0  0
  8 19  1  0  0  0  0
  9  6  1  0  0  0  0
 10 12  2  0  0  0  0
 11  4  2  0  0  0  0
 12 16  1  0  0  0  0
 12  3  1  0  0  0  0
 13  5  1  0  0  0  0
 14 18  1  1  0  0  0
 15 22  1  0  0  0  0
 15  4  1  0  0  0  0
 16 15  2  0  0  0  0
 17 18  1  0  0  0  0
 17 32  1  0  0  0  0
 19 22  2  0  0  0  0
 20  2  2  0  0  0  0
 20 14  1  0  0  0  0
 21  8  2  0  0  0  0
 21 16  1  0  0  0  0
 22 20  1  0  0  0  0
 23 21  1  0  0  0  0
 24 23  1  0  0  0  0
 25 24  1  0  0  0  0
 25 29  1  0  0  0  0
 26 27  1  0  0  0  0
 26 31  1  0  0  0  0
 27 25  2  0  0  0  0
 28 29  1  0  0  0  0
 28 31  1  0  0  0  0
 29 30  1  6  0  0  0
 33 34  1  6  0  0  0
 33 32  1  0  0  0  0
 33 35  1  0  0  0  0
 36 35  1  0  0  0  0
M  END
>  <MODEL>
8

>  <REMARK>
 VINA RESULT:      -8.5      3.043      7.365
  Name = 
  6 active torsions:
  status: ('A' for Active; 'I' for Inactive)
    1  A    between atoms: C_4  and  C_25
    2  A    between atoms: C_4  and  C_32
    3  A    between atoms: C_5  and  C_34
    4  A    between atoms: C_7  and  C_34
    5  A    between atoms: C_7  and  C_35
    6  A    between atoms: N_27  and  C_32
                            x       y       z     vdW  Elec       q    Type
                         _______ _______ _______ _____ _____    ______ ____

>  <TORSDO>
F 6

$$$$
=
 OpenBabel10222419413D

 36 41  0  0  1  0  0  0  0  0999 V2000
  191.5410  176.7490  138.6220 C   0  0  0  0  0  0  0  0  0  0  0  0
  189.0010  177.9540  144.3620 C   0  0  0  0  0  3  0  0  0  0  0  0
  190.3750  176.6000  137.8930 C   0  0  0  0  0  0  0  0  0  0  0  0
  190.8430  177.3170  140.9080 C   0  0  0  0  0  0  0  0  0  0  0  0
  190.6710  176.1630  136.5560 C   0  0  0  0  0  0  0  0  0  0  0  0
  192.8030  176.3300  137.6280 S   0  0  0  0  0  0  0  0  0  0  0  0
  191.4280  177.3770  142.1880 O   0  0  0  0  0  0  0  0  0  0  0  0
  186.7850  178.6200  140.6820 C   0  0  0  0  0  3  0  0  0  0  0  0
  191.9770  175.9720  136.2440 N   0  0  0  0  0  0  0  0  0  0  0  0
  188.1480  176.3020  137.6580 O   0  0  0  0  0  0  0  0  0  0  0  0
  191.7010  176.9660  139.9320 N   0  0  0  0  0  0  0  0  0  0  0  0
  189.0670  176.8100  138.3590 C   0  0  0  0  0  0  0  0  0  0  0  0
  189.6730  175.9690  135.5560 N   0  0  0  0  0  1  0  0  0  0  0  0
  190.9740  178.2790  143.1810 C   0  0  2  0  0  3  0  0  0  0  0  0
  189.4630  177.6810  140.7300 C   0  0  0  0  0  0  0  0  0  0  0  0
  188.6800  177.5440  139.5210 C   0  0  0  0  0  0  0  0  0  0  0  0
  190.0630  177.7710  145.2810 N   0  0  0  0  0  0  0  0  0  0  0  0
  191.3410  177.8280  144.5940 C   0  0  0  0  0  2  0  0  0  0  0  0
  187.4850  178.6250  141.8640 C   0  0  0  0  0  3  0  0  0  0  0  0
  189.5040  178.2380  143.1760 C   0  0  0  0  0  0  0  0  0  0  0  0
  187.3540  178.1080  139.5240 C   0  0  0  0  0  0  0  0  0  0  0  0
  188.7960  178.1760  141.8990 C   0  0  0  0  0  0  0  0  0  0  0  0
  186.5160  178.2780  138.2900 C   0  0  0  0  0  2  0  0  0  0  0  0
  185.0840  178.6440  138.6570 C   0  0  0  0  0  2  0  0  0  0  0  0
  184.2140  177.4280  138.6180 C   0  0  0  0  0  0  0  0  0  0  0  0
  183.5520  175.3120  137.4660 C   0  0  0  0  0  2  0  0  0  0  0  0
  184.4070  176.5390  137.6290 C   0  0  0  0  0  3  0  0  0  0  0  0
  182.2570  176.0200  139.4530 C   0  0  0  0  0  2  0  0  0  0  0  0
  182.9990  177.3570  139.5290 C   0  0  1  0  0  3  0  0  0  0  0  0
  183.3830  177.6260  140.9740 C   0  0  0  0  0  1  0  0  0  0  0  0
  182.1500  175.5470  138.0100 C   0  0  0  0  0  2  0  0  0  0  0  0
  189.8990  177.4320  146.6870 C   0  0  0  0  0  2  0  0  0  0  0  0
  188.4370  177.1350  146.9980 C   0  0  1  0  0  3  0  0  0  0  0  0
  188.3340  176.0310  147.8520 O   0  0  0  0  0  1  0  0  0  0  0  0
  187.7430  178.3490  147.6050 C   0  0  0  0  0  2  0  0  0  0  0  0
  186.3860  178.6130  146.9630 C   0  0  0  0  0  1  0  0  0  0  0  0
  1 11  1  0  0  0  0
  2 17  1  0  0  0  0
  3 12  1  0  0  0  0
  3  1  2  0  0  0  0
  4  7  1  0  0  0  0
  5  3  1  0  0  0  0
  6  1  1  0  0  0  0
  7 14  1  0  0  0  0
  8 19  1  0  0  0  0
  9  5  2  0  0  0  0
  9  6  1  0  0  0  0
 10 12  2  0  0  0  0
 11  4  2  0  0  0  0
 12 16  1  0  0  0  0
 13  5  1  0  0  0  0
 14 18  1  1  0  0  0
 15  4  1  0  0  0  0
 15 22  1  0  0  0  0
 16 21  1  0  0  0  0
 16 15  2  0  0  0  0
 17 32  1  0  0  0  0
 18 17  1  0  0  0  0
 19 22  2  0  0  0  0
 20 14  1  0  0  0  0
 20  2  2  0  0  0  0
 21  8  2  0  0  0  0
 22 20  1  0  0  0  0
 23 24  1  0  0  0  0
 23 21  1  0  0  0  0
 25 24  1  0  0  0  0
 25 29  1  0  0  0  0
 26 27  1  0  0  0  0
 26 31  1  0  0  0  0
 27 25  2  0  0  0  0
 28 29  1  0  0  0  0
 29 30  1  1  0  0  0
 31 28  1  0  0  0  0
 32 33  1  0  0  0  0
 33 35  1  0  0  0  0
 33 34  1  1  0  0  0
 36 35  1  0  0  0  0
M  END
>  <MODEL>
9

>  <REMARK>
 VINA RESULT:      -8.4      3.814      7.612
  Name = 
  6 active torsions:
  status: ('A' for Active; 'I' for Inactive)
    1  A    between atoms: C_4  and  C_25
    2  A    between atoms: C_4  and  C_32
    3  A    between atoms: C_5  and  C_34
    4  A    between atoms: C_7  and  C_34
    5  A    between atoms: C_7  and  C_35
    6  A    between atoms: N_27  and  C_32
                            x       y       z     vdW  Elec       q    Type
                         _______ _______ _______ _____ _____    ______ ____

>  <TORSDO>
F 6

$$$$
