=
 OpenBabel10222419213D

 49 54  0  0  1  0  0  0  0  0999 V2000
  184.7190  178.7380  144.1690 C   0  0  0  0  0  2  0  0  0  0  0  0
  188.8950  177.3050  141.2360 C   0  0  0  0  0  0  0  0  0  0  0  0
  186.5680  178.3860  142.3430 C   0  0  0  0  0  0  0  0  0  0  0  0
  188.2500  178.3900  140.6470 C   0  0  0  0  0  3  0  0  0  0  0  0
  185.2290  178.9750  142.7510 C   0  0  1  0  0  3  0  0  0  0  0  0
  186.2370  178.0660  145.9960 C   0  0  1  0  0  3  0  0  0  0  0  0
  186.7850  176.7290  144.2920 C   0  0  0  0  0  2  0  0  0  0  0  0
  185.6720  179.2630  145.2300 C   0  0  0  0  0  2  0  0  0  0  0  0
  187.2090  177.2900  142.9760 C   0  0  0  0  0  0  0  0  0  0  0  0
  187.3270  177.5180  145.3120 O   0  0  0  0  0  0  0  0  0  0  0  0
  188.3760  176.7720  142.4130 C   0  0  0  0  0  3  0  0  0  0  0  0
  187.1190  178.8910  141.2030 N   0  0  0  0  0  0  0  0  0  0  0  0
  182.9620  178.1120  142.0620 C   0  0  0  0  0  3  0  0  0  0  0  0
  184.1780  178.5860  141.7600 C   0  0  0  0  0  0  0  0  0  0  0  0
  182.8930  178.4080  139.9060 C   0  0  0  0  0  0  0  0  0  0  0  0
  181.1170  179.2600  137.8230 Cl  0  0  0  0  0  0  0  0  0  0  0  0
  183.6010  180.1160  138.6680 C   0  0  0  0  0  3  0  0  0  0  0  0
  184.5730  179.8830  139.7050 N   0  0  0  0  0  0  0  0  0  0  0  0
  182.1280  178.0670  140.8900 N   0  0  0  0  0  0  0  0  0  0  0  0
  184.1660  178.8310  140.3320 C   0  0  0  0  0  0  0  0  0  0  0  0
  182.5750  179.2720  138.7910 C   0  0  0  0  0  0  0  0  0  0  0  0
  186.6780  178.4940  147.3860 C   0  0  0  0  0  2  0  0  0  0  0  0
  187.6570  177.4780  147.9580 C   0  0  0  0  0  2  0  0  0  0  0  0
  189.0340  178.0970  148.1390 C   0  0  0  0  0  2  0  0  0  0  0  0
  191.1050  177.7430  144.9790 C   0  0  0  0  0  0  0  0  0  0  0  0
  190.7600  176.4180  147.4230 C   0  0  0  0  0  3  0  0  0  0  0  0
  191.8540  176.5950  145.2650 C   0  0  0  0  0  3  0  0  0  0  0  0
  191.2900  178.4510  143.6830 C   0  0  0  0  0  1  0  0  0  0  0  0
  190.0090  177.5660  147.1380 C   0  0  0  0  0  0  0  0  0  0  0  0
  190.1850  178.2280  145.9150 C   0  0  0  0  0  3  0  0  0  0  0  0
  191.6810  175.9320  146.4850 C   0  0  0  0  0  3  0  0  0  0  0  0
  190.0870  176.7460  140.6710 N   0  0  0  0  0  2  0  0  0  0  0  0
  190.8010  177.3570  139.5590 C   0  0  0  0  0  2  0  0  0  0  0  0
  190.9360  176.3850  138.4380 C   0  0  0  0  0  0  0  0  0  0  0  0
  190.7490  175.1570  138.6550 O   0  0  0  0  0  0  0  0  0  0  0  0
  191.2650  176.8520  137.1220 N   0  0  0  0  0  2  0  0  0  0  0  0
  191.3900  175.9630  135.9780 C   0  0  0  0  0  2  0  0  0  0  0  0
  190.1490  176.0620  135.1040 C   0  0  0  0  0  2  0  0  0  0  0  0
  189.2910  174.9110  135.3290 N   0  0  0  0  0  2  0  0  0  0  0  0
  188.1880  175.3450  136.1770 C   0  0  0  0  0  2  0  0  0  0  0  0
  187.8470  176.7250  135.8830 N   0  0  0  0  0  2  0  0  0  0  0  0
  187.5720  177.6510  136.9380 C   0  0  0  0  0  3  0  0  0  0  0  0
  186.3250  177.9200  137.3270 C   0  0  0  0  0  3  0  0  0  0  0  0
  185.1300  177.2660  136.7090 C   0  0  0  0  0  2  0  0  0  0  0  0
  184.7810  174.9620  135.4850 O   0  0  0  0  0  1  0  0  0  0  0  0
  184.3190  174.9690  136.8050 C   0  0  2  0  0  0  0  0  0  0  0  0
  184.4430  173.7040  137.6260 C   0  0  0  0  0  1  0  0  0  0  0  0
  183.2650  175.9120  137.1290 C   0  0  0  0  0  2  0  0  0  0  0  0
  184.6490  176.1910  137.5720 N   0  0  0  0  0  0  0  0  0  0  0  0
  1  8  1  0  0  0  0
  2 11  1  0  0  0  0
  3  5  1  0  0  0  0
  3  9  1  0  0  0  0
  4 12  1  0  0  0  0
  4  2  2  0  0  0  0
  5 14  1  6  0  0  0
  5  1  1  0  0  0  0
  6 22  1  1  0  0  0
  7 10  1  0  0  0  0
  8  6  1  0  0  0  0
  9  7  1  0  0  0  0
 10  6  1  0  0  0  0
 11  9  2  0  0  0  0
 12  3  2  0  0  0  0
 14 13  1  0  0  0  0
 15 20  1  0  0  0  0
 15 19  1  0  0  0  0
 16 21  1  0  0  0  0
 17 21  1  0  0  0  0
 17 18  2  0  0  0  0
 18 20  1  0  0  0  0
 19 13  2  0  0  0  0
 20 14  2  0  0  0  0
 21 15  2  0  0  0  0
 22 23  1  0  0  0  0
 23 24  1  0  0  0  0
 25 27  2  0  0  0  0
 25 30  1  0  0  0  0
 27 31  1  0  0  0  0
 28 25  1  0  0  0  0
 29 26  1  0  0  0  0
 29 24  1  0  0  0  0
 30 29  2  0  0  0  0
 31 26  2  0  0  0  0
 32  2  1  0  0  0  0
 33 32  1  0  0  0  0
 34 35  2  0  0  0  0
 34 33  1  0  0  0  0
 36 34  1  0  0  0  0
 37 36  1  0  0  0  0
 38 39  1  0  0  0  0
 38 37  1  0  0  0  0
 39 40  1  0  0  0  0
 41 40  1  0  0  0  0
 41 42  1  0  0  0  0
 42 43  2  0  0  0  0
 44 43  1  0  0  0  0
 44 49  1  0  0  0  0
 45 46  1  0  0  0  0
 46 48  1  0  0  0  0
 46 49  1  0  0  0  0
 46 47  1  1  0  0  0
 48 49  1  0  0  0  0
M  END
>  <MODEL>
1

>  <REMARK>
 VINA RESULT:      -8.5      0.000      0.000
  Name = 
  16 active torsions:
  status: ('A' for Active; 'I' for Inactive)
    1  A    between atoms: C_1  and  C_26
    2  A    between atoms: C_1  and  C_41
    3  A    between atoms: C_3  and  N_49
    4  A    between atoms: N_4  and  C_32
    5  A    between atoms: N_4  and  C_47
    6  A    between atoms: C_9  and  C_14
    7  A    between atoms: N_17  and  C_27
    8  A    between atoms: N_17  and  C_47
    9  A    between atoms: C_19  and  C_38
   10  A    between atoms: N_21  and  C_28
   11  A    between atoms: C_22  and  C_42
   12  A    between atoms: C_28  and  C_32
   13  A    between atoms: C_29  and  C_34
   14  A    between atoms: C_29  and  N_45
   15  A    between atoms: C_38  and  N_49
   16  A    between atoms: C_41  and  C_42
                            x       y       z     vdW  Elec       q    Type
                         _______ _______ _______ _____ _____    ______ ____

>  <TORSDO>
F 16

$$$$
=
 OpenBabel10222419213D

 49 54  0  0  1  0  0  0  0  0999 V2000
  184.6470  178.6330  143.7130 C   0  0  0  0  0  2  0  0  0  0  0  0
  189.1570  177.2890  141.2740 C   0  0  0  0  0  0  0  0  0  0  0  0
  186.6860  178.3020  142.0970 C   0  0  0  0  0  0  0  0  0  0  0  0
  188.5300  178.3220  140.5810 C   0  0  0  0  0  3  0  0  0  0  0  0
  185.2890  178.8430  142.3450 C   0  0  1  0  0  3  0  0  0  0  0  0
  185.9980  178.0960  145.7080 C   0  0  1  0  0  3  0  0  0  0  0  0
  186.7720  176.7260  144.1230 C   0  0  0  0  0  2  0  0  0  0  0  0
  185.4640  179.2380  144.8420 C   0  0  0  0  0  2  0  0  0  0  0  0
  187.3040  177.2590  142.8350 C   0  0  0  0  0  0  0  0  0  0  0  0
  187.1740  177.5750  145.1600 O   0  0  0  0  0  0  0  0  0  0  0  0
  188.5440  176.7760  142.4130 C   0  0  0  0  0  3  0  0  0  0  0  0
  187.3290  178.7910  140.9990 N   0  0  0  0  0  0  0  0  0  0  0  0
  183.3390  177.5240  141.4420 C   0  0  0  0  0  3  0  0  0  0  0  0
  184.3620  178.3720  141.2700 C   0  0  0  0  0  0  0  0  0  0  0  0
  183.1250  178.1990  139.3820 C   0  0  0  0  0  0  0  0  0  0  0  0
  181.1200  178.9000  137.4580 Cl  0  0  0  0  0  0  0  0  0  0  0  0
  183.2840  180.2430  138.5180 C   0  0  0  0  0  3  0  0  0  0  0  0
  184.3130  180.0990  139.5160 N   0  0  0  0  0  0  0  0  0  0  0  0
  182.5170  177.4720  140.2610 N   0  0  0  0  0  0  0  0  0  0  0  0
  184.2390  178.8740  139.9160 C   0  0  0  0  0  0  0  0  0  0  0  0
  182.5430  179.1360  138.4480 C   0  0  0  0  0  0  0  0  0  0  0  0
  186.2760  178.5930  147.1170 C   0  0  0  0  0  2  0  0  0  0  0  0
  187.3330  177.7190  147.7790 C   0  0  0  0  0  2  0  0  0  0  0  0
  188.6380  178.4820  147.9440 C   0  0  0  0  0  2  0  0  0  0  0  0
  191.5960  176.3750  146.8420 C   0  0  0  0  0  0  0  0  0  0  0  0
  189.8720  178.3020  145.7640 C   0  0  0  0  0  3  0  0  0  0  0  0
  191.7440  176.7790  145.5110 C   0  0  0  0  0  3  0  0  0  0  0  0
  192.5070  175.3470  147.4160 C   0  0  0  0  0  1  0  0  0  0  0  0
  189.7240  177.9000  147.0980 C   0  0  0  0  0  0  0  0  0  0  0  0
  190.5860  176.9330  147.6340 C   0  0  0  0  0  3  0  0  0  0  0  0
  190.8840  177.7430  144.9710 C   0  0  0  0  0  3  0  0  0  0  0  0
  190.4230  176.7660  140.8540 N   0  0  0  0  0  2  0  0  0  0  0  0
  191.6640  177.5210  140.9420 C   0  0  0  0  0  2  0  0  0  0  0  0
  192.5580  177.1770  139.8010 C   0  0  0  0  0  0  0  0  0  0  0  0
  193.8030  177.3460  139.9150 O   0  0  0  0  0  0  0  0  0  0  0  0
  192.0010  176.6480  138.5900 N   0  0  0  0  0  2  0  0  0  0  0  0
  192.8170  176.2700  137.4460 C   0  0  0  0  0  2  0  0  0  0  0  0
  192.8500  174.7560  137.3080 C   0  0  0  0  0  2  0  0  0  0  0  0
  193.1790  174.3880  135.9420 N   0  0  0  0  0  2  0  0  0  0  0  0
  192.0250  174.7080  135.1100 C   0  0  0  0  0  2  0  0  0  0  0  0
  190.8140  174.1910  135.7220 N   0  0  0  0  0  2  0  0  0  0  0  0
  189.7000  173.7970  134.9160 C   0  0  0  0  0  3  0  0  0  0  0  0
  188.7290  174.6550  134.5950 C   0  0  0  0  0  3  0  0  0  0  0  0
  188.7420  176.0850  135.0320 C   0  0  0  0  0  2  0  0  0  0  0  0
  189.0230  178.2810  136.4560 O   0  0  0  0  0  1  0  0  0  0  0  0
  187.9600  177.4740  136.8760 C   0  0  2  0  0  0  0  0  0  0  0  0
  186.7080  178.1380  137.4100 C   0  0  0  0  0  1  0  0  0  0  0  0
  188.2880  176.1350  137.3290 C   0  0  0  0  0  2  0  0  0  0  0  0
  187.6710  176.3190  135.9970 N   0  0  0  0  0  0  0  0  0  0  0  0
  1  8  1  0  0  0  0
  2 11  1  0  0  0  0
  3  5  1  0  0  0  0
  3  9  1  0  0  0  0
  4 12  1  0  0  0  0
  4  2  2  0  0  0  0
  5 14  1  6  0  0  0
  5  1  1  0  0  0  0
  6 22  1  1  0  0  0
  7 10  1  0  0  0  0
  8  6  1  0  0  0  0
  9  7  1  0  0  0  0
 10  6  1  0  0  0  0
 11  9  2  0  0  0  0
 12  3  2  0  0  0  0
 14 13  1  0  0  0  0
 15 20  1  0  0  0  0
 15 19  1  0  0  0  0
 16 21  1  0  0  0  0
 17 18  2  0  0  0  0
 18 20  1  0  0  0  0
 19 13  2  0  0  0  0
 20 14  2  0  0  0  0
 21 17  1  0  0  0  0
 21 15  2  0  0  0  0
 22 23  1  0  0  0  0
 23 24  1  0  0  0  0
 25 28  1  0  0  0  0
 25 30  1  0  0  0  0
 26 29  1  0  0  0  0
 27 25  2  0  0  0  0
 29 30  2  0  0  0  0
 29 24  1  0  0  0  0
 31 27  1  0  0  0  0
 31 26  2  0  0  0  0
 32 33  1  0  0  0  0
 32  2  1  0  0  0  0
 34 35  2  0  0  0  0
 34 33  1  0  0  0  0
 36 34  1  0  0  0  0
 37 36  1  0  0  0  0
 38 37  1  0  0  0  0
 39 38  1  0  0  0  0
 40 41  1  0  0  0  0
 40 39  1  0  0  0  0
 42 41  1  0  0  0  0
 43 42  2  0  0  0  0
 43 44  1  0  0  0  0
 44 49  1  0  0  0  0
 45 46  1  0  0  0  0
 46 48  1  0  0  0  0
 46 47  1  1  0  0  0
 49 46  1  0  0  0  0
 49 48  1  0  0  0  0
M  END
>  <MODEL>
2

>  <REMARK>
 VINA RESULT:      -8.0      1.675      2.564
  Name = 
  16 active torsions:
  status: ('A' for Active; 'I' for Inactive)
    1  A    between atoms: C_1  and  C_26
    2  A    between atoms: C_1  and  C_41
    3  A    between atoms: C_3  and  N_49
    4  A    between atoms: N_4  and  C_32
    5  A    between atoms: N_4  and  C_47
    6  A    between atoms: C_9  and  C_14
    7  A    between atoms: N_17  and  C_27
    8  A    between atoms: N_17  and  C_47
    9  A    between atoms: C_19  and  C_38
   10  A    between atoms: N_21  and  C_28
   11  A    between atoms: C_22  and  C_42
   12  A    between atoms: C_28  and  C_32
   13  A    between atoms: C_29  and  C_34
   14  A    between atoms: C_29  and  N_45
   15  A    between atoms: C_38  and  N_49
   16  A    between atoms: C_41  and  C_42
                            x       y       z     vdW  Elec       q    Type
                         _______ _______ _______ _____ _____    ______ ____

>  <TORSDO>
F 16

$$$$
=
 OpenBabel10222419213D

 49 54  0  0  1  0  0  0  0  0999 V2000
  191.6290  176.8460  139.2030 C   0  0  0  0  0  2  0  0  0  0  0  0
  188.4050  173.9420  136.1580 C   0  0  0  0  0  0  0  0  0  0  0  0
  190.4570  175.0390  137.7050 C   0  0  0  0  0  0  0  0  0  0  0  0
  189.4990  173.1770  136.5570 C   0  0  0  0  0  3  0  0  0  0  0  0
  191.7020  175.5400  138.4150 C   0  0  1  0  0  3  0  0  0  0  0  0
  189.4730  177.7900  139.9460 C   0  0  1  0  0  3  0  0  0  0  0  0
  189.1350  177.2380  137.8070 C   0  0  0  0  0  2  0  0  0  0  0  0
  190.5860  176.8050  140.3060 C   0  0  0  0  0  2  0  0  0  0  0  0
  189.3490  175.8420  137.3280 C   0  0  0  0  0  0  0  0  0  0  0  0
  188.5530  177.1920  139.0790 O   0  0  0  0  0  0  0  0  0  0  0  0
  188.3290  175.2710  136.5650 C   0  0  0  0  0  3  0  0  0  0  0  0
  190.4840  173.7370  137.3030 N   0  0  0  0  0  0  0  0  0  0  0  0
  193.2800  176.6780  136.8100 C   0  0  0  0  0  3  0  0  0  0  0  0
  192.8510  175.5870  137.4580 C   0  0  0  0  0  0  0  0  0  0  0  0
  194.7760  175.1650  136.3440 C   0  0  0  0  0  0  0  0  0  0  0  0
  197.5990  174.8600  135.9590 Cl  0  0  0  0  0  0  0  0  0  0  0  0
  195.7780  173.6840  137.6660 C   0  0  0  0  0  3  0  0  0  0  0  0
  194.3940  173.7630  138.0550 N   0  0  0  0  0  0  0  0  0  0  0  0
  194.5390  176.4230  136.1610 N   0  0  0  0  0  0  0  0  0  0  0  0
  193.8390  174.5580  137.2030 C   0  0  0  0  0  0  0  0  0  0  0  0
  196.0350  174.5370  136.6730 C   0  0  0  0  0  0  0  0  0  0  0  0
  188.7540  178.2520  141.2030 C   0  0  0  0  0  2  0  0  0  0  0  0
  189.2930  177.5040  142.4150 C   0  0  0  0  0  2  0  0  0  0  0  0
  188.1940  176.6890  143.0790 C   0  0  0  0  0  2  0  0  0  0  0  0
  186.5050  177.9230  146.2460 C   0  0  0  0  0  0  0  0  0  0  0  0
  189.0380  177.0630  145.4150 C   0  0  0  0  0  3  0  0  0  0  0  0
  187.5630  177.8760  147.1610 C   0  0  0  0  0  3  0  0  0  0  0  0
  185.1560  178.3750  146.6860 C   0  0  0  0  0  1  0  0  0  0  0  0
  187.9800  177.1110  144.4970 C   0  0  0  0  0  0  0  0  0  0  0  0
  186.7130  177.5390  144.9160 C   0  0  0  0  0  3  0  0  0  0  0  0
  188.8290  177.4470  146.7460 C   0  0  0  0  0  3  0  0  0  0  0  0
  187.3510  173.3830  135.3630 N   0  0  0  0  0  2  0  0  0  0  0  0
  186.3730  172.4420  135.8880 C   0  0  0  0  0  2  0  0  0  0  0  0
  185.4900  173.1180  136.8800 C   0  0  0  0  0  0  0  0  0  0  0  0
  185.6440  172.8830  138.1090 O   0  0  0  0  0  0  0  0  0  0  0  0
  184.4830  174.0370  136.4330 N   0  0  0  0  0  2  0  0  0  0  0  0
  183.6030  174.7480  137.3470 C   0  0  0  0  0  2  0  0  0  0  0  0
  182.1510  174.5050  136.9670 C   0  0  0  0  0  2  0  0  0  0  0  0
  181.5220  175.7560  136.5810 N   0  0  0  0  0  2  0  0  0  0  0  0
  181.7260  176.7050  137.6690 C   0  0  0  0  0  2  0  0  0  0  0  0
  181.9240  178.0400  137.1340 N   0  0  0  0  0  2  0  0  0  0  0  0
  181.3010  179.1720  137.7470 C   0  0  0  0  0  3  0  0  0  0  0  0
  181.9740  179.9870  138.5610 C   0  0  0  0  0  3  0  0  0  0  0  0
  183.4230  179.7930  138.8760 C   0  0  0  0  0  2  0  0  0  0  0  0
  185.7910  178.8780  139.5700 O   0  0  0  0  0  1  0  0  0  0  0  0
  184.8810  178.9370  140.6310 C   0  0  2  0  0  0  0  0  0  0  0  0
  185.3960  179.2780  142.0140 C   0  0  0  0  0  1  0  0  0  0  0  0
  183.6770  178.1370  140.5120 C   0  0  0  0  0  2  0  0  0  0  0  0
  183.5970  179.6010  140.3130 N   0  0  0  0  0  0  0  0  0  0  0  0
  1  8  1  0  0  0  0
  2  4  2  0  0  0  0
  2 11  1  0  0  0  0
  3  5  1  0  0  0  0
  4 12  1  0  0  0  0
  5 14  1  6  0  0  0
  5  1  1  0  0  0  0
  6  8  1  0  0  0  0
  6 22  1  1  0  0  0
  7 10  1  0  0  0  0
  9  3  1  0  0  0  0
  9  7  1  0  0  0  0
 10  6  1  0  0  0  0
 11  9  2  0  0  0  0
 12  3  2  0  0  0  0
 13 14  1  0  0  0  0
 15 21  2  0  0  0  0
 15 20  1  0  0  0  0
 16 21  1  0  0  0  0
 17 18  2  0  0  0  0
 19 15  1  0  0  0  0
 19 13  2  0  0  0  0
 20 14  2  0  0  0  0
 20 18  1  0  0  0  0
 21 17  1  0  0  0  0
 22 23  1  0  0  0  0
 23 24  1  0  0  0  0
 24 29  1  0  0  0  0
 25 28  1  0  0  0  0
 25 27  1  0  0  0  0
 26 31  1  0  0  0  0
 29 30  1  0  0  0  0
 29 26  2  0  0  0  0
 30 25  2  0  0  0  0
 31 27  2  0  0  0  0
 32 33  1  0  0  0  0
 32  2  1  0  0  0  0
 33 34  1  0  0  0  0
 34 35  2  0  0  0  0
 36 34  1  0  0  0  0
 36 37  1  0  0  0  0
 38 37  1  0  0  0  0
 39 38  1  0  0  0  0
 39 40  1  0  0  0  0
 41 40  1  0  0  0  0
 41 42  1  0  0  0  0
 42 43  2  0  0  0  0
 43 44  1  0  0  0  0
 44 49  1  0  0  0  0
 45 46  1  0  0  0  0
 46 47  1  1  0  0  0
 48 46  1  0  0  0  0
 49 48  1  0  0  0  0
 49 46  1  0  0  0  0
M  END
>  <MODEL>
3

>  <REMARK>
 VINA RESULT:      -7.9      3.393      7.976
  Name = 
  16 active torsions:
  status: ('A' for Active; 'I' for Inactive)
    1  A    between atoms: C_1  and  C_26
    2  A    between atoms: C_1  and  C_41
    3  A    between atoms: C_3  and  N_49
    4  A    between atoms: N_4  and  C_32
    5  A    between atoms: N_4  and  C_47
    6  A    between atoms: C_9  and  C_14
    7  A    between atoms: N_17  and  C_27
    8  A    between atoms: N_17  and  C_47
    9  A    between atoms: C_19  and  C_38
   10  A    between atoms: N_21  and  C_28
   11  A    between atoms: C_22  and  C_42
   12  A    between atoms: C_28  and  C_32
   13  A    between atoms: C_29  and  C_34
   14  A    between atoms: C_29  and  N_45
   15  A    between atoms: C_38  and  N_49
   16  A    between atoms: C_41  and  C_42
                            x       y       z     vdW  Elec       q    Type
                         _______ _______ _______ _____ _____    ______ ____

>  <TORSDO>
F 16

$$$$
=
 OpenBabel10222419213D

 49 54  0  0  1  0  0  0  0  0999 V2000
  184.4690  178.6960  143.6000 C   0  0  0  0  0  2  0  0  0  0  0  0
  189.0350  177.2510  141.3300 C   0  0  0  0  0  0  0  0  0  0  0  0
  186.5550  178.3110  142.0560 C   0  0  0  0  0  0  0  0  0  0  0  0
  188.4480  178.2820  140.6020 C   0  0  0  0  0  3  0  0  0  0  0  0
  185.1580  178.8760  142.2500 C   0  0  1  0  0  3  0  0  0  0  0  0
  185.7440  178.1690  145.6450 C   0  0  1  0  0  3  0  0  0  0  0  0
  186.5500  176.7640  144.1060 C   0  0  0  0  0  2  0  0  0  0  0  0
  185.2570  179.3060  144.7460 C   0  0  0  0  0  2  0  0  0  0  0  0
  187.1320  177.2700  142.8290 C   0  0  0  0  0  0  0  0  0  0  0  0
  186.9300  177.6220  145.1440 O   0  0  0  0  0  0  0  0  0  0  0  0
  188.3770  176.7620  142.4560 C   0  0  0  0  0  3  0  0  0  0  0  0
  187.2400  178.7740  140.9730 N   0  0  0  0  0  0  0  0  0  0  0  0
  183.2780  177.5020  141.2850 C   0  0  0  0  0  3  0  0  0  0  0  0
  184.2600  178.4030  141.1520 C   0  0  0  0  0  0  0  0  0  0  0  0
  183.0420  178.2450  139.2510 C   0  0  0  0  0  0  0  0  0  0  0  0
  181.0150  178.9220  137.3410 Cl  0  0  0  0  0  0  0  0  0  0  0  0
  183.1080  180.3250  138.4660 C   0  0  0  0  0  3  0  0  0  0  0  0
  184.1370  180.1920  139.4650 N   0  0  0  0  0  0  0  0  0  0  0  0
  182.4650  177.4560  140.0970 N   0  0  0  0  0  0  0  0  0  0  0  0
  184.1200  178.9510  139.8170 C   0  0  0  0  0  0  0  0  0  0  0  0
  182.4200  179.1880  138.3490 C   0  0  0  0  0  0  0  0  0  0  0  0
  185.9840  178.6820  147.0560 C   0  0  0  0  0  2  0  0  0  0  0  0
  187.4780  178.8320  147.3100 C   0  0  0  0  0  2  0  0  0  0  0  0
  188.0900  177.5040  147.7290 C   0  0  0  0  0  2  0  0  0  0  0  0
  190.9200  177.7380  145.2110 C   0  0  0  0  0  0  0  0  0  0  0  0
  190.3110  176.3420  147.5620 C   0  0  0  0  0  3  0  0  0  0  0  0
  191.8370  176.8230  145.7390 C   0  0  0  0  0  3  0  0  0  0  0  0
  191.2420  178.4840  143.9640 C   0  0  0  0  0  1  0  0  0  0  0  0
  189.3900  177.2570  147.0330 C   0  0  0  0  0  0  0  0  0  0  0  0
  189.6990  177.9560  145.8580 C   0  0  0  0  0  3  0  0  0  0  0  0
  191.5340  176.1250  146.9130 C   0  0  0  0  0  3  0  0  0  0  0  0
  190.3070  176.7020  140.9590 N   0  0  0  0  0  2  0  0  0  0  0  0
  191.1820  177.3210  139.9750 C   0  0  0  0  0  2  0  0  0  0  0  0
  190.9330  176.7400  138.6270 C   0  0  0  0  0  0  0  0  0  0  0  0
  190.4240  177.4600  137.7250 O   0  0  0  0  0  0  0  0  0  0  0  0
  191.2830  175.3750  138.3590 N   0  0  0  0  0  2  0  0  0  0  0  0
  191.0890  174.7510  137.0600 C   0  0  0  0  0  2  0  0  0  0  0  0
  189.8920  173.8140  137.1060 C   0  0  0  0  0  2  0  0  0  0  0  0
  188.6590  174.5780  137.0230 N   0  0  0  0  0  2  0  0  0  0  0  0
  187.8910  174.0520  135.9010 C   0  0  0  0  0  2  0  0  0  0  0  0
  186.4930  173.9270  136.2710 N   0  0  0  0  0  2  0  0  0  0  0  0
  186.1090  173.1930  137.4380 C   0  0  0  0  0  3  0  0  0  0  0  0
  184.8280  172.9710  137.7370 C   0  0  0  0  0  3  0  0  0  0  0  0
  183.7050  173.4510  136.8720 C   0  0  0  0  0  2  0  0  0  0  0  0
  181.2760  173.8430  135.9380 O   0  0  0  0  0  1  0  0  0  0  0  0
  181.6620  174.7790  136.9030 C   0  0  2  0  0  0  0  0  0  0  0  0
  180.6140  175.3170  137.8540 C   0  0  0  0  0  1  0  0  0  0  0  0
  182.8180  175.6010  136.5990 C   0  0  0  0  0  2  0  0  0  0  0  0
  182.9530  174.4910  137.5680 N   0  0  0  0  0  0  0  0  0  0  0  0
  1  8  1  0  0  0  0
  2 11  1  0  0  0  0
  3  5  1  0  0  0  0
  3  9  1  0  0  0  0
  4 12  1  0  0  0  0
  4  2  2  0  0  0  0
  5 14  1  6  0  0  0
  5  1  1  0  0  0  0
  6 22  1  1  0  0  0
  7 10  1  0  0  0  0
  8  6  1  0  0  0  0
  9  7  1  0  0  0  0
 10  6  1  0  0  0  0
 11  9  2  0  0  0  0
 12  3  2  0  0  0  0
 14 13  1  0  0  0  0
 15 20  1  0  0  0  0
 15 19  1  0  0  0  0
 16 21  1  0  0  0  0
 17 18  2  0  0  0  0
 18 20  1  0  0  0  0
 19 13  2  0  0  0  0
 20 14  2  0  0  0  0
 21 17  1  0  0  0  0
 21 15  2  0  0  0  0
 22 23  1  0  0  0  0
 23 24  1  0  0  0  0
 25 27  2  0  0  0  0
 25 30  1  0  0  0  0
 27 31  1  0  0  0  0
 28 25  1  0  0  0  0
 29 26  1  0  0  0  0
 29 24  1  0  0  0  0
 30 29  2  0  0  0  0
 31 26  2  0  0  0  0
 32  2  1  0  0  0  0
 33 32  1  0  0  0  0
 34 33  1  0  0  0  0
 35 34  2  0  0  0  0
 36 34  1  0  0  0  0
 37 38  1  0  0  0  0
 37 36  1  0  0  0  0
 39 38  1  0  0  0  0
 40 41  1  0  0  0  0
 40 39  1  0  0  0  0
 41 42  1  0  0  0  0
 42 43  2  0  0  0  0
 44 49  1  0  0  0  0
 44 43  1  0  0  0  0
 45 46  1  0  0  0  0
 46 49  1  0  0  0  0
 46 47  1  1  0  0  0
 48 46  1  0  0  0  0
 48 49  1  0  0  0  0
M  END
>  <MODEL>
4

>  <REMARK>
 VINA RESULT:      -7.8      1.429      1.809
  Name = 
  16 active torsions:
  status: ('A' for Active; 'I' for Inactive)
    1  A    between atoms: C_1  and  C_26
    2  A    between atoms: C_1  and  C_41
    3  A    between atoms: C_3  and  N_49
    4  A    between atoms: N_4  and  C_32
    5  A    between atoms: N_4  and  C_47
    6  A    between atoms: C_9  and  C_14
    7  A    between atoms: N_17  and  C_27
    8  A    between atoms: N_17  and  C_47
    9  A    between atoms: C_19  and  C_38
   10  A    between atoms: N_21  and  C_28
   11  A    between atoms: C_22  and  C_42
   12  A    between atoms: C_28  and  C_32
   13  A    between atoms: C_29  and  C_34
   14  A    between atoms: C_29  and  N_45
   15  A    between atoms: C_38  and  N_49
   16  A    between atoms: C_41  and  C_42
                            x       y       z     vdW  Elec       q    Type
                         _______ _______ _______ _____ _____    ______ ____

>  <TORSDO>
F 16

$$$$
=
 OpenBabel10222419213D

 49 54  0  0  1  0  0  0  0  0999 V2000
  184.3350  178.6610  143.6740 C   0  0  0  0  0  2  0  0  0  0  0  0
  188.9580  177.4460  141.3850 C   0  0  0  0  0  0  0  0  0  0  0  0
  186.4370  178.3930  142.1280 C   0  0  0  0  0  0  0  0  0  0  0  0
  188.3320  178.4700  140.6780 C   0  0  0  0  0  3  0  0  0  0  0  0
  185.0200  178.8980  142.3310 C   0  0  1  0  0  3  0  0  0  0  0  0
  185.6270  178.1380  145.7110 C   0  0  1  0  0  3  0  0  0  0  0  0
  186.4890  176.8010  144.1420 C   0  0  0  0  0  2  0  0  0  0  0  0
  185.0970  179.2750  144.8360 C   0  0  0  0  0  2  0  0  0  0  0  0
  187.0530  177.3580  142.8780 C   0  0  0  0  0  0  0  0  0  0  0  0
  186.8340  177.6490  145.2000 O   0  0  0  0  0  0  0  0  0  0  0  0
  188.3180  176.9080  142.4970 C   0  0  0  0  0  3  0  0  0  0  0  0
  187.1060  178.9070  141.0580 N   0  0  0  0  0  0  0  0  0  0  0  0
  183.1500  177.5240  141.3440 C   0  0  0  0  0  3  0  0  0  0  0  0
  184.1420  178.4160  141.2200 C   0  0  0  0  0  0  0  0  0  0  0  0
  182.9660  178.2380  139.2950 C   0  0  0  0  0  0  0  0  0  0  0  0
  180.9870  178.9020  137.3300 Cl  0  0  0  0  0  0  0  0  0  0  0  0
  183.0660  180.3050  138.4810 C   0  0  0  0  0  3  0  0  0  0  0  0
  184.0710  180.1800  139.5040 N   0  0  0  0  0  0  0  0  0  0  0  0
  182.3640  177.4670  140.1400 N   0  0  0  0  0  0  0  0  0  0  0  0
  184.0360  178.9440  139.8750 C   0  0  0  0  0  0  0  0  0  0  0  0
  182.3720  179.1720  138.3650 C   0  0  0  0  0  0  0  0  0  0  0  0
  185.8430  178.6290  147.1330 C   0  0  0  0  0  2  0  0  0  0  0  0
  187.3240  178.8910  147.3740 C   0  0  0  0  0  2  0  0  0  0  0  0
  188.0270  177.6280  147.8470 C   0  0  0  0  0  2  0  0  0  0  0  0
  191.5100  176.3910  146.9860 C   0  0  0  0  0  0  0  0  0  0  0  0
  189.4940  177.9620  145.8370 C   0  0  0  0  0  3  0  0  0  0  0  0
  191.6970  176.9520  145.7170 C   0  0  0  0  0  3  0  0  0  0  0  0
  192.5770  175.5530  147.5960 C   0  0  0  0  0  1  0  0  0  0  0  0
  189.3060  177.4030  147.1080 C   0  0  0  0  0  0  0  0  0  0  0  0
  190.3150  176.6150  147.6790 C   0  0  0  0  0  3  0  0  0  0  0  0
  190.6910  177.7370  145.1430 C   0  0  0  0  0  3  0  0  0  0  0  0
  190.2510  176.9570  141.0050 N   0  0  0  0  0  2  0  0  0  0  0  0
  190.9430  177.3920  139.8010 C   0  0  0  0  0  2  0  0  0  0  0  0
  190.5770  176.5170  138.6520 C   0  0  0  0  0  0  0  0  0  0  0  0
  190.8730  175.2920  138.6850 O   0  0  0  0  0  0  0  0  0  0  0  0
  189.8800  177.0690  137.5260 N   0  0  0  0  0  2  0  0  0  0  0  0
  189.4720  176.2690  136.3820 C   0  0  0  0  0  2  0  0  0  0  0  0
  187.9610  176.3240  136.2210 C   0  0  0  0  0  2  0  0  0  0  0  0
  187.3210  175.5580  137.2780 N   0  0  0  0  0  2  0  0  0  0  0  0
  186.3220  174.6990  136.6540 C   0  0  0  0  0  2  0  0  0  0  0  0
  185.0120  174.9720  137.2180 N   0  0  0  0  0  2  0  0  0  0  0  0
  184.1300  175.9110  136.5970 C   0  0  0  0  0  3  0  0  0  0  0  0
  182.8140  175.7020  136.5330 C   0  0  0  0  0  3  0  0  0  0  0  0
  182.1630  174.4890  137.1180 C   0  0  0  0  0  2  0  0  0  0  0  0
  180.1260  172.8750  137.5320 O   0  0  0  0  0  1  0  0  0  0  0  0
  180.0940  174.0300  138.3210 C   0  0  2  0  0  0  0  0  0  0  0  0
  179.5370  173.9370  139.7260 C   0  0  0  0  0  1  0  0  0  0  0  0
  180.0260  175.3010  137.6250 C   0  0  0  0  0  2  0  0  0  0  0  0
  181.3050  174.8760  138.2340 N   0  0  0  0  0  0  0  0  0  0  0  0
  1  8  1  0  0  0  0
  2 11  1  0  0  0  0
  3  5  1  0  0  0  0
  3  9  1  0  0  0  0
  4 12  1  0  0  0  0
  4  2  2  0  0  0  0
  5 14  1  6  0  0  0
  5  1  1  0  0  0  0
  6 22  1  1  0  0  0
  7 10  1  0  0  0  0
  8  6  1  0  0  0  0
  9  7  1  0  0  0  0
 10  6  1  0  0  0  0
 11  9  2  0  0  0  0
 12  3  2  0  0  0  0
 14 13  1  0  0  0  0
 15 20  1  0  0  0  0
 15 19  1  0  0  0  0
 16 21  1  0  0  0  0
 17 18  2  0  0  0  0
 18 20  1  0  0  0  0
 19 13  2  0  0  0  0
 20 14  2  0  0  0  0
 21 17  1  0  0  0  0
 21 15  2  0  0  0  0
 22 23  1  0  0  0  0
 23 24  1  0  0  0  0
 25 28  1  0  0  0  0
 25 30  1  0  0  0  0
 26 29  1  0  0  0  0
 27 25  2  0  0  0  0
 29 30  2  0  0  0  0
 29 24  1  0  0  0  0
 31 27  1  0  0  0  0
 31 26  2  0  0  0  0
 32  2  1  0  0  0  0
 33 32  1  0  0  0  0
 34 35  2  0  0  0  0
 34 33  1  0  0  0  0
 36 34  1  0  0  0  0
 37 36  1  0  0  0  0
 38 37  1  0  0  0  0
 38 39  1  0  0  0  0
 40 41  1  0  0  0  0
 40 39  1  0  0  0  0
 42 41  1  0  0  0  0
 43 42  2  0  0  0  0
 43 44  1  0  0  0  0
 44 49  1  0  0  0  0
 45 46  1  0  0  0  0
 46 47  1  1  0  0  0
 48 49  1  0  0  0  0
 48 46  1  0  0  0  0
 49 46  1  0  0  0  0
M  END
>  <MODEL>
5

>  <REMARK>
 VINA RESULT:      -7.8      1.609      2.273
  Name = 
  16 active torsions:
  status: ('A' for Active; 'I' for Inactive)
    1  A    between atoms: C_1  and  C_26
    2  A    between atoms: C_1  and  C_41
    3  A    between atoms: C_3  and  N_49
    4  A    between atoms: N_4  and  C_32
    5  A    between atoms: N_4  and  C_47
    6  A    between atoms: C_9  and  C_14
    7  A    between atoms: N_17  and  C_27
    8  A    between atoms: N_17  and  C_47
    9  A    between atoms: C_19  and  C_38
   10  A    between atoms: N_21  and  C_28
   11  A    between atoms: C_22  and  C_42
   12  A    between atoms: C_28  and  C_32
   13  A    between atoms: C_29  and  C_34
   14  A    between atoms: C_29  and  N_45
   15  A    between atoms: C_38  and  N_49
   16  A    between atoms: C_41  and  C_42
                            x       y       z     vdW  Elec       q    Type
                         _______ _______ _______ _____ _____    ______ ____

>  <TORSDO>
F 16

$$$$
=
 OpenBabel10222419213D

 49 54  0  0  1  0  0  0  0  0999 V2000
  191.4240  176.7810  139.3770 C   0  0  0  0  0  2  0  0  0  0  0  0
  188.1850  175.0190  135.5690 C   0  0  0  0  0  0  0  0  0  0  0  0
  190.1820  175.4800  137.4670 C   0  0  0  0  0  0  0  0  0  0  0  0
  189.1020  174.0280  135.9090 C   0  0  0  0  0  3  0  0  0  0  0  0
  191.3970  175.6390  138.3650 C   0  0  1  0  0  3  0  0  0  0  0  0
  189.3570  177.9240  140.0940 C   0  0  1  0  0  3  0  0  0  0  0  0
  189.1920  177.8140  137.8690 C   0  0  0  0  0  2  0  0  0  0  0  0
  190.2660  176.7220  140.3580 C   0  0  0  0  0  2  0  0  0  0  0  0
  189.2550  176.5060  137.1540 C   0  0  0  0  0  0  0  0  0  0  0  0
  188.4660  177.6450  139.0530 O   0  0  0  0  0  0  0  0  0  0  0  0
  188.2570  176.2520  136.2110 C   0  0  0  0  0  3  0  0  0  0  0  0
  190.0650  174.2800  136.8300 N   0  0  0  0  0  0  0  0  0  0  0  0
  193.2520  176.7620  137.0800 C   0  0  0  0  0  3  0  0  0  0  0  0
  192.6430  175.6610  137.5380 C   0  0  0  0  0  0  0  0  0  0  0  0
  194.6240  175.1480  136.5720 C   0  0  0  0  0  0  0  0  0  0  0  0
  197.4250  174.5600  136.4270 Cl  0  0  0  0  0  0  0  0  0  0  0  0
  195.3130  173.4150  137.7850 C   0  0  0  0  0  3  0  0  0  0  0  0
  193.9100  173.6110  138.0440 N   0  0  0  0  0  0  0  0  0  0  0  0
  194.5420  176.4370  136.5290 N   0  0  0  0  0  0  0  0  0  0  0  0
  193.5400  174.5600  137.2510 C   0  0  0  0  0  0  0  0  0  0  0  0
  195.7660  174.3420  136.9390 C   0  0  0  0  0  0  0  0  0  0  0  0
  188.5730  178.2730  141.3490 C   0  0  0  0  0  2  0  0  0  0  0  0
  189.2850  177.7230  142.5780 C   0  0  0  0  0  2  0  0  0  0  0  0
  188.3150  176.9590  143.4670 C   0  0  0  0  0  2  0  0  0  0  0  0
  190.1550  176.9180  146.7860 C   0  0  0  0  0  0  0  0  0  0  0  0
  187.7050  177.8010  145.7530 C   0  0  0  0  0  3  0  0  0  0  0  0
  189.2320  177.5560  147.6220 C   0  0  0  0  0  3  0  0  0  0  0  0
  191.4590  176.4520  147.3310 C   0  0  0  0  0  1  0  0  0  0  0  0
  188.6270  177.1600  144.9150 C   0  0  0  0  0  0  0  0  0  0  0  0
  189.8530  176.7220  145.4340 C   0  0  0  0  0  3  0  0  0  0  0  0
  188.0080  177.9970  147.1080 C   0  0  0  0  0  3  0  0  0  0  0  0
  187.1600  174.7880  134.5940 N   0  0  0  0  0  2  0  0  0  0  0  0
  186.2340  173.6670  134.6650 C   0  0  0  0  0  2  0  0  0  0  0  0
  184.9730  174.0840  135.3380 C   0  0  0  0  0  0  0  0  0  0  0  0
  184.2340  173.2100  135.8680 O   0  0  0  0  0  0  0  0  0  0  0  0
  184.6140  175.4720  135.3910 N   0  0  0  0  0  2  0  0  0  0  0  0
  183.4100  175.9510  136.0520 C   0  0  0  0  0  2  0  0  0  0  0  0
  183.7230  176.3350  137.4890 C   0  0  0  0  0  2  0  0  0  0  0  0
  183.7250  177.7810  137.6290 N   0  0  0  0  0  2  0  0  0  0  0  0
  182.6340  178.1370  138.5280 C   0  0  0  0  0  2  0  0  0  0  0  0
  183.0730  179.1590  139.4610 N   0  0  0  0  0  2  0  0  0  0  0  0
  184.4560  179.2950  139.7980 C   0  0  0  0  0  3  0  0  0  0  0  0
  184.9370  178.8750  140.9700 C   0  0  0  0  0  3  0  0  0  0  0  0
  184.0770  178.2200  142.0040 C   0  0  0  0  0  2  0  0  0  0  0  0
  182.5720  179.2570  143.8970 O   0  0  0  0  0  1  0  0  0  0  0  0
  183.8950  179.0340  144.2940 C   0  0  2  0  0  0  0  0  0  0  0  0
  184.1670  178.6170  145.7240 C   0  0  0  0  0  1  0  0  0  0  0  0
  184.9300  179.7440  143.5650 C   0  0  0  0  0  2  0  0  0  0  0  0
  184.7240  178.3010  143.3110 N   0  0  0  0  0  0  0  0  0  0  0  0
  1  8  1  0  0  0  0
  2  4  2  0  0  0  0
  2 11  1  0  0  0  0
  3  5  1  0  0  0  0
  4 12  1  0  0  0  0
  5 14  1  6  0  0  0
  5  1  1  0  0  0  0
  6  8  1  0  0  0  0
  6 22  1  1  0  0  0
  7 10  1  0  0  0  0
  9  3  1  0  0  0  0
  9  7  1  0  0  0  0
 10  6  1  0  0  0  0
 11  9  2  0  0  0  0
 12  3  2  0  0  0  0
 13 14  1  0  0  0  0
 15 21  2  0  0  0  0
 15 20  1  0  0  0  0
 16 21  1  0  0  0  0
 17 18  2  0  0  0  0
 19 15  1  0  0  0  0
 19 13  2  0  0  0  0
 20 14  2  0  0  0  0
 20 18  1  0  0  0  0
 21 17  1  0  0  0  0
 22 23  1  0  0  0  0
 23 24  1  0  0  0  0
 24 29  1  0  0  0  0
 25 28  1  0  0  0  0
 25 27  1  0  0  0  0
 26 31  1  0  0  0  0
 29 30  1  0  0  0  0
 29 26  2  0  0  0  0
 30 25  2  0  0  0  0
 31 27  2  0  0  0  0
 32 33  1  0  0  0  0
 32  2  1  0  0  0  0
 33 34  1  0  0  0  0
 34 36  1  0  0  0  0
 34 35  2  0  0  0  0
 36 37  1  0  0  0  0
 37 38  1  0  0  0  0
 38 39  1  0  0  0  0
 39 40  1  0  0  0  0
 40 41  1  0  0  0  0
 41 42  1  0  0  0  0
 42 43  2  0  0  0  0
 43 44  1  0  0  0  0
 44 49  1  0  0  0  0
 45 46  1  0  0  0  0
 46 47  1  1  0  0  0
 48 46  1  0  0  0  0
 49 48  1  0  0  0  0
 49 46  1  0  0  0  0
M  END
>  <MODEL>
6

>  <REMARK>
 VINA RESULT:      -7.5      3.272      8.026
  Name = 
  16 active torsions:
  status: ('A' for Active; 'I' for Inactive)
    1  A    between atoms: C_1  and  C_26
    2  A    between atoms: C_1  and  C_41
    3  A    between atoms: C_3  and  N_49
    4  A    between atoms: N_4  and  C_32
    5  A    between atoms: N_4  and  C_47
    6  A    between atoms: C_9  and  C_14
    7  A    between atoms: N_17  and  C_27
    8  A    between atoms: N_17  and  C_47
    9  A    between atoms: C_19  and  C_38
   10  A    between atoms: N_21  and  C_28
   11  A    between atoms: C_22  and  C_42
   12  A    between atoms: C_28  and  C_32
   13  A    between atoms: C_29  and  C_34
   14  A    between atoms: C_29  and  N_45
   15  A    between atoms: C_38  and  N_49
   16  A    between atoms: C_41  and  C_42
                            x       y       z     vdW  Elec       q    Type
                         _______ _______ _______ _____ _____    ______ ____

>  <TORSDO>
F 16

$$$$
=
 OpenBabel10222419213D

 49 54  0  0  1  0  0  0  0  0999 V2000
  181.7500  178.4640  142.6530 C   0  0  0  0  0  2  0  0  0  0  0  0
  185.3300  178.9060  138.7690 C   0  0  0  0  0  0  0  0  0  0  0  0
  183.0890  178.8910  140.4380 C   0  0  0  0  0  0  0  0  0  0  0  0
  184.1570  179.5680  138.4130 C   0  0  0  0  0  3  0  0  0  0  0  0
  181.7620  178.8430  141.1750 C   0  0  1  0  0  3  0  0  0  0  0  0
  183.7840  178.6090  144.0430 C   0  0  1  0  0  3  0  0  0  0  0  0
  184.4550  177.5840  142.1750 C   0  0  0  0  0  2  0  0  0  0  0  0
  182.5910  179.3990  143.5040 C   0  0  0  0  0  2  0  0  0  0  0  0
  184.2730  178.2190  140.8380 C   0  0  0  0  0  0  0  0  0  0  0  0
  184.8140  178.5720  143.0980 O   0  0  0  0  0  0  0  0  0  0  0  0
  185.3850  178.2490  139.9950 C   0  0  0  0  0  3  0  0  0  0  0  0
  183.0830  179.5400  139.2400 N   0  0  0  0  0  0  0  0  0  0  0  0
  179.6710  178.4210  139.8300 C   0  0  0  0  0  3  0  0  0  0  0  0
  180.7920  177.9880  140.4220 C   0  0  0  0  0  0  0  0  0  0  0  0
  179.8310  176.3410  139.2030 C   0  0  0  0  0  0  0  0  0  0  0  0
  179.3710  174.6500  136.9350 Cl  0  0  0  0  0  0  0  0  0  0  0  0
  181.5920  175.1920  138.4800 C   0  0  0  0  0  3  0  0  0  0  0  0
  182.0270  176.0400  139.5590 N   0  0  0  0  0  0  0  0  0  0  0  0
  179.1030  177.3900  139.0010 N   0  0  0  0  0  0  0  0  0  0  0  0
  180.9570  176.6110  140.0030 C   0  0  0  0  0  0  0  0  0  0  0  0
  180.2960  175.3820  138.2270 C   0  0  0  0  0  0  0  0  0  0  0  0
  184.2980  179.2460  145.3240 C   0  0  0  0  0  2  0  0  0  0  0  0
  185.8010  179.0300  145.4460 C   0  0  0  0  0  2  0  0  0  0  0  0
  186.1030  177.6920  146.1030 C   0  0  0  0  0  2  0  0  0  0  0  0
  189.8070  177.2640  146.8080 C   0  0  0  0  0  0  0  0  0  0  0  0
  187.5200  178.2260  148.1070 C   0  0  0  0  0  3  0  0  0  0  0  0
  189.9030  177.7750  148.1070 C   0  0  0  0  0  3  0  0  0  0  0  0
  191.0220  176.7570  146.1140 C   0  0  0  0  0  1  0  0  0  0  0  0
  187.4220  177.7130  146.8070 C   0  0  0  0  0  0  0  0  0  0  0  0
  188.5690  177.2350  146.1580 C   0  0  0  0  0  3  0  0  0  0  0  0
  188.7610  178.2550  148.7580 C   0  0  0  0  0  3  0  0  0  0  0  0
  186.4800  178.9100  137.9150 N   0  0  0  0  0  2  0  0  0  0  0  0
  186.4990  178.2770  136.6040 C   0  0  0  0  0  2  0  0  0  0  0  0
  187.7060  177.4150  136.4660 C   0  0  0  0  0  0  0  0  0  0  0  0
  188.8270  177.8510  136.8450 O   0  0  0  0  0  0  0  0  0  0  0  0
  187.5840  176.0950  135.9180 N   0  0  0  0  0  2  0  0  0  0  0  0
  188.7160  175.1920  135.7760 C   0  0  0  0  0  2  0  0  0  0  0  0
  188.6440  174.0980  136.8290 C   0  0  0  0  0  2  0  0  0  0  0  0
  189.9800  173.6160  137.1370 N   0  0  0  0  0  2  0  0  0  0  0  0
  190.8580  174.7770  137.2140 C   0  0  0  0  0  2  0  0  0  0  0  0
  190.6280  175.4920  138.4570 N   0  0  0  0  0  2  0  0  0  0  0  0
  191.5710  176.4600  138.9270 C   0  0  0  0  0  3  0  0  0  0  0  0
  191.2080  177.4550  139.7390 C   0  0  0  0  0  3  0  0  0  0  0  0
  189.8040  177.6220  140.2300 C   0  0  0  0  0  2  0  0  0  0  0  0
  188.0410  178.5410  141.9530 O   0  0  0  0  0  1  0  0  0  0  0  0
  188.6990  177.3860  142.3890 C   0  0  2  0  0  0  0  0  0  0  0  0
  187.9320  176.3820  143.2230 C   0  0  0  0  0  1  0  0  0  0  0  0
  190.1390  177.4670  142.5430 C   0  0  0  0  0  2  0  0  0  0  0  0
  189.5740  176.7500  141.3790 N   0  0  0  0  0  0  0  0  0  0  0  0
  1  8  1  0  0  0  0
  2 11  1  0  0  0  0
  3  9  1  0  0  0  0
  3  5  1  0  0  0  0
  4  2  2  0  0  0  0
  4 12  1  0  0  0  0
  5 14  1  6  0  0  0
  5  1  1  0  0  0  0
  6 22  1  1  0  0  0
  7 10  1  0  0  0  0
  8  6  1  0  0  0  0
  9  7  1  0  0  0  0
 10  6  1  0  0  0  0
 11  9  2  0  0  0  0
 12  3  2  0  0  0  0
 13 14  1  0  0  0  0
 15 20  1  0  0  0  0
 16 21  1  0  0  0  0
 17 18  2  0  0  0  0
 18 20  1  0  0  0  0
 19 15  1  0  0  0  0
 19 13  2  0  0  0  0
 20 14  2  0  0  0  0
 21 17  1  0  0  0  0
 21 15  2  0  0  0  0
 22 23  1  0  0  0  0
 23 24  1  0  0  0  0
 24 29  1  0  0  0  0
 25 27  1  0  0  0  0
 26 31  1  0  0  0  0
 27 31  2  0  0  0  0
 28 25  1  0  0  0  0
 29 26  2  0  0  0  0
 30 29  1  0  0  0  0
 30 25  2  0  0  0  0
 32  2  1  0  0  0  0
 33 32  1  0  0  0  0
 34 33  1  0  0  0  0
 34 35  2  0  0  0  0
 36 34  1  0  0  0  0
 37 36  1  0  0  0  0
 37 38  1  0  0  0  0
 38 39  1  0  0  0  0
 39 40  1  0  0  0  0
 40 41  1  0  0  0  0
 41 42  1  0  0  0  0
 42 43  2  0  0  0  0
 43 44  1  0  0  0  0
 44 49  1  0  0  0  0
 45 46  1  0  0  0  0
 46 48  1  0  0  0  0
 46 47  1  1  0  0  0
 49 46  1  0  0  0  0
 49 48  1  0  0  0  0
M  END
>  <MODEL>
7

>  <REMARK>
 VINA RESULT:      -7.2      2.014      4.469
  Name = 
  16 active torsions:
  status: ('A' for Active; 'I' for Inactive)
    1  A    between atoms: C_1  and  C_26
    2  A    between atoms: C_1  and  C_41
    3  A    between atoms: C_3  and  N_49
    4  A    between atoms: N_4  and  C_32
    5  A    between atoms: N_4  and  C_47
    6  A    between atoms: C_9  and  C_14
    7  A    between atoms: N_17  and  C_27
    8  A    between atoms: N_17  and  C_47
    9  A    between atoms: C_19  and  C_38
   10  A    between atoms: N_21  and  C_28
   11  A    between atoms: C_22  and  C_42
   12  A    between atoms: C_28  and  C_32
   13  A    between atoms: C_29  and  C_34
   14  A    between atoms: C_29  and  N_45
   15  A    between atoms: C_38  and  N_49
   16  A    between atoms: C_41  and  C_42
                            x       y       z     vdW  Elec       q    Type
                         _______ _______ _______ _____ _____    ______ ____

>  <TORSDO>
F 16

$$$$
=
 OpenBabel10222419213D

 49 54  0  0  1  0  0  0  0  0999 V2000
  188.0640  178.3910  142.4110 C   0  0  0  0  0  2  0  0  0  0  0  0
  188.8590  177.2310  137.3000 C   0  0  0  0  0  0  0  0  0  0  0  0
  188.0620  178.2050  139.7940 C   0  0  0  0  0  0  0  0  0  0  0  0
  188.0550  178.3620  137.4120 C   0  0  0  0  0  3  0  0  0  0  0  0
  187.4390  178.7530  141.0660 C   0  0  1  0  0  3  0  0  0  0  0  0
  190.3820  177.5610  142.5790 C   0  0  1  0  0  3  0  0  0  0  0  0
  189.4860  176.3820  140.9060 C   0  0  0  0  0  2  0  0  0  0  0  0
  189.5170  178.8200  142.5160 C   0  0  0  0  0  2  0  0  0  0  0  0
  188.8930  177.0580  139.7170 C   0  0  0  0  0  0  0  0  0  0  0  0
  190.6370  177.0780  141.2910 O   0  0  0  0  0  0  0  0  0  0  0  0
  189.2900  176.5940  138.4610 C   0  0  0  0  0  3  0  0  0  0  0  0
  187.6780  178.8110  138.6350 N   0  0  0  0  0  0  0  0  0  0  0  0
  185.2680  178.1020  142.1710 C   0  0  0  0  0  3  0  0  0  0  0  0
  185.9740  178.4530  141.0880 C   0  0  0  0  0  0  0  0  0  0  0  0
  183.7610  178.3720  140.6220 C   0  0  0  0  0  0  0  0  0  0  0  0
  181.0970  179.3590  140.2460 Cl  0  0  0  0  0  0  0  0  0  0  0  0
  183.5320  179.9850  139.1080 C   0  0  0  0  0  3  0  0  0  0  0  0
  184.9340  179.6760  139.2210 N   0  0  0  0  0  0  0  0  0  0  0  0
  183.8570  178.1200  141.8870 N   0  0  0  0  0  0  0  0  0  0  0  0
  185.0040  178.6770  140.0350 C   0  0  0  0  0  0  0  0  0  0  0  0
  182.8190  179.2450  139.9600 C   0  0  0  0  0  0  0  0  0  0  0  0
  191.7000  177.8650  143.2730 C   0  0  0  0  0  2  0  0  0  0  0  0
  191.4480  178.2470  144.7250 C   0  0  0  0  0  2  0  0  0  0  0  0
  190.9500  177.0500  145.5210 C   0  0  0  0  0  2  0  0  0  0  0  0
  187.3820  177.8610  146.5270 C   0  0  0  0  0  0  0  0  0  0  0  0
  189.8920  177.5760  147.7370 C   0  0  0  0  0  3  0  0  0  0  0  0
  187.5160  178.0350  147.9080 C   0  0  0  0  0  3  0  0  0  0  0  0
  186.0490  178.0060  145.8820 C   0  0  0  0  0  1  0  0  0  0  0  0
  189.7600  177.4030  146.3530 C   0  0  0  0  0  0  0  0  0  0  0  0
  188.5020  177.5430  145.7500 C   0  0  0  0  0  3  0  0  0  0  0  0
  188.7700  177.8950  148.5140 C   0  0  0  0  0  3  0  0  0  0  0  0
  189.2690  176.7260  136.0230 N   0  0  0  0  0  2  0  0  0  0  0  0
  188.3450  176.5160  134.9180 C   0  0  0  0  0  2  0  0  0  0  0  0
  187.3640  175.4490  135.2630 C   0  0  0  0  0  0  0  0  0  0  0  0
  186.1290  175.6950  135.1940 O   0  0  0  0  0  0  0  0  0  0  0  0
  187.8280  174.1510  135.6590 N   0  0  0  0  0  2  0  0  0  0  0  0
  186.9270  173.0570  135.9870 C   0  0  0  0  0  2  0  0  0  0  0  0
  186.5160  173.1420  137.4480 C   0  0  0  0  0  2  0  0  0  0  0  0
  185.1150  172.7820  137.5920 N   0  0  0  0  0  2  0  0  0  0  0  0
  184.5500  172.6710  136.2520 C   0  0  0  0  0  2  0  0  0  0  0  0
  183.4700  173.6270  136.0880 N   0  0  0  0  0  2  0  0  0  0  0  0
  182.2720  173.5150  136.8620 C   0  0  0  0  0  3  0  0  0  0  0  0
  181.2910  174.4140  136.7690 C   0  0  0  0  0  3  0  0  0  0  0  0
  181.3590  175.5880  135.8440 C   0  0  0  0  0  2  0  0  0  0  0  0
  182.7180  177.8160  136.1790 O   0  0  0  0  0  1  0  0  0  0  0  0
  181.4220  177.8670  136.7040 C   0  0  2  0  0  0  0  0  0  0  0  0
  180.6640  179.1760  136.6450 C   0  0  0  0  0  1  0  0  0  0  0  0
  181.0990  176.9190  137.7540 C   0  0  0  0  0  2  0  0  0  0  0  0
  180.5770  176.6940  136.3880 N   0  0  0  0  0  0  0  0  0  0  0  0
  1  8  1  0  0  0  0
  2  4  2  0  0  0  0
  2 11  1  0  0  0  0
  3  5  1  0  0  0  0
  4 12  1  0  0  0  0
  5 14  1  1  0  0  0
  5  1  1  0  0  0  0
  6 22  1  6  0  0  0
  7 10  1  0  0  0  0
  8  6  1  0  0  0  0
  9  3  1  0  0  0  0
  9  7  1  0  0  0  0
 10  6  1  0  0  0  0
 11  9  2  0  0  0  0
 12  3  2  0  0  0  0
 14 13  2  0  0  0  0
 15 19  2  0  0  0  0
 17 18  1  0  0  0  0
 17 21  2  0  0  0  0
 18 20  2  0  0  0  0
 19 13  1  0  0  0  0
 20 15  1  0  0  0  0
 20 14  1  0  0  0  0
 21 16  1  0  0  0  0
 21 15  1  0  0  0  0
 22 23  1  0  0  0  0
 23 24  1  0  0  0  0
 24 29  1  0  0  0  0
 25 27  1  0  0  0  0
 26 31  1  0  0  0  0
 27 31  2  0  0  0  0
 28 25  1  0  0  0  0
 29 26  2  0  0  0  0
 30 29  1  0  0  0  0
 30 25  2  0  0  0  0
 32  2  1  0  0  0  0
 33 34  1  0  0  0  0
 33 32  1  0  0  0  0
 34 36  1  0  0  0  0
 35 34  2  0  0  0  0
 36 37  1  0  0  0  0
 37 38  1  0  0  0  0
 38 39  1  0  0  0  0
 40 39  1  0  0  0  0
 41 40  1  0  0  0  0
 41 42  1  0  0  0  0
 43 42  2  0  0  0  0
 44 49  1  0  0  0  0
 44 43  1  0  0  0  0
 45 46  1  0  0  0  0
 46 47  1  1  0  0  0
 46 48  1  0  0  0  0
 49 46  1  0  0  0  0
 49 48  1  0  0  0  0
M  END
>  <MODEL>
8

>  <REMARK>
 VINA RESULT:      -7.1      1.921      4.176
  Name = 
  16 active torsions:
  status: ('A' for Active; 'I' for Inactive)
    1  A    between atoms: C_1  and  C_26
    2  A    between atoms: C_1  and  C_41
    3  A    between atoms: C_3  and  N_49
    4  A    between atoms: N_4  and  C_32
    5  A    between atoms: N_4  and  C_47
    6  A    between atoms: C_9  and  C_14
    7  A    between atoms: N_17  and  C_27
    8  A    between atoms: N_17  and  C_47
    9  A    between atoms: C_19  and  C_38
   10  A    between atoms: N_21  and  C_28
   11  A    between atoms: C_22  and  C_42
   12  A    between atoms: C_28  and  C_32
   13  A    between atoms: C_29  and  C_34
   14  A    between atoms: C_29  and  N_45
   15  A    between atoms: C_38  and  N_49
   16  A    between atoms: C_41  and  C_42
                            x       y       z     vdW  Elec       q    Type
                         _______ _______ _______ _____ _____    ______ ____

>  <TORSDO>
F 16

$$$$
=
 OpenBabel10222419213D

 49 54  0  0  1  0  0  0  0  0999 V2000
  191.3170  176.7130  138.8920 C   0  0  0  0  0  2  0  0  0  0  0  0
  187.5750  173.9490  136.3510 C   0  0  0  0  0  0  0  0  0  0  0  0
  189.8670  174.9530  137.5950 C   0  0  0  0  0  0  0  0  0  0  0  0
  188.6710  173.1320  136.6190 C   0  0  0  0  0  3  0  0  0  0  0  0
  191.2180  175.3960  138.1270 C   0  0  1  0  0  3  0  0  0  0  0  0
  189.3290  177.7810  139.8910 C   0  0  1  0  0  3  0  0  0  0  0  0
  188.6850  177.2210  137.8260 C   0  0  0  0  0  2  0  0  0  0  0  0
  190.4280  176.7430  140.1230 C   0  0  0  0  0  2  0  0  0  0  0  0
  188.7620  175.8100  137.3500 C   0  0  0  0  0  0  0  0  0  0  0  0
  188.2730  177.2230  139.1630 O   0  0  0  0  0  0  0  0  0  0  0  0
  187.6220  175.2850  136.7380 C   0  0  0  0  0  3  0  0  0  0  0  0
  189.7720  173.6470  137.2190 N   0  0  0  0  0  0  0  0  0  0  0  0
  192.2400  176.1720  135.9560 C   0  0  0  0  0  3  0  0  0  0  0  0
  192.2330  175.3680  137.0280 C   0  0  0  0  0  0  0  0  0  0  0  0
  194.1240  175.0870  135.8170 C   0  0  0  0  0  0  0  0  0  0  0  0
  196.8640  175.4570  135.0620 Cl  0  0  0  0  0  0  0  0  0  0  0  0
  195.6310  174.6210  137.3850 C   0  0  0  0  0  3  0  0  0  0  0  0
  194.3220  174.4600  137.9630 N   0  0  0  0  0  0  0  0  0  0  0  0
  193.4750  176.0380  135.2290 N   0  0  0  0  0  0  0  0  0  0  0  0
  193.4900  174.6470  136.9940 C   0  0  0  0  0  0  0  0  0  0  0  0
  195.5360  175.0290  136.1180 C   0  0  0  0  0  0  0  0  0  0  0  0
  188.8070  178.2970  141.2220 C   0  0  0  0  0  2  0  0  0  0  0  0
  189.3330  177.4320  142.3590 C   0  0  0  0  0  2  0  0  0  0  0  0
  188.1980  176.6770  143.0330 C   0  0  0  0  0  2  0  0  0  0  0  0
  186.4490  177.9700  146.1430 C   0  0  0  0  0  0  0  0  0  0  0  0
  189.0330  177.2540  145.3310 C   0  0  0  0  0  3  0  0  0  0  0  0
  187.5160  178.0590  147.0440 C   0  0  0  0  0  3  0  0  0  0  0  0
  185.0750  178.3450  146.5730 C   0  0  0  0  0  1  0  0  0  0  0  0
  187.9660  177.1670  144.4260 C   0  0  0  0  0  0  0  0  0  0  0  0
  186.6740  177.5230  144.8360 C   0  0  0  0  0  3  0  0  0  0  0  0
  188.8070  177.7020  146.6390 C   0  0  0  0  0  3  0  0  0  0  0  0
  186.3990  173.4380  135.7110 N   0  0  0  0  0  2  0  0  0  0  0  0
  186.2980  172.0780  135.2030 C   0  0  0  0  0  2  0  0  0  0  0  0
  185.0220  171.4540  135.6520 C   0  0  0  0  0  0  0  0  0  0  0  0
  184.6530  170.3610  135.1420 O   0  0  0  0  0  0  0  0  0  0  0  0
  184.2310  172.0910  136.6650 N   0  0  0  0  0  2  0  0  0  0  0  0
  182.9880  171.5260  137.1660 C   0  0  0  0  0  2  0  0  0  0  0  0
  181.8320  172.4700  136.8760 C   0  0  0  0  0  2  0  0  0  0  0  0
  180.6250  171.9940  137.5290 N   0  0  0  0  0  2  0  0  0  0  0  0
  179.7800  173.1520  137.7880 C   0  0  0  0  0  2  0  0  0  0  0  0
  180.4690  174.0850  138.6620 N   0  0  0  0  0  2  0  0  0  0  0  0
  179.8120  174.6360  139.8060 C   0  0  0  0  0  3  0  0  0  0  0  0
  180.0410  175.8860  140.2120 C   0  0  0  0  0  3  0  0  0  0  0  0
  180.9800  176.8050  139.4970 C   0  0  0  0  0  2  0  0  0  0  0  0
  182.1990  179.1300  139.6860 O   0  0  0  0  0  1  0  0  0  0  0  0
  183.0040  178.0450  140.0490 C   0  0  2  0  0  0  0  0  0  0  0  0
  184.0130  178.2280  141.1620 C   0  0  0  0  0  1  0  0  0  0  0  0
  183.2620  177.0460  139.0290 C   0  0  0  0  0  2  0  0  0  0  0  0
  182.3020  176.7440  140.1130 N   0  0  0  0  0  0  0  0  0  0  0  0
  1  8  1  0  0  0  0
  2  4  2  0  0  0  0
  2 11  1  0  0  0  0
  3  5  1  0  0  0  0
  4 12  1  0  0  0  0
  5 14  1  6  0  0  0
  5  1  1  0  0  0  0
  6  8  1  0  0  0  0
  6 22  1  1  0  0  0
  7 10  1  0  0  0  0
  9  3  1  0  0  0  0
  9  7  1  0  0  0  0
 10  6  1  0  0  0  0
 11  9  2  0  0  0  0
 12  3  2  0  0  0  0
 13 14  1  0  0  0  0
 15 21  2  0  0  0  0
 15 20  1  0  0  0  0
 16 21  1  0  0  0  0
 17 18  2  0  0  0  0
 19 15  1  0  0  0  0
 19 13  2  0  0  0  0
 20 14  2  0  0  0  0
 20 18  1  0  0  0  0
 21 17  1  0  0  0  0
 22 23  1  0  0  0  0
 23 24  1  0  0  0  0
 24 29  1  0  0  0  0
 25 28  1  0  0  0  0
 25 27  1  0  0  0  0
 26 31  1  0  0  0  0
 29 30  1  0  0  0  0
 29 26  2  0  0  0  0
 30 25  2  0  0  0  0
 31 27  2  0  0  0  0
 32  2  1  0  0  0  0
 33 34  1  0  0  0  0
 33 32  1  0  0  0  0
 34 36  1  0  0  0  0
 35 34  2  0  0  0  0
 36 37  1  0  0  0  0
 38 37  1  0  0  0  0
 38 39  1  0  0  0  0
 39 40  1  0  0  0  0
 40 41  1  0  0  0  0
 41 42  1  0  0  0  0
 42 43  2  0  0  0  0
 44 49  1  0  0  0  0
 44 43  1  0  0  0  0
 45 46  1  0  0  0  0
 46 49  1  0  0  0  0
 46 47  1  1  0  0  0
 48 46  1  0  0  0  0
 48 49  1  0  0  0  0
M  END
>  <MODEL>
9

>  <REMARK>
 VINA RESULT:      -7.0      3.658      8.157
  Name = 
  16 active torsions:
  status: ('A' for Active; 'I' for Inactive)
    1  A    between atoms: C_1  and  C_26
    2  A    between atoms: C_1  and  C_41
    3  A    between atoms: C_3  and  N_49
    4  A    between atoms: N_4  and  C_32
    5  A    between atoms: N_4  and  C_47
    6  A    between atoms: C_9  and  C_14
    7  A    between atoms: N_17  and  C_27
    8  A    between atoms: N_17  and  C_47
    9  A    between atoms: C_19  and  C_38
   10  A    between atoms: N_21  and  C_28
   11  A    between atoms: C_22  and  C_42
   12  A    between atoms: C_28  and  C_32
   13  A    between atoms: C_29  and  C_34
   14  A    between atoms: C_29  and  N_45
   15  A    between atoms: C_38  and  N_49
   16  A    between atoms: C_41  and  C_42
                            x       y       z     vdW  Elec       q    Type
                         _______ _______ _______ _____ _____    ______ ____

>  <TORSDO>
F 16

$$$$
