=
 OpenBabel10222420223D

 47 55  0  0  1  0  0  0  0  0999 V2000
  189.5660  177.7950  137.1370 C   0  0  2  0  0  3  0  0  0  0  0  0
  185.5190  177.3600  137.0610 C   0  0  2  0  0  3  0  0  0  0  0  0
  189.0310  179.0700  136.5000 C   0  0  0  0  0  2  0  0  0  0  0  0
  186.4530  174.2060  136.6560 C   0  0  0  0  0  0  0  0  0  0  0  0
  185.0440  174.8170  136.6950 C   0  0  2  0  0  3  0  0  0  0  0  0
  184.4470  174.9210  135.3170 C   0  0  0  0  0  3  0  0  0  0  0  0
  182.2620  174.6890  136.2590 C   0  0  0  0  0  2  0  0  0  0  0  0
  186.9130  176.9810  136.9820 N   0  0  0  0  0  0  0  0  0  0  0  0
  187.5780  174.8870  136.1720 C   0  0  0  0  0  0  0  0  0  0  0  0
  189.8280  175.3090  136.3750 C   0  0  0  0  0  0  0  0  0  0  0  0
  183.3180  176.4480  137.7630 C   0  0  0  0  0  3  0  0  0  0  0  0
  185.7630  178.4560  138.0880 C   0  0  0  0  0  2  0  0  0  0  0  0
  187.4470  177.2080  139.4140 C   0  0  0  0  0  2  0  0  0  0  0  0
  189.0150  173.0440  136.8010 N   0  0  0  0  0  0  0  0  0  0  0  0
  183.1710  174.8840  135.1500 N   0  0  0  0  0  0  0  0  0  0  0  0
  187.7880  176.2250  136.2360 C   0  0  0  0  0  0  0  0  0  0  0  0
  188.9930  179.1110  139.1020 N   0  0  0  0  0  2  0  0  0  0  0  0
  189.1210  176.5220  136.3960 C   0  0  0  0  0  0  0  0  0  0  0  0
  188.8810  174.2950  136.2980 C   0  0  0  0  0  0  0  0  0  0  0  0
  188.4390  178.6520  137.8410 C   0  0  2  0  0  0  0  0  0  0  0  0
  188.5580  178.0680  140.0470 C   0  0  1  0  0  3  0  0  0  0  0  0
  187.8940  172.3560  137.1680 C   0  0  0  0  0  3  0  0  0  0  0  0
  182.2470  175.8720  137.1910 C   0  0  0  0  0  3  0  0  0  0  0  0
  187.1470  177.8830  138.0850 C   0  0  1  0  0  0  0  0  0  0  0  0
  186.6490  172.9300  137.0980 N   0  0  0  0  0  2  0  0  0  0  0  0
  184.7790  176.1040  137.5660 C   0  0  2  0  0  3  0  0  0  0  0  0
  191.1810  175.3410  138.4530 C   0  0  0  0  0  1  0  0  0  0  0  0
  191.0910  175.1290  137.0190 N   0  0  0  0  0  0  0  0  0  0  0  0
  192.1320  174.3440  136.3730 C   0  0  0  0  0  2  0  0  0  0  0  0
  193.4360  174.9760  136.5530 N   0  0  0  0  0  0  0  0  0  0  0  0
  194.2110  174.1420  137.4210 C   0  0  1  0  0  3  0  0  0  0  0  0
  194.4040  174.0530  136.0200 N   0  0  0  0  0  2  0  0  0  0  0  0
  195.8970  174.1330  139.0570 C   0  0  0  0  0  1  0  0  0  0  0  0
  196.2240  175.1300  137.0600 O   0  0  0  0  0  1  0  0  0  0  0  0
  195.2800  174.9350  138.0110 N   0  0  0  0  0  0  0  0  0  0  0  0
  188.1390  178.6460  141.4010 C   0  0  0  0  0  2  0  0  0  0  0  0
  188.6770  177.8690  142.5270 N   0  0  0  0  0  0  0  0  0  0  0  0
  189.7730  176.9780  142.0820 C   0  0  2  0  0  3  0  0  0  0  0  0
  189.7140  175.6280  142.7930 C   0  0  0  0  0  1  0  0  0  0  0  0
  191.1500  177.5560  142.3020 C   0  0  0  0  0  0  0  0  0  0  0  0
  191.8630  177.8250  141.3500 O   0  0  0  0  0  0  0  0  0  0  0  0
  191.2780  179.3690  143.9090 N   0  0  0  0  0  1  0  0  0  0  0  0
  191.5710  177.9630  143.6820 C   0  0  0  0  0  2  0  0  0  0  0  0
  187.6060  177.0680  143.1660 C   0  0  0  0  0  2  0  0  0  0  0  0
  187.1100  177.5910  144.5280 C   0  0  0  0  0  2  0  0  0  0  0  0
  185.3870  178.9030  145.7470 C   0  0  0  0  0  1  0  0  0  0  0  0
  185.7110  178.1890  144.4470 C   0  0  0  0  0  2  0  0  0  0  0  0
  1  3  1  6  0  0  0
  1 20  1  0  0  0  0
  2 26  1  0  0  0  0
  2 12  1  1  0  0  0
  4  5  1  0  0  0  0
  4 25  1  0  0  0  0
  5  6  1  6  0  0  0
  5 26  1  0  0  0  0
  7 23  1  0  0  0  0
  8  2  1  0  0  0  0
  8 24  1  0  0  0  0
  9 16  1  0  0  0  0
  9 19  1  0  0  0  0
  9  4  2  0  0  0  0
 10 18  1  0  0  0  0
 10 28  1  0  0  0  0
 13 21  1  0  0  0  0
 14 22  2  0  0  0  0
 15  6  2  0  0  0  0
 15  7  1  0  0  0  0
 16 18  2  0  0  0  0
 16  8  1  0  0  0  0
 17 21  1  0  0  0  0
 18  1  1  0  0  0  0
 19 10  2  0  0  0  0
 19 14  1  0  0  0  0
 20  3  1  6  0  0  0
 20 24  1  0  0  0  0
 20 17  1  0  0  0  0
 21 36  1  1  0  0  0
 23 11  2  0  0  0  0
 24 12  1  1  0  0  0
 24 13  1  0  0  0  0
 25 22  1  0  0  0  0
 26 11  1  6  0  0  0
 28 27  1  0  0  0  0
 29 30  1  0  0  0  0
 29 28  1  0  0  0  0
 30 31  1  0  0  0  0
 31 35  1  1  0  0  0
 32 30  1  0  0  0  0
 32 31  1  0  0  0  0
 34 35  1  0  0  0  0
 35 33  1  0  0  0  0
 36 37  1  0  0  0  0
 37 44  1  0  0  0  0
 38 40  1  0  0  0  0
 38 37  1  0  0  0  0
 38 39  1  1  0  0  0
 40 43  1  0  0  0  0
 41 40  2  0  0  0  0
 43 42  1  0  0  0  0
 44 45  1  0  0  0  0
 47 45  1  0  0  0  0
 47 46  1  0  0  0  0
M  END
>  <MODEL>
1

>  <REMARK>
 VINA RESULT:      -7.1      0.000      0.000
  Name = 
  12 active torsions:
  status: ('A' for Active; 'I' for Inactive)
    1  A    between atoms: C_1  and  C_5
    2  A    between atoms: C_1  and  N_15
    3  A    between atoms: C_2  and  N_15
    4  A    between atoms: C_2  and  C_23
    5  A    between atoms: C_5  and  C_42
    6  A    between atoms: C_7  and  C_23
    7  A    between atoms: N_12  and  C_45
    8  A    between atoms: N_15  and  C_41
    9  A    between atoms: C_19  and  N_38
   10  A    between atoms: C_24  and  N_36
   11  A    between atoms: N_36  and  C_45
   12  A    between atoms: C_39  and  C_41
                            x       y       z     vdW  Elec       q    Type
                         _______ _______ _______ _____ _____    ______ ____

>  <TORSDO>
F 12

$$$$
=
 OpenBabel10222420223D

 47 55  0  0  1  0  0  0  0  0999 V2000
  189.5960  177.6100  136.7990 C   0  0  2  0  0  3  0  0  0  0  0  0
  185.5480  177.1840  136.8010 C   0  0  2  0  0  3  0  0  0  0  0  0
  189.0560  178.8530  136.1050 C   0  0  0  0  0  2  0  0  0  0  0  0
  186.4680  174.0110  136.5470 C   0  0  0  0  0  0  0  0  0  0  0  0
  185.0620  174.6270  136.5730 C   0  0  2  0  0  3  0  0  0  0  0  0
  184.4460  174.6620  135.2000 C   0  0  0  0  0  3  0  0  0  0  0  0
  182.2730  174.4860  136.1840 C   0  0  0  0  0  2  0  0  0  0  0  0
  186.9400  176.7980  136.7230 N   0  0  0  0  0  0  0  0  0  0  0  0
  187.5880  174.6630  136.0130 C   0  0  0  0  0  0  0  0  0  0  0  0
  189.8410  175.0870  136.1630 C   0  0  0  0  0  0  0  0  0  0  0  0
  183.3540  176.3160  137.5800 C   0  0  0  0  0  3  0  0  0  0  0  0
  185.8090  178.3310  137.7670 C   0  0  0  0  0  2  0  0  0  0  0  0
  187.5070  177.1480  139.1320 C   0  0  0  0  0  2  0  0  0  0  0  0
  189.0290  172.8500  136.7160 N   0  0  0  0  0  0  0  0  0  0  0  0
  183.1680  174.6210  135.0530 N   0  0  0  0  0  0  0  0  0  0  0  0
  187.8020  176.0020  136.0050 C   0  0  0  0  0  0  0  0  0  0  0  0
  189.0540  179.0270  138.7010 N   0  0  0  0  0  2  0  0  0  0  0  0
  189.1380  176.3020  136.1310 C   0  0  0  0  0  0  0  0  0  0  0  0
  188.8910  174.0740  136.1510 C   0  0  0  0  0  0  0  0  0  0  0  0
  188.4810  178.5060  137.4740 C   0  0  2  0  0  0  0  0  0  0  0  0
  188.6290  178.0350  139.7050 C   0  0  1  0  0  3  0  0  0  0  0  0
  187.9120  172.1850  137.1340 C   0  0  0  0  0  3  0  0  0  0  0  0
  182.2740  175.7150  137.0530 C   0  0  0  0  0  3  0  0  0  0  0  0
  187.1910  177.7540  137.7750 C   0  0  1  0  0  0  0  0  0  0  0  0
  186.6670  172.7580  137.0510 N   0  0  0  0  0  2  0  0  0  0  0  0
  184.8120  175.9580  137.3810 C   0  0  2  0  0  3  0  0  0  0  0  0
  191.2240  175.2280  138.2170 C   0  0  0  0  0  1  0  0  0  0  0  0
  191.1130  174.9370  136.7980 N   0  0  0  0  0  0  0  0  0  0  0  0
  192.1410  174.1120  136.1810 C   0  0  0  0  0  2  0  0  0  0  0  0
  193.4580  174.4540  136.7120 N   0  0  0  0  0  0  0  0  0  0  0  0
  194.1930  173.2370  136.8770 C   0  0  1  0  0  3  0  0  0  0  0  0
  194.4110  174.0280  135.7210 N   0  0  0  0  0  2  0  0  0  0  0  0
  194.9930  174.7040  138.5290 C   0  0  0  0  0  1  0  0  0  0  0  0
  195.2160  172.4710  138.7550 O   0  0  0  0  0  1  0  0  0  0  0  0
  195.2710  173.4580  137.8300 N   0  0  0  0  0  0  0  0  0  0  0  0
  188.2310  178.6840  141.0330 C   0  0  0  0  0  2  0  0  0  0  0  0
  187.2090  177.9060  141.7470 N   0  0  0  0  0  0  0  0  0  0  0  0
  186.1290  178.7850  142.2530 C   0  0  2  0  0  3  0  0  0  0  0  0
  185.5770  178.2760  143.5830 C   0  0  0  0  0  1  0  0  0  0  0  0
  184.9710  178.9320  141.2980 C   0  0  0  0  0  0  0  0  0  0  0  0
  185.0100  179.7630  140.4060 O   0  0  0  0  0  0  0  0  0  0  0  0
  182.5690  178.6190  141.4450 N   0  0  0  0  0  1  0  0  0  0  0  0
  183.8490  177.9380  141.3360 C   0  0  0  0  0  2  0  0  0  0  0  0
  187.8160  177.1560  142.8720 C   0  0  0  0  0  2  0  0  0  0  0  0
  189.2140  177.6340  143.3110 C   0  0  0  0  0  2  0  0  0  0  0  0
  191.5610  177.1140  142.6810 C   0  0  0  0  0  1  0  0  0  0  0  0
  190.2620  176.5330  143.2110 C   0  0  0  0  0  2  0  0  0  0  0  0
  1  3  1  6  0  0  0
  1 20  1  0  0  0  0
  2 26  1  0  0  0  0
  2 12  1  1  0  0  0
  4  5  1  0  0  0  0
  4 25  1  0  0  0  0
  5  6  1  6  0  0  0
  5 26  1  0  0  0  0
  7 23  1  0  0  0  0
  8  2  1  0  0  0  0
  8 24  1  0  0  0  0
  9 19  1  0  0  0  0
  9  4  2  0  0  0  0
 10 28  1  0  0  0  0
 13 21  1  0  0  0  0
 14 22  2  0  0  0  0
 15  6  2  0  0  0  0
 15  7  1  0  0  0  0
 16  9  1  0  0  0  0
 16 18  2  0  0  0  0
 16  8  1  0  0  0  0
 17 21  1  0  0  0  0
 18 10  1  0  0  0  0
 18  1  1  0  0  0  0
 19 10  2  0  0  0  0
 19 14  1  0  0  0  0
 20  3  1  6  0  0  0
 20 24  1  0  0  0  0
 20 17  1  0  0  0  0
 21 36  1  1  0  0  0
 23 11  2  0  0  0  0
 24 12  1  1  0  0  0
 24 13  1  0  0  0  0
 25 22  1  0  0  0  0
 26 11  1  6  0  0  0
 28 27  1  0  0  0  0
 29 30  1  0  0  0  0
 29 28  1  0  0  0  0
 30 31  1  0  0  0  0
 31 35  1  1  0  0  0
 32 30  1  0  0  0  0
 32 31  1  0  0  0  0
 35 33  1  0  0  0  0
 35 34  1  0  0  0  0
 36 37  1  0  0  0  0
 37 38  1  0  0  0  0
 37 44  1  0  0  0  0
 38 39  1  1  0  0  0
 40 43  1  0  0  0  0
 40 38  1  0  0  0  0
 41 40  2  0  0  0  0
 43 42  1  0  0  0  0
 44 45  1  0  0  0  0
 46 47  1  0  0  0  0
 47 45  1  0  0  0  0
M  END
>  <MODEL>
2

>  <REMARK>
 VINA RESULT:      -6.6      1.759      2.862
  Name = 
  12 active torsions:
  status: ('A' for Active; 'I' for Inactive)
    1  A    between atoms: C_1  and  C_5
    2  A    between atoms: C_1  and  N_15
    3  A    between atoms: C_2  and  N_15
    4  A    between atoms: C_2  and  C_23
    5  A    between atoms: C_5  and  C_42
    6  A    between atoms: C_7  and  C_23
    7  A    between atoms: N_12  and  C_45
    8  A    between atoms: N_15  and  C_41
    9  A    between atoms: C_19  and  N_38
   10  A    between atoms: C_24  and  N_36
   11  A    between atoms: N_36  and  C_45
   12  A    between atoms: C_39  and  C_41
                            x       y       z     vdW  Elec       q    Type
                         _______ _______ _______ _____ _____    ______ ____

>  <TORSDO>
F 12

$$$$
=
 OpenBabel10222420223D

 47 55  0  0  1  0  0  0  0  0999 V2000
  188.7410  178.1160  137.8610 C   0  0  2  0  0  3  0  0  0  0  0  0
  185.6890  179.0750  140.3780 C   0  0  2  0  0  3  0  0  0  0  0  0
  188.9230  179.5940  138.1770 C   0  0  0  0  0  2  0  0  0  0  0  0
  184.2070  176.7700  138.5150 C   0  0  0  0  0  0  0  0  0  0  0  0
  183.6430  177.6130  139.6680 C   0  0  2  0  0  3  0  0  0  0  0  0
  182.7660  178.7270  139.1640 C   0  0  0  0  0  3  0  0  0  0  0  0
  181.5020  178.6350  141.1910 C   0  0  0  0  0  2  0  0  0  0  0  0
  186.3710  178.4290  139.2780 N   0  0  0  0  0  0  0  0  0  0  0  0
  185.2070  177.2220  137.6440 C   0  0  0  0  0  0  0  0  0  0  0  0
  187.0780  176.7180  136.4090 C   0  0  0  0  0  0  0  0  0  0  0  0
  183.8970  178.6460  142.0450 C   0  0  0  0  0  3  0  0  0  0  0  0
  186.9350  179.1510  141.2480 C   0  0  0  0  0  2  0  0  0  0  0  0
  187.8200  176.9160  140.6420 C   0  0  0  0  0  2  0  0  0  0  0  0
  185.2830  175.0660  136.5470 N   0  0  0  0  0  0  0  0  0  0  0  0
  181.8110  179.1910  139.8910 N   0  0  0  0  0  0  0  0  0  0  0  0
  186.2060  178.0840  137.9560 C   0  0  0  0  0  0  0  0  0  0  0  0
  189.9330  178.0140  139.9800 N   0  0  0  0  0  2  0  0  0  0  0  0
  187.3590  177.7950  137.2660 C   0  0  0  0  0  0  0  0  0  0  0  0
  185.7740  176.3220  136.6780 C   0  0  0  0  0  0  0  0  0  0  0  0
  188.7810  178.6370  139.3540 C   0  0  2  0  0  0  0  0  0  0  0  0
  189.3560  176.8050  140.5930 C   0  0  1  0  0  3  0  0  0  0  0  0
  184.2360  174.6800  137.3340 C   0  0  0  0  0  3  0  0  0  0  0  0
  182.5890  178.9110  142.1960 C   0  0  0  0  0  3  0  0  0  0  0  0
  187.5190  178.3210  140.1470 C   0  0  1  0  0  0  0  0  0  0  0  0
  183.7180  175.5150  138.2930 N   0  0  0  0  0  2  0  0  0  0  0  0
  184.6010  178.0780  140.8310 C   0  0  2  0  0  3  0  0  0  0  0  0
  188.7220  176.0610  134.6730 C   0  0  0  0  0  1  0  0  0  0  0  0
  188.0760  175.8050  135.9480 N   0  0  0  0  0  0  0  0  0  0  0  0
  188.7410  174.9170  136.8900 C   0  0  0  0  0  2  0  0  0  0  0  0
  190.1470  174.7530  136.5340 N   0  0  0  0  0  0  0  0  0  0  0  0
  190.9340  175.1960  137.6440 C   0  0  1  0  0  3  0  0  0  0  0  0
  190.6900  173.8100  137.4770 N   0  0  0  0  0  2  0  0  0  0  0  0
  193.1360  174.3880  137.5060 C   0  0  0  0  0  1  0  0  0  0  0  0
  192.2370  175.5960  135.8270 O   0  0  0  0  0  1  0  0  0  0  0  0
  192.2760  175.5150  137.1780 N   0  0  0  0  0  0  0  0  0  0  0  0
  189.9570  176.5050  141.9680 C   0  0  0  0  0  2  0  0  0  0  0  0
  189.3490  177.3180  143.0300 N   0  0  0  0  0  0  0  0  0  0  0  0
  190.3800  177.8370  143.9590 C   0  0  2  0  0  3  0  0  0  0  0  0
  191.3890  178.7220  143.2280 C   0  0  0  0  0  1  0  0  0  0  0  0
  191.1490  176.7560  144.6760 C   0  0  0  0  0  0  0  0  0  0  0  0
  191.8570  175.9850  144.0500 O   0  0  0  0  0  0  0  0  0  0  0  0
  192.1650  175.7820  146.6530 N   0  0  0  0  0  1  0  0  0  0  0  0
  191.1800  176.7380  146.1750 C   0  0  0  0  0  2  0  0  0  0  0  0
  188.3470  176.5280  143.7830 C   0  0  0  0  0  2  0  0  0  0  0  0
  187.6530  177.2680  144.9430 C   0  0  0  0  0  2  0  0  0  0  0  0
  185.5970  178.3830  145.7840 C   0  0  0  0  0  1  0  0  0  0  0  0
  186.2560  177.7510  144.5720 C   0  0  0  0  0  2  0  0  0  0  0  0
  1  3  1  6  0  0  0
  1 20  1  0  0  0  0
  2 26  1  0  0  0  0
  2 12  1  1  0  0  0
  4  5  1  0  0  0  0
  5  6  1  6  0  0  0
  5 26  1  0  0  0  0
  6 15  2  0  0  0  0
  7 23  1  0  0  0  0
  8 24  1  0  0  0  0
  8  2  1  0  0  0  0
  9 16  1  0  0  0  0
  9  4  2  0  0  0  0
 10 19  2  0  0  0  0
 10 18  1  0  0  0  0
 11 23  2  0  0  0  0
 14 19  1  0  0  0  0
 14 22  2  0  0  0  0
 15  7  1  0  0  0  0
 16  8  1  0  0  0  0
 17 21  1  0  0  0  0
 18  1  1  0  0  0  0
 18 16  2  0  0  0  0
 19  9  1  0  0  0  0
 20  3  1  6  0  0  0
 20 17  1  0  0  0  0
 20 24  1  0  0  0  0
 21 13  1  0  0  0  0
 21 36  1  1  0  0  0
 22 25  1  0  0  0  0
 24 13  1  1  0  0  0
 24 12  1  0  0  0  0
 25  4  1  0  0  0  0
 26 11  1  1  0  0  0
 27 28  1  0  0  0  0
 28 10  1  0  0  0  0
 28 29  1  0  0  0  0
 30 29  1  0  0  0  0
 30 32  1  0  0  0  0
 30 31  1  0  0  0  0
 31 35  1  6  0  0  0
 32 31  1  0  0  0  0
 34 35  1  0  0  0  0
 35 33  1  0  0  0  0
 36 37  1  0  0  0  0
 37 44  1  0  0  0  0
 37 38  1  0  0  0  0
 38 39  1  6  0  0  0
 38 40  1  0  0  0  0
 40 43  1  0  0  0  0
 41 40  2  0  0  0  0
 43 42  1  0  0  0  0
 44 45  1  0  0  0  0
 47 45  1  0  0  0  0
 47 46  1  0  0  0  0
M  END
>  <MODEL>
3

>  <REMARK>
 VINA RESULT:      -6.5      2.236      3.493
  Name = 
  12 active torsions:
  status: ('A' for Active; 'I' for Inactive)
    1  A    between atoms: C_1  and  C_5
    2  A    between atoms: C_1  and  N_15
    3  A    between atoms: C_2  and  N_15
    4  A    between atoms: C_2  and  C_23
    5  A    between atoms: C_5  and  C_42
    6  A    between atoms: C_7  and  C_23
    7  A    between atoms: N_12  and  C_45
    8  A    between atoms: N_15  and  C_41
    9  A    between atoms: C_19  and  N_38
   10  A    between atoms: C_24  and  N_36
   11  A    between atoms: N_36  and  C_45
   12  A    between atoms: C_39  and  C_41
                            x       y       z     vdW  Elec       q    Type
                         _______ _______ _______ _____ _____    ______ ____

>  <TORSDO>
F 12

$$$$
=
 OpenBabel10222420223D

 47 55  0  0  1  0  0  0  0  0999 V2000
  183.0500  179.1150  139.8330 C   0  0  2  0  0  3  0  0  0  0  0  0
  185.5880  177.7660  136.9490 C   0  0  2  0  0  3  0  0  0  0  0  0
  182.6080  179.8020  138.5470 C   0  0  0  0  0  2  0  0  0  0  0  0
  187.6220  177.7610  139.5660 C   0  0  0  0  0  0  0  0  0  0  0  0
  187.9040  177.3970  138.1010 C   0  0  2  0  0  3  0  0  0  0  0  0
  188.6570  178.4910  137.3920 C   0  0  0  0  0  3  0  0  0  0  0  0
  189.6600  176.8590  135.9620 C   0  0  0  0  0  2  0  0  0  0  0  0
  185.1520  178.2130  138.2540 N   0  0  0  0  0  0  0  0  0  0  0  0
  186.6780  178.7220  139.9560 C   0  0  0  0  0  0  0  0  0  0  0  0
  185.0730  179.3630  141.4690 C   0  0  0  0  0  0  0  0  0  0  0  0
  187.2040  176.2020  135.8950 C   0  0  0  0  0  3  0  0  0  0  0  0
  184.2470  177.1390  136.5980 C   0  0  0  0  0  2  0  0  0  0  0  0
  183.7940  176.2000  138.8470 C   0  0  0  0  0  2  0  0  0  0  0  0
  187.0680  178.2150  142.2900 N   0  0  0  0  0  0  0  0  0  0  0  0
  189.4330  178.2190  136.4020 N   0  0  0  0  0  0  0  0  0  0  0  0
  185.5290  179.0220  139.3020 C   0  0  0  0  0  0  0  0  0  0  0  0
  181.6360  177.4050  138.8340 N   0  0  0  0  0  2  0  0  0  0  0  0
  184.5280  179.3760  140.1740 C   0  0  0  0  0  0  0  0  0  0  0  0
  186.3790  178.9050  141.3490 C   0  0  0  0  0  0  0  0  0  0  0  0
  182.7480  178.2840  138.5210 C   0  0  2  0  0  0  0  0  0  0  0  0
  182.3100  176.1670  139.2630 C   0  0  1  0  0  3  0  0  0  0  0  0
  188.0560  177.3610  141.8920 C   0  0  0  0  0  3  0  0  0  0  0  0
  188.4280  176.2530  135.3440 C   0  0  0  0  0  3  0  0  0  0  0  0
  183.9360  177.4700  138.0250 C   0  0  1  0  0  0  0  0  0  0  0  0
  188.3190  177.1430  140.5620 N   0  0  0  0  0  2  0  0  0  0  0  0
  186.7500  176.7870  137.2150 C   0  0  2  0  0  3  0  0  0  0  0  0
  183.3060  178.0770  142.6410 C   0  0  0  0  0  1  0  0  0  0  0  0
  184.2900  179.1450  142.6440 N   0  0  0  0  0  0  0  0  0  0  0  0
  184.7480  179.6550  143.9280 C   0  0  0  0  0  2  0  0  0  0  0  0
  184.9780  178.5570  144.8620 N   0  0  0  0  0  0  0  0  0  0  0  0
  185.8660  179.0280  145.8820 C   0  0  1  0  0  3  0  0  0  0  0  0
  184.4710  179.0020  146.1340 N   0  0  0  0  0  2  0  0  0  0  0  0
  187.6490  177.5080  145.7190 C   0  0  0  0  0  1  0  0  0  0  0  0
  186.9810  178.3000  147.7220 O   0  0  0  0  0  1  0  0  0  0  0  0
  186.4990  177.8870  146.5250 N   0  0  0  0  0  0  0  0  0  0  0  0
  181.5970  174.9100  138.7590 C   0  0  0  0  0  2  0  0  0  0  0  0
  181.7610  174.7210  137.3110 N   0  0  0  0  0  0  0  0  0  0  0  0
  180.4500  174.7400  136.6210 C   0  0  2  0  0  3  0  0  0  0  0  0
  180.4220  173.7540  135.4560 C   0  0  0  0  0  1  0  0  0  0  0  0
  180.0680  176.0980  136.0860 C   0  0  0  0  0  0  0  0  0  0  0  0
  179.0760  176.6690  136.5090 O   0  0  0  0  0  0  0  0  0  0  0  0
  180.8650  178.2600  135.3250 N   0  0  0  0  0  1  0  0  0  0  0  0
  181.0030  176.8220  135.1640 C   0  0  0  0  0  2  0  0  0  0  0  0
  182.4600  173.4450  137.0280 C   0  0  0  0  0  2  0  0  0  0  0  0
  183.9560  173.5710  136.6820 C   0  0  0  0  0  2  0  0  0  0  0  0
  186.2980  172.9920  137.2790 C   0  0  0  0  0  1  0  0  0  0  0  0
  184.8370  172.7270  137.5940 C   0  0  0  0  0  2  0  0  0  0  0  0
  1  3  1  6  0  0  0
  1 18  1  0  0  0  0
  2 12  1  1  0  0  0
  2 26  1  0  0  0  0
  2  8  1  0  0  0  0
  4  9  2  0  0  0  0
  4 25  1  0  0  0  0
  5  6  1  6  0  0  0
  5  4  1  0  0  0  0
  7 15  1  0  0  0  0
  8 16  1  0  0  0  0
  9 19  1  0  0  0  0
 10 28  1  0  0  0  0
 13 21  1  0  0  0  0
 15  6  2  0  0  0  0
 16  9  1  0  0  0  0
 16 18  2  0  0  0  0
 17 21  1  0  0  0  0
 18 10  1  0  0  0  0
 19 10  2  0  0  0  0
 19 14  1  0  0  0  0
 20  3  1  6  0  0  0
 20 17  1  0  0  0  0
 20  1  1  0  0  0  0
 21 36  1  6  0  0  0
 22 14  2  0  0  0  0
 23 11  2  0  0  0  0
 23  7  1  0  0  0  0
 24 12  1  6  0  0  0
 24  8  1  0  0  0  0
 24 20  1  0  0  0  0
 24 13  1  0  0  0  0
 25 22  1  0  0  0  0
 26 11  1  6  0  0  0
 26  5  1  0  0  0  0
 27 28  1  0  0  0  0
 28 29  1  0  0  0  0
 29 30  1  0  0  0  0
 30 31  1  0  0  0  0
 30 32  1  0  0  0  0
 31 32  1  0  0  0  0
 31 35  1  1  0  0  0
 33 35  1  0  0  0  0
 35 34  1  0  0  0  0
 37 36  1  0  0  0  0
 38 39  1  6  0  0  0
 38 37  1  0  0  0  0
 40 41  2  0  0  0  0
 40 38  1  0  0  0  0
 43 42  1  0  0  0  0
 43 40  1  0  0  0  0
 44 37  1  0  0  0  0
 45 44  1  0  0  0  0
 45 47  1  0  0  0  0
 46 47  1  0  0  0  0
M  END
>  <MODEL>
4

>  <REMARK>
 VINA RESULT:      -6.0      3.841      8.890
  Name = 
  12 active torsions:
  status: ('A' for Active; 'I' for Inactive)
    1  A    between atoms: C_1  and  C_5
    2  A    between atoms: C_1  and  N_15
    3  A    between atoms: C_2  and  N_15
    4  A    between atoms: C_2  and  C_23
    5  A    between atoms: C_5  and  C_42
    6  A    between atoms: C_7  and  C_23
    7  A    between atoms: N_12  and  C_45
    8  A    between atoms: N_15  and  C_41
    9  A    between atoms: C_19  and  N_38
   10  A    between atoms: C_24  and  N_36
   11  A    between atoms: N_36  and  C_45
   12  A    between atoms: C_39  and  C_41
                            x       y       z     vdW  Elec       q    Type
                         _______ _______ _______ _____ _____    ______ ____

>  <TORSDO>
F 12

$$$$
=
 OpenBabel10222420223D

 47 55  0  0  1  0  0  0  0  0999 V2000
  183.3920  177.3970  135.9580 C   0  0  2  0  0  3  0  0  0  0  0  0
  180.8060  174.2710  136.2930 C   0  0  2  0  0  3  0  0  0  0  0  0
  182.0670  177.9020  135.4020 C   0  0  0  0  0  2  0  0  0  0  0  0
  183.6330  172.6330  135.7410 C   0  0  0  0  0  0  0  0  0  0  0  0
  182.2070  172.0950  135.9350 C   0  0  2  0  0  3  0  0  0  0  0  0
  181.5910  171.6730  134.6280 C   0  0  0  0  0  3  0  0  0  0  0  0
  180.2770  170.0460  135.7870 C   0  0  0  0  0  2  0  0  0  0  0  0
  182.0550  174.9620  136.0640 N   0  0  0  0  0  0  0  0  0  0  0  0
  183.9180  173.8740  135.1550 C   0  0  0  0  0  0  0  0  0  0  0  0
  185.2440  175.7500  135.1320 C   0  0  0  0  0  0  0  0  0  0  0  0
  179.9330  172.1300  137.2030 C   0  0  0  0  0  3  0  0  0  0  0  0
  180.3040  175.2880  137.3080 C   0  0  0  0  0  2  0  0  0  0  0  0
  182.4860  175.6410  138.4310 C   0  0  0  0  0  2  0  0  0  0  0  0
  186.2800  173.5860  135.6010 N   0  0  0  0  0  0  0  0  0  0  0  0
  180.6940  170.7510  134.5940 N   0  0  0  0  0  0  0  0  0  0  0  0
  183.1410  174.9830  135.2190 C   0  0  0  0  0  0  0  0  0  0  0  0
  182.2350  178.0610  137.9930 N   0  0  0  0  0  2  0  0  0  0  0  0
  183.8970  176.1300  135.2450 C   0  0  0  0  0  0  0  0  0  0  0  0
  185.2700  174.3600  135.1360 C   0  0  0  0  0  0  0  0  0  0  0  0
  182.0520  177.2710  136.7890 C   0  0  2  0  0  0  0  0  0  0  0  0
  182.7330  177.0670  138.9610 C   0  0  1  0  0  3  0  0  0  0  0  0
  185.9920  172.3370  136.0700 C   0  0  0  0  0  3  0  0  0  0  0  0
  179.5230  170.9400  136.7360 C   0  0  0  0  0  3  0  0  0  0  0  0
  181.6880  175.8370  137.1520 C   0  0  1  0  0  0  0  0  0  0  0  0
  184.6990  171.8790  136.1380 N   0  0  0  0  0  2  0  0  0  0  0  0
  181.1970  172.8860  136.8510 C   0  0  2  0  0  3  0  0  0  0  0  0
  186.8890  177.5740  134.7950 C   0  0  0  0  0  1  0  0  0  0  0  0
  186.3240  176.5360  135.6390 N   0  0  0  0  0  0  0  0  0  0  0  0
  186.5580  176.6130  137.0730 C   0  0  0  0  0  2  0  0  0  0  0  0
  187.9240  177.0500  137.3470 N   0  0  0  0  0  0  0  0  0  0  0  0
  188.0620  177.1940  138.7640 C   0  0  1  0  0  3  0  0  0  0  0  0
  188.5250  176.0080  138.1390 N   0  0  0  0  0  2  0  0  0  0  0  0
  190.3830  177.4420  138.4960 C   0  0  0  0  0  1  0  0  0  0  0  0
  189.0030  179.2210  138.3570 O   0  0  0  0  0  1  0  0  0  0  0  0
  189.1910  178.0690  139.0450 N   0  0  0  0  0  0  0  0  0  0  0  0
  182.1480  177.2720  140.3600 C   0  0  0  0  0  2  0  0  0  0  0  0
  182.6320  178.5100  140.9880 N   0  0  0  0  0  0  0  0  0  0  0  0
  183.9270  178.2870  141.6720 C   0  0  2  0  0  3  0  0  0  0  0  0
  183.8660  178.7260  143.1340 C   0  0  0  0  0  1  0  0  0  0  0  0
  185.0860  179.0030  141.0230 C   0  0  0  0  0  0  0  0  0  0  0  0
  184.8980  179.7320  140.0630 O   0  0  0  0  0  0  0  0  0  0  0  0
  186.5990  177.7310  142.4290 N   0  0  0  0  0  1  0  0  0  0  0  0
  186.4400  178.9570  141.6660 C   0  0  0  0  0  2  0  0  0  0  0  0
  181.6360  179.0290  141.9550 C   0  0  0  0  0  2  0  0  0  0  0  0
  180.2870  178.2840  141.9810 C   0  0  0  0  0  2  0  0  0  0  0  0
  179.4110  178.8850  144.2280 C   0  0  0  0  0  1  0  0  0  0  0  0
  179.9420  177.7540  143.3670 C   0  0  0  0  0  2  0  0  0  0  0  0
  1  3  1  6  0  0  0
  1 20  1  0  0  0  0
  2 26  1  0  0  0  0
  2 12  1  1  0  0  0
  4  5  1  0  0  0  0
  4 25  1  0  0  0  0
  5  6  1  6  0  0  0
  5 26  1  0  0  0  0
  7 23  1  0  0  0  0
  8  2  1  0  0  0  0
  8 24  1  0  0  0  0
  9 16  1  0  0  0  0
  9  4  2  0  0  0  0
 10 19  2  0  0  0  0
 10 18  1  0  0  0  0
 10 28  1  0  0  0  0
 13 21  1  0  0  0  0
 14 22  2  0  0  0  0
 15  6  2  0  0  0  0
 15  7  1  0  0  0  0
 16 18  2  0  0  0  0
 16  8  1  0  0  0  0
 17 21  1  0  0  0  0
 18  1  1  0  0  0  0
 19  9  1  0  0  0  0
 19 14  1  0  0  0  0
 20  3  1  6  0  0  0
 20 24  1  0  0  0  0
 20 17  1  0  0  0  0
 21 36  1  1  0  0  0
 22 25  1  0  0  0  0
 23 11  2  0  0  0  0
 24 12  1  1  0  0  0
 24 13  1  0  0  0  0
 26 11  1  6  0  0  0
 27 28  1  0  0  0  0
 28 29  1  0  0  0  0
 29 30  1  0  0  0  0
 30 32  1  0  0  0  0
 30 31  1  0  0  0  0
 31 35  1  6  0  0  0
 32 31  1  0  0  0  0
 33 35  1  0  0  0  0
 34 35  1  0  0  0  0
 36 37  1  0  0  0  0
 37 38  1  0  0  0  0
 37 44  1  0  0  0  0
 38 39  1  1  0  0  0
 40 43  1  0  0  0  0
 40 38  1  0  0  0  0
 41 40  2  0  0  0  0
 43 42  1  0  0  0  0
 44 45  1  0  0  0  0
 45 47  1  0  0  0  0
 47 46  1  0  0  0  0
M  END
>  <MODEL>
5

>  <REMARK>
 VINA RESULT:      -6.0      3.416      5.752
  Name = 
  12 active torsions:
  status: ('A' for Active; 'I' for Inactive)
    1  A    between atoms: C_1  and  C_5
    2  A    between atoms: C_1  and  N_15
    3  A    between atoms: C_2  and  N_15
    4  A    between atoms: C_2  and  C_23
    5  A    between atoms: C_5  and  C_42
    6  A    between atoms: C_7  and  C_23
    7  A    between atoms: N_12  and  C_45
    8  A    between atoms: N_15  and  C_41
    9  A    between atoms: C_19  and  N_38
   10  A    between atoms: C_24  and  N_36
   11  A    between atoms: N_36  and  C_45
   12  A    between atoms: C_39  and  C_41
                            x       y       z     vdW  Elec       q    Type
                         _______ _______ _______ _____ _____    ______ ____

>  <TORSDO>
F 12

$$$$
=
 OpenBabel10222420223D

 47 55  0  0  1  0  0  0  0  0999 V2000
  185.2680  176.9070  136.1390 C   0  0  2  0  0  3  0  0  0  0  0  0
  188.9340  175.1540  135.9000 C   0  0  2  0  0  3  0  0  0  0  0  0
  185.5940  176.8460  134.6530 C   0  0  0  0  0  2  0  0  0  0  0  0
  189.2490  176.7760  138.7720 C   0  0  0  0  0  0  0  0  0  0  0  0
  190.2670  175.9090  138.0160 C   0  0  2  0  0  3  0  0  0  0  0  0
  191.2990  176.7500  137.3140 C   0  0  0  0  0  3  0  0  0  0  0  0
  192.8870  174.9790  137.5510 C   0  0  0  0  0  2  0  0  0  0  0  0
  187.8740  175.9860  136.4250 N   0  0  0  0  0  0  0  0  0  0  0  0
  188.2590  177.5380  138.1360 C   0  0  0  0  0  0  0  0  0  0  0  0
  186.1030  178.3300  138.1660 C   0  0  0  0  0  0  0  0  0  0  0  0
  190.8400  173.7570  136.6670 C   0  0  0  0  0  3  0  0  0  0  0  0
  187.9810  174.1190  135.3200 C   0  0  0  0  0  2  0  0  0  0  0  0
  186.3790  174.1440  137.2120 C   0  0  0  0  0  2  0  0  0  0  0  0
  187.3300  178.1860  140.2750 N   0  0  0  0  0  0  0  0  0  0  0  0
  192.4810  176.2900  137.0920 N   0  0  0  0  0  0  0  0  0  0  0  0
  187.6440  177.2300  136.9690 C   0  0  0  0  0  0  0  0  0  0  0  0
  184.5830  174.6390  135.5870 N   0  0  0  0  0  2  0  0  0  0  0  0
  186.3370  177.6530  136.9570 C   0  0  0  0  0  0  0  0  0  0  0  0
  187.2630  178.2120  138.9210 C   0  0  0  0  0  0  0  0  0  0  0  0
  185.7030  175.5520  135.4500 C   0  0  2  0  0  0  0  0  0  0  0  0
  184.9030  173.9160  136.8310 C   0  0  1  0  0  3  0  0  0  0  0  0
  188.3640  177.5270  140.8730 C   0  0  0  0  0  3  0  0  0  0  0  0
  192.1690  173.8770  136.8170 C   0  0  0  0  0  3  0  0  0  0  0  0
  186.9590  174.9350  136.0510 C   0  0  1  0  0  0  0  0  0  0  0  0
  189.2950  176.8390  140.1340 N   0  0  0  0  0  2  0  0  0  0  0  0
  189.7580  174.7110  137.1270 C   0  0  2  0  0  3  0  0  0  0  0  0
  184.2900  179.7640  139.0630 C   0  0  0  0  0  1  0  0  0  0  0  0
  184.8090  178.4420  138.7610 N   0  0  0  0  0  0  0  0  0  0  0  0
  183.8660  177.3370  138.6640 C   0  0  0  0  0  2  0  0  0  0  0  0
  183.0550  177.2490  139.8750 N   0  0  0  0  0  0  0  0  0  0  0  0
  181.6780  177.2620  139.4820 C   0  0  1  0  0  3  0  0  0  0  0  0
  182.3070  176.0230  139.7660 N   0  0  0  0  0  2  0  0  0  0  0  0
  181.6390  178.6170  141.4010 C   0  0  0  0  0  1  0  0  0  0  0  0
  179.7900  178.3380  140.1400 O   0  0  0  0  0  1  0  0  0  0  0  0
  180.8630  177.6660  140.6180 N   0  0  0  0  0  0  0  0  0  0  0  0
  184.5510  172.4290  136.7480 C   0  0  0  0  0  2  0  0  0  0  0  0
  183.7590  172.1110  135.5520 N   0  0  0  0  0  0  0  0  0  0  0  0
  182.4640  171.4920  135.9210 C   0  0  2  0  0  3  0  0  0  0  0  0
  181.9230  170.6220  134.7880 C   0  0  0  0  0  1  0  0  0  0  0  0
  181.3970  172.4930  136.2860 C   0  0  0  0  0  0  0  0  0  0  0  0
  181.0870  173.3750  135.5020 O   0  0  0  0  0  0  0  0  0  0  0  0
  179.2620  171.8150  137.2170 N   0  0  0  0  0  1  0  0  0  0  0  0
  180.5950  172.2980  137.5370 C   0  0  0  0  0  2  0  0  0  0  0  0
  184.5120  171.2050  134.6520 C   0  0  0  0  0  2  0  0  0  0  0  0
  185.4660  170.2180  135.3520 C   0  0  0  0  0  2  0  0  0  0  0  0
  187.9350  170.3960  135.5780 C   0  0  0  0  0  1  0  0  0  0  0  0
  186.7970  170.0810  134.6240 C   0  0  0  0  0  2  0  0  0  0  0  0
  1  3  1  6  0  0  0
  1 18  1  0  0  0  0
  2 12  1  1  0  0  0
  2  8  1  0  0  0  0
  2 26  1  0  0  0  0
  4 25  1  0  0  0  0
  5  6  1  6  0  0  0
  5  4  1  0  0  0  0
  8 16  1  0  0  0  0
  9  4  2  0  0  0  0
  9 19  1  0  0  0  0
 10 28  1  0  0  0  0
 10 19  2  0  0  0  0
 11 23  2  0  0  0  0
 14 22  2  0  0  0  0
 15  6  2  0  0  0  0
 15  7  1  0  0  0  0
 16  9  1  0  0  0  0
 17 21  1  0  0  0  0
 18 16  2  0  0  0  0
 18 10  1  0  0  0  0
 19 14  1  0  0  0  0
 20  3  1  6  0  0  0
 20 17  1  0  0  0  0
 20 24  1  0  0  0  0
 20  1  1  0  0  0  0
 21 36  1  6  0  0  0
 21 13  1  0  0  0  0
 23  7  1  0  0  0  0
 24 12  1  6  0  0  0
 24  8  1  0  0  0  0
 24 13  1  0  0  0  0
 25 22  1  0  0  0  0
 26 11  1  6  0  0  0
 26  5  1  0  0  0  0
 28 27  1  0  0  0  0
 29 28  1  0  0  0  0
 29 30  1  0  0  0  0
 31 32  1  0  0  0  0
 31 30  1  0  0  0  0
 31 35  1  1  0  0  0
 32 30  1  0  0  0  0
 34 35  1  0  0  0  0
 35 33  1  0  0  0  0
 37 38  1  0  0  0  0
 37 36  1  0  0  0  0
 38 39  1  6  0  0  0
 38 40  1  0  0  0  0
 40 43  1  0  0  0  0
 41 40  2  0  0  0  0
 42 43  1  0  0  0  0
 44 45  1  0  0  0  0
 44 37  1  0  0  0  0
 47 45  1  0  0  0  0
 47 46  1  0  0  0  0
M  END
>  <MODEL>
6

>  <REMARK>
 VINA RESULT:      -5.7      3.713      9.395
  Name = 
  12 active torsions:
  status: ('A' for Active; 'I' for Inactive)
    1  A    between atoms: C_1  and  C_5
    2  A    between atoms: C_1  and  N_15
    3  A    between atoms: C_2  and  N_15
    4  A    between atoms: C_2  and  C_23
    5  A    between atoms: C_5  and  C_42
    6  A    between atoms: C_7  and  C_23
    7  A    between atoms: N_12  and  C_45
    8  A    between atoms: N_15  and  C_41
    9  A    between atoms: C_19  and  N_38
   10  A    between atoms: C_24  and  N_36
   11  A    between atoms: N_36  and  C_45
   12  A    between atoms: C_39  and  C_41
                            x       y       z     vdW  Elec       q    Type
                         _______ _______ _______ _____ _____    ______ ____

>  <TORSDO>
F 12

$$$$
=
 OpenBabel10222420223D

 47 55  0  0  1  0  0  0  0  0999 V2000
  186.4230  177.9700  137.1450 C   0  0  2  0  0  3  0  0  0  0  0  0
  189.9760  176.1090  136.4490 C   0  0  2  0  0  3  0  0  0  0  0  0
  186.8090  178.3480  135.7220 C   0  0  0  0  0  2  0  0  0  0  0  0
  190.2690  176.7320  139.6910 C   0  0  0  0  0  0  0  0  0  0  0  0
  191.2610  176.0690  138.7240 C   0  0  2  0  0  3  0  0  0  0  0  0
  192.3740  177.0070  138.3410 C   0  0  0  0  0  3  0  0  0  0  0  0
  193.8340  175.1370  138.0470 C   0  0  0  0  0  2  0  0  0  0  0  0
  188.9500  176.8140  137.1860 N   0  0  0  0  0  0  0  0  0  0  0  0
  189.3580  177.7250  139.3040 C   0  0  0  0  0  0  0  0  0  0  0  0
  187.2580  178.6270  139.5330 C   0  0  0  0  0  0  0  0  0  0  0  0
  191.7530  174.4050  136.7810 C   0  0  0  0  0  3  0  0  0  0  0  0
  188.9850  175.3790  135.5540 C   0  0  0  0  0  2  0  0  0  0  0  0
  187.3060  174.9350  137.3240 C   0  0  0  0  0  2  0  0  0  0  0  0
  188.3790  177.7450  141.5170 N   0  0  0  0  0  0  0  0  0  0  0  0
  193.5330  176.5520  138.0130 N   0  0  0  0  0  0  0  0  0  0  0  0
  188.7760  177.8410  138.0850 C   0  0  0  0  0  0  0  0  0  0  0  0
  185.6180  176.0410  135.8980 N   0  0  0  0  0  2  0  0  0  0  0  0
  187.5000  178.3430  138.1790 C   0  0  0  0  0  0  0  0  0  0  0  0
  188.3730  178.1940  140.2380 C   0  0  0  0  0  0  0  0  0  0  0  0
  186.8000  176.8660  136.0760 C   0  0  2  0  0  0  0  0  0  0  0  0
  185.8370  174.9470  136.8590 C   0  0  1  0  0  3  0  0  0  0  0  0
  189.3420  176.8570  141.9010 C   0  0  0  0  0  3  0  0  0  0  0  0
  193.0800  174.3740  136.9910 C   0  0  0  0  0  3  0  0  0  0  0  0
  187.9860  176.0010  136.4810 C   0  0  1  0  0  0  0  0  0  0  0  0
  190.2580  176.3650  141.0050 N   0  0  0  0  0  2  0  0  0  0  0  0
  190.7160  175.2470  137.4930 C   0  0  2  0  0  3  0  0  0  0  0  0
  185.0040  177.6090  139.7220 C   0  0  0  0  0  1  0  0  0  0  0  0
  185.9490  178.6440  140.1050 N   0  0  0  0  0  0  0  0  0  0  0  0
  185.7040  179.3770  141.3390 C   0  0  0  0  0  2  0  0  0  0  0  0
  185.2430  178.4720  142.3890 N   0  0  0  0  0  0  0  0  0  0  0  0
  184.9290  179.2620  143.5410 C   0  0  1  0  0  3  0  0  0  0  0  0
  183.8840  178.8520  142.6750 N   0  0  0  0  0  2  0  0  0  0  0  0
  186.2750  177.8200  144.8180 C   0  0  0  0  0  1  0  0  0  0  0  0
  184.7920  179.2020  145.8070 O   0  0  0  0  0  1  0  0  0  0  0  0
  184.9480  178.4090  144.7200 N   0  0  0  0  0  0  0  0  0  0  0  0
  185.3950  173.5890  136.3080 C   0  0  0  0  0  2  0  0  0  0  0  0
  184.0270  173.6260  135.7730 N   0  0  0  0  0  0  0  0  0  0  0  0
  183.0270  173.5630  136.8660 C   0  0  2  0  0  3  0  0  0  0  0  0
  181.9320  172.5440  136.5570 C   0  0  0  0  0  1  0  0  0  0  0  0
  182.3610  174.8850  137.1530 C   0  0  0  0  0  0  0  0  0  0  0  0
  181.9020  175.5540  136.2420 O   0  0  0  0  0  0  0  0  0  0  0  0
  180.7390  175.7600  138.7310 N   0  0  0  0  0  1  0  0  0  0  0  0
  182.1060  175.2930  138.5730 C   0  0  0  0  0  2  0  0  0  0  0  0
  183.8070  172.5080  134.8250 C   0  0  0  0  0  2  0  0  0  0  0  0
  184.9870  171.5300  134.6680 C   0  0  0  0  0  2  0  0  0  0  0  0
  183.3870  169.6280  134.6990 C   0  0  0  0  0  1  0  0  0  0  0  0
  184.6900  170.1600  135.2660 C   0  0  0  0  0  2  0  0  0  0  0  0
  1  3  1  6  0  0  0
  1 18  1  0  0  0  0
  2 12  1  6  0  0  0
  2  8  1  0  0  0  0
  2 26  1  0  0  0  0
  4 25  1  0  0  0  0
  5  6  1  6  0  0  0
  5  4  1  0  0  0  0
  8 16  1  0  0  0  0
  9  4  2  0  0  0  0
  9 19  1  0  0  0  0
 10 28  1  0  0  0  0
 10 19  2  0  0  0  0
 11 23  2  0  0  0  0
 14 22  2  0  0  0  0
 15  7  1  0  0  0  0
 15  6  2  0  0  0  0
 16 18  2  0  0  0  0
 16  9  1  0  0  0  0
 17 20  1  0  0  0  0
 17 21  1  0  0  0  0
 18 10  1  0  0  0  0
 19 14  1  0  0  0  0
 20  3  1  6  0  0  0
 20 24  1  0  0  0  0
 20  1  1  0  0  0  0
 21 36  1  6  0  0  0
 21 13  1  0  0  0  0
 23  7  1  0  0  0  0
 24 12  1  6  0  0  0
 24  8  1  0  0  0  0
 24 13  1  0  0  0  0
 25 22  1  0  0  0  0
 26 11  1  6  0  0  0
 26  5  1  0  0  0  0
 27 28  1  0  0  0  0
 28 29  1  0  0  0  0
 29 30  1  0  0  0  0
 30 32  1  0  0  0  0
 30 31  1  0  0  0  0
 31 35  1  1  0  0  0
 32 31  1  0  0  0  0
 35 33  1  0  0  0  0
 35 34  1  0  0  0  0
 37 36  1  0  0  0  0
 37 38  1  0  0  0  0
 38 39  1  6  0  0  0
 38 40  1  0  0  0  0
 40 43  1  0  0  0  0
 41 40  2  0  0  0  0
 43 42  1  0  0  0  0
 44 37  1  0  0  0  0
 45 44  1  0  0  0  0
 45 47  1  0  0  0  0
 46 47  1  0  0  0  0
M  END
>  <MODEL>
7

>  <REMARK>
 VINA RESULT:      -5.6      3.041      8.784
  Name = 
  12 active torsions:
  status: ('A' for Active; 'I' for Inactive)
    1  A    between atoms: C_1  and  C_5
    2  A    between atoms: C_1  and  N_15
    3  A    between atoms: C_2  and  N_15
    4  A    between atoms: C_2  and  C_23
    5  A    between atoms: C_5  and  C_42
    6  A    between atoms: C_7  and  C_23
    7  A    between atoms: N_12  and  C_45
    8  A    between atoms: N_15  and  C_41
    9  A    between atoms: C_19  and  N_38
   10  A    between atoms: C_24  and  N_36
   11  A    between atoms: N_36  and  C_45
   12  A    between atoms: C_39  and  C_41
                            x       y       z     vdW  Elec       q    Type
                         _______ _______ _______ _____ _____    ______ ____

>  <TORSDO>
F 12

$$$$
=
 OpenBabel10222420223D

 47 55  0  0  1  0  0  0  0  0999 V2000
  186.5140  177.8550  137.3180 C   0  0  2  0  0  3  0  0  0  0  0  0
  190.0320  175.9720  136.5100 C   0  0  2  0  0  3  0  0  0  0  0  0
  186.8360  178.1970  135.8700 C   0  0  0  0  0  2  0  0  0  0  0  0
  190.4690  176.6750  139.7190 C   0  0  0  0  0  0  0  0  0  0  0  0
  191.4170  175.9870  138.7250 C   0  0  2  0  0  3  0  0  0  0  0  0
  192.5120  176.9140  138.2710 C   0  0  0  0  0  3  0  0  0  0  0  0
  193.9570  175.0340  137.9580 C   0  0  0  0  0  2  0  0  0  0  0  0
  189.0390  176.6960  137.2740 N   0  0  0  0  0  0  0  0  0  0  0  0
  189.5420  177.6590  139.3480 C   0  0  0  0  0  0  0  0  0  0  0  0
  187.4550  178.5700  139.6480 C   0  0  0  0  0  0  0  0  0  0  0  0
  191.8210  174.2750  136.8050 C   0  0  0  0  0  3  0  0  0  0  0  0
  189.0010  175.2220  135.6790 C   0  0  0  0  0  2  0  0  0  0  0  0
  187.4030  174.8240  137.5330 C   0  0  0  0  0  2  0  0  0  0  0  0
  188.6630  177.7360  141.6020 N   0  0  0  0  0  0  0  0  0  0  0  0
  193.6550  176.4490  137.9020 N   0  0  0  0  0  0  0  0  0  0  0  0
  188.9060  177.7460  138.1540 C   0  0  0  0  0  0  0  0  0  0  0  0
  185.6540  175.8970  136.1560 N   0  0  0  0  0  2  0  0  0  0  0  0
  187.6360  178.2520  138.2920 C   0  0  0  0  0  0  0  0  0  0  0  0
  188.6010  178.1530  140.3140 C   0  0  0  0  0  0  0  0  0  0  0  0
  186.8420  176.7240  136.2610 C   0  0  2  0  0  0  0  0  0  0  0  0
  185.9150  174.8260  137.1340 C   0  0  1  0  0  3  0  0  0  0  0  0
  189.6420  176.8570  141.9650 C   0  0  0  0  0  3  0  0  0  0  0  0
  193.1560  174.2470  136.9560 C   0  0  0  0  0  3  0  0  0  0  0  0
  188.0450  175.8680  136.6340 C   0  0  1  0  0  0  0  0  0  0  0  0
  190.5170  176.3410  141.0410 N   0  0  0  0  0  2  0  0  0  0  0  0
  190.8170  175.1350  137.5420 C   0  0  2  0  0  3  0  0  0  0  0  0
  186.0890  178.9950  141.6740 C   0  0  0  0  0  1  0  0  0  0  0  0
  186.1730  178.6030  140.2780 N   0  0  0  0  0  0  0  0  0  0  0  0
  184.9660  178.6810  139.4690 C   0  0  0  0  0  2  0  0  0  0  0  0
  183.7840  178.7910  140.3200 N   0  0  0  0  0  0  0  0  0  0  0  0
  182.6320  178.7990  139.4710 C   0  0  1  0  0  3  0  0  0  0  0  0
  183.0210  177.5890  140.1000 N   0  0  0  0  0  2  0  0  0  0  0  0
  180.3020  179.1030  139.4390 C   0  0  0  0  0  1  0  0  0  0  0  0
  181.3970  178.7360  141.3760 O   0  0  0  0  0  1  0  0  0  0  0  0
  181.5130  179.3860  140.1940 N   0  0  0  0  0  0  0  0  0  0  0  0
  185.4480  173.4560  136.6370 C   0  0  0  0  0  2  0  0  0  0  0  0
  184.1940  173.5390  135.8750 N   0  0  0  0  0  0  0  0  0  0  0  0
  183.0480  173.8270  136.7690 C   0  0  2  0  0  3  0  0  0  0  0  0
  182.2410  172.5630  137.0610 C   0  0  0  0  0  1  0  0  0  0  0  0
  182.0990  174.8640  136.2220 C   0  0  0  0  0  0  0  0  0  0  0  0
  181.3850  174.6030  135.2670 O   0  0  0  0  0  0  0  0  0  0  0  0
  182.5250  177.2530  136.2340 N   0  0  0  0  0  1  0  0  0  0  0  0
  181.9060  176.1550  136.9590 C   0  0  0  0  0  2  0  0  0  0  0  0
  183.9490  172.2800  135.1330 C   0  0  0  0  0  2  0  0  0  0  0  0
  185.1800  171.3720  134.9440 C   0  0  0  0  0  2  0  0  0  0  0  0
  183.5810  169.6350  135.7220 C   0  0  0  0  0  1  0  0  0  0  0  0
  184.8080  169.8970  134.8680 C   0  0  0  0  0  2  0  0  0  0  0  0
  1  3  1  6  0  0  0
  1 18  1  0  0  0  0
  2 12  1  6  0  0  0
  2  8  1  0  0  0  0
  2 26  1  0  0  0  0
  4 25  1  0  0  0  0
  5  6  1  6  0  0  0
  5  4  1  0  0  0  0
  8 16  1  0  0  0  0
  9  4  2  0  0  0  0
  9 19  1  0  0  0  0
 10 28  1  0  0  0  0
 10 19  2  0  0  0  0
 11 23  2  0  0  0  0
 14 22  2  0  0  0  0
 15  7  1  0  0  0  0
 15  6  2  0  0  0  0
 16 18  2  0  0  0  0
 16  9  1  0  0  0  0
 17 20  1  0  0  0  0
 17 21  1  0  0  0  0
 18 10  1  0  0  0  0
 19 14  1  0  0  0  0
 20  3  1  6  0  0  0
 20 24  1  0  0  0  0
 20  1  1  0  0  0  0
 21 36  1  6  0  0  0
 21 13  1  0  0  0  0
 23  7  1  0  0  0  0
 24 12  1  6  0  0  0
 24  8  1  0  0  0  0
 24 13  1  0  0  0  0
 25 22  1  0  0  0  0
 26 11  1  6  0  0  0
 26  5  1  0  0  0  0
 28 27  1  0  0  0  0
 29 28  1  0  0  0  0
 29 30  1  0  0  0  0
 31 32  1  0  0  0  0
 31 35  1  1  0  0  0
 31 30  1  0  0  0  0
 32 30  1  0  0  0  0
 33 35  1  0  0  0  0
 35 34  1  0  0  0  0
 37 36  1  0  0  0  0
 37 38  1  0  0  0  0
 38 39  1  6  0  0  0
 40 38  1  0  0  0  0
 40 43  1  0  0  0  0
 41 40  2  0  0  0  0
 42 43  1  0  0  0  0
 44 37  1  0  0  0  0
 45 44  1  0  0  0  0
 47 45  1  0  0  0  0
 47 46  1  0  0  0  0
M  END
>  <MODEL>
8

>  <REMARK>
 VINA RESULT:      -5.5      3.400      9.057
  Name = 
  12 active torsions:
  status: ('A' for Active; 'I' for Inactive)
    1  A    between atoms: C_1  and  C_5
    2  A    between atoms: C_1  and  N_15
    3  A    between atoms: C_2  and  N_15
    4  A    between atoms: C_2  and  C_23
    5  A    between atoms: C_5  and  C_42
    6  A    between atoms: C_7  and  C_23
    7  A    between atoms: N_12  and  C_45
    8  A    between atoms: N_15  and  C_41
    9  A    between atoms: C_19  and  N_38
   10  A    between atoms: C_24  and  N_36
   11  A    between atoms: N_36  and  C_45
   12  A    between atoms: C_39  and  C_41
                            x       y       z     vdW  Elec       q    Type
                         _______ _______ _______ _____ _____    ______ ____

>  <TORSDO>
F 12

$$$$
=
 OpenBabel10222420223D

 47 55  0  0  1  0  0  0  0  0999 V2000
  189.2310  177.6390  136.7060 C   0  0  2  0  0  3  0  0  0  0  0  0
  185.2100  177.4150  137.3040 C   0  0  2  0  0  3  0  0  0  0  0  0
  188.6620  178.9340  136.1420 C   0  0  0  0  0  2  0  0  0  0  0  0
  185.9060  174.2120  136.8120 C   0  0  0  0  0  0  0  0  0  0  0  0
  184.5550  174.8960  137.0700 C   0  0  2  0  0  3  0  0  0  0  0  0
  183.7450  175.0170  135.8070 C   0  0  0  0  0  3  0  0  0  0  0  0
  181.7360  174.9100  137.0990 C   0  0  0  0  0  2  0  0  0  0  0  0
  186.5510  176.9640  137.0040 N   0  0  0  0  0  0  0  0  0  0  0  0
  186.9690  174.8290  136.1370 C   0  0  0  0  0  0  0  0  0  0  0  0
  189.2390  175.1350  135.9590 C   0  0  0  0  0  0  0  0  0  0  0  0
  183.1120  176.6260  138.3750 C   0  0  0  0  0  3  0  0  0  0  0  0
  185.6740  178.5070  138.2560 C   0  0  0  0  0  2  0  0  0  0  0  0
  187.4890  177.1880  139.3110 C   0  0  0  0  0  2  0  0  0  0  0  0
  188.3950  172.9200  136.5560 N   0  0  0  0  0  0  0  0  0  0  0  0
  182.4590  175.0450  135.8520 N   0  0  0  0  0  0  0  0  0  0  0  0
  187.2520  176.1550  136.1400 C   0  0  0  0  0  0  0  0  0  0  0  0
  189.0560  179.0040  138.7130 N   0  0  0  0  0  2  0  0  0  0  0  0
  188.6060  176.3830  136.0720 C   0  0  0  0  0  0  0  0  0  0  0  0
  188.2430  174.1710  136.0580 C   0  0  0  0  0  0  0  0  0  0  0  0
  188.2790  178.5610  137.5690 C   0  0  2  0  0  0  0  0  0  0  0  0
  188.7310  177.9950  139.7370 C   0  0  1  0  0  3  0  0  0  0  0  0
  187.3180  172.2950  137.1150 C   0  0  0  0  0  3  0  0  0  0  0  0
  181.9340  176.1020  137.9980 C   0  0  0  0  0  3  0  0  0  0  0  0
  187.0080  177.8630  138.0370 C   0  0  1  0  0  0  0  0  0  0  0  0
  186.1080  172.9320  137.2390 N   0  0  0  0  0  2  0  0  0  0  0  0
  184.5020  176.2050  137.9480 C   0  0  2  0  0  3  0  0  0  0  0  0
  190.8860  174.9900  137.8070 C   0  0  0  0  0  1  0  0  0  0  0  0
  190.5800  174.8960  136.3910 N   0  0  0  0  0  0  0  0  0  0  0  0
  191.5000  174.1610  135.5350 C   0  0  0  0  0  2  0  0  0  0  0  0
  192.7090  174.9430  135.2910 N   0  0  0  0  0  0  0  0  0  0  0  0
  193.7890  174.3070  135.9810 C   0  0  1  0  0  3  0  0  0  0  0  0
  193.6160  174.0690  134.5950 N   0  0  0  0  0  2  0  0  0  0  0  0
  194.3180  176.5940  135.9080 C   0  0  0  0  0  1  0  0  0  0  0  0
  195.1970  175.2510  137.4930 O   0  0  0  0  0  1  0  0  0  0  0  0
  194.8600  175.2720  136.1810 N   0  0  0  0  0  0  0  0  0  0  0  0
  188.5710  178.6080  141.1300 C   0  0  0  0  0  2  0  0  0  0  0  0
  189.1770  177.7740  142.1770 N   0  0  0  0  0  0  0  0  0  0  0  0
  188.6250  178.1120  143.5100 C   0  0  2  0  0  3  0  0  0  0  0  0
  189.7140  178.0950  144.5810 C   0  0  0  0  0  1  0  0  0  0  0  0
  187.5210  177.1880  143.9600 C   0  0  0  0  0  0  0  0  0  0  0  0
  187.5560  176.0020  143.6750 O   0  0  0  0  0  0  0  0  0  0  0  0
  186.8990  177.5110  146.2830 N   0  0  0  0  0  1  0  0  0  0  0  0
  186.4720  177.6920  144.9050 C   0  0  0  0  0  2  0  0  0  0  0  0
  190.6500  177.9360  142.1860 C   0  0  0  0  0  2  0  0  0  0  0  0
  191.4300  176.9610  141.2830 C   0  0  0  0  0  2  0  0  0  0  0  0
  193.1030  177.1390  139.4540 C   0  0  0  0  0  1  0  0  0  0  0  0
  192.8020  177.4980  140.8970 C   0  0  0  0  0  2  0  0  0  0  0  0
  1  3  1  6  0  0  0
  1 20  1  0  0  0  0
  2 26  1  0  0  0  0
  2 12  1  1  0  0  0
  4  5  1  0  0  0  0
  4 25  1  0  0  0  0
  5  6  1  6  0  0  0
  5 26  1  0  0  0  0
  6 15  2  0  0  0  0
  7 23  1  0  0  0  0
  8  2  1  0  0  0  0
  8 24  1  0  0  0  0
  9 16  1  0  0  0  0
  9  4  2  0  0  0  0
 10 19  2  0  0  0  0
 10 18  1  0  0  0  0
 10 28  1  0  0  0  0
 13 21  1  0  0  0  0
 14 22  2  0  0  0  0
 15  7  1  0  0  0  0
 16  8  1  0  0  0  0
 17 21  1  0  0  0  0
 18 16  2  0  0  0  0
 18  1  1  0  0  0  0
 19  9  1  0  0  0  0
 19 14  1  0  0  0  0
 20  3  1  6  0  0  0
 20 24  1  0  0  0  0
 20 17  1  0  0  0  0
 21 36  1  1  0  0  0
 22 25  1  0  0  0  0
 23 11  2  0  0  0  0
 24 12  1  1  0  0  0
 24 13  1  0  0  0  0
 26 11  1  6  0  0  0
 28 27  1  0  0  0  0
 29 28  1  0  0  0  0
 30 29  1  0  0  0  0
 30 31  1  0  0  0  0
 31 35  1  6  0  0  0
 32 30  1  0  0  0  0
 32 31  1  0  0  0  0
 33 35  1  0  0  0  0
 35 34  1  0  0  0  0
 36 37  1  0  0  0  0
 37 44  1  0  0  0  0
 37 38  1  0  0  0  0
 38 40  1  0  0  0  0
 38 39  1  1  0  0  0
 40 43  1  0  0  0  0
 41 40  2  0  0  0  0
 43 42  1  0  0  0  0
 45 44  1  0  0  0  0
 46 47  1  0  0  0  0
 47 45  1  0  0  0  0
M  END
>  <MODEL>
9

>  <REMARK>
 VINA RESULT:      -5.4      1.444      2.777
  Name = 
  12 active torsions:
  status: ('A' for Active; 'I' for Inactive)
    1  A    between atoms: C_1  and  C_5
    2  A    between atoms: C_1  and  N_15
    3  A    between atoms: C_2  and  N_15
    4  A    between atoms: C_2  and  C_23
    5  A    between atoms: C_5  and  C_42
    6  A    between atoms: C_7  and  C_23
    7  A    between atoms: N_12  and  C_45
    8  A    between atoms: N_15  and  C_41
    9  A    between atoms: C_19  and  N_38
   10  A    between atoms: C_24  and  N_36
   11  A    between atoms: N_36  and  C_45
   12  A    between atoms: C_39  and  C_41
                            x       y       z     vdW  Elec       q    Type
                         _______ _______ _______ _____ _____    ______ ____

>  <TORSDO>
F 12

$$$$
