=
 OpenBabel10222415543D

 29 31  0  0  1  0  0  0  0  0999 V2000
  184.4630  178.2440  142.5950 C   0  0  1  0  0  3  0  0  0  0  0  0
  181.6350  179.0130  141.5680 C   0  0  0  0  0  0  0  0  0  0  0  0
  186.3510  178.6470  141.1520 C   0  0  0  0  0  2  0  0  0  0  0  0
  185.7420  178.1140  144.7740 C   0  0  0  0  0  0  0  0  0  0  0  0
  182.2050  179.4620  142.8020 N   0  0  0  0  0  2  0  0  0  0  0  0
  184.8860  179.0070  141.3550 C   0  0  0  0  0  2  0  0  0  0  0  0
  183.5560  179.1170  144.6910 N   0  0  0  0  0  0  0  0  0  0  0  0
  182.0590  177.9660  141.0070 O   0  0  0  0  0  0  0  0  0  0  0  0
  184.6980  178.6420  145.4180 C   0  0  0  0  0  3  0  0  0  0  0  0
  180.5440  179.7450  141.0010 N   0  0  0  0  0  2  0  0  0  0  0  0
  185.6960  178.0470  143.3430 N   0  0  0  0  0  0  0  0  0  0  0  0
  186.8730  178.2560  142.5240 C   0  0  0  0  0  2  0  0  0  0  0  0
  183.4140  178.9810  143.4050 C   0  0  0  0  0  0  0  0  0  0  0  0
  179.8550  179.3790  139.7680 C   0  0  1  0  0  0  0  0  0  0  0  0
  179.1070  178.2180  139.9780 O   0  0  0  0  0  1  0  0  0  0  0  0
  178.9320  180.5120  139.3440 C   0  0  0  0  0  1  0  0  0  0  0  0
  180.9070  179.1340  138.6860 C   0  0  0  0  0  2  0  0  0  0  0  0
  180.6390  178.6590  136.2690 C   0  0  0  0  0  1  0  0  0  0  0  0
  181.3380  176.9090  137.7830 N   0  0  0  0  0  1  0  0  0  0  0  0
  180.4920  178.0830  137.6610 C   0  0  1  0  0  3  0  0  0  0  0  0
  188.1700  177.7120  144.9760 C   0  0  0  0  0  3  0  0  0  0  0  0
  186.9440  177.6580  145.4970 C   0  0  0  0  0  3  0  0  0  0  0  0
  191.6690  176.3720  147.0270 C   0  0  0  0  0  0  0  0  0  0  0  0
  189.3690  177.1250  147.1010 C   0  0  0  0  0  3  0  0  0  0  0  0
  191.6670  176.5010  145.6350 C   0  0  0  0  0  3  0  0  0  0  0  0
  190.5210  176.6850  147.7600 C   0  0  0  0  0  3  0  0  0  0  0  0
  189.3610  177.2540  145.7030 C   0  0  0  0  0  0  0  0  0  0  0  0
  190.5140  176.9400  144.9760 C   0  0  0  0  0  3  0  0  0  0  0  0
  192.8410  175.9250  147.6970 N   0  0  0  0  0  1  0  0  0  0  0  0
  1  6  1  6  0  0  0
  1 11  1  0  0  0  0
  1 13  1  0  0  0  0
  2  5  1  0  0  0  0
  3  6  1  0  0  0  0
  3 12  1  0  0  0  0
  4  9  2  0  0  0  0
  4 22  1  0  0  0  0
  5 13  1  0  0  0  0
  7  9  1  0  0  0  0
  8  2  2  0  0  0  0
 10  2  1  0  0  0  0
 11  4  1  0  0  0  0
 12 11  1  0  0  0  0
 13  7  2  0  0  0  0
 14 16  1  6  0  0  0
 14 15  1  0  0  0  0
 14 10  1  0  0  0  0
 17 14  1  0  0  0  0
 20 18  1  6  0  0  0
 20 19  1  0  0  0  0
 20 17  1  0  0  0  0
 21 22  2  0  0  0  0
 21 27  1  0  0  0  0
 23 29  1  0  0  0  0
 23 26  1  0  0  0  0
 24 26  2  0  0  0  0
 25 23  2  0  0  0  0
 27 24  1  0  0  0  0
 28 25  1  0  0  0  0
 28 27  2  0  0  0  0
M  END
>  <MODEL>
1

>  <REMARK>
 VINA RESULT:      -8.0      0.000      0.000
  Name = 
  5 active torsions:
  status: ('A' for Active; 'I' for Inactive)
    1  A    between atoms: C_2  and  N_19
    2  A    between atoms: C_2  and  C_25
    3  A    between atoms: C_9  and  C_20
    4  A    between atoms: C_10  and  C_13
    5  A    between atoms: C_23  and  C_25
                            x       y       z     vdW  Elec       q    Type
                         _______ _______ _______ _____ _____    ______ ____

>  <TORSDO>
F 5

$$$$
=
 OpenBabel10222415543D

 29 31  0  0  1  0  0  0  0  0999 V2000
  184.9580  179.1990  141.2250 C   0  0  1  0  0  3  0  0  0  0  0  0
  183.2250  179.7980  138.7190 C   0  0  0  0  0  0  0  0  0  0  0  0
  183.8630  178.3450  143.1940 C   0  0  0  0  0  2  0  0  0  0  0  0
  187.3000  178.4320  141.7980 C   0  0  0  0  0  0  0  0  0  0  0  0
  184.3800  178.9520  138.7290 N   0  0  0  0  0  2  0  0  0  0  0  0
  183.6680  178.5610  141.7010 C   0  0  0  0  0  2  0  0  0  0  0  0
  186.5210  178.4020  139.5210 N   0  0  0  0  0  0  0  0  0  0  0  0
  183.0620  180.6740  139.6110 O   0  0  0  0  0  0  0  0  0  0  0  0
  187.5590  178.2530  140.5000 C   0  0  0  0  0  3  0  0  0  0  0  0
  182.2780  179.6660  137.6550 N   0  0  0  0  0  2  0  0  0  0  0  0
  185.9600  178.7610  142.1860 N   0  0  0  0  0  0  0  0  0  0  0  0
  185.3650  178.2530  143.4050 C   0  0  0  0  0  2  0  0  0  0  0  0
  185.3170  178.8050  139.8050 C   0  0  0  0  0  0  0  0  0  0  0  0
  181.0780  180.4820  137.5090 C   0  0  1  0  0  0  0  0  0  0  0  0
  180.7420  180.5820  136.1560 O   0  0  0  0  0  1  0  0  0  0  0  0
  179.9290  179.8420  138.2740 C   0  0  0  0  0  1  0  0  0  0  0  0
  181.3710  181.8710  138.0780 C   0  0  0  0  0  2  0  0  0  0  0  0
  179.4890  183.4610  137.8240 C   0  0  0  0  0  1  0  0  0  0  0  0
  181.7330  184.1250  137.2180 N   0  0  0  0  0  1  0  0  0  0  0  0
  180.8060  183.0070  137.2320 C   0  0  1  0  0  3  0  0  0  0  0  0
  188.3280  177.2360  143.6970 C   0  0  0  0  0  3  0  0  0  0  0  0
  188.3420  178.2440  142.8250 C   0  0  0  0  0  3  0  0  0  0  0  0
  191.3050  176.7300  146.7200 C   0  0  0  0  0  0  0  0  0  0  0  0
  190.7050  176.7970  144.3750 C   0  0  0  0  0  3  0  0  0  0  0  0
  189.9750  176.9870  147.0670 C   0  0  0  0  0  3  0  0  0  0  0  0
  191.6690  176.6340  145.3750 C   0  0  0  0  0  3  0  0  0  0  0  0
  189.3690  177.0580  144.7180 C   0  0  0  0  0  0  0  0  0  0  0  0
  189.0110  177.1510  146.0680 C   0  0  0  0  0  3  0  0  0  0  0  0
  192.2850  176.5640  147.7360 N   0  0  0  0  0  1  0  0  0  0  0  0
  1  6  1  1  0  0  0
  1 11  1  0  0  0  0
  2  5  1  0  0  0  0
  2  8  2  0  0  0  0
  3 12  1  0  0  0  0
  4 11  1  0  0  0  0
  4 22  1  0  0  0  0
  5 13  1  0  0  0  0
  6  3  1  0  0  0  0
  7 13  2  0  0  0  0
  7  9  1  0  0  0  0
  9  4  2  0  0  0  0
 10  2  1  0  0  0  0
 11 12  1  0  0  0  0
 13  1  1  0  0  0  0
 14 10  1  0  0  0  0
 14 17  1  0  0  0  0
 14 16  1  1  0  0  0
 15 14  1  0  0  0  0
 19 20  1  0  0  0  0
 20 18  1  1  0  0  0
 20 17  1  0  0  0  0
 21 27  1  0  0  0  0
 22 21  2  0  0  0  0
 23 25  1  0  0  0  0
 23 29  1  0  0  0  0
 24 27  2  0  0  0  0
 24 26  1  0  0  0  0
 26 23  2  0  0  0  0
 27 28  1  0  0  0  0
 28 25  2  0  0  0  0
M  END
>  <MODEL>
2

>  <REMARK>
 VINA RESULT:      -7.7      2.414      3.512
  Name = 
  5 active torsions:
  status: ('A' for Active; 'I' for Inactive)
    1  A    between atoms: C_2  and  N_19
    2  A    between atoms: C_2  and  C_25
    3  A    between atoms: C_9  and  C_20
    4  A    between atoms: C_10  and  C_13
    5  A    between atoms: C_23  and  C_25
                            x       y       z     vdW  Elec       q    Type
                         _______ _______ _______ _____ _____    ______ ____

>  <TORSDO>
F 5

$$$$
=
 OpenBabel10222415543D

 29 31  0  0  1  0  0  0  0  0999 V2000
  184.9330  179.1070  141.2720 C   0  0  1  0  0  3  0  0  0  0  0  0
  183.2830  179.5930  138.6870 C   0  0  0  0  0  0  0  0  0  0  0  0
  183.7760  178.3240  143.2370 C   0  0  0  0  0  2  0  0  0  0  0  0
  187.2580  178.3790  141.9550 C   0  0  0  0  0  0  0  0  0  0  0  0
  184.4410  178.7570  138.7700 N   0  0  0  0  0  2  0  0  0  0  0  0
  183.6310  178.4790  141.7300 C   0  0  0  0  0  2  0  0  0  0  0  0
  186.5570  178.2530  139.6560 N   0  0  0  0  0  0  0  0  0  0  0  0
  183.0850  180.5030  139.5380 O   0  0  0  0  0  0  0  0  0  0  0  0
  187.5620  178.1500  140.6740 C   0  0  0  0  0  3  0  0  0  0  0  0
  182.3730  179.4120  137.5980 N   0  0  0  0  0  2  0  0  0  0  0  0
  185.9040  178.7140  142.2830 N   0  0  0  0  0  0  0  0  0  0  0  0
  185.2710  178.2510  143.5010 C   0  0  0  0  0  2  0  0  0  0  0  0
  185.3420  178.6590  139.8830 C   0  0  0  0  0  0  0  0  0  0  0  0
  181.1740  180.2140  137.3800 C   0  0  1  0  0  0  0  0  0  0  0  0
  181.4700  181.5640  137.5920 O   0  0  0  0  0  1  0  0  0  0  0  0
  180.6820  180.0180  135.9530 C   0  0  0  0  0  1  0  0  0  0  0  0
  180.1020  179.7530  138.3680 C   0  0  0  0  0  2  0  0  0  0  0  0
  180.0330  178.0970  140.2090 C   0  0  0  0  0  1  0  0  0  0  0  0
  179.1390  177.5360  138.0340 N   0  0  0  0  0  1  0  0  0  0  0  0
  180.1920  178.2700  138.7140 C   0  0  1  0  0  3  0  0  0  0  0  0
  188.3960  177.1340  143.7570 C   0  0  0  0  0  3  0  0  0  0  0  0
  188.2650  178.2390  143.0220 C   0  0  0  0  0  3  0  0  0  0  0  0
  191.2660  176.7710  146.9020 C   0  0  0  0  0  0  0  0  0  0  0  0
  190.7520  176.7490  144.5360 C   0  0  0  0  0  3  0  0  0  0  0  0
  189.9210  177.0230  147.1910 C   0  0  0  0  0  3  0  0  0  0  0  0
  191.6800  176.6330  145.5750 C   0  0  0  0  0  3  0  0  0  0  0  0
  189.4010  177.0050  144.8210 C   0  0  0  0  0  0  0  0  0  0  0  0
  188.9930  177.1400  146.1530 C   0  0  0  0  0  3  0  0  0  0  0  0
  192.2100  176.6530  147.9580 N   0  0  0  0  0  1  0  0  0  0  0  0
  1  6  1  1  0  0  0
  1 11  1  0  0  0  0
  2  5  1  0  0  0  0
  2  8  2  0  0  0  0
  3 12  1  0  0  0  0
  4 11  1  0  0  0  0
  4 22  1  0  0  0  0
  5 13  1  0  0  0  0
  6  3  1  0  0  0  0
  7 13  2  0  0  0  0
  7  9  1  0  0  0  0
  9  4  2  0  0  0  0
 10  2  1  0  0  0  0
 11 12  1  0  0  0  0
 13  1  1  0  0  0  0
 14 16  1  6  0  0  0
 14 15  1  0  0  0  0
 14 10  1  0  0  0  0
 14 17  1  0  0  0  0
 17 20  1  0  0  0  0
 19 20  1  0  0  0  0
 20 18  1  1  0  0  0
 21 27  1  0  0  0  0
 22 21  2  0  0  0  0
 23 25  1  0  0  0  0
 23 29  1  0  0  0  0
 24 27  2  0  0  0  0
 24 26  1  0  0  0  0
 26 23  2  0  0  0  0
 27 28  1  0  0  0  0
 28 25  2  0  0  0  0
M  END
>  <MODEL>
3

>  <REMARK>
 VINA RESULT:      -7.6      1.962      3.091
  Name = 
  5 active torsions:
  status: ('A' for Active; 'I' for Inactive)
    1  A    between atoms: C_2  and  N_19
    2  A    between atoms: C_2  and  C_25
    3  A    between atoms: C_9  and  C_20
    4  A    between atoms: C_10  and  C_13
    5  A    between atoms: C_23  and  C_25
                            x       y       z     vdW  Elec       q    Type
                         _______ _______ _______ _____ _____    ______ ____

>  <TORSDO>
F 5

$$$$
=
 OpenBabel10222415543D

 29 31  0  0  1  0  0  0  0  0999 V2000
  191.1480  176.6720  139.6110 C   0  0  1  0  0  3  0  0  0  0  0  0
  192.6560  175.7620  137.0530 C   0  0  0  0  0  0  0  0  0  0  0  0
  192.4440  177.4780  141.4760 C   0  0  0  0  0  2  0  0  0  0  0  0
  188.9460  177.7330  140.2630 C   0  0  0  0  0  0  0  0  0  0  0  0
  191.6090  176.7370  137.0790 N   0  0  0  0  0  2  0  0  0  0  0  0
  192.5280  177.1750  139.9870 C   0  0  0  0  0  2  0  0  0  0  0  0
  189.5940  177.5700  137.9500 N   0  0  0  0  0  0  0  0  0  0  0  0
  192.7680  174.9140  137.9790 O   0  0  0  0  0  0  0  0  0  0  0  0
  188.6360  177.8840  138.9720 C   0  0  0  0  0  3  0  0  0  0  0  0
  193.5510  175.7350  135.9370 N   0  0  0  0  0  2  0  0  0  0  0  0
  190.2590  177.2660  140.5970 N   0  0  0  0  0  0  0  0  0  0  0  0
  190.9770  177.7560  141.7580 C   0  0  0  0  0  2  0  0  0  0  0  0
  190.7570  177.0410  138.1930 C   0  0  0  0  0  0  0  0  0  0  0  0
  194.6390  174.7770  135.7720 C   0  0  1  0  0  0  0  0  0  0  0  0
  194.1100  173.5050  135.5400 O   0  0  0  0  0  1  0  0  0  0  0  0
  195.5090  175.1910  134.5940 C   0  0  0  0  0  1  0  0  0  0  0  0
  195.4710  174.7710  137.0550 C   0  0  0  0  0  2  0  0  0  0  0  0
  197.4940  173.4250  137.5360 C   0  0  0  0  0  1  0  0  0  0  0  0
  195.4340  172.9950  138.7270 N   0  0  0  0  0  1  0  0  0  0  0  0
  195.9840  173.3880  137.4410 C   0  0  1  0  0  3  0  0  0  0  0  0
  187.8330  177.3590  142.4340 C   0  0  0  0  0  3  0  0  0  0  0  0
  187.9930  178.0880  141.3300 C   0  0  0  0  0  3  0  0  0  0  0  0
  185.1060  178.3860  145.5590 C   0  0  0  0  0  0  0  0  0  0  0  0
  185.6210  178.2700  143.1950 C   0  0  0  0  0  3  0  0  0  0  0  0
  186.3580  177.8410  145.8580 C   0  0  0  0  0  3  0  0  0  0  0  0
  184.7380  178.6010  144.2280 C   0  0  0  0  0  3  0  0  0  0  0  0
  186.8780  177.7200  143.4910 C   0  0  0  0  0  0  0  0  0  0  0  0
  187.2410  177.5090  144.8260 C   0  0  0  0  0  3  0  0  0  0  0  0
  184.2080  178.7220  146.6080 N   0  0  0  0  0  1  0  0  0  0  0  0
  1  6  1  1  0  0  0
  1 11  1  0  0  0  0
  2  5  1  0  0  0  0
  2  8  2  0  0  0  0
  3 12  1  0  0  0  0
  4 11  1  0  0  0  0
  4 22  1  0  0  0  0
  5 13  1  0  0  0  0
  6  3  1  0  0  0  0
  7 13  2  0  0  0  0
  7  9  1  0  0  0  0
  9  4  2  0  0  0  0
 10  2  1  0  0  0  0
 11 12  1  0  0  0  0
 13  1  1  0  0  0  0
 14 16  1  6  0  0  0
 14 10  1  0  0  0  0
 14 17  1  0  0  0  0
 15 14  1  0  0  0  0
 17 20  1  0  0  0  0
 20 18  1  1  0  0  0
 20 19  1  0  0  0  0
 21 27  1  0  0  0  0
 22 21  2  0  0  0  0
 23 25  1  0  0  0  0
 23 29  1  0  0  0  0
 24 27  2  0  0  0  0
 24 26  1  0  0  0  0
 26 23  2  0  0  0  0
 27 28  1  0  0  0  0
 28 25  2  0  0  0  0
M  END
>  <MODEL>
4

>  <REMARK>
 VINA RESULT:      -7.6      7.065     10.587
  Name = 
  5 active torsions:
  status: ('A' for Active; 'I' for Inactive)
    1  A    between atoms: C_2  and  N_19
    2  A    between atoms: C_2  and  C_25
    3  A    between atoms: C_9  and  C_20
    4  A    between atoms: C_10  and  C_13
    5  A    between atoms: C_23  and  C_25
                            x       y       z     vdW  Elec       q    Type
                         _______ _______ _______ _____ _____    ______ ____

>  <TORSDO>
F 5

$$$$
=
 OpenBabel10222415543D

 29 31  0  0  1  0  0  0  0  0999 V2000
  185.2800  178.0880  143.6340 C   0  0  1  0  0  3  0  0  0  0  0  0
  187.8680  177.7920  145.3250 C   0  0  0  0  0  0  0  0  0  0  0  0
  183.3420  179.0740  144.6730 C   0  0  0  0  0  2  0  0  0  0  0  0
  184.5950  178.4830  141.2300 C   0  0  0  0  0  0  0  0  0  0  0  0
  187.7930  178.4520  144.0570 N   0  0  0  0  0  2  0  0  0  0  0  0
  184.8470  178.9090  144.8320 C   0  0  0  0  0  2  0  0  0  0  0  0
  186.9010  178.6610  141.8950 N   0  0  0  0  0  0  0  0  0  0  0  0
  187.0000  176.9400  145.6580 O   0  0  0  0  0  0  0  0  0  0  0  0
  185.8770  178.6370  140.8900 C   0  0  0  0  0  3  0  0  0  0  0  0
  188.9680  178.0810  146.1930 N   0  0  0  0  0  2  0  0  0  0  0  0
  184.2700  178.3560  142.6200 N   0  0  0  0  0  0  0  0  0  0  0  0
  183.0670  178.9340  143.1850 C   0  0  0  0  0  2  0  0  0  0  0  0
  186.6760  178.4410  143.1570 C   0  0  0  0  0  0  0  0  0  0  0  0
  189.1790  177.4580  147.4950 C   0  0  1  0  0  0  0  0  0  0  0  0
  189.8090  178.3660  148.3510 O   0  0  0  0  0  1  0  0  0  0  0  0
  187.8390  177.0440  148.0870 C   0  0  0  0  0  1  0  0  0  0  0  0
  190.0630  176.2260  147.3000 C   0  0  0  0  0  2  0  0  0  0  0  0
  192.4300  175.7420  147.8480 C   0  0  0  0  0  1  0  0  0  0  0  0
  191.7880  176.2580  145.5750 N   0  0  0  0  0  1  0  0  0  0  0  0
  191.5130  176.5640  146.9680 C   0  0  1  0  0  3  0  0  0  0  0  0
  183.3840  179.4730  139.3200 C   0  0  0  0  0  3  0  0  0  0  0  0
  183.5220  178.4980  140.2190 C   0  0  0  0  0  3  0  0  0  0  0  0
  180.2450  179.5640  136.4230 C   0  0  0  0  0  0  0  0  0  0  0  0
  182.0290  178.3540  137.5280 C   0  0  0  0  0  3  0  0  0  0  0  0
  180.5230  180.6880  137.2060 C   0  0  0  0  0  3  0  0  0  0  0  0
  180.9980  178.3980  136.5830 C   0  0  0  0  0  3  0  0  0  0  0  0
  182.3100  179.4800  138.3180 C   0  0  0  0  0  0  0  0  0  0  0  0
  181.5530  180.6450  138.1510 C   0  0  0  0  0  3  0  0  0  0  0  0
  179.1970  179.6080  135.4630 N   0  0  0  0  0  1  0  0  0  0  0  0
  1  6  1  1  0  0  0
  2  8  2  0  0  0  0
  2 10  1  0  0  0  0
  3  6  1  0  0  0  0
  4 11  1  0  0  0  0
  5  2  1  0  0  0  0
  7 13  2  0  0  0  0
  9  4  2  0  0  0  0
  9  7  1  0  0  0  0
 10 14  1  0  0  0  0
 11 12  1  0  0  0  0
 11  1  1  0  0  0  0
 12  3  1  0  0  0  0
 13  1  1  0  0  0  0
 13  5  1  0  0  0  0
 14 16  1  1  0  0  0
 14 15  1  0  0  0  0
 17 14  1  0  0  0  0
 19 20  1  0  0  0  0
 20 17  1  0  0  0  0
 20 18  1  1  0  0  0
 21 22  2  0  0  0  0
 22  4  1  0  0  0  0
 23 26  2  0  0  0  0
 23 25  1  0  0  0  0
 24 27  2  0  0  0  0
 25 28  2  0  0  0  0
 26 24  1  0  0  0  0
 27 21  1  0  0  0  0
 28 27  1  0  0  0  0
 29 23  1  0  0  0  0
M  END
>  <MODEL>
5

>  <REMARK>
 VINA RESULT:      -7.4      2.933     10.531
  Name = 
  5 active torsions:
  status: ('A' for Active; 'I' for Inactive)
    1  A    between atoms: C_2  and  N_19
    2  A    between atoms: C_2  and  C_25
    3  A    between atoms: C_9  and  C_20
    4  A    between atoms: C_10  and  C_13
    5  A    between atoms: C_23  and  C_25
                            x       y       z     vdW  Elec       q    Type
                         _______ _______ _______ _____ _____    ______ ____

>  <TORSDO>
F 5

$$$$
=
 OpenBabel10222415543D

 29 31  0  0  1  0  0  0  0  0999 V2000
  187.4730  178.4200  140.6450 C   0  0  1  0  0  3  0  0  0  0  0  0
  189.1620  177.6580  143.1370 C   0  0  0  0  0  0  0  0  0  0  0  0
  188.1100  177.5040  138.5090 C   0  0  0  0  0  2  0  0  0  0  0  0
  185.0810  178.9920  140.0520 C   0  0  0  0  0  0  0  0  0  0  0  0
  187.7440  177.4910  143.0310 N   0  0  0  0  0  2  0  0  0  0  0  0
  188.3150  177.3330  140.0070 C   0  0  0  0  0  2  0  0  0  0  0  0
  185.6430  178.1910  142.2510 N   0  0  0  0  0  0  0  0  0  0  0  0
  189.7680  178.4870  142.4060 O   0  0  0  0  0  0  0  0  0  0  0  0
  184.7080  178.7360  141.3090 C   0  0  0  0  0  3  0  0  0  0  0  0
  189.8770  176.9000  144.1180 N   0  0  0  0  0  2  0  0  0  0  0  0
  186.4290  178.6960  139.6690 N   0  0  0  0  0  0  0  0  0  0  0  0
  186.7610  178.1860  138.3530 C   0  0  0  0  0  2  0  0  0  0  0  0
  186.9040  178.0060  141.9880 C   0  0  0  0  0  0  0  0  0  0  0  0
  191.3140  176.9970  144.3500 C   0  0  1  0  0  0  0  0  0  0  0  0
  192.0010  176.5990  143.2000 O   0  0  0  0  0  1  0  0  0  0  0  0
  191.6810  178.4330  144.6930 C   0  0  0  0  0  1  0  0  0  0  0  0
  191.6740  176.0760  145.5170 C   0  0  0  0  0  2  0  0  0  0  0  0
  190.1400  176.6890  147.3640 C   0  0  0  0  0  1  0  0  0  0  0  0
  192.4300  176.0740  147.8360 N   0  0  0  0  0  1  0  0  0  0  0  0
  191.5730  176.7530  146.8800 C   0  0  1  0  0  3  0  0  0  0  0  0
  182.8450  179.7530  139.3340 C   0  0  0  0  0  3  0  0  0  0  0  0
  184.1260  179.5130  139.0560 C   0  0  0  0  0  3  0  0  0  0  0  0
  180.1060  181.3230  136.4540 C   0  0  0  0  0  0  0  0  0  0  0  0
  181.3320  179.4390  137.3550 C   0  0  0  0  0  3  0  0  0  0  0  0
  180.6720  182.1550  137.4260 C   0  0  0  0  0  3  0  0  0  0  0  0
  180.4370  179.9660  136.4190 C   0  0  0  0  0  3  0  0  0  0  0  0
  181.9010  180.2690  138.3330 C   0  0  0  0  0  0  0  0  0  0  0  0
  181.5660  181.6280  138.3630 C   0  0  0  0  0  3  0  0  0  0  0  0
  179.1960  181.8590  135.5030 N   0  0  0  0  0  1  0  0  0  0  0  0
  1  6  1  6  0  0  0
  1 13  1  0  0  0  0
  2 10  1  0  0  0  0
  3  6  1  0  0  0  0
  4  9  2  0  0  0  0
  5  2  1  0  0  0  0
  8  2  2  0  0  0  0
  9  7  1  0  0  0  0
 10 14  1  0  0  0  0
 11  4  1  0  0  0  0
 11  1  1  0  0  0  0
 12  3  1  0  0  0  0
 12 11  1  0  0  0  0
 13  7  2  0  0  0  0
 13  5  1  0  0  0  0
 14 16  1  1  0  0  0
 14 17  1  0  0  0  0
 15 14  1  0  0  0  0
 17 20  1  0  0  0  0
 20 18  1  1  0  0  0
 20 19  1  0  0  0  0
 22 21  2  0  0  0  0
 22  4  1  0  0  0  0
 23 25  1  0  0  0  0
 24 27  2  0  0  0  0
 25 28  2  0  0  0  0
 26 23  2  0  0  0  0
 26 24  1  0  0  0  0
 27 28  1  0  0  0  0
 27 21  1  0  0  0  0
 29 23  1  0  0  0  0
M  END
>  <MODEL>
6

>  <REMARK>
 VINA RESULT:      -7.3      3.509     10.837
  Name = 
  5 active torsions:
  status: ('A' for Active; 'I' for Inactive)
    1  A    between atoms: C_2  and  N_19
    2  A    between atoms: C_2  and  C_25
    3  A    between atoms: C_9  and  C_20
    4  A    between atoms: C_10  and  C_13
    5  A    between atoms: C_23  and  C_25
                            x       y       z     vdW  Elec       q    Type
                         _______ _______ _______ _____ _____    ______ ____

>  <TORSDO>
F 5

$$$$
=
 OpenBabel10222415543D

 29 31  0  0  1  0  0  0  0  0999 V2000
  183.0630  179.2770  140.4950 C   0  0  1  0  0  3  0  0  0  0  0  0
  182.0540  179.3840  137.5600 C   0  0  0  0  0  0  0  0  0  0  0  0
  181.5090  178.6180  142.2150 C   0  0  0  0  0  2  0  0  0  0  0  0
  185.1900  178.7850  141.7750 C   0  0  0  0  0  0  0  0  0  0  0  0
  183.1950  178.6430  138.0040 N   0  0  0  0  0  2  0  0  0  0  0  0
  181.7190  178.6090  140.7080 C   0  0  0  0  0  2  0  0  0  0  0  0
  185.0600  178.3790  139.4060 N   0  0  0  0  0  0  0  0  0  0  0  0
  181.6200  180.3590  138.2320 O   0  0  0  0  0  0  0  0  0  0  0  0
  185.7990  178.4500  140.6340 C   0  0  0  0  0  3  0  0  0  0  0  0
  181.4380  179.0310  136.3180 N   0  0  0  0  0  2  0  0  0  0  0  0
  183.7830  179.0570  141.7410 N   0  0  0  0  0  0  0  0  0  0  0  0
  182.8990  178.6750  142.8250 C   0  0  0  0  0  2  0  0  0  0  0  0
  183.8090  178.7210  139.2980 C   0  0  0  0  0  0  0  0  0  0  0  0
  180.2910  179.7220  135.7380 C   0  0  1  0  0  0  0  0  0  0  0  0
  179.8660  179.0420  134.5940 O   0  0  0  0  0  1  0  0  0  0  0  0
  179.1580  179.7700  136.7530 C   0  0  0  0  0  1  0  0  0  0  0  0
  180.7220  181.1430  135.3720 C   0  0  0  0  0  2  0  0  0  0  0  0
  180.4280  183.3570  136.4420 C   0  0  0  0  0  1  0  0  0  0  0  0
  179.0140  182.7020  134.5940 N   0  0  0  0  0  1  0  0  0  0  0  0
  179.7070  182.2080  135.7720 C   0  0  1  0  0  3  0  0  0  0  0  0
  186.3250  177.7260  143.6940 C   0  0  0  0  0  3  0  0  0  0  0  0
  185.9200  178.8240  143.0550 C   0  0  0  0  0  3  0  0  0  0  0  0
  188.3690  177.8890  147.4420 C   0  0  0  0  0  0  0  0  0  0  0  0
  188.4110  177.4460  145.0620 C   0  0  0  0  0  3  0  0  0  0  0  0
  187.0120  178.2150  147.3570 C   0  0  0  0  0  3  0  0  0  0  0  0
  189.0680  177.5040  146.2950 C   0  0  0  0  0  3  0  0  0  0  0  0
  187.0500  177.7750  144.9710 C   0  0  0  0  0  0  0  0  0  0  0  0
  186.3550  178.1580  146.1240 C   0  0  0  0  0  3  0  0  0  0  0  0
  189.0370  177.9490  148.6960 N   0  0  0  0  0  1  0  0  0  0  0  0
  1  6  1  1  0  0  0
  1 11  1  0  0  0  0
  2  5  1  0  0  0  0
  2  8  2  0  0  0  0
  3 12  1  0  0  0  0
  4 22  1  0  0  0  0
  5 13  1  0  0  0  0
  6  3  1  0  0  0  0
  7  9  1  0  0  0  0
  9  4  2  0  0  0  0
 10  2  1  0  0  0  0
 11  4  1  0  0  0  0
 11 12  1  0  0  0  0
 13  7  2  0  0  0  0
 13  1  1  0  0  0  0
 14 10  1  0  0  0  0
 14 16  1  1  0  0  0
 15 14  1  0  0  0  0
 17 14  1  0  0  0  0
 17 20  1  0  0  0  0
 19 20  1  0  0  0  0
 20 18  1  6  0  0  0
 21 27  1  0  0  0  0
 22 21  2  0  0  0  0
 23 29  1  0  0  0  0
 24 26  1  0  0  0  0
 25 23  1  0  0  0  0
 26 23  2  0  0  0  0
 27 24  2  0  0  0  0
 27 28  1  0  0  0  0
 28 25  2  0  0  0  0
M  END
>  <MODEL>
7

>  <REMARK>
 VINA RESULT:      -6.9      2.724      4.142
  Name = 
  5 active torsions:
  status: ('A' for Active; 'I' for Inactive)
    1  A    between atoms: C_2  and  N_19
    2  A    between atoms: C_2  and  C_25
    3  A    between atoms: C_9  and  C_20
    4  A    between atoms: C_10  and  C_13
    5  A    between atoms: C_23  and  C_25
                            x       y       z     vdW  Elec       q    Type
                         _______ _______ _______ _____ _____    ______ ____

>  <TORSDO>
F 5

$$$$
=
 OpenBabel10222415543D

 29 31  0  0  1  0  0  0  0  0999 V2000
  191.3950  176.4300  137.9050 C   0  0  1  0  0  3  0  0  0  0  0  0
  194.3400  176.0380  137.0050 C   0  0  0  0  0  0  0  0  0  0  0  0
  189.7540  174.8210  137.1800 C   0  0  0  0  0  2  0  0  0  0  0  0
  190.0970  177.3510  139.8730 C   0  0  0  0  0  0  0  0  0  0  0  0
  193.9160  176.1840  138.3630 N   0  0  0  0  0  2  0  0  0  0  0  0
  191.2540  175.0410  137.3150 C   0  0  0  0  0  2  0  0  0  0  0  0
  192.4890  177.1020  139.9870 N   0  0  0  0  0  0  0  0  0  0  0  0
  193.6220  176.4590  136.0580 O   0  0  0  0  0  0  0  0  0  0  0  0
  191.2420  177.5580  140.5310 C   0  0  0  0  0  3  0  0  0  0  0  0
  195.6150  175.4470  136.7360 N   0  0  0  0  0  2  0  0  0  0  0  0
  190.1480  176.6520  138.6230 N   0  0  0  0  0  0  0  0  0  0  0  0
  189.1090  175.7250  138.2170 C   0  0  0  0  0  2  0  0  0  0  0  0
  192.6050  176.5610  138.8090 C   0  0  0  0  0  0  0  0  0  0  0  0
  196.1790  175.2680  135.4020 C   0  0  1  0  0  0  0  0  0  0  0  0
  195.5250  174.2150  134.7560 O   0  0  0  0  0  1  0  0  0  0  0  0
  196.0050  176.5480  134.5980 C   0  0  0  0  0  1  0  0  0  0  0  0
  197.6670  174.9450  135.5510 C   0  0  0  0  0  2  0  0  0  0  0  0
  198.5640  172.8080  136.4250 C   0  0  0  0  0  1  0  0  0  0  0  0
  198.9740  174.8750  137.6090 N   0  0  0  0  0  1  0  0  0  0  0  0
  197.9950  174.1550  136.8130 C   0  0  1  0  0  3  0  0  0  0  0  0
  188.4750  177.6140  141.7150 C   0  0  0  0  0  3  0  0  0  0  0  0
  188.8000  177.7740  140.4320 C   0  0  0  0  0  3  0  0  0  0  0  0
  184.7260  178.8190  143.3730 C   0  0  0  0  0  0  0  0  0  0  0  0
  186.1930  178.6280  141.4560 C   0  0  0  0  0  3  0  0  0  0  0  0
  185.7050  178.2320  144.1800 C   0  0  0  0  0  3  0  0  0  0  0  0
  184.9700  179.0170  142.0120 C   0  0  0  0  0  3  0  0  0  0  0  0
  187.1780  178.0360  142.2620 C   0  0  0  0  0  0  0  0  0  0  0  0
  186.9280  177.8420  143.6250 C   0  0  0  0  0  3  0  0  0  0  0  0
  183.4820  179.2140  143.9380 N   0  0  0  0  0  1  0  0  0  0  0  0
  1  6  1  1  0  0  0
  1 11  1  0  0  0  0
  1 13  1  0  0  0  0
  2  5  1  0  0  0  0
  3  6  1  0  0  0  0
  3 12  1  0  0  0  0
  4 22  1  0  0  0  0
  4  9  2  0  0  0  0
  5 13  1  0  0  0  0
  7  9  1  0  0  0  0
  8  2  2  0  0  0  0
 10  2  1  0  0  0  0
 11  4  1  0  0  0  0
 12 11  1  0  0  0  0
 13  7  2  0  0  0  0
 14 16  1  6  0  0  0
 14 17  1  0  0  0  0
 14 10  1  0  0  0  0
 15 14  1  0  0  0  0
 17 20  1  0  0  0  0
 20 18  1  6  0  0  0
 20 19  1  0  0  0  0
 21 27  1  0  0  0  0
 22 21  2  0  0  0  0
 23 29  1  0  0  0  0
 23 25  1  0  0  0  0
 24 26  1  0  0  0  0
 24 27  2  0  0  0  0
 26 23  2  0  0  0  0
 27 28  1  0  0  0  0
 28 25  2  0  0  0  0
M  END
>  <MODEL>
8

>  <REMARK>
 VINA RESULT:      -6.9      8.013     11.784
  Name = 
  5 active torsions:
  status: ('A' for Active; 'I' for Inactive)
    1  A    between atoms: C_2  and  N_19
    2  A    between atoms: C_2  and  C_25
    3  A    between atoms: C_9  and  C_20
    4  A    between atoms: C_10  and  C_13
    5  A    between atoms: C_23  and  C_25
                            x       y       z     vdW  Elec       q    Type
                         _______ _______ _______ _____ _____    ______ ____

>  <TORSDO>
F 5

$$$$
=
 OpenBabel10222415543D

 29 31  0  0  1  0  0  0  0  0999 V2000
  189.7340  176.9300  140.1720 C   0  0  1  0  0  3  0  0  0  0  0  0
  191.7740  176.2610  137.9280 C   0  0  0  0  0  0  0  0  0  0  0  0
  190.5520  177.1690  142.4260 C   0  0  0  0  0  2  0  0  0  0  0  0
  187.5670  178.2010  140.4760 C   0  0  0  0  0  0  0  0  0  0  0  0
  190.8730  177.3720  137.9060 N   0  0  0  0  0  2  0  0  0  0  0  0
  191.0050  177.1270  140.9740 C   0  0  0  0  0  2  0  0  0  0  0  0
  188.8000  178.3510  138.4140 N   0  0  0  0  0  0  0  0  0  0  0  0
  191.5360  175.2540  138.6490 O   0  0  0  0  0  0  0  0  0  0  0  0
  187.6400  178.6280  139.2130 C   0  0  0  0  0  3  0  0  0  0  0  0
  192.9310  176.2890  137.0870 N   0  0  0  0  0  2  0  0  0  0  0  0
  188.6800  177.4750  141.0140 N   0  0  0  0  0  0  0  0  0  0  0  0
  189.1030  177.6260  142.3930 C   0  0  0  0  0  2  0  0  0  0  0  0
  189.7880  177.6060  138.8150 C   0  0  0  0  0  0  0  0  0  0  0  0
  193.9110  175.2120  136.9920 C   0  0  1  0  0  0  0  0  0  0  0  0
  193.3040  174.0730  136.4580 O   0  0  0  0  0  1  0  0  0  0  0  0
  195.0610  175.6470  136.0940 C   0  0  0  0  0  1  0  0  0  0  0  0
  194.4340  174.9150  138.3980 C   0  0  0  0  0  2  0  0  0  0  0  0
  196.6300  174.5030  139.4680 C   0  0  0  0  0  1  0  0  0  0  0  0
  195.2740  172.6470  138.7180 N   0  0  0  0  0  1  0  0  0  0  0  0
  195.6630  174.0120  138.4120 C   0  0  1  0  0  3  0  0  0  0  0  0
  185.1530  178.1980  140.9890 C   0  0  0  0  0  3  0  0  0  0  0  0
  186.4040  178.5090  141.3280 C   0  0  0  0  0  3  0  0  0  0  0  0
  181.7550  179.1090  143.4140 C   0  0  0  0  0  0  0  0  0  0  0  0
  184.1350  178.7050  143.2270 C   0  0  0  0  0  3  0  0  0  0  0  0
  181.6140  178.9150  142.0360 C   0  0  0  0  0  3  0  0  0  0  0  0
  183.0140  179.0030  144.0090 C   0  0  0  0  0  3  0  0  0  0  0  0
  183.9990  178.5120  141.8430 C   0  0  0  0  0  0  0  0  0  0  0  0
  182.7350  178.6180  141.2540 C   0  0  0  0  0  3  0  0  0  0  0  0
  180.6150  179.4120  144.2090 N   0  0  0  0  0  1  0  0  0  0  0  0
  1  6  1  1  0  0  0
  1 11  1  0  0  0  0
  2  8  2  0  0  0  0
  4 11  1  0  0  0  0
  4 22  1  0  0  0  0
  5  2  1  0  0  0  0
  5 13  1  0  0  0  0
  6  3  1  0  0  0  0
  7 13  2  0  0  0  0
  7  9  1  0  0  0  0
  9  4  2  0  0  0  0
 10  2  1  0  0  0  0
 11 12  1  0  0  0  0
 12  3  1  0  0  0  0
 13  1  1  0  0  0  0
 14 16  1  6  0  0  0
 14 10  1  0  0  0  0
 14 17  1  0  0  0  0
 15 14  1  0  0  0  0
 17 20  1  0  0  0  0
 20 19  1  0  0  0  0
 20 18  1  1  0  0  0
 21 22  2  0  0  0  0
 21 27  1  0  0  0  0
 23 26  1  0  0  0  0
 23 29  1  0  0  0  0
 24 26  2  0  0  0  0
 25 23  2  0  0  0  0
 27 24  1  0  0  0  0
 28 27  2  0  0  0  0
 28 25  1  0  0  0  0
M  END
>  <MODEL>
9

>  <REMARK>
 VINA RESULT:      -6.8      6.081     10.538
  Name = 
  5 active torsions:
  status: ('A' for Active; 'I' for Inactive)
    1  A    between atoms: C_2  and  N_19
    2  A    between atoms: C_2  and  C_25
    3  A    between atoms: C_9  and  C_20
    4  A    between atoms: C_10  and  C_13
    5  A    between atoms: C_23  and  C_25
                            x       y       z     vdW  Elec       q    Type
                         _______ _______ _______ _____ _____    ______ ____

>  <TORSDO>
F 5

$$$$
