=
 OpenBabel10222418563D

 43 48  0  0  1  0  0  0  0  0999 V2000
  186.2280  178.2420  144.2580 C   0  0  0  0  0  0  0  0  0  0  0  0
  184.3810  179.6200  139.4320 O   0  0  0  0  0  0  0  0  0  0  0  0
  184.5540  178.6530  142.5030 C   0  0  0  0  0  0  0  0  0  0  0  0
  186.9210  178.0440  141.7220 C   0  0  2  0  0  3  0  0  0  0  0  0
  186.3960  178.2580  147.4520 N   0  0  0  0  0  0  0  0  0  0  0  0
  186.5110  178.6620  140.4520 N   0  0  0  0  0  0  0  0  0  0  0  0
  187.7210  177.8380  147.0280 C   0  0  0  0  0  2  0  0  0  0  0  0
  185.3800  178.5980  146.7150 C   0  0  0  0  0  3  0  0  0  0  0  0
  184.1010  178.4240  141.0870 C   0  0  1  0  0  3  0  0  0  0  0  0
  185.9050  178.3520  142.8680 C   0  0  0  0  0  0  0  0  0  0  0  0
  183.3650  179.4610  140.4130 C   0  0  2  0  0  3  0  0  0  0  0  0
  185.2490  178.8250  140.2630 C   0  0  0  0  0  0  0  0  0  0  0  0
  183.6110  178.9620  143.4740 C   0  0  0  0  0  3  0  0  0  0  0  0
  187.6030  177.7700  144.6330 C   0  0  0  0  0  2  0  0  0  0  0  0
  183.9670  178.9670  144.8140 C   0  0  0  0  0  3  0  0  0  0  0  0
  187.6400  176.8960  145.8580 C   0  0  0  0  0  2  0  0  0  0  0  0
  185.2490  178.6120  145.2340 C   0  0  0  0  0  0  0  0  0  0  0  0
  188.3290  178.5440  142.0160 C   0  0  0  0  0  2  0  0  0  0  0  0
  189.1020  178.5010  140.8540 O   0  0  0  0  0  0  0  0  0  0  0  0
  189.8200  177.3030  140.9460 C   0  0  1  0  0  3  0  0  0  0  0  0
  191.0150  177.2800  139.9910 C   0  0  0  0  0  2  0  0  0  0  0  0
  190.8740  176.2520  138.9100 C   0  0  0  0  0  3  0  0  0  0  0  0
  190.3150  176.5240  137.7730 N   0  0  0  0  0  0  0  0  0  0  0  0
  188.4140  178.0490  137.4260 C   0  0  0  0  0  0  0  0  0  0  0  0
  187.5920  177.1270  137.6730 O   0  0  0  0  0  1  0  0  0  0  0  0
  187.9530  179.3170  137.0950 O   0  0  0  0  0  0  0  0  0  0  0  0
  189.8170  177.8010  137.4830 N   0  0  0  0  0  2  0  0  0  0  0  0
  190.1950  176.9800  142.3930 C   0  0  0  0  0  2  0  0  0  0  0  0
  191.5050  177.6350  142.8140 C   0  0  0  0  0  2  0  0  0  0  0  0
  191.4700  177.9970  144.2870 C   0  0  0  0  0  2  0  0  0  0  0  0
  191.2850  176.7510  145.1340 C   0  0  0  0  0  2  0  0  0  0  0  0
  192.0620  176.8540  146.2870 O   0  0  0  0  0  0  0  0  0  0  0  0
  191.1650  176.6400  147.3340 C   0  0  0  0  0  1  0  0  0  0  0  0
  182.0760  178.9340  139.7810 C   0  0  0  0  0  2  0  0  0  0  0  0
  181.6660  177.7320  140.3730 O   0  0  0  0  0  0  0  0  0  0  0  0
  180.2720  177.7270  140.2550 C   0  0  2  0  0  3  0  0  0  0  0  0
  180.3300  178.4580  142.6320 C   0  0  1  0  0  3  0  0  0  0  0  0
  179.6340  177.5610  141.6260 C   0  0  1  0  0  3  0  0  0  0  0  0
  178.9970  178.8690  142.0620 C   0  0  1  0  0  3  0  0  0  0  0  0
  179.2810  179.0760  143.5380 C   0  0  0  0  0  2  0  0  0  0  0  0
  179.8210  176.6080  139.3190 C   0  0  0  0  0  3  0  0  0  0  0  0
  180.5030  176.6970  138.1050 O   0  0  0  0  0  1  0  0  0  0  0  0
  180.0550  175.3570  139.8950 O   0  0  0  0  0  1  0  0  0  0  0  0
  1 14  1  0  0  0  0
  1 17  1  0  0  0  0
  2 12  1  0  0  0  0
  2 11  1  0  0  0  0
  3 10  1  0  0  0  0
  3 13  2  0  0  0  0
  4 18  1  1  0  0  0
  4 10  1  0  0  0  0
  6  4  1  0  0  0  0
  7  5  1  0  0  0  0
  8  5  2  0  0  0  0
  9 12  1  6  0  0  0
  9  3  1  0  0  0  0
 10  1  2  0  0  0  0
 11 34  1  6  0  0  0
 11  9  1  0  0  0  0
 12  6  2  0  0  0  0
 13 15  1  0  0  0  0
 14 16  1  0  0  0  0
 15 17  2  0  0  0  0
 16  7  1  0  0  0  0
 17  8  1  0  0  0  0
 19 20  1  0  0  0  0
 19 18  1  0  0  0  0
 20 21  1  6  0  0  0
 20 28  1  0  0  0  0
 22 21  1  0  0  0  0
 23 22  2  0  0  0  0
 24 27  1  0  0  0  0
 24 25  1  0  0  0  0
 26 24  2  0  0  0  0
 27 23  1  0  0  0  0
 28 29  1  0  0  0  0
 29 30  1  0  0  0  0
 30 31  1  0  0  0  0
 31 32  1  0  0  0  0
 32 33  1  0  0  0  0
 34 35  1  0  0  0  0
 36 41  1  6  0  0  0
 36 35  1  0  0  0  0
 37 40  1  1  0  0  0
 38 36  1  6  0  0  0
 38 39  1  0  0  0  0
 38 37  1  0  0  0  0
 39 37  1  0  0  0  0
 39 40  1  1  0  0  0
 41 43  1  0  0  0  0
 42 41  1  0  0  0  0
M  END
>  <MODEL>
1

>  <REMARK>
 VINA RESULT:      -8.2      0.000      0.000
  Name = 
  16 active torsions:
  status: ('A' for Active; 'I' for Inactive)
    1  A    between atoms: C_1  and  C_11
    2  A    between atoms: C_1  and  O_30
    3  A    between atoms: O_2  and  C_3
    4  A    between atoms: O_2  and  C_4
    5  A    between atoms: C_3  and  C_27
    6  A    between atoms: C_4  and  C_15
    7  A    between atoms: C_4  and  C_23
    8  A    between atoms: C_6  and  C_25
    9  A    between atoms: C_6  and  C_43
   10  A    between atoms: C_7  and  C_20
   11  A    between atoms: C_7  and  C_25
   12  A    between atoms: O_17  and  C_22
   13  A    between atoms: C_22  and  C_39
   14  A    between atoms: C_25  and  O_30
   15  A    between atoms: N_37  and  N_42
   16  A    between atoms: C_39  and  C_43
                            x       y       z     vdW  Elec       q    Type
                         _______ _______ _______ _____ _____    ______ ____

>  <TORSDO>
F 16

$$$$
=
 OpenBabel10222418563D

 43 48  0  0  1  0  0  0  0  0999 V2000
  186.0920  178.2650  144.2190 C   0  0  0  0  0  0  0  0  0  0  0  0
  183.9290  179.6410  139.5260 O   0  0  0  0  0  0  0  0  0  0  0  0
  184.3080  178.6400  142.5680 C   0  0  0  0  0  0  0  0  0  0  0  0
  186.6460  178.1240  141.6450 C   0  0  2  0  0  3  0  0  0  0  0  0
  186.4420  178.2450  147.3990 N   0  0  0  0  0  0  0  0  0  0  0  0
  186.1440  178.7440  140.4100 N   0  0  0  0  0  0  0  0  0  0  0  0
  187.7540  177.8770  146.8940 C   0  0  0  0  0  2  0  0  0  0  0  0
  185.3740  178.5600  146.7260 C   0  0  0  0  0  3  0  0  0  0  0  0
  183.7830  178.4150  141.1760 C   0  0  1  0  0  3  0  0  0  0  0  0
  185.6870  178.3820  142.8520 C   0  0  0  0  0  0  0  0  0  0  0  0
  182.9750  179.4340  140.5610 C   0  0  2  0  0  3  0  0  0  0  0  0
  184.8690  178.8660  140.2950 C   0  0  0  0  0  0  0  0  0  0  0  0
  183.4130  178.9050  143.5950 C   0  0  0  0  0  3  0  0  0  0  0  0
  187.5020  177.8350  144.5090 C   0  0  0  0  0  2  0  0  0  0  0  0
  183.8440  178.9050  144.9130 C   0  0  0  0  0  3  0  0  0  0  0  0
  187.6380  176.9480  145.7170 C   0  0  0  0  0  2  0  0  0  0  0  0
  185.1590  178.5880  145.2540 C   0  0  0  0  0  0  0  0  0  0  0  0
  188.0510  178.6680  141.8670 C   0  0  0  0  0  2  0  0  0  0  0  0
  188.7950  178.5600  140.6900 O   0  0  0  0  0  0  0  0  0  0  0  0
  189.6320  177.4570  140.8960 C   0  0  1  0  0  3  0  0  0  0  0  0
  190.7220  177.3620  139.8260 C   0  0  0  0  0  2  0  0  0  0  0  0
  190.4630  176.2750  138.8290 C   0  0  0  0  0  3  0  0  0  0  0  0
  189.8810  176.5080  137.6950 N   0  0  0  0  0  0  0  0  0  0  0  0
  188.0860  178.1490  137.3090 C   0  0  0  0  0  0  0  0  0  0  0  0
  187.2090  177.3150  137.6570 O   0  0  0  0  0  1  0  0  0  0  0  0
  187.7080  179.4220  136.9020 O   0  0  0  0  0  0  0  0  0  0  0  0
  189.4680  177.7960  137.3300 N   0  0  0  0  0  2  0  0  0  0  0  0
  190.1810  177.4240  142.3230 C   0  0  0  0  0  2  0  0  0  0  0  0
  190.3550  176.0030  142.8460 C   0  0  0  0  0  2  0  0  0  0  0  0
  191.4320  175.9580  143.9140 C   0  0  0  0  0  2  0  0  0  0  0  0
  191.5320  177.2970  144.6230 C   0  0  0  0  0  2  0  0  0  0  0  0
  191.1170  177.1530  145.9460 O   0  0  0  0  0  0  0  0  0  0  0  0
  191.9330  176.1470  146.4620 C   0  0  0  0  0  1  0  0  0  0  0  0
  181.6710  178.8710  139.9950 C   0  0  0  0  0  2  0  0  0  0  0  0
  181.8300  178.4260  138.6780 O   0  0  0  0  0  0  0  0  0  0  0  0
  181.4480  177.0800  138.7010 C   0  0  2  0  0  3  0  0  0  0  0  0
  183.6380  176.5720  137.6340 C   0  0  1  0  0  3  0  0  0  0  0  0
  182.1420  176.3230  137.5790 C   0  0  1  0  0  3  0  0  0  0  0  0
  183.0760  175.2760  138.1610 C   0  0  1  0  0  3  0  0  0  0  0  0
  184.3570  175.2660  137.3480 C   0  0  0  0  0  2  0  0  0  0  0  0
  179.9320  176.9550  138.5690 C   0  0  0  0  0  3  0  0  0  0  0  0
  179.6050  176.3850  137.3390 O   0  0  0  0  0  1  0  0  0  0  0  0
  179.4090  176.1710  139.6010 O   0  0  0  0  0  1  0  0  0  0  0  0
  1 14  1  0  0  0  0
  1 17  1  0  0  0  0
  2 12  1  0  0  0  0
  2 11  1  0  0  0  0
  3 10  1  0  0  0  0
  3 13  2  0  0  0  0
  4 18  1  1  0  0  0
  4 10  1  0  0  0  0
  6  4  1  0  0  0  0
  7  5  1  0  0  0  0
  8  5  2  0  0  0  0
  9 12  1  6  0  0  0
  9  3  1  0  0  0  0
 10  1  2  0  0  0  0
 11 34  1  6  0  0  0
 11  9  1  0  0  0  0
 12  6  2  0  0  0  0
 13 15  1  0  0  0  0
 14 16  1  0  0  0  0
 15 17  2  0  0  0  0
 16  7  1  0  0  0  0
 17  8  1  0  0  0  0
 19 20  1  0  0  0  0
 19 18  1  0  0  0  0
 20 21  1  6  0  0  0
 20 28  1  0  0  0  0
 22 21  1  0  0  0  0
 23 22  2  0  0  0  0
 24 27  1  0  0  0  0
 24 25  1  0  0  0  0
 26 24  2  0  0  0  0
 27 23  1  0  0  0  0
 28 29  1  0  0  0  0
 29 30  1  0  0  0  0
 30 31  1  0  0  0  0
 31 32  1  0  0  0  0
 32 33  1  0  0  0  0
 35 36  1  0  0  0  0
 35 34  1  0  0  0  0
 36 41  1  6  0  0  0
 37 40  1  6  0  0  0
 37 39  1  0  0  0  0
 38 37  1  0  0  0  0
 38 39  1  0  0  0  0
 38 36  1  1  0  0  0
 39 40  1  6  0  0  0
 41 43  1  0  0  0  0
 42 41  1  0  0  0  0
M  END
>  <MODEL>
2

>  <REMARK>
 VINA RESULT:      -8.2      1.333      2.223
  Name = 
  16 active torsions:
  status: ('A' for Active; 'I' for Inactive)
    1  A    between atoms: C_1  and  C_11
    2  A    between atoms: C_1  and  O_30
    3  A    between atoms: O_2  and  C_3
    4  A    between atoms: O_2  and  C_4
    5  A    between atoms: C_3  and  C_27
    6  A    between atoms: C_4  and  C_15
    7  A    between atoms: C_4  and  C_23
    8  A    between atoms: C_6  and  C_25
    9  A    between atoms: C_6  and  C_43
   10  A    between atoms: C_7  and  C_20
   11  A    between atoms: C_7  and  C_25
   12  A    between atoms: O_17  and  C_22
   13  A    between atoms: C_22  and  C_39
   14  A    between atoms: C_25  and  O_30
   15  A    between atoms: N_37  and  N_42
   16  A    between atoms: C_39  and  C_43
                            x       y       z     vdW  Elec       q    Type
                         _______ _______ _______ _____ _____    ______ ____

>  <TORSDO>
F 16

$$$$
=
 OpenBabel10222418563D

 43 48  0  0  1  0  0  0  0  0999 V2000
  186.6400  178.1620  144.6960 C   0  0  0  0  0  0  0  0  0  0  0  0
  184.3230  179.4110  140.0410 O   0  0  0  0  0  0  0  0  0  0  0  0
  184.8020  178.5120  143.1010 C   0  0  0  0  0  0  0  0  0  0  0  0
  187.0930  177.9190  142.1100 C   0  0  2  0  0  3  0  0  0  0  0  0
  187.1110  178.2480  147.8590 N   0  0  0  0  0  0  0  0  0  0  0  0
  186.5550  178.5050  140.8730 N   0  0  0  0  0  0  0  0  0  0  0  0
  188.3960  177.8370  147.3190 C   0  0  0  0  0  2  0  0  0  0  0  0
  186.0240  178.5580  147.2150 C   0  0  0  0  0  3  0  0  0  0  0  0
  184.2200  178.2480  141.7380 C   0  0  1  0  0  3  0  0  0  0  0  0
  186.1850  178.2370  143.3410 C   0  0  0  0  0  0  0  0  0  0  0  0
  183.4070  179.2590  141.1170 C   0  0  2  0  0  3  0  0  0  0  0  0
  185.2780  178.6460  140.8020 C   0  0  0  0  0  0  0  0  0  0  0  0
  183.9500  178.8290  144.1510 C   0  0  0  0  0  3  0  0  0  0  0  0
  188.0520  177.7160  144.9480 C   0  0  0  0  0  2  0  0  0  0  0  0
  184.4310  178.8680  145.4500 C   0  0  0  0  0  3  0  0  0  0  0  0
  188.2190  176.8690  146.1810 C   0  0  0  0  0  2  0  0  0  0  0  0
  185.7530  178.5390  145.7530 C   0  0  0  0  0  0  0  0  0  0  0  0
  188.5140  178.4440  142.2590 C   0  0  0  0  0  2  0  0  0  0  0  0
  189.2100  178.2830  141.0590 O   0  0  0  0  0  0  0  0  0  0  0  0
  190.0110  177.1520  141.2590 C   0  0  1  0  0  3  0  0  0  0  0  0
  190.9260  176.8830  140.0620 C   0  0  0  0  0  2  0  0  0  0  0  0
  192.3230  177.3790  140.2780 C   0  0  0  0  0  3  0  0  0  0  0  0
  193.2670  177.1670  139.4170 N   0  0  0  0  0  0  0  0  0  0  0  0
  193.9190  175.4370  137.7900 C   0  0  0  0  0  0  0  0  0  0  0  0
  194.9130  175.1100  138.4930 O   0  0  0  0  0  1  0  0  0  0  0  0
  193.6830  174.7920  136.5830 O   0  0  0  0  0  0  0  0  0  0  0  0
  193.0350  176.4680  138.2250 N   0  0  0  0  0  2  0  0  0  0  0  0
  190.7600  177.2190  142.5900 C   0  0  0  0  0  2  0  0  0  0  0  0
  190.8450  175.8620  143.2790 C   0  0  0  0  0  2  0  0  0  0  0  0
  191.7360  175.9420  144.5040 C   0  0  0  0  0  2  0  0  0  0  0  0
  191.5910  177.2960  145.1770 C   0  0  0  0  0  2  0  0  0  0  0  0
  191.8200  177.1600  146.5460 O   0  0  0  0  0  0  0  0  0  0  0  0
  192.1140  175.8080  146.7190 C   0  0  0  0  0  1  0  0  0  0  0  0
  182.0720  178.7010  140.6220 C   0  0  0  0  0  2  0  0  0  0  0  0
  181.6710  179.3100  139.4270 O   0  0  0  0  0  0  0  0  0  0  0  0
  180.4270  179.8850  139.7130 C   0  0  2  0  0  3  0  0  0  0  0  0
  181.4800  181.6600  138.3240 C   0  0  1  0  0  3  0  0  0  0  0  0
  180.4600  181.3750  139.4100 C   0  0  1  0  0  3  0  0  0  0  0  0
  180.0130  181.6230  137.9800 C   0  0  1  0  0  3  0  0  0  0  0  0
  180.9020  182.6940  137.3750 C   0  0  0  0  0  2  0  0  0  0  0  0
  180.0530  179.6460  141.1740 C   0  0  0  0  0  3  0  0  0  0  0  0
  179.7880  180.8620  141.8030 O   0  0  0  0  0  1  0  0  0  0  0  0
  178.9330  178.8170  141.2690 O   0  0  0  0  0  1  0  0  0  0  0  0
  1 14  1  0  0  0  0
  1 17  1  0  0  0  0
  2 12  1  0  0  0  0
  2 11  1  0  0  0  0
  3 10  1  0  0  0  0
  3 13  2  0  0  0  0
  4 18  1  1  0  0  0
  4 10  1  0  0  0  0
  6  4  1  0  0  0  0
  7  5  1  0  0  0  0
  8  5  2  0  0  0  0
  9 12  1  6  0  0  0
  9  3  1  0  0  0  0
 10  1  2  0  0  0  0
 11 34  1  6  0  0  0
 11  9  1  0  0  0  0
 12  6  2  0  0  0  0
 13 15  1  0  0  0  0
 14 16  1  0  0  0  0
 15 17  2  0  0  0  0
 16  7  1  0  0  0  0
 17  8  1  0  0  0  0
 19 20  1  0  0  0  0
 19 18  1  0  0  0  0
 20 21  1  6  0  0  0
 20 28  1  0  0  0  0
 21 22  1  0  0  0  0
 23 22  2  0  0  0  0
 24 27  1  0  0  0  0
 24 25  1  0  0  0  0
 26 24  2  0  0  0  0
 27 23  1  0  0  0  0
 28 29  1  0  0  0  0
 29 30  1  0  0  0  0
 30 31  1  0  0  0  0
 31 32  1  0  0  0  0
 32 33  1  0  0  0  0
 35 34  1  0  0  0  0
 36 35  1  1  0  0  0
 36 41  1  0  0  0  0
 37 40  1  1  0  0  0
 37 38  1  0  0  0  0
 38 36  1  6  0  0  0
 39 40  1  1  0  0  0
 39 37  1  0  0  0  0
 39 38  1  0  0  0  0
 41 43  1  0  0  0  0
 41 42  1  0  0  0  0
M  END
>  <MODEL>
3

>  <REMARK>
 VINA RESULT:      -8.2      2.320      3.035
  Name = 
  16 active torsions:
  status: ('A' for Active; 'I' for Inactive)
    1  A    between atoms: C_1  and  C_11
    2  A    between atoms: C_1  and  O_30
    3  A    between atoms: O_2  and  C_3
    4  A    between atoms: O_2  and  C_4
    5  A    between atoms: C_3  and  C_27
    6  A    between atoms: C_4  and  C_15
    7  A    between atoms: C_4  and  C_23
    8  A    between atoms: C_6  and  C_25
    9  A    between atoms: C_6  and  C_43
   10  A    between atoms: C_7  and  C_20
   11  A    between atoms: C_7  and  C_25
   12  A    between atoms: O_17  and  C_22
   13  A    between atoms: C_22  and  C_39
   14  A    between atoms: C_25  and  O_30
   15  A    between atoms: N_37  and  N_42
   16  A    between atoms: C_39  and  C_43
                            x       y       z     vdW  Elec       q    Type
                         _______ _______ _______ _____ _____    ______ ____

>  <TORSDO>
F 16

$$$$
=
 OpenBabel10222418563D

 43 48  0  0  1  0  0  0  0  0999 V2000
  189.0510  177.2890  144.9580 C   0  0  0  0  0  0  0  0  0  0  0  0
  184.7800  179.4400  142.5650 O   0  0  0  0  0  0  0  0  0  0  0  0
  186.7100  177.9980  144.7090 C   0  0  0  0  0  0  0  0  0  0  0  0
  187.9960  177.4820  142.5500 C   0  0  2  0  0  3  0  0  0  0  0  0
  191.1640  176.7990  147.3100 N   0  0  0  0  0  0  0  0  0  0  0  0
  186.9600  178.2990  141.9010 N   0  0  0  0  0  0  0  0  0  0  0  0
  191.8830  176.4290  146.1030 C   0  0  0  0  0  2  0  0  0  0  0  0
  189.9550  177.2670  147.4220 C   0  0  0  0  0  3  0  0  0  0  0  0
  185.4540  178.0030  143.8790 C   0  0  1  0  0  3  0  0  0  0  0  0
  187.9510  177.6220  144.1050 C   0  0  0  0  0  0  0  0  0  0  0  0
  184.5810  179.1450  143.9410 C   0  0  2  0  0  3  0  0  0  0  0  0
  185.8810  178.5100  142.5690 C   0  0  0  0  0  0  0  0  0  0  0  0
  186.6140  178.1660  146.0840 C   0  0  0  0  0  3  0  0  0  0  0  0
  190.2990  176.7410  144.3280 C   0  0  0  0  0  2  0  0  0  0  0  0
  187.7210  177.9550  146.8910 C   0  0  0  0  0  3  0  0  0  0  0  0
  190.9900  175.6850  145.1480 C   0  0  0  0  0  2  0  0  0  0  0  0
  188.9370  177.5170  146.3660 C   0  0  0  0  0  0  0  0  0  0  0  0
  189.3280  177.9050  141.9460 C   0  0  0  0  0  2  0  0  0  0  0  0
  189.7550  176.9540  141.0180 O   0  0  0  0  0  0  0  0  0  0  0  0
  190.3170  177.6990  139.9740 C   0  0  1  0  0  3  0  0  0  0  0  0
  191.2660  176.8570  139.1200 C   0  0  0  0  0  2  0  0  0  0  0  0
  192.7080  177.0950  139.4480 C   0  0  0  0  0  3  0  0  0  0  0  0
  193.6670  176.5670  138.7540 N   0  0  0  0  0  0  0  0  0  0  0  0
  193.9380  176.0600  136.3600 C   0  0  0  0  0  0  0  0  0  0  0  0
  194.6780  177.0670  136.2010 O   0  0  0  0  0  1  0  0  0  0  0  0
  193.6310  175.2480  135.2750 O   0  0  0  0  0  0  0  0  0  0  0  0
  193.4110  175.7470  137.6480 N   0  0  0  0  0  2  0  0  0  0  0  0
  189.2460  178.4220  139.1560 C   0  0  0  0  0  2  0  0  0  0  0  0
  189.3150  178.0760  137.6740 C   0  0  0  0  0  2  0  0  0  0  0  0
  188.0810  178.5800  136.9510 C   0  0  0  0  0  2  0  0  0  0  0  0
  186.8270  177.9720  137.5560 C   0  0  0  0  0  2  0  0  0  0  0  0
  186.0190  178.9860  138.0650 O   0  0  0  0  0  0  0  0  0  0  0  0
  185.0040  178.3160  138.7480 C   0  0  0  0  0  1  0  0  0  0  0  0
  183.1290  178.7450  144.2080 C   0  0  0  0  0  2  0  0  0  0  0  0
  182.2340  179.5480  143.4910 O   0  0  0  0  0  0  0  0  0  0  0  0
  181.2070  178.6820  143.0960 C   0  0  2  0  0  3  0  0  0  0  0  0
  181.8320  178.9090  140.6980 C   0  0  1  0  0  3  0  0  0  0  0  0
  180.7110  179.0630  141.7090 C   0  0  1  0  0  3  0  0  0  0  0  0
  180.7600  177.8540  140.7920 C   0  0  1  0  0  3  0  0  0  0  0  0
  181.2610  178.3000  139.4310 C   0  0  0  0  0  2  0  0  0  0  0  0
  180.0590  178.7230  144.1020 C   0  0  0  0  0  3  0  0  0  0  0  0
  179.0040  179.4780  143.5910 O   0  0  0  0  0  1  0  0  0  0  0  0
  179.6110  177.4330  144.3950 O   0  0  0  0  0  1  0  0  0  0  0  0
  1 17  1  0  0  0  0
  2 12  1  0  0  0  0
  2 11  1  0  0  0  0
  3 13  2  0  0  0  0
  4 18  1  6  0  0  0
  4 10  1  0  0  0  0
  5  8  2  0  0  0  0
  6  4  1  0  0  0  0
  6 12  2  0  0  0  0
  7  5  1  0  0  0  0
  9 12  1  6  0  0  0
  9 11  1  0  0  0  0
  9  3  1  0  0  0  0
 10  3  1  0  0  0  0
 10  1  2  0  0  0  0
 11 34  1  6  0  0  0
 13 15  1  0  0  0  0
 14  1  1  0  0  0  0
 14 16  1  0  0  0  0
 16  7  1  0  0  0  0
 17 15  2  0  0  0  0
 17  8  1  0  0  0  0
 19 18  1  0  0  0  0
 20 21  1  6  0  0  0
 20 19  1  0  0  0  0
 21 22  1  0  0  0  0
 23 22  2  0  0  0  0
 24 27  1  0  0  0  0
 25 24  1  0  0  0  0
 26 24  2  0  0  0  0
 27 23  1  0  0  0  0
 28 20  1  0  0  0  0
 29 28  1  0  0  0  0
 30 31  1  0  0  0  0
 30 29  1  0  0  0  0
 31 32  1  0  0  0  0
 32 33  1  0  0  0  0
 35 34  1  0  0  0  0
 36 35  1  1  0  0  0
 36 41  1  0  0  0  0
 37 40  1  6  0  0  0
 37 39  1  0  0  0  0
 37 38  1  0  0  0  0
 38 36  1  1  0  0  0
 39 40  1  6  0  0  0
 39 38  1  0  0  0  0
 41 43  1  0  0  0  0
 42 41  1  0  0  0  0
M  END
>  <MODEL>
4

>  <REMARK>
 VINA RESULT:      -8.1      2.528      4.768
  Name = 
  16 active torsions:
  status: ('A' for Active; 'I' for Inactive)
    1  A    between atoms: C_1  and  C_11
    2  A    between atoms: C_1  and  O_30
    3  A    between atoms: O_2  and  C_3
    4  A    between atoms: O_2  and  C_4
    5  A    between atoms: C_3  and  C_27
    6  A    between atoms: C_4  and  C_15
    7  A    between atoms: C_4  and  C_23
    8  A    between atoms: C_6  and  C_25
    9  A    between atoms: C_6  and  C_43
   10  A    between atoms: C_7  and  C_20
   11  A    between atoms: C_7  and  C_25
   12  A    between atoms: O_17  and  C_22
   13  A    between atoms: C_22  and  C_39
   14  A    between atoms: C_25  and  O_30
   15  A    between atoms: N_37  and  N_42
   16  A    between atoms: C_39  and  C_43
                            x       y       z     vdW  Elec       q    Type
                         _______ _______ _______ _____ _____    ______ ____

>  <TORSDO>
F 16

$$$$
=
 OpenBabel10222418563D

 43 48  0  0  1  0  0  0  0  0999 V2000
  186.6580  178.1700  144.4390 C   0  0  0  0  0  0  0  0  0  0  0  0
  184.7720  179.4320  139.5970 O   0  0  0  0  0  0  0  0  0  0  0  0
  184.9670  178.6070  142.7090 C   0  0  0  0  0  0  0  0  0  0  0  0
  187.2650  177.8020  141.9000 C   0  0  2  0  0  3  0  0  0  0  0  0
  186.9190  178.3310  147.6240 N   0  0  0  0  0  0  0  0  0  0  0  0
  186.8610  178.3830  140.6110 N   0  0  0  0  0  0  0  0  0  0  0  0
  188.2000  177.8010  147.1880 C   0  0  0  0  0  2  0  0  0  0  0  0
  185.9060  178.7030  146.8960 C   0  0  0  0  0  3  0  0  0  0  0  0
  184.4600  178.3410  141.3170 C   0  0  1  0  0  3  0  0  0  0  0  0
  186.3040  178.2330  143.0540 C   0  0  0  0  0  0  0  0  0  0  0  0
  183.7750  179.3910  140.6100 C   0  0  2  0  0  3  0  0  0  0  0  0
  185.6080  178.6220  140.4460 C   0  0  0  0  0  0  0  0  0  0  0  0
  184.0750  179.0270  143.6860 C   0  0  0  0  0  3  0  0  0  0  0  0
  188.0090  177.6240  144.8030 C   0  0  0  0  0  2  0  0  0  0  0  0
  184.4680  179.0740  145.0140 C   0  0  0  0  0  3  0  0  0  0  0  0
  188.0230  176.8110  146.0700 C   0  0  0  0  0  2  0  0  0  0  0  0
  185.7350  178.6530  145.4190 C   0  0  0  0  0  0  0  0  0  0  0  0
  188.7110  178.2180  142.1330 C   0  0  0  0  0  2  0  0  0  0  0  0
  189.5640  177.1420  141.8770 O   0  0  0  0  0  0  0  0  0  0  0  0
  190.8460  177.7040  141.8450 C   0  0  1  0  0  3  0  0  0  0  0  0
  191.6800  177.2880  143.0590 C   0  0  0  0  0  2  0  0  0  0  0  0
  191.6670  178.3150  144.1490 C   0  0  0  0  0  3  0  0  0  0  0  0
  191.6430  177.9860  145.4030 N   0  0  0  0  0  0  0  0  0  0  0  0
  191.8030  176.2940  147.1840 C   0  0  0  0  0  0  0  0  0  0  0  0
  191.9240  177.1890  148.0630 O   0  0  0  0  0  1  0  0  0  0  0  0
  191.8330  174.9550  147.5520 O   0  0  0  0  0  0  0  0  0  0  0  0
  191.6360  176.6460  145.8130 N   0  0  0  0  0  2  0  0  0  0  0  0
  191.5450  177.4370  140.5110 C   0  0  0  0  0  2  0  0  0  0  0  0
  190.7040  176.5770  139.5750 C   0  0  0  0  0  2  0  0  0  0  0  0
  191.1710  176.7370  138.1410 C   0  0  0  0  0  2  0  0  0  0  0  0
  189.9800  176.8640  137.2080 C   0  0  0  0  0  2  0  0  0  0  0  0
  188.8930  177.3820  137.9100 O   0  0  0  0  0  0  0  0  0  0  0  0
  187.8300  176.5400  137.5810 C   0  0  0  0  0  1  0  0  0  0  0  0
  182.4370  178.9230  140.0390 C   0  0  0  0  0  2  0  0  0  0  0  0
  181.3980  179.7990  140.3740 O   0  0  0  0  0  0  0  0  0  0  0  0
  180.2790  178.9800  140.5660 C   0  0  2  0  0  3  0  0  0  0  0  0
  180.5290  179.2680  143.0250 C   0  0  1  0  0  3  0  0  0  0  0  0
  180.3860  178.2590  141.9010 C   0  0  1  0  0  3  0  0  0  0  0  0
  179.1960  178.6110  142.7760 C   0  0  1  0  0  3  0  0  0  0  0  0
  179.6830  178.8090  144.1990 C   0  0  0  0  0  2  0  0  0  0  0  0
  180.1550  177.9740  139.4250 C   0  0  0  0  0  3  0  0  0  0  0  0
  179.8410  176.7130  139.9330 O   0  0  0  0  0  1  0  0  0  0  0  0
  179.1670  178.3710  138.5200 O   0  0  0  0  0  1  0  0  0  0  0  0
  1 14  1  0  0  0  0
  1 17  1  0  0  0  0
  2 12  1  0  0  0  0
  2 11  1  0  0  0  0
  3 10  1  0  0  0  0
  3 13  2  0  0  0  0
  4 18  1  1  0  0  0
  4 10  1  0  0  0  0
  6  4  1  0  0  0  0
  7  5  1  0  0  0  0
  8  5  2  0  0  0  0
  9 12  1  6  0  0  0
  9  3  1  0  0  0  0
 10  1  2  0  0  0  0
 11 34  1  6  0  0  0
 11  9  1  0  0  0  0
 12  6  2  0  0  0  0
 13 15  1  0  0  0  0
 14 16  1  0  0  0  0
 15 17  2  0  0  0  0
 16  7  1  0  0  0  0
 17  8  1  0  0  0  0
 19 18  1  0  0  0  0
 20 28  1  6  0  0  0
 20 19  1  0  0  0  0
 20 21  1  0  0  0  0
 21 22  1  0  0  0  0
 22 23  2  0  0  0  0
 23 27  1  0  0  0  0
 24 26  2  0  0  0  0
 24 25  1  0  0  0  0
 27 24  1  0  0  0  0
 29 28  1  0  0  0  0
 30 29  1  0  0  0  0
 31 32  1  0  0  0  0
 31 30  1  0  0  0  0
 33 32  1  0  0  0  0
 34 35  1  0  0  0  0
 35 36  1  0  0  0  0
 36 41  1  6  0  0  0
 37 40  1  1  0  0  0
 38 36  1  6  0  0  0
 38 39  1  0  0  0  0
 38 37  1  0  0  0  0
 39 37  1  0  0  0  0
 39 40  1  1  0  0  0
 41 42  1  0  0  0  0
 43 41  1  0  0  0  0
M  END
>  <MODEL>
5

>  <REMARK>
 VINA RESULT:      -8.0      1.595      4.583
  Name = 
  16 active torsions:
  status: ('A' for Active; 'I' for Inactive)
    1  A    between atoms: C_1  and  C_11
    2  A    between atoms: C_1  and  O_30
    3  A    between atoms: O_2  and  C_3
    4  A    between atoms: O_2  and  C_4
    5  A    between atoms: C_3  and  C_27
    6  A    between atoms: C_4  and  C_15
    7  A    between atoms: C_4  and  C_23
    8  A    between atoms: C_6  and  C_25
    9  A    between atoms: C_6  and  C_43
   10  A    between atoms: C_7  and  C_20
   11  A    between atoms: C_7  and  C_25
   12  A    between atoms: O_17  and  C_22
   13  A    between atoms: C_22  and  C_39
   14  A    between atoms: C_25  and  O_30
   15  A    between atoms: N_37  and  N_42
   16  A    between atoms: C_39  and  C_43
                            x       y       z     vdW  Elec       q    Type
                         _______ _______ _______ _____ _____    ______ ____

>  <TORSDO>
F 16

$$$$
=
 OpenBabel10222418563D

 43 48  0  0  1  0  0  0  0  0999 V2000
  186.0730  178.2590  144.1920 C   0  0  0  0  0  0  0  0  0  0  0  0
  183.6020  179.5700  139.6350 O   0  0  0  0  0  0  0  0  0  0  0  0
  184.1840  178.6000  142.6540 C   0  0  0  0  0  0  0  0  0  0  0  0
  186.4660  178.1030  141.5900 C   0  0  2  0  0  3  0  0  0  0  0  0
  186.6220  178.2700  147.3440 N   0  0  0  0  0  0  0  0  0  0  0  0
  185.8790  178.7070  140.3840 N   0  0  0  0  0  0  0  0  0  0  0  0
  187.9040  177.9130  146.7600 C   0  0  0  0  0  2  0  0  0  0  0  0
  185.5100  178.5660  146.7370 C   0  0  0  0  0  3  0  0  0  0  0  0
  183.5760  178.3560  141.3000 C   0  0  1  0  0  3  0  0  0  0  0  0
  185.5810  178.3590  142.8520 C   0  0  0  0  0  0  0  0  0  0  0  0
  182.7180  179.3610  140.7290 C   0  0  2  0  0  3  0  0  0  0  0  0
  184.5980  178.8120  140.3490 C   0  0  0  0  0  0  0  0  0  0  0  0
  183.3520  178.8620  143.7340 C   0  0  0  0  0  3  0  0  0  0  0  0
  187.5030  177.8480  144.3960 C   0  0  0  0  0  2  0  0  0  0  0  0
  183.8650  178.8780  145.0220 C   0  0  0  0  0  3  0  0  0  0  0  0
  187.7260  176.9720  145.6000 C   0  0  0  0  0  2  0  0  0  0  0  0
  185.2030  178.5800  145.2820 C   0  0  0  0  0  0  0  0  0  0  0  0
  187.8750  178.6650  141.7180 C   0  0  0  0  0  2  0  0  0  0  0  0
  188.5290  178.5970  140.4870 O   0  0  0  0  0  0  0  0  0  0  0  0
  189.3500  177.4660  140.5800 C   0  0  1  0  0  3  0  0  0  0  0  0
  190.2170  177.2870  139.3320 C   0  0  0  0  0  2  0  0  0  0  0  0
  189.5890  176.3830  138.3160 C   0  0  0  0  0  3  0  0  0  0  0  0
  190.1970  175.3320  137.8630 N   0  0  0  0  0  0  0  0  0  0  0  0
  192.6310  175.2190  137.5020 C   0  0  0  0  0  0  0  0  0  0  0  0
  192.5210  175.8000  136.3890 O   0  0  0  0  0  0  0  0  0  0  0  0
  193.8810  174.8150  137.9510 O   0  0  0  0  0  1  0  0  0  0  0  0
  191.4780  174.9740  138.3050 N   0  0  0  0  0  2  0  0  0  0  0  0
  190.1540  177.4590  141.8810 C   0  0  0  0  0  2  0  0  0  0  0  0
  190.1990  176.0800  142.5290 C   0  0  0  0  0  2  0  0  0  0  0  0
  191.1410  176.0820  143.7180 C   0  0  0  0  0  2  0  0  0  0  0  0
  191.6610  177.4840  143.9810 C   0  0  0  0  0  2  0  0  0  0  0  0
  191.4940  177.7960  145.3290 O   0  0  0  0  0  0  0  0  0  0  0  0
  191.6470  176.5780  145.9920 C   0  0  0  0  0  1  0  0  0  0  0  0
  181.3880  178.7780  140.2510 C   0  0  0  0  0  2  0  0  0  0  0  0
  181.4610  178.3500  138.9200 O   0  0  0  0  0  0  0  0  0  0  0  0
  181.1960  176.9760  138.9660 C   0  0  2  0  0  3  0  0  0  0  0  0
  183.3240  176.6970  137.7080 C   0  0  1  0  0  3  0  0  0  0  0  0
  181.8690  176.2770  137.7940 C   0  0  1  0  0  3  0  0  0  0  0  0
  182.9660  175.3580  138.3010 C   0  0  1  0  0  3  0  0  0  0  0  0
  184.1610  175.4750  137.3740 C   0  0  0  0  0  2  0  0  0  0  0  0
  179.6900  176.7240  138.9430 C   0  0  0  0  0  3  0  0  0  0  0  0
  179.1580  177.1210  137.7160 O   0  0  0  0  0  1  0  0  0  0  0  0
  179.4110  175.3720  139.1570 O   0  0  0  0  0  1  0  0  0  0  0  0
  1 14  1  0  0  0  0
  1 17  1  0  0  0  0
  2 12  1  0  0  0  0
  2 11  1  0  0  0  0
  3 10  1  0  0  0  0
  3 13  2  0  0  0  0
  4 18  1  1  0  0  0
  4 10  1  0  0  0  0
  6  4  1  0  0  0  0
  7  5  1  0  0  0  0
  8  5  2  0  0  0  0
  9 12  1  6  0  0  0
  9  3  1  0  0  0  0
 10  1  2  0  0  0  0
 11 34  1  6  0  0  0
 11  9  1  0  0  0  0
 12  6  2  0  0  0  0
 13 15  1  0  0  0  0
 14 16  1  0  0  0  0
 15 17  2  0  0  0  0
 16  7  1  0  0  0  0
 17  8  1  0  0  0  0
 19 20  1  0  0  0  0
 19 18  1  0  0  0  0
 20 21  1  6  0  0  0
 20 28  1  0  0  0  0
 22 21  1  0  0  0  0
 23 27  1  0  0  0  0
 23 22  2  0  0  0  0
 24 26  1  0  0  0  0
 24 27  1  0  0  0  0
 25 24  2  0  0  0  0
 28 29  1  0  0  0  0
 29 30  1  0  0  0  0
 30 31  1  0  0  0  0
 31 32  1  0  0  0  0
 32 33  1  0  0  0  0
 35 34  1  0  0  0  0
 36 35  1  6  0  0  0
 37 40  1  6  0  0  0
 37 38  1  0  0  0  0
 37 39  1  0  0  0  0
 38 39  1  0  0  0  0
 38 36  1  1  0  0  0
 39 40  1  6  0  0  0
 41 36  1  0  0  0  0
 41 43  1  0  0  0  0
 42 41  1  0  0  0  0
M  END
>  <MODEL>
6

>  <REMARK>
 VINA RESULT:      -7.8      1.920      2.768
  Name = 
  16 active torsions:
  status: ('A' for Active; 'I' for Inactive)
    1  A    between atoms: C_1  and  C_11
    2  A    between atoms: C_1  and  O_30
    3  A    between atoms: O_2  and  C_3
    4  A    between atoms: O_2  and  C_4
    5  A    between atoms: C_3  and  C_27
    6  A    between atoms: C_4  and  C_15
    7  A    between atoms: C_4  and  C_23
    8  A    between atoms: C_6  and  C_25
    9  A    between atoms: C_6  and  C_43
   10  A    between atoms: C_7  and  C_20
   11  A    between atoms: C_7  and  C_25
   12  A    between atoms: O_17  and  C_22
   13  A    between atoms: C_22  and  C_39
   14  A    between atoms: C_25  and  O_30
   15  A    between atoms: N_37  and  N_42
   16  A    between atoms: C_39  and  C_43
                            x       y       z     vdW  Elec       q    Type
                         _______ _______ _______ _____ _____    ______ ____

>  <TORSDO>
F 16

$$$$
=
 OpenBabel10222418563D

 43 48  0  0  1  0  0  0  0  0999 V2000
  188.8400  177.4410  144.3250 C   0  0  0  0  0  0  0  0  0  0  0  0
  184.5970  179.5670  141.8610 O   0  0  0  0  0  0  0  0  0  0  0  0
  186.4790  178.0420  143.9900 C   0  0  0  0  0  0  0  0  0  0  0  0
  187.9200  177.7960  141.8800 C   0  0  2  0  0  3  0  0  0  0  0  0
  190.8360  176.8530  146.7550 N   0  0  0  0  0  0  0  0  0  0  0  0
  186.8760  178.6120  141.2410 N   0  0  0  0  0  0  0  0  0  0  0  0
  191.6460  176.6350  145.5690 C   0  0  0  0  0  2  0  0  0  0  0  0
  189.5970  177.2430  146.8300 C   0  0  0  0  0  3  0  0  0  0  0  0
  185.2770  178.0550  143.0850 C   0  0  1  0  0  3  0  0  0  0  0  0
  187.7750  177.7900  143.4360 C   0  0  0  0  0  0  0  0  0  0  0  0
  184.3340  179.1370  143.1900 C   0  0  2  0  0  3  0  0  0  0  0  0
  185.7490  178.7020  141.8540 C   0  0  0  0  0  0  0  0  0  0  0  0
  186.2920  178.0780  145.3650 C   0  0  0  0  0  3  0  0  0  0  0  0
  190.1540  177.0210  143.7300 C   0  0  0  0  0  2  0  0  0  0  0  0
  187.3610  177.8540  146.2190 C   0  0  0  0  0  3  0  0  0  0  0  0
  190.8570  175.9330  144.4970 C   0  0  0  0  0  2  0  0  0  0  0  0
  188.6300  177.5320  145.7370 C   0  0  0  0  0  0  0  0  0  0  0  0
  189.2570  178.3450  141.4030 C   0  0  0  0  0  2  0  0  0  0  0  0
  189.9890  177.3360  140.7740 O   0  0  0  0  0  0  0  0  0  0  0  0
  189.4490  177.2520  139.4850 C   0  0  1  0  0  3  0  0  0  0  0  0
  189.3260  178.6290  138.8290 C   0  0  0  0  0  2  0  0  0  0  0  0
  189.1390  178.5500  137.3450 C   0  0  0  0  0  3  0  0  0  0  0  0
  187.9790  178.7110  136.7890 N   0  0  0  0  0  0  0  0  0  0  0  0
  185.8550  177.9660  137.7880 C   0  0  0  0  0  0  0  0  0  0  0  0
  186.0280  176.7960  137.3540 O   0  0  0  0  0  0  0  0  0  0  0  0
  184.7070  178.2750  138.5060 O   0  0  0  0  0  1  0  0  0  0  0  0
  186.8300  178.9780  137.5450 N   0  0  0  0  0  2  0  0  0  0  0  0
  190.2000  176.2370  138.6230 C   0  0  0  0  0  2  0  0  0  0  0  0
  191.7120  176.4070  138.7070 C   0  0  0  0  0  2  0  0  0  0  0  0
  192.3410  176.2650  137.3340 C   0  0  0  0  0  2  0  0  0  0  0  0
  193.4380  175.2160  137.3600 C   0  0  0  0  0  2  0  0  0  0  0  0
  194.3920  175.5650  138.3140 O   0  0  0  0  0  0  0  0  0  0  0  0
  195.3000  174.5070  138.3050 C   0  0  0  0  0  1  0  0  0  0  0  0
  182.8960  178.6360  143.3270 C   0  0  0  0  0  2  0  0  0  0  0  0
  182.2310  178.6380  142.0960 O   0  0  0  0  0  0  0  0  0  0  0  0
  180.8730  178.5270  142.4170 C   0  0  2  0  0  3  0  0  0  0  0  0
  180.7580  177.4670  140.1680 C   0  0  1  0  0  3  0  0  0  0  0  0
  180.0480  178.3840  141.1470 C   0  0  1  0  0  3  0  0  0  0  0  0
  179.6010  176.9420  140.9790 C   0  0  1  0  0  3  0  0  0  0  0  0
  179.7280  176.5650  139.5150 C   0  0  0  0  0  2  0  0  0  0  0  0
  180.4140  179.7440  143.2160 C   0  0  0  0  0  3  0  0  0  0  0  0
  180.0160  180.7610  142.3490 O   0  0  0  0  0  1  0  0  0  0  0  0
  179.3540  179.4100  144.0620 O   0  0  0  0  0  1  0  0  0  0  0  0
  1 17  1  0  0  0  0
  2 11  1  0  0  0  0
  3 13  2  0  0  0  0
  4 18  1  1  0  0  0
  4 10  1  0  0  0  0
  5  8  2  0  0  0  0
  6 12  2  0  0  0  0
  6  4  1  0  0  0  0
  7  5  1  0  0  0  0
  9 12  1  6  0  0  0
  9 11  1  0  0  0  0
  9  3  1  0  0  0  0
 10  3  1  0  0  0  0
 10  1  2  0  0  0  0
 11 34  1  6  0  0  0
 12  2  1  0  0  0  0
 13 15  1  0  0  0  0
 14  1  1  0  0  0  0
 14 16  1  0  0  0  0
 16  7  1  0  0  0  0
 17 15  2  0  0  0  0
 17  8  1  0  0  0  0
 19 18  1  0  0  0  0
 20 28  1  6  0  0  0
 20 19  1  0  0  0  0
 21 20  1  0  0  0  0
 22 21  1  0  0  0  0
 23 22  2  0  0  0  0
 23 27  1  0  0  0  0
 24 26  1  0  0  0  0
 25 24  2  0  0  0  0
 27 24  1  0  0  0  0
 28 29  1  0  0  0  0
 30 31  1  0  0  0  0
 30 29  1  0  0  0  0
 31 32  1  0  0  0  0
 33 32  1  0  0  0  0
 35 34  1  0  0  0  0
 36 35  1  6  0  0  0
 36 41  1  0  0  0  0
 37 40  1  6  0  0  0
 37 39  1  0  0  0  0
 37 38  1  0  0  0  0
 38 36  1  1  0  0  0
 39 40  1  6  0  0  0
 39 38  1  0  0  0  0
 41 43  1  0  0  0  0
 42 41  1  0  0  0  0
M  END
>  <MODEL>
7

>  <REMARK>
 VINA RESULT:      -7.6      2.205      4.066
  Name = 
  16 active torsions:
  status: ('A' for Active; 'I' for Inactive)
    1  A    between atoms: C_1  and  C_11
    2  A    between atoms: C_1  and  O_30
    3  A    between atoms: O_2  and  C_3
    4  A    between atoms: O_2  and  C_4
    5  A    between atoms: C_3  and  C_27
    6  A    between atoms: C_4  and  C_15
    7  A    between atoms: C_4  and  C_23
    8  A    between atoms: C_6  and  C_25
    9  A    between atoms: C_6  and  C_43
   10  A    between atoms: C_7  and  C_20
   11  A    between atoms: C_7  and  C_25
   12  A    between atoms: O_17  and  C_22
   13  A    between atoms: C_22  and  C_39
   14  A    between atoms: C_25  and  O_30
   15  A    between atoms: N_37  and  N_42
   16  A    between atoms: C_39  and  C_43
                            x       y       z     vdW  Elec       q    Type
                         _______ _______ _______ _____ _____    ______ ____

>  <TORSDO>
F 16

$$$$
=
 OpenBabel10222418563D

 43 48  0  0  1  0  0  0  0  0999 V2000
  186.8240  178.1710  145.1230 C   0  0  0  0  0  0  0  0  0  0  0  0
  184.3650  179.3630  140.5260 O   0  0  0  0  0  0  0  0  0  0  0  0
  184.9360  178.5140  143.5850 C   0  0  0  0  0  0  0  0  0  0  0  0
  187.1860  177.8760  142.5280 C   0  0  2  0  0  3  0  0  0  0  0  0
  187.4020  178.3100  148.2660 N   0  0  0  0  0  0  0  0  0  0  0  0
  186.6130  178.4450  141.2990 N   0  0  0  0  0  0  0  0  0  0  0  0
  188.6640  177.8740  147.6910 C   0  0  0  0  0  2  0  0  0  0  0  0
  186.2970  178.6220  147.6540 C   0  0  0  0  0  3  0  0  0  0  0  0
  184.3060  178.2320  142.2480 C   0  0  1  0  0  3  0  0  0  0  0  0
  186.3240  178.2280  143.7830 C   0  0  0  0  0  0  0  0  0  0  0  0
  183.4840  179.2420  141.6350 C   0  0  2  0  0  3  0  0  0  0  0  0
  185.3360  178.6010  141.2690 C   0  0  0  0  0  0  0  0  0  0  0  0
  184.1250  178.8610  144.6560 C   0  0  0  0  0  3  0  0  0  0  0  0
  188.2380  177.7130  145.3360 C   0  0  0  0  0  2  0  0  0  0  0  0
  184.6500  178.9180  145.9380 C   0  0  0  0  0  3  0  0  0  0  0  0
  188.4370  176.8870  146.5780 C   0  0  0  0  0  2  0  0  0  0  0  0
  185.9770  178.5790  146.2020 C   0  0  0  0  0  0  0  0  0  0  0  0
  188.6170  178.3860  142.6190 C   0  0  0  0  0  2  0  0  0  0  0  0
  189.1440  178.5600  141.3380 O   0  0  0  0  0  0  0  0  0  0  0  0
  190.3640  177.8750  141.3570 C   0  0  1  0  0  3  0  0  0  0  0  0
  190.8530  177.6220  142.7850 C   0  0  0  0  0  2  0  0  0  0  0  0
  191.3090  176.2120  143.0010 C   0  0  0  0  0  3  0  0  0  0  0  0
  191.6870  175.7820  144.1640 N   0  0  0  0  0  0  0  0  0  0  0  0
  192.0520  176.1130  146.5760 C   0  0  0  0  0  0  0  0  0  0  0  0
  192.4290  174.9180  146.7120 O   0  0  0  0  0  0  0  0  0  0  0  0
  191.9970  176.9500  147.6830 O   0  0  0  0  0  1  0  0  0  0  0  0
  191.6810  176.6120  145.2930 N   0  0  0  0  0  2  0  0  0  0  0  0
  190.3130  176.6080  140.5020 C   0  0  0  0  0  2  0  0  0  0  0  0
  190.5010  176.8990  139.0180 C   0  0  0  0  0  2  0  0  0  0  0  0
  191.6110  176.0390  138.4430 C   0  0  0  0  0  2  0  0  0  0  0  0
  192.9480  176.7490  138.5650 C   0  0  0  0  0  2  0  0  0  0  0  0
  193.6030  176.7170  137.3350 O   0  0  0  0  0  0  0  0  0  0  0  0
  193.1250  175.5640  136.7130 C   0  0  0  0  0  1  0  0  0  0  0  0
  182.1270  178.6910  141.1960 C   0  0  0  0  0  2  0  0  0  0  0  0
  182.0380  178.5920  139.8020 O   0  0  0  0  0  0  0  0  0  0  0  0
  181.6900  177.2590  139.5550 C   0  0  2  0  0  3  0  0  0  0  0  0
  183.1580  177.8770  137.6430 C   0  0  1  0  0  3  0  0  0  0  0  0
  182.1980  176.8350  138.1850 C   0  0  1  0  0  3  0  0  0  0  0  0
  183.6970  176.6020  138.2390 C   0  0  1  0  0  3  0  0  0  0  0  0
  184.3190  177.1650  136.9740 C   0  0  0  0  0  2  0  0  0  0  0  0
  180.1760  177.0790  139.6410 C   0  0  0  0  0  3  0  0  0  0  0  0
  179.7050  176.4420  138.4930 O   0  0  0  0  0  1  0  0  0  0  0  0
  179.8300  176.3280  140.7670 O   0  0  0  0  0  1  0  0  0  0  0  0
  1 14  1  0  0  0  0
  1 17  1  0  0  0  0
  2 12  1  0  0  0  0
  2 11  1  0  0  0  0
  3 10  1  0  0  0  0
  3 13  2  0  0  0  0
  4 18  1  1  0  0  0
  4 10  1  0  0  0  0
  6  4  1  0  0  0  0
  7  5  1  0  0  0  0
  8  5  2  0  0  0  0
  9 12  1  6  0  0  0
  9  3  1  0  0  0  0
 10  1  2  0  0  0  0
 11 34  1  6  0  0  0
 11  9  1  0  0  0  0
 12  6  2  0  0  0  0
 13 15  1  0  0  0  0
 14 16  1  0  0  0  0
 15 17  2  0  0  0  0
 16  7  1  0  0  0  0
 17  8  1  0  0  0  0
 19 20  1  0  0  0  0
 19 18  1  0  0  0  0
 20 28  1  1  0  0  0
 20 21  1  0  0  0  0
 21 22  1  0  0  0  0
 22 23  2  0  0  0  0
 23 27  1  0  0  0  0
 24 25  2  0  0  0  0
 24 26  1  0  0  0  0
 27 24  1  0  0  0  0
 29 28  1  0  0  0  0
 30 31  1  0  0  0  0
 30 29  1  0  0  0  0
 32 31  1  0  0  0  0
 33 32  1  0  0  0  0
 35 34  1  0  0  0  0
 36 41  1  6  0  0  0
 36 35  1  0  0  0  0
 37 40  1  6  0  0  0
 37 38  1  0  0  0  0
 37 39  1  0  0  0  0
 38 39  1  0  0  0  0
 38 36  1  1  0  0  0
 39 40  1  6  0  0  0
 41 43  1  0  0  0  0
 42 41  1  0  0  0  0
M  END
>  <MODEL>
8

>  <REMARK>
 VINA RESULT:      -7.5      2.198      4.777
  Name = 
  16 active torsions:
  status: ('A' for Active; 'I' for Inactive)
    1  A    between atoms: C_1  and  C_11
    2  A    between atoms: C_1  and  O_30
    3  A    between atoms: O_2  and  C_3
    4  A    between atoms: O_2  and  C_4
    5  A    between atoms: C_3  and  C_27
    6  A    between atoms: C_4  and  C_15
    7  A    between atoms: C_4  and  C_23
    8  A    between atoms: C_6  and  C_25
    9  A    between atoms: C_6  and  C_43
   10  A    between atoms: C_7  and  C_20
   11  A    between atoms: C_7  and  C_25
   12  A    between atoms: O_17  and  C_22
   13  A    between atoms: C_22  and  C_39
   14  A    between atoms: C_25  and  O_30
   15  A    between atoms: N_37  and  N_42
   16  A    between atoms: C_39  and  C_43
                            x       y       z     vdW  Elec       q    Type
                         _______ _______ _______ _____ _____    ______ ____

>  <TORSDO>
F 16

$$$$
=
 OpenBabel10222418563D

 43 48  0  0  1  0  0  0  0  0999 V2000
  186.0940  178.2700  144.1530 C   0  0  0  0  0  0  0  0  0  0  0  0
  184.0410  179.5940  139.3960 O   0  0  0  0  0  0  0  0  0  0  0  0
  184.3520  178.6060  142.4500 C   0  0  0  0  0  0  0  0  0  0  0  0
  186.7260  178.1360  141.5970 C   0  0  2  0  0  3  0  0  0  0  0  0
  186.3510  178.2630  147.3420 N   0  0  0  0  0  0  0  0  0  0  0  0
  186.2470  178.7440  140.3460 N   0  0  0  0  0  0  0  0  0  0  0  0
  187.6850  177.9200  146.8760 C   0  0  0  0  0  2  0  0  0  0  0  0
  185.2970  178.5540  146.6370 C   0  0  0  0  0  3  0  0  0  0  0  0
  183.8730  178.3680  141.0440 C   0  0  1  0  0  3  0  0  0  0  0  0
  185.7270  178.3760  142.7740 C   0  0  0  0  0  0  0  0  0  0  0  0
  183.0620  179.3690  140.4030 C   0  0  2  0  0  3  0  0  0  0  0  0
  184.9740  178.8390  140.1940 C   0  0  0  0  0  0  0  0  0  0  0  0
  183.4210  178.8530  143.4500 C   0  0  0  0  0  3  0  0  0  0  0  0
  187.5030  177.8700  144.4850 C   0  0  0  0  0  2  0  0  0  0  0  0
  183.8140  178.8650  144.7800 C   0  0  0  0  0  3  0  0  0  0  0  0
  187.6230  176.9870  145.6980 C   0  0  0  0  0  2  0  0  0  0  0  0
  185.1250  178.5760  145.1600 C   0  0  0  0  0  0  0  0  0  0  0  0
  188.1120  178.7090  141.8580 C   0  0  0  0  0  2  0  0  0  0  0  0
  188.9970  178.2880  140.8630 O   0  0  0  0  0  0  0  0  0  0  0  0
  189.8500  177.3810  141.5040 C   0  0  1  0  0  3  0  0  0  0  0  0
  190.8420  176.7450  140.5280 C   0  0  0  0  0  2  0  0  0  0  0  0
  192.1330  177.4990  140.4410 C   0  0  0  0  0  3  0  0  0  0  0  0
  192.9710  177.3160  139.4690 N   0  0  0  0  0  0  0  0  0  0  0  0
  193.6730  175.4180  138.0660 C   0  0  0  0  0  0  0  0  0  0  0  0
  194.7630  175.3210  138.6920 O   0  0  0  0  0  1  0  0  0  0  0  0
  193.4030  174.5570  137.0100 O   0  0  0  0  0  0  0  0  0  0  0  0
  192.7130  176.4060  138.4350 N   0  0  0  0  0  2  0  0  0  0  0  0
  190.5220  178.0070  142.7270 C   0  0  0  0  0  2  0  0  0  0  0  0
  191.0800  176.9590  143.6830 C   0  0  0  0  0  2  0  0  0  0  0  0
  191.3270  177.5650  145.0520 C   0  0  0  0  0  2  0  0  0  0  0  0
  191.2830  176.4890  146.1230 C   0  0  0  0  0  2  0  0  0  0  0  0
  192.0370  176.8970  147.2210 O   0  0  0  0  0  0  0  0  0  0  0  0
  192.4310  175.7090  147.8370 C   0  0  0  0  0  1  0  0  0  0  0  0
  181.7870  178.7790  139.8010 C   0  0  0  0  0  2  0  0  0  0  0  0
  181.9720  177.4490  139.4030 O   0  0  0  0  0  0  0  0  0  0  0  0
  180.9710  177.2120  138.4540 C   0  0  2  0  0  3  0  0  0  0  0  0
  180.4870  175.3280  140.0060 C   0  0  1  0  0  3  0  0  0  0  0  0
  180.4900  175.7720  138.5550 C   0  0  1  0  0  3  0  0  0  0  0  0
  179.1910  175.7150  139.3410 C   0  0  1  0  0  3  0  0  0  0  0  0
  179.2350  174.5090  140.2600 C   0  0  0  0  0  2  0  0  0  0  0  0
  181.4900  177.5020  137.0480 C   0  0  0  0  0  3  0  0  0  0  0  0
  182.8840  177.4360  137.0310 O   0  0  0  0  0  1  0  0  0  0  0  0
  180.9690  176.5880  136.1290 O   0  0  0  0  0  1  0  0  0  0  0  0
  1 14  1  0  0  0  0
  1 17  1  0  0  0  0
  2 12  1  0  0  0  0
  2 11  1  0  0  0  0
  3 10  1  0  0  0  0
  3 13  2  0  0  0  0
  4 18  1  1  0  0  0
  4 10  1  0  0  0  0
  6  4  1  0  0  0  0
  7  5  1  0  0  0  0
  8  5  2  0  0  0  0
  9 12  1  6  0  0  0
  9  3  1  0  0  0  0
 10  1  2  0  0  0  0
 11 34  1  6  0  0  0
 11  9  1  0  0  0  0
 12  6  2  0  0  0  0
 13 15  1  0  0  0  0
 14 16  1  0  0  0  0
 15 17  2  0  0  0  0
 16  7  1  0  0  0  0
 17  8  1  0  0  0  0
 19 20  1  0  0  0  0
 19 18  1  0  0  0  0
 20 21  1  6  0  0  0
 20 28  1  0  0  0  0
 22 21  1  0  0  0  0
 23 22  2  0  0  0  0
 24 27  1  0  0  0  0
 24 25  1  0  0  0  0
 26 24  2  0  0  0  0
 27 23  1  0  0  0  0
 28 29  1  0  0  0  0
 29 30  1  0  0  0  0
 30 31  1  0  0  0  0
 31 32  1  0  0  0  0
 32 33  1  0  0  0  0
 35 34  1  0  0  0  0
 36 41  1  6  0  0  0
 36 35  1  0  0  0  0
 37 40  1  6  0  0  0
 38 36  1  1  0  0  0
 38 39  1  0  0  0  0
 38 37  1  0  0  0  0
 39 37  1  0  0  0  0
 39 40  1  6  0  0  0
 42 41  1  0  0  0  0
 43 41  1  0  0  0  0
M  END
>  <MODEL>
9

>  <REMARK>
 VINA RESULT:      -7.5      1.928      2.630
  Name = 
  16 active torsions:
  status: ('A' for Active; 'I' for Inactive)
    1  A    between atoms: C_1  and  C_11
    2  A    between atoms: C_1  and  O_30
    3  A    between atoms: O_2  and  C_3
    4  A    between atoms: O_2  and  C_4
    5  A    between atoms: C_3  and  C_27
    6  A    between atoms: C_4  and  C_15
    7  A    between atoms: C_4  and  C_23
    8  A    between atoms: C_6  and  C_25
    9  A    between atoms: C_6  and  C_43
   10  A    between atoms: C_7  and  C_20
   11  A    between atoms: C_7  and  C_25
   12  A    between atoms: O_17  and  C_22
   13  A    between atoms: C_22  and  C_39
   14  A    between atoms: C_25  and  O_30
   15  A    between atoms: N_37  and  N_42
   16  A    between atoms: C_39  and  C_43
                            x       y       z     vdW  Elec       q    Type
                         _______ _______ _______ _____ _____    ______ ____

>  <TORSDO>
F 16

$$$$
