=
 OpenBabel10222415313D

 31 35  0  0  1  0  0  0  0  0999 V2000
  186.2220  178.2740  143.5890 C   0  0  0  0  0  0  0  0  0  0  0  0
  186.5910  178.4180  142.1590 C   0  0  0  0  0  3  0  0  0  0  0  0
  184.3770  178.5380  145.1990 N   0  0  0  0  0  0  0  0  0  0  0  0
  185.6880  178.7060  141.2120 C   0  0  0  0  0  3  0  0  0  0  0  0
  182.7510  179.1680  143.5570 N   0  0  0  0  0  0  0  0  0  0  0  0
  182.9850  178.9490  145.0030 C   0  0  0  0  0  3  0  0  0  0  0  0
  184.2160  178.8540  141.5180 C   0  0  0  0  0  0  0  0  0  0  0  0
  184.9480  178.5550  143.9160 C   0  0  0  0  0  0  0  0  0  0  0  0
  184.0010  178.9470  142.9620 N   0  0  0  0  0  0  0  0  0  0  0  0
  190.7830  176.6910  144.5670 C   0  0  0  0  0  3  0  0  0  0  0  0
  187.2630  177.8660  144.5750 C   0  0  0  0  0  0  0  0  0  0  0  0
  187.0100  177.8520  145.9580 C   0  0  0  0  0  3  0  0  0  0  0  0
  189.5230  177.0800  145.0220 C   0  0  0  0  0  0  0  0  0  0  0  0
  191.4650  176.3060  146.8550 C   0  0  0  0  0  0  0  0  0  0  0  0
  188.5330  177.4720  144.1200 C   0  0  0  0  0  3  0  0  0  0  0  0
  191.7600  176.3020  145.4840 C   0  0  0  0  0  3  0  0  0  0  0  0
  187.7100  177.4620  148.2300 O   0  0  0  0  0  1  0  0  0  0  0  0
  187.9950  177.4610  146.8700 C   0  0  0  0  0  0  0  0  0  0  0  0
  189.2570  177.0730  146.4070 C   0  0  0  0  0  0  0  0  0  0  0  0
  190.2300  176.6890  147.2800 N   0  0  0  0  0  0  0  0  0  0  0  0
  192.8630  176.7120  148.7760 N   0  0  0  0  0  2  0  0  0  0  0  0
  192.4670  175.9040  147.8470 C   0  0  0  0  0  3  0  0  0  0  0  0
  183.4470  177.6550  140.9640 C   0  0  0  0  0  2  0  0  0  0  0  0
  184.2870  177.9190  137.8550 Cl  0  0  0  0  0  0  0  0  0  0  0  0
  182.0520  179.3430  137.8090 N   0  0  0  0  0  0  0  0  0  0  0  0
  179.8820  179.9980  137.1740 N   0  0  0  0  0  1  0  0  0  0  0  0
  181.2510  178.7790  140.4540 C   0  0  0  0  0  2  0  0  0  0  0  0
  180.8050  179.5080  138.1380 C   0  0  0  0  0  0  0  0  0  0  0  0
  183.0670  178.8640  138.7470 C   0  0  1  0  0  3  0  0  0  0  0  0
  180.3520  179.1620  139.4160 O   0  0  0  0  0  0  0  0  0  0  0  0
  182.4420  178.0260  139.8700 C   0  0  1  0  0  3  0  0  0  0  0  0
  1  8  1  0  0  0  0
  1 11  1  0  0  0  0
  2  1  2  0  0  0  0
  4  7  2  0  0  0  0
  4  2  1  0  0  0  0
  5  6  2  0  0  0  0
  6  3  1  0  0  0  0
  7  9  1  0  0  0  0
  8  3  2  0  0  0  0
  9  5  1  0  0  0  0
  9  8  1  0  0  0  0
 10 13  2  0  0  0  0
 10 16  1  0  0  0  0
 11 12  1  0  0  0  0
 12 18  2  0  0  0  0
 13 19  1  0  0  0  0
 14 20  1  0  0  0  0
 14 22  1  0  0  0  0
 15 11  2  0  0  0  0
 15 13  1  0  0  0  0
 16 14  2  0  0  0  0
 18 17  1  0  0  0  0
 19 18  1  0  0  0  0
 19 20  2  0  0  0  0
 22 21  2  0  0  0  0
 23  7  1  0  0  0  0
 25 28  2  0  0  0  0
 25 29  1  0  0  0  0
 26 28  1  0  0  0  0
 28 30  1  0  0  0  0
 29 24  1  6  0  0  0
 29 31  1  0  0  0  0
 30 27  1  0  0  0  0
 31 27  1  0  0  0  0
 31 23  1  1  0  0  0
M  END
>  <MODEL>
1

>  <REMARK>
 VINA RESULT:      -9.6      0.000      0.000
  Name = 
  4 active torsions:
  status: ('A' for Active; 'I' for Inactive)
    1  A    between atoms: C_3  and  C_5
    2  A    between atoms: C_9  and  C_24
    3  A    between atoms: C_16  and  C_23
    4  A    between atoms: C_16  and  C_30
                            x       y       z     vdW  Elec       q    Type
                         _______ _______ _______ _____ _____    ______ ____

>  <TORSDO>
F 4

$$$$
=
 OpenBabel10222415313D

 31 35  0  0  1  0  0  0  0  0999 V2000
  186.3310  178.2870  143.5430 C   0  0  0  0  0  0  0  0  0  0  0  0
  186.7350  178.4480  142.1230 C   0  0  0  0  0  3  0  0  0  0  0  0
  184.4480  178.5310  145.1110 N   0  0  0  0  0  0  0  0  0  0  0  0
  185.8540  178.7450  141.1580 C   0  0  0  0  0  3  0  0  0  0  0  0
  182.8600  179.1750  143.4360 N   0  0  0  0  0  0  0  0  0  0  0  0
  183.0600  178.9410  144.8850 C   0  0  0  0  0  3  0  0  0  0  0  0
  184.3750  178.8860  141.4310 C   0  0  0  0  0  0  0  0  0  0  0  0
  185.0490  178.5630  143.8420 C   0  0  0  0  0  0  0  0  0  0  0  0
  184.1250  178.9630  142.8700 N   0  0  0  0  0  0  0  0  0  0  0  0
  190.8550  176.6540  144.6090 C   0  0  0  0  0  3  0  0  0  0  0  0
  187.3490  177.8700  144.5480 C   0  0  0  0  0  0  0  0  0  0  0  0
  187.0710  177.8640  145.9270 C   0  0  0  0  0  3  0  0  0  0  0  0
  189.5920  177.0600  145.0400 C   0  0  0  0  0  0  0  0  0  0  0  0
  191.4900  176.2690  146.9100 C   0  0  0  0  0  0  0  0  0  0  0  0
  188.6220  177.4600  144.1190 C   0  0  0  0  0  3  0  0  0  0  0  0
  191.8100  176.2570  145.5450 C   0  0  0  0  0  3  0  0  0  0  0  0
  187.7230  177.4720  148.2120 O   0  0  0  0  0  1  0  0  0  0  0  0
  188.0340  177.4640  146.8580 C   0  0  0  0  0  0  0  0  0  0  0  0
  189.3000  177.0600  146.4190 C   0  0  0  0  0  0  0  0  0  0  0  0
  190.2520  176.6670  147.3110 N   0  0  0  0  0  0  0  0  0  0  0  0
  192.9370  176.6950  148.7900 N   0  0  0  0  0  2  0  0  0  0  0  0
  192.4690  175.8580  147.9220 C   0  0  0  0  0  3  0  0  0  0  0  0
  183.6220  177.6920  140.8450 C   0  0  0  0  0  2  0  0  0  0  0  0
  180.4090  177.8810  141.1360 Cl  0  0  0  0  0  0  0  0  0  0  0  0
  180.5760  177.5840  138.5070 N   0  0  0  0  0  0  0  0  0  0  0  0
  180.2970  178.0780  136.2230 N   0  0  0  0  0  1  0  0  0  0  0  0
  183.3860  177.7550  138.3370 C   0  0  0  0  0  2  0  0  0  0  0  0
  181.1210  177.8800  137.3650 C   0  0  0  0  0  0  0  0  0  0  0  0
  181.3540  177.3450  139.7230 C   0  0  1  0  0  3  0  0  0  0  0  0
  182.5050  178.0550  137.2570 O   0  0  0  0  0  0  0  0  0  0  0  0
  182.7100  178.0600  139.6700 C   0  0  1  0  0  3  0  0  0  0  0  0
  1  8  1  0  0  0  0
  1 11  1  0  0  0  0
  2  1  2  0  0  0  0
  4  7  2  0  0  0  0
  4  2  1  0  0  0  0
  5  6  2  0  0  0  0
  6  3  1  0  0  0  0
  7  9  1  0  0  0  0
  8  3  2  0  0  0  0
  9  5  1  0  0  0  0
  9  8  1  0  0  0  0
 10 13  2  0  0  0  0
 10 16  1  0  0  0  0
 11 12  1  0  0  0  0
 12 18  2  0  0  0  0
 13 19  1  0  0  0  0
 14 20  1  0  0  0  0
 14 22  1  0  0  0  0
 15 11  2  0  0  0  0
 15 13  1  0  0  0  0
 16 14  2  0  0  0  0
 18 17  1  0  0  0  0
 19 18  1  0  0  0  0
 19 20  2  0  0  0  0
 22 21  2  0  0  0  0
 23  7  1  0  0  0  0
 25 29  1  0  0  0  0
 26 28  1  0  0  0  0
 27 31  1  0  0  0  0
 28 25  2  0  0  0  0
 29 24  1  1  0  0  0
 30 28  1  0  0  0  0
 30 27  1  0  0  0  0
 31 29  1  0  0  0  0
 31 23  1  1  0  0  0
M  END
>  <MODEL>
2

>  <REMARK>
 VINA RESULT:      -9.4      1.329      1.469
  Name = 
  4 active torsions:
  status: ('A' for Active; 'I' for Inactive)
    1  A    between atoms: C_3  and  C_5
    2  A    between atoms: C_9  and  C_24
    3  A    between atoms: C_16  and  C_23
    4  A    between atoms: C_16  and  C_30
                            x       y       z     vdW  Elec       q    Type
                         _______ _______ _______ _____ _____    ______ ____

>  <TORSDO>
F 4

$$$$
=
 OpenBabel10222415313D

 31 35  0  0  1  0  0  0  0  0999 V2000
  183.8410  178.7290  142.6300 C   0  0  0  0  0  0  0  0  0  0  0  0
  184.2850  178.9270  141.2270 C   0  0  0  0  0  3  0  0  0  0  0  0
  181.8630  178.6620  144.0950 N   0  0  0  0  0  0  0  0  0  0  0  0
  183.4180  179.0370  140.2110 C   0  0  0  0  0  3  0  0  0  0  0  0
  180.2770  178.9680  142.3250 N   0  0  0  0  0  0  0  0  0  0  0  0
  180.4370  178.8070  143.7890 C   0  0  0  0  0  3  0  0  0  0  0  0
  181.9250  178.9130  140.4060 C   0  0  0  0  0  0  0  0  0  0  0  0
  182.5160  178.7730  142.8570 C   0  0  0  0  0  0  0  0  0  0  0  0
  181.5880  178.9760  141.8280 N   0  0  0  0  0  0  0  0  0  0  0  0
  188.2400  177.0360  144.0590 C   0  0  0  0  0  3  0  0  0  0  0  0
  184.8620  178.5270  143.6970 C   0  0  0  0  0  0  0  0  0  0  0  0
  184.6470  178.9560  145.0190 C   0  0  0  0  0  3  0  0  0  0  0  0
  187.0410  177.6760  144.3700 C   0  0  0  0  0  0  0  0  0  0  0  0
  188.9430  177.2860  146.3590 C   0  0  0  0  0  0  0  0  0  0  0  0
  186.0710  177.8820  143.3870 C   0  0  0  0  0  3  0  0  0  0  0  0
  189.1980  176.8380  145.0540 C   0  0  0  0  0  3  0  0  0  0  0  0
  185.3660  179.1930  147.3060 O   0  0  0  0  0  1  0  0  0  0  0  0
  185.6120  178.7540  146.0100 C   0  0  0  0  0  0  0  0  0  0  0  0
  186.8140  178.1130  145.6910 C   0  0  0  0  0  0  0  0  0  0  0  0
  187.7670  177.9070  146.6430 N   0  0  0  0  0  0  0  0  0  0  0  0
  191.1550  176.7850  147.1740 N   0  0  0  0  0  2  0  0  0  0  0  0
  189.9260  177.0950  147.4300 C   0  0  0  0  0  3  0  0  0  0  0  0
  181.4320  177.5890  139.8230 C   0  0  0  0  0  2  0  0  0  0  0  0
  181.5960  178.7830  136.8250 Cl  0  0  0  0  0  0  0  0  0  0  0  0
  182.6070  176.3740  136.3740 N   0  0  0  0  0  0  0  0  0  0  0  0
  184.1610  174.7400  135.7000 N   0  0  0  0  0  1  0  0  0  0  0  0
  182.7170  175.5560  139.0710 C   0  0  0  0  0  2  0  0  0  0  0  0
  183.3970  175.3950  136.7040 C   0  0  0  0  0  0  0  0  0  0  0  0
  181.7730  177.0860  137.3430 C   0  0  1  0  0  3  0  0  0  0  0  0
  183.5420  175.0140  138.0420 O   0  0  0  0  0  0  0  0  0  0  0  0
  182.3640  177.0060  138.7570 C   0  0  1  0  0  3  0  0  0  0  0  0
  1  8  1  0  0  0  0
  1 11  1  0  0  0  0
  2  1  2  0  0  0  0
  4  7  2  0  0  0  0
  4  2  1  0  0  0  0
  5  6  2  0  0  0  0
  6  3  1  0  0  0  0
  7  9  1  0  0  0  0
  8  3  2  0  0  0  0
  9  5  1  0  0  0  0
  9  8  1  0  0  0  0
 10 13  2  0  0  0  0
 10 16  1  0  0  0  0
 11 12  1  0  0  0  0
 12 18  2  0  0  0  0
 13 19  1  0  0  0  0
 14 20  1  0  0  0  0
 14 22  1  0  0  0  0
 15 11  2  0  0  0  0
 15 13  1  0  0  0  0
 16 14  2  0  0  0  0
 18 17  1  0  0  0  0
 19 18  1  0  0  0  0
 19 20  2  0  0  0  0
 21 22  2  0  0  0  0
 23  7  1  0  0  0  0
 25 28  2  0  0  0  0
 25 29  1  0  0  0  0
 26 28  1  0  0  0  0
 28 30  1  0  0  0  0
 29 24  1  6  0  0  0
 29 31  1  0  0  0  0
 30 27  1  0  0  0  0
 31 27  1  0  0  0  0
 31 23  1  1  0  0  0
M  END
>  <MODEL>
3

>  <REMARK>
 VINA RESULT:      -9.4      2.329      3.172
  Name = 
  4 active torsions:
  status: ('A' for Active; 'I' for Inactive)
    1  A    between atoms: C_3  and  C_5
    2  A    between atoms: C_9  and  C_24
    3  A    between atoms: C_16  and  C_23
    4  A    between atoms: C_16  and  C_30
                            x       y       z     vdW  Elec       q    Type
                         _______ _______ _______ _____ _____    ______ ____

>  <TORSDO>
F 4

$$$$
=
 OpenBabel10222415313D

 31 35  0  0  1  0  0  0  0  0999 V2000
  185.1440  178.4610  142.2710 C   0  0  0  0  0  0  0  0  0  0  0  0
  185.2540  178.6940  140.8090 C   0  0  0  0  0  3  0  0  0  0  0  0
  183.5780  178.4820  144.1720 N   0  0  0  0  0  0  0  0  0  0  0  0
  184.1830  178.9270  140.0390 C   0  0  0  0  0  3  0  0  0  0  0  0
  181.6490  179.0090  142.8520 N   0  0  0  0  0  0  0  0  0  0  0  0
  182.1400  178.7610  144.2260 C   0  0  0  0  0  3  0  0  0  0  0  0
  182.7750  178.9170  140.5880 C   0  0  0  0  0  0  0  0  0  0  0  0
  183.9220  178.6030  142.8160 C   0  0  0  0  0  0  0  0  0  0  0  0
  182.7970  178.9350  142.0510 N   0  0  0  0  0  0  0  0  0  0  0  0
  187.3400  177.5670  146.5880 C   0  0  0  0  0  3  0  0  0  0  0  0
  186.3680  178.1210  143.0510 C   0  0  0  0  0  0  0  0  0  0  0  0
  187.6130  177.9260  142.4270 C   0  0  0  0  0  3  0  0  0  0  0  0
  187.4220  177.6870  145.2020 C   0  0  0  0  0  0  0  0  0  0  0  0
  189.7040  177.0650  146.6620 C   0  0  0  0  0  0  0  0  0  0  0  0
  186.2890  178.0000  144.4480 C   0  0  0  0  0  3  0  0  0  0  0  0
  188.4830  177.2540  147.3250 C   0  0  0  0  0  3  0  0  0  0  0  0
  189.9680  177.4250  142.5230 O   0  0  0  0  0  1  0  0  0  0  0  0
  188.7540  177.6130  143.1730 C   0  0  0  0  0  0  0  0  0  0  0  0
  188.6640  177.4910  144.5640 C   0  0  0  0  0  0  0  0  0  0  0  0
  189.7650  177.1880  145.3080 N   0  0  0  0  0  0  0  0  0  0  0  0
  192.0110  176.3820  146.7960 N   0  0  0  0  0  2  0  0  0  0  0  0
  190.9260  176.7360  147.4030 C   0  0  0  0  0  3  0  0  0  0  0  0
  182.0370  177.6690  140.1030 C   0  0  0  0  0  2  0  0  0  0  0  0
  181.5730  179.1380  137.2630 Cl  0  0  0  0  0  0  0  0  0  0  0  0
  182.1280  176.6980  136.3890 N   0  0  0  0  0  0  0  0  0  0  0  0
  183.2430  174.9920  135.2110 N   0  0  0  0  0  1  0  0  0  0  0  0
  182.8240  175.6040  138.8940 C   0  0  0  0  0  2  0  0  0  0  0  0
  182.8490  175.6160  136.4260 C   0  0  0  0  0  0  0  0  0  0  0  0
  181.6660  177.3880  137.5930 C   0  0  1  0  0  3  0  0  0  0  0  0
  183.2840  175.0890  137.6460 O   0  0  0  0  0  0  0  0  0  0  0  0
  182.5850  177.1070  138.7880 C   0  0  1  0  0  3  0  0  0  0  0  0
  1  8  1  0  0  0  0
  1 11  1  0  0  0  0
  2  1  2  0  0  0  0
  3  6  1  0  0  0  0
  4  7  2  0  0  0  0
  4  2  1  0  0  0  0
  5  6  2  0  0  0  0
  7  9  1  0  0  0  0
  8  3  2  0  0  0  0
  9  8  1  0  0  0  0
  9  5  1  0  0  0  0
 10 16  1  0  0  0  0
 11 15  2  0  0  0  0
 12 11  1  0  0  0  0
 12 18  2  0  0  0  0
 13 10  2  0  0  0  0
 14 16  2  0  0  0  0
 14 22  1  0  0  0  0
 15 13  1  0  0  0  0
 17 18  1  0  0  0  0
 18 19  1  0  0  0  0
 19 13  1  0  0  0  0
 19 20  2  0  0  0  0
 20 14  1  0  0  0  0
 21 22  2  0  0  0  0
 23  7  1  0  0  0  0
 25 28  2  0  0  0  0
 25 29  1  0  0  0  0
 26 28  1  0  0  0  0
 28 30  1  0  0  0  0
 29 24  1  6  0  0  0
 29 31  1  0  0  0  0
 30 27  1  0  0  0  0
 31 27  1  0  0  0  0
 31 23  1  1  0  0  0
M  END
>  <MODEL>
4

>  <REMARK>
 VINA RESULT:      -9.0      2.344      3.042
  Name = 
  4 active torsions:
  status: ('A' for Active; 'I' for Inactive)
    1  A    between atoms: C_3  and  C_5
    2  A    between atoms: C_9  and  C_24
    3  A    between atoms: C_16  and  C_23
    4  A    between atoms: C_16  and  C_30
                            x       y       z     vdW  Elec       q    Type
                         _______ _______ _______ _____ _____    ______ ____

>  <TORSDO>
F 4

$$$$
=
 OpenBabel10222415313D

 31 35  0  0  1  0  0  0  0  0999 V2000
  186.2590  178.3170  142.7170 C   0  0  0  0  0  0  0  0  0  0  0  0
  186.3670  178.6070  141.2650 C   0  0  0  0  0  3  0  0  0  0  0  0
  184.7110  178.3290  144.6330 N   0  0  0  0  0  0  0  0  0  0  0  0
  185.3010  178.9210  140.5160 C   0  0  0  0  0  3  0  0  0  0  0  0
  182.7980  179.0000  143.3560 N   0  0  0  0  0  0  0  0  0  0  0  0
  183.2890  178.6710  144.7140 C   0  0  0  0  0  3  0  0  0  0  0  0
  183.9000  178.9520  141.0790 C   0  0  0  0  0  0  0  0  0  0  0  0
  185.0490  178.4920  143.2800 C   0  0  0  0  0  0  0  0  0  0  0  0
  183.9350  178.9070  142.5410 N   0  0  0  0  0  0  0  0  0  0  0  0
  188.5610  177.5080  146.9950 C   0  0  0  0  0  3  0  0  0  0  0  0
  187.4720  177.8890  143.4690 C   0  0  0  0  0  0  0  0  0  0  0  0
  188.6480  177.4850  142.8110 C   0  0  0  0  0  3  0  0  0  0  0  0
  188.5810  177.5020  145.6010 C   0  0  0  0  0  0  0  0  0  0  0  0
  190.8460  176.7160  147.0080 C   0  0  0  0  0  0  0  0  0  0  0  0
  187.4560  177.8940  144.8730 C   0  0  0  0  0  3  0  0  0  0  0  0
  189.6960  177.1140  147.7060 C   0  0  0  0  0  3  0  0  0  0  0  0
  190.9240  176.6970  142.8460 O   0  0  0  0  0  1  0  0  0  0  0  0
  189.7800  177.0910  143.5300 C   0  0  0  0  0  0  0  0  0  0  0  0
  189.7530  177.0970  144.9290 C   0  0  0  0  0  0  0  0  0  0  0  0
  190.8460  176.7170  145.6470 N   0  0  0  0  0  0  0  0  0  0  0  0
  192.7540  175.2790  147.3290 N   0  0  0  0  0  2  0  0  0  0  0  0
  192.0560  176.2950  147.7210 C   0  0  0  0  0  3  0  0  0  0  0  0
  183.1000  177.7620  140.5500 C   0  0  0  0  0  2  0  0  0  0  0  0
  182.9970  175.9880  137.8510 Cl  0  0  0  0  0  0  0  0  0  0  0  0
  181.9920  178.2520  136.9060 N   0  0  0  0  0  0  0  0  0  0  0  0
  180.4480  179.7090  135.8880 N   0  0  0  0  0  1  0  0  0  0  0  0
  181.8280  179.5950  139.3810 C   0  0  0  0  0  2  0  0  0  0  0  0
  181.1940  179.2720  137.0170 C   0  0  0  0  0  0  0  0  0  0  0  0
  182.8070  177.7530  138.0140 C   0  0  1  0  0  3  0  0  0  0  0  0
  181.0220  179.9140  138.2490 O   0  0  0  0  0  0  0  0  0  0  0  0
  182.1880  178.1130  139.3710 C   0  0  1  0  0  3  0  0  0  0  0  0
  1  8  1  0  0  0  0
  1 11  1  0  0  0  0
  2  1  2  0  0  0  0
  3  6  1  0  0  0  0
  4  7  2  0  0  0  0
  4  2  1  0  0  0  0
  5  6  2  0  0  0  0
  7  9  1  0  0  0  0
  8  3  2  0  0  0  0
  9  8  1  0  0  0  0
  9  5  1  0  0  0  0
 10 16  1  0  0  0  0
 11 15  2  0  0  0  0
 12 11  1  0  0  0  0
 12 18  2  0  0  0  0
 13 10  2  0  0  0  0
 14 16  2  0  0  0  0
 14 22  1  0  0  0  0
 15 13  1  0  0  0  0
 17 18  1  0  0  0  0
 18 19  1  0  0  0  0
 19 13  1  0  0  0  0
 19 20  2  0  0  0  0
 20 14  1  0  0  0  0
 21 22  2  0  0  0  0
 23  7  1  0  0  0  0
 25 28  2  0  0  0  0
 25 29  1  0  0  0  0
 26 28  1  0  0  0  0
 28 30  1  0  0  0  0
 29 24  1  6  0  0  0
 29 31  1  0  0  0  0
 30 27  1  0  0  0  0
 31 27  1  0  0  0  0
 31 23  1  1  0  0  0
M  END
>  <MODEL>
5

>  <REMARK>
 VINA RESULT:      -9.0      1.592      2.012
  Name = 
  4 active torsions:
  status: ('A' for Active; 'I' for Inactive)
    1  A    between atoms: C_3  and  C_5
    2  A    between atoms: C_9  and  C_24
    3  A    between atoms: C_16  and  C_23
    4  A    between atoms: C_16  and  C_30
                            x       y       z     vdW  Elec       q    Type
                         _______ _______ _______ _____ _____    ______ ____

>  <TORSDO>
F 4

$$$$
=
 OpenBabel10222415313D

 31 35  0  0  1  0  0  0  0  0999 V2000
  185.5390  177.9660  143.5740 C   0  0  0  0  0  0  0  0  0  0  0  0
  186.6100  177.1300  142.9760 C   0  0  0  0  0  3  0  0  0  0  0  0
  184.7550  178.9830  145.6760 N   0  0  0  0  0  0  0  0  0  0  0  0
  187.7010  176.7660  143.6640 C   0  0  0  0  0  3  0  0  0  0  0  0
  186.6320  178.2580  146.9760 N   0  0  0  0  0  0  0  0  0  0  0  0
  185.3390  178.9790  147.0200 C   0  0  0  0  0  3  0  0  0  0  0  0
  187.9510  177.2210  145.0820 C   0  0  0  0  0  0  0  0  0  0  0  0
  185.6560  178.2550  144.8830 C   0  0  0  0  0  0  0  0  0  0  0  0
  186.7400  177.8130  145.6510 N   0  0  0  0  0  0  0  0  0  0  0  0
  183.7460  179.2550  139.1710 C   0  0  0  0  0  3  0  0  0  0  0  0
  184.3970  178.4070  142.7250 C   0  0  0  0  0  0  0  0  0  0  0  0
  183.1140  178.6250  143.2600 C   0  0  0  0  0  3  0  0  0  0  0  0
  183.5440  179.0420  140.5340 C   0  0  0  0  0  0  0  0  0  0  0  0
  181.4200  179.8760  138.9470 C   0  0  0  0  0  0  0  0  0  0  0  0
  184.5960  178.6240  141.3510 C   0  0  0  0  0  3  0  0  0  0  0  0
  182.6830  179.6740  138.3710 C   0  0  0  0  0  3  0  0  0  0  0  0
  180.8010  179.2490  143.0150 O   0  0  0  0  0  1  0  0  0  0  0  0
  182.0540  179.0440  142.4510 C   0  0  0  0  0  0  0  0  0  0  0  0
  182.2630  179.2550  141.0840 C   0  0  0  0  0  0  0  0  0  0  0  0
  181.2430  179.6640  140.2790 N   0  0  0  0  0  0  0  0  0  0  0  0
  180.4420  181.0210  137.0650 N   0  0  0  0  0  2  0  0  0  0  0  0
  180.2800  180.3160  138.1370 C   0  0  0  0  0  3  0  0  0  0  0  0
  189.0820  178.2500  145.1060 C   0  0  0  0  0  2  0  0  0  0  0  0
  191.6290  176.9410  143.6100 Cl  0  0  0  0  0  0  0  0  0  0  0  0
  192.0570  176.0160  146.0570 N   0  0  0  0  0  0  0  0  0  0  0  0
  193.1790  175.6300  148.0900 N   0  0  0  0  0  1  0  0  0  0  0  0
  189.9920  177.4640  147.3200 C   0  0  0  0  0  2  0  0  0  0  0  0
  192.1080  176.1930  147.3440 C   0  0  0  0  0  0  0  0  0  0  0  0
  190.9790  176.5450  145.2220 C   0  0  1  0  0  3  0  0  0  0  0  0
  191.1480  176.9750  147.9960 O   0  0  0  0  0  0  0  0  0  0  0  0
  190.3250  177.7750  145.8640 C   0  0  1  0  0  3  0  0  0  0  0  0
  1  8  1  0  0  0  0
  2  1  2  0  0  0  0
  2  4  1  0  0  0  0
  3  6  1  0  0  0  0
  4  7  2  0  0  0  0
  5  6  2  0  0  0  0
  7 23  1  0  0  0  0
  7  9  1  0  0  0  0
  8  9  1  0  0  0  0
  8  3  2  0  0  0  0
  9  5  1  0  0  0  0
 10 13  1  0  0  0  0
 11 12  1  0  0  0  0
 11  1  1  0  0  0  0
 13 19  2  0  0  0  0
 13 15  1  0  0  0  0
 14 20  2  0  0  0  0
 15 11  2  0  0  0  0
 16 14  1  0  0  0  0
 16 10  2  0  0  0  0
 18 17  1  0  0  0  0
 18 12  2  0  0  0  0
 19 18  1  0  0  0  0
 20 19  1  0  0  0  0
 21 22  2  0  0  0  0
 22 14  1  0  0  0  0
 25 28  2  0  0  0  0
 27 30  1  0  0  0  0
 28 30  1  0  0  0  0
 28 26  1  0  0  0  0
 29 24  1  6  0  0  0
 29 31  1  0  0  0  0
 29 25  1  0  0  0  0
 31 23  1  6  0  0  0
 31 27  1  0  0  0  0
M  END
>  <MODEL>
6

>  <REMARK>
 VINA RESULT:      -8.9      2.396      9.735
  Name = 
  4 active torsions:
  status: ('A' for Active; 'I' for Inactive)
    1  A    between atoms: C_3  and  C_5
    2  A    between atoms: C_9  and  C_24
    3  A    between atoms: C_16  and  C_23
    4  A    between atoms: C_16  and  C_30
                            x       y       z     vdW  Elec       q    Type
                         _______ _______ _______ _____ _____    ______ ____

>  <TORSDO>
F 4

$$$$
=
 OpenBabel10222415313D

 31 35  0  0  1  0  0  0  0  0999 V2000
  190.7730  177.1570  140.3300 C   0  0  0  0  0  0  0  0  0  0  0  0
  192.2500  177.2990  140.3900 C   0  0  0  0  0  3  0  0  0  0  0  0
  188.8740  176.7960  138.8040 N   0  0  0  0  0  0  0  0  0  0  0  0
  193.0320  177.0970  139.3210 C   0  0  0  0  0  3  0  0  0  0  0  0
  190.2250  176.5390  136.8420 N   0  0  0  0  0  0  0  0  0  0  0  0
  188.8360  176.5770  137.3560 C   0  0  0  0  0  3  0  0  0  0  0  0
  192.4780  176.6570  137.9860 C   0  0  0  0  0  0  0  0  0  0  0  0
  190.2370  176.9210  139.1190 C   0  0  0  0  0  0  0  0  0  0  0  0
  191.0220  176.7940  137.9660 N   0  0  0  0  0  0  0  0  0  0  0  0
  190.5050  177.1790  145.2480 C   0  0  0  0  0  3  0  0  0  0  0  0
  189.9740  177.3100  141.5780 C   0  0  0  0  0  0  0  0  0  0  0  0
  188.5930  177.5770  141.5460 C   0  0  0  0  0  3  0  0  0  0  0  0
  189.8760  177.3110  144.0110 C   0  0  0  0  0  0  0  0  0  0  0  0
  188.3870  177.5840  146.3420 C   0  0  0  0  0  0  0  0  0  0  0  0
  190.6030  177.1770  142.8270 C   0  0  0  0  0  3  0  0  0  0  0  0
  189.7610  177.3150  146.4210 C   0  0  0  0  0  3  0  0  0  0  0  0
  186.4930  177.9770  142.6560 O   0  0  0  0  0  1  0  0  0  0  0  0
  187.8550  177.7120  142.7260 C   0  0  0  0  0  0  0  0  0  0  0  0
  188.4930  177.5810  143.9650 C   0  0  0  0  0  0  0  0  0  0  0  0
  187.7910  177.7090  145.1250 N   0  0  0  0  0  0  0  0  0  0  0  0
  188.1160  177.8480  148.7220 N   0  0  0  0  0  2  0  0  0  0  0  0
  187.5740  177.7340  147.5530 C   0  0  0  0  0  3  0  0  0  0  0  0
  192.8570  175.2000  137.7220 C   0  0  0  0  0  2  0  0  0  0  0  0
  195.2060  173.2110  138.7050 Cl  0  0  0  0  0  0  0  0  0  0  0  0
  196.6320  174.8020  137.1360 N   0  0  0  0  0  0  0  0  0  0  0  0
  198.0510  175.4410  135.3700 N   0  0  0  0  0  1  0  0  0  0  0  0
  194.4590  176.2690  136.0970 C   0  0  0  0  0  2  0  0  0  0  0  0
  196.7880  175.4540  136.0220 C   0  0  0  0  0  0  0  0  0  0  0  0
  195.3720  174.7810  137.8780 C   0  0  1  0  0  3  0  0  0  0  0  0
  195.7120  176.1250  135.4310 O   0  0  0  0  0  0  0  0  0  0  0  0
  194.1740  175.0400  136.9550 C   0  0  1  0  0  3  0  0  0  0  0  0
  1  2  2  0  0  0  0
  1 11  1  0  0  0  0
  3  8  2  0  0  0  0
  4  2  1  0  0  0  0
  5  6  2  0  0  0  0
  5  9  1  0  0  0  0
  6  3  1  0  0  0  0
  7  4  2  0  0  0  0
  8  1  1  0  0  0  0
  9  7  1  0  0  0  0
  9  8  1  0  0  0  0
 10 16  1  0  0  0  0
 11 15  2  0  0  0  0
 12 11  1  0  0  0  0
 12 18  2  0  0  0  0
 13 10  2  0  0  0  0
 14 16  2  0  0  0  0
 14 22  1  0  0  0  0
 15 13  1  0  0  0  0
 17 18  1  0  0  0  0
 18 19  1  0  0  0  0
 19 13  1  0  0  0  0
 19 20  2  0  0  0  0
 20 14  1  0  0  0  0
 22 21  2  0  0  0  0
 23  7  1  0  0  0  0
 25 29  1  0  0  0  0
 26 28  1  0  0  0  0
 27 31  1  0  0  0  0
 28 25  2  0  0  0  0
 29 24  1  6  0  0  0
 30 28  1  0  0  0  0
 30 27  1  0  0  0  0
 31 23  1  1  0  0  0
 31 29  1  0  0  0  0
M  END
>  <MODEL>
7

>  <REMARK>
 VINA RESULT:      -8.7      7.097      9.328
  Name = 
  4 active torsions:
  status: ('A' for Active; 'I' for Inactive)
    1  A    between atoms: C_3  and  C_5
    2  A    between atoms: C_9  and  C_24
    3  A    between atoms: C_16  and  C_23
    4  A    between atoms: C_16  and  C_30
                            x       y       z     vdW  Elec       q    Type
                         _______ _______ _______ _____ _____    ______ ____

>  <TORSDO>
F 4

$$$$
=
 OpenBabel10222415313D

 31 35  0  0  1  0  0  0  0  0999 V2000
  190.9490  177.2840  143.0420 C   0  0  0  0  0  0  0  0  0  0  0  0
  190.3520  178.5090  143.6310 C   0  0  0  0  0  3  0  0  0  0  0  0
  192.0600  175.1560  143.5920 N   0  0  0  0  0  0  0  0  0  0  0  0
  190.1800  178.6570  144.9520 C   0  0  0  0  0  3  0  0  0  0  0  0
  191.8780  175.4280  145.9650 N   0  0  0  0  0  0  0  0  0  0  0  0
  192.3880  174.5510  144.8860 C   0  0  0  0  0  3  0  0  0  0  0  0
  190.5300  177.5690  145.9390 C   0  0  0  0  0  0  0  0  0  0  0  0
  191.4160  176.3640  143.9050 C   0  0  0  0  0  0  0  0  0  0  0  0
  191.3320  176.5300  145.2930 N   0  0  0  0  0  0  0  0  0  0  0  0
  188.7230  176.7530  138.6810 C   0  0  0  0  0  3  0  0  0  0  0  0
  191.0290  177.1500  141.5600 C   0  0  0  0  0  0  0  0  0  0  0  0
  192.2610  177.1440  140.8810 C   0  0  0  0  0  3  0  0  0  0  0  0
  189.8970  176.8850  139.4210 C   0  0  0  0  0  0  0  0  0  0  0  0
  190.0410  176.6240  136.6580 C   0  0  0  0  0  0  0  0  0  0  0  0
  189.8490  177.0160  140.8100 C   0  0  0  0  0  3  0  0  0  0  0  0
  188.7910  176.6220  137.2930 C   0  0  0  0  0  3  0  0  0  0  0  0
  193.5560  177.0120  138.8540 O   0  0  0  0  0  1  0  0  0  0  0  0
  192.3210  177.0130  139.4910 C   0  0  0  0  0  0  0  0  0  0  0  0
  191.1380  176.8830  138.7530 C   0  0  0  0  0  0  0  0  0  0  0  0
  191.1760  176.7530  137.3980 N   0  0  0  0  0  0  0  0  0  0  0  0
  191.1880  175.9490  134.6480 N   0  0  0  0  0  2  0  0  0  0  0  0
  190.1510  176.4880  135.2020 C   0  0  0  0  0  3  0  0  0  0  0  0
  189.2520  176.9490  146.5040 C   0  0  0  0  0  2  0  0  0  0  0  0
  187.7690  178.8190  148.6820 Cl  0  0  0  0  0  0  0  0  0  0  0  0
  185.7640  178.4850  146.9800 N   0  0  0  0  0  0  0  0  0  0  0  0
  184.0510  179.0570  145.4700 N   0  0  0  0  0  1  0  0  0  0  0  0
  187.2440  177.1340  144.9950 C   0  0  0  0  0  2  0  0  0  0  0  0
  185.3020  178.4480  145.7650 C   0  0  0  0  0  0  0  0  0  0  0  0
  187.0310  177.8650  147.3690 C   0  0  1  0  0  3  0  0  0  0  0  0
  186.0440  177.8600  144.7360 O   0  0  0  0  0  0  0  0  0  0  0  0
  187.9880  177.7490  146.1760 C   0  0  1  0  0  3  0  0  0  0  0  0
  1  2  2  0  0  0  0
  1  8  1  0  0  0  0
  2  4  1  0  0  0  0
  3  8  2  0  0  0  0
  3  6  1  0  0  0  0
  4  7  2  0  0  0  0
  6  5  2  0  0  0  0
  7 23  1  0  0  0  0
  8  9  1  0  0  0  0
  9  7  1  0  0  0  0
  9  5  1  0  0  0  0
 10 13  1  0  0  0  0
 11  1  1  0  0  0  0
 12 11  1  0  0  0  0
 13 15  1  0  0  0  0
 14 16  1  0  0  0  0
 14 20  2  0  0  0  0
 15 11  2  0  0  0  0
 16 10  2  0  0  0  0
 17 18  1  0  0  0  0
 18 12  2  0  0  0  0
 19 13  2  0  0  0  0
 19 18  1  0  0  0  0
 20 19  1  0  0  0  0
 21 22  2  0  0  0  0
 22 14  1  0  0  0  0
 25 29  1  0  0  0  0
 26 28  1  0  0  0  0
 27 31  1  0  0  0  0
 28 25  2  0  0  0  0
 29 24  1  1  0  0  0
 30 27  1  0  0  0  0
 30 28  1  0  0  0  0
 31 23  1  1  0  0  0
 31 29  1  0  0  0  0
M  END
>  <MODEL>
8

>  <REMARK>
 VINA RESULT:      -8.7      5.059      8.693
  Name = 
  4 active torsions:
  status: ('A' for Active; 'I' for Inactive)
    1  A    between atoms: C_3  and  C_5
    2  A    between atoms: C_9  and  C_24
    3  A    between atoms: C_16  and  C_23
    4  A    between atoms: C_16  and  C_30
                            x       y       z     vdW  Elec       q    Type
                         _______ _______ _______ _____ _____    ______ ____

>  <TORSDO>
F 4

$$$$
=
 OpenBabel10222415313D

 31 35  0  0  1  0  0  0  0  0999 V2000
  185.1210  178.6090  140.7090 C   0  0  0  0  0  0  0  0  0  0  0  0
  184.7490  178.6430  142.1450 C   0  0  0  0  0  3  0  0  0  0  0  0
  187.0280  178.5020  139.1540 N   0  0  0  0  0  0  0  0  0  0  0  0
  185.6510  178.4730  143.1220 C   0  0  0  0  0  3  0  0  0  0  0  0
  188.6890  178.3070  140.8690 N   0  0  0  0  0  0  0  0  0  0  0  0
  188.4670  178.4010  139.4070 C   0  0  0  0  0  3  0  0  0  0  0  0
  187.1050  178.1780  142.8370 C   0  0  0  0  0  0  0  0  0  0  0  0
  186.4320  178.5070  140.4250 C   0  0  0  0  0  0  0  0  0  0  0  0
  187.4070  178.4170  141.4260 N   0  0  0  0  0  0  0  0  0  0  0  0
  181.7410  181.2930  138.3360 C   0  0  0  0  0  3  0  0  0  0  0  0
  184.0520  178.7180  139.6750 C   0  0  0  0  0  0  0  0  0  0  0  0
  183.6690  177.6190  138.8860 C   0  0  0  0  0  3  0  0  0  0  0  0
  182.3890  180.0730  138.5250 C   0  0  0  0  0  0  0  0  0  0  0  0
  180.3870  180.2800  136.6070 C   0  0  0  0  0  0  0  0  0  0  0  0
  183.3960  179.9450  139.4820 C   0  0  0  0  0  3  0  0  0  0  0  0
  180.7350  181.4010  137.3740 C   0  0  0  0  0  3  0  0  0  0  0  0
  182.3090  176.6290  137.1610 O   0  0  0  0  0  1  0  0  0  0  0  0
  182.6610  177.7360  137.9240 C   0  0  0  0  0  0  0  0  0  0  0  0
  182.0150  178.9640  137.7380 C   0  0  0  0  0  0  0  0  0  0  0  0
  181.0300  179.0970  136.8070 N   0  0  0  0  0  0  0  0  0  0  0  0
  179.0250  181.4760  135.0190 N   0  0  0  0  0  2  0  0  0  0  0  0
  179.3360  180.3560  135.5870 C   0  0  0  0  0  3  0  0  0  0  0  0
  187.4190  176.7240  143.1870 C   0  0  0  0  0  2  0  0  0  0  0  0
  186.9970  177.5690  146.2780 Cl  0  0  0  0  0  0  0  0  0  0  0  0
  189.6460  177.6050  146.1900 N   0  0  0  0  0  0  0  0  0  0  0  0
  191.8660  177.0550  146.7480 N   0  0  0  0  0  1  0  0  0  0  0  0
  189.9010  176.5530  143.5850 C   0  0  0  0  0  2  0  0  0  0  0  0
  190.7760  177.0700  145.8340 C   0  0  0  0  0  0  0  0  0  0  0  0
  188.4850  177.6780  145.3020 C   0  0  1  0  0  3  0  0  0  0  0  0
  190.9170  176.4640  144.5810 O   0  0  0  0  0  0  0  0  0  0  0  0
  188.5220  176.5730  144.2380 C   0  0  1  0  0  3  0  0  0  0  0  0
  1  2  2  0  0  0  0
  2  4  1  0  0  0  0
  3  6  1  0  0  0  0
  3  8  2  0  0  0  0
  5  9  1  0  0  0  0
  6  5  2  0  0  0  0
  7  4  2  0  0  0  0
  7 23  1  0  0  0  0
  8  1  1  0  0  0  0
  8  9  1  0  0  0  0
  9  7  1  0  0  0  0
 10 13  1  0  0  0  0
 11  1  1  0  0  0  0
 12 11  2  0  0  0  0
 13 15  2  0  0  0  0
 14 20  2  0  0  0  0
 14 16  1  0  0  0  0
 15 11  1  0  0  0  0
 16 10  2  0  0  0  0
 17 18  1  0  0  0  0
 18 12  1  0  0  0  0
 19 18  2  0  0  0  0
 19 13  1  0  0  0  0
 20 19  1  0  0  0  0
 21 22  2  0  0  0  0
 22 14  1  0  0  0  0
 27 31  1  0  0  0  0
 27 30  1  0  0  0  0
 28 25  2  0  0  0  0
 28 26  1  0  0  0  0
 29 25  1  0  0  0  0
 29 24  1  1  0  0  0
 30 28  1  0  0  0  0
 31 23  1  6  0  0  0
 31 29  1  0  0  0  0
M  END
>  <MODEL>
9

>  <REMARK>
 VINA RESULT:      -8.5      2.863     10.473
  Name = 
  4 active torsions:
  status: ('A' for Active; 'I' for Inactive)
    1  A    between atoms: C_3  and  C_5
    2  A    between atoms: C_9  and  C_24
    3  A    between atoms: C_16  and  C_23
    4  A    between atoms: C_16  and  C_30
                            x       y       z     vdW  Elec       q    Type
                         _______ _______ _______ _____ _____    ______ ____

>  <TORSDO>
F 4

$$$$
