=
 OpenBabel10222417003D

 30 33  0  0  1  0  0  0  0  0999 V2000
  189.3860  177.0740  140.8040 O   0  0  0  0  0  0  0  0  0  0  0  0
  185.8160  177.9080  144.8910 N   0  0  0  0  0  0  0  0  0  0  0  0
  181.4190  179.2470  143.4500 N   0  0  0  0  0  1  0  0  0  0  0  0
  182.7850  178.9780  143.1680 C   0  0  0  0  0  0  0  0  0  0  0  0
  184.5640  178.8870  141.5940 C   0  0  0  0  0  0  0  0  0  0  0  0
  185.4570  178.4440  142.5850 C   0  0  0  0  0  0  0  0  0  0  0  0
  183.2630  179.1410  141.9060 N   0  0  0  0  0  0  0  0  0  0  0  0
  184.3290  179.6540  139.3610 O   0  0  0  0  0  0  0  0  0  0  0  0
  186.8110  178.1520  142.2890 C   0  0  0  0  0  0  0  0  0  0  0  0
  184.9780  178.3000  143.9020 C   0  0  0  0  0  0  0  0  0  0  0  0
  186.4120  178.8930  139.9690 O   0  0  0  0  0  0  0  0  0  0  0  0
  185.0720  179.1510  140.2460 C   0  0  0  0  0  0  0  0  0  0  0  0
  189.5600  176.6620  142.1230 C   0  0  0  0  0  0  0  0  0  0  0  0
  189.1490  177.5350  143.2650 C   0  0  2  0  0  3  0  0  0  0  0  0
  187.1250  177.6490  144.6510 C   0  0  0  0  0  3  0  0  0  0  0  0
  183.6390  178.5610  144.1920 C   0  0  0  0  0  3  0  0  0  0  0  0
  187.6610  177.7560  143.3630 C   0  0  0  0  0  0  0  0  0  0  0  0
  188.6690  178.2580  140.4910 C   0  0  0  0  0  2  0  0  0  0  0  0
  190.0960  175.5490  142.3590 O   0  0  0  0  0  0  0  0  0  0  0  0
  187.2000  178.0520  140.8100 C   0  0  1  0  0  3  0  0  0  0  0  0
  189.9290  178.8460  143.2630 C   0  0  0  0  0  2  0  0  0  0  0  0
  191.7010  178.5590  143.5610 S   0  0  0  0  0  0  0  0  0  0  0  0
  191.4240  178.1280  145.3010 C   0  0  0  0  0  2  0  0  0  0  0  0
  191.7610  176.3630  145.5490 S   0  0  0  0  0  0  0  0  0  0  0  0
  192.0020  176.9010  148.1230 O   0  0  0  0  0  0  0  0  0  0  0  0
  191.2230  176.4300  147.2510 C   0  0  0  0  0  0  0  0  0  0  0  0
  189.9060  175.9690  147.5870 N   0  0  0  0  0  0  0  0  0  0  0  0
  188.8620  176.6980  147.8610 C   0  0  0  0  0  3  0  0  0  0  0  0
  187.5270  178.6790  148.1930 N   0  0  0  0  0  1  0  0  0  0  0  0
  188.8660  178.1920  147.9110 C   0  0  0  0  0  2  0  0  0  0  0  0
  1 13  1  0  0  0  0
  4  3  1  0  0  0  0
  4 16  2  0  0  0  0
  5  7  2  0  0  0  0
  5  6  1  0  0  0  0
  6 10  1  0  0  0  0
  7  4  1  0  0  0  0
  8 12  2  0  0  0  0
  9  6  2  0  0  0  0
  9 17  1  0  0  0  0
 10 16  1  0  0  0  0
 10  2  2  0  0  0  0
 11 12  1  0  0  0  0
 11 20  1  0  0  0  0
 12  5  1  0  0  0  0
 13 19  2  0  0  0  0
 13 14  1  0  0  0  0
 14 21  1  6  0  0  0
 14 17  1  0  0  0  0
 15  2  1  0  0  0  0
 17 15  2  0  0  0  0
 18  1  1  0  0  0  0
 20 18  1  1  0  0  0
 20  9  1  0  0  0  0
 21 22  1  0  0  0  0
 22 23  1  0  0  0  0
 23 24  1  0  0  0  0
 24 26  1  0  0  0  0
 26 27  1  0  0  0  0
 26 25  2  0  0  0  0
 27 28  2  0  0  0  0
 28 30  1  0  0  0  0
 30 29  1  0  0  0  0
M  END
>  <MODEL>
1

>  <REMARK>
 VINA RESULT:      -7.4      0.000      0.000
  Name = 
  7 active torsions:
  status: ('A' for Active; 'I' for Inactive)
    1  A    between atoms: C_1  and  S_8
    2  A    between atoms: C_1  and  S_18
    3  A    between atoms: S_8  and  C_11
    4  A    between atoms: N_9  and  C_21
    5  A    between atoms: C_11  and  C_24
    6  A    between atoms: C_16  and  C_20
    7  A    between atoms: S_18  and  C_21
                            x       y       z     vdW  Elec       q    Type
                         _______ _______ _______ _____ _____    ______ ____

>  <TORSDO>
F 7

$$$$
=
 OpenBabel10222417003D

 30 33  0  0  1  0  0  0  0  0999 V2000
  190.1980  177.9840  138.3950 O   0  0  0  0  0  0  0  0  0  0  0  0
  186.0070  178.5470  141.8970 N   0  0  0  0  0  0  0  0  0  0  0  0
  187.0630  177.4260  146.4610 N   0  0  0  0  0  1  0  0  0  0  0  0
  187.4090  177.4620  145.0830 C   0  0  0  0  0  0  0  0  0  0  0  0
  188.9720  176.9760  143.3590 C   0  0  0  0  0  0  0  0  0  0  0  0
  188.1190  177.5320  142.3900 C   0  0  0  0  0  0  0  0  0  0  0  0
  188.6000  176.9540  144.6690 N   0  0  0  0  0  0  0  0  0  0  0  0
  190.9590  175.7420  143.7510 O   0  0  0  0  0  0  0  0  0  0  0  0
  188.4850  177.5880  141.0220 C   0  0  0  0  0  0  0  0  0  0  0  0
  186.8700  178.0340  142.8050 C   0  0  0  0  0  0  0  0  0  0  0  0
  190.5610  176.3770  141.5790 O   0  0  0  0  0  0  0  0  0  0  0  0
  190.2230  176.3470  142.9290 C   0  0  0  0  0  0  0  0  0  0  0  0
  189.0150  178.6700  138.1320 C   0  0  0  0  0  0  0  0  0  0  0  0
  187.6960  178.1420  138.5990 C   0  0  2  0  0  3  0  0  0  0  0  0
  186.3100  178.5890  140.5760 C   0  0  0  0  0  3  0  0  0  0  0  0
  186.5180  178.0040  144.1550 C   0  0  0  0  0  3  0  0  0  0  0  0
  187.5390  178.1230  140.0980 C   0  0  0  0  0  0  0  0  0  0  0  0
  190.2180  176.8510  139.2480 C   0  0  0  0  0  2  0  0  0  0  0  0
  189.0510  179.7380  137.4680 O   0  0  0  0  0  0  0  0  0  0  0  0
  189.9470  177.2940  140.6740 C   0  0  1  0  0  3  0  0  0  0  0  0
  187.3940  176.7850  137.9700 C   0  0  0  0  0  2  0  0  0  0  0  0
  187.7410  176.7950  136.1840 S   0  0  0  0  0  0  0  0  0  0  0  0
  188.6680  175.2380  136.2700 C   0  0  0  0  0  2  0  0  0  0  0  0
  190.3350  175.4870  135.5990 S   0  0  0  0  0  0  0  0  0  0  0  0
  190.2940  173.6920  137.5360 O   0  0  0  0  0  0  0  0  0  0  0  0
  191.0190  174.2090  136.6430 C   0  0  0  0  0  0  0  0  0  0  0  0
  192.3720  173.7810  136.4290 N   0  0  0  0  0  0  0  0  0  0  0  0
  193.4490  174.2670  136.9750 C   0  0  0  0  0  3  0  0  0  0  0  0
  193.7700  176.6460  137.2060 N   0  0  0  0  0  1  0  0  0  0  0  0
  193.4640  175.4220  137.9250 C   0  0  0  0  0  2  0  0  0  0  0  0
  1 18  1  0  0  0  0
  2 10  1  0  0  0  0
  4  3  1  0  0  0  0
  5  7  2  0  0  0  0
  6 10  2  0  0  0  0
  6  5  1  0  0  0  0
  7  4  1  0  0  0  0
  9  6  1  0  0  0  0
 10 16  1  0  0  0  0
 11 12  1  0  0  0  0
 12  5  1  0  0  0  0
 12  8  2  0  0  0  0
 13  1  1  0  0  0  0
 13 14  1  0  0  0  0
 14 21  1  1  0  0  0
 14 17  1  0  0  0  0
 15  2  2  0  0  0  0
 16  4  2  0  0  0  0
 17 15  1  0  0  0  0
 17  9  2  0  0  0  0
 19 13  2  0  0  0  0
 20 18  1  6  0  0  0
 20  9  1  0  0  0  0
 20 11  1  0  0  0  0
 22 23  1  0  0  0  0
 22 21  1  0  0  0  0
 24 23  1  0  0  0  0
 24 26  1  0  0  0  0
 26 25  2  0  0  0  0
 27 26  1  0  0  0  0
 27 28  2  0  0  0  0
 28 30  1  0  0  0  0
 29 30  1  0  0  0  0
M  END
>  <MODEL>
2

>  <REMARK>
 VINA RESULT:      -7.2      4.664      7.269
  Name = 
  7 active torsions:
  status: ('A' for Active; 'I' for Inactive)
    1  A    between atoms: C_1  and  S_8
    2  A    between atoms: C_1  and  S_18
    3  A    between atoms: S_8  and  C_11
    4  A    between atoms: N_9  and  C_21
    5  A    between atoms: C_11  and  C_24
    6  A    between atoms: C_16  and  C_20
    7  A    between atoms: S_18  and  C_21
                            x       y       z     vdW  Elec       q    Type
                         _______ _______ _______ _____ _____    ______ ____

>  <TORSDO>
F 7

$$$$
=
 OpenBabel10222417003D

 30 33  0  0  1  0  0  0  0  0999 V2000
  190.2750  177.9620  138.5740 O   0  0  0  0  0  0  0  0  0  0  0  0
  186.3750  178.4710  142.4050 N   0  0  0  0  0  0  0  0  0  0  0  0
  187.7960  177.3020  146.8570 N   0  0  0  0  0  1  0  0  0  0  0  0
  188.0310  177.3550  145.4560 C   0  0  0  0  0  0  0  0  0  0  0  0
  189.4520  176.8940  143.6080 C   0  0  0  0  0  0  0  0  0  0  0  0
  188.5230  177.4580  142.7160 C   0  0  0  0  0  0  0  0  0  0  0  0
  189.1870  176.8570  144.9430 N   0  0  0  0  0  0  0  0  0  0  0  0
  191.4680  175.6630  143.8260 O   0  0  0  0  0  0  0  0  0  0  0  0
  188.7780  177.5310  141.3250 C   0  0  0  0  0  0  0  0  0  0  0  0
  187.3100  177.9510  143.2360 C   0  0  0  0  0  0  0  0  0  0  0  0
  190.8960  176.3210  141.6990 O   0  0  0  0  0  0  0  0  0  0  0  0
  190.6660  176.2750  143.0720 C   0  0  0  0  0  0  0  0  0  0  0  0
  189.0730  178.6470  138.4140 C   0  0  0  0  0  0  0  0  0  0  0  0
  187.7970  178.1090  138.9780 C   0  0  2  0  0  3  0  0  0  0  0  0
  186.5720  178.5280  141.0650 C   0  0  0  0  0  3  0  0  0  0  0  0
  187.0670  177.9050  144.6090 C   0  0  0  0  0  3  0  0  0  0  0  0
  187.7610  178.0720  140.4850 C   0  0  0  0  0  0  0  0  0  0  0  0
  190.3660  176.8200  139.4100 C   0  0  0  0  0  2  0  0  0  0  0  0
  189.0530  179.7220  137.7610 O   0  0  0  0  0  0  0  0  0  0  0  0
  190.2090  177.2460  140.8570 C   0  0  1  0  0  3  0  0  0  0  0  0
  187.4490  176.7580  138.3600 C   0  0  0  0  0  2  0  0  0  0  0  0
  186.4340  176.9610  136.8630 S   0  0  0  0  0  0  0  0  0  0  0  0
  185.4650  178.3050  137.6010 C   0  0  0  0  0  2  0  0  0  0  0  0
  183.9250  177.6370  138.2870 S   0  0  0  0  0  0  0  0  0  0  0  0
  184.3260  180.1520  138.9850 O   0  0  0  0  0  0  0  0  0  0  0  0
  183.4960  179.2040  139.0290 C   0  0  0  0  0  0  0  0  0  0  0  0
  182.2060  179.3590  139.6370 N   0  0  0  0  0  0  0  0  0  0  0  0
  181.8570  179.0170  140.8450 C   0  0  0  0  0  3  0  0  0  0  0  0
  182.7620  179.0800  143.0790 N   0  0  0  0  0  1  0  0  0  0  0  0
  182.7640  178.3460  141.8250 C   0  0  0  0  0  2  0  0  0  0  0  0
  1 18  1  0  0  0  0
  2 10  1  0  0  0  0
  4  3  1  0  0  0  0
  5  7  2  0  0  0  0
  6 10  2  0  0  0  0
  6  5  1  0  0  0  0
  7  4  1  0  0  0  0
  9  6  1  0  0  0  0
 10 16  1  0  0  0  0
 11 12  1  0  0  0  0
 12  5  1  0  0  0  0
 12  8  2  0  0  0  0
 13  1  1  0  0  0  0
 13 14  1  0  0  0  0
 14 21  1  6  0  0  0
 14 17  1  0  0  0  0
 15  2  2  0  0  0  0
 16  4  2  0  0  0  0
 17 15  1  0  0  0  0
 17  9  2  0  0  0  0
 19 13  2  0  0  0  0
 20 18  1  6  0  0  0
 20  9  1  0  0  0  0
 20 11  1  0  0  0  0
 22 23  1  0  0  0  0
 22 21  1  0  0  0  0
 23 24  1  0  0  0  0
 24 26  1  0  0  0  0
 25 26  2  0  0  0  0
 26 27  1  0  0  0  0
 27 28  2  0  0  0  0
 28 30  1  0  0  0  0
 30 29  1  0  0  0  0
M  END
>  <MODEL>
3

>  <REMARK>
 VINA RESULT:      -7.1      3.181      7.000
  Name = 
  7 active torsions:
  status: ('A' for Active; 'I' for Inactive)
    1  A    between atoms: C_1  and  S_8
    2  A    between atoms: C_1  and  S_18
    3  A    between atoms: S_8  and  C_11
    4  A    between atoms: N_9  and  C_21
    5  A    between atoms: C_11  and  C_24
    6  A    between atoms: C_16  and  C_20
    7  A    between atoms: S_18  and  C_21
                            x       y       z     vdW  Elec       q    Type
                         _______ _______ _______ _____ _____    ______ ____

>  <TORSDO>
F 7

$$$$
=
 OpenBabel10222417003D

 30 33  0  0  1  0  0  0  0  0999 V2000
  189.7650  178.3430  145.6820 O   0  0  0  0  0  0  0  0  0  0  0  0
  185.9270  178.5480  141.7610 N   0  0  0  0  0  0  0  0  0  0  0  0
  181.4480  179.2380  143.3970 N   0  0  0  0  0  1  0  0  0  0  0  0
  182.8240  178.9710  143.6310 C   0  0  0  0  0  0  0  0  0  0  0  0
  184.5820  178.5220  145.1660 C   0  0  0  0  0  0  0  0  0  0  0  0
  185.5190  178.4600  144.1200 C   0  0  0  0  0  0  0  0  0  0  0  0
  183.2710  178.7740  144.9000 N   0  0  0  0  0  0  0  0  0  0  0  0
  184.1940  178.1670  147.4790 O   0  0  0  0  0  0  0  0  0  0  0  0
  186.8930  178.2200  144.3660 C   0  0  0  0  0  0  0  0  0  0  0  0
  185.0610  178.6340  142.7990 C   0  0  0  0  0  0  0  0  0  0  0  0
  186.3690  177.9620  146.7630 O   0  0  0  0  0  0  0  0  0  0  0  0
  185.0220  178.2300  146.5320 C   0  0  0  0  0  0  0  0  0  0  0  0
  190.0120  178.5020  144.3200 C   0  0  0  0  0  0  0  0  0  0  0  0
  189.2250  177.7430  143.3000 C   0  0  2  0  0  3  0  0  0  0  0  0
  187.2430  178.2890  141.9570 C   0  0  0  0  0  3  0  0  0  0  0  0
  183.7120  178.8970  142.5560 C   0  0  0  0  0  3  0  0  0  0  0  0
  187.7670  178.1220  143.2430 C   0  0  0  0  0  0  0  0  0  0  0  0
  188.6600  177.5850  146.1460 C   0  0  0  0  0  2  0  0  0  0  0  0
  190.9280  179.2760  143.9420 O   0  0  0  0  0  0  0  0  0  0  0  0
  187.3750  178.3210  145.8160 C   0  0  1  0  0  3  0  0  0  0  0  0
  189.4240  176.2390  143.4590 C   0  0  0  0  0  2  0  0  0  0  0  0
  190.9230  175.6780  142.5930 S   0  0  0  0  0  0  0  0  0  0  0  0
  190.4680  176.5470  141.0670 C   0  0  0  0  0  2  0  0  0  0  0  0
  191.9240  177.3970  140.3980 S   0  0  0  0  0  0  0  0  0  0  0  0
  192.6840  176.5970  137.9980 O   0  0  0  0  0  0  0  0  0  0  0  0
  191.7040  176.6510  138.7900 C   0  0  0  0  0  0  0  0  0  0  0  0
  190.4230  176.1050  138.4420 N   0  0  0  0  0  0  0  0  0  0  0  0
  189.4360  176.7220  137.8580 C   0  0  0  0  0  3  0  0  0  0  0  0
  188.9430  178.9750  138.5630 N   0  0  0  0  0  1  0  0  0  0  0  0
  189.4550  178.1660  137.4710 C   0  0  0  0  0  2  0  0  0  0  0  0
  1 18  1  0  0  0  0
  2 15  2  0  0  0  0
  2 10  1  0  0  0  0
  3  4  1  0  0  0  0
  4  7  1  0  0  0  0
  5 12  1  0  0  0  0
  6  9  1  0  0  0  0
  6  5  1  0  0  0  0
  7  5  2  0  0  0  0
  9 20  1  0  0  0  0
 10  6  2  0  0  0  0
 12 11  1  0  0  0  0
 12  8  2  0  0  0  0
 13  1  1  0  0  0  0
 14 21  1  1  0  0  0
 14 13  1  0  0  0  0
 15 17  1  0  0  0  0
 16 10  1  0  0  0  0
 16  4  2  0  0  0  0
 17 14  1  0  0  0  0
 17  9  2  0  0  0  0
 19 13  2  0  0  0  0
 20 18  1  6  0  0  0
 20 11  1  0  0  0  0
 22 21  1  0  0  0  0
 23 22  1  0  0  0  0
 24 23  1  0  0  0  0
 25 26  2  0  0  0  0
 26 24  1  0  0  0  0
 27 26  1  0  0  0  0
 28 27  2  0  0  0  0
 30 28  1  0  0  0  0
 30 29  1  0  0  0  0
M  END
>  <MODEL>
4

>  <REMARK>
 VINA RESULT:      -7.0      3.397      5.611
  Name = 
  7 active torsions:
  status: ('A' for Active; 'I' for Inactive)
    1  A    between atoms: C_1  and  S_8
    2  A    between atoms: C_1  and  S_18
    3  A    between atoms: S_8  and  C_11
    4  A    between atoms: N_9  and  C_21
    5  A    between atoms: C_11  and  C_24
    6  A    between atoms: C_16  and  C_20
    7  A    between atoms: S_18  and  C_21
                            x       y       z     vdW  Elec       q    Type
                         _______ _______ _______ _____ _____    ______ ____

>  <TORSDO>
F 7

$$$$
=
 OpenBabel10222417003D

 30 33  0  0  1  0  0  0  0  0999 V2000
  189.7420  178.3510  145.5720 O   0  0  0  0  0  0  0  0  0  0  0  0
  185.8590  178.6010  141.6980 N   0  0  0  0  0  0  0  0  0  0  0  0
  181.3980  179.2600  143.3920 N   0  0  0  0  0  1  0  0  0  0  0  0
  182.7780  178.9930  143.6080 C   0  0  0  0  0  0  0  0  0  0  0  0
  184.5530  178.5270  145.1170 C   0  0  0  0  0  0  0  0  0  0  0  0
  185.4790  178.4800  144.0590 C   0  0  0  0  0  0  0  0  0  0  0  0
  183.2390  178.7790  144.8680 N   0  0  0  0  0  0  0  0  0  0  0  0
  184.1920  178.1400  147.4290 O   0  0  0  0  0  0  0  0  0  0  0  0
  186.8560  178.2400  144.2860 C   0  0  0  0  0  0  0  0  0  0  0  0
  185.0050  178.6710  142.7460 C   0  0  0  0  0  0  0  0  0  0  0  0
  186.3590  177.9500  146.6860 O   0  0  0  0  0  0  0  0  0  0  0  0
  185.0090  178.2180  146.4740 C   0  0  0  0  0  0  0  0  0  0  0  0
  189.9730  178.5290  144.2100 C   0  0  0  0  0  0  0  0  0  0  0  0
  189.1770  177.7820  143.1880 C   0  0  2  0  0  3  0  0  0  0  0  0
  187.1780  178.3420  141.8750 C   0  0  0  0  0  3  0  0  0  0  0  0
  183.6530  178.9340  142.5220 C   0  0  0  0  0  3  0  0  0  0  0  0
  187.7170  178.1590  143.1530 C   0  0  0  0  0  0  0  0  0  0  0  0
  188.6440  177.5850  146.0390 C   0  0  0  0  0  2  0  0  0  0  0  0
  190.8840  179.3100  143.8310 O   0  0  0  0  0  0  0  0  0  0  0  0
  187.3540  178.3230  145.7330 C   0  0  1  0  0  3  0  0  0  0  0  0
  189.3800  176.2760  143.3250 C   0  0  0  0  0  2  0  0  0  0  0  0
  190.8940  175.7360  142.4720 S   0  0  0  0  0  0  0  0  0  0  0  0
  190.4880  176.6800  140.9770 C   0  0  0  0  0  2  0  0  0  0  0  0
  192.0150  177.2940  140.2140 S   0  0  0  0  0  0  0  0  0  0  0  0
  190.7680  175.5400  138.6840 O   0  0  0  0  0  0  0  0  0  0  0  0
  191.7220  176.3630  138.7190 C   0  0  0  0  0  0  0  0  0  0  0  0
  192.5630  176.5900  137.5780 N   0  0  0  0  0  0  0  0  0  0  0  0
  193.5770  175.8710  137.1910 C   0  0  0  0  0  3  0  0  0  0  0  0
  195.3690  174.9540  138.5190 N   0  0  0  0  0  1  0  0  0  0  0  0
  194.0800  174.6640  137.9150 C   0  0  0  0  0  2  0  0  0  0  0  0
  1 18  1  0  0  0  0
  2 15  2  0  0  0  0
  2 10  1  0  0  0  0
  3  4  1  0  0  0  0
  4  7  1  0  0  0  0
  5 12  1  0  0  0  0
  6  9  1  0  0  0  0
  6  5  1  0  0  0  0
  7  5  2  0  0  0  0
  9 20  1  0  0  0  0
 10  6  2  0  0  0  0
 12 11  1  0  0  0  0
 12  8  2  0  0  0  0
 13  1  1  0  0  0  0
 14 21  1  1  0  0  0
 14 13  1  0  0  0  0
 15 17  1  0  0  0  0
 16 10  1  0  0  0  0
 16  4  2  0  0  0  0
 17 14  1  0  0  0  0
 17  9  2  0  0  0  0
 19 13  2  0  0  0  0
 20 18  1  6  0  0  0
 20 11  1  0  0  0  0
 22 21  1  0  0  0  0
 23 22  1  0  0  0  0
 24 23  1  0  0  0  0
 25 26  2  0  0  0  0
 26 24  1  0  0  0  0
 27 26  1  0  0  0  0
 28 27  2  0  0  0  0
 28 30  1  0  0  0  0
 30 29  1  0  0  0  0
M  END
>  <MODEL>
5

>  <REMARK>
 VINA RESULT:      -6.9      4.102      6.043
  Name = 
  7 active torsions:
  status: ('A' for Active; 'I' for Inactive)
    1  A    between atoms: C_1  and  S_8
    2  A    between atoms: C_1  and  S_18
    3  A    between atoms: S_8  and  C_11
    4  A    between atoms: N_9  and  C_21
    5  A    between atoms: C_11  and  C_24
    6  A    between atoms: C_16  and  C_20
    7  A    between atoms: S_18  and  C_21
                            x       y       z     vdW  Elec       q    Type
                         _______ _______ _______ _____ _____    ______ ____

>  <TORSDO>
F 7

$$$$
=
 OpenBabel10222417003D

 30 33  0  0  1  0  0  0  0  0999 V2000
  190.7250  176.1900  141.0470 O   0  0  0  0  0  0  0  0  0  0  0  0
  185.9210  178.3020  142.6630 N   0  0  0  0  0  0  0  0  0  0  0  0
  183.0620  179.7290  139.0580 N   0  0  0  0  0  1  0  0  0  0  0  0
  184.3180  179.2610  139.5310 C   0  0  0  0  0  0  0  0  0  0  0  0
  186.5630  178.6280  139.0740 C   0  0  0  0  0  0  0  0  0  0  0  0
  186.7860  178.3320  140.4300 C   0  0  0  0  0  0  0  0  0  0  0  0
  185.3470  179.0810  138.6610 N   0  0  0  0  0  0  0  0  0  0  0  0
  187.5480  178.8850  136.9310 O   0  0  0  0  0  0  0  0  0  0  0  0
  188.0330  177.8400  140.8880 C   0  0  0  0  0  0  0  0  0  0  0  0
  185.7350  178.5430  141.3440 C   0  0  0  0  0  0  0  0  0  0  0  0
  188.9110  178.0710  138.5930 O   0  0  0  0  0  0  0  0  0  0  0  0
  187.6780  178.5230  138.1300 C   0  0  0  0  0  0  0  0  0  0  0  0
  190.1820  176.0730  142.3240 C   0  0  0  0  0  0  0  0  0  0  0  0
  189.4760  177.2210  142.9700 C   0  0  2  0  0  3  0  0  0  0  0  0
  187.1110  177.8600  143.1410 C   0  0  0  0  0  3  0  0  0  0  0  0
  184.4970  179.0020  140.8920 C   0  0  0  0  0  3  0  0  0  0  0  0
  188.1900  177.6140  142.2870 C   0  0  0  0  0  0  0  0  0  0  0  0
  190.4900  177.3390  140.2490 C   0  0  0  0  0  2  0  0  0  0  0  0
  190.3110  174.9930  142.9570 O   0  0  0  0  0  0  0  0  0  0  0  0
  189.0330  177.3660  139.8280 C   0  0  1  0  0  3  0  0  0  0  0  0
  190.4150  178.4090  143.1590 C   0  0  0  0  0  2  0  0  0  0  0  0
  191.3060  178.2990  144.7410 S   0  0  0  0  0  0  0  0  0  0  0  0
  189.9230  177.4550  145.5580 C   0  0  0  0  0  2  0  0  0  0  0  0
  190.3030  177.2330  147.3180 S   0  0  0  0  0  0  0  0  0  0  0  0
  188.3640  178.2540  148.7920 O   0  0  0  0  0  0  0  0  0  0  0  0
  188.6060  177.5290  147.7900 C   0  0  0  0  0  0  0  0  0  0  0  0
  187.5520  176.9550  147.0030 N   0  0  0  0  0  0  0  0  0  0  0  0
  186.4490  177.5340  146.6200 C   0  0  0  0  0  3  0  0  0  0  0  0
  185.2950  179.5240  145.8970 N   0  0  0  0  0  1  0  0  0  0  0  0
  186.0640  178.9330  146.9790 C   0  0  0  0  0  2  0  0  0  0  0  0
  1 13  1  0  0  0  0
  2 15  1  0  0  0  0
  3  4  1  0  0  0  0
  4 16  2  0  0  0  0
  5  6  1  0  0  0  0
  6  9  2  0  0  0  0
  6 10  1  0  0  0  0
  7  5  2  0  0  0  0
  7  4  1  0  0  0  0
  8 12  2  0  0  0  0
  9 17  1  0  0  0  0
 10  2  2  0  0  0  0
 11 20  1  0  0  0  0
 12 11  1  0  0  0  0
 12  5  1  0  0  0  0
 13 19  2  0  0  0  0
 13 14  1  0  0  0  0
 14 21  1  6  0  0  0
 16 10  1  0  0  0  0
 17 14  1  0  0  0  0
 17 15  2  0  0  0  0
 18  1  1  0  0  0  0
 20 18  1  1  0  0  0
 20  9  1  0  0  0  0
 21 22  1  0  0  0  0
 22 23  1  0  0  0  0
 23 24  1  0  0  0  0
 24 26  1  0  0  0  0
 26 25  2  0  0  0  0
 27 26  1  0  0  0  0
 28 30  1  0  0  0  0
 28 27  2  0  0  0  0
 29 30  1  0  0  0  0
M  END
>  <MODEL>
6

>  <REMARK>
 VINA RESULT:      -6.8      2.155      2.718
  Name = 
  7 active torsions:
  status: ('A' for Active; 'I' for Inactive)
    1  A    between atoms: C_1  and  S_8
    2  A    between atoms: C_1  and  S_18
    3  A    between atoms: S_8  and  C_11
    4  A    between atoms: N_9  and  C_21
    5  A    between atoms: C_11  and  C_24
    6  A    between atoms: C_16  and  C_20
    7  A    between atoms: S_18  and  C_21
                            x       y       z     vdW  Elec       q    Type
                         _______ _______ _______ _____ _____    ______ ____

>  <TORSDO>
F 7

$$$$
=
 OpenBabel10222417003D

 30 33  0  0  1  0  0  0  0  0999 V2000
  185.3000  179.3330  138.8030 O   0  0  0  0  0  0  0  0  0  0  0  0
  184.1540  178.4800  144.1040 N   0  0  0  0  0  0  0  0  0  0  0  0
  188.0170  177.6850  146.8710 N   0  0  0  0  0  1  0  0  0  0  0  0
  187.4250  177.8500  145.5900 C   0  0  0  0  0  0  0  0  0  0  0  0
  187.6620  177.9130  143.2260 C   0  0  0  0  0  0  0  0  0  0  0  0
  186.2920  178.1830  143.0660 C   0  0  0  0  0  0  0  0  0  0  0  0
  188.1900  177.7550  144.4710 N   0  0  0  0  0  0  0  0  0  0  0  0
  189.6970  177.3700  142.1350 O   0  0  0  0  0  0  0  0  0  0  0  0
  185.7160  178.3730  141.7860 C   0  0  0  0  0  0  0  0  0  0  0  0
  185.4850  178.2550  144.2190 C   0  0  0  0  0  0  0  0  0  0  0  0
  187.9130  177.8780  140.7780 O   0  0  0  0  0  0  0  0  0  0  0  0
  188.4930  177.7220  142.0350 C   0  0  0  0  0  0  0  0  0  0  0  0
  184.0820  179.6110  139.4190 C   0  0  0  0  0  0  0  0  0  0  0  0
  183.5040  178.6840  140.4390 C   0  0  2  0  0  3  0  0  0  0  0  0
  183.5630  178.6360  142.8940 C   0  0  0  0  0  3  0  0  0  0  0  0
  186.0540  178.0950  145.4820 C   0  0  0  0  0  3  0  0  0  0  0  0
  184.3090  178.5930  141.7110 C   0  0  0  0  0  0  0  0  0  0  0  0
  186.1130  178.2530  139.2320 C   0  0  0  0  0  2  0  0  0  0  0  0
  183.4440  180.6450  139.0930 O   0  0  0  0  0  0  0  0  0  0  0  0
  186.6740  178.5660  140.6060 C   0  0  1  0  0  3  0  0  0  0  0  0
  183.2210  177.3110  139.8370 C   0  0  0  0  0  2  0  0  0  0  0  0
  181.6180  177.2870  138.9760 S   0  0  0  0  0  0  0  0  0  0  0  0
  180.7600  178.0560  140.3770 C   0  0  0  0  0  2  0  0  0  0  0  0
  179.2410  178.8560  139.7920 S   0  0  0  0  0  0  0  0  0  0  0  0
  180.5660  180.4220  141.4550 O   0  0  0  0  0  0  0  0  0  0  0  0
  179.6860  180.4090  140.5530 C   0  0  0  0  0  0  0  0  0  0  0  0
  179.0520  181.6160  140.1030 N   0  0  0  0  0  0  0  0  0  0  0  0
  179.3140  182.2880  139.0190 C   0  0  0  0  0  3  0  0  0  0  0  0
  181.0700  183.1250  137.5940 N   0  0  0  0  0  1  0  0  0  0  0  0
  180.3840  181.9250  138.0400 C   0  0  0  0  0  2  0  0  0  0  0  0
  1 18  1  0  0  0  0
  1 13  1  0  0  0  0
  2 10  1  0  0  0  0
  4  3  1  0  0  0  0
  5  7  1  0  0  0  0
  6  5  2  0  0  0  0
  6 10  1  0  0  0  0
  7  4  2  0  0  0  0
  9  6  1  0  0  0  0
 10 16  2  0  0  0  0
 11 12  1  0  0  0  0
 12  8  2  0  0  0  0
 12  5  1  0  0  0  0
 13 14  1  0  0  0  0
 14 21  1  6  0  0  0
 14 17  1  0  0  0  0
 15  2  2  0  0  0  0
 16  4  1  0  0  0  0
 17  9  2  0  0  0  0
 17 15  1  0  0  0  0
 19 13  2  0  0  0  0
 20 18  1  6  0  0  0
 20 11  1  0  0  0  0
 20  9  1  0  0  0  0
 22 21  1  0  0  0  0
 22 23  1  0  0  0  0
 24 23  1  0  0  0  0
 24 26  1  0  0  0  0
 26 25  2  0  0  0  0
 27 26  1  0  0  0  0
 28 27  2  0  0  0  0
 29 30  1  0  0  0  0
 30 28  1  0  0  0  0
M  END
>  <MODEL>
7

>  <REMARK>
 VINA RESULT:      -6.7      4.179      8.377
  Name = 
  7 active torsions:
  status: ('A' for Active; 'I' for Inactive)
    1  A    between atoms: C_1  and  S_8
    2  A    between atoms: C_1  and  S_18
    3  A    between atoms: S_8  and  C_11
    4  A    between atoms: N_9  and  C_21
    5  A    between atoms: C_11  and  C_24
    6  A    between atoms: C_16  and  C_20
    7  A    between atoms: S_18  and  C_21
                            x       y       z     vdW  Elec       q    Type
                         _______ _______ _______ _____ _____    ______ ____

>  <TORSDO>
F 7

$$$$
=
 OpenBabel10222417003D

 30 33  0  0  1  0  0  0  0  0999 V2000
  185.8780  179.0010  139.2110 O   0  0  0  0  0  0  0  0  0  0  0  0
  183.8590  178.6320  144.3030 N   0  0  0  0  0  0  0  0  0  0  0  0
  187.1860  177.9380  147.7170 N   0  0  0  0  0  1  0  0  0  0  0  0
  186.8160  178.0160  146.3470 C   0  0  0  0  0  0  0  0  0  0  0  0
  187.4320  177.8740  144.0560 C   0  0  0  0  0  0  0  0  0  0  0  0
  186.1190  178.1770  143.6540 C   0  0  0  0  0  0  0  0  0  0  0  0
  187.7450  177.8010  145.3790 N   0  0  0  0  0  0  0  0  0  0  0  0
  189.5870  177.1720  143.3570 O   0  0  0  0  0  0  0  0  0  0  0  0
  185.7650  178.2790  142.2870 C   0  0  0  0  0  0  0  0  0  0  0  0
  185.1420  178.3720  144.6510 C   0  0  0  0  0  0  0  0  0  0  0  0
  188.0690  177.6260  141.6920 O   0  0  0  0  0  0  0  0  0  0  0  0
  188.4320  177.5560  143.0350 C   0  0  0  0  0  0  0  0  0  0  0  0
  184.5910  179.3710  139.5970 C   0  0  0  0  0  0  0  0  0  0  0  0
  183.8140  178.5520  140.5770 C   0  0  2  0  0  3  0  0  0  0  0  0
  183.4770  178.7070  143.0050 C   0  0  0  0  0  3  0  0  0  0  0  0
  185.4930  178.2970  145.9990 C   0  0  0  0  0  3  0  0  0  0  0  0
  184.4000  178.5400  141.9660 C   0  0  0  0  0  0  0  0  0  0  0  0
  186.5590  177.9330  139.8480 C   0  0  0  0  0  2  0  0  0  0  0  0
  184.0630  180.3950  139.0930 O   0  0  0  0  0  0  0  0  0  0  0  0
  186.9080  178.3390  141.2680 C   0  0  1  0  0  3  0  0  0  0  0  0
  183.5670  177.1440  140.0430 C   0  0  0  0  0  2  0  0  0  0  0  0
  182.7870  177.1910  138.4000 S   0  0  0  0  0  0  0  0  0  0  0  0
  184.1170  176.2140  137.6480 C   0  0  0  0  0  2  0  0  0  0  0  0
  184.8600  177.1500  136.2830 S   0  0  0  0  0  0  0  0  0  0  0  0
  186.5250  175.3800  137.3170 O   0  0  0  0  0  0  0  0  0  0  0  0
  186.4030  176.2620  136.4250 C   0  0  0  0  0  0  0  0  0  0  0  0
  187.4640  176.5540  135.5040 N   0  0  0  0  0  0  0  0  0  0  0  0
  188.3600  177.4940  135.6050 C   0  0  0  0  0  3  0  0  0  0  0  0
  189.4310  178.0960  137.6800 N   0  0  0  0  0  1  0  0  0  0  0  0
  188.4150  178.4890  136.7190 C   0  0  0  0  0  2  0  0  0  0  0  0
  1 13  1  0  0  0  0
  1 18  1  0  0  0  0
  2 10  1  0  0  0  0
  4  3  1  0  0  0  0
  5  7  1  0  0  0  0
  6  5  2  0  0  0  0
  6 10  1  0  0  0  0
  7  4  2  0  0  0  0
  9  6  1  0  0  0  0
 10 16  2  0  0  0  0
 11 12  1  0  0  0  0
 12  8  2  0  0  0  0
 12  5  1  0  0  0  0
 13 14  1  0  0  0  0
 14 21  1  6  0  0  0
 14 17  1  0  0  0  0
 15  2  2  0  0  0  0
 16  4  1  0  0  0  0
 17  9  2  0  0  0  0
 17 15  1  0  0  0  0
 19 13  2  0  0  0  0
 20 18  1  6  0  0  0
 20 11  1  0  0  0  0
 20  9  1  0  0  0  0
 22 21  1  0  0  0  0
 23 22  1  0  0  0  0
 24 26  1  0  0  0  0
 24 23  1  0  0  0  0
 26 25  2  0  0  0  0
 27 28  2  0  0  0  0
 27 26  1  0  0  0  0
 28 30  1  0  0  0  0
 30 29  1  0  0  0  0
M  END
>  <MODEL>
8

>  <REMARK>
 VINA RESULT:      -6.7      3.958      7.456
  Name = 
  7 active torsions:
  status: ('A' for Active; 'I' for Inactive)
    1  A    between atoms: C_1  and  S_8
    2  A    between atoms: C_1  and  S_18
    3  A    between atoms: S_8  and  C_11
    4  A    between atoms: N_9  and  C_21
    5  A    between atoms: C_11  and  C_24
    6  A    between atoms: C_16  and  C_20
    7  A    between atoms: S_18  and  C_21
                            x       y       z     vdW  Elec       q    Type
                         _______ _______ _______ _____ _____    ______ ____

>  <TORSDO>
F 7

$$$$
=
 OpenBabel10222417003D

 30 33  0  0  1  0  0  0  0  0999 V2000
  185.8410  179.0370  139.0430 O   0  0  0  0  0  0  0  0  0  0  0  0
  184.2350  178.6340  144.2780 N   0  0  0  0  0  0  0  0  0  0  0  0
  187.8040  177.7520  147.3910 N   0  0  0  0  0  1  0  0  0  0  0  0
  187.3250  177.8720  146.0580 C   0  0  0  0  0  0  0  0  0  0  0  0
  187.7450  177.7550  143.7220 C   0  0  0  0  0  0  0  0  0  0  0  0
  186.4150  178.1120  143.4360 C   0  0  0  0  0  0  0  0  0  0  0  0
  188.1630  177.6440  145.0120 N   0  0  0  0  0  0  0  0  0  0  0  0
  189.8080  176.9920  142.8340 O   0  0  0  0  0  0  0  0  0  0  0  0
  185.9540  178.2560  142.1040 C   0  0  0  0  0  0  0  0  0  0  0  0
  185.5320  178.3210  144.5130 C   0  0  0  0  0  0  0  0  0  0  0  0
  188.1760  177.5340  141.3090 O   0  0  0  0  0  0  0  0  0  0  0  0
  188.6450  177.4230  142.6150 C   0  0  0  0  0  0  0  0  0  0  0  0
  184.6050  179.4430  139.5400 C   0  0  0  0  0  0  0  0  0  0  0  0
  183.8810  178.6320  140.5670 C   0  0  2  0  0  3  0  0  0  0  0  0
  183.7510  178.7490  143.0170 C   0  0  0  0  0  3  0  0  0  0  0  0
  185.9900  178.2070  145.8260 C   0  0  0  0  0  3  0  0  0  0  0  0
  184.5780  178.5710  141.9020 C   0  0  0  0  0  0  0  0  0  0  0  0
  186.5320  177.9320  139.6030 C   0  0  0  0  0  2  0  0  0  0  0  0
  184.0750  180.4960  139.1000 O   0  0  0  0  0  0  0  0  0  0  0  0
  187.0110  178.2960  140.9950 C   0  0  1  0  0  3  0  0  0  0  0  0
  183.5390  177.2450  140.0310 C   0  0  0  0  0  2  0  0  0  0  0  0
  182.1700  177.3220  138.8350 S   0  0  0  0  0  0  0  0  0  0  0  0
  180.9240  177.0000  140.1140 C   0  0  0  0  0  2  0  0  0  0  0  0
  179.3130  177.6270  139.5620 S   0  0  0  0  0  0  0  0  0  0  0  0
  179.0100  180.2410  139.7920 O   0  0  0  0  0  0  0  0  0  0  0  0
  179.6330  179.2440  140.2490 C   0  0  0  0  0  0  0  0  0  0  0  0
  180.5740  179.3730  141.3250 N   0  0  0  0  0  0  0  0  0  0  0  0
  180.3120  179.4360  142.5990 C   0  0  0  0  0  3  0  0  0  0  0  0
  178.9310  178.6720  144.4230 N   0  0  0  0  0  1  0  0  0  0  0  0
  178.9330  179.4200  143.1780 C   0  0  0  0  0  2  0  0  0  0  0  0
  1 13  1  0  0  0  0
  1 18  1  0  0  0  0
  2 10  1  0  0  0  0
  4  3  1  0  0  0  0
  5  7  1  0  0  0  0
  6  5  2  0  0  0  0
  6 10  1  0  0  0  0
  7  4  2  0  0  0  0
  9  6  1  0  0  0  0
 10 16  2  0  0  0  0
 11 12  1  0  0  0  0
 12  8  2  0  0  0  0
 12  5  1  0  0  0  0
 13 14  1  0  0  0  0
 14 21  1  6  0  0  0
 14 17  1  0  0  0  0
 15  2  2  0  0  0  0
 16  4  1  0  0  0  0
 17  9  2  0  0  0  0
 17 15  1  0  0  0  0
 19 13  2  0  0  0  0
 20 18  1  6  0  0  0
 20 11  1  0  0  0  0
 20  9  1  0  0  0  0
 22 21  1  0  0  0  0
 22 23  1  0  0  0  0
 24 23  1  0  0  0  0
 24 26  1  0  0  0  0
 25 26  2  0  0  0  0
 26 27  1  0  0  0  0
 27 28  2  0  0  0  0
 28 30  1  0  0  0  0
 30 29  1  0  0  0  0
M  END
>  <MODEL>
9

>  <REMARK>
 VINA RESULT:      -6.6      3.744      7.808
  Name = 
  7 active torsions:
  status: ('A' for Active; 'I' for Inactive)
    1  A    between atoms: C_1  and  S_8
    2  A    between atoms: C_1  and  S_18
    3  A    between atoms: S_8  and  C_11
    4  A    between atoms: N_9  and  C_21
    5  A    between atoms: C_11  and  C_24
    6  A    between atoms: C_16  and  C_20
    7  A    between atoms: S_18  and  C_21
                            x       y       z     vdW  Elec       q    Type
                         _______ _______ _______ _____ _____    ______ ____

>  <TORSDO>
F 7

$$$$
