=
 OpenBabel10222417253D

 28 31  0  0  1  0  0  0  0  0999 V2000
  186.8610  178.3850  147.7220 C   0  0  0  0  0  3  0  0  0  0  0  0
  182.6660  179.1150  144.4120 N   0  0  0  0  0  1  0  0  0  0  0  0
  185.8710  178.3080  145.4910 C   0  0  0  0  0  0  0  0  0  0  0  0
  186.9510  178.1190  146.3530 C   0  0  0  0  0  0  0  0  0  0  0  0
  184.7940  178.3000  143.5520 N   0  0  0  0  0  0  0  0  0  0  0  0
  189.1580  177.6710  148.0100 C   0  0  0  0  0  3  0  0  0  0  0  0
  188.1660  177.6330  145.7950 C   0  0  0  0  0  0  0  0  0  0  0  0
  184.0220  178.7230  144.5840 C   0  0  0  0  0  0  0  0  0  0  0  0
  188.2560  177.3730  144.3980 C   0  0  0  0  0  0  0  0  0  0  0  0
  185.9610  178.0420  144.1580 C   0  0  0  0  0  0  0  0  0  0  0  0
  190.5180  176.8310  146.0780 C   0  0  0  0  0  0  0  0  0  0  0  0
  189.5510  176.9220  143.7680 C   0  0  2  0  0  3  0  0  0  0  0  0
  184.6380  178.7460  145.7940 N   0  0  0  0  0  2  0  0  0  0  0  0
  187.1340  177.5780  143.5700 C   0  0  0  0  0  3  0  0  0  0  0  0
  189.2690  177.3990  146.6370 C   0  0  0  0  0  0  0  0  0  0  0  0
  187.9650  178.1650  148.5470 C   0  0  0  0  0  3  0  0  0  0  0  0
  190.6270  176.5900  144.7700 C   0  0  0  0  0  3  0  0  0  0  0  0
  192.5190  176.2150  147.6170 N   0  0  0  0  0  0  0  0  0  0  0  0
  191.6280  176.4890  146.9310 C   0  0  0  0  0  0  0  0  0  0  0  0
  190.0230  177.9090  142.8980 O   0  0  0  0  0  0  0  0  0  0  0  0
  191.0100  177.2790  142.1380 C   0  0  0  0  0  2  0  0  0  0  0  0
  190.5250  177.1230  140.7120 C   0  0  0  0  0  2  0  0  0  0  0  0
  187.4130  178.5300  139.4180 O   0  0  0  0  0  0  0  0  0  0  0  0
  189.4590  178.3790  138.3040 N   0  0  0  0  0  2  0  0  0  0  0  0
  188.6200  178.1720  139.4430 C   0  0  0  0  0  0  0  0  0  0  0  0
  189.1430  177.5580  140.6210 N   0  0  0  0  0  2  0  0  0  0  0  0
  188.9650  179.0010  137.0880 C   0  0  0  0  0  2  0  0  0  0  0  0
  188.6050  177.9270  136.0830 C   0  0  0  0  0  1  0  0  0  0  0  0
  1 16  1  0  0  0  0
  2  8  1  0  0  0  0
  3 13  1  0  0  0  0
  3  4  1  0  0  0  0
  4  1  2  0  0  0  0
  5 10  1  0  0  0  0
  5  8  2  0  0  0  0
  6 16  2  0  0  0  0
  7  4  1  0  0  0  0
  7 15  2  0  0  0  0
  8 13  1  0  0  0  0
  9  7  1  0  0  0  0
 10  3  2  0  0  0  0
 11 15  1  0  0  0  0
 11 19  1  0  0  0  0
 12 20  1  6  0  0  0
 12  9  1  0  0  0  0
 12 17  1  0  0  0  0
 14 10  1  0  0  0  0
 14  9  2  0  0  0  0
 15  6  1  0  0  0  0
 17 11  2  0  0  0  0
 19 18  3  0  0  0  0
 21 20  1  0  0  0  0
 22 21  1  0  0  0  0
 23 25  2  0  0  0  0
 24 25  1  0  0  0  0
 25 26  1  0  0  0  0
 26 22  1  0  0  0  0
 27 24  1  0  0  0  0
 28 27  1  0  0  0  0
M  END
>  <MODEL>
1

>  <REMARK>
 VINA RESULT:     -10.3      0.000      0.000
  Name = 
  6 active torsions:
  status: ('A' for Active; 'I' for Inactive)
    1  A    between atoms: C_3  and  N_5
    2  A    between atoms: C_11  and  C_14
    3  A    between atoms: C_11  and  N_22
    4  A    between atoms: C_14  and  O_15
    5  A    between atoms: O_15  and  C_23
    6  A    between atoms: C_16  and  C_21
                            x       y       z     vdW  Elec       q    Type
                         _______ _______ _______ _____ _____    ______ ____

>  <TORSDO>
F 6

$$$$
=
 OpenBabel10222417253D

 28 31  0  0  1  0  0  0  0  0999 V2000
  186.4840  178.4600  147.3350 C   0  0  0  0  0  3  0  0  0  0  0  0
  182.3730  179.0640  143.8980 N   0  0  0  0  0  1  0  0  0  0  0  0
  185.5650  178.3510  145.0750 C   0  0  0  0  0  0  0  0  0  0  0  0
  186.6240  178.1940  145.9690 C   0  0  0  0  0  0  0  0  0  0  0  0
  184.5480  178.3090  143.1040 N   0  0  0  0  0  0  0  0  0  0  0  0
  188.7910  177.8120  147.6940 C   0  0  0  0  0  3  0  0  0  0  0  0
  187.8680  177.7420  145.4500 C   0  0  0  0  0  0  0  0  0  0  0  0
  183.7340  178.7120  144.1120 C   0  0  0  0  0  0  0  0  0  0  0  0
  188.0080  177.4830  144.0570 C   0  0  0  0  0  0  0  0  0  0  0  0
  185.7040  178.0860  143.7460 C   0  0  0  0  0  0  0  0  0  0  0  0
  190.2320  177.0080  145.8060 C   0  0  0  0  0  0  0  0  0  0  0  0
  189.3340  177.0680  143.4670 C   0  0  2  0  0  3  0  0  0  0  0  0
  184.3120  178.7540  145.3390 N   0  0  0  0  0  2  0  0  0  0  0  0
  186.9070  177.6540  143.1950 C   0  0  0  0  0  3  0  0  0  0  0  0
  188.9520  177.5410  146.3260 C   0  0  0  0  0  0  0  0  0  0  0  0
  187.5690  178.2730  148.1930 C   0  0  0  0  0  3  0  0  0  0  0  0
  190.3880  176.7680  144.5020 C   0  0  0  0  0  3  0  0  0  0  0  0
  192.2020  176.4520  147.4060 N   0  0  0  0  0  0  0  0  0  0  0  0
  191.3250  176.7000  146.6930 C   0  0  0  0  0  0  0  0  0  0  0  0
  189.8040  178.0670  142.6100 O   0  0  0  0  0  0  0  0  0  0  0  0
  190.5060  177.3860  141.6140 C   0  0  0  0  0  2  0  0  0  0  0  0
  189.5860  177.1200  140.4410 C   0  0  0  0  0  2  0  0  0  0  0  0
  189.0050  179.3830  137.6340 O   0  0  0  0  0  0  0  0  0  0  0  0
  187.4920  177.8590  138.5480 N   0  0  0  0  0  2  0  0  0  0  0  0
  188.7710  178.4960  138.4960 C   0  0  0  0  0  0  0  0  0  0  0  0
  189.7950  178.1340  139.4230 N   0  0  0  0  0  2  0  0  0  0  0  0
  186.4250  178.1990  137.6230 C   0  0  0  0  0  2  0  0  0  0  0  0
  185.1050  178.2300  138.3650 C   0  0  0  0  0  1  0  0  0  0  0  0
  1 16  1  0  0  0  0
  2  8  1  0  0  0  0
  3 13  1  0  0  0  0
  3  4  1  0  0  0  0
  4  1  2  0  0  0  0
  5 10  1  0  0  0  0
  5  8  2  0  0  0  0
  6 16  2  0  0  0  0
  7  4  1  0  0  0  0
  7 15  2  0  0  0  0
  8 13  1  0  0  0  0
  9  7  1  0  0  0  0
 10  3  2  0  0  0  0
 11 15  1  0  0  0  0
 11 19  1  0  0  0  0
 12 20  1  6  0  0  0
 12  9  1  0  0  0  0
 12 17  1  0  0  0  0
 14 10  1  0  0  0  0
 14  9  2  0  0  0  0
 15  6  1  0  0  0  0
 17 11  2  0  0  0  0
 19 18  3  0  0  0  0
 21 20  1  0  0  0  0
 22 21  1  0  0  0  0
 23 25  2  0  0  0  0
 25 24  1  0  0  0  0
 25 26  1  0  0  0  0
 26 22  1  0  0  0  0
 27 28  1  0  0  0  0
 27 24  1  0  0  0  0
M  END
>  <MODEL>
2

>  <REMARK>
 VINA RESULT:     -10.1      1.196      1.268
  Name = 
  6 active torsions:
  status: ('A' for Active; 'I' for Inactive)
    1  A    between atoms: C_3  and  N_5
    2  A    between atoms: C_11  and  C_14
    3  A    between atoms: C_11  and  N_22
    4  A    between atoms: C_14  and  O_15
    5  A    between atoms: O_15  and  C_23
    6  A    between atoms: C_16  and  C_21
                            x       y       z     vdW  Elec       q    Type
                         _______ _______ _______ _____ _____    ______ ____

>  <TORSDO>
F 6

$$$$
=
 OpenBabel10222417253D

 28 31  0  0  1  0  0  0  0  0999 V2000
  186.8820  178.1950  147.5860 C   0  0  0  0  0  3  0  0  0  0  0  0
  182.8900  179.0080  144.0520 N   0  0  0  0  0  1  0  0  0  0  0  0
  186.0390  178.2150  145.2950 C   0  0  0  0  0  0  0  0  0  0  0  0
  187.0660  178.0040  146.2140 C   0  0  0  0  0  0  0  0  0  0  0  0
  185.0880  178.2870  143.2920 N   0  0  0  0  0  0  0  0  0  0  0  0
  189.1730  177.5160  147.9860 C   0  0  0  0  0  3  0  0  0  0  0  0
  188.3260  177.5750  145.7120 C   0  0  0  0  0  0  0  0  0  0  0  0
  184.2420  178.6380  144.2920 C   0  0  0  0  0  0  0  0  0  0  0  0
  188.5120  177.3920  144.3130 C   0  0  0  0  0  0  0  0  0  0  0  0
  186.2210  178.0230  143.9580 C   0  0  0  0  0  0  0  0  0  0  0  0
  190.6740  176.8100  146.1060 C   0  0  0  0  0  0  0  0  0  0  0  0
  189.8550  177.0030  143.7460 C   0  0  2  0  0  3  0  0  0  0  0  0
  184.7780  178.6100  145.5390 N   0  0  0  0  0  2  0  0  0  0  0  0
  187.4400  177.6160  143.4250 C   0  0  0  0  0  3  0  0  0  0  0  0
  189.3790  177.3200  146.6120 C   0  0  0  0  0  0  0  0  0  0  0  0
  187.9360  177.9550  148.4690 C   0  0  0  0  0  3  0  0  0  0  0  0
  190.8730  176.6410  144.7970 C   0  0  0  0  0  3  0  0  0  0  0  0
  192.5880  176.1560  147.7370 N   0  0  0  0  0  0  0  0  0  0  0  0
  191.7360  176.4470  147.0110 C   0  0  0  0  0  0  0  0  0  0  0  0
  190.3570  178.0450  142.9610 O   0  0  0  0  0  0  0  0  0  0  0  0
  191.2230  177.4290  142.0550 C   0  0  0  0  0  2  0  0  0  0  0  0
  190.4180  176.6240  141.0560 C   0  0  0  0  0  2  0  0  0  0  0  0
  190.1550  177.5620  137.5360 O   0  0  0  0  0  0  0  0  0  0  0  0
  190.6600  175.4510  138.3960 N   0  0  0  0  0  2  0  0  0  0  0  0
  190.3380  176.8360  138.5480 C   0  0  0  0  0  0  0  0  0  0  0  0
  190.2200  177.4090  139.8510 N   0  0  0  0  0  2  0  0  0  0  0  0
  190.7900  174.8310  137.0890 C   0  0  0  0  0  2  0  0  0  0  0  0
  189.8570  173.6420  137.0000 C   0  0  0  0  0  1  0  0  0  0  0  0
  1 16  1  0  0  0  0
  2  8  1  0  0  0  0
  3 13  1  0  0  0  0
  3  4  1  0  0  0  0
  4  1  2  0  0  0  0
  5 10  1  0  0  0  0
  5  8  2  0  0  0  0
  6 16  2  0  0  0  0
  7  4  1  0  0  0  0
  7 15  2  0  0  0  0
  8 13  1  0  0  0  0
  9  7  1  0  0  0  0
 10  3  2  0  0  0  0
 11 15  1  0  0  0  0
 11 19  1  0  0  0  0
 12 20  1  1  0  0  0
 12  9  1  0  0  0  0
 12 17  1  0  0  0  0
 14 10  1  0  0  0  0
 14  9  2  0  0  0  0
 15  6  1  0  0  0  0
 17 11  2  0  0  0  0
 19 18  3  0  0  0  0
 21 20  1  0  0  0  0
 22 21  1  0  0  0  0
 23 25  2  0  0  0  0
 24 25  1  0  0  0  0
 25 26  1  0  0  0  0
 26 22  1  0  0  0  0
 27 24  1  0  0  0  0
 28 27  1  0  0  0  0
M  END
>  <MODEL>
3

>  <REMARK>
 VINA RESULT:      -9.9      1.544      1.613
  Name = 
  6 active torsions:
  status: ('A' for Active; 'I' for Inactive)
    1  A    between atoms: C_3  and  N_5
    2  A    between atoms: C_11  and  C_14
    3  A    between atoms: C_11  and  N_22
    4  A    between atoms: C_14  and  O_15
    5  A    between atoms: O_15  and  C_23
    6  A    between atoms: C_16  and  C_21
                            x       y       z     vdW  Elec       q    Type
                         _______ _______ _______ _____ _____    ______ ____

>  <TORSDO>
F 6

$$$$
=
 OpenBabel10222417253D

 28 31  0  0  1  0  0  0  0  0999 V2000
  187.4000  177.4630  146.7450 C   0  0  0  0  0  3  0  0  0  0  0  0
  192.4460  176.4230  148.3390 N   0  0  0  0  0  1  0  0  0  0  0  0
  189.7670  177.1340  146.2410 C   0  0  0  0  0  0  0  0  0  0  0  0
  188.4600  177.4060  145.8350 C   0  0  0  0  0  0  0  0  0  0  0  0
  191.9470  176.8130  145.9870 N   0  0  0  0  0  0  0  0  0  0  0  0
  185.8800  177.9970  144.9350 C   0  0  0  0  0  3  0  0  0  0  0  0
  188.2300  177.6330  144.4500 C   0  0  0  0  0  0  0  0  0  0  0  0
  191.5430  176.7090  147.2780 C   0  0  0  0  0  0  0  0  0  0  0  0
  189.3110  177.5640  143.5270 C   0  0  0  0  0  0  0  0  0  0  0  0
  190.7980  177.0850  145.3520 C   0  0  0  0  0  0  0  0  0  0  0  0
  186.6920  178.2460  142.5760 C   0  0  0  0  0  0  0  0  0  0  0  0
  189.0860  177.7340  142.0440 C   0  0  2  0  0  3  0  0  0  0  0  0
  190.2140  176.8980  147.4840 N   0  0  0  0  0  2  0  0  0  0  0  0
  190.6140  177.2890  143.9880 C   0  0  0  0  0  3  0  0  0  0  0  0
  186.9300  177.9420  144.0060 C   0  0  0  0  0  0  0  0  0  0  0  0
  186.1120  177.7540  146.2930 C   0  0  0  0  0  3  0  0  0  0  0  0
  187.6890  178.1760  141.6910 C   0  0  0  0  0  3  0  0  0  0  0  0
  184.3500  178.9920  141.7350 N   0  0  0  0  0  0  0  0  0  0  0  0
  185.3930  178.6600  142.1100 C   0  0  0  0  0  0  0  0  0  0  0  0
  189.3700  176.5370  141.3820 O   0  0  0  0  0  0  0  0  0  0  0  0
  190.4670  176.8250  140.5680 C   0  0  0  0  0  2  0  0  0  0  0  0
  190.0700  176.6710  139.1150 C   0  0  0  0  0  2  0  0  0  0  0  0
  188.6940  179.5770  137.3820 O   0  0  0  0  0  0  0  0  0  0  0  0
  187.5910  177.5800  137.8750 N   0  0  0  0  0  2  0  0  0  0  0  0
  188.7410  178.4290  137.8970 C   0  0  0  0  0  0  0  0  0  0  0  0
  189.9540  177.9830  138.5040 N   0  0  0  0  0  2  0  0  0  0  0  0
  186.3390  177.9960  137.2670 C   0  0  0  0  0  2  0  0  0  0  0  0
  185.3430  178.3460  138.3520 C   0  0  0  0  0  1  0  0  0  0  0  0
  3 13  1  0  0  0  0
  4  3  1  0  0  0  0
  4  1  2  0  0  0  0
  5  8  2  0  0  0  0
  6 16  2  0  0  0  0
  7  4  1  0  0  0  0
  8 13  1  0  0  0  0
  8  2  1  0  0  0  0
  9 14  2  0  0  0  0
  9  7  1  0  0  0  0
 10  5  1  0  0  0  0
 10  3  2  0  0  0  0
 11 15  1  0  0  0  0
 12 20  1  6  0  0  0
 12  9  1  0  0  0  0
 14 10  1  0  0  0  0
 15  7  2  0  0  0  0
 15  6  1  0  0  0  0
 16  1  1  0  0  0  0
 17 12  1  0  0  0  0
 17 11  2  0  0  0  0
 18 19  3  0  0  0  0
 19 11  1  0  0  0  0
 21 20  1  0  0  0  0
 22 21  1  0  0  0  0
 23 25  2  0  0  0  0
 24 25  1  0  0  0  0
 25 26  1  0  0  0  0
 26 22  1  0  0  0  0
 27 24  1  0  0  0  0
 27 28  1  0  0  0  0
M  END
>  <MODEL>
4

>  <REMARK>
 VINA RESULT:      -9.5      1.663      4.897
  Name = 
  6 active torsions:
  status: ('A' for Active; 'I' for Inactive)
    1  A    between atoms: C_3  and  N_5
    2  A    between atoms: C_11  and  C_14
    3  A    between atoms: C_11  and  N_22
    4  A    between atoms: C_14  and  O_15
    5  A    between atoms: O_15  and  C_23
    6  A    between atoms: C_16  and  C_21
                            x       y       z     vdW  Elec       q    Type
                         _______ _______ _______ _____ _____    ______ ____

>  <TORSDO>
F 6

$$$$
=
 OpenBabel10222417253D

 28 31  0  0  1  0  0  0  0  0999 V2000
  187.4750  177.4720  146.3670 C   0  0  0  0  0  3  0  0  0  0  0  0
  192.4190  176.2420  148.1360 N   0  0  0  0  0  1  0  0  0  0  0  0
  189.8530  177.1040  145.9540 C   0  0  0  0  0  0  0  0  0  0  0  0
  188.5730  177.4240  145.5030 C   0  0  0  0  0  0  0  0  0  0  0  0
  192.0340  176.7380  145.7820 N   0  0  0  0  0  0  0  0  0  0  0  0
  186.0500  178.1150  144.5170 C   0  0  0  0  0  3  0  0  0  0  0  0
  188.4100  177.7120  144.1200 C   0  0  0  0  0  0  0  0  0  0  0  0
  191.5710  176.5930  147.0490 C   0  0  0  0  0  0  0  0  0  0  0  0
  189.5290  177.6520  143.2420 C   0  0  0  0  0  0  0  0  0  0  0  0
  190.9220  177.0630  145.1090 C   0  0  0  0  0  0  0  0  0  0  0  0
  186.9710  178.4370  142.2070 C   0  0  0  0  0  0  0  0  0  0  0  0
  189.3750  177.8860  141.7590 C   0  0  2  0  0  3  0  0  0  0  0  0
  190.2400  176.8070  147.2050 N   0  0  0  0  0  2  0  0  0  0  0  0
  190.8040  177.3260  143.7480 C   0  0  0  0  0  3  0  0  0  0  0  0
  187.1390  178.0710  143.6320 C   0  0  0  0  0  0  0  0  0  0  0  0
  186.2160  177.8130  145.8720 C   0  0  0  0  0  3  0  0  0  0  0  0
  188.0050  178.3760  141.3640 C   0  0  0  0  0  3  0  0  0  0  0  0
  184.6870  179.2750  141.2970 N   0  0  0  0  0  0  0  0  0  0  0  0
  185.7040  178.9020  141.7020 C   0  0  0  0  0  0  0  0  0  0  0  0
  189.6590  176.7090  141.0620 O   0  0  0  0  0  0  0  0  0  0  0  0
  189.6830  177.0830  139.7170 C   0  0  0  0  0  2  0  0  0  0  0  0
  191.0340  176.7430  139.1230 C   0  0  0  0  0  2  0  0  0  0  0  0
  191.9180  173.8320  137.1020 O   0  0  0  0  0  0  0  0  0  0  0  0
  193.3720  175.4430  137.9600 N   0  0  0  0  0  2  0  0  0  0  0  0
  192.0690  174.8880  137.7720 C   0  0  0  0  0  0  0  0  0  0  0  0
  190.9250  175.5240  138.3410 N   0  0  0  0  0  2  0  0  0  0  0  0
  194.5600  174.8270  137.3960 C   0  0  0  0  0  2  0  0  0  0  0  0
  195.0680  173.7550  138.3390 C   0  0  0  0  0  1  0  0  0  0  0  0
  3 13  1  0  0  0  0
  4  3  1  0  0  0  0
  4  1  2  0  0  0  0
  5  8  2  0  0  0  0
  6 16  2  0  0  0  0
  7  4  1  0  0  0  0
  8 13  1  0  0  0  0
  8  2  1  0  0  0  0
  9 14  2  0  0  0  0
  9  7  1  0  0  0  0
 10  5  1  0  0  0  0
 10  3  2  0  0  0  0
 11 15  1  0  0  0  0
 12 20  1  6  0  0  0
 12  9  1  0  0  0  0
 14 10  1  0  0  0  0
 15  7  2  0  0  0  0
 15  6  1  0  0  0  0
 16  1  1  0  0  0  0
 17 12  1  0  0  0  0
 17 11  2  0  0  0  0
 18 19  3  0  0  0  0
 19 11  1  0  0  0  0
 21 20  1  0  0  0  0
 22 21  1  0  0  0  0
 23 25  2  0  0  0  0
 25 24  1  0  0  0  0
 25 26  1  0  0  0  0
 26 22  1  0  0  0  0
 27 24  1  0  0  0  0
 27 28  1  0  0  0  0
M  END
>  <MODEL>
5

>  <REMARK>
 VINA RESULT:      -8.9      2.776      5.583
  Name = 
  6 active torsions:
  status: ('A' for Active; 'I' for Inactive)
    1  A    between atoms: C_3  and  N_5
    2  A    between atoms: C_11  and  C_14
    3  A    between atoms: C_11  and  N_22
    4  A    between atoms: C_14  and  O_15
    5  A    between atoms: O_15  and  C_23
    6  A    between atoms: C_16  and  C_21
                            x       y       z     vdW  Elec       q    Type
                         _______ _______ _______ _____ _____    ______ ____

>  <TORSDO>
F 6

$$$$
=
 OpenBabel10222417253D

 28 31  0  0  1  0  0  0  0  0999 V2000
  184.4020  178.7540  145.9480 C   0  0  0  0  0  3  0  0  0  0  0  0
  180.8880  179.2610  141.8890 N   0  0  0  0  0  1  0  0  0  0  0  0
  183.8660  178.6340  143.5690 C   0  0  0  0  0  0  0  0  0  0  0  0
  184.7700  178.5020  144.6230 C   0  0  0  0  0  0  0  0  0  0  0  0
  183.1850  178.5760  141.4590 N   0  0  0  0  0  0  0  0  0  0  0  0
  186.6380  178.1710  146.6770 C   0  0  0  0  0  3  0  0  0  0  0  0
  186.0950  178.0910  144.3120 C   0  0  0  0  0  0  0  0  0  0  0  0
  182.2060  178.9470  142.3210 C   0  0  0  0  0  0  0  0  0  0  0  0
  186.4670  177.8450  142.9600 C   0  0  0  0  0  0  0  0  0  0  0  0
  184.2270  178.3820  142.2790 C   0  0  0  0  0  0  0  0  0  0  0  0
  188.3910  177.4240  145.0470 C   0  0  0  0  0  0  0  0  0  0  0  0
  187.8830  177.4730  142.5940 C   0  0  2  0  0  3  0  0  0  0  0  0
  182.5750  178.9980  143.6270 N   0  0  0  0  0  2  0  0  0  0  0  0
  185.5160  177.9900  141.9310 C   0  0  0  0  0  3  0  0  0  0  0  0
  187.0270  177.9150  145.3530 C   0  0  0  0  0  0  0  0  0  0  0  0
  185.3370  178.5930  146.9710 C   0  0  0  0  0  3  0  0  0  0  0  0
  188.7640  177.1980  143.7850 C   0  0  0  0  0  3  0  0  0  0  0  0
  190.0910  176.9150  146.9440 N   0  0  0  0  0  0  0  0  0  0  0  0
  189.3340  177.1410  146.1000 C   0  0  0  0  0  0  0  0  0  0  0  0
  188.4560  178.4910  141.8260 O   0  0  0  0  0  0  0  0  0  0  0  0
  188.7430  177.8970  140.5950 C   0  0  0  0  0  2  0  0  0  0  0  0
  190.2390  177.6980  140.4680 C   0  0  0  0  0  2  0  0  0  0  0  0
  190.7050  174.8770  138.1970 O   0  0  0  0  0  0  0  0  0  0  0  0
  190.1490  177.0690  137.6210 N   0  0  0  0  0  2  0  0  0  0  0  0
  190.4640  176.0530  138.5760 C   0  0  0  0  0  0  0  0  0  0  0  0
  190.5070  176.3610  139.9690 N   0  0  0  0  0  2  0  0  0  0  0  0
  190.0950  176.7960  136.1960 C   0  0  0  0  0  2  0  0  0  0  0  0
  188.6590  176.8770  135.7210 C   0  0  0  0  0  1  0  0  0  0  0  0
  1 16  1  0  0  0  0
  2  8  1  0  0  0  0
  3 13  1  0  0  0  0
  3  4  1  0  0  0  0
  4  1  2  0  0  0  0
  5 10  1  0  0  0  0
  5  8  2  0  0  0  0
  6 16  2  0  0  0  0
  7  4  1  0  0  0  0
  7 15  2  0  0  0  0
  8 13  1  0  0  0  0
  9  7  1  0  0  0  0
 10  3  2  0  0  0  0
 11 15  1  0  0  0  0
 11 19  1  0  0  0  0
 12 20  1  1  0  0  0
 12  9  1  0  0  0  0
 12 17  1  0  0  0  0
 14 10  1  0  0  0  0
 14  9  2  0  0  0  0
 15  6  1  0  0  0  0
 17 11  2  0  0  0  0
 19 18  3  0  0  0  0
 21 20  1  0  0  0  0
 22 21  1  0  0  0  0
 23 25  2  0  0  0  0
 24 25  1  0  0  0  0
 25 26  1  0  0  0  0
 26 22  1  0  0  0  0
 27 24  1  0  0  0  0
 28 27  1  0  0  0  0
M  END
>  <MODEL>
6

>  <REMARK>
 VINA RESULT:      -8.9      1.917      2.659
  Name = 
  6 active torsions:
  status: ('A' for Active; 'I' for Inactive)
    1  A    between atoms: C_3  and  N_5
    2  A    between atoms: C_11  and  C_14
    3  A    between atoms: C_11  and  N_22
    4  A    between atoms: C_14  and  O_15
    5  A    between atoms: O_15  and  C_23
    6  A    between atoms: C_16  and  C_21
                            x       y       z     vdW  Elec       q    Type
                         _______ _______ _______ _____ _____    ______ ____

>  <TORSDO>
F 6

$$$$
=
 OpenBabel10222417253D

 28 31  0  0  1  0  0  0  0  0999 V2000
  187.3380  177.5550  146.1330 C   0  0  0  0  0  3  0  0  0  0  0  0
  192.1990  176.2730  148.0840 N   0  0  0  0  0  1  0  0  0  0  0  0
  189.7240  177.1550  145.8070 C   0  0  0  0  0  0  0  0  0  0  0  0
  188.4650  177.4890  145.3090 C   0  0  0  0  0  0  0  0  0  0  0  0
  191.9060  176.7610  145.7150 N   0  0  0  0  0  0  0  0  0  0  0  0
  185.9880  178.2060  144.2290 C   0  0  0  0  0  3  0  0  0  0  0  0
  188.3560  177.7720  143.9190 C   0  0  0  0  0  0  0  0  0  0  0  0
  191.3950  176.6290  146.9660 C   0  0  0  0  0  0  0  0  0  0  0  0
  189.5050  177.6930  143.0830 C   0  0  0  0  0  0  0  0  0  0  0  0
  190.8220  177.0970  145.0010 C   0  0  0  0  0  0  0  0  0  0  0  0
  186.9960  178.5050  141.9530 C   0  0  0  0  0  0  0  0  0  0  0  0
  189.4060  177.9220  141.5940 C   0  0  2  0  0  3  0  0  0  0  0  0
  190.0620  176.8600  147.0730 N   0  0  0  0  0  2  0  0  0  0  0  0
  190.7560  177.3540  143.6360 C   0  0  0  0  0  3  0  0  0  0  0  0
  187.1080  178.1440  143.3850 C   0  0  0  0  0  0  0  0  0  0  0  0
  186.1010  177.9090  145.5910 C   0  0  0  0  0  3  0  0  0  0  0  0
  188.0580  178.4270  141.1480 C   0  0  0  0  0  3  0  0  0  0  0  0
  184.7570  179.3670  140.9560 N   0  0  0  0  0  0  0  0  0  0  0  0
  185.7540  178.9830  141.4000 C   0  0  0  0  0  0  0  0  0  0  0  0
  189.7000  176.7370  140.9130 O   0  0  0  0  0  0  0  0  0  0  0  0
  190.6590  177.0960  139.9630 C   0  0  0  0  0  2  0  0  0  0  0  0
  190.1840  176.6800  138.5870 C   0  0  0  0  0  2  0  0  0  0  0  0
  190.4470  173.3840  137.0360 O   0  0  0  0  0  0  0  0  0  0  0  0
  189.2540  175.2240  136.2360 N   0  0  0  0  0  2  0  0  0  0  0  0
  190.0970  174.5830  137.1960 C   0  0  0  0  0  0  0  0  0  0  0  0
  190.5520  175.2960  138.3460 N   0  0  0  0  0  2  0  0  0  0  0  0
  188.7700  174.5330  135.0540 C   0  0  0  0  0  2  0  0  0  0  0  0
  187.3880  173.9750  135.3260 C   0  0  0  0  0  1  0  0  0  0  0  0
  3 13  1  0  0  0  0
  4  3  1  0  0  0  0
  4  1  2  0  0  0  0
  5  8  2  0  0  0  0
  6 16  2  0  0  0  0
  7  4  1  0  0  0  0
  8 13  1  0  0  0  0
  8  2  1  0  0  0  0
  9 14  2  0  0  0  0
  9  7  1  0  0  0  0
 10  5  1  0  0  0  0
 10  3  2  0  0  0  0
 11 15  1  0  0  0  0
 12 20  1  6  0  0  0
 12  9  1  0  0  0  0
 14 10  1  0  0  0  0
 15  7  2  0  0  0  0
 15  6  1  0  0  0  0
 16  1  1  0  0  0  0
 17 12  1  0  0  0  0
 17 11  2  0  0  0  0
 18 19  3  0  0  0  0
 19 11  1  0  0  0  0
 21 20  1  0  0  0  0
 22 21  1  0  0  0  0
 23 25  2  0  0  0  0
 24 25  1  0  0  0  0
 25 26  1  0  0  0  0
 26 22  1  0  0  0  0
 27 28  1  0  0  0  0
 27 24  1  0  0  0  0
M  END
>  <MODEL>
7

>  <REMARK>
 VINA RESULT:      -8.7      2.429      5.287
  Name = 
  6 active torsions:
  status: ('A' for Active; 'I' for Inactive)
    1  A    between atoms: C_3  and  N_5
    2  A    between atoms: C_11  and  C_14
    3  A    between atoms: C_11  and  N_22
    4  A    between atoms: C_14  and  O_15
    5  A    between atoms: O_15  and  C_23
    6  A    between atoms: C_16  and  C_21
                            x       y       z     vdW  Elec       q    Type
                         _______ _______ _______ _____ _____    ______ ____

>  <TORSDO>
F 6

$$$$
=
 OpenBabel10222417253D

 28 31  0  0  1  0  0  0  0  0999 V2000
  184.4850  179.0160  144.1080 C   0  0  0  0  0  3  0  0  0  0  0  0
  184.2720  179.4040  138.7330 N   0  0  0  0  0  1  0  0  0  0  0  0
  185.5310  178.7830  141.9140 C   0  0  0  0  0  0  0  0  0  0  0  0
  185.5790  178.6820  143.3040 C   0  0  0  0  0  0  0  0  0  0  0  0
  186.2990  178.6300  139.8390 N   0  0  0  0  0  0  0  0  0  0  0  0
  185.7530  178.4090  146.0810 C   0  0  0  0  0  3  0  0  0  0  0  0
  186.7870  178.2160  143.8930 C   0  0  0  0  0  0  0  0  0  0  0  0
  185.0190  179.0760  139.8980 C   0  0  0  0  0  0  0  0  0  0  0  0
  187.9010  177.8870  143.0710 C   0  0  0  0  0  0  0  0  0  0  0  0
  186.5970  178.4510  141.1330 C   0  0  0  0  0  0  0  0  0  0  0  0
  188.0930  177.5240  145.9100 C   0  0  0  0  0  0  0  0  0  0  0  0
  189.2160  177.4550  143.6710 C   0  0  2  0  0  3  0  0  0  0  0  0
  184.5040  179.1870  141.1490 N   0  0  0  0  0  2  0  0  0  0  0  0
  187.8000  178.0040  141.6700 C   0  0  0  0  0  3  0  0  0  0  0  0
  186.8630  178.0700  145.2910 C   0  0  0  0  0  0  0  0  0  0  0  0
  184.5760  178.8830  145.4940 C   0  0  0  0  0  3  0  0  0  0  0  0
  189.1530  177.2190  145.1580 C   0  0  0  0  0  3  0  0  0  0  0  0
  188.2230  177.0690  148.4650 N   0  0  0  0  0  0  0  0  0  0  0  0
  188.1650  177.2710  147.3270 C   0  0  0  0  0  0  0  0  0  0  0  0
  190.1970  178.4130  143.4000 O   0  0  0  0  0  0  0  0  0  0  0  0
  191.2830  177.6880  142.9060 C   0  0  0  0  0  2  0  0  0  0  0  0
  191.1660  177.5680  141.4010 C   0  0  0  0  0  2  0  0  0  0  0  0
  193.8890  176.9550  139.0450 O   0  0  0  0  0  0  0  0  0  0  0  0
  191.6190  176.5200  138.7160 N   0  0  0  0  0  2  0  0  0  0  0  0
  192.7160  176.9890  139.5030 C   0  0  0  0  0  0  0  0  0  0  0  0
  192.4940  177.5020  140.8170 N   0  0  0  0  0  2  0  0  0  0  0  0
  191.8040  175.9910  137.3760 C   0  0  0  0  0  2  0  0  0  0  0  0
  192.0380  174.4970  137.4520 C   0  0  0  0  0  1  0  0  0  0  0  0
  1 16  1  0  0  0  0
  2  8  1  0  0  0  0
  3  4  1  0  0  0  0
  4  7  1  0  0  0  0
  4  1  2  0  0  0  0
  5  8  2  0  0  0  0
  5 10  1  0  0  0  0
  7 15  2  0  0  0  0
  8 13  1  0  0  0  0
  9 12  1  0  0  0  0
  9  7  1  0  0  0  0
 10 14  1  0  0  0  0
 10  3  2  0  0  0  0
 11 19  1  0  0  0  0
 12 20  1  1  0  0  0
 12 17  1  0  0  0  0
 13  3  1  0  0  0  0
 14  9  2  0  0  0  0
 15 11  1  0  0  0  0
 15  6  1  0  0  0  0
 16  6  2  0  0  0  0
 17 11  2  0  0  0  0
 19 18  3  0  0  0  0
 21 20  1  0  0  0  0
 22 21  1  0  0  0  0
 23 25  2  0  0  0  0
 24 25  1  0  0  0  0
 25 26  1  0  0  0  0
 26 22  1  0  0  0  0
 27 28  1  0  0  0  0
 27 24  1  0  0  0  0
M  END
>  <MODEL>
8

>  <REMARK>
 VINA RESULT:      -8.6      2.632      3.667
  Name = 
  6 active torsions:
  status: ('A' for Active; 'I' for Inactive)
    1  A    between atoms: C_3  and  N_5
    2  A    between atoms: C_11  and  C_14
    3  A    between atoms: C_11  and  N_22
    4  A    between atoms: C_14  and  O_15
    5  A    between atoms: O_15  and  C_23
    6  A    between atoms: C_16  and  C_21
                            x       y       z     vdW  Elec       q    Type
                         _______ _______ _______ _____ _____    ______ ____

>  <TORSDO>
F 6

$$$$
=
 OpenBabel10222417253D

 28 31  0  0  1  0  0  0  0  0999 V2000
  189.7180  176.9410  144.2760 C   0  0  0  0  0  3  0  0  0  0  0  0
  192.0650  177.0680  139.4230 N   0  0  0  0  0  1  0  0  0  0  0  0
  189.6400  177.4350  141.8860 C   0  0  0  0  0  0  0  0  0  0  0  0
  189.0390  177.4030  143.1450 C   0  0  0  0  0  0  0  0  0  0  0  0
  189.7680  177.8260  139.7060 N   0  0  0  0  0  0  0  0  0  0  0  0
  187.7680  177.4120  145.6350 C   0  0  0  0  0  3  0  0  0  0  0  0
  187.6980  177.8650  143.2510 C   0  0  0  0  0  0  0  0  0  0  0  0
  190.9150  177.3160  140.2210 C   0  0  0  0  0  0  0  0  0  0  0  0
  187.0080  178.3250  142.0940 C   0  0  0  0  0  0  0  0  0  0  0  0
  188.9770  177.8920  140.7870 C   0  0  0  0  0  0  0  0  0  0  0  0
  185.6960  178.4190  144.6440 C   0  0  0  0  0  0  0  0  0  0  0  0
  185.5650  178.7580  142.1640 C   0  0  2  0  0  3  0  0  0  0  0  0
  190.8850  177.0600  141.5540 N   0  0  0  0  0  2  0  0  0  0  0  0
  187.6610  178.3410  140.8450 C   0  0  0  0  0  3  0  0  0  0  0  0
  187.0680  177.8780  144.5100 C   0  0  0  0  0  0  0  0  0  0  0  0
  189.0790  176.9410  145.5170 C   0  0  0  0  0  3  0  0  0  0  0  0
  185.0270  178.8450  143.5700 C   0  0  0  0  0  3  0  0  0  0  0  0
  184.5550  178.6280  146.9680 N   0  0  0  0  0  0  0  0  0  0  0  0
  185.0640  178.5350  145.9330 C   0  0  0  0  0  0  0  0  0  0  0  0
  184.7710  177.8790  141.4230 O   0  0  0  0  0  0  0  0  0  0  0  0
  184.0500  178.6940  140.5480 C   0  0  0  0  0  2  0  0  0  0  0  0
  184.2490  178.2080  139.1280 C   0  0  0  0  0  2  0  0  0  0  0  0
  187.1950  179.0030  137.1190 O   0  0  0  0  0  0  0  0  0  0  0  0
  186.1390  176.9300  137.3090 N   0  0  0  0  0  2  0  0  0  0  0  0
  186.2660  178.3180  137.6240 C   0  0  0  0  0  0  0  0  0  0  0  0
  185.3410  178.9430  138.5140 N   0  0  0  0  0  2  0  0  0  0  0  0
  187.0600  176.2570  136.4090 C   0  0  0  0  0  2  0  0  0  0  0  0
  188.1530  175.5860  137.2150 C   0  0  0  0  0  1  0  0  0  0  0  0
  1 16  1  0  0  0  0
  2  8  1  0  0  0  0
  3  4  1  0  0  0  0
  4  7  1  0  0  0  0
  4  1  2  0  0  0  0
  5  8  2  0  0  0  0
  5 10  1  0  0  0  0
  7 15  2  0  0  0  0
  8 13  1  0  0  0  0
  9 12  1  0  0  0  0
  9  7  1  0  0  0  0
 10 14  1  0  0  0  0
 10  3  2  0  0  0  0
 11 19  1  0  0  0  0
 12 20  1  6  0  0  0
 12 17  1  0  0  0  0
 13  3  1  0  0  0  0
 14  9  2  0  0  0  0
 15 11  1  0  0  0  0
 15  6  1  0  0  0  0
 16  6  2  0  0  0  0
 17 11  2  0  0  0  0
 19 18  3  0  0  0  0
 21 20  1  0  0  0  0
 22 21  1  0  0  0  0
 23 25  2  0  0  0  0
 24 25  1  0  0  0  0
 25 26  1  0  0  0  0
 26 22  1  0  0  0  0
 27 28  1  0  0  0  0
 27 24  1  0  0  0  0
M  END
>  <MODEL>
9

>  <REMARK>
 VINA RESULT:      -8.5      2.419      5.420
  Name = 
  6 active torsions:
  status: ('A' for Active; 'I' for Inactive)
    1  A    between atoms: C_3  and  N_5
    2  A    between atoms: C_11  and  C_14
    3  A    between atoms: C_11  and  N_22
    4  A    between atoms: C_14  and  O_15
    5  A    between atoms: O_15  and  C_23
    6  A    between atoms: C_16  and  C_21
                            x       y       z     vdW  Elec       q    Type
                         _______ _______ _______ _____ _____    ______ ____

>  <TORSDO>
F 6

$$$$
