=
 OpenBabel10222420173D

 27 31  0  0  1  0  0  0  0  0999 V2000
  187.0990  178.0390  142.9220 C   0  0  0  0  0  0  0  0  0  0  0  0
  186.3320  178.6210  146.1920 C   0  0  0  0  0  3  0  0  0  0  0  0
  188.2310  177.5250  143.5030 C   0  0  0  0  0  0  0  0  0  0  0  0
  188.3210  178.4110  140.8810 C   0  0  0  0  0  3  0  0  0  0  0  0
  189.4420  177.4380  142.8170 C   0  0  0  0  0  3  0  0  0  0  0  0
  189.4790  177.8870  141.4870 C   0  0  0  0  0  3  0  0  0  0  0  0
  187.9070  177.1430  144.8660 C   0  0  0  0  0  0  0  0  0  0  0  0
  187.0250  178.5310  147.2990 C   0  0  0  0  0  0  0  0  0  0  0  0
  187.1170  178.4930  141.5990 C   0  0  0  0  0  3  0  0  0  0  0  0
  187.8470  178.3410  148.2970 C   0  0  0  0  0  3  0  0  0  0  0  0
  185.9940  178.0560  143.8330 N   0  0  0  0  0  0  0  0  0  0  0  0
  189.5120  176.9450  146.9090 C   0  0  0  0  0  3  0  0  0  0  0  0
  189.0670  177.5860  148.1230 N   0  0  0  0  0  2  0  0  0  0  0  0
  188.7820  176.9870  145.8260 C   0  0  0  0  0  0  0  0  0  0  0  0
  186.4630  177.5450  145.1320 C   0  0  2  0  0  3  0  0  0  0  0  0
  181.9650  178.9110  142.9170 C   0  0  0  0  0  0  0  0  0  0  0  0
  182.3600  179.0000  144.2480 C   0  0  0  0  0  3  0  0  0  0  0  0
  180.7220  179.1420  142.3820 O   0  0  0  0  0  0  0  0  0  0  0  0
  184.1590  178.2780  142.1920 C   0  0  0  0  0  3  0  0  0  0  0  0
  182.0770  178.5760  140.6470 C   0  0  0  0  0  2  0  0  0  0  0  0
  183.7030  178.7140  144.5470 C   0  0  0  0  0  3  0  0  0  0  0  0
  180.6900  178.9470  141.0080 N   0  0  0  0  0  0  0  0  0  0  0  0
  182.8220  178.5650  141.9320 C   0  0  0  0  0  0  0  0  0  0  0  0
  184.6160  178.3510  143.5260 C   0  0  0  0  0  0  0  0  0  0  0  0
  180.4210  180.2380  140.3940 C   0  0  0  0  0  2  0  0  0  0  0  0
  178.9310  181.8620  140.4420 C   0  0  0  0  0  1  0  0  0  0  0  0
  179.6810  181.0310  141.2700 O   0  0  0  0  0  0  0  0  0  0  0  0
  1  3  1  0  0  0  0
  1 11  1  0  0  0  0
  2  8  2  0  0  0  0
  3  7  1  0  0  0  0
  4  6  2  0  0  0  0
  4  9  1  0  0  0  0
  5  3  2  0  0  0  0
  6  5  1  0  0  0  0
  7 15  1  0  0  0  0
  7 14  2  0  0  0  0
  8 10  2  0  0  0  0
  9  1  2  0  0  0  0
 11 15  1  0  0  0  0
 12 13  1  0  0  0  0
 13 10  1  0  0  0  0
 14 12  2  0  0  0  0
 15  2  1  1  0  0  0
 16 17  1  0  0  0  0
 17 21  2  0  0  0  0
 18 16  1  0  0  0  0
 19 24  2  0  0  0  0
 20 22  1  0  0  0  0
 20 23  1  0  0  0  0
 22 18  1  0  0  0  0
 23 19  1  0  0  0  0
 23 16  2  0  0  0  0
 24 11  1  0  0  0  0
 24 21  1  0  0  0  0
 25 22  1  0  0  0  0
 25 27  1  0  0  0  0
 26 27  1  0  0  0  0
M  END
>  <MODEL>
1

>  <REMARK>
 VINA RESULT:      -9.7      0.000      0.000
  Name = 
  3 active torsions:
  status: ('A' for Active; 'I' for Inactive)
    1  A    between atoms: O_14  and  C_17
    2  A    between atoms: C_17  and  N_24
    3  A    between atoms: N_20  and  C_27
                            x       y       z     vdW  Elec       q    Type
                         _______ _______ _______ _____ _____    ______ ____

>  <TORSDO>
F 3

$$$$
=
 OpenBabel10222420173D

 27 31  0  0  1  0  0  0  0  0999 V2000
  187.2880  178.1160  146.2540 C   0  0  0  0  0  0  0  0  0  0  0  0
  188.2200  176.5420  143.3770 C   0  0  0  0  0  3  0  0  0  0  0  0
  188.6410  178.0520  146.4720 C   0  0  0  0  0  0  0  0  0  0  0  0
  186.9160  178.2530  148.6290 C   0  0  0  0  0  3  0  0  0  0  0  0
  189.1870  178.0780  147.7550 C   0  0  0  0  0  3  0  0  0  0  0  0
  188.3060  178.1820  148.8430 C   0  0  0  0  0  3  0  0  0  0  0  0
  189.3040  177.9500  145.1830 C   0  0  0  0  0  0  0  0  0  0  0  0
  189.3480  176.0150  142.9750 C   0  0  0  0  0  0  0  0  0  0  0  0
  186.3950  178.2180  147.3250 C   0  0  0  0  0  3  0  0  0  0  0  0
  190.5580  175.5860  142.7250 C   0  0  0  0  0  3  0  0  0  0  0  0
  186.9700  178.0380  144.8590 N   0  0  0  0  0  0  0  0  0  0  0  0
  191.6370  176.9220  144.6480 C   0  0  0  0  0  3  0  0  0  0  0  0
  191.6780  176.0030  143.5350 N   0  0  0  0  0  2  0  0  0  0  0  0
  190.5150  177.4910  145.0000 C   0  0  0  0  0  0  0  0  0  0  0  0
  188.2260  177.8680  144.1110 C   0  0  2  0  0  3  0  0  0  0  0  0
  183.2080  178.6550  143.0510 C   0  0  0  0  0  0  0  0  0  0  0  0
  183.3500  179.0090  144.3890 C   0  0  0  0  0  3  0  0  0  0  0  0
  182.0940  178.7630  142.2560 O   0  0  0  0  0  0  0  0  0  0  0  0
  185.4800  177.9120  142.8910 C   0  0  0  0  0  3  0  0  0  0  0  0
  183.7320  177.8770  140.9530 C   0  0  0  0  0  2  0  0  0  0  0  0
  184.6050  178.8020  144.9850 C   0  0  0  0  0  3  0  0  0  0  0  0
  182.3130  178.2990  140.9670 N   0  0  0  0  0  0  0  0  0  0  0  0
  184.2240  178.1290  142.3320 C   0  0  0  0  0  0  0  0  0  0  0  0
  185.6820  178.2530  144.2460 C   0  0  0  0  0  0  0  0  0  0  0  0
  182.2000  179.4400  140.0710 C   0  0  0  0  0  2  0  0  0  0  0  0
  180.8420  180.8800  139.0990 C   0  0  0  0  0  1  0  0  0  0  0  0
  180.9210  179.9870  140.1660 O   0  0  0  0  0  0  0  0  0  0  0  0
  1  3  2  0  0  0  0
  1  9  1  0  0  0  0
  3  5  1  0  0  0  0
  4  6  1  0  0  0  0
  5  6  2  0  0  0  0
  7  3  1  0  0  0  0
  8  2  2  0  0  0  0
  9  4  2  0  0  0  0
 10  8  2  0  0  0  0
 10 13  1  0  0  0  0
 11  1  1  0  0  0  0
 12 14  2  0  0  0  0
 13 12  1  0  0  0  0
 14  7  2  0  0  0  0
 15  2  1  1  0  0  0
 15 11  1  0  0  0  0
 15  7  1  0  0  0  0
 16 17  1  0  0  0  0
 17 21  2  0  0  0  0
 18 16  1  0  0  0  0
 19 24  2  0  0  0  0
 20 22  1  0  0  0  0
 20 23  1  0  0  0  0
 22 18  1  0  0  0  0
 23 19  1  0  0  0  0
 23 16  2  0  0  0  0
 24 11  1  0  0  0  0
 24 21  1  0  0  0  0
 25 27  1  0  0  0  0
 25 22  1  0  0  0  0
 26 27  1  0  0  0  0
M  END
>  <MODEL>
2

>  <REMARK>
 VINA RESULT:      -9.4      1.736      3.722
  Name = 
  3 active torsions:
  status: ('A' for Active; 'I' for Inactive)
    1  A    between atoms: O_14  and  C_17
    2  A    between atoms: C_17  and  N_24
    3  A    between atoms: N_20  and  C_27
                            x       y       z     vdW  Elec       q    Type
                         _______ _______ _______ _____ _____    ______ ____

>  <TORSDO>
F 3

$$$$
=
 OpenBabel10222420173D

 27 31  0  0  1  0  0  0  0  0999 V2000
  189.2110  177.4880  144.1140 C   0  0  0  0  0  0  0  0  0  0  0  0
  186.3870  178.9190  142.8500 C   0  0  0  0  0  3  0  0  0  0  0  0
  188.4140  177.4130  145.2290 C   0  0  0  0  0  0  0  0  0  0  0  0
  191.1690  177.4200  145.5150 C   0  0  0  0  0  3  0  0  0  0  0  0
  188.9460  177.3460  146.5160 C   0  0  0  0  0  3  0  0  0  0  0  0
  190.3430  177.3480  146.6530 C   0  0  0  0  0  3  0  0  0  0  0  0
  187.0280  177.4280  144.7970 C   0  0  0  0  0  0  0  0  0  0  0  0
  185.2690  179.3200  143.4000 C   0  0  0  0  0  0  0  0  0  0  0  0
  190.6050  177.4930  144.2300 C   0  0  0  0  0  3  0  0  0  0  0  0
  184.2110  179.6170  144.1070 C   0  0  0  0  0  3  0  0  0  0  0  0
  188.4370  177.5810  142.9120 N   0  0  0  0  0  0  0  0  0  0  0  0
  184.9310  178.2000  146.1360 C   0  0  0  0  0  3  0  0  0  0  0  0
  184.0360  179.0960  145.4420 N   0  0  0  0  0  2  0  0  0  0  0  0
  186.0130  177.7560  145.5540 C   0  0  0  0  0  0  0  0  0  0  0  0
  187.0130  177.6090  143.2850 C   0  0  2  0  0  3  0  0  0  0  0  0
  189.8390  177.3420  138.9400 C   0  0  0  0  0  0  0  0  0  0  0  0
  190.5500  176.6570  139.9200 C   0  0  0  0  0  3  0  0  0  0  0  0
  190.0980  177.4100  137.5940 O   0  0  0  0  0  0  0  0  0  0  0  0
  188.2380  178.1680  140.5200 C   0  0  0  0  0  3  0  0  0  0  0  0
  188.2280  178.6520  137.9550 C   0  0  0  0  0  2  0  0  0  0  0  0
  190.0780  176.7410  141.2410 C   0  0  0  0  0  3  0  0  0  0  0  0
  189.1790  178.1990  136.9150 N   0  0  0  0  0  0  0  0  0  0  0  0
  188.7340  178.0660  139.2230 C   0  0  0  0  0  0  0  0  0  0  0  0
  188.9200  177.4940  141.5560 C   0  0  0  0  0  0  0  0  0  0  0  0
  188.4420  177.3260  136.0150 C   0  0  0  0  0  2  0  0  0  0  0  0
  186.8800  177.9600  134.5940 C   0  0  0  0  0  1  0  0  0  0  0  0
  187.1100  177.7350  135.9490 O   0  0  0  0  0  0  0  0  0  0  0  0
  1  9  2  0  0  0  0
  1  3  1  0  0  0  0
  2  8  2  0  0  0  0
  3  5  2  0  0  0  0
  4  6  2  0  0  0  0
  5  6  1  0  0  0  0
  7  3  1  0  0  0  0
  7 14  2  0  0  0  0
  8 10  2  0  0  0  0
  9  4  1  0  0  0  0
 10 13  1  0  0  0  0
 11 15  1  0  0  0  0
 11  1  1  0  0  0  0
 13 12  1  0  0  0  0
 14 12  2  0  0  0  0
 15  2  1  1  0  0  0
 15  7  1  0  0  0  0
 16 23  2  0  0  0  0
 16 17  1  0  0  0  0
 17 21  2  0  0  0  0
 18 16  1  0  0  0  0
 19 24  2  0  0  0  0
 20 23  1  0  0  0  0
 21 24  1  0  0  0  0
 22 18  1  0  0  0  0
 22 20  1  0  0  0  0
 23 19  1  0  0  0  0
 24 11  1  0  0  0  0
 25 22  1  0  0  0  0
 26 27  1  0  0  0  0
 27 25  1  0  0  0  0
M  END
>  <MODEL>
3

>  <REMARK>
 VINA RESULT:      -9.3      3.763      6.387
  Name = 
  3 active torsions:
  status: ('A' for Active; 'I' for Inactive)
    1  A    between atoms: O_14  and  C_17
    2  A    between atoms: C_17  and  N_24
    3  A    between atoms: N_20  and  C_27
                            x       y       z     vdW  Elec       q    Type
                         _______ _______ _______ _____ _____    ______ ____

>  <TORSDO>
F 3

$$$$
=
 OpenBabel10222420173D

 27 31  0  0  1  0  0  0  0  0999 V2000
  187.7800  177.8100  145.3010 C   0  0  0  0  0  0  0  0  0  0  0  0
  188.2390  177.3040  141.9620 C   0  0  0  0  0  3  0  0  0  0  0  0
  189.1520  177.8490  145.2640 C   0  0  0  0  0  0  0  0  0  0  0  0
  187.8660  177.1770  147.6240 C   0  0  0  0  0  3  0  0  0  0  0  0
  189.9320  177.5530  146.3820 C   0  0  0  0  0  3  0  0  0  0  0  0
  189.2730  177.2150  147.5740 C   0  0  0  0  0  3  0  0  0  0  0  0
  189.5580  178.2230  143.9210 C   0  0  0  0  0  0  0  0  0  0  0  0
  189.3000  177.0650  141.2350 C   0  0  0  0  0  0  0  0  0  0  0  0
  187.1060  177.4740  146.4800 C   0  0  0  0  0  3  0  0  0  0  0  0
  190.4640  176.8830  140.6670 C   0  0  0  0  0  3  0  0  0  0  0  0
  187.2050  178.1190  144.0270 N   0  0  0  0  0  0  0  0  0  0  0  0
  191.8050  177.6970  142.7120 C   0  0  0  0  0  3  0  0  0  0  0  0
  191.6910  177.1690  141.3740 N   0  0  0  0  0  2  0  0  0  0  0  0
  190.7380  177.9920  143.4060 C   0  0  0  0  0  0  0  0  0  0  0  0
  188.3010  178.3370  143.0700 C   0  0  2  0  0  3  0  0  0  0  0  0
  183.1310  178.7840  143.1520 C   0  0  0  0  0  0  0  0  0  0  0  0
  183.5850  179.1250  144.4220 C   0  0  0  0  0  3  0  0  0  0  0  0
  181.8630  178.9090  142.6400 O   0  0  0  0  0  0  0  0  0  0  0  0
  185.2950  178.0230  142.4600 C   0  0  0  0  0  3  0  0  0  0  0  0
  183.1430  178.0210  140.9840 C   0  0  0  0  0  2  0  0  0  0  0  0
  184.9430  178.9020  144.7070 C   0  0  0  0  0  3  0  0  0  0  0  0
  181.7710  178.4550  141.3320 N   0  0  0  0  0  0  0  0  0  0  0  0
  183.9460  178.2560  142.2120 C   0  0  0  0  0  0  0  0  0  0  0  0
  185.8120  178.3510  143.7330 C   0  0  0  0  0  0  0  0  0  0  0  0
  181.4630  179.6050  140.4960 C   0  0  0  0  0  2  0  0  0  0  0  0
  179.9560  181.1200  139.9510 C   0  0  0  0  0  1  0  0  0  0  0  0
  180.3110  180.2340  140.9660 O   0  0  0  0  0  0  0  0  0  0  0  0
  1  9  1  0  0  0  0
  3  1  2  0  0  0  0
  3  5  1  0  0  0  0
  5  6  2  0  0  0  0
  6  4  1  0  0  0  0
  7  3  1  0  0  0  0
  8  2  2  0  0  0  0
  9  4  2  0  0  0  0
 10  8  2  0  0  0  0
 10 13  1  0  0  0  0
 11  1  1  0  0  0  0
 12 14  2  0  0  0  0
 13 12  1  0  0  0  0
 14  7  2  0  0  0  0
 15  2  1  6  0  0  0
 15  7  1  0  0  0  0
 15 11  1  0  0  0  0
 16 17  1  0  0  0  0
 17 21  2  0  0  0  0
 18 16  1  0  0  0  0
 19 24  2  0  0  0  0
 20 22  1  0  0  0  0
 20 23  1  0  0  0  0
 22 18  1  0  0  0  0
 23 19  1  0  0  0  0
 23 16  2  0  0  0  0
 24 11  1  0  0  0  0
 24 21  1  0  0  0  0
 25 27  1  0  0  0  0
 25 22  1  0  0  0  0
 26 27  1  0  0  0  0
M  END
>  <MODEL>
4

>  <REMARK>
 VINA RESULT:      -9.3      1.700      3.784
  Name = 
  3 active torsions:
  status: ('A' for Active; 'I' for Inactive)
    1  A    between atoms: O_14  and  C_17
    2  A    between atoms: C_17  and  N_24
    3  A    between atoms: N_20  and  C_27
                            x       y       z     vdW  Elec       q    Type
                         _______ _______ _______ _____ _____    ______ ____

>  <TORSDO>
F 3

$$$$
=
 OpenBabel10222420173D

 27 31  0  0  1  0  0  0  0  0999 V2000
  188.0470  177.8270  141.7500 C   0  0  0  0  0  0  0  0  0  0  0  0
  188.3730  177.9010  145.1420 C   0  0  0  0  0  3  0  0  0  0  0  0
  189.2620  177.1980  141.8630 C   0  0  0  0  0  0  0  0  0  0  0  0
  188.6050  178.4870  139.5020 C   0  0  0  0  0  3  0  0  0  0  0  0
  190.1910  177.1890  140.8240 C   0  0  0  0  0  3  0  0  0  0  0  0
  189.8500  177.8430  139.6290 C   0  0  0  0  0  3  0  0  0  0  0  0
  189.3470  176.6120  143.1890 C   0  0  0  0  0  0  0  0  0  0  0  0
  189.3650  177.6180  145.9480 C   0  0  0  0  0  0  0  0  0  0  0  0
  187.6900  178.4850  140.5680 C   0  0  0  0  0  3  0  0  0  0  0  0
  190.4380  177.2490  146.5960 C   0  0  0  0  0  3  0  0  0  0  0  0
  187.2820  177.7270  142.9570 N   0  0  0  0  0  0  0  0  0  0  0  0
  191.4840  176.0490  144.5690 C   0  0  0  0  0  3  0  0  0  0  0  0
  191.4850  176.5000  145.9400 N   0  0  0  0  0  2  0  0  0  0  0  0
  190.4610  176.2820  143.7910 C   0  0  0  0  0  0  0  0  0  0  0  0
  188.0890  177.0050  143.9530 C   0  0  2  0  0  3  0  0  0  0  0  0
  183.2420  178.8170  143.4970 C   0  0  0  0  0  0  0  0  0  0  0  0
  184.1180  179.0290  144.5570 C   0  0  0  0  0  3  0  0  0  0  0  0
  181.8980  179.0920  143.4380 O   0  0  0  0  0  0  0  0  0  0  0  0
  184.9690  177.9120  142.1050 C   0  0  0  0  0  3  0  0  0  0  0  0
  182.4670  178.2050  141.4230 C   0  0  0  0  0  2  0  0  0  0  0  0
  185.4620  178.6650  144.3710 C   0  0  0  0  0  3  0  0  0  0  0  0
  181.3380  178.7370  142.2180 N   0  0  0  0  0  0  0  0  0  0  0  0
  183.6450  178.2830  142.3240 C   0  0  0  0  0  0  0  0  0  0  0  0
  185.9030  178.1040  143.1470 C   0  0  0  0  0  0  0  0  0  0  0  0
  180.9010  179.9650  141.5700 C   0  0  0  0  0  2  0  0  0  0  0  0
  179.0110  181.0990  141.6040 C   0  0  0  0  0  1  0  0  0  0  0  0
  180.0540  180.6710  142.4230 O   0  0  0  0  0  0  0  0  0  0  0  0
  1  3  1  0  0  0  0
  1 11  1  0  0  0  0
  2  8  2  0  0  0  0
  3  7  1  0  0  0  0
  4  6  2  0  0  0  0
  4  9  1  0  0  0  0
  5  3  2  0  0  0  0
  6  5  1  0  0  0  0
  7 14  2  0  0  0  0
  7 15  1  0  0  0  0
  8 10  2  0  0  0  0
  9  1  2  0  0  0  0
 11 24  1  0  0  0  0
 11 15  1  0  0  0  0
 12 13  1  0  0  0  0
 13 10  1  0  0  0  0
 14 12  2  0  0  0  0
 15  2  1  1  0  0  0
 16 17  1  0  0  0  0
 18 16  1  0  0  0  0
 19 23  1  0  0  0  0
 19 24  2  0  0  0  0
 20 22  1  0  0  0  0
 20 23  1  0  0  0  0
 21 17  2  0  0  0  0
 22 18  1  0  0  0  0
 23 16  2  0  0  0  0
 24 21  1  0  0  0  0
 25 22  1  0  0  0  0
 25 27  1  0  0  0  0
 26 27  1  0  0  0  0
M  END
>  <MODEL>
5

>  <REMARK>
 VINA RESULT:      -9.2      1.502      1.984
  Name = 
  3 active torsions:
  status: ('A' for Active; 'I' for Inactive)
    1  A    between atoms: O_14  and  C_17
    2  A    between atoms: C_17  and  N_24
    3  A    between atoms: N_20  and  C_27
                            x       y       z     vdW  Elec       q    Type
                         _______ _______ _______ _____ _____    ______ ____

>  <TORSDO>
F 3

$$$$
=
 OpenBabel10222420173D

 27 31  0  0  1  0  0  0  0  0999 V2000
  188.0020  177.7430  143.6920 C   0  0  0  0  0  0  0  0  0  0  0  0
  191.0200  176.2330  144.1700 C   0  0  0  0  0  3  0  0  0  0  0  0
  188.1120  177.9050  145.0510 C   0  0  0  0  0  0  0  0  0  0  0  0
  185.6060  177.9080  143.8700 C   0  0  0  0  0  3  0  0  0  0  0  0
  186.9940  178.0660  145.8700 C   0  0  0  0  0  3  0  0  0  0  0  0
  185.7280  178.0680  145.2640 C   0  0  0  0  0  3  0  0  0  0  0  0
  189.5210  177.8630  145.4000 C   0  0  0  0  0  0  0  0  0  0  0  0
  191.6800  175.8790  145.2430 C   0  0  0  0  0  0  0  0  0  0  0  0
  186.7490  177.7410  143.0710 C   0  0  0  0  0  3  0  0  0  0  0  0
  192.2100  175.6400  146.4140 C   0  0  0  0  0  3  0  0  0  0  0  0
  189.2810  177.5640  143.0740 N   0  0  0  0  0  0  0  0  0  0  0  0
  190.5960  177.2020  147.6790 C   0  0  0  0  0  3  0  0  0  0  0  0
  191.6890  176.2610  147.6090 N   0  0  0  0  0  2  0  0  0  0  0  0
  189.9870  177.5970  146.5930 C   0  0  0  0  0  0  0  0  0  0  0  0
  190.3060  177.5700  144.1300 C   0  0  2  0  0  3  0  0  0  0  0  0
  190.1120  177.5270  138.9370 C   0  0  0  0  0  0  0  0  0  0  0  0
  191.1380  177.1730  139.8070 C   0  0  0  0  0  3  0  0  0  0  0  0
  190.1420  177.5860  137.5660 O   0  0  0  0  0  0  0  0  0  0  0  0
  188.5670  177.8980  140.7310 C   0  0  0  0  0  3  0  0  0  0  0  0
  188.0400  178.1830  138.1910 C   0  0  0  0  0  2  0  0  0  0  0  0
  190.8550  177.1870  141.1830 C   0  0  0  0  0  3  0  0  0  0  0  0
  188.9300  177.9920  137.0240 N   0  0  0  0  0  0  0  0  0  0  0  0
  188.8820  177.8750  139.3750 C   0  0  0  0  0  0  0  0  0  0  0  0
  189.5710  177.5470  141.6600 C   0  0  0  0  0  0  0  0  0  0  0  0
  188.4000  176.8710  136.2630 C   0  0  0  0  0  2  0  0  0  0  0  0
  187.4200  174.9680  136.7910 C   0  0  0  0  0  1  0  0  0  0  0  0
  187.2820  176.3490  136.9120 O   0  0  0  0  0  0  0  0  0  0  0  0
  1  3  1  0  0  0  0
  2  8  2  0  0  0  0
  3  7  1  0  0  0  0
  3  5  2  0  0  0  0
  4  6  2  0  0  0  0
  6  5  1  0  0  0  0
  7 14  2  0  0  0  0
  8 10  2  0  0  0  0
  9  1  2  0  0  0  0
  9  4  1  0  0  0  0
 10 13  1  0  0  0  0
 11  1  1  0  0  0  0
 11 15  1  0  0  0  0
 13 12  1  0  0  0  0
 14 12  2  0  0  0  0
 15  2  1  1  0  0  0
 15  7  1  0  0  0  0
 16 23  2  0  0  0  0
 16 17  1  0  0  0  0
 17 21  2  0  0  0  0
 18 16  1  0  0  0  0
 19 24  2  0  0  0  0
 20 23  1  0  0  0  0
 21 24  1  0  0  0  0
 22 18  1  0  0  0  0
 22 20  1  0  0  0  0
 23 19  1  0  0  0  0
 24 11  1  0  0  0  0
 25 27  1  0  0  0  0
 25 22  1  0  0  0  0
 26 27  1  0  0  0  0
M  END
>  <MODEL>
6

>  <REMARK>
 VINA RESULT:      -9.2      4.253      6.422
  Name = 
  3 active torsions:
  status: ('A' for Active; 'I' for Inactive)
    1  A    between atoms: O_14  and  C_17
    2  A    between atoms: C_17  and  N_24
    3  A    between atoms: N_20  and  C_27
                            x       y       z     vdW  Elec       q    Type
                         _______ _______ _______ _____ _____    ______ ____

>  <TORSDO>
F 3

$$$$
=
 OpenBabel10222420173D

 27 31  0  0  1  0  0  0  0  0999 V2000
  186.8350  178.1840  145.2730 C   0  0  0  0  0  0  0  0  0  0  0  0
  188.6320  176.4420  142.9590 C   0  0  0  0  0  3  0  0  0  0  0  0
  188.0090  178.0480  145.9700 C   0  0  0  0  0  0  0  0  0  0  0  0
  185.6390  178.4400  147.3480 C   0  0  0  0  0  3  0  0  0  0  0  0
  188.0530  178.0930  147.3630 C   0  0  0  0  0  3  0  0  0  0  0  0
  186.8480  178.2950  148.0540 C   0  0  0  0  0  3  0  0  0  0  0  0
  189.0850  177.8550  145.0130 C   0  0  0  0  0  0  0  0  0  0  0  0
  189.7890  175.8330  143.0040 C   0  0  0  0  0  0  0  0  0  0  0  0
  185.6240  178.3840  145.9440 C   0  0  0  0  0  3  0  0  0  0  0  0
  190.9730  175.3220  143.2180 C   0  0  0  0  0  3  0  0  0  0  0  0
  187.0390  178.0690  143.8600 N   0  0  0  0  0  0  0  0  0  0  0  0
  191.3740  176.6670  145.3810 C   0  0  0  0  0  3  0  0  0  0  0  0
  191.7510  175.7030  144.3740 N   0  0  0  0  0  2  0  0  0  0  0  0
  190.2440  177.3170  145.2910 C   0  0  0  0  0  0  0  0  0  0  0  0
  188.4660  177.7940  143.6240 C   0  0  2  0  0  3  0  0  0  0  0  0
  184.2180  178.8550  140.8230 C   0  0  0  0  0  0  0  0  0  0  0  0
  185.5660  178.8900  140.4800 C   0  0  0  0  0  3  0  0  0  0  0  0
  183.1300  179.0720  140.0140 O   0  0  0  0  0  0  0  0  0  0  0  0
  184.6980  178.3150  143.1070 C   0  0  0  0  0  3  0  0  0  0  0  0
  182.3140  178.6200  142.0880 C   0  0  0  0  0  2  0  0  0  0  0  0
  186.5010  178.6280  141.4950 C   0  0  0  0  0  3  0  0  0  0  0  0
  181.9280  178.9660  140.7010 N   0  0  0  0  0  0  0  0  0  0  0  0
  183.7990  178.5820  142.0780 C   0  0  0  0  0  0  0  0  0  0  0  0
  186.0800  178.3370  142.8170 C   0  0  0  0  0  0  0  0  0  0  0  0
  181.2190  177.8180  140.1570 C   0  0  0  0  0  2  0  0  0  0  0  0
  181.9950  176.0040  139.1720 C   0  0  0  0  0  1  0  0  0  0  0  0
  181.8550  177.3800  138.9960 O   0  0  0  0  0  0  0  0  0  0  0  0
  1  9  2  0  0  0  0
  1  3  1  0  0  0  0
  2  8  2  0  0  0  0
  3  5  2  0  0  0  0
  4  6  2  0  0  0  0
  5  6  1  0  0  0  0
  7 14  2  0  0  0  0
  7  3  1  0  0  0  0
  8 10  2  0  0  0  0
  9  4  1  0  0  0  0
 10 13  1  0  0  0  0
 11  1  1  0  0  0  0
 13 12  1  0  0  0  0
 14 12  2  0  0  0  0
 15  2  1  1  0  0  0
 15 11  1  0  0  0  0
 15  7  1  0  0  0  0
 16 23  1  0  0  0  0
 17 16  2  0  0  0  0
 17 21  1  0  0  0  0
 18 22  1  0  0  0  0
 18 16  1  0  0  0  0
 21 24  2  0  0  0  0
 22 20  1  0  0  0  0
 23 20  1  0  0  0  0
 23 19  2  0  0  0  0
 24 19  1  0  0  0  0
 24 11  1  0  0  0  0
 25 22  1  0  0  0  0
 27 26  1  0  0  0  0
 27 25  1  0  0  0  0
M  END
>  <MODEL>
7

>  <REMARK>
 VINA RESULT:      -9.2      2.063      4.049
  Name = 
  3 active torsions:
  status: ('A' for Active; 'I' for Inactive)
    1  A    between atoms: O_14  and  C_17
    2  A    between atoms: C_17  and  N_24
    3  A    between atoms: N_20  and  C_27
                            x       y       z     vdW  Elec       q    Type
                         _______ _______ _______ _____ _____    ______ ____

>  <TORSDO>
F 3

$$$$
=
 OpenBabel10222420173D

 27 31  0  0  1  0  0  0  0  0999 V2000
  188.7600  177.5460  145.4050 C   0  0  0  0  0  0  0  0  0  0  0  0
  186.3780  178.9180  143.3900 C   0  0  0  0  0  3  0  0  0  0  0  0
  187.7010  177.5230  146.2770 C   0  0  0  0  0  0  0  0  0  0  0  0
  190.2880  177.5430  147.2670 C   0  0  0  0  0  3  0  0  0  0  0  0
  187.8810  177.5160  147.6600 C   0  0  0  0  0  3  0  0  0  0  0  0
  189.1950  177.5240  148.1540 C   0  0  0  0  0  3  0  0  0  0  0  0
  186.4740  177.5180  145.5000 C   0  0  0  0  0  0  0  0  0  0  0  0
  185.1600  179.3440  143.6120 C   0  0  0  0  0  0  0  0  0  0  0  0
  190.0770  177.5560  145.8780 C   0  0  0  0  0  3  0  0  0  0  0  0
  183.9590  179.6740  144.0070 C   0  0  0  0  0  3  0  0  0  0  0  0
  188.3250  177.5840  144.0410 N   0  0  0  0  0  0  0  0  0  0  0  0
  184.1120  178.3520  146.2150 C   0  0  0  0  0  3  0  0  0  0  0  0
  183.4380  179.2140  145.2740 N   0  0  0  0  0  2  0  0  0  0  0  0
  185.3020  177.8810  145.9540 C   0  0  0  0  0  0  0  0  0  0  0  0
  186.8540  177.6290  144.0300 C   0  0  2  0  0  3  0  0  0  0  0  0
  190.6980  177.1510  140.5790 C   0  0  0  0  0  0  0  0  0  0  0  0
  191.3490  177.2100  141.8070 C   0  0  0  0  0  3  0  0  0  0  0  0
  191.2510  177.0110  139.3300 O   0  0  0  0  0  0  0  0  0  0  0  0
  188.5360  177.3670  141.5880 C   0  0  0  0  0  3  0  0  0  0  0  0
  189.0010  177.1240  139.0310 C   0  0  0  0  0  2  0  0  0  0  0  0
  190.5530  177.3540  142.9570 C   0  0  0  0  0  3  0  0  0  0  0  0
  190.2950  177.0010  138.3240 N   0  0  0  0  0  0  0  0  0  0  0  0
  189.3540  177.2270  140.4700 C   0  0  0  0  0  0  0  0  0  0  0  0
  189.1420  177.4330  142.8610 C   0  0  0  0  0  0  0  0  0  0  0  0
  190.3230  175.6800  137.7140 C   0  0  0  0  0  2  0  0  0  0  0  0
  192.1540  174.5290  137.2850 C   0  0  0  0  0  1  0  0  0  0  0  0
  191.3050  174.9010  138.3250 O   0  0  0  0  0  0  0  0  0  0  0  0
  1  9  2  0  0  0  0
  1  3  1  0  0  0  0
  2  8  2  0  0  0  0
  3  5  2  0  0  0  0
  4  6  2  0  0  0  0
  5  6  1  0  0  0  0
  7 14  2  0  0  0  0
  7  3  1  0  0  0  0
  8 10  2  0  0  0  0
  9  4  1  0  0  0  0
 10 13  1  0  0  0  0
 11  1  1  0  0  0  0
 13 12  1  0  0  0  0
 14 12  2  0  0  0  0
 15  2  1  1  0  0  0
 15 11  1  0  0  0  0
 15  7  1  0  0  0  0
 16 17  1  0  0  0  0
 17 21  2  0  0  0  0
 18 16  1  0  0  0  0
 19 24  2  0  0  0  0
 20 23  1  0  0  0  0
 22 20  1  0  0  0  0
 22 18  1  0  0  0  0
 23 16  2  0  0  0  0
 23 19  1  0  0  0  0
 24 21  1  0  0  0  0
 24 11  1  0  0  0  0
 25 22  1  0  0  0  0
 25 27  1  0  0  0  0
 26 27  1  0  0  0  0
M  END
>  <MODEL>
8

>  <REMARK>
 VINA RESULT:      -9.0      4.086      7.354
  Name = 
  3 active torsions:
  status: ('A' for Active; 'I' for Inactive)
    1  A    between atoms: O_14  and  C_17
    2  A    between atoms: C_17  and  N_24
    3  A    between atoms: N_20  and  C_27
                            x       y       z     vdW  Elec       q    Type
                         _______ _______ _______ _____ _____    ______ ____

>  <TORSDO>
F 3

$$$$
=
 OpenBabel10222420173D

 27 31  0  0  1  0  0  0  0  0999 V2000
  189.1730  177.5990  143.8070 C   0  0  0  0  0  0  0  0  0  0  0  0
  186.2790  178.9780  142.6500 C   0  0  0  0  0  3  0  0  0  0  0  0
  188.4080  177.4760  144.9400 C   0  0  0  0  0  0  0  0  0  0  0  0
  191.1680  177.5550  145.1560 C   0  0  0  0  0  3  0  0  0  0  0  0
  188.9750  177.3960  146.2120 C   0  0  0  0  0  3  0  0  0  0  0  0
  190.3750  177.4350  146.3130 C   0  0  0  0  0  3  0  0  0  0  0  0
  187.0110  177.4630  144.5440 C   0  0  0  0  0  0  0  0  0  0  0  0
  185.1650  179.3350  143.2360 C   0  0  0  0  0  0  0  0  0  0  0  0
  190.5690  177.6400  143.8880 C   0  0  0  0  0  3  0  0  0  0  0  0
  184.1180  179.5870  143.9770 C   0  0  0  0  0  3  0  0  0  0  0  0
  188.3660  177.6960  142.6290 N   0  0  0  0  0  0  0  0  0  0  0  0
  184.9300  178.1460  145.9550 C   0  0  0  0  0  3  0  0  0  0  0  0
  183.9930  179.0310  145.3040 N   0  0  0  0  0  2  0  0  0  0  0  0
  186.0080  177.7450  145.3350 C   0  0  0  0  0  0  0  0  0  0  0  0
  186.9520  177.6760  143.0380 C   0  0  2  0  0  3  0  0  0  0  0  0
  189.6860  177.5480  138.6240 C   0  0  0  0  0  0  0  0  0  0  0  0
  188.8380  178.5890  138.9880 C   0  0  0  0  0  3  0  0  0  0  0  0
  190.2420  177.2950  137.3940 O   0  0  0  0  0  0  0  0  0  0  0  0
  189.6780  176.6190  140.8320 C   0  0  0  0  0  3  0  0  0  0  0  0
  190.9850  175.6590  138.7870 C   0  0  0  0  0  2  0  0  0  0  0  0
  188.4020  178.6330  140.3230 C   0  0  0  0  0  3  0  0  0  0  0  0
  191.0350  176.1560  137.3930 N   0  0  0  0  0  0  0  0  0  0  0  0
  190.0890  176.6040  139.5030 C   0  0  0  0  0  0  0  0  0  0  0  0
  188.8150  177.6520  141.2590 C   0  0  0  0  0  0  0  0  0  0  0  0
  192.4030  176.5820  137.1420 C   0  0  0  0  0  2  0  0  0  0  0  0
  194.1920  175.3100  136.9320 C   0  0  0  0  0  1  0  0  0  0  0  0
  193.2850  175.7880  137.8750 O   0  0  0  0  0  0  0  0  0  0  0  0
  1  9  2  0  0  0  0
  1  3  1  0  0  0  0
  2  8  2  0  0  0  0
  3  5  2  0  0  0  0
  4  6  2  0  0  0  0
  5  6  1  0  0  0  0
  7  3  1  0  0  0  0
  7 14  2  0  0  0  0
  8 10  2  0  0  0  0
  9  4  1  0  0  0  0
 10 13  1  0  0  0  0
 11 15  1  0  0  0  0
 11  1  1  0  0  0  0
 13 12  1  0  0  0  0
 14 12  2  0  0  0  0
 15  2  1  1  0  0  0
 15  7  1  0  0  0  0
 16 17  2  0  0  0  0
 16 23  1  0  0  0  0
 17 21  1  0  0  0  0
 18 16  1  0  0  0  0
 19 24  1  0  0  0  0
 20 23  1  0  0  0  0
 21 24  2  0  0  0  0
 22 18  1  0  0  0  0
 22 20  1  0  0  0  0
 23 19  2  0  0  0  0
 24 11  1  0  0  0  0
 25 22  1  0  0  0  0
 25 27  1  0  0  0  0
 26 27  1  0  0  0  0
M  END
>  <MODEL>
9

>  <REMARK>
 VINA RESULT:      -9.0      4.415      7.613
  Name = 
  3 active torsions:
  status: ('A' for Active; 'I' for Inactive)
    1  A    between atoms: O_14  and  C_17
    2  A    between atoms: C_17  and  N_24
    3  A    between atoms: N_20  and  C_27
                            x       y       z     vdW  Elec       q    Type
                         _______ _______ _______ _____ _____    ______ ____

>  <TORSDO>
F 3

$$$$
