=
 OpenBabel10222418083D

 25 26  0  0  0  0  0  0  0  0999 V2000
  189.0380  177.3700  145.4280 N   0  0  0  0  0  0  0  0  0  0  0  0
  189.7230  176.9970  144.3850 C   0  0  0  0  0  0  0  0  0  0  0  0
  186.9440  177.9300  144.3070 N   0  0  0  0  0  0  0  0  0  0  0  0
  184.1560  178.8830  146.2620 N   0  0  0  0  0  0  0  0  0  0  0  0
  186.7720  178.1730  146.8760 S   0  0  0  0  0  0  0  0  0  0  0  0
  187.6790  177.8270  145.4500 C   0  0  0  0  0  0  0  0  0  0  0  0
  185.7000  178.3220  144.6480 C   0  0  0  0  0  0  0  0  0  0  0  0
  183.3970  179.0150  145.1690 N   0  0  0  0  0  0  0  0  0  0  0  0
  185.4210  178.5020  145.9510 C   0  0  0  0  0  0  0  0  0  0  0  0
  184.3100  178.6490  143.8030 S   0  0  0  0  0  0  0  0  0  0  0  0
  189.1110  176.8490  143.0270 C   0  0  0  0  0  2  0  0  0  0  0  0
  189.6540  177.9190  142.0950 C   0  0  0  0  0  2  0  0  0  0  0  0
  189.5680  177.3520  139.6040 N   0  0  0  0  0  2  0  0  0  0  0  0
  191.7960  177.3650  140.3400 O   0  0  0  0  0  0  0  0  0  0  0  0
  188.9400  177.8700  140.7840 C   0  0  0  0  0  0  0  0  0  0  0  0
  190.9570  177.0380  139.4590 C   0  0  0  0  0  0  0  0  0  0  0  0
  187.7450  178.2590  140.7220 O   0  0  0  0  0  0  0  0  0  0  0  0
  191.4280  176.3630  138.2200 C   0  0  0  0  0  2  0  0  0  0  0  0
  190.9780  174.9840  138.2130 N   0  0  0  0  0  1  0  0  0  0  0  0
  191.1500  176.6010  144.5660 C   0  0  0  0  0  2  0  0  0  0  0  0
  192.2560  175.6190  146.6250 C   0  0  0  0  0  0  0  0  0  0  0  0
  192.5740  174.5690  146.0050 O   0  0  0  0  0  0  0  0  0  0  0  0
  191.5170  176.6540  145.9750 N   0  0  0  0  0  2  0  0  0  0  0  0
  192.6180  175.7630  148.0590 C   0  0  0  0  0  2  0  0  0  0  0  0
  192.3820  177.0740  148.4730 O   0  0  0  0  0  1  0  0  0  0  0  0
  1  6  1  0  0  0  0
  2 20  1  0  0  0  0
  2  1  2  0  0  0  0
  3  7  1  0  0  0  0
  3  6  2  0  0  0  0
  6  5  1  0  0  0  0
  7  9  2  0  0  0  0
  8  4  2  0  0  0  0
  9  4  1  0  0  0  0
  9  5  1  0  0  0  0
 10  7  1  0  0  0  0
 10  8  1  0  0  0  0
 11  2  1  0  0  0  0
 12 11  1  0  0  0  0
 13 15  1  0  0  0  0
 15 12  1  0  0  0  0
 16 13  1  0  0  0  0
 16 14  2  0  0  0  0
 17 15  2  0  0  0  0
 18 16  1  0  0  0  0
 19 18  1  0  0  0  0
 20 23  1  0  0  0  0
 21 24  1  0  0  0  0
 22 21  2  0  0  0  0
 23 21  1  0  0  0  0
 24 25  1  0  0  0  0
M  END
>  <MODEL>
1

>  <REMARK>
 VINA RESULT:      -7.4      0.000      0.000
  Name = 
  8 active torsions:
  status: ('A' for Active; 'I' for Inactive)
    1  A    between atoms: C_3  and  C_7
    2  A    between atoms: C_6  and  C_20
    3  A    between atoms: C_8  and  C_19
    4  A    between atoms: C_12  and  C_17
    5  A    between atoms: C_12  and  C_20
    6  A    between atoms: C_13  and  N_14
    7  A    between atoms: C_17  and  C_23
    8  A    between atoms: C_23  and  N_25
                            x       y       z     vdW  Elec       q    Type
                         _______ _______ _______ _____ _____    ______ ____

>  <TORSDO>
F 8

$$$$
=
 OpenBabel10222418083D

 25 26  0  0  0  0  0  0  0  0999 V2000
  189.1480  177.3270  145.6010 N   0  0  0  0  0  0  0  0  0  0  0  0
  190.0660  177.5350  144.7010 C   0  0  0  0  0  0  0  0  0  0  0  0
  187.0780  177.8340  144.4130 N   0  0  0  0  0  0  0  0  0  0  0  0
  184.2600  178.9050  146.2630 N   0  0  0  0  0  0  0  0  0  0  0  0
  186.8610  178.2190  146.9620 S   0  0  0  0  0  0  0  0  0  0  0  0
  187.7910  177.7910  145.5740 C   0  0  0  0  0  0  0  0  0  0  0  0
  185.8290  178.2500  144.7100 C   0  0  0  0  0  0  0  0  0  0  0  0
  183.5210  178.9800  145.1510 N   0  0  0  0  0  0  0  0  0  0  0  0
  185.5280  178.5020  145.9960 C   0  0  0  0  0  0  0  0  0  0  0  0
  184.4570  178.5360  143.8230 S   0  0  0  0  0  0  0  0  0  0  0  0
  189.7750  178.1920  143.3880 C   0  0  0  0  0  2  0  0  0  0  0  0
  189.7130  177.1440  142.2880 C   0  0  0  0  0  2  0  0  0  0  0  0
  190.5320  177.8580  139.9740 N   0  0  0  0  0  2  0  0  0  0  0  0
  188.2190  177.4670  139.9130 O   0  0  0  0  0  0  0  0  0  0  0  0
  190.8050  177.3750  141.2960 C   0  0  0  0  0  0  0  0  0  0  0  0
  189.2390  177.9660  139.3680 C   0  0  0  0  0  0  0  0  0  0  0  0
  191.9990  177.1760  141.6410 O   0  0  0  0  0  0  0  0  0  0  0  0
  189.1060  178.6310  138.0450 C   0  0  0  0  0  2  0  0  0  0  0  0
  187.7050  178.7220  137.6810 N   0  0  0  0  0  1  0  0  0  0  0  0
  191.4410  177.0080  144.9420 C   0  0  0  0  0  2  0  0  0  0  0  0
  192.3130  175.6850  146.9200 C   0  0  0  0  0  0  0  0  0  0  0  0
  192.6460  174.7210  146.1820 O   0  0  0  0  0  0  0  0  0  0  0  0
  191.6780  176.8400  146.3690 N   0  0  0  0  0  2  0  0  0  0  0  0
  192.5460  175.6030  148.3860 C   0  0  0  0  0  2  0  0  0  0  0  0
  193.2420  176.7320  148.8150 O   0  0  0  0  0  1  0  0  0  0  0  0
  2 20  1  0  0  0  0
  2  1  2  0  0  0  0
  3  7  1  0  0  0  0
  3  6  2  0  0  0  0
  6  1  1  0  0  0  0
  6  5  1  0  0  0  0
  7  9  2  0  0  0  0
  8  4  2  0  0  0  0
  9  4  1  0  0  0  0
  9  5  1  0  0  0  0
 10  7  1  0  0  0  0
 10  8  1  0  0  0  0
 11  2  1  0  0  0  0
 12 11  1  0  0  0  0
 13 15  1  0  0  0  0
 15 17  2  0  0  0  0
 15 12  1  0  0  0  0
 16 14  2  0  0  0  0
 16 13  1  0  0  0  0
 18 16  1  0  0  0  0
 19 18  1  0  0  0  0
 20 23  1  0  0  0  0
 21 24  1  0  0  0  0
 22 21  2  0  0  0  0
 23 21  1  0  0  0  0
 24 25  1  0  0  0  0
M  END
>  <MODEL>
2

>  <REMARK>
 VINA RESULT:      -7.4      1.178      1.826
  Name = 
  8 active torsions:
  status: ('A' for Active; 'I' for Inactive)
    1  A    between atoms: C_3  and  C_7
    2  A    between atoms: C_6  and  C_20
    3  A    between atoms: C_8  and  C_19
    4  A    between atoms: C_12  and  C_17
    5  A    between atoms: C_12  and  C_20
    6  A    between atoms: C_13  and  N_14
    7  A    between atoms: C_17  and  C_23
    8  A    between atoms: C_23  and  N_25
                            x       y       z     vdW  Elec       q    Type
                         _______ _______ _______ _____ _____    ______ ____

>  <TORSDO>
F 8

$$$$
=
 OpenBabel10222418083D

 25 26  0  0  0  0  0  0  0  0999 V2000
  186.0930  178.2440  144.2430 N   0  0  0  0  0  0  0  0  0  0  0  0
  187.1160  177.4960  144.5390 C   0  0  0  0  0  0  0  0  0  0  0  0
  184.2400  178.0780  142.6630 N   0  0  0  0  0  0  0  0  0  0  0  0
  184.6150  179.4680  139.4330 N   0  0  0  0  0  0  0  0  0  0  0  0
  186.2910  179.2790  141.6420 S   0  0  0  0  0  0  0  0  0  0  0  0
  185.5210  178.4500  142.9440 C   0  0  0  0  0  0  0  0  0  0  0  0
  183.9690  178.4510  141.3960 C   0  0  0  0  0  0  0  0  0  0  0  0
  183.3690  179.1090  139.1020 N   0  0  0  0  0  0  0  0  0  0  0  0
  184.9240  179.0930  140.7010 C   0  0  0  0  0  0  0  0  0  0  0  0
  182.6460  178.3230  140.4030 S   0  0  0  0  0  0  0  0  0  0  0  0
  187.7730  176.5930  143.5420 C   0  0  0  0  0  2  0  0  0  0  0  0
  188.9220  177.3210  142.8630 C   0  0  0  0  0  2  0  0  0  0  0  0
  190.4930  176.2610  141.1480 N   0  0  0  0  0  2  0  0  0  0  0  0
  188.7900  177.4390  140.0440 O   0  0  0  0  0  0  0  0  0  0  0  0
  189.9950  176.3510  142.4890 C   0  0  0  0  0  0  0  0  0  0  0  0
  189.9190  176.8820  139.9930 C   0  0  0  0  0  0  0  0  0  0  0  0
  190.4990  175.6210  143.3810 O   0  0  0  0  0  0  0  0  0  0  0  0
  190.6420  176.8200  138.6950 C   0  0  0  0  0  2  0  0  0  0  0  0
  190.9670  175.4420  138.3800 N   0  0  0  0  0  1  0  0  0  0  0  0
  187.5920  177.4550  145.9530 C   0  0  0  0  0  2  0  0  0  0  0  0
  189.7880  177.1380  147.1800 C   0  0  0  0  0  0  0  0  0  0  0  0
  189.3420  177.7070  148.2110 O   0  0  0  0  0  0  0  0  0  0  0  0
  188.9780  177.0100  146.0090 N   0  0  0  0  0  2  0  0  0  0  0  0
  191.1850  176.6310  147.1660 C   0  0  0  0  0  2  0  0  0  0  0  0
  191.8520  177.1240  146.0440 O   0  0  0  0  0  1  0  0  0  0  0  0
  1  2  2  0  0  0  0
  2 20  1  0  0  0  0
  3  6  2  0  0  0  0
  4  9  1  0  0  0  0
  5  6  1  0  0  0  0
  6  1  1  0  0  0  0
  7  3  1  0  0  0  0
  8  4  2  0  0  0  0
  8 10  1  0  0  0  0
  9  7  2  0  0  0  0
  9  5  1  0  0  0  0
 10  7  1  0  0  0  0
 11  2  1  0  0  0  0
 12 11  1  0  0  0  0
 13 15  1  0  0  0  0
 15 12  1  0  0  0  0
 15 17  2  0  0  0  0
 16 14  2  0  0  0  0
 16 13  1  0  0  0  0
 18 16  1  0  0  0  0
 19 18  1  0  0  0  0
 20 23  1  0  0  0  0
 21 22  2  0  0  0  0
 23 21  1  0  0  0  0
 24 21  1  0  0  0  0
 25 24  1  0  0  0  0
M  END
>  <MODEL>
3

>  <REMARK>
 VINA RESULT:      -7.3      2.718      3.587
  Name = 
  8 active torsions:
  status: ('A' for Active; 'I' for Inactive)
    1  A    between atoms: C_3  and  C_7
    2  A    between atoms: C_6  and  C_20
    3  A    between atoms: C_8  and  C_19
    4  A    between atoms: C_12  and  C_17
    5  A    between atoms: C_12  and  C_20
    6  A    between atoms: C_13  and  N_14
    7  A    between atoms: C_17  and  C_23
    8  A    between atoms: C_23  and  N_25
                            x       y       z     vdW  Elec       q    Type
                         _______ _______ _______ _____ _____    ______ ____

>  <TORSDO>
F 8

$$$$
=
 OpenBabel10222418083D

 25 26  0  0  0  0  0  0  0  0999 V2000
  187.6410  177.7930  141.6830 N   0  0  0  0  0  0  0  0  0  0  0  0
  188.9380  177.8610  141.5930 C   0  0  0  0  0  0  0  0  0  0  0  0
  187.3070  177.6880  144.0980 N   0  0  0  0  0  0  0  0  0  0  0  0
  184.3350  179.0180  145.4760 N   0  0  0  0  0  0  0  0  0  0  0  0
  185.3050  178.7850  142.8820 S   0  0  0  0  0  0  0  0  0  0  0  0
  186.8440  178.0070  142.8570 C   0  0  0  0  0  0  0  0  0  0  0  0
  186.3710  178.0560  144.9970 C   0  0  0  0  0  0  0  0  0  0  0  0
  184.7350  178.7110  146.7150 N   0  0  0  0  0  0  0  0  0  0  0  0
  185.2510  178.6470  144.5460 C   0  0  0  0  0  0  0  0  0  0  0  0
  186.2480  177.9740  146.6490 S   0  0  0  0  0  0  0  0  0  0  0  0
  189.8030  178.3350  142.7200 C   0  0  0  0  0  2  0  0  0  0  0  0
  191.0450  177.4650  142.8200 C   0  0  0  0  0  2  0  0  0  0  0  0
  190.7390  176.0360  144.9170 N   0  0  0  0  0  2  0  0  0  0  0  0
  191.9360  177.9820  145.4500 O   0  0  0  0  0  0  0  0  0  0  0  0
  190.7140  176.1720  143.4900 C   0  0  0  0  0  0  0  0  0  0  0  0
  191.2700  176.9880  145.8440 C   0  0  0  0  0  0  0  0  0  0  0  0
  190.3700  175.1880  142.7860 O   0  0  0  0  0  0  0  0  0  0  0  0
  191.0820  176.7710  147.3030 C   0  0  0  0  0  2  0  0  0  0  0  0
  192.3390  176.3640  147.9040 N   0  0  0  0  0  1  0  0  0  0  0  0
  189.5850  177.5520  140.2850 C   0  0  0  0  0  2  0  0  0  0  0  0
  188.3620  178.3490  138.2120 C   0  0  0  0  0  0  0  0  0  0  0  0
  189.0100  179.4290  138.1950 O   0  0  0  0  0  0  0  0  0  0  0  0
  188.5770  177.3870  139.2460 N   0  0  0  0  0  2  0  0  0  0  0  0
  187.3330  178.0920  137.1710 C   0  0  0  0  0  2  0  0  0  0  0  0
  186.1470  178.7410  137.5140 O   0  0  0  0  0  1  0  0  0  0  0  0
  1  6  1  0  0  0  0
  2  1  2  0  0  0  0
  2 11  1  0  0  0  0
  3  7  1  0  0  0  0
  4  8  2  0  0  0  0
  5  9  1  0  0  0  0
  6  5  1  0  0  0  0
  6  3  2  0  0  0  0
  7 10  1  0  0  0  0
  9  7  2  0  0  0  0
  9  4  1  0  0  0  0
 10  8  1  0  0  0  0
 11 12  1  0  0  0  0
 12 15  1  0  0  0  0
 13 16  1  0  0  0  0
 14 16  2  0  0  0  0
 15 13  1  0  0  0  0
 16 18  1  0  0  0  0
 17 15  2  0  0  0  0
 18 19  1  0  0  0  0
 20  2  1  0  0  0  0
 21 23  1  0  0  0  0
 22 21  2  0  0  0  0
 23 20  1  0  0  0  0
 24 25  1  0  0  0  0
 24 21  1  0  0  0  0
M  END
>  <MODEL>
4

>  <REMARK>
 VINA RESULT:      -7.3      2.037      6.230
  Name = 
  8 active torsions:
  status: ('A' for Active; 'I' for Inactive)
    1  A    between atoms: C_3  and  C_7
    2  A    between atoms: C_6  and  C_20
    3  A    between atoms: C_8  and  C_19
    4  A    between atoms: C_12  and  C_17
    5  A    between atoms: C_12  and  C_20
    6  A    between atoms: C_13  and  N_14
    7  A    between atoms: C_17  and  C_23
    8  A    between atoms: C_23  and  N_25
                            x       y       z     vdW  Elec       q    Type
                         _______ _______ _______ _____ _____    ______ ____

>  <TORSDO>
F 8

$$$$
=
 OpenBabel10222418083D

 25 26  0  0  0  0  0  0  0  0999 V2000
  189.2870  177.8730  139.9980 N   0  0  0  0  0  0  0  0  0  0  0  0
  188.7430  177.7100  141.1700 C   0  0  0  0  0  0  0  0  0  0  0  0
  190.2690  176.1950  138.5230 N   0  0  0  0  0  0  0  0  0  0  0  0
  193.7900  175.8970  138.3760 N   0  0  0  0  0  0  0  0  0  0  0  0
  192.0660  177.5230  139.8270 S   0  0  0  0  0  0  0  0  0  0  0  0
  190.4170  177.1680  139.4660 C   0  0  0  0  0  0  0  0  0  0  0  0
  191.5000  175.7640  138.1770 C   0  0  0  0  0  0  0  0  0  0  0  0
  193.7000  174.9250  137.4610 N   0  0  0  0  0  0  0  0  0  0  0  0
  192.5660  176.3420  138.7560 C   0  0  0  0  0  0  0  0  0  0  0  0
  192.0780  174.6230  137.1210 S   0  0  0  0  0  0  0  0  0  0  0  0
  189.1500  176.6140  142.1050 C   0  0  0  0  0  2  0  0  0  0  0  0
  188.2030  176.5690  143.2930 C   0  0  0  0  0  2  0  0  0  0  0  0
  188.2200  177.5130  145.6690 N   0  0  0  0  0  2  0  0  0  0  0  0
  186.1710  178.0000  144.6350 O   0  0  0  0  0  0  0  0  0  0  0  0
  188.9210  176.9800  144.5370 C   0  0  0  0  0  0  0  0  0  0  0  0
  186.8470  177.9180  145.6950 C   0  0  0  0  0  0  0  0  0  0  0  0
  190.1670  176.8220  144.6070 O   0  0  0  0  0  0  0  0  0  0  0  0
  186.2240  178.3060  146.9870 C   0  0  0  0  0  2  0  0  0  0  0  0
  184.8420  178.6910  146.7700 N   0  0  0  0  0  1  0  0  0  0  0  0
  187.5970  178.5830  141.5580 C   0  0  0  0  0  2  0  0  0  0  0  0
  185.2560  178.9950  140.6760 C   0  0  0  0  0  0  0  0  0  0  0  0
  184.8040  179.1680  141.8390 O   0  0  0  0  0  0  0  0  0  0  0  0
  186.6320  178.6680  140.4700 N   0  0  0  0  0  2  0  0  0  0  0  0
  184.3400  179.0910  139.5090 C   0  0  0  0  0  2  0  0  0  0  0  0
  184.3260  180.4020  139.0310 O   0  0  0  0  0  1  0  0  0  0  0  0
  1  2  2  0  0  0  0
  2 20  1  0  0  0  0
  2 11  1  0  0  0  0
  3  6  2  0  0  0  0
  4  9  1  0  0  0  0
  6  5  1  0  0  0  0
  6  1  1  0  0  0  0
  7  3  1  0  0  0  0
  7  9  2  0  0  0  0
  8  4  2  0  0  0  0
  9  5  1  0  0  0  0
 10  8  1  0  0  0  0
 10  7  1  0  0  0  0
 11 12  1  0  0  0  0
 12 15  1  0  0  0  0
 13 16  1  0  0  0  0
 14 16  2  0  0  0  0
 15 17  2  0  0  0  0
 15 13  1  0  0  0  0
 16 18  1  0  0  0  0
 19 18  1  0  0  0  0
 21 22  2  0  0  0  0
 23 21  1  0  0  0  0
 23 20  1  0  0  0  0
 24 21  1  0  0  0  0
 25 24  1  0  0  0  0
M  END
>  <MODEL>
5

>  <REMARK>
 VINA RESULT:      -7.3      3.690      8.687
  Name = 
  8 active torsions:
  status: ('A' for Active; 'I' for Inactive)
    1  A    between atoms: C_3  and  C_7
    2  A    between atoms: C_6  and  C_20
    3  A    between atoms: C_8  and  C_19
    4  A    between atoms: C_12  and  C_17
    5  A    between atoms: C_12  and  C_20
    6  A    between atoms: C_13  and  N_14
    7  A    between atoms: C_17  and  C_23
    8  A    between atoms: C_23  and  N_25
                            x       y       z     vdW  Elec       q    Type
                         _______ _______ _______ _____ _____    ______ ____

>  <TORSDO>
F 8

$$$$
=
 OpenBabel10222418083D

 25 26  0  0  0  0  0  0  0  0999 V2000
  186.7660  178.4120  145.8210 N   0  0  0  0  0  0  0  0  0  0  0  0
  187.8970  177.8010  145.6110 C   0  0  0  0  0  0  0  0  0  0  0  0
  185.8230  178.2500  143.5760 N   0  0  0  0  0  0  0  0  0  0  0  0
  182.3950  178.9810  143.1030 N   0  0  0  0  0  0  0  0  0  0  0  0
  184.0680  179.0030  145.3220 S   0  0  0  0  0  0  0  0  0  0  0  0
  185.6800  178.5590  144.8960 C   0  0  0  0  0  0  0  0  0  0  0  0
  184.6270  178.4290  142.9780 C   0  0  0  0  0  0  0  0  0  0  0  0
  182.4850  178.7050  141.7970 N   0  0  0  0  0  0  0  0  0  0  0  0
  183.5870  178.8230  143.7330 C   0  0  0  0  0  0  0  0  0  0  0  0
  184.0660  178.2570  141.4260 S   0  0  0  0  0  0  0  0  0  0  0  0
  188.1690  177.0070  144.3720 C   0  0  0  0  0  2  0  0  0  0  0  0
  189.3060  177.6430  143.5890 C   0  0  0  0  0  2  0  0  0  0  0  0
  189.7960  176.8770  141.2000 N   0  0  0  0  0  2  0  0  0  0  0  0
  188.1760  178.5750  141.1730 O   0  0  0  0  0  0  0  0  0  0  0  0
  189.8710  176.6620  142.6150 C   0  0  0  0  0  0  0  0  0  0  0  0
  189.0190  177.8840  140.5420 C   0  0  0  0  0  0  0  0  0  0  0  0
  190.4600  175.6380  143.0490 O   0  0  0  0  0  0  0  0  0  0  0  0
  189.1670  178.0780  139.0750 C   0  0  0  0  0  2  0  0  0  0  0  0
  187.9410  178.6280  138.5280 N   0  0  0  0  0  1  0  0  0  0  0  0
  188.9260  177.8030  146.6910 C   0  0  0  0  0  2  0  0  0  0  0  0
  191.1310  176.6610  147.2000 C   0  0  0  0  0  0  0  0  0  0  0  0
  191.4100  177.5050  148.0920 O   0  0  0  0  0  0  0  0  0  0  0  0
  189.9250  176.7720  146.4420 N   0  0  0  0  0  2  0  0  0  0  0  0
  192.0880  175.5620  146.9030 C   0  0  0  0  0  2  0  0  0  0  0  0
  193.1660  175.6280  147.7860 O   0  0  0  0  0  1  0  0  0  0  0  0
  2  1  2  0  0  0  0
  2 20  1  0  0  0  0
  3  6  2  0  0  0  0
  4  9  1  0  0  0  0
  6  5  1  0  0  0  0
  6  1  1  0  0  0  0
  7  3  1  0  0  0  0
  7  9  2  0  0  0  0
  8  4  2  0  0  0  0
  9  5  1  0  0  0  0
 10  8  1  0  0  0  0
 10  7  1  0  0  0  0
 11  2  1  0  0  0  0
 12 11  1  0  0  0  0
 13 15  1  0  0  0  0
 15 17  2  0  0  0  0
 15 12  1  0  0  0  0
 16 14  2  0  0  0  0
 16 13  1  0  0  0  0
 18 16  1  0  0  0  0
 19 18  1  0  0  0  0
 21 22  2  0  0  0  0
 23 20  1  0  0  0  0
 23 21  1  0  0  0  0
 24 21  1  0  0  0  0
 24 25  1  0  0  0  0
M  END
>  <MODEL>
6

>  <REMARK>
 VINA RESULT:      -7.2      1.931      2.784
  Name = 
  8 active torsions:
  status: ('A' for Active; 'I' for Inactive)
    1  A    between atoms: C_3  and  C_7
    2  A    between atoms: C_6  and  C_20
    3  A    between atoms: C_8  and  C_19
    4  A    between atoms: C_12  and  C_17
    5  A    between atoms: C_12  and  C_20
    6  A    between atoms: C_13  and  N_14
    7  A    between atoms: C_17  and  C_23
    8  A    between atoms: C_23  and  N_25
                            x       y       z     vdW  Elec       q    Type
                         _______ _______ _______ _____ _____    ______ ____

>  <TORSDO>
F 8

$$$$
=
 OpenBabel10222418083D

 25 26  0  0  0  0  0  0  0  0999 V2000
  187.0650  178.1040  142.2090 N   0  0  0  0  0  0  0  0  0  0  0  0
  187.2730  177.8240  143.4630 C   0  0  0  0  0  0  0  0  0  0  0  0
  189.2570  177.4900  141.3290 N   0  0  0  0  0  0  0  0  0  0  0  0
  189.7550  177.4790  137.8280 N   0  0  0  0  0  0  0  0  0  0  0  0
  187.5850  178.0950  139.4500 S   0  0  0  0  0  0  0  0  0  0  0  0
  187.9820  177.9230  141.1200 C   0  0  0  0  0  0  0  0  0  0  0  0
  189.8520  177.3590  140.1260 C   0  0  0  0  0  0  0  0  0  0  0  0
  191.0200  177.0690  137.9790 N   0  0  0  0  0  0  0  0  0  0  0  0
  189.1320  177.6330  139.0240 C   0  0  0  0  0  0  0  0  0  0  0  0
  191.3620  176.8940  139.6180 S   0  0  0  0  0  0  0  0  0  0  0  0
  188.4990  177.1090  143.9390 C   0  0  0  0  0  2  0  0  0  0  0  0
  189.1210  177.8650  145.1020 C   0  0  0  0  0  2  0  0  0  0  0  0
  191.5640  177.3000  145.5990 N   0  0  0  0  0  2  0  0  0  0  0  0
  190.1940  176.4920  147.3240 O   0  0  0  0  0  0  0  0  0  0  0  0
  190.5850  178.0510  144.8700 C   0  0  0  0  0  0  0  0  0  0  0  0
  191.3130  176.4800  146.7460 C   0  0  0  0  0  0  0  0  0  0  0  0
  190.9670  178.8610  143.9860 O   0  0  0  0  0  0  0  0  0  0  0  0
  192.4090  175.6420  147.2980 C   0  0  0  0  0  2  0  0  0  0  0  0
  192.9260  176.2480  148.5110 N   0  0  0  0  0  1  0  0  0  0  0  0
  186.2040  178.1350  144.4560 C   0  0  0  0  0  2  0  0  0  0  0  0
  183.7680  178.8370  144.4550 C   0  0  0  0  0  0  0  0  0  0  0  0
  183.7790  179.0260  145.7010 O   0  0  0  0  0  0  0  0  0  0  0  0
  184.9340  178.3610  143.7800 N   0  0  0  0  0  2  0  0  0  0  0  0
  182.5170  179.0710  143.6880 C   0  0  0  0  0  2  0  0  0  0  0  0
  182.7230  178.7510  142.3460 O   0  0  0  0  0  1  0  0  0  0  0  0
  1  2  2  0  0  0  0
  2 11  1  0  0  0  0
  2 20  1  0  0  0  0
  4  8  2  0  0  0  0
  4  9  1  0  0  0  0
  5  6  1  0  0  0  0
  6  3  2  0  0  0  0
  6  1  1  0  0  0  0
  7  3  1  0  0  0  0
  8 10  1  0  0  0  0
  9  5  1  0  0  0  0
  9  7  2  0  0  0  0
 10  7  1  0  0  0  0
 11 12  1  0  0  0  0
 13 16  1  0  0  0  0
 15 12  1  0  0  0  0
 15 13  1  0  0  0  0
 16 18  1  0  0  0  0
 16 14  2  0  0  0  0
 17 15  2  0  0  0  0
 18 19  1  0  0  0  0
 21 22  2  0  0  0  0
 23 21  1  0  0  0  0
 23 20  1  0  0  0  0
 24 21  1  0  0  0  0
 25 24  1  0  0  0  0
M  END
>  <MODEL>
7

>  <REMARK>
 VINA RESULT:      -7.1      3.187      7.540
  Name = 
  8 active torsions:
  status: ('A' for Active; 'I' for Inactive)
    1  A    between atoms: C_3  and  C_7
    2  A    between atoms: C_6  and  C_20
    3  A    between atoms: C_8  and  C_19
    4  A    between atoms: C_12  and  C_17
    5  A    between atoms: C_12  and  C_20
    6  A    between atoms: C_13  and  N_14
    7  A    between atoms: C_17  and  C_23
    8  A    between atoms: C_23  and  N_25
                            x       y       z     vdW  Elec       q    Type
                         _______ _______ _______ _____ _____    ______ ____

>  <TORSDO>
F 8

$$$$
=
 OpenBabel10222418083D

 25 26  0  0  0  0  0  0  0  0999 V2000
  185.6470  178.8920  140.1480 N   0  0  0  0  0  0  0  0  0  0  0  0
  186.0630  178.9410  141.3810 C   0  0  0  0  0  0  0  0  0  0  0  0
  183.9250  180.2670  139.0990 N   0  0  0  0  0  0  0  0  0  0  0  0
  180.7330  178.8610  138.5150 N   0  0  0  0  0  0  0  0  0  0  0  0
  183.0680  177.8930  139.6690 S   0  0  0  0  0  0  0  0  0  0  0  0
  184.3060  179.0950  139.6810 C   0  0  0  0  0  0  0  0  0  0  0  0
  182.6390  180.1380  138.7120 C   0  0  0  0  0  0  0  0  0  0  0  0
  180.3040  179.9950  137.9490 N   0  0  0  0  0  0  0  0  0  0  0  0
  182.0210  178.9640  138.9290 C   0  0  0  0  0  0  0  0  0  0  0  0
  181.5450  181.1330  137.9620 S   0  0  0  0  0  0  0  0  0  0  0  0
  185.1880  179.3810  142.5130 C   0  0  0  0  0  2  0  0  0  0  0  0
  184.9670  178.2250  143.4750 C   0  0  0  0  0  2  0  0  0  0  0  0
  185.9130  178.5760  145.8230 N   0  0  0  0  0  2  0  0  0  0  0  0
  187.1730  176.9490  144.6940 O   0  0  0  0  0  0  0  0  0  0  0  0
  184.8520  178.7360  144.8730 C   0  0  0  0  0  0  0  0  0  0  0  0
  187.0760  177.7560  145.6560 C   0  0  0  0  0  0  0  0  0  0  0  0
  183.8110  179.3540  145.2160 O   0  0  0  0  0  0  0  0  0  0  0  0
  188.1630  177.8160  146.6680 C   0  0  0  0  0  2  0  0  0  0  0  0
  189.3840  177.2670  146.1090 N   0  0  0  0  0  1  0  0  0  0  0  0
  187.4980  178.6480  141.6670 C   0  0  0  0  0  2  0  0  0  0  0  0
  189.3390  177.4770  140.3760 C   0  0  0  0  0  0  0  0  0  0  0  0
  189.8050  176.9620  141.4270 O   0  0  0  0  0  0  0  0  0  0  0  0
  188.2120  178.3530  140.4320 N   0  0  0  0  0  2  0  0  0  0  0  0
  189.9960  177.2050  139.0710 C   0  0  0  0  0  2  0  0  0  0  0  0
  190.5640  175.9310  139.0890 O   0  0  0  0  0  1  0  0  0  0  0  0
  1  2  2  0  0  0  0
  2 20  1  0  0  0  0
  2 11  1  0  0  0  0
  3  6  2  0  0  0  0
  4  9  1  0  0  0  0
  5  6  1  0  0  0  0
  6  1  1  0  0  0  0
  7  9  2  0  0  0  0
  7  3  1  0  0  0  0
  8 10  1  0  0  0  0
  8  4  2  0  0  0  0
  9  5  1  0  0  0  0
 10  7  1  0  0  0  0
 11 12  1  0  0  0  0
 12 15  1  0  0  0  0
 14 16  2  0  0  0  0
 15 17  2  0  0  0  0
 15 13  1  0  0  0  0
 16 13  1  0  0  0  0
 16 18  1  0  0  0  0
 19 18  1  0  0  0  0
 21 23  1  0  0  0  0
 21 22  2  0  0  0  0
 23 20  1  0  0  0  0
 24 25  1  0  0  0  0
 24 21  1  0  0  0  0
M  END
>  <MODEL>
8

>  <REMARK>
 VINA RESULT:      -7.1      4.266      7.129
  Name = 
  8 active torsions:
  status: ('A' for Active; 'I' for Inactive)
    1  A    between atoms: C_3  and  C_7
    2  A    between atoms: C_6  and  C_20
    3  A    between atoms: C_8  and  C_19
    4  A    between atoms: C_12  and  C_17
    5  A    between atoms: C_12  and  C_20
    6  A    between atoms: C_13  and  N_14
    7  A    between atoms: C_17  and  C_23
    8  A    between atoms: C_23  and  N_25
                            x       y       z     vdW  Elec       q    Type
                         _______ _______ _______ _____ _____    ______ ____

>  <TORSDO>
F 8

$$$$
=
 OpenBabel10222418083D

 25 26  0  0  0  0  0  0  0  0999 V2000
  185.9500  179.1070  141.6390 N   0  0  0  0  0  0  0  0  0  0  0  0
  186.9390  178.3900  142.0890 C   0  0  0  0  0  0  0  0  0  0  0  0
  183.5900  178.6570  141.2070 N   0  0  0  0  0  0  0  0  0  0  0  0
  181.2810  178.9260  143.8720 N   0  0  0  0  0  0  0  0  0  0  0  0
  184.0240  179.3250  143.6690 S   0  0  0  0  0  0  0  0  0  0  0  0
  184.5790  179.0480  142.0590 C   0  0  0  0  0  0  0  0  0  0  0  0
  182.4320  178.6420  141.8980 C   0  0  0  0  0  0  0  0  0  0  0  0
  180.2710  178.5630  143.0740 N   0  0  0  0  0  0  0  0  0  0  0  0
  182.4610  178.9640  143.2020 C   0  0  0  0  0  0  0  0  0  0  0  0
  180.8570  178.2830  141.5200 S   0  0  0  0  0  0  0  0  0  0  0  0
  186.8020  177.4690  143.2610 C   0  0  0  0  0  2  0  0  0  0  0  0
  188.0270  177.5810  144.1540 C   0  0  0  0  0  2  0  0  0  0  0  0
  188.5820  177.4370  146.6440 N   0  0  0  0  0  2  0  0  0  0  0  0
  190.4180  176.7080  145.3780 O   0  0  0  0  0  0  0  0  0  0  0  0
  187.6190  177.5640  145.5900 C   0  0  0  0  0  0  0  0  0  0  0  0
  189.9650  177.1010  146.4860 C   0  0  0  0  0  0  0  0  0  0  0  0
  186.4030  177.7000  145.8840 O   0  0  0  0  0  0  0  0  0  0  0  0
  190.8710  177.1600  147.6630 C   0  0  0  0  0  2  0  0  0  0  0  0
  192.0650  176.3770  147.4030 N   0  0  0  0  0  1  0  0  0  0  0  0
  188.2900  178.5670  141.4810 C   0  0  0  0  0  2  0  0  0  0  0  0
  189.2510  178.2050  139.1630 C   0  0  0  0  0  0  0  0  0  0  0  0
  190.3590  177.8340  139.6350 O   0  0  0  0  0  0  0  0  0  0  0  0
  188.1910  178.6150  140.0290 N   0  0  0  0  0  2  0  0  0  0  0  0
  189.0600  178.2560  137.6900 C   0  0  0  0  0  2  0  0  0  0  0  0
  188.3190  179.3890  137.3530 O   0  0  0  0  0  1  0  0  0  0  0  0
  1  6  1  0  0  0  0
  1  2  2  0  0  0  0
  2 11  1  0  0  0  0
  3  7  1  0  0  0  0
  3  6  2  0  0  0  0
  6  5  1  0  0  0  0
  7  9  2  0  0  0  0
  8  4  2  0  0  0  0
  9  5  1  0  0  0  0
  9  4  1  0  0  0  0
 10  7  1  0  0  0  0
 10  8  1  0  0  0  0
 11 12  1  0  0  0  0
 12 15  1  0  0  0  0
 14 16  2  0  0  0  0
 15 17  2  0  0  0  0
 15 13  1  0  0  0  0
 16 13  1  0  0  0  0
 16 18  1  0  0  0  0
 19 18  1  0  0  0  0
 20  2  1  0  0  0  0
 21 22  2  0  0  0  0
 21 23  1  0  0  0  0
 23 20  1  0  0  0  0
 24 21  1  0  0  0  0
 25 24  1  0  0  0  0
M  END
>  <MODEL>
9

>  <REMARK>
 VINA RESULT:      -7.1      2.824      6.417
  Name = 
  8 active torsions:
  status: ('A' for Active; 'I' for Inactive)
    1  A    between atoms: C_3  and  C_7
    2  A    between atoms: C_6  and  C_20
    3  A    between atoms: C_8  and  C_19
    4  A    between atoms: C_12  and  C_17
    5  A    between atoms: C_12  and  C_20
    6  A    between atoms: C_13  and  N_14
    7  A    between atoms: C_17  and  C_23
    8  A    between atoms: C_23  and  N_25
                            x       y       z     vdW  Elec       q    Type
                         _______ _______ _______ _____ _____    ______ ____

>  <TORSDO>
F 8

$$$$
