=
 OpenBabel10222420243D

 47 49  0  0  1  0  0  0  0  0999 V2000
  183.1250  178.6520  143.0990 C   0  0  0  0  0  0  0  0  0  0  0  0
  181.8500  178.7240  141.0190 C   0  0  0  0  0  0  0  0  0  0  0  0
  180.8420  179.4820  143.0980 C   0  0  0  0  0  3  0  0  0  0  0  0
  180.7570  179.2510  141.7260 C   0  0  0  0  0  3  0  0  0  0  0  0
  183.0420  178.4200  141.7110 C   0  0  0  0  0  0  0  0  0  0  0  0
  182.0210  179.1840  143.7820 C   0  0  0  0  0  3  0  0  0  0  0  0
  184.5530  178.7790  144.9820 N   0  0  0  0  0  0  0  0  0  0  0  0
  184.3320  178.3420  143.8070 N   0  0  0  0  0  0  0  0  0  0  0  0
  187.0700  178.4000  147.7280 C   0  0  0  0  0  3  0  0  0  0  0  0
  185.8840  178.7180  147.0610 C   0  0  0  0  0  3  0  0  0  0  0  0
  185.7570  178.4640  145.6860 C   0  0  0  0  0  0  0  0  0  0  0  0
  188.0200  177.5740  145.6550 C   0  0  0  0  0  0  0  0  0  0  0  0
  188.1350  177.8260  147.0260 C   0  0  0  0  0  3  0  0  0  0  0  0
  186.8260  177.8860  144.9890 C   0  0  0  0  0  3  0  0  0  0  0  0
  189.1610  176.9340  144.9320 C   0  0  2  0  0  3  0  0  0  0  0  0
  190.3580  177.1760  145.6080 O   0  0  0  0  0  1  0  0  0  0  0  0
  189.2480  177.4610  143.5040 C   0  0  0  0  0  2  0  0  0  0  0  0
  191.3090  177.7630  142.2430 N   0  0  0  0  0  1  0  0  0  0  0  0
  190.4920  178.3150  143.3100 C   0  0  0  0  0  2  0  0  0  0  0  0
  181.7360  178.4850  139.5370 C   0  0  2  0  0  3  0  0  0  0  0  0
  180.8470  180.7470  139.2190 O   0  0  0  0  0  0  0  0  0  0  0  0
  181.5070  179.5660  137.2550 C   0  0  0  0  0  2  0  0  0  0  0  0
  180.8950  180.8560  136.8330 C   0  0  0  0  0  2  0  0  0  0  0  0
  180.2360  181.3500  138.1020 C   0  0  2  0  0  3  0  0  0  0  0  0
  181.7560  179.7920  138.7250 C   0  0  2  0  0  3  0  0  0  0  0  0
  180.3590  182.7980  138.1990 N   0  0  0  0  0  2  0  0  0  0  0  0
  180.0860  183.3570  136.8820 C   0  0  0  0  0  2  0  0  0  0  0  0
  181.0900  184.9360  135.4060 O   0  0  0  0  0  0  0  0  0  0  0  0
  181.1200  184.3720  136.5310 C   0  0  0  0  0  0  0  0  0  0  0  0
  182.1170  184.6980  137.4480 O   0  0  0  0  0  1  0  0  0  0  0  0
  180.8220  176.1170  139.8940 C   0  0  0  0  0  1  0  0  0  0  0  0
  180.6520  177.4510  139.1820 C   0  0  1  0  0  3  0  0  0  0  0  0
  179.3770  177.9650  139.4300 O   0  0  0  0  0  1  0  0  0  0  0  0
  184.2330  177.8680  140.9810 C   0  0  0  0  0  2  0  0  0  0  0  0
  185.1170  178.9970  140.4710 C   0  0  0  0  0  2  0  0  0  0  0  0
  187.8980  178.5810  140.0020 O   0  0  0  0  0  0  0  0  0  0  0  0
  187.1110  178.3960  139.0330 C   0  0  0  0  0  0  0  0  0  0  0  0
  187.6130  177.9480  137.7750 N   0  0  0  0  0  2  0  0  0  0  0  0
  185.7050  178.6280  139.1900 N   0  0  0  0  0  2  0  0  0  0  0  0
  189.0370  177.7150  137.5490 C   0  0  0  0  0  2  0  0  0  0  0  0
  189.2720  176.3680  136.8660 C   0  0  1  0  0  0  0  0  0  0  0  0
  188.1260  175.5790  136.9720 O   0  0  0  0  0  1  0  0  0  0  0  0
  189.6160  176.5630  135.3990 C   0  0  0  0  0  1  0  0  0  0  0  0
  192.1130  175.9460  136.9540 O   0  0  0  0  0  0  0  0  0  0  0  0
  190.7040  175.9660  139.3280 O   0  0  0  0  0  1  0  0  0  0  0  0
  190.6540  175.5190  137.6960 P   0  0  0  0  0  0  0  0  0  0  0  0
  190.4630  174.0220  137.5920 O   0  0  0  0  0  1  0  0  0  0  0  0
  1  6  1  0  0  0  0
  1  8  1  0  0  0  0
  2  5  1  0  0  0  0
  2  4  2  0  0  0  0
  3  6  2  0  0  0  0
  4  3  1  0  0  0  0
  5  1  2  0  0  0  0
  7 11  1  0  0  0  0
  8  7  2  0  0  0  0
 10  9  1  0  0  0  0
 11 10  2  0  0  0  0
 12 13  1  0  0  0  0
 13  9  2  0  0  0  0
 14 12  2  0  0  0  0
 14 11  1  0  0  0  0
 15 16  1  1  0  0  0
 15 12  1  0  0  0  0
 17 15  1  0  0  0  0
 18 19  1  0  0  0  0
 19 17  1  0  0  0  0
 20 32  1  1  0  0  0
 20  2  1  0  0  0  0
 22 25  1  0  0  0  0
 23 22  1  0  0  0  0
 23 24  1  0  0  0  0
 24 26  1  1  0  0  0
 24 21  1  0  0  0  0
 25 21  1  0  0  0  0
 25 20  1  1  0  0  0
 27 26  1  0  0  0  0
 28 29  2  0  0  0  0
 29 27  1  0  0  0  0
 29 30  1  0  0  0  0
 32 33  1  0  0  0  0
 32 31  1  1  0  0  0
 34  5  1  0  0  0  0
 35 34  1  0  0  0  0
 37 39  1  0  0  0  0
 37 36  2  0  0  0  0
 38 37  1  0  0  0  0
 39 35  1  0  0  0  0
 40 38  1  0  0  0  0
 41 43  1  6  0  0  0
 41 42  1  0  0  0  0
 41 40  1  0  0  0  0
 41 46  1  0  0  0  0
 44 46  2  0  0  0  0
 46 45  1  0  0  0  0
 47 46  1  0  0  0  0
M  END
>  <MODEL>
1

>  <REMARK>
 VINA RESULT:      -8.3      0.000      0.000
  Name = 
  17 active torsions:
  status: ('A' for Active; 'I' for Inactive)
    1  A    between atoms: C_1  and  P_25
    2  A    between atoms: C_1  and  C_39
    3  A    between atoms: N_4  and  C_34
    4  A    between atoms: C_7  and  N_35
    5  A    between atoms: C_10  and  C_24
    6  A    between atoms: C_15  and  C_29
    7  A    between atoms: C_17  and  C_29
    8  A    between atoms: C_17  and  N_42
    9  A    between atoms: C_19  and  C_37
   10  A    between atoms: C_19  and  C_41
   11  A    between atoms: C_21  and  N_33
   12  A    between atoms: C_22  and  C_46
   13  A    between atoms: C_24  and  C_28
   14  A    between atoms: C_24  and  C_32
   15  A    between atoms: C_26  and  C_37
   16  A    between atoms: N_33  and  C_46
   17  A    between atoms: N_36  and  C_39
                            x       y       z     vdW  Elec       q    Type
                         _______ _______ _______ _____ _____    ______ ____

>  <TORSDO>
F 17

$$$$
=
 OpenBabel10222420243D

 47 49  0  0  1  0  0  0  0  0999 V2000
  183.8890  178.6140  142.9280 C   0  0  0  0  0  0  0  0  0  0  0  0
  181.8450  178.6440  141.5930 C   0  0  0  0  0  0  0  0  0  0  0  0
  181.8020  179.3690  143.9140 C   0  0  0  0  0  3  0  0  0  0  0  0
  181.1450  179.1350  142.7070 C   0  0  0  0  0  3  0  0  0  0  0  0
  183.2270  178.3790  141.7050 C   0  0  0  0  0  0  0  0  0  0  0  0
  183.1670  179.1100  144.0240 C   0  0  0  0  0  3  0  0  0  0  0  0
  185.7740  177.7330  144.0540 N   0  0  0  0  0  0  0  0  0  0  0  0
  185.2910  178.3440  143.0470 N   0  0  0  0  0  0  0  0  0  0  0  0
  189.3460  177.0540  143.1620 C   0  0  0  0  0  3  0  0  0  0  0  0
  187.9810  177.3160  143.0270 C   0  0  0  0  0  3  0  0  0  0  0  0
  187.1740  177.4620  144.1670 C   0  0  0  0  0  0  0  0  0  0  0  0
  189.1170  177.0720  145.5760 C   0  0  0  0  0  0  0  0  0  0  0  0
  189.9140  176.9340  144.4350 C   0  0  0  0  0  3  0  0  0  0  0  0
  187.7470  177.3440  145.4390 C   0  0  0  0  0  3  0  0  0  0  0  0
  189.7500  176.9690  146.9260 C   0  0  2  0  0  3  0  0  0  0  0  0
  189.3380  178.0280  147.7370 O   0  0  0  0  0  1  0  0  0  0  0  0
  191.2700  176.9630  146.8010 C   0  0  0  0  0  2  0  0  0  0  0  0
  192.9420  176.1580  148.3780 N   0  0  0  0  0  1  0  0  0  0  0  0
  191.8710  175.7450  147.4850 C   0  0  0  0  0  2  0  0  0  0  0  0
  181.1150  178.4020  140.2990 C   0  0  2  0  0  3  0  0  0  0  0  0
  180.0700  180.3510  139.2420 O   0  0  0  0  0  0  0  0  0  0  0  0
  181.6560  179.1410  137.9340 C   0  0  0  0  0  2  0  0  0  0  0  0
  181.0630  180.2010  137.0740 C   0  0  0  0  0  2  0  0  0  0  0  0
  179.8740  180.6700  137.8830 C   0  0  2  0  0  3  0  0  0  0  0  0
  181.2460  179.5800  139.3170 C   0  0  2  0  0  3  0  0  0  0  0  0
  179.7050  182.1090  137.7370 N   0  0  0  0  0  2  0  0  0  0  0  0
  180.9950  182.7360  137.9930 C   0  0  0  0  0  2  0  0  0  0  0  0
  180.3350  184.1730  136.2110 O   0  0  0  0  0  0  0  0  0  0  0  0
  181.1550  183.9480  137.1390 C   0  0  0  0  0  0  0  0  0  0  0  0
  182.2080  184.8290  137.3700 O   0  0  0  0  0  1  0  0  0  0  0  0
  179.1650  177.0750  139.2960 C   0  0  0  0  0  1  0  0  0  0  0  0
  179.7090  177.8130  140.5100 C   0  0  1  0  0  3  0  0  0  0  0  0
  179.6850  176.9760  141.6280 O   0  0  0  0  0  1  0  0  0  0  0  0
  184.0080  177.8670  140.5280 C   0  0  0  0  0  2  0  0  0  0  0  0
  184.8500  178.9800  139.9220 C   0  0  0  0  0  2  0  0  0  0  0  0
  187.5490  178.3160  139.2900 O   0  0  0  0  0  0  0  0  0  0  0  0
  186.6970  178.2210  138.3650 C   0  0  0  0  0  0  0  0  0  0  0  0
  187.0840  177.7500  137.0750 N   0  0  0  0  0  2  0  0  0  0  0  0
  185.3290  178.5800  138.6050 N   0  0  0  0  0  2  0  0  0  0  0  0
  188.4640  177.3900  136.7660 C   0  0  0  0  0  2  0  0  0  0  0  0
  188.5990  175.8880  136.5180 C   0  0  1  0  0  0  0  0  0  0  0  0
  187.5510  175.2100  137.1430 O   0  0  0  0  0  1  0  0  0  0  0  0
  188.5770  175.5860  135.0290 C   0  0  0  0  0  1  0  0  0  0  0  0
  191.4250  175.5680  136.1070 O   0  0  0  0  0  0  0  0  0  0  0  0
  190.5160  176.1670  138.6430 O   0  0  0  0  0  1  0  0  0  0  0  0
  190.1780  175.3130  137.2220 P   0  0  0  0  0  0  0  0  0  0  0  0
  190.0850  173.8360  137.5330 O   0  0  0  0  0  1  0  0  0  0  0  0
  1  8  1  0  0  0  0
  1  6  1  0  0  0  0
  2  5  1  0  0  0  0
  2  4  2  0  0  0  0
  3  6  2  0  0  0  0
  4  3  1  0  0  0  0
  5  1  2  0  0  0  0
  7 11  1  0  0  0  0
  8  7  2  0  0  0  0
  9 13  1  0  0  0  0
 10  9  2  0  0  0  0
 10 11  1  0  0  0  0
 11 14  2  0  0  0  0
 12 15  1  0  0  0  0
 13 12  2  0  0  0  0
 14 12  1  0  0  0  0
 15 16  1  1  0  0  0
 17 15  1  0  0  0  0
 17 19  1  0  0  0  0
 19 18  1  0  0  0  0
 20 32  1  1  0  0  0
 20  2  1  0  0  0  0
 21 25  1  0  0  0  0
 22 25  1  0  0  0  0
 23 24  1  0  0  0  0
 23 22  1  0  0  0  0
 24 26  1  1  0  0  0
 24 21  1  0  0  0  0
 25 20  1  1  0  0  0
 26 27  1  0  0  0  0
 28 29  2  0  0  0  0
 29 30  1  0  0  0  0
 29 27  1  0  0  0  0
 32 31  1  6  0  0  0
 32 33  1  0  0  0  0
 34  5  1  0  0  0  0
 35 34  1  0  0  0  0
 37 39  1  0  0  0  0
 37 36  2  0  0  0  0
 38 37  1  0  0  0  0
 39 35  1  0  0  0  0
 40 38  1  0  0  0  0
 41 43  1  6  0  0  0
 41 40  1  0  0  0  0
 41 42  1  0  0  0  0
 41 46  1  0  0  0  0
 44 46  2  0  0  0  0
 46 47  1  0  0  0  0
 46 45  1  0  0  0  0
M  END
>  <MODEL>
2

>  <REMARK>
 VINA RESULT:      -8.0      1.587      2.099
  Name = 
  17 active torsions:
  status: ('A' for Active; 'I' for Inactive)
    1  A    between atoms: C_1  and  P_25
    2  A    between atoms: C_1  and  C_39
    3  A    between atoms: N_4  and  C_34
    4  A    between atoms: C_7  and  N_35
    5  A    between atoms: C_10  and  C_24
    6  A    between atoms: C_15  and  C_29
    7  A    between atoms: C_17  and  C_29
    8  A    between atoms: C_17  and  N_42
    9  A    between atoms: C_19  and  C_37
   10  A    between atoms: C_19  and  C_41
   11  A    between atoms: C_21  and  N_33
   12  A    between atoms: C_22  and  C_46
   13  A    between atoms: C_24  and  C_28
   14  A    between atoms: C_24  and  C_32
   15  A    between atoms: C_26  and  C_37
   16  A    between atoms: N_33  and  C_46
   17  A    between atoms: N_36  and  C_39
                            x       y       z     vdW  Elec       q    Type
                         _______ _______ _______ _____ _____    ______ ____

>  <TORSDO>
F 17

$$$$
=
 OpenBabel10222420243D

 47 49  0  0  1  0  0  0  0  0999 V2000
  182.8160  178.7870  142.8530 C   0  0  0  0  0  0  0  0  0  0  0  0
  181.5120  178.7590  140.7900 C   0  0  0  0  0  0  0  0  0  0  0  0
  180.5230  179.5850  142.8530 C   0  0  0  0  0  3  0  0  0  0  0  0
  180.4220  179.2990  141.4910 C   0  0  0  0  0  3  0  0  0  0  0  0
  182.7170  178.4990  141.4760 C   0  0  0  0  0  0  0  0  0  0  0  0
  181.7140  179.3310  143.5300 C   0  0  0  0  0  3  0  0  0  0  0  0
  184.1550  178.7380  144.8040 N   0  0  0  0  0  0  0  0  0  0  0  0
  184.0370  178.5210  143.5540 N   0  0  0  0  0  0  0  0  0  0  0  0
  186.7020  178.4590  147.5340 C   0  0  0  0  0  3  0  0  0  0  0  0
  185.5020  178.7340  146.8740 C   0  0  0  0  0  3  0  0  0  0  0  0
  185.3740  178.4680  145.5000 C   0  0  0  0  0  0  0  0  0  0  0  0
  187.6660  177.6560  145.4580 C   0  0  0  0  0  0  0  0  0  0  0  0
  187.7820  177.9190  146.8270 C   0  0  0  0  0  3  0  0  0  0  0  0
  186.4580  177.9240  144.7980 C   0  0  0  0  0  3  0  0  0  0  0  0
  188.8240  177.0520  144.7300 C   0  0  2  0  0  3  0  0  0  0  0  0
  189.9290  177.9020  144.7890 O   0  0  0  0  0  1  0  0  0  0  0  0
  188.4520  176.7730  143.2780 C   0  0  0  0  0  2  0  0  0  0  0  0
  190.3620  175.3460  142.7830 N   0  0  0  0  0  1  0  0  0  0  0  0
  189.6940  176.5840  142.4210 C   0  0  0  0  0  2  0  0  0  0  0  0
  181.3800  178.4600  139.3200 C   0  0  2  0  0  3  0  0  0  0  0  0
  182.3430  176.9300  137.6640 O   0  0  0  0  0  0  0  0  0  0  0  0
  180.7090  176.0220  139.1450 C   0  0  0  0  0  2  0  0  0  0  0  0
  181.0720  174.9680  138.1580 C   0  0  0  0  0  2  0  0  0  0  0  0
  181.8390  175.7380  137.1060 C   0  0  2  0  0  3  0  0  0  0  0  0
  181.8180  177.0270  138.9680 C   0  0  2  0  0  3  0  0  0  0  0  0
  182.9400  174.9320  136.5980 N   0  0  0  0  0  2  0  0  0  0  0  0
  183.7820  174.5660  137.7290 C   0  0  0  0  0  2  0  0  0  0  0  0
  185.3230  173.8230  136.0710 O   0  0  0  0  0  0  0  0  0  0  0  0
  184.9340  173.7410  137.2650 C   0  0  0  0  0  0  0  0  0  0  0  0
  185.5790  172.8830  138.1520 O   0  0  0  0  0  1  0  0  0  0  0  0
  181.0910  179.8260  137.1710 C   0  0  0  0  0  1  0  0  0  0  0  0
  181.9120  179.5990  138.4310 C   0  0  1  0  0  3  0  0  0  0  0  0
  182.0130  180.7880  139.1570 O   0  0  0  0  0  1  0  0  0  0  0  0
  183.9060  177.9350  140.7520 C   0  0  0  0  0  2  0  0  0  0  0  0
  184.8420  179.0510  140.3120 C   0  0  0  0  0  2  0  0  0  0  0  0
  187.6450  178.5650  140.1210 O   0  0  0  0  0  0  0  0  0  0  0  0
  186.9530  178.3950  139.0790 C   0  0  0  0  0  0  0  0  0  0  0  0
  187.5660  177.9290  137.8780 N   0  0  0  0  0  2  0  0  0  0  0  0
  185.5450  178.6620  139.0960 N   0  0  0  0  0  2  0  0  0  0  0  0
  188.9980  177.6600  137.7940 C   0  0  0  0  0  2  0  0  0  0  0  0
  189.2760  176.4190  136.9460 C   0  0  1  0  0  0  0  0  0  0  0  0
  188.1460  175.6020  136.9190 O   0  0  0  0  0  1  0  0  0  0  0  0
  189.6480  176.8130  135.5260 C   0  0  0  0  0  1  0  0  0  0  0  0
  190.3790  173.8320  137.5360 O   0  0  0  0  0  1  0  0  0  0  0  0
  192.1030  175.8930  136.9050 O   0  0  0  0  0  0  0  0  0  0  0  0
  190.6580  175.4940  137.6900 P   0  0  0  0  0  0  0  0  0  0  0  0
  190.7690  175.8450  139.1570 O   0  0  0  0  0  1  0  0  0  0  0  0
  1  6  1  0  0  0  0
  1  8  1  0  0  0  0
  2  5  1  0  0  0  0
  2  4  2  0  0  0  0
  3  6  2  0  0  0  0
  4  3  1  0  0  0  0
  5  1  2  0  0  0  0
  7 11  1  0  0  0  0
  8  7  2  0  0  0  0
 10  9  1  0  0  0  0
 11 10  2  0  0  0  0
 12 13  1  0  0  0  0
 13  9  2  0  0  0  0
 14 12  2  0  0  0  0
 14 11  1  0  0  0  0
 15 16  1  6  0  0  0
 15 12  1  0  0  0  0
 17 15  1  0  0  0  0
 19 18  1  0  0  0  0
 19 17  1  0  0  0  0
 20 32  1  6  0  0  0
 20  2  1  0  0  0  0
 21 25  1  0  0  0  0
 23 22  1  0  0  0  0
 24 26  1  1  0  0  0
 24 21  1  0  0  0  0
 24 23  1  0  0  0  0
 25 22  1  0  0  0  0
 25 20  1  6  0  0  0
 26 27  1  0  0  0  0
 28 29  2  0  0  0  0
 29 27  1  0  0  0  0
 29 30  1  0  0  0  0
 32 31  1  6  0  0  0
 32 33  1  0  0  0  0
 34  5  1  0  0  0  0
 35 34  1  0  0  0  0
 37 39  1  0  0  0  0
 37 36  2  0  0  0  0
 38 37  1  0  0  0  0
 39 35  1  0  0  0  0
 40 38  1  0  0  0  0
 41 43  1  6  0  0  0
 41 46  1  0  0  0  0
 41 40  1  0  0  0  0
 42 41  1  0  0  0  0
 44 46  1  0  0  0  0
 45 46  2  0  0  0  0
 46 47  1  0  0  0  0
M  END
>  <MODEL>
3

>  <REMARK>
 VINA RESULT:      -7.9      1.898      4.079
  Name = 
  17 active torsions:
  status: ('A' for Active; 'I' for Inactive)
    1  A    between atoms: C_1  and  P_25
    2  A    between atoms: C_1  and  C_39
    3  A    between atoms: N_4  and  C_34
    4  A    between atoms: C_7  and  N_35
    5  A    between atoms: C_10  and  C_24
    6  A    between atoms: C_15  and  C_29
    7  A    between atoms: C_17  and  C_29
    8  A    between atoms: C_17  and  N_42
    9  A    between atoms: C_19  and  C_37
   10  A    between atoms: C_19  and  C_41
   11  A    between atoms: C_21  and  N_33
   12  A    between atoms: C_22  and  C_46
   13  A    between atoms: C_24  and  C_28
   14  A    between atoms: C_24  and  C_32
   15  A    between atoms: C_26  and  C_37
   16  A    between atoms: N_33  and  C_46
   17  A    between atoms: N_36  and  C_39
                            x       y       z     vdW  Elec       q    Type
                         _______ _______ _______ _____ _____    ______ ____

>  <TORSDO>
F 17

$$$$
=
 OpenBabel10222420243D

 47 49  0  0  1  0  0  0  0  0999 V2000
  184.5850  178.5770  143.6780 C   0  0  0  0  0  0  0  0  0  0  0  0
  183.3470  178.4520  141.5780 C   0  0  0  0  0  0  0  0  0  0  0  0
  182.2250  179.1460  143.6210 C   0  0  0  0  0  3  0  0  0  0  0  0
  182.1900  178.8720  142.2540 C   0  0  0  0  0  3  0  0  0  0  0  0
  184.5530  178.3010  142.2950 C   0  0  0  0  0  0  0  0  0  0  0  0
  183.4160  179.0000  144.3290 C   0  0  0  0  0  3  0  0  0  0  0  0
  185.8130  178.1190  145.6490 N   0  0  0  0  0  0  0  0  0  0  0  0
  185.8060  178.4220  144.4120 N   0  0  0  0  0  0  0  0  0  0  0  0
  188.2870  177.9890  148.4560 C   0  0  0  0  0  3  0  0  0  0  0  0
  187.0830  178.1510  147.7670 C   0  0  0  0  0  3  0  0  0  0  0  0
  187.0340  177.9610  146.3750 C   0  0  0  0  0  0  0  0  0  0  0  0
  189.4120  177.4530  146.3750 C   0  0  0  0  0  0  0  0  0  0  0  0
  189.4500  177.6390  147.7610 C   0  0  0  0  0  3  0  0  0  0  0  0
  188.2010  177.6080  145.6850 C   0  0  0  0  0  3  0  0  0  0  0  0
  190.6610  177.0510  145.6590 C   0  0  2  0  0  3  0  0  0  0  0  0
  191.7390  177.0180  146.5460 O   0  0  0  0  0  1  0  0  0  0  0  0
  190.9510  178.0150  144.5140 C   0  0  0  0  0  2  0  0  0  0  0  0
  191.4820  175.9280  143.3770 N   0  0  0  0  0  1  0  0  0  0  0  0
  191.7880  177.3480  143.4340 C   0  0  0  0  0  2  0  0  0  0  0  0
  183.2860  178.1630  140.1020 C   0  0  2  0  0  3  0  0  0  0  0  0
  183.2130  176.3220  138.4850 O   0  0  0  0  0  0  0  0  0  0  0  0
  181.4290  176.4380  140.0650 C   0  0  0  0  0  2  0  0  0  0  0  0
  181.1320  175.3300  139.1150 C   0  0  0  0  0  2  0  0  0  0  0  0
  182.1290  175.5610  138.0020 C   0  0  2  0  0  3  0  0  0  0  0  0
  182.8890  176.7070  139.8010 C   0  0  2  0  0  3  0  0  0  0  0  0
  182.6150  174.2860  137.4920 N   0  0  0  0  0  2  0  0  0  0  0  0
  181.5070  173.6270  136.8140 C   0  0  0  0  0  2  0  0  0  0  0  0
  182.6120  171.5580  137.2350 O   0  0  0  0  0  0  0  0  0  0  0  0
  181.5170  172.1670  137.1170 C   0  0  0  0  0  0  0  0  0  0  0  0
  180.3150  171.4800  137.2710 O   0  0  0  0  0  1  0  0  0  0  0  0
  184.6860  178.1250  137.9550 C   0  0  0  0  0  1  0  0  0  0  0  0
  184.4890  178.7400  139.3320 C   0  0  1  0  0  3  0  0  0  0  0  0
  184.3890  180.1290  139.2260 O   0  0  0  0  0  1  0  0  0  0  0  0
  185.8110  177.8670  141.5990 C   0  0  0  0  0  2  0  0  0  0  0  0
  186.8460  178.9820  141.6230 C   0  0  0  0  0  2  0  0  0  0  0  0
  188.9330  177.0400  141.6450 O   0  0  0  0  0  0  0  0  0  0  0  0
  188.8190  177.7590  140.6150 C   0  0  0  0  0  0  0  0  0  0  0  0
  189.6820  177.5550  139.4970 N   0  0  0  0  0  2  0  0  0  0  0  0
  187.8170  178.7830  140.5550 N   0  0  0  0  0  2  0  0  0  0  0  0
  190.7340  176.5420  139.5070 C   0  0  0  0  0  2  0  0  0  0  0  0
  190.9760  175.9870  138.1030 C   0  0  1  0  0  0  0  0  0  0  0  0
  190.4630  174.6930  138.0130 O   0  0  0  0  0  1  0  0  0  0  0  0
  190.3130  176.8670  137.0570 C   0  0  0  0  0  1  0  0  0  0  0  0
  193.5760  176.8840  138.9380 O   0  0  0  0  0  1  0  0  0  0  0  0
  193.3240  174.3400  137.8970 O   0  0  0  0  0  1  0  0  0  0  0  0
  192.7700  175.9350  137.7910 P   0  0  0  0  0  0  0  0  0  0  0  0
  193.0580  176.4760  136.4080 O   0  0  0  0  0  0  0  0  0  0  0  0
  1  6  1  0  0  0  0
  1  8  1  0  0  0  0
  2  4  2  0  0  0  0
  2  5  1  0  0  0  0
  3  6  2  0  0  0  0
  4  3  1  0  0  0  0
  5  1  2  0  0  0  0
  7 11  1  0  0  0  0
  8  7  2  0  0  0  0
 10  9  1  0  0  0  0
 11 10  2  0  0  0  0
 12 13  1  0  0  0  0
 13  9  2  0  0  0  0
 14 12  2  0  0  0  0
 14 11  1  0  0  0  0
 15 12  1  0  0  0  0
 15 16  1  1  0  0  0
 17 15  1  0  0  0  0
 18 19  1  0  0  0  0
 19 17  1  0  0  0  0
 20 32  1  1  0  0  0
 20  2  1  0  0  0  0
 21 25  1  0  0  0  0
 23 22  1  0  0  0  0
 24 26  1  1  0  0  0
 24 21  1  0  0  0  0
 24 23  1  0  0  0  0
 25 22  1  0  0  0  0
 25 20  1  6  0  0  0
 27 29  1  0  0  0  0
 27 26  1  0  0  0  0
 29 28  2  0  0  0  0
 29 30  1  0  0  0  0
 32 31  1  6  0  0  0
 33 32  1  0  0  0  0
 34 35  1  0  0  0  0
 34  5  1  0  0  0  0
 37 36  2  0  0  0  0
 38 40  1  0  0  0  0
 38 37  1  0  0  0  0
 39 37  1  0  0  0  0
 39 35  1  0  0  0  0
 41 43  1  6  0  0  0
 41 40  1  0  0  0  0
 42 41  1  0  0  0  0
 46 45  1  0  0  0  0
 46 41  1  0  0  0  0
 46 44  1  0  0  0  0
 47 46  2  0  0  0  0
M  END
>  <MODEL>
4

>  <REMARK>
 VINA RESULT:      -7.9      3.080      4.685
  Name = 
  17 active torsions:
  status: ('A' for Active; 'I' for Inactive)
    1  A    between atoms: C_1  and  P_25
    2  A    between atoms: C_1  and  C_39
    3  A    between atoms: N_4  and  C_34
    4  A    between atoms: C_7  and  N_35
    5  A    between atoms: C_10  and  C_24
    6  A    between atoms: C_15  and  C_29
    7  A    between atoms: C_17  and  C_29
    8  A    between atoms: C_17  and  N_42
    9  A    between atoms: C_19  and  C_37
   10  A    between atoms: C_19  and  C_41
   11  A    between atoms: C_21  and  N_33
   12  A    between atoms: C_22  and  C_46
   13  A    between atoms: C_24  and  C_28
   14  A    between atoms: C_24  and  C_32
   15  A    between atoms: C_26  and  C_37
   16  A    between atoms: N_33  and  C_46
   17  A    between atoms: N_36  and  C_39
                            x       y       z     vdW  Elec       q    Type
                         _______ _______ _______ _____ _____    ______ ____

>  <TORSDO>
F 17

$$$$
=
 OpenBabel10222420243D

 47 49  0  0  1  0  0  0  0  0999 V2000
  185.7510  178.2720  145.4560 C   0  0  0  0  0  0  0  0  0  0  0  0
  188.0470  178.0960  146.2640 C   0  0  0  0  0  0  0  0  0  0  0  0
  186.3070  178.9900  147.7080 C   0  0  0  0  0  3  0  0  0  0  0  0
  187.6390  178.6390  147.4930 C   0  0  0  0  0  3  0  0  0  0  0  0
  187.0970  177.9140  145.2370 C   0  0  0  0  0  0  0  0  0  0  0  0
  185.3670  178.8070  146.6950 C   0  0  0  0  0  3  0  0  0  0  0  0
  183.9250  178.9880  144.1320 N   0  0  0  0  0  0  0  0  0  0  0  0
  184.7830  178.0910  144.4150 N   0  0  0  0  0  0  0  0  0  0  0  0
  180.6710  178.8150  142.2890 C   0  0  0  0  0  3  0  0  0  0  0  0
  181.5910  178.9980  143.3230 C   0  0  0  0  0  3  0  0  0  0  0  0
  182.9630  178.8050  143.0900 C   0  0  0  0  0  0  0  0  0  0  0  0
  182.4760  178.2390  140.7760 C   0  0  0  0  0  0  0  0  0  0  0  0
  181.1130  178.4380  141.0160 C   0  0  0  0  0  3  0  0  0  0  0  0
  183.4010  178.4310  141.8130 C   0  0  0  0  0  3  0  0  0  0  0  0
  182.9280  177.8650  139.4000 C   0  0  2  0  0  3  0  0  0  0  0  0
  183.3200  179.0020  138.6930 O   0  0  0  0  0  1  0  0  0  0  0  0
  181.8130  177.1400  138.6540 C   0  0  0  0  0  2  0  0  0  0  0  0
  183.2920  175.2410  138.2820 N   0  0  0  0  0  1  0  0  0  0  0  0
  181.9750  175.6310  138.7580 C   0  0  0  0  0  2  0  0  0  0  0  0
  189.4910  177.7230  146.0550 C   0  0  2  0  0  3  0  0  0  0  0  0
  190.5290  176.7230  144.0720 O   0  0  0  0  0  0  0  0  0  0  0  0
  190.8710  179.0600  144.4010 C   0  0  0  0  0  2  0  0  0  0  0  0
  191.6730  178.6400  143.2190 C   0  0  0  0  0  2  0  0  0  0  0  0
  191.6420  177.1300  143.3080 C   0  0  2  0  0  3  0  0  0  0  0  0
  189.9380  177.8910  144.5920 C   0  0  2  0  0  3  0  0  0  0  0  0
  191.5570  176.5520  141.9740 N   0  0  0  0  0  2  0  0  0  0  0  0
  191.8120  177.6150  141.0120 C   0  0  0  0  0  2  0  0  0  0  0  0
  192.2450  176.6260  138.8870 O   0  0  0  0  0  0  0  0  0  0  0  0
  192.7240  177.1270  139.9380 C   0  0  0  0  0  0  0  0  0  0  0  0
  194.1040  177.2270  140.0970 O   0  0  0  0  0  1  0  0  0  0  0  0
  191.2800  176.4200  147.3480 C   0  0  0  0  0  1  0  0  0  0  0  0
  189.8750  176.4110  146.7640 C   0  0  1  0  0  3  0  0  0  0  0  0
  188.9460  176.0950  147.7570 O   0  0  0  0  0  1  0  0  0  0  0  0
  187.4990  177.3230  143.9150 C   0  0  0  0  0  2  0  0  0  0  0  0
  187.1650  178.2800  142.7800 C   0  0  0  0  0  2  0  0  0  0  0  0
  186.4920  178.7430  140.0490 O   0  0  0  0  0  0  0  0  0  0  0  0
  187.6560  178.3240  140.2970 C   0  0  0  0  0  0  0  0  0  0  0  0
  188.5960  178.1450  139.2390 N   0  0  0  0  0  2  0  0  0  0  0  0
  188.0460  178.0320  141.6450 N   0  0  0  0  0  2  0  0  0  0  0  0
  188.2510  178.4070  137.8450 C   0  0  0  0  0  2  0  0  0  0  0  0
  188.4380  177.1550  136.9880 C   0  0  1  0  0  0  0  0  0  0  0  0
  189.1330  177.4800  135.8230 O   0  0  0  0  0  1  0  0  0  0  0  0
  189.2070  176.0910  137.7540 C   0  0  0  0  0  1  0  0  0  0  0  0
  186.6340  176.4900  134.8530 O   0  0  0  0  0  0  0  0  0  0  0  0
  186.6330  174.9210  137.1240 O   0  0  0  0  0  1  0  0  0  0  0  0
  186.8000  176.4990  136.5360 P   0  0  0  0  0  0  0  0  0  0  0  0
  185.7220  177.3740  137.1370 O   0  0  0  0  0  1  0  0  0  0  0  0
  1  6  1  0  0  0  0
  2  4  2  0  0  0  0
  4  3  1  0  0  0  0
  5  1  2  0  0  0  0
  5  2  1  0  0  0  0
  6  3  2  0  0  0  0
  7  8  2  0  0  0  0
  8  1  1  0  0  0  0
  9 10  1  0  0  0  0
 11 10  2  0  0  0  0
 11  7  1  0  0  0  0
 12 13  1  0  0  0  0
 12 14  2  0  0  0  0
 13  9  2  0  0  0  0
 14 11  1  0  0  0  0
 15 16  1  6  0  0  0
 15 12  1  0  0  0  0
 17 19  1  0  0  0  0
 17 15  1  0  0  0  0
 18 19  1  0  0  0  0
 20  2  1  0  0  0  0
 20 32  1  6  0  0  0
 21 25  1  0  0  0  0
 22 25  1  0  0  0  0
 23 24  1  0  0  0  0
 23 22  1  0  0  0  0
 24 26  1  6  0  0  0
 24 21  1  0  0  0  0
 25 20  1  1  0  0  0
 27 26  1  0  0  0  0
 28 29  2  0  0  0  0
 29 30  1  0  0  0  0
 29 27  1  0  0  0  0
 32 31  1  1  0  0  0
 32 33  1  0  0  0  0
 34  5  1  0  0  0  0
 35 34  1  0  0  0  0
 36 37  2  0  0  0  0
 37 39  1  0  0  0  0
 38 37  1  0  0  0  0
 39 35  1  0  0  0  0
 40 38  1  0  0  0  0
 41 43  1  1  0  0  0
 41 40  1  0  0  0  0
 42 41  1  0  0  0  0
 44 46  2  0  0  0  0
 46 41  1  0  0  0  0
 46 45  1  0  0  0  0
 46 47  1  0  0  0  0
M  END
>  <MODEL>
5

>  <REMARK>
 VINA RESULT:      -7.4      2.954      8.528
  Name = 
  17 active torsions:
  status: ('A' for Active; 'I' for Inactive)
    1  A    between atoms: C_1  and  P_25
    2  A    between atoms: C_1  and  C_39
    3  A    between atoms: N_4  and  C_34
    4  A    between atoms: C_7  and  N_35
    5  A    between atoms: C_10  and  C_24
    6  A    between atoms: C_15  and  C_29
    7  A    between atoms: C_17  and  C_29
    8  A    between atoms: C_17  and  N_42
    9  A    between atoms: C_19  and  C_37
   10  A    between atoms: C_19  and  C_41
   11  A    between atoms: C_21  and  N_33
   12  A    between atoms: C_22  and  C_46
   13  A    between atoms: C_24  and  C_28
   14  A    between atoms: C_24  and  C_32
   15  A    between atoms: C_26  and  C_37
   16  A    between atoms: N_33  and  C_46
   17  A    between atoms: N_36  and  C_39
                            x       y       z     vdW  Elec       q    Type
                         _______ _______ _______ _____ _____    ______ ____

>  <TORSDO>
F 17

$$$$
=
 OpenBabel10222420243D

 47 49  0  0  1  0  0  0  0  0999 V2000
  191.4000  177.2770  141.1640 C   0  0  0  0  0  0  0  0  0  0  0  0
  190.9200  176.8710  138.8060 C   0  0  0  0  0  0  0  0  0  0  0  0
  193.2030  177.2810  139.5370 C   0  0  0  0  0  3  0  0  0  0  0  0
  192.2880  177.0150  138.5200 C   0  0  0  0  0  3  0  0  0  0  0  0
  190.4730  177.0060  140.1370 C   0  0  0  0  0  0  0  0  0  0  0  0
  192.7620  177.4110  140.8530 C   0  0  0  0  0  3  0  0  0  0  0  0
  191.3670  176.6530  143.4470 N   0  0  0  0  0  0  0  0  0  0  0  0
  190.9500  177.4170  142.5180 N   0  0  0  0  0  0  0  0  0  0  0  0
  191.2300  176.4880  147.1850 C   0  0  0  0  0  3  0  0  0  0  0  0
  191.6880  176.3320  145.8750 C   0  0  0  0  0  3  0  0  0  0  0  0
  190.9180  176.7980  144.7970 C   0  0  0  0  0  0  0  0  0  0  0  0
  189.2230  177.5720  146.3600 C   0  0  0  0  0  0  0  0  0  0  0  0
  190.0000  177.1090  147.4270 C   0  0  0  0  0  3  0  0  0  0  0  0
  189.6880  177.4220  145.0450 C   0  0  0  0  0  3  0  0  0  0  0  0
  187.9260  178.2580  146.6450 C   0  0  2  0  0  3  0  0  0  0  0  0
  187.5050  177.9760  147.9460 O   0  0  0  0  0  1  0  0  0  0  0  0
  186.8630  177.8220  145.6430 C   0  0  0  0  0  2  0  0  0  0  0  0
  184.7490  179.0190  145.8160 N   0  0  0  0  0  1  0  0  0  0  0  0
  185.4770  177.8450  146.2690 C   0  0  0  0  0  2  0  0  0  0  0  0
  189.9500  176.5820  137.6910 C   0  0  2  0  0  3  0  0  0  0  0  0
  187.5200  176.6470  137.3730 O   0  0  0  0  0  0  0  0  0  0  0  0
  188.6890  178.7130  137.1440 C   0  0  0  0  0  2  0  0  0  0  0  0
  187.2610  178.9520  136.8000 C   0  0  0  0  0  2  0  0  0  0  0  0
  186.7060  177.5510  136.6620 C   0  0  2  0  0  3  0  0  0  0  0  0
  188.6370  177.3730  137.8320 C   0  0  2  0  0  3  0  0  0  0  0  0
  185.3460  177.4980  137.1810 N   0  0  0  0  0  2  0  0  0  0  0  0
  184.4870  176.9820  136.1240 C   0  0  0  0  0  2  0  0  0  0  0  0
  184.3440  175.0460  137.5060 O   0  0  0  0  0  1  0  0  0  0  0  0
  184.2000  175.5370  136.3560 C   0  0  0  0  0  0  0  0  0  0  0  0
  183.7720  174.7330  135.3020 O   0  0  0  0  0  0  0  0  0  0  0  0
  189.7740  174.7730  135.8850 C   0  0  0  0  0  1  0  0  0  0  0  0
  189.8390  175.0800  137.3730 C   0  0  1  0  0  3  0  0  0  0  0  0
  190.8870  174.3700  137.9620 O   0  0  0  0  0  1  0  0  0  0  0  0
  189.0190  176.8440  140.4780 C   0  0  0  0  0  2  0  0  0  0  0  0
  188.5210  178.0430  141.2730 C   0  0  0  0  0  2  0  0  0  0  0  0
  185.8420  178.0110  142.2480 O   0  0  0  0  0  0  0  0  0  0  0  0
  186.0590  178.6250  141.1670 C   0  0  0  0  0  0  0  0  0  0  0  0
  184.9990  179.3110  140.5040 N   0  0  0  0  0  2  0  0  0  0  0  0
  187.3760  178.6440  140.6000 N   0  0  0  0  0  2  0  0  0  0  0  0
  183.6340  179.3100  141.0220 C   0  0  0  0  0  2  0  0  0  0  0  0
  182.6810  178.6030  140.0590 C   0  0  1  0  0  0  0  0  0  0  0  0
  182.7830  179.1730  138.7900 O   0  0  0  0  0  1  0  0  0  0  0  0
  183.0060  177.1210  139.9740 C   0  0  0  0  0  1  0  0  0  0  0  0
  180.9670  179.8120  142.0240 O   0  0  0  0  0  1  0  0  0  0  0  0
  180.0170  179.4990  139.4510 O   0  0  0  0  0  0  0  0  0  0  0  0
  180.9740  178.8070  140.6630 P   0  0  0  0  0  0  0  0  0  0  0  0
  180.4070  177.4560  141.0400 O   0  0  0  0  0  1  0  0  0  0  0  0
  1  8  1  0  0  0  0
  2  5  1  0  0  0  0
  3  6  2  0  0  0  0
  4  2  2  0  0  0  0
  4  3  1  0  0  0  0
  5 34  1  0  0  0  0
  5  1  2  0  0  0  0
  6  1  1  0  0  0  0
  7 11  1  0  0  0  0
  8  7  2  0  0  0  0
  9 13  1  0  0  0  0
 10  9  2  0  0  0  0
 11 14  2  0  0  0  0
 11 10  1  0  0  0  0
 12 15  1  0  0  0  0
 12 13  2  0  0  0  0
 14 12  1  0  0  0  0
 15 16  1  1  0  0  0
 17 19  1  0  0  0  0
 17 15  1  0  0  0  0
 18 19  1  0  0  0  0
 20 32  1  1  0  0  0
 20  2  1  0  0  0  0
 21 25  1  0  0  0  0
 22 25  1  0  0  0  0
 23 22  1  0  0  0  0
 24 23  1  0  0  0  0
 24 26  1  1  0  0  0
 24 21  1  0  0  0  0
 25 20  1  6  0  0  0
 27 29  1  0  0  0  0
 27 26  1  0  0  0  0
 29 28  1  0  0  0  0
 30 29  2  0  0  0  0
 32 31  1  6  0  0  0
 32 33  1  0  0  0  0
 34 35  1  0  0  0  0
 37 36  2  0  0  0  0
 38 40  1  0  0  0  0
 38 37  1  0  0  0  0
 39 37  1  0  0  0  0
 39 35  1  0  0  0  0
 41 43  1  6  0  0  0
 41 46  1  0  0  0  0
 41 40  1  0  0  0  0
 42 41  1  0  0  0  0
 45 46  2  0  0  0  0
 46 47  1  0  0  0  0
 46 44  1  0  0  0  0
M  END
>  <MODEL>
6

>  <REMARK>
 VINA RESULT:      -7.3      3.272      7.886
  Name = 
  17 active torsions:
  status: ('A' for Active; 'I' for Inactive)
    1  A    between atoms: C_1  and  P_25
    2  A    between atoms: C_1  and  C_39
    3  A    between atoms: N_4  and  C_34
    4  A    between atoms: C_7  and  N_35
    5  A    between atoms: C_10  and  C_24
    6  A    between atoms: C_15  and  C_29
    7  A    between atoms: C_17  and  C_29
    8  A    between atoms: C_17  and  N_42
    9  A    between atoms: C_19  and  C_37
   10  A    between atoms: C_19  and  C_41
   11  A    between atoms: C_21  and  N_33
   12  A    between atoms: C_22  and  C_46
   13  A    between atoms: C_24  and  C_28
   14  A    between atoms: C_24  and  C_32
   15  A    between atoms: C_26  and  C_37
   16  A    between atoms: N_33  and  C_46
   17  A    between atoms: N_36  and  C_39
                            x       y       z     vdW  Elec       q    Type
                         _______ _______ _______ _____ _____    ______ ____

>  <TORSDO>
F 17

$$$$
=
 OpenBabel10222420243D

 47 49  0  0  1  0  0  0  0  0999 V2000
  183.6780  178.5790  142.9830 C   0  0  0  0  0  0  0  0  0  0  0  0
  181.6720  178.6490  141.5940 C   0  0  0  0  0  0  0  0  0  0  0  0
  181.5520  179.2470  143.9490 C   0  0  0  0  0  3  0  0  0  0  0  0
  180.9320  179.0680  142.7120 C   0  0  0  0  0  3  0  0  0  0  0  0
  183.0540  178.4000  141.7310 C   0  0  0  0  0  0  0  0  0  0  0  0
  182.9180  179.0040  144.0830 C   0  0  0  0  0  3  0  0  0  0  0  0
  185.5750  177.8820  144.2150 N   0  0  0  0  0  0  0  0  0  0  0  0
  185.0810  178.3250  143.1280 N   0  0  0  0  0  0  0  0  0  0  0  0
  189.1760  177.2740  143.3900 C   0  0  0  0  0  3  0  0  0  0  0  0
  187.8110  177.5220  143.2300 C   0  0  0  0  0  3  0  0  0  0  0  0
  186.9740  177.6250  144.3540 C   0  0  0  0  0  0  0  0  0  0  0  0
  188.8890  177.2210  145.7980 C   0  0  0  0  0  0  0  0  0  0  0  0
  189.7150  177.1260  144.6730 C   0  0  0  0  0  3  0  0  0  0  0  0
  187.5190  177.4790  145.6360 C   0  0  0  0  0  3  0  0  0  0  0  0
  189.4920  177.0880  147.1590 C   0  0  2  0  0  3  0  0  0  0  0  0
  189.0290  178.1050  147.9950 O   0  0  0  0  0  1  0  0  0  0  0  0
  191.0130  177.1300  147.0730 C   0  0  0  0  0  2  0  0  0  0  0  0
  192.8810  175.9560  148.1040 N   0  0  0  0  0  1  0  0  0  0  0  0
  191.6190  175.7760  147.4070 C   0  0  0  0  0  2  0  0  0  0  0  0
  180.9830  178.4650  140.2690 C   0  0  2  0  0  3  0  0  0  0  0  0
  181.3270  177.3330  138.1210 O   0  0  0  0  0  0  0  0  0  0  0  0
  180.8000  175.9510  139.9920 C   0  0  0  0  0  2  0  0  0  0  0  0
  180.8510  175.0860  138.7810 C   0  0  0  0  0  2  0  0  0  0  0  0
  180.8630  176.0890  137.6490 C   0  0  2  0  0  3  0  0  0  0  0  0
  181.4720  177.2140  139.5170 C   0  0  2  0  0  3  0  0  0  0  0  0
  181.7270  175.6210  136.5740 N   0  0  0  0  0  2  0  0  0  0  0  0
  182.3100  176.7910  135.9310 C   0  0  0  0  0  2  0  0  0  0  0  0
  184.0350  175.5120  134.8970 O   0  0  0  0  0  0  0  0  0  0  0  0
  183.7350  176.5260  135.5800 C   0  0  0  0  0  0  0  0  0  0  0  0
  184.7320  177.4010  136.0050 O   0  0  0  0  0  1  0  0  0  0  0  0
  180.0250  180.8390  140.1400 C   0  0  0  0  0  1  0  0  0  0  0  0
  180.8770  179.7740  139.4650 C   0  0  1  0  0  3  0  0  0  0  0  0
  182.1460  180.2850  139.1820 O   0  0  0  0  0  1  0  0  0  0  0  0
  183.8760  177.9630  140.5520 C   0  0  0  0  0  2  0  0  0  0  0  0
  184.9280  179.0110  140.2180 C   0  0  0  0  0  2  0  0  0  0  0  0
  187.7210  178.4930  139.9760 O   0  0  0  0  0  0  0  0  0  0  0  0
  187.0150  178.3680  138.9380 C   0  0  0  0  0  0  0  0  0  0  0  0
  187.6070  177.9350  137.7140 N   0  0  0  0  0  2  0  0  0  0  0  0
  185.6110  178.6540  138.9810 N   0  0  0  0  0  2  0  0  0  0  0  0
  189.0340  177.6490  137.6030 C   0  0  0  0  0  2  0  0  0  0  0  0
  189.2770  176.3520  136.8320 C   0  0  1  0  0  0  0  0  0  0  0  0
  188.1440  175.5420  136.9020 O   0  0  0  0  0  1  0  0  0  0  0  0
  189.5990  176.6460  135.3770 C   0  0  0  0  0  1  0  0  0  0  0  0
  190.8960  176.0010  139.1810 O   0  0  0  0  0  1  0  0  0  0  0  0
  190.3790  173.8060  137.5890 O   0  0  0  0  0  1  0  0  0  0  0  0
  190.6810  175.4710  137.5890 P   0  0  0  0  0  0  0  0  0  0  0  0
  191.9390  175.7530  136.7980 O   0  0  0  0  0  0  0  0  0  0  0  0
  1  8  1  0  0  0  0
  1  6  1  0  0  0  0
  2  5  1  0  0  0  0
  2  4  2  0  0  0  0
  3  6  2  0  0  0  0
  4  3  1  0  0  0  0
  5  1  2  0  0  0  0
  7 11  1  0  0  0  0
  8  7  2  0  0  0  0
  9 13  1  0  0  0  0
 10  9  2  0  0  0  0
 10 11  1  0  0  0  0
 11 14  2  0  0  0  0
 12 15  1  0  0  0  0
 13 12  2  0  0  0  0
 14 12  1  0  0  0  0
 15 16  1  1  0  0  0
 17 15  1  0  0  0  0
 17 19  1  0  0  0  0
 19 18  1  0  0  0  0
 20 32  1  6  0  0  0
 20  2  1  0  0  0  0
 21 25  1  0  0  0  0
 23 22  1  0  0  0  0
 24 26  1  6  0  0  0
 24 21  1  0  0  0  0
 24 23  1  0  0  0  0
 25 22  1  0  0  0  0
 25 20  1  1  0  0  0
 27 26  1  0  0  0  0
 28 29  2  0  0  0  0
 29 27  1  0  0  0  0
 29 30  1  0  0  0  0
 32 31  1  1  0  0  0
 33 32  1  0  0  0  0
 34  5  1  0  0  0  0
 35 34  1  0  0  0  0
 37 39  1  0  0  0  0
 37 36  2  0  0  0  0
 38 37  1  0  0  0  0
 39 35  1  0  0  0  0
 40 38  1  0  0  0  0
 41 43  1  6  0  0  0
 41 42  1  0  0  0  0
 41 46  1  0  0  0  0
 41 40  1  0  0  0  0
 46 45  1  0  0  0  0
 46 44  1  0  0  0  0
 47 46  2  0  0  0  0
M  END
>  <MODEL>
7

>  <REMARK>
 VINA RESULT:      -7.3      2.301      3.760
  Name = 
  17 active torsions:
  status: ('A' for Active; 'I' for Inactive)
    1  A    between atoms: C_1  and  P_25
    2  A    between atoms: C_1  and  C_39
    3  A    between atoms: N_4  and  C_34
    4  A    between atoms: C_7  and  N_35
    5  A    between atoms: C_10  and  C_24
    6  A    between atoms: C_15  and  C_29
    7  A    between atoms: C_17  and  C_29
    8  A    between atoms: C_17  and  N_42
    9  A    between atoms: C_19  and  C_37
   10  A    between atoms: C_19  and  C_41
   11  A    between atoms: C_21  and  N_33
   12  A    between atoms: C_22  and  C_46
   13  A    between atoms: C_24  and  C_28
   14  A    between atoms: C_24  and  C_32
   15  A    between atoms: C_26  and  C_37
   16  A    between atoms: N_33  and  C_46
   17  A    between atoms: N_36  and  C_39
                            x       y       z     vdW  Elec       q    Type
                         _______ _______ _______ _____ _____    ______ ____

>  <TORSDO>
F 17

$$$$
=
 OpenBabel10222420243D

 47 49  0  0  1  0  0  0  0  0999 V2000
  182.7390  178.9300  142.8510 C   0  0  0  0  0  0  0  0  0  0  0  0
  181.3490  178.6450  140.8660 C   0  0  0  0  0  0  0  0  0  0  0  0
  180.3790  179.4960  142.9270 C   0  0  0  0  0  3  0  0  0  0  0  0
  180.2440  179.1170  141.5920 C   0  0  0  0  0  3  0  0  0  0  0  0
  182.6050  178.5470  141.5000 C   0  0  0  0  0  0  0  0  0  0  0  0
  181.6210  179.4030  143.5530 C   0  0  0  0  0  3  0  0  0  0  0  0
  184.1460  178.2680  144.6360 N   0  0  0  0  0  0  0  0  0  0  0  0
  184.0130  178.8300  143.5010 N   0  0  0  0  0  0  0  0  0  0  0  0
  186.8140  178.3080  147.2620 C   0  0  0  0  0  3  0  0  0  0  0  0
  185.5610  178.4150  146.6550 C   0  0  0  0  0  3  0  0  0  0  0  0
  185.4190  178.1680  145.2800 C   0  0  0  0  0  0  0  0  0  0  0  0
  187.8030  177.7130  145.1290 C   0  0  0  0  0  0  0  0  0  0  0  0
  187.9330  177.9560  146.5000 C   0  0  0  0  0  3  0  0  0  0  0  0
  186.5420  177.8130  144.5220 C   0  0  0  0  0  3  0  0  0  0  0  0
  189.0080  177.3110  144.3410 C   0  0  2  0  0  3  0  0  0  0  0  0
  188.7210  176.1930  143.5560 O   0  0  0  0  0  1  0  0  0  0  0  0
  190.1770  177.0130  145.2730 C   0  0  0  0  0  2  0  0  0  0  0  0
  191.8240  177.2490  143.4950 N   0  0  0  0  0  1  0  0  0  0  0  0
  191.4390  177.7250  144.8130 C   0  0  0  0  0  2  0  0  0  0  0  0
  181.1800  178.2430  139.4240 C   0  0  2  0  0  3  0  0  0  0  0  0
  182.4180  176.5590  138.1420 O   0  0  0  0  0  0  0  0  0  0  0  0
  180.2530  175.9360  138.9260 C   0  0  0  0  0  2  0  0  0  0  0  0
  180.7750  174.8250  138.0830 C   0  0  0  0  0  2  0  0  0  0  0  0
  181.9670  175.4530  137.3950 C   0  0  2  0  0  3  0  0  0  0  0  0
  181.4920  176.7540  139.1860 C   0  0  2  0  0  3  0  0  0  0  0  0
  183.0410  174.4780  137.2660 N   0  0  0  0  0  2  0  0  0  0  0  0
  182.6540  173.5220  136.2380 C   0  0  0  0  0  2  0  0  0  0  0  0
  181.8330  171.3510  136.7770 O   0  0  0  0  0  0  0  0  0  0  0  0
  182.8210  172.1300  136.7430 C   0  0  0  0  0  0  0  0  0  0  0  0
  184.0710  171.6900  137.1730 O   0  0  0  0  0  1  0  0  0  0  0  0
  181.0910  179.3210  137.1010 C   0  0  0  0  0  1  0  0  0  0  0  0
  181.7980  179.2590  138.4460 C   0  0  1  0  0  3  0  0  0  0  0  0
  181.8480  180.5310  139.0200 O   0  0  0  0  0  1  0  0  0  0  0  0
  183.8100  178.0590  140.7480 C   0  0  0  0  0  2  0  0  0  0  0  0
  184.7190  179.2240  140.3830 C   0  0  0  0  0  2  0  0  0  0  0  0
  185.9300  178.6280  137.8720 O   0  0  0  0  0  0  0  0  0  0  0  0
  186.6450  178.5070  138.9040 C   0  0  0  0  0  0  0  0  0  0  0  0
  188.0170  178.1330  138.7890 N   0  0  0  0  0  2  0  0  0  0  0  0
  186.0860  178.7510  140.2020 N   0  0  0  0  0  2  0  0  0  0  0  0
  188.6360  177.8520  137.4980 C   0  0  0  0  0  2  0  0  0  0  0  0
  189.6750  176.7370  137.6160 C   0  0  1  0  0  0  0  0  0  0  0  0
  190.8270  177.0880  136.9140 O   0  0  0  0  0  1  0  0  0  0  0  0
  190.0280  176.4870  139.0730 C   0  0  0  0  0  1  0  0  0  0  0  0
  189.8150  173.8690  137.5080 O   0  0  0  0  0  1  0  0  0  0  0  0
  187.3450  175.0820  137.2940 O   0  0  0  0  0  1  0  0  0  0  0  0
  188.9850  175.2110  136.8980 P   0  0  0  0  0  0  0  0  0  0  0  0
  189.1380  175.2470  135.3940 O   0  0  0  0  0  0  0  0  0  0  0  0
  1  8  1  0  0  0  0
  1  6  1  0  0  0  0
  2  5  1  0  0  0  0
  2  4  2  0  0  0  0
  3  6  2  0  0  0  0
  4  3  1  0  0  0  0
  5  1  2  0  0  0  0
  7 11  1  0  0  0  0
  8  7  2  0  0  0  0
 10  9  1  0  0  0  0
 11 10  2  0  0  0  0
 12 13  1  0  0  0  0
 13  9  2  0  0  0  0
 14 12  2  0  0  0  0
 14 11  1  0  0  0  0
 15 16  1  1  0  0  0
 15 12  1  0  0  0  0
 15 17  1  0  0  0  0
 18 19  1  0  0  0  0
 19 17  1  0  0  0  0
 20 32  1  6  0  0  0
 20  2  1  0  0  0  0
 21 25  1  0  0  0  0
 22 25  1  0  0  0  0
 23 22  1  0  0  0  0
 24 26  1  1  0  0  0
 24 23  1  0  0  0  0
 24 21  1  0  0  0  0
 25 20  1  6  0  0  0
 27 29  1  0  0  0  0
 27 26  1  0  0  0  0
 29 28  2  0  0  0  0
 29 30  1  0  0  0  0
 32 31  1  6  0  0  0
 32 33  1  0  0  0  0
 34  5  1  0  0  0  0
 35 34  1  0  0  0  0
 36 37  2  0  0  0  0
 37 39  1  0  0  0  0
 38 37  1  0  0  0  0
 39 35  1  0  0  0  0
 40 41  1  0  0  0  0
 40 38  1  0  0  0  0
 41 43  1  1  0  0  0
 42 41  1  0  0  0  0
 46 45  1  0  0  0  0
 46 44  1  0  0  0  0
 46 41  1  0  0  0  0
 47 46  2  0  0  0  0
M  END
>  <MODEL>
8

>  <REMARK>
 VINA RESULT:      -7.2      2.301      4.499
  Name = 
  17 active torsions:
  status: ('A' for Active; 'I' for Inactive)
    1  A    between atoms: C_1  and  P_25
    2  A    between atoms: C_1  and  C_39
    3  A    between atoms: N_4  and  C_34
    4  A    between atoms: C_7  and  N_35
    5  A    between atoms: C_10  and  C_24
    6  A    between atoms: C_15  and  C_29
    7  A    between atoms: C_17  and  C_29
    8  A    between atoms: C_17  and  N_42
    9  A    between atoms: C_19  and  C_37
   10  A    between atoms: C_19  and  C_41
   11  A    between atoms: C_21  and  N_33
   12  A    between atoms: C_22  and  C_46
   13  A    between atoms: C_24  and  C_28
   14  A    between atoms: C_24  and  C_32
   15  A    between atoms: C_26  and  C_37
   16  A    between atoms: N_33  and  C_46
   17  A    between atoms: N_36  and  C_39
                            x       y       z     vdW  Elec       q    Type
                         _______ _______ _______ _____ _____    ______ ____

>  <TORSDO>
F 17

$$$$
=
 OpenBabel10222420243D

 47 49  0  0  1  0  0  0  0  0999 V2000
  186.8370  178.0470  136.8640 C   0  0  0  0  0  0  0  0  0  0  0  0
  188.8000  176.6880  136.3600 C   0  0  0  0  0  0  0  0  0  0  0  0
  187.6910  177.9380  134.5940 C   0  0  0  0  0  3  0  0  0  0  0  0
  188.7020  177.0750  135.0140 C   0  0  0  0  0  3  0  0  0  0  0  0
  187.8600  177.1750  137.2920 C   0  0  0  0  0  0  0  0  0  0  0  0
  186.7630  178.4230  135.5150 C   0  0  0  0  0  3  0  0  0  0  0  0
  184.9160  177.8220  138.2280 N   0  0  0  0  0  0  0  0  0  0  0  0
  185.8770  178.5420  137.8070 N   0  0  0  0  0  0  0  0  0  0  0  0
  181.8830  179.4600  139.6890 C   0  0  0  0  0  3  0  0  0  0  0  0
  182.8000  178.9850  138.7490 C   0  0  0  0  0  3  0  0  0  0  0  0
  183.9630  178.3190  139.1710 C   0  0  0  0  0  0  0  0  0  0  0  0
  183.2770  178.6160  141.4850 C   0  0  0  0  0  0  0  0  0  0  0  0
  182.1190  179.2730  141.0550 C   0  0  0  0  0  3  0  0  0  0  0  0
  184.1940  178.1320  140.5400 C   0  0  0  0  0  3  0  0  0  0  0  0
  183.4940  178.4040  142.9490 C   0  0  2  0  0  3  0  0  0  0  0  0
  182.3090  178.6280  143.6520 O   0  0  0  0  0  1  0  0  0  0  0  0
  184.5930  179.3270  143.4620 C   0  0  0  0  0  2  0  0  0  0  0  0
  184.5040  179.0340  145.8780 N   0  0  0  0  0  1  0  0  0  0  0  0
  185.2790  178.7360  144.6850 C   0  0  0  0  0  2  0  0  0  0  0  0
  189.9020  175.7560  136.7910 C   0  0  2  0  0  3  0  0  0  0  0  0
  192.2620  176.0520  136.1990 O   0  0  0  0  0  0  0  0  0  0  0  0
  191.6770  176.3910  138.4860 C   0  0  0  0  0  2  0  0  0  0  0  0
  193.1570  176.5040  138.3680 C   0  0  0  0  0  2  0  0  0  0  0  0
  193.4290  175.9590  136.9840 C   0  0  2  0  0  3  0  0  0  0  0  0
  191.2290  176.4910  137.0500 C   0  0  2  0  0  3  0  0  0  0  0  0
  194.5050  176.7110  136.3520 N   0  0  0  0  0  2  0  0  0  0  0  0
  195.1610  175.8290  135.3960 C   0  0  0  0  0  2  0  0  0  0  0  0
  197.3790  176.3390  136.1010 O   0  0  0  0  0  0  0  0  0  0  0  0
  196.5140  175.4490  135.8940 C   0  0  0  0  0  0  0  0  0  0  0  0
  196.8180  174.1110  136.1320 O   0  0  0  0  0  1  0  0  0  0  0  0
  190.7990  173.3660  136.5660 C   0  0  0  0  0  1  0  0  0  0  0  0
  189.9600  174.4720  135.9440 C   0  0  1  0  0  3  0  0  0  0  0  0
  188.6740  174.0000  135.6710 O   0  0  0  0  0  1  0  0  0  0  0  0
  187.9460  176.7920  138.7420 C   0  0  0  0  0  2  0  0  0  0  0  0
  188.5660  177.9180  139.5560 C   0  0  0  0  0  2  0  0  0  0  0  0
  189.6680  176.3970  141.7000 O   0  0  0  0  0  0  0  0  0  0  0  0
  188.6760  177.1320  141.9600 C   0  0  0  0  0  0  0  0  0  0  0  0
  188.1750  177.2200  143.2920 N   0  0  0  0  0  2  0  0  0  0  0  0
  188.0480  177.8910  140.9180 N   0  0  0  0  0  2  0  0  0  0  0  0
  188.7600  176.4550  144.3900 C   0  0  0  0  0  2  0  0  0  0  0  0
  189.5730  177.3590  145.3180 C   0  0  1  0  0  0  0  0  0  0  0  0
  189.2940  178.6960  145.0370 O   0  0  0  0  0  1  0  0  0  0  0  0
  189.2430  177.0690  146.7730 C   0  0  0  0  0  1  0  0  0  0  0  0
  191.5430  175.6290  144.1400 O   0  0  0  0  0  0  0  0  0  0  0  0
  192.0230  178.3470  144.1820 O   0  0  0  0  0  1  0  0  0  0  0  0
  191.3460  177.0520  145.0350 P   0  0  0  0  0  0  0  0  0  0  0  0
  192.0510  176.9030  146.3650 O   0  0  0  0  0  1  0  0  0  0  0  0
  1  5  1  0  0  0  0
  1  8  1  0  0  0  0
  2 20  1  0  0  0  0
  2  5  2  0  0  0  0
  3  4  2  0  0  0  0
  3  6  1  0  0  0  0
  4  2  1  0  0  0  0
  5 34  1  0  0  0  0
  6  1  2  0  0  0  0
  7 11  1  0  0  0  0
  8  7  2  0  0  0  0
  9 13  1  0  0  0  0
 10 11  1  0  0  0  0
 10  9  2  0  0  0  0
 11 14  2  0  0  0  0
 12 15  1  0  0  0  0
 13 12  2  0  0  0  0
 14 12  1  0  0  0  0
 15 17  1  0  0  0  0
 15 16  1  1  0  0  0
 17 19  1  0  0  0  0
 19 18  1  0  0  0  0
 20 32  1  6  0  0  0
 21 24  1  0  0  0  0
 21 25  1  0  0  0  0
 23 22  1  0  0  0  0
 24 26  1  6  0  0  0
 24 23  1  0  0  0  0
 25 20  1  1  0  0  0
 25 22  1  0  0  0  0
 27 29  1  0  0  0  0
 27 26  1  0  0  0  0
 29 28  2  0  0  0  0
 29 30  1  0  0  0  0
 32 31  1  1  0  0  0
 33 32  1  0  0  0  0
 34 35  1  0  0  0  0
 35 39  1  0  0  0  0
 36 37  2  0  0  0  0
 37 38  1  0  0  0  0
 38 40  1  0  0  0  0
 39 37  1  0  0  0  0
 40 41  1  0  0  0  0
 41 43  1  1  0  0  0
 42 41  1  0  0  0  0
 44 46  2  0  0  0  0
 45 46  1  0  0  0  0
 46 41  1  0  0  0  0
 46 47  1  0  0  0  0
M  END
>  <MODEL>
9

>  <REMARK>
 VINA RESULT:      -7.0      3.426      9.795
  Name = 
  17 active torsions:
  status: ('A' for Active; 'I' for Inactive)
    1  A    between atoms: C_1  and  P_25
    2  A    between atoms: C_1  and  C_39
    3  A    between atoms: N_4  and  C_34
    4  A    between atoms: C_7  and  N_35
    5  A    between atoms: C_10  and  C_24
    6  A    between atoms: C_15  and  C_29
    7  A    between atoms: C_17  and  C_29
    8  A    between atoms: C_17  and  N_42
    9  A    between atoms: C_19  and  C_37
   10  A    between atoms: C_19  and  C_41
   11  A    between atoms: C_21  and  N_33
   12  A    between atoms: C_22  and  C_46
   13  A    between atoms: C_24  and  C_28
   14  A    between atoms: C_24  and  C_32
   15  A    between atoms: C_26  and  C_37
   16  A    between atoms: N_33  and  C_46
   17  A    between atoms: N_36  and  C_39
                            x       y       z     vdW  Elec       q    Type
                         _______ _______ _______ _____ _____    ______ ____

>  <TORSDO>
F 17

$$$$
