=
 OpenBabel10222418263D

 26 28  0  0  1  0  0  0  0  0999 V2000
  190.4320  177.6620  145.9750 O   0  0  0  0  0  0  0  0  0  0  0  0
  187.3700  177.2750  146.1330 C   0  0  1  0  0  3  0  0  0  0  0  0
  190.4060  176.8610  143.7110 C   0  0  0  0  0  2  0  0  0  0  0  0
  188.2870  177.2750  142.4820 C   0  0  0  0  0  3  0  0  0  0  0  0
  187.5750  177.2860  143.6120 C   0  0  0  0  0  3  0  0  0  0  0  0
  189.9440  175.7620  147.2520 F   0  0  0  0  0  0  0  0  0  0  0  0
  188.2360  177.6590  144.9200 C   0  0  2  0  0  3  0  0  0  0  0  0
  189.6280  176.9910  145.0370 C   0  0  2  0  0  3  0  0  0  0  0  0
  189.7490  177.6080  142.5450 C   0  0  2  0  0  3  0  0  0  0  0  0
  190.2200  177.1260  147.2660 C   0  0  0  0  0  0  0  0  0  0  0  0
  191.3830  177.3050  147.9940 F   0  0  0  0  0  0  0  0  0  0  0  0
  189.0980  177.8650  147.9400 C   0  0  0  0  0  0  0  0  0  0  0  0
  189.2920  178.4090  149.0590 O   0  0  0  0  0  0  0  0  0  0  0  0
  187.8080  177.9820  147.3320 N   0  0  0  0  0  2  0  0  0  0  0  0
  190.3030  176.6060  138.9440 C   0  0  0  0  0  0  0  0  0  0  0  0
  190.4330  177.3070  141.2500 C   0  0  0  0  0  0  0  0  0  0  0  0
  192.4170  177.1410  139.8830 C   0  0  0  0  0  0  0  0  0  0  0  0
  189.6690  176.8890  140.1570 C   0  0  0  0  0  3  0  0  0  0  0  0
  191.8220  177.4330  141.1120 C   0  0  0  0  0  3  0  0  0  0  0  0
  189.5350  176.1820  137.8250 N   0  0  0  0  0  1  0  0  0  0  0  0
  191.6520  176.7370  138.8340 N   0  0  0  0  0  0  0  0  0  0  0  0
  193.8260  177.2660  139.7300 N   0  0  0  0  0  1  0  0  0  0  0  0
  185.8900  177.5860  145.9070 C   0  0  0  0  0  2  0  0  0  0  0  0
  185.6340  179.0840  145.9300 C   0  0  0  0  0  2  0  0  0  0  0  0
  183.3370  179.1600  145.3230 O   0  0  0  0  0  1  0  0  0  0  0  0
  184.6200  179.4630  144.8680 C   0  0  0  0  0  2  0  0  0  0  0  0
  1 10  1  0  0  0  0
  2 23  1  6  0  0  0
  2 14  1  0  0  0  0
  4  9  1  0  0  0  0
  4  5  2  0  0  0  0
  6 10  1  0  0  0  0
  7  5  1  6  0  0  0
  7  8  1  0  0  0  0
  7  2  1  0  0  0  0
  8  3  1  6  0  0  0
  8  1  1  0  0  0  0
  9 16  1  6  0  0  0
  9  3  1  0  0  0  0
 10 12  1  0  0  0  0
 10 11  1  0  0  0  0
 12 13  2  0  0  0  0
 14 12  1  0  0  0  0
 15 18  1  0  0  0  0
 17 19  2  0  0  0  0
 18 16  2  0  0  0  0
 19 16  1  0  0  0  0
 20 15  1  0  0  0  0
 21 15  2  0  0  0  0
 21 17  1  0  0  0  0
 22 17  1  0  0  0  0
 23 24  1  0  0  0  0
 26 25  1  0  0  0  0
 26 24  1  0  0  0  0
M  END
>  <MODEL>
1

>  <REMARK>
 VINA RESULT:      -8.9      0.000      0.000
  Name = 
  4 active torsions:
  status: ('A' for Active; 'I' for Inactive)
    1  A    between atoms: C_3  and  C_17
    2  A    between atoms: C_3  and  C_26
    3  A    between atoms: C_5  and  C_16
    4  A    between atoms: C_6  and  C_17
                            x       y       z     vdW  Elec       q    Type
                         _______ _______ _______ _____ _____    ______ ____

>  <TORSDO>
F 4

$$$$
=
 OpenBabel10222418263D

 26 28  0  0  1  0  0  0  0  0999 V2000
  190.4330  177.6650  145.9560 O   0  0  0  0  0  0  0  0  0  0  0  0
  187.3750  177.2660  146.1480 C   0  0  1  0  0  3  0  0  0  0  0  0
  190.3860  176.8570  143.6950 C   0  0  0  0  0  2  0  0  0  0  0  0
  188.2530  177.2600  142.4870 C   0  0  0  0  0  3  0  0  0  0  0  0
  187.5530  177.2710  143.6250 C   0  0  0  0  0  3  0  0  0  0  0  0
  189.9660  175.7660  147.2440 F   0  0  0  0  0  0  0  0  0  0  0  0
  188.2260  177.6500  144.9250 C   0  0  2  0  0  3  0  0  0  0  0  0
  189.6220  176.9880  145.0290 C   0  0  2  0  0  3  0  0  0  0  0  0
  189.7140  177.5990  142.5340 C   0  0  2  0  0  3  0  0  0  0  0  0
  190.2370  177.1310  147.2510 C   0  0  0  0  0  0  0  0  0  0  0  0
  191.4070  177.3160  147.9660 F   0  0  0  0  0  0  0  0  0  0  0  0
  189.1190  177.8680  147.9350 C   0  0  0  0  0  0  0  0  0  0  0  0
  189.3230  178.4160  149.0500 O   0  0  0  0  0  0  0  0  0  0  0  0
  187.8220  177.9780  147.3400 N   0  0  0  0  0  2  0  0  0  0  0  0
  192.4030  177.1560  139.9170 C   0  0  0  0  0  0  0  0  0  0  0  0
  190.3850  177.2970  141.2320 C   0  0  0  0  0  0  0  0  0  0  0  0
  190.3210  176.6060  138.9190 C   0  0  0  0  0  0  0  0  0  0  0  0
  191.7710  177.4370  141.1310 C   0  0  0  0  0  3  0  0  0  0  0  0
  189.6510  176.8770  140.1140 C   0  0  0  0  0  3  0  0  0  0  0  0
  193.8140  177.2950  139.8030 N   0  0  0  0  0  1  0  0  0  0  0  0
  191.6720  176.7500  138.8460 N   0  0  0  0  0  0  0  0  0  0  0  0
  189.5880  176.1790  137.7760 N   0  0  0  0  0  1  0  0  0  0  0  0
  185.8920  177.5700  145.9370 C   0  0  0  0  0  2  0  0  0  0  0  0
  185.6270  179.0670  145.9760 C   0  0  0  0  0  2  0  0  0  0  0  0
  183.3540  179.2010  145.2930 O   0  0  0  0  0  1  0  0  0  0  0  0
  184.6590  179.4610  144.8770 C   0  0  0  0  0  2  0  0  0  0  0  0
  1 10  1  0  0  0  0
  2 23  1  6  0  0  0
  2 14  1  0  0  0  0
  4  9  1  0  0  0  0
  4  5  2  0  0  0  0
  6 10  1  0  0  0  0
  7  5  1  6  0  0  0
  7  8  1  0  0  0  0
  7  2  1  0  0  0  0
  8  3  1  6  0  0  0
  8  1  1  0  0  0  0
  9 16  1  6  0  0  0
  9  3  1  0  0  0  0
 10 12  1  0  0  0  0
 10 11  1  0  0  0  0
 12 13  2  0  0  0  0
 14 12  1  0  0  0  0
 15 18  1  0  0  0  0
 17 19  2  0  0  0  0
 18 16  2  0  0  0  0
 19 16  1  0  0  0  0
 20 15  1  0  0  0  0
 21 17  1  0  0  0  0
 21 15  2  0  0  0  0
 22 17  1  0  0  0  0
 23 24  1  0  0  0  0
 26 25  1  0  0  0  0
 26 24  1  0  0  0  0
M  END
>  <MODEL>
2

>  <REMARK>
 VINA RESULT:      -8.9      0.040      1.634
  Name = 
  4 active torsions:
  status: ('A' for Active; 'I' for Inactive)
    1  A    between atoms: C_3  and  C_17
    2  A    between atoms: C_3  and  C_26
    3  A    between atoms: C_5  and  C_16
    4  A    between atoms: C_6  and  C_17
                            x       y       z     vdW  Elec       q    Type
                         _______ _______ _______ _____ _____    ______ ____

>  <TORSDO>
F 4

$$$$
=
 OpenBabel10222418263D

 26 28  0  0  1  0  0  0  0  0999 V2000
  188.7450  178.1540  142.6100 O   0  0  0  0  0  0  0  0  0  0  0  0
  189.1050  177.0630  145.4790 C   0  0  1  0  0  3  0  0  0  0  0  0
  186.3780  177.7810  142.7760 C   0  0  0  0  0  2  0  0  0  0  0  0
  185.4600  177.9170  145.0800 C   0  0  0  0  0  3  0  0  0  0  0  0
  186.6310  177.5670  145.6210 C   0  0  0  0  0  3  0  0  0  0  0  0
  189.6520  175.9970  142.5240 F   0  0  0  0  0  0  0  0  0  0  0  0
  187.9200  177.8410  144.8810 C   0  0  2  0  0  3  0  0  0  0  0  0
  187.7700  177.4950  143.3790 C   0  0  2  0  0  3  0  0  0  0  0  0
  185.4530  178.5540  143.7220 C   0  0  2  0  0  3  0  0  0  0  0  0
  189.9150  177.3640  142.5330 C   0  0  0  0  0  0  0  0  0  0  0  0
  190.5540  177.6690  141.3430 F   0  0  0  0  0  0  0  0  0  0  0  0
  190.8260  177.6990  143.6810 C   0  0  0  0  0  0  0  0  0  0  0  0
  192.0090  178.0670  143.4530 O   0  0  0  0  0  0  0  0  0  0  0  0
  190.3760  177.6270  145.0370 N   0  0  0  0  0  2  0  0  0  0  0  0
  182.5860  178.7340  141.2690 C   0  0  0  0  0  0  0  0  0  0  0  0
  184.0660  178.6490  143.1720 C   0  0  0  0  0  0  0  0  0  0  0  0
  181.6750  178.8290  143.4590 C   0  0  0  0  0  0  0  0  0  0  0  0
  183.8800  178.6460  141.7880 C   0  0  0  0  0  3  0  0  0  0  0  0
  182.9510  178.7420  144.0180 C   0  0  0  0  0  3  0  0  0  0  0  0
  182.3850  178.7300  139.8610 N   0  0  0  0  0  1  0  0  0  0  0  0
  181.5200  178.8230  142.1070 N   0  0  0  0  0  0  0  0  0  0  0  0
  180.5350  178.9240  144.3050 N   0  0  0  0  0  1  0  0  0  0  0  0
  189.0850  177.0670  147.0070 C   0  0  0  0  0  2  0  0  0  0  0  0
  190.4780  177.2930  147.5740 C   0  0  0  0  0  2  0  0  0  0  0  0
  192.5610  176.2430  148.0290 O   0  0  0  0  0  1  0  0  0  0  0  0
  191.3000  176.0230  147.4770 C   0  0  0  0  0  2  0  0  0  0  0  0
  1  8  1  0  0  0  0
  2 23  1  1  0  0  0
  3  9  1  0  0  0  0
  4  5  2  0  0  0  0
  6 10  1  0  0  0  0
  7  2  1  0  0  0  0
  7  5  1  1  0  0  0
  8  3  1  6  0  0  0
  8  7  1  0  0  0  0
  9 16  1  6  0  0  0
  9  4  1  0  0  0  0
 10  1  1  0  0  0  0
 10 12  1  0  0  0  0
 11 10  1  0  0  0  0
 12 14  1  0  0  0  0
 13 12  2  0  0  0  0
 14  2  1  0  0  0  0
 15 18  2  0  0  0  0
 15 21  1  0  0  0  0
 16 19  2  0  0  0  0
 17 19  1  0  0  0  0
 17 22  1  0  0  0  0
 18 16  1  0  0  0  0
 20 15  1  0  0  0  0
 21 17  2  0  0  0  0
 23 24  1  0  0  0  0
 26 24  1  0  0  0  0
 26 25  1  0  0  0  0
M  END
>  <MODEL>
3

>  <REMARK>
 VINA RESULT:      -8.8      3.719      6.808
  Name = 
  4 active torsions:
  status: ('A' for Active; 'I' for Inactive)
    1  A    between atoms: C_3  and  C_17
    2  A    between atoms: C_3  and  C_26
    3  A    between atoms: C_5  and  C_16
    4  A    between atoms: C_6  and  C_17
                            x       y       z     vdW  Elec       q    Type
                         _______ _______ _______ _____ _____    ______ ____

>  <TORSDO>
F 4

$$$$
=
 OpenBabel10222418263D

 26 28  0  0  1  0  0  0  0  0999 V2000
  188.7220  178.1830  142.6140 O   0  0  0  0  0  0  0  0  0  0  0  0
  189.0580  177.1250  145.4980 C   0  0  1  0  0  3  0  0  0  0  0  0
  186.3570  177.7960  142.7580 C   0  0  0  0  0  2  0  0  0  0  0  0
  185.4130  177.9490  145.0500 C   0  0  0  0  0  3  0  0  0  0  0  0
  186.5790  177.6120  145.6080 C   0  0  0  0  0  3  0  0  0  0  0  0
  189.6450  176.0320  142.5600 F   0  0  0  0  0  0  0  0  0  0  0  0
  187.8750  177.8880  144.8780 C   0  0  2  0  0  3  0  0  0  0  0  0
  187.7440  177.5260  143.3790 C   0  0  2  0  0  3  0  0  0  0  0  0
  185.4160  178.5720  143.6860 C   0  0  2  0  0  3  0  0  0  0  0  0
  189.8990  177.4010  142.5570 C   0  0  0  0  0  0  0  0  0  0  0  0
  190.5480  177.6980  141.3720 F   0  0  0  0  0  0  0  0  0  0  0  0
  190.7940  177.7540  143.7120 C   0  0  0  0  0  0  0  0  0  0  0  0
  191.9780  178.1280  143.4930 O   0  0  0  0  0  0  0  0  0  0  0  0
  190.3310  177.6930  145.0640 N   0  0  0  0  0  2  0  0  0  0  0  0
  181.6530  178.8310  143.4650 C   0  0  0  0  0  0  0  0  0  0  0  0
  184.0350  178.6520  143.1200 C   0  0  0  0  0  0  0  0  0  0  0  0
  182.5030  178.6990  141.2520 C   0  0  0  0  0  0  0  0  0  0  0  0
  182.9470  178.7560  143.9890 C   0  0  0  0  0  3  0  0  0  0  0  0
  183.8110  178.6220  141.7360 C   0  0  0  0  0  3  0  0  0  0  0  0
  180.5390  178.9380  144.3410 N   0  0  0  0  0  1  0  0  0  0  0  0
  181.4600  178.8000  142.1200 N   0  0  0  0  0  0  0  0  0  0  0  0
  182.2620  178.6700  139.8510 N   0  0  0  0  0  1  0  0  0  0  0  0
  189.0220  177.1440  147.0260 C   0  0  0  0  0  2  0  0  0  0  0  0
  190.4110  177.3570  147.6060 C   0  0  0  0  0  2  0  0  0  0  0  0
  192.4850  176.2890  148.0630 O   0  0  0  0  0  1  0  0  0  0  0  0
  191.2400  176.0950  147.4670 C   0  0  0  0  0  2  0  0  0  0  0  0
  1  8  1  0  0  0  0
  2 23  1  1  0  0  0
  3  9  1  0  0  0  0
  4  5  2  0  0  0  0
  7  2  1  0  0  0  0
  7  5  1  1  0  0  0
  8  3  1  6  0  0  0
  8  7  1  0  0  0  0
  9 16  1  6  0  0  0
  9  4  1  0  0  0  0
 10  6  1  0  0  0  0
 10  1  1  0  0  0  0
 10 12  1  0  0  0  0
 11 10  1  0  0  0  0
 12 14  1  0  0  0  0
 13 12  2  0  0  0  0
 14  2  1  0  0  0  0
 15 18  1  0  0  0  0
 15 20  1  0  0  0  0
 16 18  2  0  0  0  0
 17 19  2  0  0  0  0
 17 21  1  0  0  0  0
 19 16  1  0  0  0  0
 21 15  2  0  0  0  0
 22 17  1  0  0  0  0
 23 24  1  0  0  0  0
 26 24  1  0  0  0  0
 26 25  1  0  0  0  0
M  END
>  <MODEL>
4

>  <REMARK>
 VINA RESULT:      -8.7      3.728      6.820
  Name = 
  4 active torsions:
  status: ('A' for Active; 'I' for Inactive)
    1  A    between atoms: C_3  and  C_17
    2  A    between atoms: C_3  and  C_26
    3  A    between atoms: C_5  and  C_16
    4  A    between atoms: C_6  and  C_17
                            x       y       z     vdW  Elec       q    Type
                         _______ _______ _______ _____ _____    ______ ____

>  <TORSDO>
F 4

$$$$
=
 OpenBabel10222418263D

 26 28  0  0  1  0  0  0  0  0999 V2000
  187.3520  178.1540  142.6230 O   0  0  0  0  0  0  0  0  0  0  0  0
  187.7650  177.6720  145.6480 C   0  0  1  0  0  3  0  0  0  0  0  0
  184.9840  177.8760  142.9130 C   0  0  0  0  0  2  0  0  0  0  0  0
  184.1280  178.5060  145.1580 C   0  0  0  0  0  3  0  0  0  0  0  0
  185.3050  178.2490  145.7350 C   0  0  0  0  0  3  0  0  0  0  0  0
  188.2190  176.0070  142.9670 F   0  0  0  0  0  0  0  0  0  0  0  0
  186.5800  178.3360  144.9270 C   0  0  2  0  0  3  0  0  0  0  0  0
  186.3860  177.6910  143.5330 C   0  0  2  0  0  3  0  0  0  0  0  0
  184.0980  178.8490  143.6980 C   0  0  2  0  0  3  0  0  0  0  0  0
  188.5060  177.3390  142.6870 C   0  0  0  0  0  0  0  0  0  0  0  0
  189.1200  177.3780  141.4470 F   0  0  0  0  0  0  0  0  0  0  0  0
  189.4510  177.8840  143.7210 C   0  0  0  0  0  0  0  0  0  0  0  0
  190.6350  178.1700  143.3970 O   0  0  0  0  0  0  0  0  0  0  0  0
  189.0350  178.1040  145.0720 N   0  0  0  0  0  2  0  0  0  0  0  0
  181.1850  179.0050  141.2960 C   0  0  0  0  0  0  0  0  0  0  0  0
  182.6990  178.8590  143.1690 C   0  0  0  0  0  0  0  0  0  0  0  0
  180.3070  178.7510  143.4870 C   0  0  0  0  0  0  0  0  0  0  0  0
  182.4910  178.9950  141.7950 C   0  0  0  0  0  3  0  0  0  0  0  0
  181.5950  178.7370  144.0250 C   0  0  0  0  0  3  0  0  0  0  0  0
  180.9620  179.1420  139.8980 N   0  0  0  0  0  1  0  0  0  0  0  0
  180.1300  178.8840  142.1450 N   0  0  0  0  0  0  0  0  0  0  0  0
  179.1780  178.6280  144.3440 N   0  0  0  0  0  1  0  0  0  0  0  0
  187.7840  177.9920  147.1420 C   0  0  0  0  0  2  0  0  0  0  0  0
  189.1920  177.8880  147.7090 C   0  0  0  0  0  2  0  0  0  0  0  0
  190.9850  176.3770  147.3190 O   0  0  0  0  0  1  0  0  0  0  0  0
  189.6510  176.4430  147.7190 C   0  0  0  0  0  2  0  0  0  0  0  0
  1 10  1  0  0  0  0
  1  8  1  0  0  0  0
  2 23  1  1  0  0  0
  3  9  1  0  0  0  0
  4  5  2  0  0  0  0
  7  2  1  0  0  0  0
  7  5  1  1  0  0  0
  8  3  1  6  0  0  0
  8  7  1  0  0  0  0
  9 16  1  6  0  0  0
  9  4  1  0  0  0  0
 10  6  1  0  0  0  0
 10 12  1  0  0  0  0
 11 10  1  0  0  0  0
 12 14  1  0  0  0  0
 13 12  2  0  0  0  0
 14  2  1  0  0  0  0
 15 18  2  0  0  0  0
 15 21  1  0  0  0  0
 16 19  2  0  0  0  0
 17 19  1  0  0  0  0
 17 22  1  0  0  0  0
 18 16  1  0  0  0  0
 20 15  1  0  0  0  0
 21 17  2  0  0  0  0
 23 24  1  0  0  0  0
 24 26  1  0  0  0  0
 25 26  1  0  0  0  0
M  END
>  <MODEL>
5

>  <REMARK>
 VINA RESULT:      -8.5      4.161      7.328
  Name = 
  4 active torsions:
  status: ('A' for Active; 'I' for Inactive)
    1  A    between atoms: C_3  and  C_17
    2  A    between atoms: C_3  and  C_26
    3  A    between atoms: C_5  and  C_16
    4  A    between atoms: C_6  and  C_17
                            x       y       z     vdW  Elec       q    Type
                         _______ _______ _______ _____ _____    ______ ____

>  <TORSDO>
F 4

$$$$
=
 OpenBabel10222418263D

 26 28  0  0  1  0  0  0  0  0999 V2000
  185.5050  179.0430  142.3590 O   0  0  0  0  0  0  0  0  0  0  0  0
  186.9760  177.9260  139.8810 C   0  0  1  0  0  3  0  0  0  0  0  0
  186.9860  177.8010  143.7850 C   0  0  0  0  0  2  0  0  0  0  0  0
  189.2440  177.3890  142.8360 C   0  0  0  0  0  3  0  0  0  0  0  0
  188.7860  177.4560  141.5830 C   0  0  0  0  0  3  0  0  0  0  0  0
  184.1900  177.3960  141.3390 F   0  0  0  0  0  0  0  0  0  0  0  0
  187.5390  178.2540  141.2750 C   0  0  2  0  0  3  0  0  0  0  0  0
  186.4530  178.0050  142.3500 C   0  0  2  0  0  3  0  0  0  0  0  0
  188.4840  178.0910  143.9230 C   0  0  2  0  0  3  0  0  0  0  0  0
  184.4660  178.7560  141.4430 C   0  0  0  0  0  0  0  0  0  0  0  0
  183.3160  179.3770  141.8990 F   0  0  0  0  0  0  0  0  0  0  0  0
  184.8210  179.3090  140.0900 C   0  0  0  0  0  0  0  0  0  0  0  0
  184.0350  180.1090  139.5170 O   0  0  0  0  0  0  0  0  0  0  0  0
  186.0450  178.9590  139.4380 N   0  0  0  0  0  2  0  0  0  0  0  0
  190.7510  176.8080  146.6600 C   0  0  0  0  0  0  0  0  0  0  0  0
  188.9910  177.7070  145.2770 C   0  0  0  0  0  0  0  0  0  0  0  0
  188.7180  177.5060  147.6680 C   0  0  0  0  0  0  0  0  0  0  0  0
  190.2730  177.1680  145.3970 C   0  0  0  0  0  3  0  0  0  0  0  0
  188.2040  177.8780  146.4250 C   0  0  0  0  0  3  0  0  0  0  0  0
  192.0560  176.2580  146.7940 N   0  0  0  0  0  1  0  0  0  0  0  0
  189.9710  176.9820  147.7590 N   0  0  0  0  0  0  0  0  0  0  0  0
  187.9310  177.6730  148.8410 N   0  0  0  0  0  1  0  0  0  0  0  0
  188.0780  177.7930  138.8300 C   0  0  0  0  0  2  0  0  0  0  0  0
  187.4920  177.6290  137.4370 C   0  0  0  0  0  2  0  0  0  0  0  0
  188.7820  179.6140  137.2190 O   0  0  0  0  0  1  0  0  0  0  0  0
  188.0930  178.6480  136.4880 C   0  0  0  0  0  2  0  0  0  0  0  0
  2 23  1  6  0  0  0
  2  7  1  0  0  0  0
  3  9  1  0  0  0  0
  4  9  1  0  0  0  0
  5  4  2  0  0  0  0
  6 10  1  0  0  0  0
  7  5  1  1  0  0  0
  7  8  1  0  0  0  0
  8  1  1  0  0  0  0
  8  3  1  1  0  0  0
  9 16  1  1  0  0  0
 10 11  1  0  0  0  0
 10  1  1  0  0  0  0
 12 10  1  0  0  0  0
 13 12  2  0  0  0  0
 14  2  1  0  0  0  0
 14 12  1  0  0  0  0
 15 20  1  0  0  0  0
 15 21  1  0  0  0  0
 16 18  1  0  0  0  0
 16 19  2  0  0  0  0
 17 21  2  0  0  0  0
 17 22  1  0  0  0  0
 18 15  2  0  0  0  0
 19 17  1  0  0  0  0
 24 23  1  0  0  0  0
 26 25  1  0  0  0  0
 26 24  1  0  0  0  0
M  END
>  <MODEL>
6

>  <REMARK>
 VINA RESULT:      -8.3      4.225      7.524
  Name = 
  4 active torsions:
  status: ('A' for Active; 'I' for Inactive)
    1  A    between atoms: C_3  and  C_17
    2  A    between atoms: C_3  and  C_26
    3  A    between atoms: C_5  and  C_16
    4  A    between atoms: C_6  and  C_17
                            x       y       z     vdW  Elec       q    Type
                         _______ _______ _______ _____ _____    ______ ____

>  <TORSDO>
F 4

$$$$
=
 OpenBabel10222418263D

 26 28  0  0  1  0  0  0  0  0999 V2000
  190.7800  175.6110  139.2330 O   0  0  0  0  0  0  0  0  0  0  0  0
  189.4460  177.9700  137.7480 C   0  0  1  0  0  3  0  0  0  0  0  0
  190.4880  176.7700  141.3160 C   0  0  0  0  0  2  0  0  0  0  0  0
  188.5440  178.3140  141.3870 C   0  0  0  0  0  3  0  0  0  0  0  0
  188.5790  178.5000  140.0640 C   0  0  0  0  0  3  0  0  0  0  0  0
  192.4130  176.8620  138.1140 F   0  0  0  0  0  0  0  0  0  0  0  0
  189.1700  177.4380  139.1650 C   0  0  2  0  0  3  0  0  0  0  0  0
  190.4750  176.8710  139.7760 C   0  0  2  0  0  3  0  0  0  0  0  0
  189.1240  177.0530  141.9550 C   0  0  2  0  0  3  0  0  0  0  0  0
  191.5590  175.7650  138.0620 C   0  0  0  0  0  0  0  0  0  0  0  0
  192.3460  174.6340  137.9270 F   0  0  0  0  0  0  0  0  0  0  0  0
  190.6530  175.8810  136.8680 C   0  0  0  0  0  0  0  0  0  0  0  0
  190.7870  175.0830  135.9020 O   0  0  0  0  0  0  0  0  0  0  0  0
  189.6240  176.8720  136.8030 N   0  0  0  0  0  2  0  0  0  0  0  0
  188.1540  177.3940  145.5910 C   0  0  0  0  0  0  0  0  0  0  0  0
  189.2250  177.1230  143.4450 C   0  0  0  0  0  0  0  0  0  0  0  0
  190.5030  177.0600  145.4940 C   0  0  0  0  0  0  0  0  0  0  0  0
  188.0660  177.3280  144.1970 C   0  0  0  0  0  3  0  0  0  0  0  0
  190.4570  176.9880  144.1000 C   0  0  0  0  0  3  0  0  0  0  0  0
  186.9810  177.6020  146.3660 N   0  0  0  0  0  1  0  0  0  0  0  0
  189.3600  177.2610  146.2040 N   0  0  0  0  0  0  0  0  0  0  0  0
  191.7470  176.9250  146.1710 N   0  0  0  0  0  1  0  0  0  0  0  0
  188.3150  178.8630  137.2370 C   0  0  0  0  0  2  0  0  0  0  0  0
  187.3370  178.0740  136.3810 C   0  0  0  0  0  2  0  0  0  0  0  0
  185.8170  178.7670  138.0720 O   0  0  0  0  0  1  0  0  0  0  0  0
  186.0930  177.7330  137.1780 C   0  0  0  0  0  2  0  0  0  0  0  0
  1  8  1  0  0  0  0
  2 23  1  6  0  0  0
  2  7  1  0  0  0  0
  3  9  1  0  0  0  0
  4  9  1  0  0  0  0
  5  4  2  0  0  0  0
  7  8  1  0  0  0  0
  7  5  1  1  0  0  0
  8  3  1  1  0  0  0
  9 16  1  1  0  0  0
 10  6  1  0  0  0  0
 10  1  1  0  0  0  0
 11 10  1  0  0  0  0
 12 10  1  0  0  0  0
 13 12  2  0  0  0  0
 14 12  1  0  0  0  0
 14  2  1  0  0  0  0
 15 21  1  0  0  0  0
 15 20  1  0  0  0  0
 16 19  2  0  0  0  0
 16 18  1  0  0  0  0
 17 22  1  0  0  0  0
 17 21  2  0  0  0  0
 18 15  2  0  0  0  0
 19 17  1  0  0  0  0
 24 26  1  0  0  0  0
 24 23  1  0  0  0  0
 26 25  1  0  0  0  0
M  END
>  <MODEL>
7

>  <REMARK>
 VINA RESULT:      -8.2      4.404      7.696
  Name = 
  4 active torsions:
  status: ('A' for Active; 'I' for Inactive)
    1  A    between atoms: C_3  and  C_17
    2  A    between atoms: C_3  and  C_26
    3  A    between atoms: C_5  and  C_16
    4  A    between atoms: C_6  and  C_17
                            x       y       z     vdW  Elec       q    Type
                         _______ _______ _______ _____ _____    ______ ____

>  <TORSDO>
F 4

$$$$
=
 OpenBabel10222418263D

 26 28  0  0  1  0  0  0  0  0999 V2000
  188.7990  177.3480  140.5160 O   0  0  0  0  0  0  0  0  0  0  0  0
  186.0720  178.7960  140.3910 C   0  0  1  0  0  3  0  0  0  0  0  0
  188.9620  177.8780  142.8530 C   0  0  0  0  0  2  0  0  0  0  0  0
  186.7840  178.1110  144.0240 C   0  0  0  0  0  3  0  0  0  0  0  0
  186.1590  178.4630  142.8970 C   0  0  0  0  0  3  0  0  0  0  0  0
  189.0550  179.4150  139.4480 F   0  0  0  0  0  0  0  0  0  0  0  0
  186.7010  178.0150  141.5580 C   0  0  2  0  0  3  0  0  0  0  0  0
  188.2420  178.1610  141.5180 C   0  0  2  0  0  3  0  0  0  0  0  0
  188.0400  177.2960  143.9290 C   0  0  2  0  0  3  0  0  0  0  0  0
  188.8390  178.0500  139.2890 C   0  0  0  0  0  0  0  0  0  0  0  0
  189.8960  177.5490  138.5490 F   0  0  0  0  0  0  0  0  0  0  0  0
  187.5580  177.8210  138.5360 C   0  0  0  0  0  0  0  0  0  0  0  0
  187.5950  177.3570  137.3660 O   0  0  0  0  0  0  0  0  0  0  0  0
  186.2850  178.1030  139.1240 N   0  0  0  0  0  2  0  0  0  0  0  0
  188.6640  177.4260  147.6540 C   0  0  0  0  0  0  0  0  0  0  0  0
  188.7340  177.2080  145.2520 C   0  0  0  0  0  0  0  0  0  0  0  0
  190.6880  176.7670  146.6010 C   0  0  0  0  0  0  0  0  0  0  0  0
  188.0210  177.5060  146.4150 C   0  0  0  0  0  3  0  0  0  0  0  0
  190.0820  176.8360  145.3450 C   0  0  0  0  0  3  0  0  0  0  0  0
  187.9480  177.7250  148.8450 N   0  0  0  0  0  1  0  0  0  0  0  0
  189.9720  177.0620  147.7200 N   0  0  0  0  0  0  0  0  0  0  0  0
  192.0550  176.3910  146.7090 N   0  0  0  0  0  1  0  0  0  0  0  0
  184.5690  179.0020  140.5780 C   0  0  0  0  0  2  0  0  0  0  0  0
  183.7760  178.2580  139.5140 C   0  0  0  0  0  2  0  0  0  0  0  0
  183.3410  180.5320  138.9750 O   0  0  0  0  0  1  0  0  0  0  0  0
  182.9260  179.2270  138.7160 C   0  0  0  0  0  2  0  0  0  0  0  0
  1  8  1  0  0  0  0
  2 23  1  1  0  0  0
  2  7  1  0  0  0  0
  3  9  1  0  0  0  0
  5  4  2  0  0  0  0
  7  5  1  1  0  0  0
  8  7  1  0  0  0  0
  8  3  1  1  0  0  0
  9  4  1  0  0  0  0
  9 16  1  1  0  0  0
 10  6  1  0  0  0  0
 10  1  1  0  0  0  0
 11 10  1  0  0  0  0
 12 14  1  0  0  0  0
 12 10  1  0  0  0  0
 13 12  2  0  0  0  0
 14  2  1  0  0  0  0
 15 21  1  0  0  0  0
 15 20  1  0  0  0  0
 16 19  2  0  0  0  0
 16 18  1  0  0  0  0
 17 22  1  0  0  0  0
 17 21  2  0  0  0  0
 18 15  2  0  0  0  0
 19 17  1  0  0  0  0
 24 23  1  0  0  0  0
 26 25  1  0  0  0  0
 26 24  1  0  0  0  0
M  END
>  <MODEL>
8

>  <REMARK>
 VINA RESULT:      -8.1      4.308      7.023
  Name = 
  4 active torsions:
  status: ('A' for Active; 'I' for Inactive)
    1  A    between atoms: C_3  and  C_17
    2  A    between atoms: C_3  and  C_26
    3  A    between atoms: C_5  and  C_16
    4  A    between atoms: C_6  and  C_17
                            x       y       z     vdW  Elec       q    Type
                         _______ _______ _______ _____ _____    ______ ____

>  <TORSDO>
F 4

$$$$
=
 OpenBabel10222418263D

 26 28  0  0  1  0  0  0  0  0999 V2000
  187.2530  178.3720  144.7800 O   0  0  0  0  0  0  0  0  0  0  0  0
  184.2350  178.8100  144.2740 C   0  0  1  0  0  3  0  0  0  0  0  0
  187.5240  177.6810  142.4960 C   0  0  0  0  0  2  0  0  0  0  0  0
  185.9050  178.6850  140.9030 C   0  0  0  0  0  3  0  0  0  0  0  0
  184.9870  178.8480  141.8600 C   0  0  0  0  0  3  0  0  0  0  0  0
  186.0300  176.6300  145.7560 F   0  0  0  0  0  0  0  0  0  0  0  0
  185.4160  178.9880  143.3040 C   0  0  2  0  0  3  0  0  0  0  0  0
  186.5320  177.9700  143.6420 C   0  0  2  0  0  3  0  0  0  0  0  0
  187.3520  178.6130  141.2920 C   0  0  2  0  0  3  0  0  0  0  0  0
  186.6330  177.8700  145.9470 C   0  0  0  0  0  0  0  0  0  0  0  0
  187.6130  177.7080  146.9110 F   0  0  0  0  0  0  0  0  0  0  0  0
  185.6140  178.8590  146.4410 C   0  0  0  0  0  0  0  0  0  0  0  0
  185.6880  179.2960  147.6210 O   0  0  0  0  0  0  0  0  0  0  0  0
  184.5620  179.3350  145.5960 N   0  0  0  0  0  2  0  0  0  0  0  0
  190.3180  177.3630  139.3130 C   0  0  0  0  0  0  0  0  0  0  0  0
  188.2050  178.1830  140.1420 C   0  0  0  0  0  0  0  0  0  0  0  0
  188.5480  177.7800  137.7850 C   0  0  0  0  0  0  0  0  0  0  0  0
  189.5160  177.7670  140.3840 C   0  0  0  0  0  3  0  0  0  0  0  0
  187.7150  178.1910  138.8280 C   0  0  0  0  0  3  0  0  0  0  0  0
  191.6530  176.9370  139.5480 N   0  0  0  0  0  1  0  0  0  0  0  0
  189.8220  177.3790  138.0470 N   0  0  0  0  0  0  0  0  0  0  0  0
  188.0640  177.7830  136.4480 N   0  0  0  0  0  1  0  0  0  0  0  0
  182.9700  179.5110  143.7800 C   0  0  0  0  0  2  0  0  0  0  0  0
  181.7440  178.6330  143.9720 C   0  0  0  0  0  2  0  0  0  0  0  0
  180.4780  180.2990  142.8440 O   0  0  0  0  0  1  0  0  0  0  0  0
  180.7120  178.9260  142.9010 C   0  0  0  0  0  2  0  0  0  0  0  0
  1 10  1  0  0  0  0
  2 23  1  6  0  0  0
  2 14  1  0  0  0  0
  4  9  1  0  0  0  0
  4  5  2  0  0  0  0
  6 10  1  0  0  0  0
  7  5  1  6  0  0  0
  7  8  1  0  0  0  0
  7  2  1  0  0  0  0
  8  3  1  6  0  0  0
  8  1  1  0  0  0  0
  9 16  1  6  0  0  0
  9  3  1  0  0  0  0
 10 12  1  0  0  0  0
 10 11  1  0  0  0  0
 12 13  2  0  0  0  0
 14 12  1  0  0  0  0
 15 20  1  0  0  0  0
 15 18  1  0  0  0  0
 16 18  2  0  0  0  0
 17 21  1  0  0  0  0
 17 19  2  0  0  0  0
 19 16  1  0  0  0  0
 21 15  2  0  0  0  0
 22 17  1  0  0  0  0
 23 24  1  0  0  0  0
 25 26  1  0  0  0  0
 26 24  1  0  0  0  0
M  END
>  <MODEL>
9

>  <REMARK>
 VINA RESULT:      -8.1      2.580      3.761
  Name = 
  4 active torsions:
  status: ('A' for Active; 'I' for Inactive)
    1  A    between atoms: C_3  and  C_17
    2  A    between atoms: C_3  and  C_26
    3  A    between atoms: C_5  and  C_16
    4  A    between atoms: C_6  and  C_17
                            x       y       z     vdW  Elec       q    Type
                         _______ _______ _______ _____ _____    ______ ____

>  <TORSDO>
F 4

$$$$
