=
 OpenBabel10222415193D

 43 46  0  0  1  0  0  0  0  0999 V2000
  188.5970  176.9390  143.3920 C   0  0  2  0  0  3  0  0  0  0  0  0
  189.3790  177.1210  141.5500 C   0  0  1  0  0  3  0  0  0  0  0  0
  189.5450  177.9590  142.7960 C   0  0  2  0  0  3  0  0  0  0  0  0
  188.4830  176.2350  142.1820 O   0  0  0  0  0  0  0  0  0  0  0  0
  186.9170  177.7270  145.1290 C   0  0  0  0  0  3  0  0  0  0  0  0
  184.8190  178.7170  144.4380 C   0  0  0  0  0  3  0  0  0  0  0  0
  185.6930  178.3130  145.4550 C   0  0  0  0  0  0  0  0  0  0  0  0
  185.1670  178.5370  143.0970 C   0  0  0  0  0  0  0  0  0  0  0  0
  185.3270  178.5230  146.8820 C   0  0  0  0  0  1  0  0  0  0  0  0
  186.3990  177.9490  142.7770 C   0  0  0  0  0  3  0  0  0  0  0  0
  187.2730  177.5330  143.7840 C   0  0  0  0  0  0  0  0  0  0  0  0
  184.2640  178.9730  142.0750 N   0  0  0  0  0  2  0  0  0  0  0  0
  184.6380  178.8720  139.6700 C   0  0  0  0  0  1  0  0  0  0  0  0
  183.9800  178.2070  140.8660 C   0  0  2  0  0  3  0  0  0  0  0  0
  182.4990  178.0590  140.6500 C   0  0  0  0  0  0  0  0  0  0  0  0
  181.6360  178.7160  141.4240 C   0  0  0  0  0  2  0  0  0  0  0  0
  182.0130  177.1490  139.5980 C   0  0  0  0  0  0  0  0  0  0  0  0
  181.5100  177.6040  138.5360 O   0  0  0  0  0  0  0  0  0  0  0  0
  182.0960  175.7720  139.7760 O   0  0  0  0  0  1  0  0  0  0  0  0
  190.9230  177.7980  143.3660 C   0  0  0  0  0  0  0  0  0  0  0  0
  191.9190  177.7390  142.5910 O   0  0  0  0  0  0  0  0  0  0  0  0
  191.0920  177.6340  144.7790 N   0  0  0  0  0  0  0  0  0  0  0  0
  191.5780  176.5530  145.2960 C   0  0  0  0  0  3  0  0  0  0  0  0
  191.7290  176.4370  146.7700 C   0  0  0  0  0  1  0  0  0  0  0  0
  188.6650  177.9350  140.4740 C   0  0  0  0  0  2  0  0  0  0  0  0
  189.5440  178.0870  139.2450 C   0  0  2  0  0  3  0  0  0  0  0  0
  189.0610  179.2000  138.3300 C   0  0  0  0  0  1  0  0  0  0  0  0
  191.0540  174.9010  137.7670 N   0  0  0  0  0  0  0  0  0  0  0  0
  186.8010  175.9020  136.8500 C   0  0  0  0  0  0  0  0  0  0  0  0
  187.4420  176.7670  137.6710 N   0  0  0  0  0  2  0  0  0  0  0  0
  190.1390  173.1760  136.3380 N   0  0  0  0  0  1  0  0  0  0  0  0
  188.6660  176.2340  137.8170 C   0  0  0  0  0  0  0  0  0  0  0  0
  189.9950  174.3830  137.0790 C   0  0  0  0  0  0  0  0  0  0  0  0
  189.7320  176.7690  138.5460 C   0  0  0  0  0  0  0  0  0  0  0  0
  187.5980  174.8270  136.4590 C   0  0  0  0  0  3  0  0  0  0  0  0
  190.9640  176.0670  138.4830 C   0  0  0  0  0  0  0  0  0  0  0  0
  188.7910  175.0770  137.1030 C   0  0  0  0  0  0  0  0  0  0  0  0
  192.1920  176.5780  139.1590 C   0  0  0  0  0  1  0  0  0  0  0  0
  185.4190  176.1450  136.3560 C   0  0  0  0  0  2  0  0  0  0  0  0
  184.4250  175.4350  137.2600 C   0  0  0  0  0  2  0  0  0  0  0  0
  183.5810  174.4590  136.4570 C   0  0  0  0  0  2  0  0  0  0  0  0
  183.7880  173.0570  136.9340 C   0  0  0  0  0  3  0  0  0  0  0  0
  184.8190  172.7380  137.7160 C   0  0  0  0  0  2  0  0  0  0  0  0
  1 11  1  6  0  0  0
  2 25  1  6  0  0  0
  2  4  1  0  0  0  0
  2  3  1  0  0  0  0
  3 20  1  1  0  0  0
  3  1  1  0  0  0  0
  4  1  1  0  0  0  0
  5  7  1  0  0  0  0
  6  7  2  0  0  0  0
  7  9  1  0  0  0  0
  8  6  1  0  0  0  0
 10  8  2  0  0  0  0
 10 11  1  0  0  0  0
 11  5  2  0  0  0  0
 12  8  1  0  0  0  0
 14 13  1  6  0  0  0
 14 12  1  0  0  0  0
 15 14  1  0  0  0  0
 15 16  2  0  0  0  0
 17 19  1  0  0  0  0
 17 15  1  0  0  0  0
 18 17  2  0  0  0  0
 20 22  1  0  0  0  0
 21 20  2  0  0  0  0
 22 23  2  0  0  0  0
 23 24  1  0  0  0  0
 26 27  1  6  0  0  0
 26 25  1  0  0  0  0
 28 36  1  0  0  0  0
 29 30  1  0  0  0  0
 30 32  1  0  0  0  0
 31 33  1  0  0  0  0
 32 34  1  0  0  0  0
 33 37  1  0  0  0  0
 33 28  2  0  0  0  0
 34 26  1  0  0  0  0
 35 29  2  0  0  0  0
 35 37  1  0  0  0  0
 36 34  2  0  0  0  0
 36 38  1  0  0  0  0
 37 32  2  0  0  0  0
 39 29  1  0  0  0  0
 39 40  1  0  0  0  0
 41 42  1  0  0  0  0
 41 40  1  0  0  0  0
 42 43  2  0  0  0  0
M  END
>  <MODEL>
1

>  <REMARK>
 VINA RESULT:      -8.1      0.000      0.000
  Name = 
  14 active torsions:
  status: ('A' for Active; 'I' for Inactive)
    1  A    between atoms: N_2  and  C_3
    2  A    between atoms: C_3  and  C_24
    3  A    between atoms: C_4  and  C_16
    4  A    between atoms: C_4  and  C_34
    5  A    between atoms: C_5  and  C_10
    6  A    between atoms: C_5  and  C_18
    7  A    between atoms: C_7  and  C_41
    8  A    between atoms: C_8  and  C_13
    9  A    between atoms: C_8  and  C_39
   10  A    between atoms: C_9  and  C_11
   11  A    between atoms: C_9  and  C_39
   12  A    between atoms: C_18  and  N_43
   13  A    between atoms: C_26  and  C_34
   14  A    between atoms: C_33  and  N_43
                            x       y       z     vdW  Elec       q    Type
                         _______ _______ _______ _____ _____    ______ ____

>  <TORSDO>
F 14

$$$$
=
 OpenBabel10222415193D

 43 46  0  0  1  0  0  0  0  0999 V2000
  189.2240  177.8480  138.7110 C   0  0  2  0  0  3  0  0  0  0  0  0
  189.2890  178.1340  140.6990 C   0  0  1  0  0  3  0  0  0  0  0  0
  189.8700  177.0490  139.8230 C   0  0  2  0  0  3  0  0  0  0  0  0
  188.7010  178.7980  139.6040 O   0  0  0  0  0  0  0  0  0  0  0  0
  188.3010  175.8090  137.5070 C   0  0  0  0  0  3  0  0  0  0  0  0
  185.9810  175.7400  136.8240 C   0  0  0  0  0  3  0  0  0  0  0  0
  187.2390  175.1320  136.9060 C   0  0  0  0  0  0  0  0  0  0  0  0
  185.7820  177.0220  137.3440 C   0  0  0  0  0  0  0  0  0  0  0  0
  187.4420  173.7600  136.3690 C   0  0  0  0  0  1  0  0  0  0  0  0
  186.8530  177.6950  137.9480 C   0  0  0  0  0  3  0  0  0  0  0  0
  188.1150  177.1010  138.0240 C   0  0  0  0  0  0  0  0  0  0  0  0
  184.4810  177.6160  137.2630 N   0  0  0  0  0  2  0  0  0  0  0  0
  182.8310  176.4410  138.6150 C   0  0  0  0  0  1  0  0  0  0  0  0
  183.5780  177.7450  138.4020 C   0  0  2  0  0  3  0  0  0  0  0  0
  182.6210  178.8880  138.2130 C   0  0  0  0  0  0  0  0  0  0  0  0
  181.4560  178.6960  137.5930 C   0  0  0  0  0  2  0  0  0  0  0  0
  183.0000  180.2310  138.6850 C   0  0  0  0  0  0  0  0  0  0  0  0
  184.1650  180.4580  139.1100 O   0  0  0  0  0  1  0  0  0  0  0  0
  182.0670  181.2620  138.6750 O   0  0  0  0  0  0  0  0  0  0  0  0
  191.3650  177.1620  139.7580 C   0  0  0  0  0  0  0  0  0  0  0  0
  192.0010  177.6420  140.7390 O   0  0  0  0  0  0  0  0  0  0  0  0
  192.0510  176.7970  138.5550 N   0  0  0  0  0  0  0  0  0  0  0  0
  192.0080  175.5990  138.0710 C   0  0  0  0  0  3  0  0  0  0  0  0
  192.7420  175.2760  136.8190 C   0  0  0  0  0  1  0  0  0  0  0  0
  188.2170  177.5400  141.6100 C   0  0  0  0  0  2  0  0  0  0  0  0
  188.8080  177.1610  142.9570 C   0  0  2  0  0  3  0  0  0  0  0  0
  189.1380  175.6800  143.0420 C   0  0  0  0  0  1  0  0  0  0  0  0
  187.4740  178.1060  146.4130 N   0  0  0  0  0  0  0  0  0  0  0  0
  184.7240  178.3230  142.9040 C   0  0  0  0  0  0  0  0  0  0  0  0
  185.9940  177.9440  142.6290 N   0  0  0  0  0  0  0  0  0  0  0  0
  185.3020  178.8550  147.1720 N   0  0  0  0  0  1  0  0  0  0  0  0
  186.6140  177.9930  143.8190 C   0  0  0  0  0  0  0  0  0  0  0  0
  186.1860  178.4530  146.1300 C   0  0  2  0  0  3  0  0  0  0  0  0
  187.9440  177.6530  144.0860 C   0  0  0  0  0  0  0  0  0  0  0  0
  184.5170  178.6040  144.2540 C   0  0  0  0  0  3  0  0  0  0  0  0
  188.3550  177.7010  145.4440 C   0  0  0  0  0  0  0  0  0  0  0  0
  185.7590  178.3800  144.8090 C   0  0  0  0  0  0  0  0  0  0  0  0
  189.7280  177.2920  145.8620 C   0  0  0  0  0  1  0  0  0  0  0  0
  183.6540  178.3400  141.8700 C   0  0  0  0  0  2  0  0  0  0  0  0
  182.3780  178.9060  142.4690 C   0  0  0  0  0  2  0  0  0  0  0  0
  181.1860  178.5760  141.5850 C   0  0  0  0  0  2  0  0  0  0  0  0
  180.2900  179.7640  141.4350 C   0  0  0  0  0  3  0  0  0  0  0  0
  179.5920  180.2390  142.4660 C   0  0  0  0  0  2  0  0  0  0  0  0
  1 11  1  1  0  0  0
  1  4  1  0  0  0  0
  1  3  1  0  0  0  0
  2 25  1  1  0  0  0
  3 20  1  6  0  0  0
  3  2  1  0  0  0  0
  4  2  1  0  0  0  0
  5 11  1  0  0  0  0
  6  7  1  0  0  0  0
  6  8  2  0  0  0  0
  7  5  2  0  0  0  0
  8 10  1  0  0  0  0
  9  7  1  0  0  0  0
 10 11  2  0  0  0  0
 12  8  1  0  0  0  0
 12 14  1  0  0  0  0
 14 13  1  6  0  0  0
 15 14  1  0  0  0  0
 15 17  1  0  0  0  0
 16 15  2  0  0  0  0
 17 18  1  0  0  0  0
 19 17  2  0  0  0  0
 20 21  2  0  0  0  0
 22 20  1  0  0  0  0
 23 22  2  0  0  0  0
 24 23  1  0  0  0  0
 25 26  1  0  0  0  0
 26 27  1  6  0  0  0
 26 34  1  0  0  0  0
 29 35  1  0  0  0  0
 30 29  2  0  0  0  0
 30 32  1  0  0  0  0
 32 34  2  0  0  0  0
 32 37  1  0  0  0  0
 33 28  1  0  0  0  0
 33 31  1  1  0  0  0
 34 36  1  0  0  0  0
 35 37  2  0  0  0  0
 36 38  1  0  0  0  0
 36 28  2  0  0  0  0
 37 33  1  0  0  0  0
 39 40  1  0  0  0  0
 39 29  1  0  0  0  0
 41 40  1  0  0  0  0
 42 41  1  0  0  0  0
 42 43  2  0  0  0  0
M  END
>  <MODEL>
2

>  <REMARK>
 VINA RESULT:      -8.1      2.132      6.830
  Name = 
  14 active torsions:
  status: ('A' for Active; 'I' for Inactive)
    1  A    between atoms: N_2  and  C_3
    2  A    between atoms: C_3  and  C_24
    3  A    between atoms: C_4  and  C_16
    4  A    between atoms: C_4  and  C_34
    5  A    between atoms: C_5  and  C_10
    6  A    between atoms: C_5  and  C_18
    7  A    between atoms: C_7  and  C_41
    8  A    between atoms: C_8  and  C_13
    9  A    between atoms: C_8  and  C_39
   10  A    between atoms: C_9  and  C_11
   11  A    between atoms: C_9  and  C_39
   12  A    between atoms: C_18  and  N_43
   13  A    between atoms: C_26  and  C_34
   14  A    between atoms: C_33  and  N_43
                            x       y       z     vdW  Elec       q    Type
                         _______ _______ _______ _____ _____    ______ ____

>  <TORSDO>
F 14

$$$$
=
 OpenBabel10222415193D

 43 46  0  0  1  0  0  0  0  0999 V2000
  186.0310  179.1300  141.9450 C   0  0  2  0  0  3  0  0  0  0  0  0
  184.2060  178.7900  141.1750 C   0  0  1  0  0  3  0  0  0  0  0  0
  184.9040  178.2190  142.3870 C   0  0  2  0  0  3  0  0  0  0  0  0
  185.3150  179.5860  140.8250 O   0  0  0  0  0  0  0  0  0  0  0  0
  187.7670  178.4650  140.2110 C   0  0  0  0  0  3  0  0  0  0  0  0
  189.5930  176.9950  140.8120 C   0  0  0  0  0  3  0  0  0  0  0  0
  188.9280  177.7760  139.8580 C   0  0  0  0  0  0  0  0  0  0  0  0
  189.1010  176.9050  142.1160 C   0  0  0  0  0  0  0  0  0  0  0  0
  189.4660  177.8850  138.4760 C   0  0  0  0  0  1  0  0  0  0  0  0
  187.9350  177.6020  142.4630 C   0  0  0  0  0  3  0  0  0  0  0  0
  187.2570  178.3740  141.5160 C   0  0  0  0  0  0  0  0  0  0  0  0
  189.8080  176.1140  143.0780 N   0  0  0  0  0  2  0  0  0  0  0  0
  191.8250  175.1130  144.0080 C   0  0  0  0  0  1  0  0  0  0  0  0
  191.1770  176.3900  143.5030 C   0  0  2  0  0  3  0  0  0  0  0  0
  191.2150  177.4640  144.5540 C   0  0  0  0  0  0  0  0  0  0  0  0
  191.5590  178.7110  144.2320 C   0  0  0  0  0  2  0  0  0  0  0  0
  190.9060  177.1150  145.9520 C   0  0  0  0  0  0  0  0  0  0  0  0
  189.7150  176.9260  146.3190 O   0  0  0  0  0  0  0  0  0  0  0  0
  191.9310  177.0010  146.8840 O   0  0  0  0  0  1  0  0  0  0  0  0
  184.2760  178.7280  143.6500 C   0  0  0  0  0  0  0  0  0  0  0  0
  183.0410  178.9950  143.6730 O   0  0  0  0  0  0  0  0  0  0  0  0
  185.0950  178.9800  144.7980 N   0  0  0  0  0  0  0  0  0  0  0  0
  185.7530  178.0410  145.3970 C   0  0  0  0  0  3  0  0  0  0  0  0
  186.5870  178.3590  146.5850 C   0  0  0  0  0  1  0  0  0  0  0  0
  183.9870  177.6870  140.1420 C   0  0  0  0  0  2  0  0  0  0  0  0
  182.5180  177.3070  140.0660 C   0  0  2  0  0  3  0  0  0  0  0  0
  182.3210  175.8650  139.6320 C   0  0  0  0  0  1  0  0  0  0  0  0
  180.0880  180.0310  138.9290 N   0  0  0  0  0  0  0  0  0  0  0  0
  182.3990  177.7770  135.8470 C   0  0  0  0  0  0  0  0  0  0  0  0
  182.6550  177.4390  137.1320 N   0  0  0  0  0  2  0  0  0  0  0  0
  179.4850  180.8650  136.7390 N   0  0  0  0  0  1  0  0  0  0  0  0
  181.8780  178.2680  137.8490 C   0  0  0  0  0  0  0  0  0  0  0  0
  180.2480  180.0010  137.5750 C   0  0  0  0  0  0  0  0  0  0  0  0
  181.7440  178.2980  139.2400 C   0  0  0  0  0  0  0  0  0  0  0  0
  181.4640  178.8030  135.7260 C   0  0  0  0  0  3  0  0  0  0  0  0
  180.7920  179.2080  139.7700 C   0  0  0  0  0  0  0  0  0  0  0  0
  181.1530  179.0920  137.0380 C   0  0  0  0  0  0  0  0  0  0  0  0
  180.5070  179.2810  141.2330 C   0  0  0  0  0  1  0  0  0  0  0  0
  183.0000  177.0500  134.6960 C   0  0  0  0  0  2  0  0  0  0  0  0
  184.5150  177.1010  134.7980 C   0  0  0  0  0  2  0  0  0  0  0  0
  185.0530  175.7940  135.3570 C   0  0  0  0  0  2  0  0  0  0  0  0
  185.9900  176.0470  136.4950 C   0  0  0  0  0  3  0  0  0  0  0  0
  186.1330  177.2650  137.0160 C   0  0  0  0  0  2  0  0  0  0  0  0
  1 11  1  6  0  0  0
  1  3  1  0  0  0  0
  2 25  1  6  0  0  0
  2  3  1  0  0  0  0
  3 20  1  1  0  0  0
  4  2  1  0  0  0  0
  4  1  1  0  0  0  0
  5 11  1  0  0  0  0
  6  8  2  0  0  0  0
  7  5  2  0  0  0  0
  7  6  1  0  0  0  0
  8 10  1  0  0  0  0
  8 12  1  0  0  0  0
  9  7  1  0  0  0  0
 11 10  2  0  0  0  0
 12 14  1  0  0  0  0
 14 13  1  1  0  0  0
 14 15  1  0  0  0  0
 15 17  1  0  0  0  0
 16 15  2  0  0  0  0
 17 18  2  0  0  0  0
 17 19  1  0  0  0  0
 20 21  2  0  0  0  0
 20 22  1  0  0  0  0
 22 23  2  0  0  0  0
 23 24  1  0  0  0  0
 26 27  1  6  0  0  0
 26 25  1  0  0  0  0
 28 36  1  0  0  0  0
 29 30  1  0  0  0  0
 30 32  1  0  0  0  0
 31 33  1  0  0  0  0
 32 34  1  0  0  0  0
 33 28  2  0  0  0  0
 34 36  2  0  0  0  0
 34 26  1  0  0  0  0
 35 29  2  0  0  0  0
 35 37  1  0  0  0  0
 36 38  1  0  0  0  0
 37 33  1  0  0  0  0
 37 32  2  0  0  0  0
 39 40  1  0  0  0  0
 39 29  1  0  0  0  0
 40 41  1  0  0  0  0
 41 42  1  0  0  0  0
 42 43  2  0  0  0  0
M  END
>  <MODEL>
3

>  <REMARK>
 VINA RESULT:      -7.9      2.734      7.650
  Name = 
  14 active torsions:
  status: ('A' for Active; 'I' for Inactive)
    1  A    between atoms: N_2  and  C_3
    2  A    between atoms: C_3  and  C_24
    3  A    between atoms: C_4  and  C_16
    4  A    between atoms: C_4  and  C_34
    5  A    between atoms: C_5  and  C_10
    6  A    between atoms: C_5  and  C_18
    7  A    between atoms: C_7  and  C_41
    8  A    between atoms: C_8  and  C_13
    9  A    between atoms: C_8  and  C_39
   10  A    between atoms: C_9  and  C_11
   11  A    between atoms: C_9  and  C_39
   12  A    between atoms: C_18  and  N_43
   13  A    between atoms: C_26  and  C_34
   14  A    between atoms: C_33  and  N_43
                            x       y       z     vdW  Elec       q    Type
                         _______ _______ _______ _____ _____    ______ ____

>  <TORSDO>
F 14

$$$$
=
 OpenBabel10222415193D

 43 46  0  0  1  0  0  0  0  0999 V2000
  185.9330  179.1350  142.5000 C   0  0  2  0  0  3  0  0  0  0  0  0
  184.0590  178.6930  141.9280 C   0  0  1  0  0  3  0  0  0  0  0  0
  184.9020  178.1850  143.0730 C   0  0  2  0  0  3  0  0  0  0  0  0
  185.0870  179.5310  141.4520 O   0  0  0  0  0  0  0  0  0  0  0  0
  187.6010  178.6260  140.6510 C   0  0  0  0  0  3  0  0  0  0  0  0
  189.4560  177.1270  141.0570 C   0  0  0  0  0  3  0  0  0  0  0  0
  188.7500  177.9770  140.1970 C   0  0  0  0  0  0  0  0  0  0  0  0
  189.0170  176.9270  142.3680 C   0  0  0  0  0  0  0  0  0  0  0  0
  189.2310  178.2020  138.8080 C   0  0  0  0  0  1  0  0  0  0  0  0
  187.8630  177.5850  142.8170 C   0  0  0  0  0  3  0  0  0  0  0  0
  187.1450  178.4260  141.9640 C   0  0  0  0  0  0  0  0  0  0  0  0
  189.7660  176.0650  143.2340 N   0  0  0  0  0  2  0  0  0  0  0  0
  191.7840  175.0260  144.1180 C   0  0  0  0  0  1  0  0  0  0  0  0
  191.1510  176.3130  143.6200 C   0  0  2  0  0  3  0  0  0  0  0  0
  191.2420  177.3940  144.6610 C   0  0  0  0  0  0  0  0  0  0  0  0
  191.6020  178.6310  144.3200 C   0  0  0  0  0  2  0  0  0  0  0  0
  190.9650  177.0610  146.0700 C   0  0  0  0  0  0  0  0  0  0  0  0
  189.7810  176.9130  146.4750 O   0  0  0  0  0  0  0  0  0  0  0  0
  192.0150  176.9180  146.9700 O   0  0  0  0  0  1  0  0  0  0  0  0
  184.3820  178.6950  144.3840 C   0  0  0  0  0  0  0  0  0  0  0  0
  183.1510  178.9480  144.5140 O   0  0  0  0  0  0  0  0  0  0  0  0
  185.2960  178.9630  145.4540 N   0  0  0  0  0  0  0  0  0  0  0  0
  185.8770  178.0190  146.1200 C   0  0  0  0  0  3  0  0  0  0  0  0
  186.8160  178.3560  147.2220 C   0  0  0  0  0  1  0  0  0  0  0  0
  183.7890  177.5570  140.9450 C   0  0  0  0  0  2  0  0  0  0  0  0
  183.2470  178.1000  139.6330 C   0  0  2  0  0  3  0  0  0  0  0  0
  181.9290  178.8330  139.8180 C   0  0  0  0  0  1  0  0  0  0  0  0
  182.3450  174.9840  137.6090 N   0  0  0  0  0  0  0  0  0  0  0  0
  185.8920  177.4020  136.3850 C   0  0  0  0  0  0  0  0  0  0  0  0
  185.2030  177.8730  137.4520 N   0  0  0  0  0  2  0  0  0  0  0  0
  183.3500  173.9600  135.6620 N   0  0  0  0  0  1  0  0  0  0  0  0
  184.1850  177.0070  137.5910 C   0  0  0  0  0  0  0  0  0  0  0  0
  183.3030  174.9940  136.6390 C   0  0  0  0  0  0  0  0  0  0  0  0
  183.1980  177.0260  138.5810 C   0  0  0  0  0  0  0  0  0  0  0  0
  185.3370  176.2430  135.8440 C   0  0  0  0  0  3  0  0  0  0  0  0
  182.2710  175.9520  138.5780 C   0  0  0  0  0  0  0  0  0  0  0  0
  184.2400  176.0220  136.6480 C   0  0  0  0  0  0  0  0  0  0  0  0
  181.2170  175.8240  139.6270 C   0  0  0  0  0  1  0  0  0  0  0  0
  187.1590  178.0240  135.9160 C   0  0  0  0  0  2  0  0  0  0  0  0
  187.8300  177.1100  134.9050 C   0  0  0  0  0  2  0  0  0  0  0  0
  189.1450  176.5830  135.4570 C   0  0  0  0  0  2  0  0  0  0  0  0
  188.9350  175.3050  136.2060 C   0  0  0  0  0  3  0  0  0  0  0  0
  189.7690  174.9250  137.1730 C   0  0  0  0  0  2  0  0  0  0  0  0
  1 11  1  6  0  0  0
  1  3  1  0  0  0  0
  2 25  1  6  0  0  0
  2  3  1  0  0  0  0
  3 20  1  1  0  0  0
  4  2  1  0  0  0  0
  4  1  1  0  0  0  0
  5 11  1  0  0  0  0
  6  8  2  0  0  0  0
  7  5  2  0  0  0  0
  7  6  1  0  0  0  0
  8 10  1  0  0  0  0
  8 12  1  0  0  0  0
  9  7  1  0  0  0  0
 11 10  2  0  0  0  0
 12 14  1  0  0  0  0
 14 13  1  1  0  0  0
 14 15  1  0  0  0  0
 15 17  1  0  0  0  0
 16 15  2  0  0  0  0
 17 18  2  0  0  0  0
 17 19  1  0  0  0  0
 20 21  2  0  0  0  0
 20 22  1  0  0  0  0
 22 23  2  0  0  0  0
 23 24  1  0  0  0  0
 26 27  1  1  0  0  0
 26 25  1  0  0  0  0
 28 36  1  0  0  0  0
 29 30  1  0  0  0  0
 30 32  1  0  0  0  0
 31 33  1  0  0  0  0
 32 34  1  0  0  0  0
 33 37  1  0  0  0  0
 33 28  2  0  0  0  0
 34 26  1  0  0  0  0
 35 29  2  0  0  0  0
 35 37  1  0  0  0  0
 36 34  2  0  0  0  0
 36 38  1  0  0  0  0
 37 32  2  0  0  0  0
 39 29  1  0  0  0  0
 40 41  1  0  0  0  0
 40 39  1  0  0  0  0
 41 42  1  0  0  0  0
 42 43  2  0  0  0  0
M  END
>  <MODEL>
4

>  <REMARK>
 VINA RESULT:      -7.9      2.482      6.849
  Name = 
  14 active torsions:
  status: ('A' for Active; 'I' for Inactive)
    1  A    between atoms: N_2  and  C_3
    2  A    between atoms: C_3  and  C_24
    3  A    between atoms: C_4  and  C_16
    4  A    between atoms: C_4  and  C_34
    5  A    between atoms: C_5  and  C_10
    6  A    between atoms: C_5  and  C_18
    7  A    between atoms: C_7  and  C_41
    8  A    between atoms: C_8  and  C_13
    9  A    between atoms: C_8  and  C_39
   10  A    between atoms: C_9  and  C_11
   11  A    between atoms: C_9  and  C_39
   12  A    between atoms: C_18  and  N_43
   13  A    between atoms: C_26  and  C_34
   14  A    between atoms: C_33  and  N_43
                            x       y       z     vdW  Elec       q    Type
                         _______ _______ _______ _____ _____    ______ ____

>  <TORSDO>
F 14

$$$$
=
 OpenBabel10222415193D

 43 46  0  0  1  0  0  0  0  0999 V2000
  189.2540  177.8590  138.3090 C   0  0  2  0  0  3  0  0  0  0  0  0
  189.1820  178.0300  140.3090 C   0  0  1  0  0  3  0  0  0  0  0  0
  189.7370  176.9460  139.4160 C   0  0  2  0  0  3  0  0  0  0  0  0
  188.7430  178.8030  139.2160 O   0  0  0  0  0  0  0  0  0  0  0  0
  188.3420  176.1060  136.7100 C   0  0  0  0  0  3  0  0  0  0  0  0
  186.0100  176.1370  136.0650 C   0  0  0  0  0  3  0  0  0  0  0  0
  187.2790  175.5520  135.9950 C   0  0  0  0  0  0  0  0  0  0  0  0
  185.8000  177.2730  136.8500 C   0  0  0  0  0  0  0  0  0  0  0  0
  187.4950  174.3300  135.1720 C   0  0  0  0  0  1  0  0  0  0  0  0
  186.8710  177.8230  137.5670 C   0  0  0  0  0  3  0  0  0  0  0  0
  188.1450  177.2540  137.4950 C   0  0  0  0  0  0  0  0  0  0  0  0
  184.4870  177.8440  136.9190 N   0  0  0  0  0  2  0  0  0  0  0  0
  182.2050  177.0080  136.7650 C   0  0  0  0  0  1  0  0  0  0  0  0
  183.3900  177.2580  137.6810 C   0  0  2  0  0  3  0  0  0  0  0  0
  182.9990  178.1360  138.8370 C   0  0  0  0  0  0  0  0  0  0  0  0
  182.5840  177.5970  139.9830 C   0  0  0  0  0  2  0  0  0  0  0  0
  183.0430  179.6000  138.6760 C   0  0  0  0  0  0  0  0  0  0  0  0
  184.0670  180.2540  139.0130 O   0  0  0  0  0  1  0  0  0  0  0  0
  181.9440  180.2770  138.1580 O   0  0  0  0  0  0  0  0  0  0  0  0
  191.2360  176.9260  139.4710 C   0  0  0  0  0  0  0  0  0  0  0  0
  191.8400  177.6190  140.3380 O   0  0  0  0  0  0  0  0  0  0  0  0
  191.9720  176.1840  138.4920 N   0  0  0  0  0  0  0  0  0  0  0  0
  191.4850  175.1380  137.9080 C   0  0  0  0  0  3  0  0  0  0  0  0
  192.2950  174.4050  136.9000 C   0  0  0  0  0  1  0  0  0  0  0  0
  187.9930  177.4870  141.0980 C   0  0  0  0  0  2  0  0  0  0  0  0
  188.2840  177.5050  142.5890 C   0  0  2  0  0  3  0  0  0  0  0  0
  188.9510  176.2230  143.0570 C   0  0  0  0  0  1  0  0  0  0  0  0
  184.8250  178.7700  143.6150 N   0  0  0  0  0  0  0  0  0  0  0  0
  187.6970  177.5180  146.7940 C   0  0  0  0  0  0  0  0  0  0  0  0
  188.1390  177.3820  145.5220 N   0  0  0  0  0  0  0  0  0  0  0  0
  183.7720  179.0600  145.7740 N   0  0  0  0  0  1  0  0  0  0  0  0
  187.0990  177.7830  144.7720 C   0  0  0  0  0  0  0  0  0  0  0  0
  184.8780  178.6570  144.9730 C   0  0  2  0  0  3  0  0  0  0  0  0
  187.0560  177.8700  143.3770 C   0  0  0  0  0  0  0  0  0  0  0  0
  186.3950  178.0070  146.8730 C   0  0  0  0  0  3  0  0  0  0  0  0
  185.8720  178.4070  142.8070 C   0  0  0  0  0  0  0  0  0  0  0  0
  186.0440  178.1640  145.5490 C   0  0  0  0  0  0  0  0  0  0  0  0
  185.7360  178.6170  141.3360 C   0  0  0  0  0  1  0  0  0  0  0  0
  188.5660  177.2510  147.9730 C   0  0  0  0  0  2  0  0  0  0  0  0
  190.0090  177.5680  147.6210 C   0  0  0  0  0  2  0  0  0  0  0  0
  190.7960  176.2850  147.4020 C   0  0  0  0  0  2  0  0  0  0  0  0
  191.7580  176.4380  146.2680 C   0  0  0  0  0  3  0  0  0  0  0  0
  191.5800  177.3670  145.3290 C   0  0  0  0  0  2  0  0  0  0  0  0
  1 11  1  6  0  0  0
  1  4  1  0  0  0  0
  1  3  1  0  0  0  0
  2 25  1  1  0  0  0
  3 20  1  6  0  0  0
  3  2  1  0  0  0  0
  4  2  1  0  0  0  0
  5 11  1  0  0  0  0
  6  8  2  0  0  0  0
  7  6  1  0  0  0  0
  7  5  2  0  0  0  0
  8 12  1  0  0  0  0
  8 10  1  0  0  0  0
  9  7  1  0  0  0  0
 11 10  2  0  0  0  0
 12 14  1  0  0  0  0
 14 13  1  6  0  0  0
 14 15  1  0  0  0  0
 15 16  2  0  0  0  0
 17 15  1  0  0  0  0
 17 18  1  0  0  0  0
 19 17  2  0  0  0  0
 20 21  2  0  0  0  0
 22 20  1  0  0  0  0
 23 22  2  0  0  0  0
 24 23  1  0  0  0  0
 25 26  1  0  0  0  0
 26 27  1  1  0  0  0
 26 34  1  0  0  0  0
 28 33  1  0  0  0  0
 29 35  1  0  0  0  0
 29 39  1  0  0  0  0
 30 29  2  0  0  0  0
 32 30  1  0  0  0  0
 32 37  1  0  0  0  0
 33 37  1  0  0  0  0
 33 31  1  1  0  0  0
 34 32  2  0  0  0  0
 36 34  1  0  0  0  0
 36 28  2  0  0  0  0
 37 35  2  0  0  0  0
 38 36  1  0  0  0  0
 40 39  1  0  0  0  0
 41 40  1  0  0  0  0
 42 41  1  0  0  0  0
 43 42  2  0  0  0  0
M  END
>  <MODEL>
5

>  <REMARK>
 VINA RESULT:      -7.8      2.039      7.814
  Name = 
  14 active torsions:
  status: ('A' for Active; 'I' for Inactive)
    1  A    between atoms: N_2  and  C_3
    2  A    between atoms: C_3  and  C_24
    3  A    between atoms: C_4  and  C_16
    4  A    between atoms: C_4  and  C_34
    5  A    between atoms: C_5  and  C_10
    6  A    between atoms: C_5  and  C_18
    7  A    between atoms: C_7  and  C_41
    8  A    between atoms: C_8  and  C_13
    9  A    between atoms: C_8  and  C_39
   10  A    between atoms: C_9  and  C_11
   11  A    between atoms: C_9  and  C_39
   12  A    between atoms: C_18  and  N_43
   13  A    between atoms: C_26  and  C_34
   14  A    between atoms: C_33  and  N_43
                            x       y       z     vdW  Elec       q    Type
                         _______ _______ _______ _____ _____    ______ ____

>  <TORSDO>
F 14

$$$$
=
 OpenBabel10222415193D

 43 46  0  0  1  0  0  0  0  0999 V2000
  185.6880  179.2890  141.8350 C   0  0  2  0  0  3  0  0  0  0  0  0
  183.9710  178.8290  140.8980 C   0  0  1  0  0  3  0  0  0  0  0  0
  184.5480  178.3670  142.2150 C   0  0  2  0  0  3  0  0  0  0  0  0
  185.0860  179.6430  140.6160 O   0  0  0  0  0  0  0  0  0  0  0  0
  187.4850  178.3500  140.3020 C   0  0  0  0  0  3  0  0  0  0  0  0
  189.4260  177.2440  141.2300 C   0  0  0  0  0  3  0  0  0  0  0  0
  188.7030  177.6940  140.1190 C   0  0  0  0  0  0  0  0  0  0  0  0
  188.9360  177.4500  142.5220 C   0  0  0  0  0  0  0  0  0  0  0  0
  189.2380  177.4900  138.7460 C   0  0  0  0  0  1  0  0  0  0  0  0
  187.7120  178.1120  142.6970 C   0  0  0  0  0  3  0  0  0  0  0  0
  186.9770  178.5550  141.5950 C   0  0  0  0  0  0  0  0  0  0  0  0
  189.7020  176.9940  143.6430 N   0  0  0  0  0  2  0  0  0  0  0  0
  191.5560  178.3940  144.3750 C   0  0  0  0  0  1  0  0  0  0  0  0
  190.1710  177.8700  144.7110 C   0  0  2  0  0  3  0  0  0  0  0  0
  190.1720  177.1610  146.0370 C   0  0  0  0  0  0  0  0  0  0  0  0
  189.0570  177.0880  146.7630 C   0  0  0  0  0  2  0  0  0  0  0  0
  191.4290  176.5810  146.5420 C   0  0  0  0  0  0  0  0  0  0  0  0
  191.9360  176.9870  147.6220 O   0  0  0  0  0  1  0  0  0  0  0  0
  192.0740  175.5820  145.8210 O   0  0  0  0  0  0  0  0  0  0  0  0
  183.7690  178.9330  143.3650 C   0  0  0  0  0  0  0  0  0  0  0  0
  182.5220  179.0980  143.2560 O   0  0  0  0  0  0  0  0  0  0  0  0
  184.4570  179.3530  144.5500 N   0  0  0  0  0  0  0  0  0  0  0  0
  185.0420  178.5160  145.3430 C   0  0  0  0  0  3  0  0  0  0  0  0
  185.7400  179.0070  146.5590 C   0  0  0  0  0  1  0  0  0  0  0  0
  183.9010  177.6530  139.9270 C   0  0  0  0  0  2  0  0  0  0  0  0
  182.8610  177.9080  138.8500 C   0  0  2  0  0  3  0  0  0  0  0  0
  182.3390  179.3340  138.8830 C   0  0  0  0  0  1  0  0  0  0  0  0
  179.7180  175.9130  139.7200 N   0  0  0  0  0  0  0  0  0  0  0  0
  182.7020  174.1270  136.9220 C   0  0  0  0  0  0  0  0  0  0  0  0
  182.9930  175.3710  137.3710 N   0  0  0  0  0  0  0  0  0  0  0  0
  178.9310  173.7310  139.0320 N   0  0  0  0  0  1  0  0  0  0  0  0
  181.9460  175.6900  138.1490 C   0  0  0  0  0  0  0  0  0  0  0  0
  179.8900  174.7820  138.9780 C   0  0  0  0  0  0  0  0  0  0  0  0
  181.7770  176.8660  138.8860 C   0  0  0  0  0  0  0  0  0  0  0  0
  181.4890  173.6400  137.4060 C   0  0  0  0  0  2  0  0  0  0  0  0
  180.6220  176.9430  139.7080 C   0  0  0  0  0  0  0  0  0  0  0  0
  181.0330  174.6760  138.1930 C   0  0  0  0  0  0  0  0  0  0  0  0
  180.3690  178.1170  140.5950 C   0  0  0  0  0  1  0  0  0  0  0  0
  183.6410  173.3460  136.0730 C   0  0  0  0  0  2  0  0  0  0  0  0
  184.2960  172.2590  136.9070 C   0  0  0  0  0  2  0  0  0  0  0  0
  185.4670  172.8270  137.6940 C   0  0  0  0  0  2  0  0  0  0  0  0
  186.5010  173.3940  136.7750 C   0  0  0  0  0  3  0  0  0  0  0  0
  187.2810  172.6030  136.0390 C   0  0  0  0  0  2  0  0  0  0  0  0
  1 11  1  6  0  0  0
  1  3  1  0  0  0  0
  2 25  1  6  0  0  0
  2  3  1  0  0  0  0
  3 20  1  1  0  0  0
  4  2  1  0  0  0  0
  4  1  1  0  0  0  0
  5 11  1  0  0  0  0
  6  8  2  0  0  0  0
  7  5  2  0  0  0  0
  7  6  1  0  0  0  0
  8 10  1  0  0  0  0
  8 12  1  0  0  0  0
  9  7  1  0  0  0  0
 11 10  2  0  0  0  0
 12 14  1  0  0  0  0
 14 13  1  6  0  0  0
 14 15  1  0  0  0  0
 15 17  1  0  0  0  0
 15 16  2  0  0  0  0
 17 18  1  0  0  0  0
 19 17  2  0  0  0  0
 20 22  1  0  0  0  0
 21 20  2  0  0  0  0
 22 23  2  0  0  0  0
 23 24  1  0  0  0  0
 26 27  1  1  0  0  0
 26 34  1  0  0  0  0
 26 25  1  0  0  0  0
 29 30  2  0  0  0  0
 29 35  1  0  0  0  0
 30 32  1  0  0  0  0
 32 37  2  0  0  0  0
 32 34  1  0  0  0  0
 33 31  1  0  0  0  0
 33 28  2  0  0  0  0
 34 36  2  0  0  0  0
 35 37  1  0  0  0  0
 36 28  1  0  0  0  0
 36 38  1  0  0  0  0
 37 33  1  0  0  0  0
 39 40  1  0  0  0  0
 39 29  1  0  0  0  0
 40 41  1  0  0  0  0
 42 41  1  0  0  0  0
 43 42  2  0  0  0  0
M  END
>  <MODEL>
6

>  <REMARK>
 VINA RESULT:      -7.8      2.673      7.497
  Name = 
  14 active torsions:
  status: ('A' for Active; 'I' for Inactive)
    1  A    between atoms: N_2  and  C_3
    2  A    between atoms: C_3  and  C_24
    3  A    between atoms: C_4  and  C_16
    4  A    between atoms: C_4  and  C_34
    5  A    between atoms: C_5  and  C_10
    6  A    between atoms: C_5  and  C_18
    7  A    between atoms: C_7  and  C_41
    8  A    between atoms: C_8  and  C_13
    9  A    between atoms: C_8  and  C_39
   10  A    between atoms: C_9  and  C_11
   11  A    between atoms: C_9  and  C_39
   12  A    between atoms: C_18  and  N_43
   13  A    between atoms: C_26  and  C_34
   14  A    between atoms: C_33  and  N_43
                            x       y       z     vdW  Elec       q    Type
                         _______ _______ _______ _____ _____    ______ ____

>  <TORSDO>
F 14

$$$$
=
 OpenBabel10222415193D

 43 46  0  0  1  0  0  0  0  0999 V2000
  188.0570  176.7540  143.9010 C   0  0  2  0  0  3  0  0  0  0  0  0
  189.5290  176.4830  142.5600 C   0  0  1  0  0  3  0  0  0  0  0  0
  189.3260  177.5350  143.6250 C   0  0  2  0  0  3  0  0  0  0  0  0
  188.3170  175.8350  142.8710 O   0  0  0  0  0  0  0  0  0  0  0  0
  185.8800  177.8600  144.6080 C   0  0  0  0  0  3  0  0  0  0  0  0
  184.5510  179.0810  142.9960 C   0  0  0  0  0  3  0  0  0  0  0  0
  184.7520  178.6230  144.3040 C   0  0  0  0  0  0  0  0  0  0  0  0
  185.4760  178.7790  141.9940 C   0  0  0  0  0  0  0  0  0  0  0  0
  183.7750  178.9620  145.3730 C   0  0  0  0  0  1  0  0  0  0  0  0
  186.6080  178.0140  142.3070 C   0  0  0  0  0  3  0  0  0  0  0  0
  186.8120  177.5420  143.6060 C   0  0  0  0  0  0  0  0  0  0  0  0
  185.2560  179.2730  140.6670 N   0  0  0  0  0  2  0  0  0  0  0  0
  185.1110  178.4810  138.3680 C   0  0  0  0  0  1  0  0  0  0  0  0
  184.3860  178.6200  139.6950 C   0  0  2  0  0  3  0  0  0  0  0  0
  183.0960  179.3740  139.5250 C   0  0  0  0  0  0  0  0  0  0  0  0
  183.0440  180.4530  138.7450 C   0  0  0  0  0  2  0  0  0  0  0  0
  181.9000  178.9290  140.2620 C   0  0  0  0  0  0  0  0  0  0  0  0
  181.9230  177.8720  140.9480 O   0  0  0  0  0  1  0  0  0  0  0  0
  180.7270  179.6720  140.1980 O   0  0  0  0  0  0  0  0  0  0  0  0
  190.3110  177.3570  144.7430 C   0  0  0  0  0  0  0  0  0  0  0  0
  191.3360  176.6400  144.5660 O   0  0  0  0  0  0  0  0  0  0  0  0
  190.0430  177.9390  146.0240 N   0  0  0  0  0  0  0  0  0  0  0  0
  189.4240  177.2950  146.9590 C   0  0  0  0  0  3  0  0  0  0  0  0
  189.1720  177.9490  148.2700 C   0  0  0  0  0  1  0  0  0  0  0  0
  189.4570  177.1300  141.1790 C   0  0  0  0  0  2  0  0  0  0  0  0
  190.6830  176.7750  140.3560 C   0  0  2  0  0  3  0  0  0  0  0  0
  191.9250  177.5090  140.8320 C   0  0  0  0  0  1  0  0  0  0  0  0
  189.2380  177.8630  136.9880 N   0  0  0  0  0  0  0  0  0  0  0  0
  192.2220  174.5450  137.0860 C   0  0  0  0  0  0  0  0  0  0  0  0
  191.9290  175.1030  138.2840 N   0  0  0  0  0  2  0  0  0  0  0  0
  189.6170  177.0900  134.7270 N   0  0  0  0  0  1  0  0  0  0  0  0
  191.0550  176.0780  137.9840 C   0  0  0  0  0  0  0  0  0  0  0  0
  189.8900  177.0340  136.1230 C   0  0  0  0  0  0  0  0  0  0  0  0
  190.4130  176.9340  138.8850 C   0  0  0  0  0  0  0  0  0  0  0  0
  191.5430  175.1400  136.0240 C   0  0  0  0  0  3  0  0  0  0  0  0
  189.4600  177.8340  138.3400 C   0  0  0  0  0  0  0  0  0  0  0  0
  190.8030  176.1240  136.6440 C   0  0  0  0  0  0  0  0  0  0  0  0
  188.6580  178.7450  139.2090 C   0  0  0  0  0  1  0  0  0  0  0  0
  193.1110  173.3590  136.9540 C   0  0  0  0  0  2  0  0  0  0  0  0
  194.3940  173.5970  137.7320 C   0  0  0  0  0  2  0  0  0  0  0  0
  195.3200  174.5210  136.9570 C   0  0  0  0  0  2  0  0  0  0  0  0
  196.7520  174.2040  137.2460 C   0  0  0  0  0  3  0  0  0  0  0  0
  197.7410  174.8310  136.6100 C   0  0  0  0  0  2  0  0  0  0  0  0
  1 11  1  6  0  0  0
  2 25  1  6  0  0  0
  2  4  1  0  0  0  0
  2  3  1  0  0  0  0
  3  1  1  0  0  0  0
  3 20  1  1  0  0  0
  4  1  1  0  0  0  0
  6  7  2  0  0  0  0
  7  5  1  0  0  0  0
  7  9  1  0  0  0  0
  8 10  2  0  0  0  0
  8  6  1  0  0  0  0
 10 11  1  0  0  0  0
 11  5  2  0  0  0  0
 12  8  1  0  0  0  0
 14 13  1  6  0  0  0
 14 12  1  0  0  0  0
 15 14  1  0  0  0  0
 15 17  1  0  0  0  0
 16 15  2  0  0  0  0
 17 18  1  0  0  0  0
 19 17  2  0  0  0  0
 20 22  1  0  0  0  0
 21 20  2  0  0  0  0
 22 23  2  0  0  0  0
 23 24  1  0  0  0  0
 26 27  1  1  0  0  0
 26 25  1  0  0  0  0
 28 36  1  0  0  0  0
 29 30  1  0  0  0  0
 31 33  1  0  0  0  0
 32 30  1  0  0  0  0
 32 34  1  0  0  0  0
 33 37  1  0  0  0  0
 33 28  2  0  0  0  0
 34 26  1  0  0  0  0
 35 37  1  0  0  0  0
 35 29  2  0  0  0  0
 36 34  2  0  0  0  0
 36 38  1  0  0  0  0
 37 32  2  0  0  0  0
 39 29  1  0  0  0  0
 39 40  1  0  0  0  0
 41 42  1  0  0  0  0
 41 40  1  0  0  0  0
 43 42  2  0  0  0  0
M  END
>  <MODEL>
7

>  <REMARK>
 VINA RESULT:      -7.6      2.304      4.607
  Name = 
  14 active torsions:
  status: ('A' for Active; 'I' for Inactive)
    1  A    between atoms: N_2  and  C_3
    2  A    between atoms: C_3  and  C_24
    3  A    between atoms: C_4  and  C_16
    4  A    between atoms: C_4  and  C_34
    5  A    between atoms: C_5  and  C_10
    6  A    between atoms: C_5  and  C_18
    7  A    between atoms: C_7  and  C_41
    8  A    between atoms: C_8  and  C_13
    9  A    between atoms: C_8  and  C_39
   10  A    between atoms: C_9  and  C_11
   11  A    between atoms: C_9  and  C_39
   12  A    between atoms: C_18  and  N_43
   13  A    between atoms: C_26  and  C_34
   14  A    between atoms: C_33  and  N_43
                            x       y       z     vdW  Elec       q    Type
                         _______ _______ _______ _____ _____    ______ ____

>  <TORSDO>
F 14

$$$$
=
 OpenBabel10222415193D

 43 46  0  0  1  0  0  0  0  0999 V2000
  189.1130  176.7380  144.4120 C   0  0  2  0  0  3  0  0  0  0  0  0
  190.1680  176.5500  142.7120 C   0  0  1  0  0  3  0  0  0  0  0  0
  190.1230  177.6500  143.7460 C   0  0  2  0  0  3  0  0  0  0  0  0
  189.2010  175.7790  143.3890 O   0  0  0  0  0  0  0  0  0  0  0  0
  187.2290  177.9420  145.6220 C   0  0  0  0  0  3  0  0  0  0  0  0
  185.1810  178.4880  144.4550 C   0  0  0  0  0  3  0  0  0  0  0  0
  185.9570  178.5150  145.6210 C   0  0  0  0  0  0  0  0  0  0  0  0
  185.6760  177.8930  143.2920 C   0  0  0  0  0  0  0  0  0  0  0  0
  185.4340  179.1660  146.8520 C   0  0  0  0  0  1  0  0  0  0  0  0
  186.9560  177.3220  143.3010 C   0  0  0  0  0  3  0  0  0  0  0  0
  187.7340  177.3330  144.4610 C   0  0  0  0  0  0  0  0  0  0  0  0
  184.8690  177.8940  142.1080 N   0  0  0  0  0  2  0  0  0  0  0  0
  182.7580  178.7380  142.9820 C   0  0  0  0  0  1  0  0  0  0  0  0
  183.7850  178.8410  141.8690 C   0  0  2  0  0  3  0  0  0  0  0  0
  183.1470  178.6110  140.5270 C   0  0  0  0  0  0  0  0  0  0  0  0
  181.9530  178.0260  140.4400 C   0  0  0  0  0  2  0  0  0  0  0  0
  183.8740  179.0040  139.3070 C   0  0  0  0  0  0  0  0  0  0  0  0
  183.8120  178.2980  138.2650 O   0  0  0  0  0  0  0  0  0  0  0  0
  184.6480  180.1590  139.3000 O   0  0  0  0  0  1  0  0  0  0  0  0
  191.3980  177.6920  144.5340 C   0  0  0  0  0  0  0  0  0  0  0  0
  192.1950  178.6620  144.3850 O   0  0  0  0  0  0  0  0  0  0  0  0
  191.7410  176.5960  145.3900 N   0  0  0  0  0  0  0  0  0  0  0  0
  191.7240  176.6950  146.6790 C   0  0  0  0  0  3  0  0  0  0  0  0
  192.0900  175.5250  147.5190 C   0  0  0  0  0  1  0  0  0  0  0  0
  189.6140  177.0670  141.3870 C   0  0  0  0  0  2  0  0  0  0  0  0
  190.6080  176.8350  140.2620 C   0  0  2  0  0  3  0  0  0  0  0  0
  191.9160  177.5710  140.4930 C   0  0  0  0  0  1  0  0  0  0  0  0
  188.2450  177.9710  137.4800 N   0  0  0  0  0  0  0  0  0  0  0  0
  191.7980  175.4870  136.4150 C   0  0  0  0  0  0  0  0  0  0  0  0
  191.6740  175.7970  137.7270 N   0  0  0  0  0  2  0  0  0  0  0  0
  188.2560  177.6130  135.0870 N   0  0  0  0  0  1  0  0  0  0  0  0
  190.5710  176.5640  137.7780 C   0  0  0  0  0  0  0  0  0  0  0  0
  188.8430  177.4440  136.3730 C   0  0  0  0  0  0  0  0  0  0  0  0
  189.9860  177.1140  138.9220 C   0  0  0  0  0  0  0  0  0  0  0  0
  190.7880  176.0340  135.6250 C   0  0  0  0  0  3  0  0  0  0  0  0
  188.7680  177.8200  138.7380 C   0  0  0  0  0  0  0  0  0  0  0  0
  190.0190  176.7210  136.5400 C   0  0  0  0  0  0  0  0  0  0  0  0
  188.0110  178.3900  139.8910 C   0  0  0  0  0  1  0  0  0  0  0  0
  192.8610  174.5780  135.9080 C   0  0  0  0  0  2  0  0  0  0  0  0
  194.1240  174.7650  136.7300 C   0  0  0  0  0  2  0  0  0  0  0  0
  194.7790  173.4220  137.0090 C   0  0  0  0  0  2  0  0  0  0  0  0
  195.1200  173.2870  138.4590 C   0  0  0  0  0  3  0  0  0  0  0  0
  195.7280  174.2700  139.1210 C   0  0  0  0  0  2  0  0  0  0  0  0
  1 11  1  6  0  0  0
  2 25  1  6  0  0  0
  2  4  1  0  0  0  0
  2  3  1  0  0  0  0
  3  1  1  0  0  0  0
  3 20  1  1  0  0  0
  4  1  1  0  0  0  0
  6  7  2  0  0  0  0
  7  5  1  0  0  0  0
  7  9  1  0  0  0  0
  8 10  2  0  0  0  0
  8  6  1  0  0  0  0
 10 11  1  0  0  0  0
 11  5  2  0  0  0  0
 12  8  1  0  0  0  0
 14 12  1  0  0  0  0
 14 13  1  1  0  0  0
 15 14  1  0  0  0  0
 16 15  2  0  0  0  0
 17 15  1  0  0  0  0
 18 17  2  0  0  0  0
 19 17  1  0  0  0  0
 20 22  1  0  0  0  0
 21 20  2  0  0  0  0
 22 23  2  0  0  0  0
 23 24  1  0  0  0  0
 26 27  1  1  0  0  0
 26 25  1  0  0  0  0
 28 36  1  0  0  0  0
 29 30  1  0  0  0  0
 30 32  1  0  0  0  0
 31 33  1  0  0  0  0
 32 34  1  0  0  0  0
 33 37  1  0  0  0  0
 33 28  2  0  0  0  0
 34 26  1  0  0  0  0
 35 29  2  0  0  0  0
 35 37  1  0  0  0  0
 36 34  2  0  0  0  0
 36 38  1  0  0  0  0
 37 32  2  0  0  0  0
 39 29  1  0  0  0  0
 39 40  1  0  0  0  0
 40 41  1  0  0  0  0
 41 42  1  0  0  0  0
 42 43  2  0  0  0  0
M  END
>  <MODEL>
8

>  <REMARK>
 VINA RESULT:      -7.5      2.320      4.269
  Name = 
  14 active torsions:
  status: ('A' for Active; 'I' for Inactive)
    1  A    between atoms: N_2  and  C_3
    2  A    between atoms: C_3  and  C_24
    3  A    between atoms: C_4  and  C_16
    4  A    between atoms: C_4  and  C_34
    5  A    between atoms: C_5  and  C_10
    6  A    between atoms: C_5  and  C_18
    7  A    between atoms: C_7  and  C_41
    8  A    between atoms: C_8  and  C_13
    9  A    between atoms: C_8  and  C_39
   10  A    between atoms: C_9  and  C_11
   11  A    between atoms: C_9  and  C_39
   12  A    between atoms: C_18  and  N_43
   13  A    between atoms: C_26  and  C_34
   14  A    between atoms: C_33  and  N_43
                            x       y       z     vdW  Elec       q    Type
                         _______ _______ _______ _____ _____    ______ ____

>  <TORSDO>
F 14

$$$$
=
 OpenBabel10222415193D

 43 46  0  0  1  0  0  0  0  0999 V2000
  184.4800  179.0710  141.4590 C   0  0  2  0  0  3  0  0  0  0  0  0
  184.9870  178.6790  139.5550 C   0  0  1  0  0  3  0  0  0  0  0  0
  184.1020  177.9380  140.5280 C   0  0  2  0  0  3  0  0  0  0  0  0
  185.3040  179.6790  140.4970 O   0  0  0  0  0  0  0  0  0  0  0  0
  184.8100  178.7010  143.9520 C   0  0  0  0  0  3  0  0  0  0  0  0
  186.8350  177.6640  144.7760 C   0  0  0  0  0  3  0  0  0  0  0  0
  185.5780  178.2320  145.0190 C   0  0  0  0  0  0  0  0  0  0  0  0
  187.3220  177.5610  143.4710 C   0  0  0  0  0  0  0  0  0  0  0  0
  185.0550  178.3220  146.4080 C   0  0  0  0  0  1  0  0  0  0  0  0
  186.5430  178.0320  142.4050 C   0  0  0  0  0  3  0  0  0  0  0  0
  185.2930  178.6110  142.6370 C   0  0  0  0  0  0  0  0  0  0  0  0
  188.6030  176.9600  143.2470 N   0  0  0  0  0  2  0  0  0  0  0  0
  190.5440  176.8800  141.7780 C   0  0  0  0  0  1  0  0  0  0  0  0
  189.7770  177.7020  142.7980 C   0  0  2  0  0  3  0  0  0  0  0  0
  190.6580  178.0790  143.9560 C   0  0  0  0  0  0  0  0  0  0  0  0
  191.2880  179.2540  143.9680 C   0  0  0  0  0  2  0  0  0  0  0  0
  190.8490  177.1210  145.0580 C   0  0  0  0  0  0  0  0  0  0  0  0
  190.2720  177.2910  146.1660 O   0  0  0  0  0  1  0  0  0  0  0  0
  191.6810  176.0200  144.8870 O   0  0  0  0  0  0  0  0  0  0  0  0
  182.6610  178.0430  140.1230 C   0  0  0  0  0  0  0  0  0  0  0  0
  181.9060  178.8740  140.7030 O   0  0  0  0  0  0  0  0  0  0  0  0
  182.1340  177.1470  139.1380 N   0  0  0  0  0  0  0  0  0  0  0  0
  182.5000  175.9100  139.0630 C   0  0  0  0  0  3  0  0  0  0  0  0
  181.9210  175.0250  138.0180 C   0  0  0  0  0  1  0  0  0  0  0  0
  186.2160  177.8330  139.2310 C   0  0  0  0  0  2  0  0  0  0  0  0
  186.4640  177.7990  137.7330 C   0  0  2  0  0  3  0  0  0  0  0  0
  185.3010  177.1840  136.9740 C   0  0  0  0  0  1  0  0  0  0  0  0
  190.1500  177.2350  136.8880 N   0  0  0  0  0  0  0  0  0  0  0  0
  187.3730  173.7410  136.8740 C   0  0  0  0  0  0  0  0  0  0  0  0
  186.8170  174.9270  137.2140 N   0  0  0  0  0  2  0  0  0  0  0  0
  191.4020  175.2480  136.3060 N   0  0  0  0  0  1  0  0  0  0  0  0
  187.8460  175.7910  137.1790 C   0  0  0  0  0  0  0  0  0  0  0  0
  190.1860  175.8870  136.6810 C   0  0  0  0  0  0  0  0  0  0  0  0
  187.7920  177.1670  137.4170 C   0  0  0  0  0  0  0  0  0  0  0  0
  188.7390  173.8300  136.6120 C   0  0  0  0  0  3  0  0  0  0  0  0
  188.9990  177.8930  137.2370 C   0  0  0  0  0  0  0  0  0  0  0  0
  189.0050  175.1670  136.8210 C   0  0  0  0  0  0  0  0  0  0  0  0
  189.0520  179.3770  137.3910 C   0  0  0  0  0  1  0  0  0  0  0  0
  186.5680  172.5000  136.7130 C   0  0  0  0  0  2  0  0  0  0  0  0
  185.1590  172.8620  136.2750 C   0  0  0  0  0  2  0  0  0  0  0  0
  184.1360  172.2530  137.2210 C   0  0  0  0  0  2  0  0  0  0  0  0
  183.1400  171.4280  136.4710 C   0  0  0  0  0  3  0  0  0  0  0  0
  183.4220  170.1830  136.0870 C   0  0  0  0  0  2  0  0  0  0  0  0
  1 11  1  1  0  0  0
  2 25  1  1  0  0  0
  2  4  1  0  0  0  0
  2  3  1  0  0  0  0
  3 20  1  6  0  0  0
  3  1  1  0  0  0  0
  4  1  1  0  0  0  0
  5  7  1  0  0  0  0
  6  7  2  0  0  0  0
  7  9  1  0  0  0  0
  8  6  1  0  0  0  0
 10 11  1  0  0  0  0
 10  8  2  0  0  0  0
 11  5  2  0  0  0  0
 12  8  1  0  0  0  0
 14 13  1  6  0  0  0
 14 12  1  0  0  0  0
 14 15  1  0  0  0  0
 15 16  2  0  0  0  0
 15 17  1  0  0  0  0
 17 18  1  0  0  0  0
 19 17  2  0  0  0  0
 20 21  2  0  0  0  0
 22 20  1  0  0  0  0
 23 22  2  0  0  0  0
 24 23  1  0  0  0  0
 26 27  1  6  0  0  0
 26 25  1  0  0  0  0
 28 36  1  0  0  0  0
 29 30  1  0  0  0  0
 31 33  1  0  0  0  0
 32 30  1  0  0  0  0
 32 34  1  0  0  0  0
 33 37  1  0  0  0  0
 33 28  2  0  0  0  0
 34 26  1  0  0  0  0
 35 37  1  0  0  0  0
 35 29  2  0  0  0  0
 36 38  1  0  0  0  0
 36 34  2  0  0  0  0
 37 32  2  0  0  0  0
 39 29  1  0  0  0  0
 40 39  1  0  0  0  0
 40 41  1  0  0  0  0
 42 41  1  0  0  0  0
 43 42  2  0  0  0  0
M  END
>  <MODEL>
9

>  <REMARK>
 VINA RESULT:      -7.5      1.870      5.940
  Name = 
  14 active torsions:
  status: ('A' for Active; 'I' for Inactive)
    1  A    between atoms: N_2  and  C_3
    2  A    between atoms: C_3  and  C_24
    3  A    between atoms: C_4  and  C_16
    4  A    between atoms: C_4  and  C_34
    5  A    between atoms: C_5  and  C_10
    6  A    between atoms: C_5  and  C_18
    7  A    between atoms: C_7  and  C_41
    8  A    between atoms: C_8  and  C_13
    9  A    between atoms: C_8  and  C_39
   10  A    between atoms: C_9  and  C_11
   11  A    between atoms: C_9  and  C_39
   12  A    between atoms: C_18  and  N_43
   13  A    between atoms: C_26  and  C_34
   14  A    between atoms: C_33  and  N_43
                            x       y       z     vdW  Elec       q    Type
                         _______ _______ _______ _____ _____    ______ ____

>  <TORSDO>
F 14

$$$$
