=
 OpenBabel10222417203D

 46 50  0  0  1  0  0  0  0  0999 V2000
  188.0550  178.3150  137.4530 C   0  0  2  0  0  3  0  0  0  0  0  0
  184.9640  176.3460  137.1300 C   0  0  0  0  0  3  0  0  0  0  0  0
  188.3790  179.6680  136.8490 C   0  0  0  0  0  1  0  0  0  0  0  0
  188.4590  177.2020  136.4950 C   0  0  2  0  0  3  0  0  0  0  0  0
  186.5510  178.1800  137.6600 C   0  0  1  0  0  3  0  0  0  0  0  0
  187.4070  176.0910  136.6200 C   0  0  1  0  0  3  0  0  0  0  0  0
  187.8130  174.9910  137.5960 C   0  0  0  0  0  1  0  0  0  0  0  0
  186.2210  176.8130  137.1630 C   0  0  0  0  0  0  0  0  0  0  0  0
  184.5060  178.7580  140.8490 C   0  0  0  0  0  0  0  0  0  0  0  0
  184.8390  178.6160  139.4740 C   0  0  0  0  0  0  0  0  0  0  0  0
  181.2220  179.0610  136.7920 C   0  0  0  0  0  1  0  0  0  0  0  0
  185.1940  178.7930  143.1710 O   0  0  0  0  0  1  0  0  0  0  0  0
  185.5060  178.6500  141.8240 C   0  0  0  0  0  0  0  0  0  0  0  0
  187.1590  178.2540  140.1050 C   0  0  0  0  0  3  0  0  0  0  0  0
  186.8250  178.3990  141.4500 C   0  0  0  0  0  3  0  0  0  0  0  0
  186.1760  178.3640  139.1090 C   0  0  0  0  0  0  0  0  0  0  0  0
  182.1950  179.1260  140.3890 C   0  0  0  0  0  0  0  0  0  0  0  0
  183.1500  179.0140  141.2560 N   0  0  0  0  0  0  0  0  0  0  0  0
  182.4170  179.0040  138.9690 C   0  0  0  0  0  0  0  0  0  0  0  0
  180.8480  179.3740  140.7450 N   0  0  0  0  0  2  0  0  0  0  0  0
  179.8360  179.4580  139.2930 S   0  0  0  0  0  0  0  0  0  0  0  0
  181.2950  179.1500  138.2780 C   0  0  0  0  0  0  0  0  0  0  0  0
  183.7740  178.7150  138.4010 C   0  0  0  0  0  2  0  0  0  0  0  0
  184.6230  174.9940  136.5910 C   0  0  0  0  0  2  0  0  0  0  0  0
  182.3080  174.3450  137.0430 C   0  0  1  0  0  3  0  0  0  0  0  0
  183.2020  174.9960  136.0630 C   0  0  1  0  0  3  0  0  0  0  0  0
  182.3840  175.7460  136.9290 O   0  0  0  0  0  0  0  0  0  0  0  0
  181.0560  173.8530  136.3420 C   0  0  0  0  0  2  0  0  0  0  0  0
  180.1230  173.1840  137.3350 C   0  0  0  0  0  2  0  0  0  0  0  0
  180.3060  173.7290  138.6080 O   0  0  0  0  0  0  0  0  0  0  0  0
  179.0400  174.1820  138.9790 C   0  0  0  0  0  2  0  0  0  0  0  0
  179.1510  175.4990  139.5800 N   0  0  0  0  0  1  0  0  0  0  0  0
  189.8120  176.7410  136.7740 N   0  0  0  0  0  2  0  0  0  0  0  0
  191.2610  175.5260  138.8230 O   0  0  0  0  0  0  0  0  0  0  0  0
  190.2420  177.4210  137.9200 N   0  0  0  0  0  2  0  0  0  0  0  0
  190.9740  176.7470  138.9430 C   0  0  0  0  0  0  0  0  0  0  0  0
  191.3650  177.4840  140.1770 C   0  0  0  0  0  2  0  0  0  0  0  0
  190.6510  176.9230  141.3580 C   0  0  0  0  0  0  0  0  0  0  0  0
  189.7080  176.1070  141.1850 O   0  0  0  0  0  0  0  0  0  0  0  0
  191.0200  177.3430  142.6740 N   0  0  0  0  0  2  0  0  0  0  0  0
  190.3400  176.8640  143.8670 C   0  0  1  0  0  3  0  0  0  0  0  0
  190.6640  176.7380  146.4640 O   0  0  0  0  0  0  0  0  0  0  0  0
  191.5290  176.6800  145.2140 S   0  0  0  0  0  3  0  0  0  0  0  0
  189.2630  177.8600  144.2580 C   0  0  0  0  0  2  0  0  0  0  0  0
  188.0570  177.1970  144.4860 O   0  0  0  0  0  0  0  0  0  0  0  0
  187.4850  177.8750  145.5600 C   0  0  0  0  0  1  0  0  0  0  0  0
  1  3  1  6  0  0  0
  1  5  1  0  0  0  0
  2  8  2  0  0  0  0
  4  6  1  0  0  0  0
  4 33  1  1  0  0  0
  4  1  1  0  0  0  0
  5 16  1  1  0  0  0
  6  8  1  0  0  0  0
  6  7  1  1  0  0  0
  8  5  1  0  0  0  0
  9 18  1  0  0  0  0
  9 13  1  0  0  0  0
 10  9  2  0  0  0  0
 11 22  1  0  0  0  0
 13 12  1  0  0  0  0
 14 15  1  0  0  0  0
 15 13  2  0  0  0  0
 16 10  1  0  0  0  0
 16 14  2  0  0  0  0
 17 20  1  0  0  0  0
 17 18  2  0  0  0  0
 19 17  1  0  0  0  0
 21 20  1  0  0  0  0
 22 19  2  0  0  0  0
 22 21  1  0  0  0  0
 23 19  1  0  0  0  0
 23 10  1  0  0  0  0
 24  2  1  0  0  0  0
 25 28  1  6  0  0  0
 26 24  1  1  0  0  0
 26 27  1  0  0  0  0
 26 25  1  0  0  0  0
 27 25  1  0  0  0  0
 28 29  1  0  0  0  0
 29 30  1  0  0  0  0
 30 31  1  0  0  0  0
 31 32  1  0  0  0  0
 33 35  1  0  0  0  0
 34 36  2  0  0  0  0
 35 36  1  0  0  0  0
 36 37  1  0  0  0  0
 37 38  1  0  0  0  0
 38 40  1  0  0  0  0
 39 38  2  0  0  0  0
 40 41  1  0  0  0  0
 41 44  1  1  0  0  0
 41 43  1  0  0  0  0
 43 42  2  0  0  0  0
 44 45  1  0  0  0  0
 45 46  1  0  0  0  0
M  END
>  <MODEL>
1

>  <REMARK>
 VINA RESULT:      -5.6      0.000      0.000
  Name = 
  15 active torsions:
  status: ('A' for Active; 'I' for Inactive)
    1  A    between atoms: C_1  and  C_10
    2  A    between atoms: C_1  and  N_34
    3  A    between atoms: C_1  and  S_36
    4  A    between atoms: C_2  and  O_37
    5  A    between atoms: O_3  and  C_10
    6  A    between atoms: C_8  and  C_16
    7  A    between atoms: C_8  and  C_19
    8  A    between atoms: C_9  and  C_11
    9  A    between atoms: C_11  and  C_21
   10  A    between atoms: C_13  and  C_15
   11  A    between atoms: C_13  and  C_45
   12  A    between atoms: C_21  and  O_37
   13  A    between atoms: N_24  and  N_25
   14  A    between atoms: N_25  and  C_35
   15  A    between atoms: C_26  and  C_38
                            x       y       z     vdW  Elec       q    Type
                         _______ _______ _______ _____ _____    ______ ____

>  <TORSDO>
F 15

$$$$
=
 OpenBabel10222417203D

 46 50  0  0  1  0  0  0  0  0999 V2000
  184.9430  177.0230  137.2170 C   0  0  2  0  0  3  0  0  0  0  0  0
  182.7870  177.6080  140.1410 C   0  0  0  0  0  3  0  0  0  0  0  0
  185.6730  175.7550  136.8230 C   0  0  0  0  0  1  0  0  0  0  0  0
  185.8220  177.8750  138.1250 C   0  0  2  0  0  3  0  0  0  0  0  0
  183.6960  176.6810  138.0250 C   0  0  1  0  0  3  0  0  0  0  0  0
  184.9020  178.5350  139.1600 C   0  0  1  0  0  3  0  0  0  0  0  0
  184.4660  179.9420  138.7610 C   0  0  0  0  0  1  0  0  0  0  0  0
  183.7100  177.6380  139.1690 C   0  0  0  0  0  0  0  0  0  0  0  0
  180.6190  175.8130  135.9120 C   0  0  0  0  0  0  0  0  0  0  0  0
  181.8110  175.6660  136.6730 C   0  0  0  0  0  0  0  0  0  0  0  0
  183.0390  171.3310  137.0930 C   0  0  0  0  0  1  0  0  0  0  0  0
  178.9310  177.2460  134.9320 O   0  0  0  0  0  1  0  0  0  0  0  0
  180.0920  177.0900  135.6800 C   0  0  0  0  0  0  0  0  0  0  0  0
  181.8950  178.0800  136.9490 C   0  0  0  0  0  3  0  0  0  0  0  0
  180.7290  178.2160  136.1980 C   0  0  0  0  0  3  0  0  0  0  0  0
  182.4470  176.8120  137.1900 C   0  0  0  0  0  0  0  0  0  0  0  0
  180.3980  173.4640  135.5570 C   0  0  0  0  0  0  0  0  0  0  0  0
  179.9430  174.6630  135.3720 N   0  0  0  0  0  0  0  0  0  0  0  0
  181.5990  173.1970  136.3090 C   0  0  0  0  0  0  0  0  0  0  0  0
  179.7640  172.3070  135.0470 N   0  0  0  0  0  2  0  0  0  0  0  0
  180.6740  170.8570  135.5080 S   0  0  0  0  0  0  0  0  0  0  0  0
  181.8650  171.9000  136.3700 C   0  0  0  0  0  0  0  0  0  0  0  0
  182.3940  174.2950  136.9490 C   0  0  0  0  0  2  0  0  0  0  0  0
  182.8220  178.5360  141.3120 C   0  0  0  0  0  2  0  0  0  0  0  0
  184.5120  179.1290  142.9780 C   0  0  1  0  0  3  0  0  0  0  0  0
  183.7800  178.0040  142.3590 C   0  0  1  0  0  3  0  0  0  0  0  0
  183.4210  178.5130  143.6210 O   0  0  0  0  0  0  0  0  0  0  0  0
  185.8050  178.6230  143.5890 C   0  0  0  0  0  2  0  0  0  0  0  0
  185.6790  178.5430  145.0990 C   0  0  0  0  0  2  0  0  0  0  0  0
  186.3460  177.4140  145.5780 O   0  0  0  0  0  0  0  0  0  0  0  0
  187.4360  177.9250  146.2840 C   0  0  0  0  0  2  0  0  0  0  0  0
  188.6000  177.0870  146.0550 N   0  0  0  0  0  1  0  0  0  0  0  0
  186.5910  178.8370  137.3480 N   0  0  0  0  0  2  0  0  0  0  0  0
  187.3080  178.1120  134.7530 O   0  0  0  0  0  0  0  0  0  0  0  0
  187.8070  178.2200  137.0290 N   0  0  0  0  0  2  0  0  0  0  0  0
  188.1190  177.8620  135.6840 C   0  0  0  0  0  0  0  0  0  0  0  0
  189.3950  177.1520  135.3870 C   0  0  0  0  0  2  0  0  0  0  0  0
  189.8580  176.4040  136.5890 C   0  0  0  0  0  0  0  0  0  0  0  0
  189.3350  175.2940  136.8700 O   0  0  0  0  0  0  0  0  0  0  0  0
  190.8670  176.9690  137.4300 N   0  0  0  0  0  2  0  0  0  0  0  0
  191.3380  176.3100  138.6380 C   0  0  1  0  0  3  0  0  0  0  0  0
  193.5160  176.8470  137.2850 O   0  0  0  0  0  0  0  0  0  0  0  0
  193.1410  176.2130  138.6170 S   0  0  0  0  0  3  0  0  0  0  0  0
  190.8740  177.1010  139.8480 C   0  0  0  0  0  2  0  0  0  0  0  0
  189.5910  177.6030  139.6290 O   0  0  0  0  0  0  0  0  0  0  0  0
  189.0720  177.8020  140.9060 C   0  0  0  0  0  1  0  0  0  0  0  0
  1  3  1  1  0  0  0
  1  5  1  0  0  0  0
  1  4  1  0  0  0  0
  2 24  1  0  0  0  0
  4 33  1  6  0  0  0
  4  6  1  0  0  0  0
  5 16  1  6  0  0  0
  5  8  1  0  0  0  0
  6  7  1  6  0  0  0
  6  8  1  0  0  0  0
  8  2  2  0  0  0  0
  9 10  1  0  0  0  0
 10 23  1  0  0  0  0
 10 16  2  0  0  0  0
 12 13  1  0  0  0  0
 13  9  2  0  0  0  0
 13 15  1  0  0  0  0
 14 16  1  0  0  0  0
 15 14  2  0  0  0  0
 17 19  1  0  0  0  0
 18 17  2  0  0  0  0
 18  9  1  0  0  0  0
 19 22  2  0  0  0  0
 19 23  1  0  0  0  0
 20 21  1  0  0  0  0
 20 17  1  0  0  0  0
 21 22  1  0  0  0  0
 22 11  1  0  0  0  0
 25 28  1  1  0  0  0
 25 27  1  0  0  0  0
 26 24  1  6  0  0  0
 26 25  1  0  0  0  0
 26 27  1  0  0  0  0
 28 29  1  0  0  0  0
 29 30  1  0  0  0  0
 30 31  1  0  0  0  0
 32 31  1  0  0  0  0
 34 36  2  0  0  0  0
 35 33  1  0  0  0  0
 36 35  1  0  0  0  0
 37 36  1  0  0  0  0
 37 38  1  0  0  0  0
 38 39  2  0  0  0  0
 38 40  1  0  0  0  0
 40 41  1  0  0  0  0
 41 44  1  1  0  0  0
 42 43  2  0  0  0  0
 43 41  1  0  0  0  0
 45 44  1  0  0  0  0
 45 46  1  0  0  0  0
M  END
>  <MODEL>
2

>  <REMARK>
 VINA RESULT:      -5.6      3.042      6.920
  Name = 
  15 active torsions:
  status: ('A' for Active; 'I' for Inactive)
    1  A    between atoms: C_1  and  C_10
    2  A    between atoms: C_1  and  N_34
    3  A    between atoms: C_1  and  S_36
    4  A    between atoms: C_2  and  O_37
    5  A    between atoms: O_3  and  C_10
    6  A    between atoms: C_8  and  C_16
    7  A    between atoms: C_8  and  C_19
    8  A    between atoms: C_9  and  C_11
    9  A    between atoms: C_11  and  C_21
   10  A    between atoms: C_13  and  C_15
   11  A    between atoms: C_13  and  C_45
   12  A    between atoms: C_21  and  O_37
   13  A    between atoms: N_24  and  N_25
   14  A    between atoms: N_25  and  C_35
   15  A    between atoms: C_26  and  C_38
                            x       y       z     vdW  Elec       q    Type
                         _______ _______ _______ _____ _____    ______ ____

>  <TORSDO>
F 15

$$$$
=
 OpenBabel10222417203D

 46 50  0  0  1  0  0  0  0  0999 V2000
  189.3190  177.1920  135.9160 C   0  0  2  0  0  3  0  0  0  0  0  0
  191.4620  177.3920  138.9000 C   0  0  0  0  0  3  0  0  0  0  0  0
  189.4740  177.9170  134.5940 C   0  0  0  0  0  1  0  0  0  0  0  0
  188.4860  178.0290  136.8790 C   0  0  2  0  0  3  0  0  0  0  0  0
  190.6800  177.0070  136.5750 C   0  0  1  0  0  3  0  0  0  0  0  0
  189.0680  177.8200  138.2830 C   0  0  1  0  0  3  0  0  0  0  0  0
  188.3460  176.7330  139.0740 C   0  0  0  0  0  1  0  0  0  0  0  0
  190.4640  177.3760  138.0040 C   0  0  0  0  0  0  0  0  0  0  0  0
  192.9610  173.9960  135.9260 C   0  0  0  0  0  0  0  0  0  0  0  0
  192.5080  175.3390  136.0350 C   0  0  0  0  0  0  0  0  0  0  0  0
  195.7630  178.3190  135.0350 C   0  0  0  0  0  1  0  0  0  0  0  0
  192.5120  171.6220  136.0890 O   0  0  0  0  0  1  0  0  0  0  0  0
  192.0820  172.9390  136.1990 C   0  0  0  0  0  0  0  0  0  0  0  0
  190.3190  174.5150  136.6970 C   0  0  0  0  0  3  0  0  0  0  0  0
  190.7680  173.2010  136.5840 C   0  0  0  0  0  3  0  0  0  0  0  0
  191.1770  175.5910  136.4230 C   0  0  0  0  0  0  0  0  0  0  0  0
  195.1580  174.6490  135.2670 C   0  0  0  0  0  0  0  0  0  0  0  0
  194.3140  173.7040  135.5340 N   0  0  0  0  0  0  0  0  0  0  0  0
  194.8080  176.0470  135.3420 C   0  0  0  0  0  0  0  0  0  0  0  0
  196.4980  174.4070  134.8820 N   0  0  0  0  0  2  0  0  0  0  0  0
  197.3430  175.9410  134.6070 S   0  0  0  0  0  0  0  0  0  0  0  0
  195.8320  176.8300  135.0310 C   0  0  0  0  0  0  0  0  0  0  0  0
  193.4420  176.5000  135.7580 C   0  0  0  0  0  2  0  0  0  0  0  0
  191.2590  177.8040  140.3220 C   0  0  0  0  0  2  0  0  0  0  0  0
  190.9180  176.9140  142.5750 C   0  0  1  0  0  3  0  0  0  0  0  0
  191.4670  176.6130  141.2360 C   0  0  1  0  0  3  0  0  0  0  0  0
  190.2150  176.1190  141.6500 O   0  0  0  0  0  0  0  0  0  0  0  0
  191.5740  176.0180  143.6090 C   0  0  0  0  0  2  0  0  0  0  0  0
  191.0240  176.3170  144.9910 C   0  0  0  0  0  2  0  0  0  0  0  0
  191.9500  177.0570  145.7280 O   0  0  0  0  0  0  0  0  0  0  0  0
  191.6610  176.7540  147.0580 C   0  0  0  0  0  2  0  0  0  0  0  0
  190.2220  176.7480  147.2540 N   0  0  0  0  0  1  0  0  0  0  0  0
  187.0760  177.6760  136.7870 N   0  0  0  0  0  2  0  0  0  0  0  0
  184.5790  177.0840  137.8800 O   0  0  0  0  0  0  0  0  0  0  0  0
  186.3850  178.5410  137.6460 N   0  0  0  0  0  2  0  0  0  0  0  0
  185.1060  178.1910  138.1700 C   0  0  0  0  0  0  0  0  0  0  0  0
  184.3720  179.1590  139.0310 C   0  0  0  0  0  2  0  0  0  0  0  0
  184.5690  178.8200  140.4680 C   0  0  0  0  0  0  0  0  0  0  0  0
  183.8920  177.8950  140.9880 O   0  0  0  0  0  0  0  0  0  0  0  0
  185.5000  179.5710  141.2520 N   0  0  0  0  0  2  0  0  0  0  0  0
  185.7140  179.3180  142.6680 C   0  0  1  0  0  3  0  0  0  0  0  0
  183.6890  178.3470  144.0190 O   0  0  0  0  0  0  0  0  0  0  0  0
  184.2130  179.7110  143.5910 S   0  0  0  0  0  3  0  0  0  0  0  0
  186.0750  177.8560  142.8610 C   0  0  0  0  0  2  0  0  0  0  0  0
  187.4310  177.7330  143.1620 O   0  0  0  0  0  0  0  0  0  0  0  0
  187.4640  177.5080  144.5370 C   0  0  0  0  0  1  0  0  0  0  0  0
  1  3  1  6  0  0  0
  1  5  1  0  0  0  0
  1  4  1  0  0  0  0
  2 24  1  0  0  0  0
  4 33  1  1  0  0  0
  4  6  1  0  0  0  0
  5 16  1  1  0  0  0
  5  8  1  0  0  0  0
  6  7  1  6  0  0  0
  8  6  1  0  0  0  0
  8  2  2  0  0  0  0
  9 10  2  0  0  0  0
  9 13  1  0  0  0  0
 10 16  1  0  0  0  0
 12 13  1  0  0  0  0
 13 15  2  0  0  0  0
 15 14  1  0  0  0  0
 16 14  2  0  0  0  0
 17 19  1  0  0  0  0
 17 18  2  0  0  0  0
 18  9  1  0  0  0  0
 19 23  1  0  0  0  0
 20 17  1  0  0  0  0
 21 20  1  0  0  0  0
 21 22  1  0  0  0  0
 22 11  1  0  0  0  0
 22 19  2  0  0  0  0
 23 10  1  0  0  0  0
 25 28  1  1  0  0  0
 26 24  1  6  0  0  0
 26 27  1  0  0  0  0
 26 25  1  0  0  0  0
 27 25  1  0  0  0  0
 28 29  1  0  0  0  0
 29 30  1  0  0  0  0
 30 31  1  0  0  0  0
 31 32  1  0  0  0  0
 33 35  1  0  0  0  0
 34 36  2  0  0  0  0
 35 36  1  0  0  0  0
 36 37  1  0  0  0  0
 37 38  1  0  0  0  0
 38 39  2  0  0  0  0
 38 40  1  0  0  0  0
 40 41  1  0  0  0  0
 41 44  1  6  0  0  0
 41 43  1  0  0  0  0
 43 42  2  0  0  0  0
 44 45  1  0  0  0  0
 45 46  1  0  0  0  0
M  END
>  <MODEL>
3

>  <REMARK>
 VINA RESULT:      -5.5      3.786      9.621
  Name = 
  15 active torsions:
  status: ('A' for Active; 'I' for Inactive)
    1  A    between atoms: C_1  and  C_10
    2  A    between atoms: C_1  and  N_34
    3  A    between atoms: C_1  and  S_36
    4  A    between atoms: C_2  and  O_37
    5  A    between atoms: O_3  and  C_10
    6  A    between atoms: C_8  and  C_16
    7  A    between atoms: C_8  and  C_19
    8  A    between atoms: C_9  and  C_11
    9  A    between atoms: C_11  and  C_21
   10  A    between atoms: C_13  and  C_15
   11  A    between atoms: C_13  and  C_45
   12  A    between atoms: C_21  and  O_37
   13  A    between atoms: N_24  and  N_25
   14  A    between atoms: N_25  and  C_35
   15  A    between atoms: C_26  and  C_38
                            x       y       z     vdW  Elec       q    Type
                         _______ _______ _______ _____ _____    ______ ____

>  <TORSDO>
F 15

$$$$
=
 OpenBabel10222417203D

 46 50  0  0  1  0  0  0  0  0999 V2000
  186.2020  178.0690  139.8990 C   0  0  2  0  0  3  0  0  0  0  0  0
  187.7970  178.4530  136.6070 C   0  0  0  0  0  3  0  0  0  0  0  0
  185.2990  179.0440  140.6290 C   0  0  0  0  0  1  0  0  0  0  0  0
  187.6590  178.3350  140.2550 C   0  0  2  0  0  3  0  0  0  0  0  0
  186.0830  178.2720  138.3930 C   0  0  1  0  0  3  0  0  0  0  0  0
  188.4890  178.0850  138.9900 C   0  0  1  0  0  3  0  0  0  0  0  0
  189.0730  176.6760  138.9270 C   0  0  0  0  0  1  0  0  0  0  0  0
  187.4890  178.2490  137.8950 C   0  0  0  0  0  0  0  0  0  0  0  0
  183.0970  176.3960  136.8930 C   0  0  0  0  0  0  0  0  0  0  0  0
  183.8670  177.4150  137.5180 C   0  0  0  0  0  0  0  0  0  0  0  0
  181.3880  181.0780  138.4730 C   0  0  0  0  0  1  0  0  0  0  0  0
  182.9600  174.1830  135.9210 O   0  0  0  0  0  1  0  0  0  0  0  0
  183.7040  175.1880  136.5270 C   0  0  0  0  0  0  0  0  0  0  0  0
  185.8240  175.9800  137.3760 C   0  0  0  0  0  3  0  0  0  0  0  0
  185.0620  174.9840  136.7680 C   0  0  0  0  0  3  0  0  0  0  0  0
  185.2380  177.1960  137.7590 C   0  0  0  0  0  0  0  0  0  0  0  0
  181.0920  177.6870  136.9570 C   0  0  0  0  0  0  0  0  0  0  0  0
  181.6950  176.5880  136.6310 N   0  0  0  0  0  0  0  0  0  0  0  0
  181.7730  178.7850  137.5980 C   0  0  0  0  0  0  0  0  0  0  0  0
  179.7170  177.9190  136.7150 N   0  0  0  0  0  2  0  0  0  0  0  0
  179.2570  179.5300  137.2940 S   0  0  0  0  0  0  0  0  0  0  0  0
  180.9560  179.8040  137.8320 C   0  0  0  0  0  0  0  0  0  0  0  0
  183.2370  178.7360  137.9120 C   0  0  0  0  0  2  0  0  0  0  0  0
  189.2070  178.4760  136.1100 C   0  0  0  0  0  2  0  0  0  0  0  0
  190.4550  176.4100  135.7130 C   0  0  1  0  0  3  0  0  0  0  0  0
  189.4330  177.3210  135.1560 C   0  0  1  0  0  3  0  0  0  0  0  0
  189.0810  176.1150  135.7910 O   0  0  0  0  0  0  0  0  0  0  0  0
  191.0790  175.5970  134.5940 C   0  0  0  0  0  2  0  0  0  0  0  0
  192.1620  174.6880  135.1440 C   0  0  0  0  0  2  0  0  0  0  0  0
  192.3300  174.9110  136.5120 O   0  0  0  0  0  0  0  0  0  0  0  0
  193.7030  175.1030  136.6690 C   0  0  0  0  0  2  0  0  0  0  0  0
  193.9760  176.5130  136.8790 N   0  0  0  0  0  1  0  0  0  0  0  0
  188.0760  177.5150  141.3840 N   0  0  0  0  0  2  0  0  0  0  0  0
  190.1970  175.8840  142.1710 O   0  0  0  0  0  0  0  0  0  0  0  0
  189.3140  178.0130  141.8110 N   0  0  0  0  0  2  0  0  0  0  0  0
  190.3630  177.1330  142.2100 C   0  0  0  0  0  0  0  0  0  0  0  0
  191.6450  177.6960  142.7160 C   0  0  0  0  0  2  0  0  0  0  0  0
  191.5870  177.8600  144.1950 C   0  0  0  0  0  0  0  0  0  0  0  0
  192.0760  178.8920  144.7250 O   0  0  0  0  0  0  0  0  0  0  0  0
  191.0080  176.8310  145.0000 N   0  0  0  0  0  2  0  0  0  0  0  0
  190.9530  176.9100  146.4520 C   0  0  1  0  0  3  0  0  0  0  0  0
  188.4230  177.1380  145.8100 O   0  0  0  0  0  0  0  0  0  0  0  0
  189.3330  177.5190  146.9680 S   0  0  0  0  0  3  0  0  0  0  0  0
  191.1980  175.5300  147.0330 C   0  0  0  0  0  2  0  0  0  0  0  0
  192.5550  175.3590  147.3060 O   0  0  0  0  0  0  0  0  0  0  0  0
  192.8000  176.1980  148.3920 C   0  0  0  0  0  1  0  0  0  0  0  0
  1  4  1  0  0  0  0
  1  3  1  1  0  0  0
  2  8  2  0  0  0  0
  4 33  1  1  0  0  0
  5 16  1  6  0  0  0
  5  1  1  0  0  0  0
  6  7  1  1  0  0  0
  6  4  1  0  0  0  0
  8  5  1  0  0  0  0
  8  6  1  0  0  0  0
  9 10  1  0  0  0  0
 10 16  2  0  0  0  0
 10 23  1  0  0  0  0
 12 13  1  0  0  0  0
 13 15  1  0  0  0  0
 13  9  2  0  0  0  0
 14 16  1  0  0  0  0
 15 14  2  0  0  0  0
 17 19  1  0  0  0  0
 18  9  1  0  0  0  0
 18 17  2  0  0  0  0
 19 22  2  0  0  0  0
 19 23  1  0  0  0  0
 20 17  1  0  0  0  0
 20 21  1  0  0  0  0
 21 22  1  0  0  0  0
 22 11  1  0  0  0  0
 24  2  1  0  0  0  0
 25 28  1  6  0  0  0
 25 27  1  0  0  0  0
 26 25  1  0  0  0  0
 26 27  1  0  0  0  0
 26 24  1  1  0  0  0
 28 29  1  0  0  0  0
 29 30  1  0  0  0  0
 30 31  1  0  0  0  0
 31 32  1  0  0  0  0
 33 35  1  0  0  0  0
 34 36  2  0  0  0  0
 35 36  1  0  0  0  0
 36 37  1  0  0  0  0
 37 38  1  0  0  0  0
 38 39  2  0  0  0  0
 38 40  1  0  0  0  0
 40 41  1  0  0  0  0
 41 43  1  0  0  0  0
 41 44  1  1  0  0  0
 42 43  2  0  0  0  0
 44 45  1  0  0  0  0
 45 46  1  0  0  0  0
M  END
>  <MODEL>
4

>  <REMARK>
 VINA RESULT:      -5.5      2.470      5.984
  Name = 
  15 active torsions:
  status: ('A' for Active; 'I' for Inactive)
    1  A    between atoms: C_1  and  C_10
    2  A    between atoms: C_1  and  N_34
    3  A    between atoms: C_1  and  S_36
    4  A    between atoms: C_2  and  O_37
    5  A    between atoms: O_3  and  C_10
    6  A    between atoms: C_8  and  C_16
    7  A    between atoms: C_8  and  C_19
    8  A    between atoms: C_9  and  C_11
    9  A    between atoms: C_11  and  C_21
   10  A    between atoms: C_13  and  C_15
   11  A    between atoms: C_13  and  C_45
   12  A    between atoms: C_21  and  O_37
   13  A    between atoms: N_24  and  N_25
   14  A    between atoms: N_25  and  C_35
   15  A    between atoms: C_26  and  C_38
                            x       y       z     vdW  Elec       q    Type
                         _______ _______ _______ _____ _____    ______ ____

>  <TORSDO>
F 15

$$$$
=
 OpenBabel10222417203D

 46 50  0  0  1  0  0  0  0  0999 V2000
  183.3010  177.3470  138.8500 C   0  0  2  0  0  3  0  0  0  0  0  0
  181.2090  179.9960  137.3870 C   0  0  0  0  0  3  0  0  0  0  0  0
  184.7410  177.4320  139.3160 C   0  0  0  0  0  1  0  0  0  0  0  0
  183.2470  176.9640  137.3760 C   0  0  2  0  0  3  0  0  0  0  0  0
  182.6320  178.7110  138.9640 C   0  0  1  0  0  3  0  0  0  0  0  0
  182.0740  177.7280  136.7510 C   0  0  1  0  0  3  0  0  0  0  0  0
  180.7860  176.9100  136.7030 C   0  0  0  0  0  1  0  0  0  0  0  0
  181.8870  178.8780  137.6830 C   0  0  0  0  0  0  0  0  0  0  0  0
  181.3770  178.8750  142.5820 C   0  0  0  0  0  0  0  0  0  0  0  0
  182.2550  178.7830  141.4680 C   0  0  0  0  0  0  0  0  0  0  0  0
  186.5940  178.5520  142.7340 C   0  0  0  0  0  1  0  0  0  0  0  0
  179.1250  179.0380  143.4570 O   0  0  0  0  0  1  0  0  0  0  0  0
  179.9940  178.9540  142.3750 C   0  0  0  0  0  0  0  0  0  0  0  0
  180.3320  178.8650  139.9840 C   0  0  0  0  0  3  0  0  0  0  0  0
  179.4770  178.9500  141.0810 C   0  0  0  0  0  3  0  0  0  0  0  0
  181.7210  178.7780  140.1640 C   0  0  0  0  0  0  0  0  0  0  0  0
  183.1620  178.8080  144.1630 C   0  0  0  0  0  0  0  0  0  0  0  0
  181.8910  178.8850  143.9260 N   0  0  0  0  0  0  0  0  0  0  0  0
  184.1430  178.7090  143.1110 C   0  0  0  0  0  0  0  0  0  0  0  0
  183.7090  178.8180  145.4680 N   0  0  0  0  0  2  0  0  0  0  0  0
  185.4760  178.7020  145.3910 S   0  0  0  0  0  0  0  0  0  0  0  0
  185.3780  178.6480  143.5910 C   0  0  0  0  0  0  0  0  0  0  0  0
  183.7560  178.7090  141.6630 C   0  0  0  0  0  2  0  0  0  0  0  0
  180.4990  180.1850  136.0850 C   0  0  0  0  0  2  0  0  0  0  0  0
  180.4280  182.5170  135.3510 C   0  0  1  0  0  3  0  0  0  0  0  0
  179.7080  181.4780  136.1160 C   0  0  1  0  0  3  0  0  0  0  0  0
  179.3300  181.8250  134.8060 O   0  0  0  0  0  0  0  0  0  0  0  0
  179.9760  183.8920  135.8070 C   0  0  0  0  0  2  0  0  0  0  0  0
  181.1630  184.7010  136.2970 C   0  0  0  0  0  2  0  0  0  0  0  0
  180.9870  185.0510  137.6370 O   0  0  0  0  0  0  0  0  0  0  0  0
  179.6090  185.2240  137.7750 C   0  0  0  0  0  2  0  0  0  0  0  0
  179.3430  186.1730  138.8410 N   0  0  0  0  0  1  0  0  0  0  0  0
  183.1390  175.5210  137.2180 N   0  0  0  0  0  2  0  0  0  0  0  0
  184.7980  173.3890  137.9120 O   0  0  0  0  0  0  0  0  0  0  0  0
  184.2350  175.1150  136.4460 N   0  0  0  0  0  2  0  0  0  0  0  0
  185.0570  174.0210  136.8540 C   0  0  0  0  0  0  0  0  0  0  0  0
  186.2500  173.6540  136.0420 C   0  0  0  0  0  2  0  0  0  0  0  0
  187.4930  174.1240  136.7150 C   0  0  0  0  0  0  0  0  0  0  0  0
  188.3440  173.2820  137.1060 O   0  0  0  0  0  0  0  0  0  0  0  0
  187.6930  175.5210  136.9400 N   0  0  0  0  0  2  0  0  0  0  0  0
  188.8650  176.0440  137.6240 C   0  0  1  0  0  3  0  0  0  0  0  0
  189.3340  176.4750  135.0820 O   0  0  0  0  0  0  0  0  0  0  0  0
  190.0340  176.7020  136.4140 S   0  0  0  0  0  3  0  0  0  0  0  0
  188.4330  177.1430  138.5790 C   0  0  0  0  0  2  0  0  0  0  0  0
  189.5480  177.8450  139.0370 O   0  0  0  0  0  0  0  0  0  0  0  0
  189.9220  177.1820  140.2040 C   0  0  0  0  0  1  0  0  0  0  0  0
  1  5  1  0  0  0  0
  1  3  1  6  0  0  0
  2  8  2  0  0  0  0
  4 33  1  1  0  0  0
  4  1  1  0  0  0  0
  5 16  1  1  0  0  0
  6  7  1  1  0  0  0
  6  4  1  0  0  0  0
  6  8  1  0  0  0  0
  8  5  1  0  0  0  0
  9 18  1  0  0  0  0
 10 23  1  0  0  0  0
 10  9  2  0  0  0  0
 11 22  1  0  0  0  0
 13  9  1  0  0  0  0
 13 12  1  0  0  0  0
 14 16  2  0  0  0  0
 14 15  1  0  0  0  0
 15 13  2  0  0  0  0
 16 10  1  0  0  0  0
 17 20  1  0  0  0  0
 18 17  2  0  0  0  0
 19 22  2  0  0  0  0
 19 17  1  0  0  0  0
 21 20  1  0  0  0  0
 22 21  1  0  0  0  0
 23 19  1  0  0  0  0
 24  2  1  0  0  0  0
 25 28  1  1  0  0  0
 25 26  1  0  0  0  0
 26 24  1  6  0  0  0
 27 25  1  0  0  0  0
 27 26  1  0  0  0  0
 28 29  1  0  0  0  0
 29 30  1  0  0  0  0
 30 31  1  0  0  0  0
 31 32  1  0  0  0  0
 35 36  1  0  0  0  0
 35 33  1  0  0  0  0
 36 34  2  0  0  0  0
 37 38  1  0  0  0  0
 37 36  1  0  0  0  0
 38 40  1  0  0  0  0
 38 39  2  0  0  0  0
 40 41  1  0  0  0  0
 41 44  1  1  0  0  0
 42 43  2  0  0  0  0
 43 41  1  0  0  0  0
 44 45  1  0  0  0  0
 45 46  1  0  0  0  0
M  END
>  <MODEL>
5

>  <REMARK>
 VINA RESULT:      -5.4      3.884      6.987
  Name = 
  15 active torsions:
  status: ('A' for Active; 'I' for Inactive)
    1  A    between atoms: C_1  and  C_10
    2  A    between atoms: C_1  and  N_34
    3  A    between atoms: C_1  and  S_36
    4  A    between atoms: C_2  and  O_37
    5  A    between atoms: O_3  and  C_10
    6  A    between atoms: C_8  and  C_16
    7  A    between atoms: C_8  and  C_19
    8  A    between atoms: C_9  and  C_11
    9  A    between atoms: C_11  and  C_21
   10  A    between atoms: C_13  and  C_15
   11  A    between atoms: C_13  and  C_45
   12  A    between atoms: C_21  and  O_37
   13  A    between atoms: N_24  and  N_25
   14  A    between atoms: N_25  and  C_35
   15  A    between atoms: C_26  and  C_38
                            x       y       z     vdW  Elec       q    Type
                         _______ _______ _______ _____ _____    ______ ____

>  <TORSDO>
F 15

$$$$
=
 OpenBabel10222417203D

 46 50  0  0  1  0  0  0  0  0999 V2000
  187.2770  178.2880  141.0000 C   0  0  2  0  0  3  0  0  0  0  0  0
  188.9160  175.7360  143.0830 C   0  0  0  0  0  3  0  0  0  0  0  0
  186.1120  178.1190  140.0450 C   0  0  0  0  0  1  0  0  0  0  0  0
  188.5930  178.0470  140.2720 C   0  0  2  0  0  3  0  0  0  0  0  0
  187.2020  177.2440  142.1080 C   0  0  1  0  0  3  0  0  0  0  0  0
  189.5340  177.3400  141.2550 C   0  0  1  0  0  3  0  0  0  0  0  0
  190.4630  178.3020  141.9900 C   0  0  0  0  0  1  0  0  0  0  0  0
  188.5940  176.7240  142.2350 C   0  0  0  0  0  0  0  0  0  0  0  0
  184.9010  178.7930  144.7540 C   0  0  0  0  0  0  0  0  0  0  0  0
  185.3580  178.2550  143.5190 C   0  0  0  0  0  0  0  0  0  0  0  0
  182.0720  178.1010  140.4120 C   0  0  0  0  0  1  0  0  0  0  0  0
  185.3550  179.4460  147.0410 O   0  0  0  0  0  1  0  0  0  0  0  0
  185.7880  178.9150  145.8320 C   0  0  0  0  0  0  0  0  0  0  0  0
  187.5670  177.9730  144.4940 C   0  0  0  0  0  3  0  0  0  0  0  0
  187.1140  178.5060  145.6990 C   0  0  0  0  0  3  0  0  0  0  0  0
  186.7000  177.8460  143.3970 C   0  0  0  0  0  0  0  0  0  0  0  0
  182.6840  179.1280  143.9410 C   0  0  0  0  0  0  0  0  0  0  0  0
  183.5360  179.2180  144.9130 N   0  0  0  0  0  0  0  0  0  0  0  0
  183.0360  178.6010  142.6460 C   0  0  0  0  0  0  0  0  0  0  0  0
  181.3320  179.5300  144.0550 N   0  0  0  0  0  2  0  0  0  0  0  0
  180.4790  179.2510  142.5270 S   0  0  0  0  0  0  0  0  0  0  0  0
  182.0030  178.6000  141.8150 C   0  0  0  0  0  0  0  0  0  0  0  0
  184.4150  178.0990  142.3430 C   0  0  0  0  0  2  0  0  0  0  0  0
  190.3010  175.1810  143.1820 C   0  0  0  0  0  2  0  0  0  0  0  0
  191.2110  175.7510  145.3790 C   0  0  1  0  0  3  0  0  0  0  0  0
  191.1840  176.1400  143.9540 C   0  0  1  0  0  3  0  0  0  0  0  0
  192.2680  175.4320  144.5070 O   0  0  0  0  0  0  0  0  0  0  0  0
  191.6030  176.9460  146.2270 C   0  0  0  0  0  2  0  0  0  0  0  0
  190.9370  176.8690  147.5890 C   0  0  0  0  0  2  0  0  0  0  0  0
  189.5720  177.1400  147.4720 O   0  0  0  0  0  0  0  0  0  0  0  0
  189.3210  178.0980  148.4540 C   0  0  0  0  0  2  0  0  0  0  0  0
  188.0150  177.8590  149.0430 N   0  0  0  0  0  1  0  0  0  0  0  0
  189.1380  179.2950  139.7560 N   0  0  0  0  0  2  0  0  0  0  0  0
  189.9790  177.3560  137.9350 O   0  0  0  0  0  0  0  0  0  0  0  0
  188.8310  179.3360  138.3890 N   0  0  0  0  0  2  0  0  0  0  0  0
  189.2960  178.3210  137.5010 C   0  0  0  0  0  0  0  0  0  0  0  0
  189.0030  178.4270  136.0440 C   0  0  0  0  0  2  0  0  0  0  0  0
  188.2340  177.2360  135.5870 C   0  0  0  0  0  0  0  0  0  0  0  0
  188.6400  176.5780  134.5940 O   0  0  0  0  0  0  0  0  0  0  0  0
  187.0250  176.8730  136.2580 N   0  0  0  0  0  2  0  0  0  0  0  0
  186.2060  175.7460  135.8400 C   0  0  1  0  0  3  0  0  0  0  0  0
  188.0730  174.4460  137.1400 O   0  0  0  0  0  0  0  0  0  0  0  0
  186.5830  174.3060  136.8620 S   0  0  0  0  0  3  0  0  0  0  0  0
  184.7410  176.1170  135.9850 C   0  0  0  0  0  2  0  0  0  0  0  0
  184.6110  177.2480  136.7910 O   0  0  0  0  0  0  0  0  0  0  0  0
  183.2370  177.4650  136.8680 C   0  0  0  0  0  1  0  0  0  0  0  0
  1  3  1  6  0  0  0
  1  5  1  0  0  0  0
  2 24  1  0  0  0  0
  4 33  1  1  0  0  0
  4  1  1  0  0  0  0
  4  6  1  0  0  0  0
  5  8  1  0  0  0  0
  5 16  1  1  0  0  0
  6  7  1  1  0  0  0
  6  8  1  0  0  0  0
  8  2  2  0  0  0  0
  9 18  1  0  0  0  0
  9 13  1  0  0  0  0
 10  9  2  0  0  0  0
 11 22  1  0  0  0  0
 13 12  1  0  0  0  0
 14 15  1  0  0  0  0
 15 13  2  0  0  0  0
 16 10  1  0  0  0  0
 16 14  2  0  0  0  0
 17 20  1  0  0  0  0
 17 18  2  0  0  0  0
 19 17  1  0  0  0  0
 21 20  1  0  0  0  0
 22 21  1  0  0  0  0
 22 19  2  0  0  0  0
 23 19  1  0  0  0  0
 23 10  1  0  0  0  0
 25 28  1  1  0  0  0
 26 24  1  6  0  0  0
 26 27  1  0  0  0  0
 26 25  1  0  0  0  0
 27 25  1  0  0  0  0
 28 29  1  0  0  0  0
 30 29  1  0  0  0  0
 30 31  1  0  0  0  0
 31 32  1  0  0  0  0
 35 33  1  0  0  0  0
 36 34  2  0  0  0  0
 36 35  1  0  0  0  0
 37 36  1  0  0  0  0
 38 37  1  0  0  0  0
 38 40  1  0  0  0  0
 39 38  2  0  0  0  0
 41 44  1  1  0  0  0
 41 40  1  0  0  0  0
 41 43  1  0  0  0  0
 43 42  2  0  0  0  0
 44 45  1  0  0  0  0
 45 46  1  0  0  0  0
M  END
>  <MODEL>
6

>  <REMARK>
 VINA RESULT:      -5.4      3.137      7.667
  Name = 
  15 active torsions:
  status: ('A' for Active; 'I' for Inactive)
    1  A    between atoms: C_1  and  C_10
    2  A    between atoms: C_1  and  N_34
    3  A    between atoms: C_1  and  S_36
    4  A    between atoms: C_2  and  O_37
    5  A    between atoms: O_3  and  C_10
    6  A    between atoms: C_8  and  C_16
    7  A    between atoms: C_8  and  C_19
    8  A    between atoms: C_9  and  C_11
    9  A    between atoms: C_11  and  C_21
   10  A    between atoms: C_13  and  C_15
   11  A    between atoms: C_13  and  C_45
   12  A    between atoms: C_21  and  O_37
   13  A    between atoms: N_24  and  N_25
   14  A    between atoms: N_25  and  C_35
   15  A    between atoms: C_26  and  C_38
                            x       y       z     vdW  Elec       q    Type
                         _______ _______ _______ _____ _____    ______ ____

>  <TORSDO>
F 15

$$$$
=
 OpenBabel10222417203D

 46 50  0  0  1  0  0  0  0  0999 V2000
  188.0950  177.5030  137.2470 C   0  0  2  0  0  3  0  0  0  0  0  0
  184.5400  176.9490  136.4810 C   0  0  0  0  0  3  0  0  0  0  0  0
  189.0100  178.5990  136.7380 C   0  0  0  0  0  1  0  0  0  0  0  0
  188.1310  176.3070  136.3030 C   0  0  2  0  0  3  0  0  0  0  0  0
  186.6510  177.9910  137.2660 C   0  0  1  0  0  3  0  0  0  0  0  0
  186.7150  175.7200  136.2580 C   0  0  1  0  0  3  0  0  0  0  0  0
  186.5170  174.5640  137.2350 C   0  0  0  0  0  1  0  0  0  0  0  0
  185.8630  176.8680  136.6820 C   0  0  0  0  0  0  0  0  0  0  0  0
  186.6640  178.5740  141.0540 C   0  0  0  0  0  0  0  0  0  0  0  0
  187.1000  178.2210  139.7480 C   0  0  0  0  0  0  0  0  0  0  0  0
  191.4110  176.8430  139.7080 C   0  0  0  0  0  1  0  0  0  0  0  0
  184.9130  179.3660  142.5270 O   0  0  0  0  0  1  0  0  0  0  0  0
  185.3520  179.0230  141.2540 C   0  0  0  0  0  0  0  0  0  0  0  0
  184.8980  178.7900  138.8910 C   0  0  0  0  0  3  0  0  0  0  0  0
  184.4760  179.1300  140.1750 C   0  0  0  0  0  3  0  0  0  0  0  0
  186.2050  178.3310  138.6660 C   0  0  0  0  0  0  0  0  0  0  0  0
  188.7730  178.0590  142.0420 C   0  0  0  0  0  0  0  0  0  0  0  0
  187.5540  178.4750  142.1800 N   0  0  0  0  0  0  0  0  0  0  0  0
  189.3210  177.6720  140.7660 C   0  0  0  0  0  0  0  0  0  0  0  0
  189.6820  177.9500  143.1210 N   0  0  0  0  0  2  0  0  0  0  0  0
  191.2480  177.3540  142.5440 S   0  0  0  0  0  0  0  0  0  0  0  0
  190.5860  177.2870  140.8680 C   0  0  0  0  0  0  0  0  0  0  0  0
  188.5180  177.7450  139.5030 C   0  0  0  0  0  2  0  0  0  0  0  0
  183.7520  175.8440  135.8550 C   0  0  0  0  0  2  0  0  0  0  0  0
  181.5880  175.2050  136.7990 C   0  0  1  0  0  3  0  0  0  0  0  0
  183.0500  175.0400  136.9310 C   0  0  1  0  0  3  0  0  0  0  0  0
  182.2470  174.0540  136.3280 O   0  0  0  0  0  0  0  0  0  0  0  0
  180.9170  174.8910  138.1230 C   0  0  0  0  0  2  0  0  0  0  0  0
  180.1070  176.0830  138.5990 C   0  0  0  0  0  2  0  0  0  0  0  0
  179.6990  175.8900  139.9200 O   0  0  0  0  0  0  0  0  0  0  0  0
  180.0680  177.0650  140.5760 C   0  0  0  0  0  2  0  0  0  0  0  0
  179.2370  177.2460  141.7530 N   0  0  0  0  0  1  0  0  0  0  0  0
  189.1370  175.3420  136.7250 N   0  0  0  0  0  2  0  0  0  0  0  0
  191.6400  174.2680  137.3240 O   0  0  0  0  0  0  0  0  0  0  0  0
  190.2880  175.6000  135.9680 N   0  0  0  0  0  2  0  0  0  0  0  0
  191.5460  175.0300  136.3260 C   0  0  0  0  0  0  0  0  0  0  0  0
  192.7610  175.3730  135.5360 C   0  0  0  0  0  2  0  0  0  0  0  0
  193.9080  175.6410  136.4480 C   0  0  0  0  0  0  0  0  0  0  0  0
  193.9580  176.7290  137.0790 O   0  0  0  0  0  0  0  0  0  0  0  0
  194.9560  174.6780  136.5700 N   0  0  0  0  0  2  0  0  0  0  0  0
  196.1220  174.8930  137.4130 C   0  0  1  0  0  3  0  0  0  0  0  0
  195.2970  172.7620  138.6940 O   0  0  0  0  0  0  0  0  0  0  0  0
  195.8530  174.1370  139.0310 S   0  0  0  0  0  3  0  0  0  0  0  0
  197.3370  174.2730  136.7460 C   0  0  0  0  0  2  0  0  0  0  0  0
  198.2630  175.2640  136.4210 O   0  0  0  0  0  0  0  0  0  0  0  0
  198.6090  174.9970  135.0980 C   0  0  0  0  0  1  0  0  0  0  0  0
  1  3  1  6  0  0  0
  1  5  1  0  0  0  0
  2  8  2  0  0  0  0
  4 33  1  1  0  0  0
  4  1  1  0  0  0  0
  5 16  1  1  0  0  0
  6  4  1  0  0  0  0
  6  8  1  0  0  0  0
  6  7  1  1  0  0  0
  8  5  1  0  0  0  0
  9 13  1  0  0  0  0
  9 18  1  0  0  0  0
 10  9  2  0  0  0  0
 11 22  1  0  0  0  0
 13 12  1  0  0  0  0
 14 15  1  0  0  0  0
 15 13  2  0  0  0  0
 16 14  2  0  0  0  0
 16 10  1  0  0  0  0
 17 18  2  0  0  0  0
 17 20  1  0  0  0  0
 19 22  2  0  0  0  0
 19 17  1  0  0  0  0
 21 20  1  0  0  0  0
 22 21  1  0  0  0  0
 23 10  1  0  0  0  0
 23 19  1  0  0  0  0
 24  2  1  0  0  0  0
 25 26  1  0  0  0  0
 25 28  1  1  0  0  0
 26 24  1  6  0  0  0
 27 25  1  0  0  0  0
 27 26  1  0  0  0  0
 28 29  1  0  0  0  0
 29 30  1  0  0  0  0
 30 31  1  0  0  0  0
 31 32  1  0  0  0  0
 35 36  1  0  0  0  0
 35 33  1  0  0  0  0
 36 34  2  0  0  0  0
 37 36  1  0  0  0  0
 37 38  1  0  0  0  0
 38 40  1  0  0  0  0
 38 39  2  0  0  0  0
 40 41  1  0  0  0  0
 41 44  1  6  0  0  0
 41 43  1  0  0  0  0
 42 43  2  0  0  0  0
 45 44  1  0  0  0  0
 46 45  1  0  0  0  0
M  END
>  <MODEL>
7

>  <REMARK>
 VINA RESULT:      -5.3      3.224      5.977
  Name = 
  15 active torsions:
  status: ('A' for Active; 'I' for Inactive)
    1  A    between atoms: C_1  and  C_10
    2  A    between atoms: C_1  and  N_34
    3  A    between atoms: C_1  and  S_36
    4  A    between atoms: C_2  and  O_37
    5  A    between atoms: O_3  and  C_10
    6  A    between atoms: C_8  and  C_16
    7  A    between atoms: C_8  and  C_19
    8  A    between atoms: C_9  and  C_11
    9  A    between atoms: C_11  and  C_21
   10  A    between atoms: C_13  and  C_15
   11  A    between atoms: C_13  and  C_45
   12  A    between atoms: C_21  and  O_37
   13  A    between atoms: N_24  and  N_25
   14  A    between atoms: N_25  and  C_35
   15  A    between atoms: C_26  and  C_38
                            x       y       z     vdW  Elec       q    Type
                         _______ _______ _______ _____ _____    ______ ____

>  <TORSDO>
F 15

$$$$
=
 OpenBabel10222417203D

 46 50  0  0  1  0  0  0  0  0999 V2000
  189.2360  177.9770  138.8470 C   0  0  2  0  0  3  0  0  0  0  0  0
  191.9650  177.3800  141.2400 C   0  0  0  0  0  3  0  0  0  0  0  0
  189.0550  179.1430  137.8950 C   0  0  0  0  0  1  0  0  0  0  0  0
  188.5870  178.2900  140.1900 C   0  0  2  0  0  3  0  0  0  0  0  0
  190.7170  177.7540  139.1270 C   0  0  1  0  0  3  0  0  0  0  0  0
  189.4740  177.6720  141.2780 C   0  0  1  0  0  3  0  0  0  0  0  0
  189.0070  176.2860  141.7130 C   0  0  0  0  0  1  0  0  0  0  0  0
  190.7980  177.5520  140.6030 C   0  0  0  0  0  0  0  0  0  0  0  0
  190.9040  174.6410  136.8990 C   0  0  0  0  0  0  0  0  0  0  0  0
  190.3750  175.7360  137.6370 C   0  0  0  0  0  0  0  0  0  0  0  0
  185.8740  176.0260  137.2590 C   0  0  0  0  0  1  0  0  0  0  0  0
  192.8110  173.3290  136.1920 O   0  0  0  0  0  1  0  0  0  0  0  0
  192.2830  174.3990  136.9040 C   0  0  0  0  0  0  0  0  0  0  0  0
  192.6290  176.3090  138.3440 C   0  0  0  0  0  3  0  0  0  0  0  0
  193.1390  175.2320  137.6230 C   0  0  0  0  0  3  0  0  0  0  0  0
  191.2490  176.5700  138.3620 C   0  0  0  0  0  0  0  0  0  0  0  0
  188.7560  173.9560  136.1200 C   0  0  0  0  0  0  0  0  0  0  0  0
  190.0380  173.7730  136.1470 N   0  0  0  0  0  0  0  0  0  0  0  0
  188.1100  175.0310  136.8320 C   0  0  0  0  0  0  0  0  0  0  0  0
  187.8690  173.1280  135.3910 N   0  0  0  0  0  2  0  0  0  0  0  0
  186.2010  173.6930  135.5910 S   0  0  0  0  0  0  0  0  0  0  0  0
  186.7970  175.0240  136.6520 C   0  0  0  0  0  0  0  0  0  0  0  0
  188.8870  176.0270  137.6380 C   0  0  0  0  0  2  0  0  0  0  0  0
  192.0560  177.2220  142.7240 C   0  0  0  0  0  2  0  0  0  0  0  0
  190.6720  177.6410  144.6970 C   0  0  1  0  0  3  0  0  0  0  0  0
  191.1150  178.1980  143.4020 C   0  0  1  0  0  3  0  0  0  0  0  0
  191.6800  178.6200  144.6200 O   0  0  0  0  0  0  0  0  0  0  0  0
  189.3690  178.2950  145.1150 C   0  0  0  0  0  2  0  0  0  0  0  0
  188.4350  177.2670  145.7280 C   0  0  0  0  0  2  0  0  0  0  0  0
  187.6930  177.8450  146.7590 O   0  0  0  0  0  0  0  0  0  0  0  0
  186.3990  177.9440  146.2460 C   0  0  0  0  0  2  0  0  0  0  0  0
  185.6810  179.0000  146.9370 N   0  0  0  0  0  1  0  0  0  0  0  0
  187.2140  177.8060  140.2280 N   0  0  0  0  0  2  0  0  0  0  0  0
  186.2680  177.4870  142.8320 O   0  0  0  0  0  0  0  0  0  0  0  0
  186.4610  178.7780  140.8990 N   0  0  0  0  0  2  0  0  0  0  0  0
  185.9950  178.5590  142.2290 C   0  0  0  0  0  0  0  0  0  0  0  0
  185.1460  179.5870  142.8920 C   0  0  0  0  0  2  0  0  0  0  0  0
  183.7600  179.0720  143.0710 C   0  0  0  0  0  0  0  0  0  0  0  0
  183.4010  178.6280  144.1930 O   0  0  0  0  0  0  0  0  0  0  0  0
  182.8610  179.0560  141.9590 N   0  0  0  0  0  2  0  0  0  0  0  0
  181.5070  178.5320  142.0540 C   0  0  1  0  0  3  0  0  0  0  0  0
  180.0560  180.6840  141.7020 O   0  0  0  0  0  0  0  0  0  0  0  0
  180.4360  179.7520  142.8440 S   0  0  0  0  0  3  0  0  0  0  0  0
  180.9980  178.2180  140.6590 C   0  0  0  0  0  2  0  0  0  0  0  0
  180.5170  176.9090  140.6080 O   0  0  0  0  0  0  0  0  0  0  0  0
  179.1340  177.0500  140.5120 C   0  0  0  0  0  1  0  0  0  0  0  0
  1  3  1  6  0  0  0
  1  5  1  0  0  0  0
  1  4  1  0  0  0  0
  2 24  1  0  0  0  0
  4 33  1  6  0  0  0
  4  6  1  0  0  0  0
  5 16  1  6  0  0  0
  5  8  1  0  0  0  0
  6  7  1  6  0  0  0
  8  2  2  0  0  0  0
  8  6  1  0  0  0  0
  9 13  2  0  0  0  0
  9 10  1  0  0  0  0
 10 23  1  0  0  0  0
 10 16  2  0  0  0  0
 12 13  1  0  0  0  0
 13 15  1  0  0  0  0
 14 16  1  0  0  0  0
 15 14  2  0  0  0  0
 17 18  2  0  0  0  0
 17 19  1  0  0  0  0
 18  9  1  0  0  0  0
 19 23  1  0  0  0  0
 20 21  1  0  0  0  0
 20 17  1  0  0  0  0
 21 22  1  0  0  0  0
 22 19  2  0  0  0  0
 22 11  1  0  0  0  0
 25 28  1  1  0  0  0
 26 24  1  6  0  0  0
 26 27  1  0  0  0  0
 26 25  1  0  0  0  0
 27 25  1  0  0  0  0
 28 29  1  0  0  0  0
 29 30  1  0  0  0  0
 31 30  1  0  0  0  0
 31 32  1  0  0  0  0
 33 35  1  0  0  0  0
 35 36  1  0  0  0  0
 36 34  2  0  0  0  0
 36 37  1  0  0  0  0
 37 38  1  0  0  0  0
 38 39  2  0  0  0  0
 40 41  1  0  0  0  0
 40 38  1  0  0  0  0
 41 44  1  6  0  0  0
 41 43  1  0  0  0  0
 42 43  2  0  0  0  0
 45 44  1  0  0  0  0
 46 45  1  0  0  0  0
M  END
>  <MODEL>
8

>  <REMARK>
 VINA RESULT:      -5.2      3.256      8.611
  Name = 
  15 active torsions:
  status: ('A' for Active; 'I' for Inactive)
    1  A    between atoms: C_1  and  C_10
    2  A    between atoms: C_1  and  N_34
    3  A    between atoms: C_1  and  S_36
    4  A    between atoms: C_2  and  O_37
    5  A    between atoms: O_3  and  C_10
    6  A    between atoms: C_8  and  C_16
    7  A    between atoms: C_8  and  C_19
    8  A    between atoms: C_9  and  C_11
    9  A    between atoms: C_11  and  C_21
   10  A    between atoms: C_13  and  C_15
   11  A    between atoms: C_13  and  C_45
   12  A    between atoms: C_21  and  O_37
   13  A    between atoms: N_24  and  N_25
   14  A    between atoms: N_25  and  C_35
   15  A    between atoms: C_26  and  C_38
                            x       y       z     vdW  Elec       q    Type
                         _______ _______ _______ _____ _____    ______ ____

>  <TORSDO>
F 15

$$$$
=
 OpenBabel10222417203D

 46 50  0  0  1  0  0  0  0  0999 V2000
  188.1930  177.8340  137.4760 C   0  0  2  0  0  3  0  0  0  0  0  0
  184.7930  176.9290  136.4030 C   0  0  0  0  0  3  0  0  0  0  0  0
  189.0140  179.0480  137.0860 C   0  0  0  0  0  1  0  0  0  0  0  0
  188.4370  176.6960  136.4920 C   0  0  2  0  0  3  0  0  0  0  0  0
  186.7060  178.1590  137.3970 C   0  0  1  0  0  3  0  0  0  0  0  0
  187.1050  175.9590  136.3100 C   0  0  1  0  0  3  0  0  0  0  0  0
  186.9650  174.7430  137.2220 C   0  0  0  0  0  1  0  0  0  0  0  0
  186.0970  176.9850  136.7070 C   0  0  0  0  0  0  0  0  0  0  0  0
  186.3490  178.4880  141.1980 C   0  0  0  0  0  0  0  0  0  0  0  0
  186.9200  178.2460  139.9190 C   0  0  0  0  0  0  0  0  0  0  0  0
  191.2910  177.1080  140.1910 C   0  0  0  0  0  1  0  0  0  0  0  0
  184.4310  179.0850  142.5500 O   0  0  0  0  0  1  0  0  0  0  0  0
  185.0010  178.8520  141.3030 C   0  0  0  0  0  0  0  0  0  0  0  0
  184.7710  178.7530  138.8990 C   0  0  0  0  0  3  0  0  0  0  0  0
  184.2180  178.9840  140.1570 C   0  0  0  0  0  3  0  0  0  0  0  0
  186.1180  178.3810  138.7670 C   0  0  0  0  0  0  0  0  0  0  0  0
  188.3890  178.0230  142.3430 C   0  0  0  0  0  0  0  0  0  0  0  0
  187.1410  178.3620  142.3930 N   0  0  0  0  0  0  0  0  0  0  0  0
  189.0700  177.7510  141.1010 C   0  0  0  0  0  0  0  0  0  0  0  0
  189.2040  177.8900  143.4920 N   0  0  0  0  0  2  0  0  0  0  0  0
  190.8480  177.4190  143.0260 S   0  0  0  0  0  0  0  0  0  0  0  0
  190.3420  177.4290  141.2950 C   0  0  0  0  0  0  0  0  0  0  0  0
  188.3790  177.8640  139.7760 C   0  0  0  0  0  2  0  0  0  0  0  0
  184.1860  175.7750  135.6720 C   0  0  0  0  0  2  0  0  0  0  0  0
  182.0750  174.6770  136.2400 C   0  0  1  0  0  3  0  0  0  0  0  0
  183.4820  174.8590  136.6530 C   0  0  1  0  0  3  0  0  0  0  0  0
  183.0540  173.6980  135.9830 O   0  0  0  0  0  0  0  0  0  0  0  0
  181.2440  174.2510  137.4360 C   0  0  0  0  0  2  0  0  0  0  0  0
  180.1900  175.2990  137.7450 C   0  0  0  0  0  2  0  0  0  0  0  0
  180.3770  175.8040  139.0330 O   0  0  0  0  0  0  0  0  0  0  0  0
  179.0960  176.1550  139.4600 C   0  0  0  0  0  2  0  0  0  0  0  0
  179.0770  176.2540  140.9090 N   0  0  0  0  0  1  0  0  0  0  0  0
  189.5110  175.8290  136.9570 N   0  0  0  0  0  2  0  0  0  0  0  0
  192.0760  174.9850  137.6530 O   0  0  0  0  0  0  0  0  0  0  0  0
  190.6620  176.1950  136.2470 N   0  0  0  0  0  2  0  0  0  0  0  0
  191.9520  175.7400  136.6530 C   0  0  0  0  0  0  0  0  0  0  0  0
  193.1610  176.1960  135.9130 C   0  0  0  0  0  2  0  0  0  0  0  0
  194.1710  175.1030  135.8560 C   0  0  0  0  0  0  0  0  0  0  0  0
  194.1260  174.2630  134.9200 O   0  0  0  0  0  0  0  0  0  0  0  0
  195.1610  174.9990  136.8830 N   0  0  0  0  0  2  0  0  0  0  0  0
  196.1530  173.9350  136.9090 C   0  0  1  0  0  3  0  0  0  0  0  0
  197.6800  176.0020  136.3970 O   0  0  0  0  0  0  0  0  0  0  0  0
  197.6780  174.5050  136.1270 S   0  0  0  0  0  3  0  0  0  0  0  0
  196.4230  173.5450  138.3500 C   0  0  0  0  0  2  0  0  0  0  0  0
  195.4350  172.6700  138.8020 O   0  0  0  0  0  0  0  0  0  0  0  0
  195.6040  171.5230  138.0290 C   0  0  0  0  0  1  0  0  0  0  0  0
  1  3  1  6  0  0  0
  2  8  2  0  0  0  0
  4 33  1  1  0  0  0
  4  1  1  0  0  0  0
  5  1  1  0  0  0  0
  5 16  1  1  0  0  0
  6  4  1  0  0  0  0
  6  8  1  0  0  0  0
  6  7  1  1  0  0  0
  8  5  1  0  0  0  0
  9 13  1  0  0  0  0
  9 18  1  0  0  0  0
 10  9  2  0  0  0  0
 11 22  1  0  0  0  0
 13 12  1  0  0  0  0
 14 15  1  0  0  0  0
 15 13  2  0  0  0  0
 16 14  2  0  0  0  0
 16 10  1  0  0  0  0
 17 18  2  0  0  0  0
 17 20  1  0  0  0  0
 19 22  2  0  0  0  0
 19 17  1  0  0  0  0
 21 20  1  0  0  0  0
 22 21  1  0  0  0  0
 23 10  1  0  0  0  0
 23 19  1  0  0  0  0
 24  2  1  0  0  0  0
 25 26  1  0  0  0  0
 25 28  1  1  0  0  0
 26 24  1  6  0  0  0
 27 25  1  0  0  0  0
 27 26  1  0  0  0  0
 28 29  1  0  0  0  0
 29 30  1  0  0  0  0
 30 31  1  0  0  0  0
 31 32  1  0  0  0  0
 35 36  1  0  0  0  0
 35 33  1  0  0  0  0
 36 34  2  0  0  0  0
 37 36  1  0  0  0  0
 38 37  1  0  0  0  0
 38 40  1  0  0  0  0
 39 38  2  0  0  0  0
 40 41  1  0  0  0  0
 41 44  1  1  0  0  0
 43 42  2  0  0  0  0
 43 41  1  0  0  0  0
 44 45  1  0  0  0  0
 46 45  1  0  0  0  0
M  END
>  <MODEL>
9

>  <REMARK>
 VINA RESULT:      -5.1      3.290      5.832
  Name = 
  15 active torsions:
  status: ('A' for Active; 'I' for Inactive)
    1  A    between atoms: C_1  and  C_10
    2  A    between atoms: C_1  and  N_34
    3  A    between atoms: C_1  and  S_36
    4  A    between atoms: C_2  and  O_37
    5  A    between atoms: O_3  and  C_10
    6  A    between atoms: C_8  and  C_16
    7  A    between atoms: C_8  and  C_19
    8  A    between atoms: C_9  and  C_11
    9  A    between atoms: C_11  and  C_21
   10  A    between atoms: C_13  and  C_15
   11  A    between atoms: C_13  and  C_45
   12  A    between atoms: C_21  and  O_37
   13  A    between atoms: N_24  and  N_25
   14  A    between atoms: N_25  and  C_35
   15  A    between atoms: C_26  and  C_38
                            x       y       z     vdW  Elec       q    Type
                         _______ _______ _______ _____ _____    ______ ____

>  <TORSDO>
F 15

$$$$
