=
 OpenBabel10222415313D

 31 35  0  0  1  0  0  0  0  0999 V2000
  190.9300  176.7270  138.7840 C   0  0  0  0  0  2  0  0  0  0  0  0
  190.1470  177.5730  137.7680 C   0  0  0  0  0  2  0  0  0  0  0  0
  188.8950  178.2430  138.3590 C   0  0  2  0  0  3  0  0  0  0  0  0
  190.7650  177.2610  140.2050 C   0  0  0  0  0  2  0  0  0  0  0  0
  188.3050  177.3730  139.4700 C   0  0  0  0  0  2  0  0  0  0  0  0
  189.2920  177.2480  140.6440 C   0  0  2  0  0  3  0  0  0  0  0  0
  185.7970  178.8810  138.6570 N   0  0  0  0  0  0  0  0  0  0  0  0
  186.5640  176.4580  136.1890 C   0  0  2  0  0  3  0  0  0  0  0  0
  184.6260  178.2020  138.6920 C   0  0  0  0  0  0  0  0  0  0  0  0
  188.0920  177.4260  135.8330 S   0  0  0  0  0  0  0  0  0  0  0  0
  185.8800  177.2390  137.2360 C   0  0  0  0  0  0  0  0  0  0  0  0
  184.6250  177.1230  137.8010 C   0  0  0  0  0  3  0  0  0  0  0  0
  187.8600  178.5560  137.2760 C   0  0  1  0  0  3  0  0  0  0  0  0
  186.5300  178.2590  137.7570 N   0  0  0  0  0  0  0  0  0  0  0  0
  182.7880  177.2690  140.0570 C   0  0  0  0  0  2  0  0  0  0  0  0
  183.7820  177.9270  140.9880 C   0  0  2  0  0  3  0  0  0  0  0  0
  183.0330  178.7190  142.0390 C   0  0  0  0  0  1  0  0  0  0  0  0
  183.5060  178.5340  139.6250 C   0  0  1  0  0  3  0  0  0  0  0  0
  187.0290  174.8300  136.8530 S   0  0  0  0  0  0  0  0  0  0  0  0
  188.5930  174.8060  135.9310 C   0  0  0  0  0  1  0  0  0  0  0  0
  187.7200  178.7530  141.6660 O   0  0  0  0  0  1  0  0  0  0  0  0
  189.0510  178.3200  141.7140 C   0  0  1  0  0  3  0  0  0  0  0  0
  189.4150  177.7990  143.1220 C   0  0  1  0  0  3  0  0  0  0  0  0
  190.9480  178.0120  145.0210 O   0  0  0  0  0  0  0  0  0  0  0  0
  191.7400  178.3480  143.9100 C   0  0  0  0  0  2  0  0  0  0  0  0
  190.3070  178.7190  143.9850 C   0  0  1  0  0  3  0  0  0  0  0  0
  187.6940  176.1510  143.6240 C   0  0  0  0  0  2  0  0  0  0  0  0
  188.2200  177.3400  143.9020 C   0  0  0  0  0  0  0  0  0  0  0  0
  187.6860  178.1670  144.8990 O   0  0  0  0  0  0  0  0  0  0  0  0
  185.3770  178.7670  145.1220 C   0  0  0  0  0  1  0  0  0  0  0  0
  186.4890  177.8600  145.6010 C   0  0  0  0  0  2  0  0  0  0  0  0
  1  4  1  0  0  0  0
  2  1  1  0  0  0  0
  3  2  1  6  0  0  0
  3  5  1  0  0  0  0
  4  6  1  0  0  0  0
  5  6  1  0  0  0  0
  6 22  1  1  0  0  0
  7  9  2  0  0  0  0
  8 19  1  1  0  0  0
  8 11  1  0  0  0  0
 10  8  1  0  0  0  0
 11 14  1  0  0  0  0
 11 12  2  0  0  0  0
 12  9  1  0  0  0  0
 13 10  1  6  0  0  0
 13 14  1  0  0  0  0
 13  3  1  0  0  0  0
 14  7  1  0  0  0  0
 15 16  1  0  0  0  0
 16 17  1  1  0  0  0
 18  9  1  6  0  0  0
 18 15  1  0  0  0  0
 18 16  1  0  0  0  0
 20 19  1  0  0  0  0
 22 21  1  1  0  0  0
 22 23  1  0  0  0  0
 23 28  1  1  0  0  0
 25 26  1  0  0  0  0
 25 24  1  0  0  0  0
 26 23  1  6  0  0  0
 26 24  1  0  0  0  0
 27 28  2  0  0  0  0
 28 29  1  0  0  0  0
 29 31  1  0  0  0  0
 30 31  1  0  0  0  0
M  END
>  <MODEL>
1

>  <REMARK>
 VINA RESULT:      -6.8      0.000      0.000
  Name = 
  9 active torsions:
  status: ('A' for Active; 'I' for Inactive)
    1  A    between atoms: C_4  and  S_22
    2  A    between atoms: C_10  and  C_21
    3  A    between atoms: C_13  and  C_25
    4  A    between atoms: C_16  and  C_20
    5  A    between atoms: C_16  and  C_27
    6  A    between atoms: C_17  and  C_20
    7  A    between atoms: C_17  and  O_31
    8  A    between atoms: C_20  and  C_30
    9  A    between atoms: C_29  and  O_31
                            x       y       z     vdW  Elec       q    Type
                         _______ _______ _______ _____ _____    ______ ____

>  <TORSDO>
F 9

$$$$
=
 OpenBabel10222415313D

 31 35  0  0  1  0  0  0  0  0999 V2000
  190.9230  176.4860  139.2170 C   0  0  0  0  0  2  0  0  0  0  0  0
  190.2940  177.3120  138.0830 C   0  0  0  0  0  2  0  0  0  0  0  0
  189.0840  178.1500  138.5310 C   0  0  2  0  0  3  0  0  0  0  0  0
  190.7280  177.1560  140.5750 C   0  0  0  0  0  2  0  0  0  0  0  0
  188.3420  177.4420  139.6650 C   0  0  0  0  0  2  0  0  0  0  0  0
  189.2370  177.3250  140.9110 C   0  0  2  0  0  3  0  0  0  0  0  0
  185.9730  178.7930  138.5410 N   0  0  0  0  0  0  0  0  0  0  0  0
  186.9610  176.3710  136.1520 C   0  0  2  0  0  3  0  0  0  0  0  0
  184.8020  178.1170  138.4670 C   0  0  0  0  0  0  0  0  0  0  0  0
  188.5160  177.3370  135.9400 S   0  0  0  0  0  0  0  0  0  0  0  0
  186.1840  177.1520  137.1330 C   0  0  0  0  0  0  0  0  0  0  0  0
  184.8820  177.0390  137.5790 C   0  0  0  0  0  3  0  0  0  0  0  0
  188.1540  178.4660  137.3570 C   0  0  1  0  0  3  0  0  0  0  0  0
  186.7850  178.1710  137.7130 N   0  0  0  0  0  0  0  0  0  0  0  0
  182.8580  177.1830  139.6760 C   0  0  0  0  0  2  0  0  0  0  0  0
  183.7600  177.8600  140.6830 C   0  0  2  0  0  3  0  0  0  0  0  0
  182.9140  178.6590  141.6530 C   0  0  0  0  0  1  0  0  0  0  0  0
  183.6020  178.4490  139.2940 C   0  0  1  0  0  3  0  0  0  0  0  0
  187.3590  174.7420  136.8550 S   0  0  0  0  0  0  0  0  0  0  0  0
  188.9110  174.6240  135.9200 C   0  0  0  0  0  1  0  0  0  0  0  0
  187.8650  179.1920  141.5530 O   0  0  0  0  0  1  0  0  0  0  0  0
  189.0430  178.5050  141.8710 C   0  0  1  0  0  3  0  0  0  0  0  0
  189.0330  178.0350  143.3420 C   0  0  1  0  0  3  0  0  0  0  0  0
  187.7220  176.7430  144.9590 O   0  0  0  0  0  0  0  0  0  0  0  0
  186.8050  177.0230  143.9310 C   0  0  0  0  0  2  0  0  0  0  0  0
  188.2340  176.7480  143.6470 C   0  0  1  0  0  3  0  0  0  0  0  0
  191.2050  179.0160  143.8390 C   0  0  0  0  0  2  0  0  0  0  0  0
  190.4050  177.9590  143.9410 C   0  0  0  0  0  0  0  0  0  0  0  0
  190.8110  176.7860  144.5900 O   0  0  0  0  0  0  0  0  0  0  0  0
  190.6480  176.7700  146.9810 C   0  0  0  0  0  1  0  0  0  0  0  0
  191.5780  176.7890  145.7870 C   0  0  0  0  0  2  0  0  0  0  0  0
  1  4  1  0  0  0  0
  2  1  1  0  0  0  0
  3  2  1  6  0  0  0
  3  5  1  0  0  0  0
  4  6  1  0  0  0  0
  5  6  1  0  0  0  0
  6 22  1  1  0  0  0
  8 19  1  1  0  0  0
  8 11  1  0  0  0  0
  9  7  2  0  0  0  0
 10  8  1  0  0  0  0
 11 12  2  0  0  0  0
 11 14  1  0  0  0  0
 12  9  1  0  0  0  0
 13 10  1  6  0  0  0
 13 14  1  0  0  0  0
 13  3  1  0  0  0  0
 14  7  1  0  0  0  0
 15 16  1  0  0  0  0
 16 17  1  1  0  0  0
 18  9  1  6  0  0  0
 18 15  1  0  0  0  0
 18 16  1  0  0  0  0
 20 19  1  0  0  0  0
 22 21  1  6  0  0  0
 22 23  1  0  0  0  0
 23 28  1  6  0  0  0
 25 24  1  0  0  0  0
 26 23  1  1  0  0  0
 26 25  1  0  0  0  0
 26 24  1  0  0  0  0
 27 28  2  0  0  0  0
 28 29  1  0  0  0  0
 29 31  1  0  0  0  0
 31 30  1  0  0  0  0
M  END
>  <MODEL>
2

>  <REMARK>
 VINA RESULT:      -6.6      0.968      2.194
  Name = 
  9 active torsions:
  status: ('A' for Active; 'I' for Inactive)
    1  A    between atoms: C_4  and  S_22
    2  A    between atoms: C_10  and  C_21
    3  A    between atoms: C_13  and  C_25
    4  A    between atoms: C_16  and  C_20
    5  A    between atoms: C_16  and  C_27
    6  A    between atoms: C_17  and  C_20
    7  A    between atoms: C_17  and  O_31
    8  A    between atoms: C_20  and  C_30
    9  A    between atoms: C_29  and  O_31
                            x       y       z     vdW  Elec       q    Type
                         _______ _______ _______ _____ _____    ______ ____

>  <TORSDO>
F 9

$$$$
=
 OpenBabel10222415313D

 31 35  0  0  1  0  0  0  0  0999 V2000
  185.0440  179.0900  141.0390 C   0  0  0  0  0  2  0  0  0  0  0  0
  185.4000  178.5540  139.6430 C   0  0  0  0  0  2  0  0  0  0  0  0
  186.8490  178.0500  139.5280 C   0  0  2  0  0  3  0  0  0  0  0  0
  185.8620  178.4020  142.1300 C   0  0  0  0  0  2  0  0  0  0  0  0
  187.7620  178.8500  140.4580 C   0  0  0  0  0  2  0  0  0  0  0  0
  187.3700  178.6250  141.9290 C   0  0  2  0  0  3  0  0  0  0  0  0
  186.4220  175.9340  137.1970 N   0  0  0  0  0  0  0  0  0  0  0  0
  189.7700  177.0200  137.5950 C   0  0  2  0  0  3  0  0  0  0  0  0
  187.0350  174.8280  136.7140 C   0  0  0  0  0  0  0  0  0  0  0  0
  189.0930  178.6800  138.0230 S   0  0  0  0  0  0  0  0  0  0  0  0
  188.5750  176.2110  137.2910 C   0  0  0  0  0  0  0  0  0  0  0  0
  188.4280  174.9460  136.7590 C   0  0  0  0  0  3  0  0  0  0  0  0
  187.3440  178.0880  138.0800 C   0  0  1  0  0  3  0  0  0  0  0  0
  187.3980  176.7500  137.5370 N   0  0  0  0  0  0  0  0  0  0  0  0
  186.8970  172.3660  136.8910 C   0  0  0  0  0  2  0  0  0  0  0  0
  185.6160  172.9520  137.4430 C   0  0  2  0  0  3  0  0  0  0  0  0
  184.4400  172.1400  136.9420 C   0  0  0  0  0  1  0  0  0  0  0  0
  186.3000  173.6080  136.2570 C   0  0  1  0  0  3  0  0  0  0  0  0
  190.6170  176.3270  139.0470 S   0  0  0  0  0  0  0  0  0  0  0  0
  192.2380  176.3790  138.2320 C   0  0  0  0  0  1  0  0  0  0  0  0
  189.2910  177.1860  141.7900 O   0  0  0  0  0  1  0  0  0  0  0  0
  188.1620  177.4770  142.5660 C   0  0  1  0  0  3  0  0  0  0  0  0
  188.5600  177.8100  144.0210 C   0  0  1  0  0  3  0  0  0  0  0  0
  187.9440  177.6550  146.3870 O   0  0  0  0  0  0  0  0  0  0  0  0
  186.7120  177.8110  145.7280 C   0  0  0  0  0  2  0  0  0  0  0  0
  187.8220  177.0290  145.1310 C   0  0  1  0  0  3  0  0  0  0  0  0
  190.7470  178.8790  144.0470 C   0  0  0  0  0  2  0  0  0  0  0  0
  190.0420  177.7700  144.2450 C   0  0  0  0  0  0  0  0  0  0  0  0
  190.6470  176.5750  144.6540 O   0  0  0  0  0  0  0  0  0  0  0  0
  191.1760  176.5600  146.9910 C   0  0  0  0  0  1  0  0  0  0  0  0
  191.7240  176.5300  145.5810 C   0  0  0  0  0  2  0  0  0  0  0  0
  1  4  1  0  0  0  0
  2  1  1  0  0  0  0
  3  2  1  6  0  0  0
  3  5  1  0  0  0  0
  5  6  1  0  0  0  0
  6  4  1  0  0  0  0
  6 22  1  6  0  0  0
  7 14  1  0  0  0  0
  8 10  1  0  0  0  0
  8 19  1  1  0  0  0
  9 12  1  0  0  0  0
  9  7  2  0  0  0  0
 11 14  1  0  0  0  0
 11  8  1  0  0  0  0
 12 11  2  0  0  0  0
 13 10  1  1  0  0  0
 13  3  1  0  0  0  0
 14 13  1  0  0  0  0
 15 16  1  0  0  0  0
 16 17  1  6  0  0  0
 18  9  1  1  0  0  0
 18 15  1  0  0  0  0
 18 16  1  0  0  0  0
 20 19  1  0  0  0  0
 22 21  1  6  0  0  0
 22 23  1  0  0  0  0
 23 28  1  6  0  0  0
 25 24  1  0  0  0  0
 26 23  1  6  0  0  0
 26 25  1  0  0  0  0
 26 24  1  0  0  0  0
 27 28  2  0  0  0  0
 28 29  1  0  0  0  0
 29 31  1  0  0  0  0
 31 30  1  0  0  0  0
M  END
>  <MODEL>
3

>  <REMARK>
 VINA RESULT:      -6.5      2.228      4.443
  Name = 
  9 active torsions:
  status: ('A' for Active; 'I' for Inactive)
    1  A    between atoms: C_4  and  S_22
    2  A    between atoms: C_10  and  C_21
    3  A    between atoms: C_13  and  C_25
    4  A    between atoms: C_16  and  C_20
    5  A    between atoms: C_16  and  C_27
    6  A    between atoms: C_17  and  C_20
    7  A    between atoms: C_17  and  O_31
    8  A    between atoms: C_20  and  C_30
    9  A    between atoms: C_29  and  O_31
                            x       y       z     vdW  Elec       q    Type
                         _______ _______ _______ _____ _____    ______ ____

>  <TORSDO>
F 9

$$$$
=
 OpenBabel10222415313D

 31 35  0  0  1  0  0  0  0  0999 V2000
  185.4260  179.2110  141.6360 C   0  0  0  0  0  2  0  0  0  0  0  0
  185.6240  178.7660  140.1780 C   0  0  0  0  0  2  0  0  0  0  0  0
  186.9790  178.0840  139.9210 C   0  0  2  0  0  3  0  0  0  0  0  0
  186.1990  178.3180  142.6050 C   0  0  0  0  0  2  0  0  0  0  0  0
  188.0460  178.6610  140.8510 C   0  0  0  0  0  2  0  0  0  0  0  0
  187.7090  178.3530  142.3210 C   0  0  2  0  0  3  0  0  0  0  0  0
  186.3900  176.0970  137.5130 N   0  0  0  0  0  0  0  0  0  0  0  0
  189.7710  177.1230  137.7740 C   0  0  2  0  0  3  0  0  0  0  0  0
  186.9590  175.0110  136.9390 C   0  0  0  0  0  0  0  0  0  0  0  0
  189.1430  178.7660  138.3250 S   0  0  0  0  0  0  0  0  0  0  0  0
  188.5490  176.3450  137.4980 C   0  0  0  0  0  0  0  0  0  0  0  0
  188.3550  175.1110  136.9110 C   0  0  0  0  0  3  0  0  0  0  0  0
  187.3920  178.1920  138.4510 C   0  0  1  0  0  3  0  0  0  0  0  0
  187.3960  176.8830  137.8380 N   0  0  0  0  0  0  0  0  0  0  0  0
  186.8150  172.5430  136.9710 C   0  0  0  0  0  2  0  0  0  0  0  0
  185.5840  173.0980  137.6530 C   0  0  2  0  0  3  0  0  0  0  0  0
  184.3660  172.3240  137.1910 C   0  0  0  0  0  1  0  0  0  0  0  0
  186.1820  173.8260  136.4640 C   0  0  1  0  0  3  0  0  0  0  0  0
  190.6880  176.3460  139.1390 S   0  0  0  0  0  0  0  0  0  0  0  0
  191.9770  175.7160  138.0260 C   0  0  0  0  0  1  0  0  0  0  0  0
  189.0210  176.4260  141.7340 O   0  0  0  0  0  1  0  0  0  0  0  0
  188.3660  177.0540  142.8010 C   0  0  1  0  0  3  0  0  0  0  0  0
  189.3390  177.3160  143.9720 C   0  0  1  0  0  3  0  0  0  0  0  0
  191.4700  178.4030  144.5020 O   0  0  0  0  0  0  0  0  0  0  0  0
  191.4750  178.3170  143.0980 C   0  0  0  0  0  2  0  0  0  0  0  0
  190.2280  178.5740  143.8590 C   0  0  1  0  0  3  0  0  0  0  0  0
  189.4220  177.1300  146.3980 C   0  0  0  0  0  2  0  0  0  0  0  0
  188.6680  177.2640  145.3120 C   0  0  0  0  0  0  0  0  0  0  0  0
  187.2730  177.3560  145.3900 O   0  0  0  0  0  0  0  0  0  0  0  0
  185.4530  178.7070  146.1690 C   0  0  0  0  0  1  0  0  0  0  0  0
  186.5890  177.7860  146.5590 C   0  0  0  0  0  2  0  0  0  0  0  0
  1  4  1  0  0  0  0
  2  1  1  0  0  0  0
  3  2  1  6  0  0  0
  3  5  1  0  0  0  0
  5  6  1  0  0  0  0
  6  4  1  0  0  0  0
  6 22  1  6  0  0  0
  7 14  1  0  0  0  0
  8 10  1  0  0  0  0
  8 19  1  1  0  0  0
  9  7  2  0  0  0  0
 11  8  1  0  0  0  0
 11 14  1  0  0  0  0
 12  9  1  0  0  0  0
 12 11  2  0  0  0  0
 13 10  1  1  0  0  0
 13  3  1  0  0  0  0
 14 13  1  0  0  0  0
 15 16  1  0  0  0  0
 16 17  1  6  0  0  0
 18  9  1  1  0  0  0
 18 15  1  0  0  0  0
 18 16  1  0  0  0  0
 20 19  1  0  0  0  0
 22 21  1  6  0  0  0
 22 23  1  0  0  0  0
 23 28  1  1  0  0  0
 25 26  1  0  0  0  0
 25 24  1  0  0  0  0
 26 23  1  1  0  0  0
 26 24  1  0  0  0  0
 28 29  1  0  0  0  0
 28 27  2  0  0  0  0
 29 31  1  0  0  0  0
 30 31  1  0  0  0  0
M  END
>  <MODEL>
4

>  <REMARK>
 VINA RESULT:      -6.4      2.180      3.837
  Name = 
  9 active torsions:
  status: ('A' for Active; 'I' for Inactive)
    1  A    between atoms: C_4  and  S_22
    2  A    between atoms: C_10  and  C_21
    3  A    between atoms: C_13  and  C_25
    4  A    between atoms: C_16  and  C_20
    5  A    between atoms: C_16  and  C_27
    6  A    between atoms: C_17  and  C_20
    7  A    between atoms: C_17  and  O_31
    8  A    between atoms: C_20  and  C_30
    9  A    between atoms: C_29  and  O_31
                            x       y       z     vdW  Elec       q    Type
                         _______ _______ _______ _____ _____    ______ ____

>  <TORSDO>
F 9

$$$$
=
 OpenBabel10222415313D

 31 35  0  0  1  0  0  0  0  0999 V2000
  187.9210  178.3840  140.0650 C   0  0  0  0  0  2  0  0  0  0  0  0
  188.3000  177.9200  141.4810 C   0  0  0  0  0  2  0  0  0  0  0  0
  189.5020  176.9610  141.5130 C   0  0  2  0  0  3  0  0  0  0  0  0
  189.1350  178.4070  139.1380 C   0  0  0  0  0  2  0  0  0  0  0  0
  189.5410  176.1200  140.2370 C   0  0  0  0  0  2  0  0  0  0  0  0
  189.7690  177.0130  139.0040 C   0  0  2  0  0  3  0  0  0  0  0  0
  187.3050  176.7540  143.8000 N   0  0  0  0  0  0  0  0  0  0  0  0
  190.6250  177.1120  144.9840 C   0  0  2  0  0  3  0  0  0  0  0  0
  187.0180  177.3520  144.9800 C   0  0  0  0  0  0  0  0  0  0  0  0
  191.1570  176.0760  143.5560 S   0  0  0  0  0  0  0  0  0  0  0  0
  189.1560  177.1680  144.8600 C   0  0  0  0  0  0  0  0  0  0  0  0
  188.1770  177.6520  145.7040 C   0  0  0  0  0  3  0  0  0  0  0  0
  189.4860  176.0840  142.7680 C   0  0  1  0  0  3  0  0  0  0  0  0
  188.6180  176.6620  143.7690 N   0  0  0  0  0  0  0  0  0  0  0  0
  185.6400  179.0030  146.1990 C   0  0  0  0  0  2  0  0  0  0  0  0
  185.2080  179.0050  144.7490 C   0  0  2  0  0  3  0  0  0  0  0  0
  183.6960  179.0490  144.6790 C   0  0  0  0  0  1  0  0  0  0  0  0
  185.6310  177.7060  145.4110 C   0  0  1  0  0  3  0  0  0  0  0  0
  191.3120  178.7850  144.7980 S   0  0  0  0  0  0  0  0  0  0  0  0
  192.0540  178.3940  143.1880 C   0  0  0  0  0  1  0  0  0  0  0  0
  191.9890  177.4810  139.7970 O   0  0  0  0  0  1  0  0  0  0  0  0
  191.2560  177.1410  138.6540 C   0  0  1  0  0  3  0  0  0  0  0  0
  191.7950  175.8420  138.0140 C   0  0  1  0  0  3  0  0  0  0  0  0
  191.4860  174.0230  136.4030 O   0  0  0  0  0  0  0  0  0  0  0  0
  190.3410  173.9490  137.2170 C   0  0  0  0  0  2  0  0  0  0  0  0
  190.9610  175.2480  136.8580 C   0  0  1  0  0  3  0  0  0  0  0  0
  193.5590  176.5840  136.5090 C   0  0  0  0  0  2  0  0  0  0  0  0
  193.2400  175.9390  137.6260 C   0  0  0  0  0  0  0  0  0  0  0  0
  194.2150  175.3510  138.4420 O   0  0  0  0  0  0  0  0  0  0  0  0
  196.1850  174.1330  139.0560 C   0  0  0  0  0  1  0  0  0  0  0  0
  195.2190  174.4780  137.9430 C   0  0  0  0  0  2  0  0  0  0  0  0
  1  2  1  0  0  0  0
  2  3  1  0  0  0  0
  3  5  1  6  0  0  0
  3 13  1  0  0  0  0
  4  1  1  0  0  0  0
  6 22  1  1  0  0  0
  6  4  1  0  0  0  0
  6  5  1  0  0  0  0
  7  9  2  0  0  0  0
  8 19  1  6  0  0  0
  9 12  1  0  0  0  0
 10  8  1  0  0  0  0
 11  8  1  0  0  0  0
 11 12  2  0  0  0  0
 13 10  1  1  0  0  0
 13 14  1  0  0  0  0
 14  7  1  0  0  0  0
 14 11  1  0  0  0  0
 16 17  1  1  0  0  0
 16 18  1  0  0  0  0
 16 15  1  0  0  0  0
 18  9  1  6  0  0  0
 18 15  1  0  0  0  0
 20 19  1  0  0  0  0
 22 21  1  1  0  0  0
 23 28  1  6  0  0  0
 23 22  1  0  0  0  0
 24 26  1  0  0  0  0
 24 25  1  0  0  0  0
 26 25  1  0  0  0  0
 26 23  1  1  0  0  0
 27 28  2  0  0  0  0
 28 29  1  0  0  0  0
 31 29  1  0  0  0  0
 31 30  1  0  0  0  0
M  END
>  <MODEL>
5

>  <REMARK>
 VINA RESULT:      -5.8      3.992      7.344
  Name = 
  9 active torsions:
  status: ('A' for Active; 'I' for Inactive)
    1  A    between atoms: C_4  and  S_22
    2  A    between atoms: C_10  and  C_21
    3  A    between atoms: C_13  and  C_25
    4  A    between atoms: C_16  and  C_20
    5  A    between atoms: C_16  and  C_27
    6  A    between atoms: C_17  and  C_20
    7  A    between atoms: C_17  and  O_31
    8  A    between atoms: C_20  and  C_30
    9  A    between atoms: C_29  and  O_31
                            x       y       z     vdW  Elec       q    Type
                         _______ _______ _______ _____ _____    ______ ____

>  <TORSDO>
F 9

$$$$
=
 OpenBabel10222415313D

 31 35  0  0  1  0  0  0  0  0999 V2000
  187.6250  178.5450  140.2940 C   0  0  0  0  0  2  0  0  0  0  0  0
  188.0710  178.0500  141.6790 C   0  0  0  0  0  2  0  0  0  0  0  0
  189.2980  177.1230  141.6360 C   0  0  2  0  0  3  0  0  0  0  0  0
  188.8010  178.6300  139.3230 C   0  0  0  0  0  2  0  0  0  0  0  0
  189.3090  176.3220  140.3340 C   0  0  0  0  0  2  0  0  0  0  0  0
  189.4650  177.2580  139.1220 C   0  0  2  0  0  3  0  0  0  0  0  0
  187.2330  176.8390  144.0350 N   0  0  0  0  0  0  0  0  0  0  0  0
  190.6130  177.1740  145.0410 C   0  0  2  0  0  3  0  0  0  0  0  0
  187.0120  177.4010  145.2460 C   0  0  0  0  0  0  0  0  0  0  0  0
  191.0670  176.1830  143.5550 S   0  0  0  0  0  0  0  0  0  0  0  0
  189.1400  177.2290  145.0020 C   0  0  0  0  0  0  0  0  0  0  0  0
  188.2090  177.6830  145.9130 C   0  0  0  0  0  3  0  0  0  0  0  0
  189.3540  176.2090  142.8630 C   0  0  1  0  0  3  0  0  0  0  0  0
  188.5430  176.7540  143.9280 N   0  0  0  0  0  0  0  0  0  0  0  0
  185.6800  179.0630  146.5030 C   0  0  0  0  0  2  0  0  0  0  0  0
  185.1450  178.9990  145.0900 C   0  0  2  0  0  3  0  0  0  0  0  0
  183.6310  179.0030  145.1290 C   0  0  0  0  0  1  0  0  0  0  0  0
  185.6500  177.7370  145.7650 C   0  0  1  0  0  3  0  0  0  0  0  0
  191.2860  178.8550  144.8680 S   0  0  0  0  0  0  0  0  0  0  0  0
  192.0550  178.4740  143.2690 C   0  0  0  0  0  1  0  0  0  0  0  0
  191.7650  177.1800  139.8160 O   0  0  0  0  0  1  0  0  0  0  0  0
  190.9330  177.4370  138.7190 C   0  0  1  0  0  3  0  0  0  0  0  0
  191.3010  176.5350  137.5200 C   0  0  1  0  0  3  0  0  0  0  0  0
  192.6200  174.6470  136.6850 O   0  0  0  0  0  0  0  0  0  0  0  0
  193.5280  175.3650  137.4830 C   0  0  0  0  0  2  0  0  0  0  0  0
  192.0950  175.2500  137.8450 C   0  0  1  0  0  3  0  0  0  0  0  0
  189.8060  177.0750  135.6760 C   0  0  0  0  0  2  0  0  0  0  0  0
  190.1260  176.2210  136.6440 C   0  0  0  0  0  0  0  0  0  0  0  0
  189.3950  175.0460  136.8610 O   0  0  0  0  0  0  0  0  0  0  0  0
  187.0290  175.1660  137.2180 C   0  0  0  0  0  1  0  0  0  0  0  0
  188.1350  174.7940  136.2540 C   0  0  0  0  0  2  0  0  0  0  0  0
  1  2  1  0  0  0  0
  3  5  1  6  0  0  0
  3  2  1  0  0  0  0
  3 13  1  0  0  0  0
  4  1  1  0  0  0  0
  6 22  1  1  0  0  0
  6  4  1  0  0  0  0
  6  5  1  0  0  0  0
  7  9  2  0  0  0  0
  8 19  1  6  0  0  0
  9 12  1  0  0  0  0
 10  8  1  0  0  0  0
 11  8  1  0  0  0  0
 11 12  2  0  0  0  0
 13 10  1  1  0  0  0
 13 14  1  0  0  0  0
 14  7  1  0  0  0  0
 14 11  1  0  0  0  0
 16 17  1  1  0  0  0
 16 18  1  0  0  0  0
 16 15  1  0  0  0  0
 18  9  1  6  0  0  0
 18 15  1  0  0  0  0
 20 19  1  0  0  0  0
 22 21  1  1  0  0  0
 23 28  1  1  0  0  0
 23 22  1  0  0  0  0
 24 25  1  0  0  0  0
 24 26  1  0  0  0  0
 25 26  1  0  0  0  0
 26 23  1  6  0  0  0
 27 28  2  0  0  0  0
 28 29  1  0  0  0  0
 31 29  1  0  0  0  0
 31 30  1  0  0  0  0
M  END
>  <MODEL>
6

>  <REMARK>
 VINA RESULT:      -5.8      3.723      6.933
  Name = 
  9 active torsions:
  status: ('A' for Active; 'I' for Inactive)
    1  A    between atoms: C_4  and  S_22
    2  A    between atoms: C_10  and  C_21
    3  A    between atoms: C_13  and  C_25
    4  A    between atoms: C_16  and  C_20
    5  A    between atoms: C_16  and  C_27
    6  A    between atoms: C_17  and  C_20
    7  A    between atoms: C_17  and  O_31
    8  A    between atoms: C_20  and  C_30
    9  A    between atoms: C_29  and  O_31
                            x       y       z     vdW  Elec       q    Type
                         _______ _______ _______ _____ _____    ______ ____

>  <TORSDO>
F 9

$$$$
=
 OpenBabel10222415313D

 31 35  0  0  1  0  0  0  0  0999 V2000
  191.2400  177.6460  140.0440 C   0  0  0  0  0  2  0  0  0  0  0  0
  191.0570  176.6470  141.1970 C   0  0  0  0  0  2  0  0  0  0  0  0
  189.5970  176.4970  141.6560 C   0  0  2  0  0  3  0  0  0  0  0  0
  189.9940  177.7240  139.1650 C   0  0  0  0  0  2  0  0  0  0  0  0
  188.8440  177.8130  141.4620 C   0  0  0  0  0  2  0  0  0  0  0  0
  188.7650  178.1790  139.9690 C   0  0  2  0  0  3  0  0  0  0  0  0
  187.1830  176.6980  143.7120 N   0  0  0  0  0  0  0  0  0  0  0  0
  190.3130  177.7150  145.0220 C   0  0  2  0  0  3  0  0  0  0  0  0
  186.7210  177.5640  144.6440 C   0  0  0  0  0  0  0  0  0  0  0  0
  191.0790  176.3880  143.9980 S   0  0  0  0  0  0  0  0  0  0  0  0
  188.8670  177.5800  144.7630 C   0  0  0  0  0  0  0  0  0  0  0  0
  187.7670  178.1720  145.3490 C   0  0  0  0  0  3  0  0  0  0  0  0
  189.5100  176.0030  143.1020 C   0  0  1  0  0  3  0  0  0  0  0  0
  188.4940  176.7400  143.8200 N   0  0  0  0  0  0  0  0  0  0  0  0
  185.1090  179.2330  145.4960 C   0  0  0  0  0  2  0  0  0  0  0  0
  184.8960  179.0880  144.0050 C   0  0  2  0  0  3  0  0  0  0  0  0
  183.4100  179.0410  143.7150 C   0  0  0  0  0  1  0  0  0  0  0  0
  185.2720  177.8760  144.8370 C   0  0  1  0  0  3  0  0  0  0  0  0
  190.8860  179.3350  144.4270 S   0  0  0  0  0  0  0  0  0  0  0  0
  192.3040  178.6090  143.5570 C   0  0  0  0  0  1  0  0  0  0  0  0
  186.4790  178.6280  139.3730 O   0  0  0  0  0  1  0  0  0  0  0  0
  187.4820  177.6520  139.3160 C   0  0  1  0  0  3  0  0  0  0  0  0
  187.7370  177.2040  137.8600 C   0  0  1  0  0  3  0  0  0  0  0  0
  188.0270  175.3740  136.2570 O   0  0  0  0  0  0  0  0  0  0  0  0
  189.0330  175.1460  137.2130 C   0  0  0  0  0  2  0  0  0  0  0  0
  187.7040  175.6830  137.5930 C   0  0  1  0  0  3  0  0  0  0  0  0
  187.2970  179.1120  136.4130 C   0  0  0  0  0  2  0  0  0  0  0  0
  186.8830  177.9320  136.8660 C   0  0  0  0  0  0  0  0  0  0  0  0
  185.6780  177.3600  136.4390 O   0  0  0  0  0  0  0  0  0  0  0  0
  183.9370  176.1350  137.5380 C   0  0  0  0  0  1  0  0  0  0  0  0
  184.4580  177.5030  137.1530 C   0  0  0  0  0  2  0  0  0  0  0  0
  1  2  1  0  0  0  0
  3  2  1  1  0  0  0
  3 13  1  0  0  0  0
  4  6  1  0  0  0  0
  4  1  1  0  0  0  0
  5  3  1  0  0  0  0
  6 22  1  6  0  0  0
  6  5  1  0  0  0  0
  7 14  1  0  0  0  0
  7  9  2  0  0  0  0
  8 19  1  6  0  0  0
  9 12  1  0  0  0  0
 10  8  1  0  0  0  0
 11  8  1  0  0  0  0
 11 12  2  0  0  0  0
 13 14  1  0  0  0  0
 13 10  1  1  0  0  0
 14 11  1  0  0  0  0
 16 17  1  1  0  0  0
 16 18  1  0  0  0  0
 16 15  1  0  0  0  0
 18  9  1  6  0  0  0
 18 15  1  0  0  0  0
 20 19  1  0  0  0  0
 22 21  1  6  0  0  0
 23 28  1  6  0  0  0
 23 22  1  0  0  0  0
 24 25  1  0  0  0  0
 24 26  1  0  0  0  0
 25 26  1  0  0  0  0
 26 23  1  6  0  0  0
 27 28  2  0  0  0  0
 29 28  1  0  0  0  0
 29 31  1  0  0  0  0
 31 30  1  0  0  0  0
M  END
>  <MODEL>
7

>  <REMARK>
 VINA RESULT:      -5.5      3.451      6.606
  Name = 
  9 active torsions:
  status: ('A' for Active; 'I' for Inactive)
    1  A    between atoms: C_4  and  S_22
    2  A    between atoms: C_10  and  C_21
    3  A    between atoms: C_13  and  C_25
    4  A    between atoms: C_16  and  C_20
    5  A    between atoms: C_16  and  C_27
    6  A    between atoms: C_17  and  C_20
    7  A    between atoms: C_17  and  O_31
    8  A    between atoms: C_20  and  C_30
    9  A    between atoms: C_29  and  O_31
                            x       y       z     vdW  Elec       q    Type
                         _______ _______ _______ _____ _____    ______ ____

>  <TORSDO>
F 9

$$$$
=
 OpenBabel10222415313D

 31 35  0  0  1  0  0  0  0  0999 V2000
  187.3300  177.1110  145.1470 C   0  0  0  0  0  2  0  0  0  0  0  0
  188.5670  177.8860  144.6650 C   0  0  0  0  0  2  0  0  0  0  0  0
  188.3350  178.6620  143.3570 C   0  0  2  0  0  3  0  0  0  0  0  0
  186.0350  177.7870  144.7030 C   0  0  0  0  0  2  0  0  0  0  0  0
  187.3190  177.9300  142.4810 C   0  0  0  0  0  2  0  0  0  0  0  0
  185.9440  177.8790  143.1710 C   0  0  2  0  0  3  0  0  0  0  0  0
  189.0610  178.1110  140.3130 N   0  0  0  0  0  0  0  0  0  0  0  0
  191.4570  176.9130  142.6320 C   0  0  2  0  0  3  0  0  0  0  0  0
  189.5580  177.1000  139.5620 C   0  0  0  0  0  0  0  0  0  0  0  0
  191.0800  178.3960  143.6600 S   0  0  0  0  0  0  0  0  0  0  0  0
  190.6090  177.0790  141.4370 C   0  0  0  0  0  0  0  0  0  0  0  0
  190.5560  176.3920  140.2410 C   0  0  0  0  0  3  0  0  0  0  0  0
  189.6490  178.9120  142.6120 C   0  0  1  0  0  3  0  0  0  0  0  0
  189.7300  178.0600  141.4470 N   0  0  0  0  0  0  0  0  0  0  0  0
  188.0000  177.7590  137.7600 C   0  0  0  0  0  2  0  0  0  0  0  0
  189.4100  177.8490  137.2210 C   0  0  2  0  0  3  0  0  0  0  0  0
  189.4500  177.2650  135.8250 C   0  0  0  0  0  1  0  0  0  0  0  0
  189.0440  176.7510  138.2030 C   0  0  1  0  0  3  0  0  0  0  0  0
  190.9490  175.4170  143.5320 S   0  0  0  0  0  0  0  0  0  0  0  0
  191.6800  176.0010  145.0870 C   0  0  0  0  0  1  0  0  0  0  0  0
  185.6010  179.7120  141.6540 O   0  0  0  0  0  1  0  0  0  0  0  0
  185.0530  179.0580  142.7650 C   0  0  1  0  0  3  0  0  0  0  0  0
  183.6070  178.5970  142.4790 C   0  0  1  0  0  3  0  0  0  0  0  0
  181.2420  178.7140  143.1120 O   0  0  0  0  0  0  0  0  0  0  0  0
  181.9160  178.6280  144.3430 C   0  0  0  0  0  2  0  0  0  0  0  0
  182.4820  179.3780  143.1960 C   0  0  1  0  0  3  0  0  0  0  0  0
  183.4300  177.2800  140.4390 C   0  0  0  0  0  2  0  0  0  0  0  0
  183.3110  178.4720  141.0150 C   0  0  0  0  0  0  0  0  0  0  0  0
  182.9190  179.6050  140.2900 O   0  0  0  0  0  0  0  0  0  0  0  0
  181.9000  180.6140  138.3700 C   0  0  0  0  0  1  0  0  0  0  0  0
  182.9760  179.6740  138.8720 C   0  0  0  0  0  2  0  0  0  0  0  0
  2  1  1  0  0  0  0
  3  5  1  6  0  0  0
  3  2  1  0  0  0  0
  4  1  1  0  0  0  0
  5  6  1  0  0  0  0
  6 22  1  1  0  0  0
  6  4  1  0  0  0  0
  7 14  1  0  0  0  0
  8 19  1  1  0  0  0
  8 10  1  0  0  0  0
  9 12  1  0  0  0  0
  9  7  2  0  0  0  0
 11 14  1  0  0  0  0
 11  8  1  0  0  0  0
 12 11  2  0  0  0  0
 13  3  1  0  0  0  0
 13 10  1  1  0  0  0
 14 13  1  0  0  0  0
 15 18  1  0  0  0  0
 16 17  1  6  0  0  0
 16 15  1  0  0  0  0
 16 18  1  0  0  0  0
 18  9  1  1  0  0  0
 19 20  1  0  0  0  0
 22 21  1  6  0  0  0
 23 28  1  6  0  0  0
 23 22  1  0  0  0  0
 24 26  1  0  0  0  0
 24 25  1  0  0  0  0
 26 23  1  6  0  0  0
 26 25  1  0  0  0  0
 27 28  2  0  0  0  0
 29 28  1  0  0  0  0
 30 31  1  0  0  0  0
 31 29  1  0  0  0  0
M  END
>  <MODEL>
8

>  <REMARK>
 VINA RESULT:      -5.4      3.145      6.751
  Name = 
  9 active torsions:
  status: ('A' for Active; 'I' for Inactive)
    1  A    between atoms: C_4  and  S_22
    2  A    between atoms: C_10  and  C_21
    3  A    between atoms: C_13  and  C_25
    4  A    between atoms: C_16  and  C_20
    5  A    between atoms: C_16  and  C_27
    6  A    between atoms: C_17  and  C_20
    7  A    between atoms: C_17  and  O_31
    8  A    between atoms: C_20  and  C_30
    9  A    between atoms: C_29  and  O_31
                            x       y       z     vdW  Elec       q    Type
                         _______ _______ _______ _____ _____    ______ ____

>  <TORSDO>
F 9

$$$$
=
 OpenBabel10222415313D

 31 35  0  0  1  0  0  0  0  0999 V2000
  185.0980  175.9630  137.1610 C   0  0  0  0  0  2  0  0  0  0  0  0
  184.2990  177.2490  137.4270 C   0  0  0  0  0  2  0  0  0  0  0  0
  185.1620  178.4130  137.9450 C   0  0  2  0  0  3  0  0  0  0  0  0
  186.5450  176.2700  136.7790 C   0  0  0  0  0  2  0  0  0  0  0  0
  186.3300  177.8780  138.7720 C   0  0  0  0  0  2  0  0  0  0  0  0
  187.2730  177.0330  137.8970 C   0  0  2  0  0  3  0  0  0  0  0  0
  185.4570  179.3480  140.9670 N   0  0  0  0  0  0  0  0  0  0  0  0
  182.1590  178.4680  140.0210 C   0  0  2  0  0  3  0  0  0  0  0  0
  185.0070  178.9730  142.1880 C   0  0  0  0  0  0  0  0  0  0  0  0
  182.5310  179.1870  138.3660 S   0  0  0  0  0  0  0  0  0  0  0  0
  183.3900  178.6990  140.7990 C   0  0  0  0  0  0  0  0  0  0  0  0
  183.6790  178.5340  142.1380 C   0  0  0  0  0  3  0  0  0  0  0  0
  184.3250  179.4240  138.7350 C   0  0  1  0  0  3  0  0  0  0  0  0
  184.4400  179.1640  140.1520 N   0  0  0  0  0  0  0  0  0  0  0  0
  185.1430  178.2550  144.5500 C   0  0  0  0  0  2  0  0  0  0  0  0
  186.2260  177.5370  143.7750 C   0  0  2  0  0  3  0  0  0  0  0  0
  187.5080  177.5480  144.5810 C   0  0  0  0  0  1  0  0  0  0  0  0
  185.8590  178.9660  143.4160 C   0  0  1  0  0  3  0  0  0  0  0  0
  181.8790  176.6800  139.8470 S   0  0  0  0  0  0  0  0  0  0  0  0
  180.1490  176.8120  140.3820 C   0  0  0  0  0  1  0  0  0  0  0  0
  188.4960  179.1010  137.9690 O   0  0  0  0  0  1  0  0  0  0  0  0
  188.4140  177.8700  137.3070 C   0  0  1  0  0  3  0  0  0  0  0  0
  189.7590  177.1130  137.3760 C   0  0  1  0  0  3  0  0  0  0  0  0
  191.4580  176.2270  138.9030 O   0  0  0  0  0  0  0  0  0  0  0  0
  190.8320  177.2410  139.6480 C   0  0  0  0  0  2  0  0  0  0  0  0
  190.0730  176.3870  138.7030 C   0  0  1  0  0  3  0  0  0  0  0  0
  190.1650  176.7250  135.0070 C   0  0  0  0  0  2  0  0  0  0  0  0
  189.9720  176.1950  136.2100 C   0  0  0  0  0  0  0  0  0  0  0  0
  189.9640  174.8080  136.4120 O   0  0  0  0  0  0  0  0  0  0  0  0
  188.5360  172.8840  136.4150 C   0  0  0  0  0  1  0  0  0  0  0  0
  189.2610  173.9070  135.5670 C   0  0  0  0  0  2  0  0  0  0  0  0
  1  2  1  0  0  0  0
  3  2  1  1  0  0  0
  3 13  1  0  0  0  0
  3  5  1  0  0  0  0
  4  1  1  0  0  0  0
  4  6  1  0  0  0  0
  6 22  1  6  0  0  0
  6  5  1  0  0  0  0
  7  9  2  0  0  0  0
  8 19  1  6  0  0  0
  8 11  1  0  0  0  0
 10  8  1  0  0  0  0
 11 12  2  0  0  0  0
 12  9  1  0  0  0  0
 13 10  1  6  0  0  0
 13 14  1  0  0  0  0
 14 11  1  0  0  0  0
 14  7  1  0  0  0  0
 16 15  1  0  0  0  0
 16 17  1  1  0  0  0
 18  9  1  6  0  0  0
 18 16  1  0  0  0  0
 18 15  1  0  0  0  0
 19 20  1  0  0  0  0
 22 23  1  0  0  0  0
 22 21  1  1  0  0  0
 23 28  1  6  0  0  0
 24 25  1  0  0  0  0
 26 23  1  6  0  0  0
 26 24  1  0  0  0  0
 26 25  1  0  0  0  0
 27 28  2  0  0  0  0
 28 29  1  0  0  0  0
 31 29  1  0  0  0  0
 31 30  1  0  0  0  0
M  END
>  <MODEL>
9

>  <REMARK>
 VINA RESULT:      -5.3      2.946      6.120
  Name = 
  9 active torsions:
  status: ('A' for Active; 'I' for Inactive)
    1  A    between atoms: C_4  and  S_22
    2  A    between atoms: C_10  and  C_21
    3  A    between atoms: C_13  and  C_25
    4  A    between atoms: C_16  and  C_20
    5  A    between atoms: C_16  and  C_27
    6  A    between atoms: C_17  and  C_20
    7  A    between atoms: C_17  and  O_31
    8  A    between atoms: C_20  and  C_30
    9  A    between atoms: C_29  and  O_31
                            x       y       z     vdW  Elec       q    Type
                         _______ _______ _______ _____ _____    ______ ____

>  <TORSDO>
F 9

$$$$
