=
 OpenBabel10222416033D

 32 35  0  0  1  0  0  0  0  0999 V2000
  188.1060  178.7610  141.1440 C   0  0  0  0  0  2  0  0  0  0  0  0
  182.2050  178.6330  141.9200 C   0  0  0  0  0  3  0  0  0  0  0  0
  184.3760  178.1910  141.0020 O   0  0  0  0  0  0  0  0  0  0  0  0
  186.3740  177.7140  142.8430 C   0  0  0  0  0  2  0  0  0  0  0  0
  181.3520  178.9410  142.9860 C   0  0  0  0  0  0  0  0  0  0  0  0
  183.2510  178.8940  144.4910 C   0  0  0  0  0  3  0  0  0  0  0  0
  181.8860  179.0830  144.2720 C   0  0  0  0  0  3  0  0  0  0  0  0
  184.1060  178.5660  143.4350 C   0  0  0  0  0  0  0  0  0  0  0  0
  185.9730  179.8150  141.6270 O   0  0  0  0  0  0  0  0  0  0  0  0
  185.5990  178.8560  140.6540 C   0  0  1  0  0  3  0  0  0  0  0  0
  183.5800  178.4670  142.1230 C   0  0  0  0  0  0  0  0  0  0  0  0
  186.6770  178.5970  141.6350 C   0  0  1  0  0  0  0  0  0  0  0  0
  185.4530  178.3300  143.7360 O   0  0  0  0  0  0  0  0  0  0  0  0
  179.3510  180.3950  142.7810 O   0  0  0  0  0  1  0  0  0  0  0  0
  179.1710  178.1300  142.5170 O   0  0  0  0  0  0  0  0  0  0  0  0
  179.9110  179.1230  142.7500 C   0  0  0  0  0  0  0  0  0  0  0  0
  189.0490  177.7800  141.8410 C   0  0  1  0  0  3  0  0  0  0  0  0
  189.8770  177.0050  140.8270 C   0  0  0  0  0  2  0  0  0  0  0  0
  189.7000  177.5900  139.4370 C   0  0  0  0  0  2  0  0  0  0  0  0
  190.3520  176.7060  138.4340 C   0  0  0  0  0  0  0  0  0  0  0  0
  190.4780  177.0990  137.2440 O   0  0  0  0  0  0  0  0  0  0  0  0
  190.7890  175.4390  138.8110 O   0  0  0  0  0  0  0  0  0  0  0  0
  190.9810  174.4800  137.8950 O   0  0  0  0  0  1  0  0  0  0  0  0
  189.9380  178.4690  142.8830 C   0  0  0  0  0  2  0  0  0  0  0  0
  191.2190  176.5870  146.5300 C   0  0  0  0  0  0  0  0  0  0  0  0
  189.8120  177.1240  146.5100 C   0  0  0  0  0  2  0  0  0  0  0  0
  189.5700  177.9520  145.2730 C   0  0  0  0  0  3  0  0  0  0  0  0
  191.1550  176.4960  144.0530 C   0  0  0  0  0  2  0  0  0  0  0  0
  190.1830  177.6480  144.1150 C   0  0  0  0  0  0  0  0  0  0  0  0
  191.8450  176.2910  145.3790 C   0  0  0  0  0  3  0  0  0  0  0  0
  191.8920  176.3290  147.8350 C   0  0  0  0  0  2  0  0  0  0  0  0
  192.9660  175.4780  147.6550 F   0  0  0  0  0  0  0  0  0  0  0  0
  1 17  1  0  0  0  0
  2 11  2  0  0  0  0
  2  5  1  0  0  0  0
  3 11  1  0  0  0  0
  4 13  1  0  0  0  0
  5  7  2  0  0  0  0
  7  6  1  0  0  0  0
  8 13  1  0  0  0  0
  8  6  2  0  0  0  0
  9 12  1  0  0  0  0
 10  3  1  1  0  0  0
 10  9  1  0  0  0  0
 10 12  1  0  0  0  0
 11  8  1  0  0  0  0
 12  1  1  6  0  0  0
 12  4  1  0  0  0  0
 15 16  2  0  0  0  0
 16 14  1  0  0  0  0
 16  5  1  0  0  0  0
 17 18  1  6  0  0  0
 17 24  1  0  0  0  0
 19 18  1  0  0  0  0
 20 22  1  0  0  0  0
 20 19  1  0  0  0  0
 21 20  2  0  0  0  0
 23 22  1  0  0  0  0
 24 29  1  0  0  0  0
 25 31  1  0  0  0  0
 26 25  1  0  0  0  0
 27 26  1  0  0  0  0
 28 29  1  0  0  0  0
 28 30  1  0  0  0  0
 29 27  2  0  0  0  0
 30 25  2  0  0  0  0
 32 31  1  0  0  0  0
M  END
>  <MODEL>
1

>  <REMARK>
 VINA RESULT:      -8.5      0.000      0.000
  Name = 
  10 active torsions:
  status: ('A' for Active; 'I' for Inactive)
    1  A    between atoms: O_2  and  C_12
    2  A    between atoms: C_4  and  C_5
    3  A    between atoms: C_4  and  C_30
    4  A    between atoms: C_5  and  C_8
    5  A    between atoms: C_5  and  C_15
    6  A    between atoms: C_7  and  C_25
    7  A    between atoms: C_8  and  C_32
    8  A    between atoms: C_12  and  C_32
    9  A    between atoms: C_13  and  C_22
   10  A    between atoms: C_15  and  C_19
                            x       y       z     vdW  Elec       q    Type
                         _______ _______ _______ _____ _____    ______ ____

>  <TORSDO>
F 10

$$$$
=
 OpenBabel10222416033D

 32 35  0  0  1  0  0  0  0  0999 V2000
  188.4890  178.6940  140.8770 C   0  0  0  0  0  2  0  0  0  0  0  0
  182.7020  178.6470  142.2750 C   0  0  0  0  0  3  0  0  0  0  0  0
  184.7550  178.1880  141.1230 O   0  0  0  0  0  0  0  0  0  0  0  0
  186.9280  177.6410  142.7310 C   0  0  0  0  0  2  0  0  0  0  0  0
  181.9730  178.9480  143.4310 C   0  0  0  0  0  0  0  0  0  0  0  0
  184.0200  178.8390  144.7250 C   0  0  0  0  0  3  0  0  0  0  0  0
  182.6430  179.0550  144.6550 C   0  0  0  0  0  3  0  0  0  0  0  0
  184.7510  178.5180  143.5770 C   0  0  0  0  0  0  0  0  0  0  0  0
  186.4390  179.7720  141.6040 O   0  0  0  0  0  0  0  0  0  0  0  0
  185.9470  178.8400  140.6590 C   0  0  1  0  0  3  0  0  0  0  0  0
  184.0870  178.4540  142.3270 C   0  0  0  0  0  0  0  0  0  0  0  0
  187.1180  178.5430  141.5140 C   0  0  1  0  0  0  0  0  0  0  0  0
  186.1190  178.2540  143.7290 O   0  0  0  0  0  0  0  0  0  0  0  0
  180.0100  180.3890  142.9560 O   0  0  0  0  0  0  0  0  0  0  0  0
  179.7220  178.2270  143.6450 O   0  0  0  0  0  1  0  0  0  0  0  0
  180.5190  179.1580  143.3530 C   0  0  0  0  0  0  0  0  0  0  0  0
  189.1900  177.3420  140.7420 C   0  0  1  0  0  3  0  0  0  0  0  0
  189.0620  176.8000  139.3270 C   0  0  0  0  0  2  0  0  0  0  0  0
  190.0980  177.4370  138.4170 C   0  0  0  0  0  2  0  0  0  0  0  0
  189.4240  178.0710  137.2530 C   0  0  0  0  0  0  0  0  0  0  0  0
  189.4850  177.5220  136.1210 O   0  0  0  0  0  0  0  0  0  0  0  0
  188.7550  179.2810  137.4180 O   0  0  0  0  0  0  0  0  0  0  0  0
  187.4580  179.3950  137.1050 O   0  0  0  0  0  1  0  0  0  0  0  0
  190.6550  177.3990  141.1900 C   0  0  0  0  0  2  0  0  0  0  0  0
  190.4430  177.2480  145.4820 C   0  0  0  0  0  0  0  0  0  0  0  0
  191.4240  176.3120  144.8250 C   0  0  0  0  0  2  0  0  0  0  0  0
  191.2370  176.3010  143.3280 C   0  0  0  0  0  3  0  0  0  0  0  0
  190.5320  178.6690  143.4530 C   0  0  0  0  0  2  0  0  0  0  0  0
  190.8380  177.4090  142.6800 C   0  0  0  0  0  0  0  0  0  0  0  0
  190.0280  178.3520  144.8390 C   0  0  0  0  0  3  0  0  0  0  0  0
  189.9800  176.9730  146.8720 C   0  0  0  0  0  2  0  0  0  0  0  0
  188.6110  176.7870  146.8870 F   0  0  0  0  0  0  0  0  0  0  0  0
  2 11  2  0  0  0  0
  2  5  1  0  0  0  0
  3 11  1  0  0  0  0
  4 13  1  0  0  0  0
  5  7  2  0  0  0  0
  7  6  1  0  0  0  0
  8 13  1  0  0  0  0
  8  6  2  0  0  0  0
 10  3  1  1  0  0  0
 10 12  1  0  0  0  0
 10  9  1  0  0  0  0
 11  8  1  0  0  0  0
 12  1  1  6  0  0  0
 12  9  1  0  0  0  0
 12  4  1  0  0  0  0
 14 16  2  0  0  0  0
 16  5  1  0  0  0  0
 16 15  1  0  0  0  0
 17 18  1  6  0  0  0
 17  1  1  0  0  0  0
 17 24  1  0  0  0  0
 19 18  1  0  0  0  0
 20 22  1  0  0  0  0
 20 19  1  0  0  0  0
 21 20  2  0  0  0  0
 23 22  1  0  0  0  0
 24 29  1  0  0  0  0
 25 31  1  0  0  0  0
 26 25  1  0  0  0  0
 27 26  1  0  0  0  0
 28 30  1  0  0  0  0
 29 27  2  0  0  0  0
 29 28  1  0  0  0  0
 30 25  2  0  0  0  0
 31 32  1  0  0  0  0
M  END
>  <MODEL>
2

>  <REMARK>
 VINA RESULT:      -8.4      1.510      2.106
  Name = 
  10 active torsions:
  status: ('A' for Active; 'I' for Inactive)
    1  A    between atoms: O_2  and  C_12
    2  A    between atoms: C_4  and  C_5
    3  A    between atoms: C_4  and  C_30
    4  A    between atoms: C_5  and  C_8
    5  A    between atoms: C_5  and  C_15
    6  A    between atoms: C_7  and  C_25
    7  A    between atoms: C_8  and  C_32
    8  A    between atoms: C_12  and  C_32
    9  A    between atoms: C_13  and  C_22
   10  A    between atoms: C_15  and  C_19
                            x       y       z     vdW  Elec       q    Type
                         _______ _______ _______ _____ _____    ______ ____

>  <TORSDO>
F 10

$$$$
=
 OpenBabel10222416033D

 32 35  0  0  1  0  0  0  0  0999 V2000
  189.7120  178.4090  145.0790 C   0  0  0  0  0  2  0  0  0  0  0  0
  191.9150  176.7600  139.7990 C   0  0  0  0  0  3  0  0  0  0  0  0
  191.6480  176.9690  142.1740 O   0  0  0  0  0  0  0  0  0  0  0  0
  189.0580  176.7810  143.1030 C   0  0  0  0  0  2  0  0  0  0  0  0
  191.4070  176.7240  138.4960 C   0  0  0  0  0  0  0  0  0  0  0  0
  189.1650  176.9640  139.3860 C   0  0  0  0  0  3  0  0  0  0  0  0
  190.0270  176.8400  138.2950 C   0  0  0  0  0  3  0  0  0  0  0  0
  189.6640  176.9800  140.6920 C   0  0  0  0  0  0  0  0  0  0  0  0
  190.3510  178.8480  142.7780 O   0  0  0  0  0  0  0  0  0  0  0  0
  191.3660  177.9490  143.1850 C   0  0  1  0  0  3  0  0  0  0  0  0
  191.0640  176.9100  140.9000 C   0  0  0  0  0  0  0  0  0  0  0  0
  189.9790  177.8460  143.6930 C   0  0  1  0  0  0  0  0  0  0  0  0
  188.7390  177.0450  141.7420 O   0  0  0  0  0  0  0  0  0  0  0  0
  193.6690  176.8860  137.4870 O   0  0  0  0  0  1  0  0  0  0  0  0
  191.8900  176.1710  136.2390 O   0  0  0  0  0  0  0  0  0  0  0  0
  192.3200  176.5770  137.3520 C   0  0  0  0  0  0  0  0  0  0  0  0
  188.8310  177.4690  145.9000 C   0  0  1  0  0  3  0  0  0  0  0  0
  189.6590  176.6820  146.9040 C   0  0  0  0  0  2  0  0  0  0  0  0
  191.1360  176.7730  146.5640 C   0  0  0  0  0  2  0  0  0  0  0  0
  191.9470  176.2880  147.7120 C   0  0  0  0  0  0  0  0  0  0  0  0
  192.1470  175.0530  147.8580 O   0  0  0  0  0  0  0  0  0  0  0  0
  192.4540  177.2000  148.6330 O   0  0  0  0  0  0  0  0  0  0  0  0
  193.5020  176.8830  149.4060 O   0  0  0  0  0  1  0  0  0  0  0  0
  187.6730  178.2060  146.5840 C   0  0  0  0  0  2  0  0  0  0  0  0
  183.9820  178.7710  144.4520 C   0  0  0  0  0  0  0  0  0  0  0  0
  185.0680  178.0200  143.7260 C   0  0  0  0  0  2  0  0  0  0  0  0
  186.3690  178.0910  144.4850 C   0  0  0  0  0  3  0  0  0  0  0  0
  185.0760  178.1650  146.5920 C   0  0  0  0  0  2  0  0  0  0  0  0
  186.3770  178.1390  145.8280 C   0  0  0  0  0  0  0  0  0  0  0  0
  183.9860  178.8360  145.7930 C   0  0  0  0  0  3  0  0  0  0  0  0
  182.8710  179.3920  143.6750 C   0  0  0  0  0  2  0  0  0  0  0  0
  181.6770  178.7610  143.9710 F   0  0  0  0  0  0  0  0  0  0  0  0
  2 11  1  0  0  0  0
  4 12  1  0  0  0  0
  5  2  2  0  0  0  0
  6  8  1  0  0  0  0
  7  5  1  0  0  0  0
  7  6  2  0  0  0  0
  8 11  2  0  0  0  0
  8 13  1  0  0  0  0
  9 10  1  0  0  0  0
  9 12  1  0  0  0  0
 10  3  1  6  0  0  0
 10 12  1  0  0  0  0
 11  3  1  0  0  0  0
 12  1  1  1  0  0  0
 13  4  1  0  0  0  0
 15 16  2  0  0  0  0
 16 14  1  0  0  0  0
 16  5  1  0  0  0  0
 17  1  1  1  0  0  0
 17 24  1  0  0  0  0
 17 18  1  0  0  0  0
 19 18  1  0  0  0  0
 19 20  1  0  0  0  0
 20 21  2  0  0  0  0
 20 22  1  0  0  0  0
 22 23  1  0  0  0  0
 25 30  2  0  0  0  0
 26 25  1  0  0  0  0
 26 27  1  0  0  0  0
 27 29  2  0  0  0  0
 29 24  1  0  0  0  0
 29 28  1  0  0  0  0
 30 28  1  0  0  0  0
 31 32  1  0  0  0  0
 31 25  1  0  0  0  0
M  END
>  <MODEL>
3

>  <REMARK>
 VINA RESULT:      -8.3      4.006      8.650
  Name = 
  10 active torsions:
  status: ('A' for Active; 'I' for Inactive)
    1  A    between atoms: O_2  and  C_12
    2  A    between atoms: C_4  and  C_5
    3  A    between atoms: C_4  and  C_30
    4  A    between atoms: C_5  and  C_8
    5  A    between atoms: C_5  and  C_15
    6  A    between atoms: C_7  and  C_25
    7  A    between atoms: C_8  and  C_32
    8  A    between atoms: C_12  and  C_32
    9  A    between atoms: C_13  and  C_22
   10  A    between atoms: C_15  and  C_19
                            x       y       z     vdW  Elec       q    Type
                         _______ _______ _______ _____ _____    ______ ____

>  <TORSDO>
F 10

$$$$
=
 OpenBabel10222416033D

 32 35  0  0  1  0  0  0  0  0999 V2000
  188.3660  177.2510  145.1710 C   0  0  0  0  0  2  0  0  0  0  0  0
  182.8640  179.2010  143.9960 C   0  0  0  0  0  3  0  0  0  0  0  0
  185.0510  179.0500  144.9690 O   0  0  0  0  0  0  0  0  0  0  0  0
  187.1030  178.4950  143.2110 C   0  0  0  0  0  2  0  0  0  0  0  0
  181.9640  179.0100  142.9420 C   0  0  0  0  0  0  0  0  0  0  0  0
  183.7750  178.1510  141.5780 C   0  0  0  0  0  3  0  0  0  0  0  0
  182.4250  178.4710  141.7350 C   0  0  0  0  0  3  0  0  0  0  0  0
  184.6830  178.3580  142.6200 C   0  0  0  0  0  0  0  0  0  0  0  0
  186.0040  176.9020  144.7290 O   0  0  0  0  0  0  0  0  0  0  0  0
  185.9730  178.0870  145.5030 C   0  0  1  0  0  3  0  0  0  0  0  0
  184.2150  178.8600  143.8590 C   0  0  0  0  0  0  0  0  0  0  0  0
  187.0810  177.7920  144.5660 C   0  0  1  0  0  0  0  0  0  0  0  0
  186.0320  178.0730  142.3730 O   0  0  0  0  0  0  0  0  0  0  0  0
  179.6260  178.4030  143.5120 O   0  0  0  0  0  1  0  0  0  0  0  0
  180.1500  180.5410  142.8890 O   0  0  0  0  0  0  0  0  0  0  0  0
  180.5460  179.3650  143.1090 C   0  0  0  0  0  0  0  0  0  0  0  0
  189.5780  177.6120  144.3130 C   0  0  1  0  0  3  0  0  0  0  0  0
  190.7490  178.0510  145.1790 C   0  0  0  0  0  2  0  0  0  0  0  0
  191.6010  176.8560  145.5670 C   0  0  0  0  0  2  0  0  0  0  0  0
  191.4510  176.5820  147.0210 C   0  0  0  0  0  0  0  0  0  0  0  0
  190.5890  177.2130  147.6890 O   0  0  0  0  0  0  0  0  0  0  0  0
  192.2830  175.6520  147.6380 O   0  0  0  0  0  0  0  0  0  0  0  0
  193.1910  176.0400  148.5440 O   0  0  0  0  0  1  0  0  0  0  0  0
  189.9780  176.4760  143.3640 C   0  0  0  0  0  2  0  0  0  0  0  0
  190.9170  177.0420  139.2060 C   0  0  0  0  0  0  0  0  0  0  0  0
  189.4770  177.2380  139.6020 C   0  0  0  0  0  2  0  0  0  0  0  0
  189.2440  176.7910  141.0230 C   0  0  0  0  0  3  0  0  0  0  0  0
  191.5600  177.4730  141.5610 C   0  0  0  0  0  2  0  0  0  0  0  0
  190.2110  176.9180  141.9480 C   0  0  0  0  0  0  0  0  0  0  0  0
  191.8910  177.1540  140.1240 C   0  0  0  0  0  3  0  0  0  0  0  0
  191.2600  176.7800  137.7790 C   0  0  0  0  0  2  0  0  0  0  0  0
  192.6300  176.6570  137.6360 F   0  0  0  0  0  0  0  0  0  0  0  0
  3 10  1  0  0  0  0
  4 12  1  0  0  0  0
  5 16  1  0  0  0  0
  5  2  2  0  0  0  0
  6  7  2  0  0  0  0
  6  8  1  0  0  0  0
  7  5  1  0  0  0  0
  8 11  2  0  0  0  0
 10  9  1  6  0  0  0
 11  2  1  0  0  0  0
 11  3  1  0  0  0  0
 12  9  1  0  0  0  0
 12  1  1  1  0  0  0
 12 10  1  0  0  0  0
 13  8  1  0  0  0  0
 13  4  1  0  0  0  0
 15 16  2  0  0  0  0
 16 14  1  0  0  0  0
 17 24  1  1  0  0  0
 17  1  1  0  0  0  0
 17 18  1  0  0  0  0
 18 19  1  0  0  0  0
 19 20  1  0  0  0  0
 20 22  1  0  0  0  0
 20 21  2  0  0  0  0
 22 23  1  0  0  0  0
 25 26  1  0  0  0  0
 25 30  2  0  0  0  0
 26 27  1  0  0  0  0
 27 29  2  0  0  0  0
 28 29  1  0  0  0  0
 29 24  1  0  0  0  0
 30 28  1  0  0  0  0
 31 25  1  0  0  0  0
 32 31  1  0  0  0  0
M  END
>  <MODEL>
4

>  <REMARK>
 VINA RESULT:      -7.9      3.290      5.458
  Name = 
  10 active torsions:
  status: ('A' for Active; 'I' for Inactive)
    1  A    between atoms: O_2  and  C_12
    2  A    between atoms: C_4  and  C_5
    3  A    between atoms: C_4  and  C_30
    4  A    between atoms: C_5  and  C_8
    5  A    between atoms: C_5  and  C_15
    6  A    between atoms: C_7  and  C_25
    7  A    between atoms: C_8  and  C_32
    8  A    between atoms: C_12  and  C_32
    9  A    between atoms: C_13  and  C_22
   10  A    between atoms: C_15  and  C_19
                            x       y       z     vdW  Elec       q    Type
                         _______ _______ _______ _____ _____    ______ ____

>  <TORSDO>
F 10

$$$$
=
 OpenBabel10222416033D

 32 35  0  0  1  0  0  0  0  0999 V2000
  189.8100  178.4290  144.2310 C   0  0  0  0  0  2  0  0  0  0  0  0
  188.6500  177.5180  138.4620 C   0  0  0  0  0  3  0  0  0  0  0  0
  188.8050  178.6050  140.5950 O   0  0  0  0  0  0  0  0  0  0  0  0
  191.1610  178.2000  141.9710 C   0  0  0  0  0  2  0  0  0  0  0  0
  189.0940  176.5950  137.5100 C   0  0  0  0  0  0  0  0  0  0  0  0
  190.9350  176.0050  138.9720 C   0  0  0  0  0  3  0  0  0  0  0  0
  190.2350  175.8290  137.7770 C   0  0  0  0  0  3  0  0  0  0  0  0
  190.5090  176.9400  139.9190 C   0  0  0  0  0  0  0  0  0  0  0  0
  189.0120  177.0740  142.3800 O   0  0  0  0  0  0  0  0  0  0  0  0
  188.5790  178.3640  141.9920 C   0  0  1  0  0  3  0  0  0  0  0  0
  189.3280  177.6840  139.6750 C   0  0  0  0  0  0  0  0  0  0  0  0
  189.8410  178.1540  142.7360 C   0  0  1  0  0  0  0  0  0  0  0  0
  191.2930  177.1070  141.0680 O   0  0  0  0  0  0  0  0  0  0  0  0
  187.0420  175.9870  136.2540 O   0  0  0  0  0  1  0  0  0  0  0  0
  188.9180  176.6790  135.1440 O   0  0  0  0  0  0  0  0  0  0  0  0
  188.3610  176.4270  136.2450 C   0  0  0  0  0  0  0  0  0  0  0  0
  189.8370  177.1290  145.0340 C   0  0  1  0  0  3  0  0  0  0  0  0
  191.2600  176.7530  145.4170 C   0  0  0  0  0  2  0  0  0  0  0  0
  191.4410  176.8170  146.9230 C   0  0  0  0  0  2  0  0  0  0  0  0
  192.4020  175.7690  147.3590 C   0  0  0  0  0  0  0  0  0  0  0  0
  192.4840  174.6900  146.7150 O   0  0  0  0  0  0  0  0  0  0  0  0
  193.1810  175.9760  148.4940 O   0  0  0  0  0  0  0  0  0  0  0  0
  193.0520  177.0960  149.2180 O   0  0  0  0  0  1  0  0  0  0  0  0
  188.9230  177.1860  146.2640 C   0  0  0  0  0  2  0  0  0  0  0  0
  185.1170  178.8080  145.0930 C   0  0  0  0  0  0  0  0  0  0  0  0
  185.5150  177.5030  144.4550 C   0  0  0  0  0  2  0  0  0  0  0  0
  186.9500  177.1650  144.7720 C   0  0  0  0  0  3  0  0  0  0  0  0
  186.6830  178.3100  146.9480 C   0  0  0  0  0  2  0  0  0  0  0  0
  187.4950  177.5250  145.9470 C   0  0  0  0  0  0  0  0  0  0  0  0
  185.6630  179.1830  146.2610 C   0  0  0  0  0  3  0  0  0  0  0  0
  184.0700  179.6530  144.4500 C   0  0  0  0  0  2  0  0  0  0  0  0
  183.0290  178.8600  144.0060 F   0  0  0  0  0  0  0  0  0  0  0  0
  2 11  1  0  0  0  0
  4 12  1  0  0  0  0
  5  7  1  0  0  0  0
  5  2  2  0  0  0  0
  6  8  1  0  0  0  0
  7  6  2  0  0  0  0
  8 13  1  0  0  0  0
  9 12  1  0  0  0  0
 10  3  1  6  0  0  0
 10  9  1  0  0  0  0
 10 12  1  0  0  0  0
 11  8  2  0  0  0  0
 11  3  1  0  0  0  0
 12  1  1  1  0  0  0
 13  4  1  0  0  0  0
 15 16  2  0  0  0  0
 16 14  1  0  0  0  0
 16  5  1  0  0  0  0
 17  1  1  1  0  0  0
 17 18  1  0  0  0  0
 17 24  1  0  0  0  0
 18 19  1  0  0  0  0
 19 20  1  0  0  0  0
 20 22  1  0  0  0  0
 21 20  2  0  0  0  0
 22 23  1  0  0  0  0
 25 30  2  0  0  0  0
 26 27  1  0  0  0  0
 26 25  1  0  0  0  0
 27 29  2  0  0  0  0
 29 24  1  0  0  0  0
 29 28  1  0  0  0  0
 30 28  1  0  0  0  0
 31 25  1  0  0  0  0
 32 31  1  0  0  0  0
M  END
>  <MODEL>
5

>  <REMARK>
 VINA RESULT:      -7.9      3.892      7.709
  Name = 
  10 active torsions:
  status: ('A' for Active; 'I' for Inactive)
    1  A    between atoms: O_2  and  C_12
    2  A    between atoms: C_4  and  C_5
    3  A    between atoms: C_4  and  C_30
    4  A    between atoms: C_5  and  C_8
    5  A    between atoms: C_5  and  C_15
    6  A    between atoms: C_7  and  C_25
    7  A    between atoms: C_8  and  C_32
    8  A    between atoms: C_12  and  C_32
    9  A    between atoms: C_13  and  C_22
   10  A    between atoms: C_15  and  C_19
                            x       y       z     vdW  Elec       q    Type
                         _______ _______ _______ _____ _____    ______ ____

>  <TORSDO>
F 10

$$$$
=
 OpenBabel10222416033D

 32 35  0  0  1  0  0  0  0  0999 V2000
  191.2740  176.9050  139.4950 C   0  0  0  0  0  2  0  0  0  0  0  0
  189.1720  177.8160  144.9910 C   0  0  0  0  0  3  0  0  0  0  0  0
  190.5420  178.0100  143.0320 O   0  0  0  0  0  0  0  0  0  0  0  0
  189.1870  178.0630  140.6300 C   0  0  0  0  0  2  0  0  0  0  0  0
  187.9530  177.5570  145.6270 C   0  0  0  0  0  0  0  0  0  0  0  0
  186.9180  177.2250  143.4600 C   0  0  0  0  0  3  0  0  0  0  0  0
  186.8280  177.2480  144.8530 C   0  0  0  0  0  3  0  0  0  0  0  0
  188.1280  177.5030  142.8180 C   0  0  0  0  0  0  0  0  0  0  0  0
  190.3590  176.1340  141.6080 O   0  0  0  0  0  0  0  0  0  0  0  0
  191.1840  177.2030  142.0330 C   0  0  1  0  0  3  0  0  0  0  0  0
  189.2810  177.7700  143.5960 C   0  0  0  0  0  0  0  0  0  0  0  0
  190.4650  177.2360  140.7390 C   0  0  1  0  0  0  0  0  0  0  0  0
  188.1320  177.5220  141.4170 O   0  0  0  0  0  0  0  0  0  0  0  0
  187.0310  178.5220  147.7190 O   0  0  0  0  0  0  0  0  0  0  0  0
  188.5360  176.8010  147.8010 O   0  0  0  0  0  1  0  0  0  0  0  0
  187.8620  177.5990  147.0950 C   0  0  0  0  0  0  0  0  0  0  0  0
  190.3910  176.3020  138.4030 C   0  0  1  0  0  3  0  0  0  0  0  0
  190.1840  177.2860  137.2620 C   0  0  0  0  0  2  0  0  0  0  0  0
  188.7160  177.3560  136.8790 C   0  0  0  0  0  2  0  0  0  0  0  0
  188.1660  178.6900  137.2390 C   0  0  0  0  0  0  0  0  0  0  0  0
  188.9460  179.6680  137.3890 O   0  0  0  0  0  0  0  0  0  0  0  0
  186.7960  178.8410  137.4380 O   0  0  0  0  0  0  0  0  0  0  0  0
  186.2520  178.6300  138.6440 O   0  0  0  0  0  1  0  0  0  0  0  0
  190.9300  174.9590  137.8950 C   0  0  0  0  0  2  0  0  0  0  0  0
  194.4040  176.0420  135.6040 C   0  0  0  0  0  0  0  0  0  0  0  0
  194.6430  175.1910  136.8240 C   0  0  0  0  0  2  0  0  0  0  0  0
  193.3880  175.0760  137.6540 C   0  0  0  0  0  3  0  0  0  0  0  0
  192.0610  175.2330  135.5730 C   0  0  0  0  0  2  0  0  0  0  0  0
  192.1780  175.0770  137.0690 C   0  0  0  0  0  0  0  0  0  0  0  0
  193.1950  176.0590  135.0190 C   0  0  0  0  0  3  0  0  0  0  0  0
  195.5320  176.8190  135.0160 C   0  0  0  0  0  2  0  0  0  0  0  0
  195.3970  178.1590  135.3280 F   0  0  0  0  0  0  0  0  0  0  0  0
  2  5  1  0  0  0  0
  3 11  1  0  0  0  0
  4 12  1  0  0  0  0
  4 13  1  0  0  0  0
  5 16  1  0  0  0  0
  6  7  1  0  0  0  0
  7  5  2  0  0  0  0
  8  6  2  0  0  0  0
  8 11  1  0  0  0  0
 10  9  1  1  0  0  0
 10  3  1  0  0  0  0
 11  2  2  0  0  0  0
 12  1  1  6  0  0  0
 12  9  1  0  0  0  0
 12 10  1  0  0  0  0
 13  8  1  0  0  0  0
 16 14  2  0  0  0  0
 16 15  1  0  0  0  0
 17 18  1  6  0  0  0
 17  1  1  0  0  0  0
 19 20  1  0  0  0  0
 19 18  1  0  0  0  0
 20 21  2  0  0  0  0
 20 22  1  0  0  0  0
 22 23  1  0  0  0  0
 24 17  1  0  0  0  0
 25 26  1  0  0  0  0
 26 27  1  0  0  0  0
 28 29  1  0  0  0  0
 29 27  2  0  0  0  0
 29 24  1  0  0  0  0
 30 28  1  0  0  0  0
 30 25  2  0  0  0  0
 31 32  1  0  0  0  0
 31 25  1  0  0  0  0
M  END
>  <MODEL>
6

>  <REMARK>
 VINA RESULT:      -7.8      4.390      7.394
  Name = 
  10 active torsions:
  status: ('A' for Active; 'I' for Inactive)
    1  A    between atoms: O_2  and  C_12
    2  A    between atoms: C_4  and  C_5
    3  A    between atoms: C_4  and  C_30
    4  A    between atoms: C_5  and  C_8
    5  A    between atoms: C_5  and  C_15
    6  A    between atoms: C_7  and  C_25
    7  A    between atoms: C_8  and  C_32
    8  A    between atoms: C_12  and  C_32
    9  A    between atoms: C_13  and  C_22
   10  A    between atoms: C_15  and  C_19
                            x       y       z     vdW  Elec       q    Type
                         _______ _______ _______ _____ _____    ______ ____

>  <TORSDO>
F 10

$$$$
=
 OpenBabel10222416033D

 32 35  0  0  1  0  0  0  0  0999 V2000
  188.2580  178.2530  144.5090 C   0  0  0  0  0  2  0  0  0  0  0  0
  191.1900  176.4040  139.6690 C   0  0  0  0  0  3  0  0  0  0  0  0
  190.2390  176.4160  141.8700 O   0  0  0  0  0  0  0  0  0  0  0  0
  187.6850  177.4420  142.0590 C   0  0  0  0  0  2  0  0  0  0  0  0
  191.2040  176.7940  138.3250 C   0  0  0  0  0  0  0  0  0  0  0  0
  189.1410  178.0160  138.6810 C   0  0  0  0  0  3  0  0  0  0  0  0
  190.1800  177.6140  137.8390 C   0  0  0  0  0  3  0  0  0  0  0  0
  189.1100  177.6120  140.0190 C   0  0  0  0  0  0  0  0  0  0  0  0
  189.7760  178.5980  142.6460 O   0  0  0  0  0  0  0  0  0  0  0  0
  190.0830  177.2670  143.0160 C   0  0  1  0  0  3  0  0  0  0  0  0
  190.1690  176.8210  140.5290 C   0  0  0  0  0  0  0  0  0  0  0  0
  188.7120  177.8130  143.1270 C   0  0  1  0  0  0  0  0  0  0  0  0
  188.0080  178.0020  140.7910 O   0  0  0  0  0  0  0  0  0  0  0  0
  192.0040  175.7240  136.2340 O   0  0  0  0  0  0  0  0  0  0  0  0
  193.4970  176.5410  137.7630 O   0  0  0  0  0  1  0  0  0  0  0  0
  192.2930  176.3540  137.4390 C   0  0  0  0  0  0  0  0  0  0  0  0
  186.8000  177.8690  144.7620 C   0  0  1  0  0  3  0  0  0  0  0  0
  186.6440  177.1780  146.1080 C   0  0  0  0  0  2  0  0  0  0  0  0
  186.9800  178.1340  147.2390 C   0  0  0  0  0  2  0  0  0  0  0  0
  188.1350  177.6080  148.0140 C   0  0  0  0  0  0  0  0  0  0  0  0
  188.2930  177.9570  149.2140 O   0  0  0  0  0  0  0  0  0  0  0  0
  189.0500  176.7570  147.3980 O   0  0  0  0  0  0  0  0  0  0  0  0
  190.3680  176.9340  147.5630 O   0  0  0  0  0  1  0  0  0  0  0  0
  185.8520  179.0670  144.6330 C   0  0  0  0  0  2  0  0  0  0  0  0
  182.0740  178.9220  142.5860 C   0  0  0  0  0  0  0  0  0  0  0  0
  183.2470  178.3000  141.8740 C   0  0  0  0  0  2  0  0  0  0  0  0
  184.5380  178.6180  142.5870 C   0  0  0  0  0  3  0  0  0  0  0  0
  183.2930  178.6310  144.7250 C   0  0  0  0  0  2  0  0  0  0  0  0
  184.5660  178.7540  143.9240 C   0  0  0  0  0  0  0  0  0  0  0  0
  182.0960  179.0740  143.9200 C   0  0  0  0  0  3  0  0  0  0  0  0
  180.8640  179.3140  141.8080 C   0  0  0  0  0  2  0  0  0  0  0  0
  180.1510  178.1870  141.4430 F   0  0  0  0  0  0  0  0  0  0  0  0
  2 11  1  0  0  0  0
  4 12  1  0  0  0  0
  5  2  2  0  0  0  0
  6  8  1  0  0  0  0
  7  5  1  0  0  0  0
  7  6  2  0  0  0  0
  8 11  2  0  0  0  0
  8 13  1  0  0  0  0
  9 10  1  0  0  0  0
  9 12  1  0  0  0  0
 10  3  1  6  0  0  0
 10 12  1  0  0  0  0
 11  3  1  0  0  0  0
 12  1  1  1  0  0  0
 13  4  1  0  0  0  0
 14 16  2  0  0  0  0
 16 15  1  0  0  0  0
 16  5  1  0  0  0  0
 17  1  1  1  0  0  0
 17 18  1  0  0  0  0
 18 19  1  0  0  0  0
 19 20  1  0  0  0  0
 20 21  2  0  0  0  0
 22 23  1  0  0  0  0
 22 20  1  0  0  0  0
 24 17  1  0  0  0  0
 25 30  2  0  0  0  0
 26 25  1  0  0  0  0
 26 27  1  0  0  0  0
 27 29  2  0  0  0  0
 29 24  1  0  0  0  0
 29 28  1  0  0  0  0
 30 28  1  0  0  0  0
 31 25  1  0  0  0  0
 32 31  1  0  0  0  0
M  END
>  <MODEL>
7

>  <REMARK>
 VINA RESULT:      -7.6      3.965      9.008
  Name = 
  10 active torsions:
  status: ('A' for Active; 'I' for Inactive)
    1  A    between atoms: O_2  and  C_12
    2  A    between atoms: C_4  and  C_5
    3  A    between atoms: C_4  and  C_30
    4  A    between atoms: C_5  and  C_8
    5  A    between atoms: C_5  and  C_15
    6  A    between atoms: C_7  and  C_25
    7  A    between atoms: C_8  and  C_32
    8  A    between atoms: C_12  and  C_32
    9  A    between atoms: C_13  and  C_22
   10  A    between atoms: C_15  and  C_19
                            x       y       z     vdW  Elec       q    Type
                         _______ _______ _______ _____ _____    ______ ____

>  <TORSDO>
F 10

$$$$
=
 OpenBabel10222416033D

 32 35  0  0  1  0  0  0  0  0999 V2000
  184.7970  178.5420  144.4540 C   0  0  0  0  0  2  0  0  0  0  0  0
  189.7250  176.8160  147.3150 C   0  0  0  0  0  3  0  0  0  0  0  0
  187.4070  177.0760  146.7560 O   0  0  0  0  0  0  0  0  0  0  0  0
  186.7950  176.8530  144.0760 C   0  0  0  0  0  2  0  0  0  0  0  0
  191.0790  176.7390  146.9700 C   0  0  0  0  0  0  0  0  0  0  0  0
  190.4750  176.9510  144.6320 C   0  0  0  0  0  3  0  0  0  0  0  0
  191.4500  176.8200  145.6230 C   0  0  0  0  0  3  0  0  0  0  0  0
  189.1190  177.0080  144.9680 C   0  0  0  0  0  0  0  0  0  0  0  0
  187.0140  178.9400  145.3600 O   0  0  0  0  0  0  0  0  0  0  0  0
  186.4640  178.0720  146.3340 C   0  0  1  0  0  3  0  0  0  0  0  0
  188.7410  176.9740  146.3330 C   0  0  0  0  0  0  0  0  0  0  0  0
  186.1250  177.9520  144.8980 C   0  0  1  0  0  0  0  0  0  0  0  0
  188.1920  177.0790  143.9200 O   0  0  0  0  0  0  0  0  0  0  0  0
  192.8410  175.4120  148.1070 O   0  0  0  0  0  0  0  0  0  0  0  0
  192.3130  177.5110  148.8460 O   0  0  0  0  0  1  0  0  0  0  0  0
  192.1000  176.5840  148.0190 C   0  0  0  0  0  0  0  0  0  0  0  0
  184.6160  178.4240  142.9410 C   0  0  1  0  0  3  0  0  0  0  0  0
  183.1630  178.6390  142.5460 C   0  0  0  0  0  2  0  0  0  0  0  0
  182.3500  179.1040  143.7410 C   0  0  0  0  0  2  0  0  0  0  0  0
  180.9000  179.0320  143.4210 C   0  0  0  0  0  0  0  0  0  0  0  0
  180.4790  179.4840  142.3230 O   0  0  0  0  0  0  0  0  0  0  0  0
  180.0140  178.4930  144.3510 O   0  0  0  0  0  0  0  0  0  0  0  0
  179.6870  177.1950  144.3130 O   0  0  0  0  0  1  0  0  0  0  0  0
  185.5520  179.3630  142.1690 C   0  0  0  0  0  2  0  0  0  0  0  0
  187.3700  178.2530  138.4340 C   0  0  0  0  0  0  0  0  0  0  0  0
  188.1760  177.9860  139.6780 C   0  0  0  0  0  2  0  0  0  0  0  0
  187.5310  178.6230  140.8840 C   0  0  0  0  0  3  0  0  0  0  0  0
  185.3230  178.2520  139.8320 C   0  0  0  0  0  2  0  0  0  0  0  0
  186.1940  178.7320  140.9670 C   0  0  0  0  0  0  0  0  0  0  0  0
  186.0340  178.3750  138.5080 C   0  0  0  0  0  3  0  0  0  0  0  0
  188.0560  178.3220  137.1120 C   0  0  0  0  0  2  0  0  0  0  0  0
  187.3660  179.1680  136.2640 F   0  0  0  0  0  0  0  0  0  0  0  0
  4 12  1  0  0  0  0
  5  2  1  0  0  0  0
  5 16  1  0  0  0  0
  6  8  2  0  0  0  0
  6  7  1  0  0  0  0
  7  5  2  0  0  0  0
  8 11  1  0  0  0  0
 10  9  1  6  0  0  0
 10  3  1  0  0  0  0
 11  3  1  0  0  0  0
 11  2  2  0  0  0  0
 12  1  1  6  0  0  0
 12  9  1  0  0  0  0
 12 10  1  0  0  0  0
 13  4  1  0  0  0  0
 13  8  1  0  0  0  0
 16 14  2  0  0  0  0
 16 15  1  0  0  0  0
 17 24  1  6  0  0  0
 17  1  1  0  0  0  0
 18 17  1  0  0  0  0
 18 19  1  0  0  0  0
 20 19  1  0  0  0  0
 20 22  1  0  0  0  0
 21 20  2  0  0  0  0
 23 22  1  0  0  0  0
 25 30  2  0  0  0  0
 25 26  1  0  0  0  0
 26 27  1  0  0  0  0
 27 29  2  0  0  0  0
 28 29  1  0  0  0  0
 29 24  1  0  0  0  0
 30 28  1  0  0  0  0
 31 25  1  0  0  0  0
 32 31  1  0  0  0  0
M  END
>  <MODEL>
8

>  <REMARK>
 VINA RESULT:      -7.6      3.639      8.992
  Name = 
  10 active torsions:
  status: ('A' for Active; 'I' for Inactive)
    1  A    between atoms: O_2  and  C_12
    2  A    between atoms: C_4  and  C_5
    3  A    between atoms: C_4  and  C_30
    4  A    between atoms: C_5  and  C_8
    5  A    between atoms: C_5  and  C_15
    6  A    between atoms: C_7  and  C_25
    7  A    between atoms: C_8  and  C_32
    8  A    between atoms: C_12  and  C_32
    9  A    between atoms: C_13  and  C_22
   10  A    between atoms: C_15  and  C_19
                            x       y       z     vdW  Elec       q    Type
                         _______ _______ _______ _____ _____    ______ ____

>  <TORSDO>
F 10

$$$$
=
 OpenBabel10222416033D

 32 35  0  0  1  0  0  0  0  0999 V2000
  189.2140  178.2020  139.2580 C   0  0  0  0  0  2  0  0  0  0  0  0
  187.5950  177.5590  144.9510 C   0  0  0  0  0  3  0  0  0  0  0  0
  187.5410  177.4380  142.5560 O   0  0  0  0  0  0  0  0  0  0  0  0
  189.9180  176.7400  141.3440 C   0  0  0  0  0  2  0  0  0  0  0  0
  188.2770  177.6010  146.1720 C   0  0  0  0  0  0  0  0  0  0  0  0
  190.3770  177.3810  144.9820 C   0  0  0  0  0  3  0  0  0  0  0  0
  189.6740  177.5240  146.1800 C   0  0  0  0  0  3  0  0  0  0  0  0
  189.7010  177.3180  143.7610 C   0  0  0  0  0  0  0  0  0  0  0  0
  188.9830  179.0070  141.5370 O   0  0  0  0  0  0  0  0  0  0  0  0
  187.8060  178.2330  141.3910 C   0  0  1  0  0  3  0  0  0  0  0  0
  188.2900  177.4420  143.7420 C   0  0  0  0  0  0  0  0  0  0  0  0
  189.0760  177.8570  140.7320 C   0  0  1  0  0  0  0  0  0  0  0  0
  190.4640  177.1120  142.6040 O   0  0  0  0  0  0  0  0  0  0  0  0
  188.0820  177.2910  148.6260 O   0  0  0  0  0  1  0  0  0  0  0  0
  186.3790  178.2520  147.4410 O   0  0  0  0  0  0  0  0  0  0  0  0
  187.5280  177.7350  147.4310 C   0  0  0  0  0  0  0  0  0  0  0  0
  189.0320  176.9640  138.3790 C   0  0  1  0  0  3  0  0  0  0  0  0
  187.6050  176.8660  137.8620 C   0  0  0  0  0  2  0  0  0  0  0  0
  186.9960  178.2490  137.7170 C   0  0  0  0  0  2  0  0  0  0  0  0
  185.5720  178.2190  138.1450 C   0  0  0  0  0  0  0  0  0  0  0  0
  184.7390  177.5320  137.4960 O   0  0  0  0  0  0  0  0  0  0  0  0
  185.1650  178.9720  139.2430 O   0  0  0  0  0  0  0  0  0  0  0  0
  184.5520  180.1520  139.0750 O   0  0  0  0  0  1  0  0  0  0  0  0
  190.0490  176.9120  137.2320 C   0  0  0  0  0  2  0  0  0  0  0  0
  193.4640  174.3000  137.1810 C   0  0  0  0  0  0  0  0  0  0  0  0
  193.5340  175.4790  138.1170 C   0  0  0  0  0  2  0  0  0  0  0  0
  192.3880  176.4280  137.8730 C   0  0  0  0  0  3  0  0  0  0  0  0
  190.9930  174.4920  137.2200 C   0  0  0  0  0  2  0  0  0  0  0  0
  191.1910  175.9670  137.4710 C   0  0  0  0  0  0  0  0  0  0  0  0
  192.2740  173.8390  136.7640 C   0  0  0  0  0  3  0  0  0  0  0  0
  194.7210  173.6130  136.7660 C   0  0  0  0  0  2  0  0  0  0  0  0
  194.7110  172.3030  137.2090 F   0  0  0  0  0  0  0  0  0  0  0  0
  2  5  1  0  0  0  0
  3 11  1  0  0  0  0
  4 13  1  0  0  0  0
  5  7  2  0  0  0  0
  5 16  1  0  0  0  0
  6  7  1  0  0  0  0
  8  6  2  0  0  0  0
 10  9  1  1  0  0  0
 10  3  1  0  0  0  0
 11  8  1  0  0  0  0
 11  2  2  0  0  0  0
 12  1  1  6  0  0  0
 12  4  1  0  0  0  0
 12 10  1  0  0  0  0
 12  9  1  0  0  0  0
 13  8  1  0  0  0  0
 16 15  2  0  0  0  0
 16 14  1  0  0  0  0
 17 24  1  6  0  0  0
 17  1  1  0  0  0  0
 18 17  1  0  0  0  0
 19 18  1  0  0  0  0
 19 20  1  0  0  0  0
 20 22  1  0  0  0  0
 21 20  2  0  0  0  0
 23 22  1  0  0  0  0
 24 29  1  0  0  0  0
 25 26  1  0  0  0  0
 27 26  1  0  0  0  0
 28 29  1  0  0  0  0
 29 27  2  0  0  0  0
 30 25  2  0  0  0  0
 30 28  1  0  0  0  0
 31 25  1  0  0  0  0
 31 32  1  0  0  0  0
M  END
>  <MODEL>
9

>  <REMARK>
 VINA RESULT:      -7.5      4.133      7.024
  Name = 
  10 active torsions:
  status: ('A' for Active; 'I' for Inactive)
    1  A    between atoms: O_2  and  C_12
    2  A    between atoms: C_4  and  C_5
    3  A    between atoms: C_4  and  C_30
    4  A    between atoms: C_5  and  C_8
    5  A    between atoms: C_5  and  C_15
    6  A    between atoms: C_7  and  C_25
    7  A    between atoms: C_8  and  C_32
    8  A    between atoms: C_12  and  C_32
    9  A    between atoms: C_13  and  C_22
   10  A    between atoms: C_15  and  C_19
                            x       y       z     vdW  Elec       q    Type
                         _______ _______ _______ _____ _____    ______ ____

>  <TORSDO>
F 10

$$$$
