=
 OpenBabel10222418543D

 70 78  0  0  1  0  0  0  0  0999 V2000
  187.4700  175.0060  135.8810 C   0  0  0  0  0  0  0  0  0  0  0  0
  188.5050  174.0730  136.0950 N   0  0  0  0  0  0  0  0  0  0  0  0
  190.7710  173.6400  136.8120 C   0  0  0  0  0  3  0  0  0  0  0  0
  189.8310  175.8650  137.2190 C   0  0  0  0  0  0  0  0  0  0  0  0
  191.0550  176.2900  137.9890 C   0  0  0  0  0  3  0  0  0  0  0  0
  186.3770  174.4630  135.0400 C   0  0  1  0  0  3  0  0  0  0  0  0
  192.0680  174.0950  137.3560 C   0  0  0  0  0  0  0  0  0  0  0  0
  187.5930  176.2760  136.2710 C   0  0  0  0  0  3  0  0  0  0  0  0
  186.9300  173.0970  134.5980 C   0  0  0  0  0  3  0  0  0  0  0  0
  192.2060  175.3340  137.8360 C   0  0  0  0  0  3  0  0  0  0  0  0
  188.8070  176.7200  136.9990 C   0  0  0  0  0  0  0  0  0  0  0  0
  189.7230  174.4640  136.7380 C   0  0  1  0  0  3  0  0  0  0  0  0
  188.2370  172.8420  135.3760 C   0  0  0  0  0  3  0  0  0  0  0  0
  194.4340  173.6260  136.5530 C   0  0  0  0  0  0  0  0  0  0  0  0
  193.2350  173.2740  137.2520 N   0  0  0  0  0  2  0  0  0  0  0  0
  195.4800  172.9560  136.7600 O   0  0  0  0  0  0  0  0  0  0  0  0
  194.4190  174.6780  135.5750 N   0  0  0  0  0  2  0  0  0  0  0  0
  195.5580  175.1500  134.7870 C   0  0  1  0  0  3  0  0  0  0  0  0
  194.9050  177.2610  135.7760 O   0  0  0  0  0  1  0  0  0  0  0  0
  195.6860  176.6730  134.7780 C   0  0  0  0  0  2  0  0  0  0  0  0
  197.0560  173.3130  134.5980 O   0  0  0  0  0  0  0  0  0  0  0  0
  196.8360  174.4110  135.0880 C   0  0  0  0  0  0  0  0  0  0  0  0
  197.8540  175.0170  136.0030 C   0  0  0  0  0  2  0  0  0  0  0  0
  197.7810  174.3960  137.3900 C   0  0  0  0  0  3  0  0  0  0  0  0
  197.1420  175.2830  138.2490 O   0  0  0  0  0  1  0  0  0  0  0  0
  199.0710  174.1440  137.8650 O   0  0  0  0  0  1  0  0  0  0  0  0
  188.8950  178.1540  137.4180 C   0  0  0  0  0  2  0  0  0  0  0  0
  187.8920  178.4700  138.5110 C   0  0  0  0  0  2  0  0  0  0  0  0
  188.0830  177.5910  139.6120 O   0  0  0  0  0  0  0  0  0  0  0  0
  186.5550  178.8410  141.3190 S   0  0  0  0  0  0  0  0  0  0  0  0
  187.9120  178.0060  140.9330 C   0  0  0  0  0  0  0  0  0  0  0  0
  188.9070  177.7010  141.9180 N   0  0  0  0  0  2  0  0  0  0  0  0
  188.9840  176.4440  142.6490 C   0  0  0  0  0  2  0  0  0  0  0  0
  190.9290  176.5990  144.2030 C   0  0  0  0  0  3  0  0  0  0  0  0
  191.4830  176.8220  145.4620 C   0  0  0  0  0  3  0  0  0  0  0  0
  189.2560  177.1920  146.3740 C   0  0  0  0  0  0  0  0  0  0  0  0
  189.5470  176.6650  144.0170 C   0  0  0  0  0  0  0  0  0  0  0  0
  188.9230  178.5200  148.4470 C   0  0  0  0  0  1  0  0  0  0  0  0
  187.3230  176.9830  144.9190 O   0  0  0  0  0  0  0  0  0  0  0  0
  186.7190  178.8760  146.2970 C   0  0  0  0  0  2  0  0  0  0  0  0
  188.7060  176.9510  145.1070 C   0  0  0  0  0  0  0  0  0  0  0  0
  188.3710  177.3950  147.5820 C   0  0  2  0  0  0  0  0  0  0  0  0
  190.6490  177.1110  146.5430 C   0  0  0  0  0  3  0  0  0  0  0  0
  186.3660  177.4600  145.8660 C   0  0  2  0  0  3  0  0  0  0  0  0
  188.3960  176.2230  148.3390 O   0  0  0  0  0  1  0  0  0  0  0  0
  186.8940  177.7240  147.2800 C   0  0  2  0  0  3  0  0  0  0  0  0
  185.1450  174.3080  135.8190 N   0  0  0  0  0  0  0  0  0  0  0  0
  183.9360  176.2090  134.8480 C   0  0  0  0  0  3  0  0  0  0  0  0
  182.5950  177.6700  136.2210 C   0  0  0  0  0  3  0  0  0  0  0  0
  183.7330  175.7770  137.2290 C   0  0  0  0  0  0  0  0  0  0  0  0
  182.8840  176.9020  137.3600 C   0  0  0  0  0  0  0  0  0  0  0  0
  184.0520  175.0020  138.3430 O   0  0  0  0  0  1  0  0  0  0  0  0
  183.1140  177.3250  134.9750 C   0  0  0  0  0  3  0  0  0  0  0  0
  184.2570  175.4290  135.9670 C   0  0  0  0  0  0  0  0  0  0  0  0
  180.4980  177.0700  140.3150 C   0  0  0  0  0  3  0  0  0  0  0  0
  182.2660  177.2900  138.6560 C   0  0  0  0  0  0  0  0  0  0  0  0
  182.8170  178.3340  139.4160 C   0  0  0  0  0  3  0  0  0  0  0  0
  182.2210  178.7370  140.6140 C   0  0  0  0  0  3  0  0  0  0  0  0
  181.0980  176.6630  139.1200 C   0  0  0  0  0  3  0  0  0  0  0  0
  181.0570  178.1060  141.0650 C   0  0  0  0  0  0  0  0  0  0  0  0
  179.0980  178.9450  142.6620 C   0  0  0  0  0  2  0  0  0  0  0  0
  180.4290  178.5340  142.2730 N   0  0  0  0  0  0  0  0  0  0  0  0
  179.4690  179.1440  144.0320 C   0  0  0  0  0  2  0  0  0  0  0  0
  180.8560  178.7240  143.6750 C   0  0  0  0  0  0  0  0  0  0  0  0
  181.9380  178.5890  144.3030 O   0  0  0  0  0  0  0  0  0  0  0  0
  184.7800  173.0420  136.3140 N   0  0  0  0  0  2  0  0  0  0  0  0
  183.8230  172.4520  135.3890 C   0  0  0  0  0  2  0  0  0  0  0  0
  181.5470  171.9540  136.6950 C   0  0  0  0  0  0  0  0  0  0  0  0
  182.5740  172.1750  136.1050 C   0  0  0  0  0  0  0  0  0  0  0  0
  180.3040  171.6890  137.4200 C   0  0  0  0  0  1  0  0  0  0  0  0
  1  2  1  0  0  0  0
  1  8  2  0  0  0  0
  2 12  1  0  0  0  0
  3  7  2  0  0  0  0
  4  5  1  0  0  0  0
  6 47  1  1  0  0  0
  6  1  1  0  0  0  0
  7 10  1  0  0  0  0
  8 11  1  0  0  0  0
  9  6  1  0  0  0  0
  9 13  2  0  0  0  0
 10  5  2  0  0  0  0
 11  4  2  0  0  0  0
 11 27  1  0  0  0  0
 12  3  1  6  0  0  0
 12  4  1  0  0  0  0
 13  2  1  0  0  0  0
 14 16  2  0  0  0  0
 14 15  1  0  0  0  0
 15  7  1  0  0  0  0
 17 14  1  0  0  0  0
 18 20  1  1  0  0  0
 18 22  1  0  0  0  0
 18 17  1  0  0  0  0
 20 19  1  0  0  0  0
 21 22  2  0  0  0  0
 22 23  1  0  0  0  0
 23 24  1  0  0  0  0
 24 26  1  0  0  0  0
 24 25  1  0  0  0  0
 27 28  1  0  0  0  0
 28 29  1  0  0  0  0
 29 31  1  0  0  0  0
 31 30  2  0  0  0  0
 31 32  1  0  0  0  0
 32 33  1  0  0  0  0
 33 37  1  0  0  0  0
 34 35  1  0  0  0  0
 35 43  2  0  0  0  0
 36 43  1  0  0  0  0
 36 42  1  0  0  0  0
 37 34  2  0  0  0  0
 37 41  1  0  0  0  0
 39 41  1  0  0  0  0
 39 44  1  0  0  0  0
 41 36  2  0  0  0  0
 42 45  1  0  0  0  0
 42 38  1  1  0  0  0
 44 40  1  6  0  0  0
 44 46  1  0  0  0  0
 46 40  1  6  0  0  0
 46 42  1  0  0  0  0
 47 54  1  0  0  0  0
 47 66  1  0  0  0  0
 48 53  2  0  0  0  0
 48 54  1  0  0  0  0
 49 51  2  0  0  0  0
 50 51  1  0  0  0  0
 50 52  1  0  0  0  0
 51 56  1  0  0  0  0
 53 49  1  0  0  0  0
 54 50  2  0  0  0  0
 55 60  1  0  0  0  0
 56 59  1  0  0  0  0
 56 57  2  0  0  0  0
 57 58  1  0  0  0  0
 58 60  2  0  0  0  0
 59 55  2  0  0  0  0
 60 62  1  0  0  0  0
 61 63  1  0  0  0  0
 62 61  1  0  0  0  0
 62 64  1  0  0  0  0
 64 63  1  0  0  0  0
 64 65  2  0  0  0  0
 67 69  1  0  0  0  0
 67 66  1  0  0  0  0
 68 70  1  0  0  0  0
 69 68  3  0  0  0  0
M  END
>  <MODEL>
1

>  <REMARK>
 VINA RESULT:      -8.1      0.000      0.000
  Name = 
  20 active torsions:
  status: ('A' for Active; 'I' for Inactive)
    1  A    between atoms: O_7  and  C_47
    2  A    between atoms: O_7  and  C_62
    3  A    between atoms: N_8  and  C_39
    4  A    between atoms: N_8  and  N_53
    5  A    between atoms: N_12  and  C_69
    6  A    between atoms: C_13  and  C_15
    7  A    between atoms: C_13  and  C_27
    8  A    between atoms: C_18  and  C_44
    9  A    between atoms: C_19  and  C_67
   10  A    between atoms: C_20  and  CA_60
   11  A    between atoms: C_25  and  C_47
   12  A    between atoms: C_25  and  C_52
   13  A    between atoms: C_27  and  CA_60
   14  A    between atoms: C_29  and  N_53
   15  A    between atoms: C_30  and  C_39
   16  A    between atoms: N_32  and  C_40
   17  A    between atoms: N_38  and  C_62
   18  A    between atoms: N_38  and  C_67
   19  A    between atoms: N_50  and  CA_60
   20  A    between atoms: N_53  and  C_58
                            x       y       z     vdW  Elec       q    Type
                         _______ _______ _______ _____ _____    ______ ____

>  <TORSDO>
F 20

$$$$
=
 OpenBabel10222418543D

 70 78  0  0  1  0  0  0  0  0999 V2000
  189.8840  176.7470  140.3930 C   0  0  0  0  0  0  0  0  0  0  0  0
  191.1480  176.8210  139.7730 N   0  0  0  0  0  0  0  0  0  0  0  0
  192.4590  176.6820  137.7490 C   0  0  0  0  0  3  0  0  0  0  0  0
  190.0170  176.6960  137.5500 C   0  0  0  0  0  0  0  0  0  0  0  0
  190.0950  176.7410  136.0460 C   0  0  0  0  0  2  0  0  0  0  0  0
  189.9770  176.6260  141.8670 C   0  0  1  0  0  3  0  0  0  0  0  0
  192.5700  176.4960  136.2860 C   0  0  0  0  0  0  0  0  0  0  0  0
  188.7670  176.6300  139.6730 C   0  0  0  0  0  3  0  0  0  0  0  0
  191.4890  176.4610  142.1020 C   0  0  0  0  0  3  0  0  0  0  0  0
  191.4760  176.4600  135.5200 C   0  0  0  0  0  3  0  0  0  0  0  0
  188.8280  176.6370  138.1900 C   0  0  0  0  0  0  0  0  0  0  0  0
  191.2690  176.7700  138.3470 C   0  0  0  0  0  0  0  0  0  0  0  0
  192.2050  176.6990  140.7580 C   0  0  0  0  0  3  0  0  0  0  0  0
  194.8470  175.3650  136.2380 C   0  0  0  0  0  0  0  0  0  0  0  0
  193.8330  176.2070  135.6780 N   0  0  0  0  0  2  0  0  0  0  0  0
  195.7860  174.9670  135.5000 O   0  0  0  0  0  0  0  0  0  0  0  0
  194.8300  175.0450  137.6380 N   0  0  0  0  0  2  0  0  0  0  0  0
  195.7900  174.2010  138.3500 C   0  0  1  0  0  3  0  0  0  0  0  0
  197.2460  175.3960  139.8720 O   0  0  0  0  0  1  0  0  0  0  0  0
  196.0530  174.6740  139.7800 C   0  0  0  0  0  2  0  0  0  0  0  0
  194.8860  172.1300  139.0890 O   0  0  0  0  0  0  0  0  0  0  0  0
  195.5000  172.7290  138.2170 C   0  0  0  0  0  0  0  0  0  0  0  0
  195.9690  171.9780  137.0110 C   0  0  0  0  0  2  0  0  0  0  0  0
  194.8220  171.2230  136.3560 C   0  0  0  0  0  3  0  0  0  0  0  0
  193.7020  172.0470  136.3160 O   0  0  0  0  0  1  0  0  0  0  0  0
  194.5230  170.0770  137.0980 O   0  0  0  0  0  1  0  0  0  0  0  0
  187.5460  176.5070  137.4290 C   0  0  0  0  0  2  0  0  0  0  0  0
  186.5420  177.5590  137.8600 C   0  0  0  0  0  2  0  0  0  0  0  0
  185.2270  177.0190  137.8200 O   0  0  0  0  0  0  0  0  0  0  0  0
  183.0110  177.5080  136.5330 S   0  0  0  0  0  0  0  0  0  0  0  0
  184.5190  176.8750  136.6270 C   0  0  0  0  0  0  0  0  0  0  0  0
  185.1110  176.1870  135.5170 N   0  0  0  0  0  2  0  0  0  0  0  0
  184.4050  175.2480  134.6590 C   0  0  0  0  0  2  0  0  0  0  0  0
  184.9620  173.2780  136.0850 C   0  0  0  0  0  3  0  0  0  0  0  0
  184.6010  172.1590  136.8320 C   0  0  0  0  0  3  0  0  0  0  0  0
  182.2610  172.5520  136.2860 C   0  0  0  0  0  0  0  0  0  0  0  0
  183.9880  174.0380  135.4340 C   0  0  0  0  0  0  0  0  0  0  0  0
  180.4410  171.6710  137.7290 C   0  0  0  0  0  1  0  0  0  0  0  0
  181.6710  174.4130  134.8430 O   0  0  0  0  0  0  0  0  0  0  0  0
  179.8850  174.4490  136.4720 C   0  0  0  0  0  2  0  0  0  0  0  0
  182.6340  173.6680  135.5230 C   0  0  0  0  0  0  0  0  0  0  0  0
  180.8290  172.0710  136.3120 C   0  0  2  0  0  0  0  0  0  0  0  0
  183.2570  171.7940  136.9260 C   0  0  0  0  0  3  0  0  0  0  0  0
  180.2570  174.2920  135.0050 C   0  0  2  0  0  3  0  0  0  0  0  0
  180.7400  170.9330  135.5090 O   0  0  0  0  0  1  0  0  0  0  0  0
  179.7750  173.0810  135.8100 C   0  0  2  0  0  3  0  0  0  0  0  0
  189.4680  177.8320  142.5250 N   0  0  0  0  0  0  0  0  0  0  0  0
  188.1430  177.3720  144.5390 C   0  0  0  0  0  3  0  0  0  0  0  0
  185.7420  177.6020  144.5350 C   0  0  0  0  0  3  0  0  0  0  0  0
  187.0060  178.1160  142.5260 C   0  0  0  0  0  0  0  0  0  0  0  0
  185.7640  178.0350  143.2000 C   0  0  0  0  0  0  0  0  0  0  0  0
  187.0600  178.5260  141.1960 O   0  0  0  0  0  1  0  0  0  0  0  0
  186.9230  177.2770  145.2000 C   0  0  0  0  0  3  0  0  0  0  0  0
  188.1990  177.7860  143.2010 C   0  0  0  0  0  0  0  0  0  0  0  0
  182.1740  179.1820  142.7030 C   0  0  0  0  0  3  0  0  0  0  0  0
  184.4780  178.4130  142.5540 C   0  0  0  0  0  0  0  0  0  0  0  0
  184.3130  178.2600  141.1680 C   0  0  0  0  0  3  0  0  0  0  0  0
  183.0960  178.5700  140.5550 C   0  0  0  0  0  3  0  0  0  0  0  0
  183.3930  178.8780  143.3140 C   0  0  0  0  0  3  0  0  0  0  0  0
  182.0220  179.0310  141.3240 C   0  0  0  0  0  0  0  0  0  0  0  0
  180.1300  178.9910  139.4500 C   0  0  0  0  0  2  0  0  0  0  0  0
  180.7690  179.3210  140.7050 N   0  0  0  0  0  0  0  0  0  0  0  0
  178.9310  179.7050  139.7770 C   0  0  0  0  0  2  0  0  0  0  0  0
  179.5510  180.0670  141.0850 C   0  0  0  0  0  0  0  0  0  0  0  0
  179.1900  180.7310  142.0910 O   0  0  0  0  0  0  0  0  0  0  0  0
  190.2680  178.9870  142.5950 N   0  0  0  0  0  2  0  0  0  0  0  0
  190.3850  179.3740  143.9940 C   0  0  0  0  0  2  0  0  0  0  0  0
  191.4020  177.3310  145.3820 C   0  0  0  0  0  0  0  0  0  0  0  0
  190.9460  178.2540  144.7540 C   0  0  0  0  0  0  0  0  0  0  0  0
  191.9530  176.2160  146.1530 C   0  0  0  0  0  1  0  0  0  0  0  0
  1  6  1  0  0  0  0
  2  1  1  0  0  0  0
  2 13  1  0  0  0  0
  3 12  2  0  0  0  0
  4 11  2  0  0  0  0
  4 12  1  0  0  0  0
  5  4  1  0  0  0  0
  6  9  1  0  0  0  0
  6 47  1  1  0  0  0
  7  3  1  0  0  0  0
  8  1  2  0  0  0  0
 10  5  1  0  0  0  0
 10  7  2  0  0  0  0
 11  8  1  0  0  0  0
 12  2  1  0  0  0  0
 13  9  2  0  0  0  0
 14 17  1  0  0  0  0
 15 14  1  0  0  0  0
 15  7  1  0  0  0  0
 16 14  2  0  0  0  0
 17 18  1  0  0  0  0
 18 20  1  1  0  0  0
 20 19  1  0  0  0  0
 22 18  1  0  0  0  0
 22 21  2  0  0  0  0
 23 22  1  0  0  0  0
 24 23  1  0  0  0  0
 24 26  1  0  0  0  0
 25 24  1  0  0  0  0
 27 28  1  0  0  0  0
 27 11  1  0  0  0  0
 29 28  1  0  0  0  0
 30 31  2  0  0  0  0
 31 29  1  0  0  0  0
 32 31  1  0  0  0  0
 33 37  1  0  0  0  0
 33 32  1  0  0  0  0
 34 35  1  0  0  0  0
 35 43  2  0  0  0  0
 36 42  1  0  0  0  0
 36 43  1  0  0  0  0
 37 41  1  0  0  0  0
 37 34  2  0  0  0  0
 39 44  1  0  0  0  0
 39 41  1  0  0  0  0
 41 36  2  0  0  0  0
 42 38  1  1  0  0  0
 44 46  1  0  0  0  0
 44 40  1  1  0  0  0
 45 42  1  0  0  0  0
 46 42  1  0  0  0  0
 46 40  1  1  0  0  0
 47 66  1  0  0  0  0
 47 54  1  0  0  0  0
 48 53  1  0  0  0  0
 49 53  2  0  0  0  0
 50 51  2  0  0  0  0
 50 54  1  0  0  0  0
 51 49  1  0  0  0  0
 52 50  1  0  0  0  0
 54 48  2  0  0  0  0
 55 59  1  0  0  0  0
 56 51  1  0  0  0  0
 56 59  2  0  0  0  0
 57 56  1  0  0  0  0
 58 57  2  0  0  0  0
 58 60  1  0  0  0  0
 60 55  2  0  0  0  0
 61 63  1  0  0  0  0
 61 62  1  0  0  0  0
 62 64  1  0  0  0  0
 62 60  1  0  0  0  0
 63 64  1  0  0  0  0
 64 65  2  0  0  0  0
 66 67  1  0  0  0  0
 67 69  1  0  0  0  0
 68 70  1  0  0  0  0
 69 68  3  0  0  0  0
M  END
>  <MODEL>
2

>  <REMARK>
 VINA RESULT:      -6.9      2.420      8.115
  Name = 
  20 active torsions:
  status: ('A' for Active; 'I' for Inactive)
    1  A    between atoms: O_7  and  C_47
    2  A    between atoms: O_7  and  C_62
    3  A    between atoms: N_8  and  C_39
    4  A    between atoms: N_8  and  N_53
    5  A    between atoms: N_12  and  C_69
    6  A    between atoms: C_13  and  C_15
    7  A    between atoms: C_13  and  C_27
    8  A    between atoms: C_18  and  C_44
    9  A    between atoms: C_19  and  C_67
   10  A    between atoms: C_20  and  CA_60
   11  A    between atoms: C_25  and  C_47
   12  A    between atoms: C_25  and  C_52
   13  A    between atoms: C_27  and  CA_60
   14  A    between atoms: C_29  and  N_53
   15  A    between atoms: C_30  and  C_39
   16  A    between atoms: N_32  and  C_40
   17  A    between atoms: N_38  and  C_62
   18  A    between atoms: N_38  and  C_67
   19  A    between atoms: N_50  and  CA_60
   20  A    between atoms: N_53  and  C_58
                            x       y       z     vdW  Elec       q    Type
                         _______ _______ _______ _____ _____    ______ ____

>  <TORSDO>
F 20

$$$$
=
 OpenBabel10222418543D

 70 78  0  0  1  0  0  0  0  0999 V2000
  190.4300  176.6780  140.1880 C   0  0  0  0  0  0  0  0  0  0  0  0
  191.7100  176.8410  139.6200 N   0  0  0  0  0  0  0  0  0  0  0  0
  193.1310  176.6940  137.6730 C   0  0  0  0  0  3  0  0  0  0  0  0
  190.7160  176.4290  137.3670 C   0  0  0  0  0  0  0  0  0  0  0  0
  190.8660  176.3700  135.8690 C   0  0  0  0  0  2  0  0  0  0  0  0
  190.4590  176.6780  141.6700 C   0  0  1  0  0  3  0  0  0  0  0  0
  193.3370  176.4110  136.2360 C   0  0  0  0  0  0  0  0  0  0  0  0
  189.3700  176.3880  139.4320 C   0  0  0  0  0  3  0  0  0  0  0  0
  191.9650  176.6960  141.9840 C   0  0  0  0  0  3  0  0  0  0  0  0
  192.2940  176.2010  135.4280 C   0  0  0  0  0  3  0  0  0  0  0  0
  189.5070  176.2910  137.9570 C   0  0  0  0  0  0  0  0  0  0  0  0
  191.9090  176.6970  138.2090 C   0  0  0  0  0  0  0  0  0  0  0  0
  192.7220  176.9080  140.6570 C   0  0  0  0  0  3  0  0  0  0  0  0
  195.6440  175.3420  136.2610 C   0  0  0  0  0  0  0  0  0  0  0  0
  194.6540  176.2160  135.7090 N   0  0  0  0  0  2  0  0  0  0  0  0
  196.6510  175.0440  135.5660 O   0  0  0  0  0  0  0  0  0  0  0  0
  195.5240  174.8750  137.6140 N   0  0  0  0  0  2  0  0  0  0  0  0
  196.4490  173.9820  138.3120 C   0  0  1  0  0  3  0  0  0  0  0  0
  196.2770  171.9270  137.0440 O   0  0  0  0  0  1  0  0  0  0  0  0
  197.1290  172.9820  137.3790 C   0  0  0  0  0  2  0  0  0  0  0  0
  198.4790  175.0890  138.8670 O   0  0  0  0  0  0  0  0  0  0  0  0
  197.3820  174.7060  139.2480 C   0  0  0  0  0  0  0  0  0  0  0  0
  196.9740  174.9600  140.6650 C   0  0  0  0  0  2  0  0  0  0  0  0
  197.8080  176.0730  141.2840 C   0  0  0  0  0  3  0  0  0  0  0  0
  198.1630  175.7050  142.5770 O   0  0  0  0  0  1  0  0  0  0  0  0
  197.0630  177.2550  141.3300 O   0  0  0  0  0  1  0  0  0  0  0  0
  188.2870  175.9660  137.1540 C   0  0  0  0  0  2  0  0  0  0  0  0
  187.0270  176.4410  137.8520 C   0  0  0  0  0  2  0  0  0  0  0  0
  185.9640  175.5300  137.6040 O   0  0  0  0  0  0  0  0  0  0  0  0
  183.4620  176.1820  137.9560 S   0  0  0  0  0  0  0  0  0  0  0  0
  184.7700  175.9280  137.0020 C   0  0  0  0  0  0  0  0  0  0  0  0
  184.7060  176.1090  135.5820 N   0  0  0  0  0  2  0  0  0  0  0  0
  184.6200  175.0220  134.6160 C   0  0  0  0  0  2  0  0  0  0  0  0
  184.9040  172.8160  135.7460 C   0  0  0  0  0  3  0  0  0  0  0  0
  184.3940  171.6760  136.3630 C   0  0  0  0  0  3  0  0  0  0  0  0
  182.1290  172.4960  136.0060 C   0  0  0  0  0  0  0  0  0  0  0  0
  184.0420  173.7980  135.2530 C   0  0  0  0  0  0  0  0  0  0  0  0
  180.2440  171.7200  137.4260 C   0  0  0  0  0  1  0  0  0  0  0  0
  181.7950  174.6040  134.8480 O   0  0  0  0  0  0  0  0  0  0  0  0
  180.0980  174.6950  136.5670 C   0  0  0  0  0  2  0  0  0  0  0  0
  182.6500  173.6330  135.3720 C   0  0  0  0  0  0  0  0  0  0  0  0
  180.6410  172.2430  136.0520 C   0  0  2  0  0  0  0  0  0  0  0  0
  183.0130  171.5140  136.4860 C   0  0  0  0  0  3  0  0  0  0  0  0
  180.3870  174.6810  135.0730 C   0  0  2  0  0  3  0  0  0  0  0  0
  180.3410  171.2520  135.1150 O   0  0  0  0  0  1  0  0  0  0  0  0
  179.7460  173.4620  135.7440 C   0  0  2  0  0  3  0  0  0  0  0  0
  189.7930  177.8690  142.2070 N   0  0  0  0  0  0  0  0  0  0  0  0
  188.0820  177.2100  143.8380 C   0  0  0  0  0  3  0  0  0  0  0  0
  185.7350  177.5340  143.3860 C   0  0  0  0  0  3  0  0  0  0  0  0
  187.3860  178.2470  141.7550 C   0  0  0  0  0  0  0  0  0  0  0  0
  186.0320  178.1310  142.1510 C   0  0  0  0  0  0  0  0  0  0  0  0
  187.7140  178.8200  140.5280 O   0  0  0  0  0  1  0  0  0  0  0  0
  186.7520  177.0800  144.2240 C   0  0  0  0  0  3  0  0  0  0  0  0
  188.4130  177.7870  142.6040 C   0  0  0  0  0  0  0  0  0  0  0  0
  182.5380  179.0880  140.9980 C   0  0  0  0  0  3  0  0  0  0  0  0
  184.9090  178.6380  141.3180 C   0  0  0  0  0  0  0  0  0  0  0  0
  185.1440  179.0620  140.0000 C   0  0  0  0  0  3  0  0  0  0  0  0
  184.0910  179.5000  139.1920 C   0  0  0  0  0  3  0  0  0  0  0  0
  183.5930  178.6560  141.8070 C   0  0  0  0  0  3  0  0  0  0  0  0
  182.7840  179.5110  139.6910 C   0  0  0  0  0  0  0  0  0  0  0  0
  181.3840  179.8490  137.4500 C   0  0  0  0  0  2  0  0  0  0  0  0
  181.7020  179.9300  138.8590 N   0  0  0  0  0  0  0  0  0  0  0  0
  180.1210  180.5080  137.6110 C   0  0  0  0  0  2  0  0  0  0  0  0
  180.4070  180.6110  139.0720 C   0  0  0  0  0  0  0  0  0  0  0  0
  179.8030  181.0820  140.0700 O   0  0  0  0  0  0  0  0  0  0  0  0
  190.5310  179.0430  142.4400 N   0  0  0  0  0  2  0  0  0  0  0  0
  190.3900  179.3960  143.8460 C   0  0  0  0  0  2  0  0  0  0  0  0
  191.3600  177.4120  145.3490 C   0  0  0  0  0  0  0  0  0  0  0  0
  190.9240  178.3060  144.6680 C   0  0  0  0  0  0  0  0  0  0  0  0
  191.8950  176.3340  146.1820 C   0  0  0  0  0  1  0  0  0  0  0  0
  1  6  1  0  0  0  0
  2  1  1  0  0  0  0
  2 13  1  0  0  0  0
  3 12  2  0  0  0  0
  4 11  2  0  0  0  0
  4 12  1  0  0  0  0
  5  4  1  0  0  0  0
  6  9  1  0  0  0  0
  6 47  1  1  0  0  0
  7  3  1  0  0  0  0
  8  1  2  0  0  0  0
 10  5  1  0  0  0  0
 10  7  2  0  0  0  0
 11  8  1  0  0  0  0
 12  2  1  0  0  0  0
 13  9  2  0  0  0  0
 14 17  1  0  0  0  0
 15  7  1  0  0  0  0
 15 14  1  0  0  0  0
 16 14  2  0  0  0  0
 17 18  1  0  0  0  0
 18 20  1  6  0  0  0
 18 22  1  0  0  0  0
 19 20  1  0  0  0  0
 21 22  2  0  0  0  0
 22 23  1  0  0  0  0
 23 24  1  0  0  0  0
 24 26  1  0  0  0  0
 24 25  1  0  0  0  0
 27 28  1  0  0  0  0
 27 11  1  0  0  0  0
 29 28  1  0  0  0  0
 31 29  1  0  0  0  0
 31 30  2  0  0  0  0
 32 31  1  0  0  0  0
 33 37  1  0  0  0  0
 33 32  1  0  0  0  0
 34 35  1  0  0  0  0
 35 43  2  0  0  0  0
 36 42  1  0  0  0  0
 36 43  1  0  0  0  0
 37 41  1  0  0  0  0
 37 34  2  0  0  0  0
 39 44  1  0  0  0  0
 39 41  1  0  0  0  0
 41 36  2  0  0  0  0
 42 38  1  1  0  0  0
 44 46  1  0  0  0  0
 44 40  1  1  0  0  0
 45 42  1  0  0  0  0
 46 42  1  0  0  0  0
 46 40  1  1  0  0  0
 47 66  1  0  0  0  0
 47 54  1  0  0  0  0
 48 53  1  0  0  0  0
 49 53  2  0  0  0  0
 50 51  2  0  0  0  0
 50 54  1  0  0  0  0
 51 49  1  0  0  0  0
 52 50  1  0  0  0  0
 54 48  2  0  0  0  0
 55 59  1  0  0  0  0
 56 59  2  0  0  0  0
 56 51  1  0  0  0  0
 57 56  1  0  0  0  0
 58 60  1  0  0  0  0
 58 57  2  0  0  0  0
 60 55  2  0  0  0  0
 61 63  1  0  0  0  0
 61 62  1  0  0  0  0
 62 64  1  0  0  0  0
 62 60  1  0  0  0  0
 63 64  1  0  0  0  0
 64 65  2  0  0  0  0
 66 67  1  0  0  0  0
 67 69  1  0  0  0  0
 68 70  1  0  0  0  0
 69 68  3  0  0  0  0
M  END
>  <MODEL>
3

>  <REMARK>
 VINA RESULT:      -6.8      2.627      8.186
  Name = 
  20 active torsions:
  status: ('A' for Active; 'I' for Inactive)
    1  A    between atoms: O_7  and  C_47
    2  A    between atoms: O_7  and  C_62
    3  A    between atoms: N_8  and  C_39
    4  A    between atoms: N_8  and  N_53
    5  A    between atoms: N_12  and  C_69
    6  A    between atoms: C_13  and  C_15
    7  A    between atoms: C_13  and  C_27
    8  A    between atoms: C_18  and  C_44
    9  A    between atoms: C_19  and  C_67
   10  A    between atoms: C_20  and  CA_60
   11  A    between atoms: C_25  and  C_47
   12  A    between atoms: C_25  and  C_52
   13  A    between atoms: C_27  and  CA_60
   14  A    between atoms: C_29  and  N_53
   15  A    between atoms: C_30  and  C_39
   16  A    between atoms: N_32  and  C_40
   17  A    between atoms: N_38  and  C_62
   18  A    between atoms: N_38  and  C_67
   19  A    between atoms: N_50  and  CA_60
   20  A    between atoms: N_53  and  C_58
                            x       y       z     vdW  Elec       q    Type
                         _______ _______ _______ _____ _____    ______ ____

>  <TORSDO>
F 20

$$$$
=
 OpenBabel10222418543D

 70 78  0  0  1  0  0  0  0  0999 V2000
  187.4300  178.3270  140.1030 C   0  0  0  0  0  0  0  0  0  0  0  0
  187.6080  178.0610  141.4760 N   0  0  0  0  0  0  0  0  0  0  0  0
  186.6490  177.9300  143.6890 C   0  0  0  0  0  3  0  0  0  0  0  0
  185.1360  178.2230  141.7860 C   0  0  0  0  0  0  0  0  0  0  0  0
  183.9240  178.0950  142.6720 C   0  0  0  0  0  3  0  0  0  0  0  0
  188.7130  178.5060  139.3840 C   0  0  1  0  0  3  0  0  0  0  0  0
  185.4980  178.0300  144.6110 C   0  0  0  0  0  0  0  0  0  0  0  0
  186.2170  178.5530  139.5950 C   0  0  0  0  0  3  0  0  0  0  0  0
  189.7490  178.4850  140.5220 C   0  0  0  0  0  3  0  0  0  0  0  0
  184.2570  178.1690  144.1370 C   0  0  0  0  0  3  0  0  0  0  0  0
  185.0150  178.4660  140.4610 C   0  0  0  0  0  0  0  0  0  0  0  0
  186.4880  178.0260  142.3680 C   0  0  1  0  0  3  0  0  0  0  0  0
  189.0160  178.0920  141.8210 C   0  0  0  0  0  3  0  0  0  0  0  0
  186.9700  178.2010  146.6770 C   0  0  0  0  0  0  0  0  0  0  0  0
  185.6980  178.1220  146.0250 N   0  0  0  0  0  2  0  0  0  0  0  0
  187.0170  178.5540  147.8850 O   0  0  0  0  0  0  0  0  0  0  0  0
  188.1650  177.8080  145.9820 N   0  0  0  0  0  2  0  0  0  0  0  0
  189.5280  177.8350  146.5110 C   0  0  1  0  0  3  0  0  0  0  0  0
  190.5420  177.9260  148.7090 O   0  0  0  0  0  1  0  0  0  0  0  0
  189.6380  177.2230  147.9080 C   0  0  0  0  0  2  0  0  0  0  0  0
  191.7320  177.2340  145.8490 O   0  0  0  0  0  0  0  0  0  0  0  0
  190.5580  177.3450  145.5260 C   0  0  0  0  0  0  0  0  0  0  0  0
  190.1510  176.9910  144.1300 C   0  0  0  0  0  2  0  0  0  0  0  0
  191.0860  175.9500  143.5340 C   0  0  0  0  0  3  0  0  0  0  0  0
  191.9170  176.5680  142.6060 O   0  0  0  0  0  1  0  0  0  0  0  0
  190.3430  174.9540  142.8950 O   0  0  0  0  0  1  0  0  0  0  0  0
  183.6770  178.7250  139.8420 C   0  0  0  0  0  2  0  0  0  0  0  0
  183.4530  177.8410  138.6290 C   0  0  0  0  0  2  0  0  0  0  0  0
  182.5110  176.8220  138.9400 O   0  0  0  0  0  0  0  0  0  0  0  0
  180.7280  175.7990  140.5460 S   0  0  0  0  0  0  0  0  0  0  0  0
  181.3960  177.0610  139.7420 C   0  0  0  0  0  0  0  0  0  0  0  0
  180.8590  178.3860  139.8530 N   0  0  0  0  0  2  0  0  0  0  0  0
  179.5440  178.7840  139.3720 C   0  0  0  0  0  2  0  0  0  0  0  0
  179.3350  181.2530  139.6670 C   0  0  0  0  0  3  0  0  0  0  0  0
  179.3880  182.5580  139.1830 C   0  0  0  0  0  3  0  0  0  0  0  0
  179.9580  181.7130  136.9710 C   0  0  0  0  0  0  0  0  0  0  0  0
  179.5860  180.1730  138.8170 C   0  0  0  0  0  0  0  0  0  0  0  0
  181.1480  183.1380  135.3210 C   0  0  0  0  0  1  0  0  0  0  0  0
  180.1040  179.3160  136.6130 O   0  0  0  0  0  0  0  0  0  0  0  0
  181.9430  180.1420  135.2780 C   0  0  0  0  0  2  0  0  0  0  0  0
  179.8860  180.4020  137.4620 C   0  0  0  0  0  0  0  0  0  0  0  0
  180.1720  181.9830  135.5000 C   0  0  2  0  0  0  0  0  0  0  0  0
  179.6910  182.7860  137.8400 C   0  0  0  0  0  3  0  0  0  0  0  0
  180.6190  179.3910  135.2830 C   0  0  2  0  0  3  0  0  0  0  0  0
  178.9500  182.3680  134.9480 O   0  0  0  0  0  1  0  0  0  0  0  0
  180.7040  180.7930  134.6730 C   0  0  2  0  0  3  0  0  0  0  0  0
  188.9430  177.4090  138.4400 N   0  0  0  0  0  0  0  0  0  0  0  0
  188.2370  178.2320  136.2390 C   0  0  0  0  0  3  0  0  0  0  0  0
  186.4520  177.1630  135.0180 C   0  0  0  0  0  3  0  0  0  0  0  0
  187.1390  176.2770  137.1720 C   0  0  0  0  0  0  0  0  0  0  0  0
  186.3080  176.2000  136.0290 C   0  0  0  0  0  0  0  0  0  0  0  0
  187.0110  175.3470  138.2010 O   0  0  0  0  0  1  0  0  0  0  0  0
  187.4110  178.1690  135.1210 C   0  0  0  0  0  3  0  0  0  0  0  0
  188.1090  177.2960  137.2730 C   0  0  0  0  0  0  0  0  0  0  0  0
  183.0070  174.4070  135.4430 C   0  0  0  0  0  3  0  0  0  0  0  0
  185.2990  175.1220  135.8460 C   0  0  0  0  0  0  0  0  0  0  0  0
  185.6660  173.7770  136.0060 C   0  0  0  0  0  3  0  0  0  0  0  0
  184.7180  172.7580  135.8800 C   0  0  0  0  0  3  0  0  0  0  0  0
  183.9570  175.4250  135.5630 C   0  0  0  0  0  3  0  0  0  0  0  0
  183.3840  173.0730  135.6000 C   0  0  0  0  0  0  0  0  0  0  0  0
  182.2410  170.8430  134.6980 C   0  0  0  0  0  2  0  0  0  0  0  0
  182.4080  172.0360  135.4990 N   0  0  0  0  0  0  0  0  0  0  0  0
  181.0100  170.4850  135.3400 C   0  0  0  0  0  2  0  0  0  0  0  0
  181.1440  171.7050  136.1890 C   0  0  0  0  0  0  0  0  0  0  0  0
  180.4660  172.2330  137.1070 O   0  0  0  0  0  0  0  0  0  0  0  0
  190.0420  176.5490  138.6130 N   0  0  0  0  0  2  0  0  0  0  0  0
  191.0630  176.9150  137.6420 C   0  0  0  0  0  2  0  0  0  0  0  0
  193.0120  175.0900  137.6880 C   0  0  0  0  0  0  0  0  0  0  0  0
  192.1310  175.9110  137.6690 C   0  0  0  0  0  0  0  0  0  0  0  0
  194.0830  174.0930  137.7010 C   0  0  0  0  0  1  0  0  0  0  0  0
  1  2  1  0  0  0  0
  2 13  1  0  0  0  0
  2 12  1  0  0  0  0
  3  7  2  0  0  0  0
  4 12  1  0  0  0  0
  4  5  1  0  0  0  0
  5 10  2  0  0  0  0
  6 47  1  6  0  0  0
  6  1  1  0  0  0  0
  6  9  1  0  0  0  0
  7 15  1  0  0  0  0
  8  1  2  0  0  0  0
  8 11  1  0  0  0  0
  9 13  2  0  0  0  0
 10  7  1  0  0  0  0
 11  4  2  0  0  0  0
 12  3  1  1  0  0  0
 14 16  2  0  0  0  0
 15 14  1  0  0  0  0
 17 18  1  0  0  0  0
 17 14  1  0  0  0  0
 18 20  1  1  0  0  0
 20 19  1  0  0  0  0
 22 21  2  0  0  0  0
 22 18  1  0  0  0  0
 23 22  1  0  0  0  0
 24 23  1  0  0  0  0
 25 24  1  0  0  0  0
 26 24  1  0  0  0  0
 27 11  1  0  0  0  0
 28 29  1  0  0  0  0
 28 27  1  0  0  0  0
 29 31  1  0  0  0  0
 31 32  1  0  0  0  0
 31 30  2  0  0  0  0
 33 32  1  0  0  0  0
 35 34  1  0  0  0  0
 36 41  2  0  0  0  0
 36 43  1  0  0  0  0
 37 33  1  0  0  0  0
 37 34  2  0  0  0  0
 39 41  1  0  0  0  0
 41 37  1  0  0  0  0
 42 38  1  6  0  0  0
 42 36  1  0  0  0  0
 43 35  2  0  0  0  0
 44 40  1  1  0  0  0
 44 39  1  0  0  0  0
 45 42  1  0  0  0  0
 46 40  1  1  0  0  0
 46 44  1  0  0  0  0
 46 42  1  0  0  0  0
 47 66  1  0  0  0  0
 48 54  1  0  0  0  0
 49 53  1  0  0  0  0
 49 51  2  0  0  0  0
 50 54  2  0  0  0  0
 50 52  1  0  0  0  0
 51 50  1  0  0  0  0
 53 48  2  0  0  0  0
 54 47  1  0  0  0  0
 55 59  2  0  0  0  0
 55 60  1  0  0  0  0
 56 57  2  0  0  0  0
 56 51  1  0  0  0  0
 58 57  1  0  0  0  0
 59 56  1  0  0  0  0
 60 58  2  0  0  0  0
 61 63  1  0  0  0  0
 61 62  1  0  0  0  0
 62 60  1  0  0  0  0
 62 64  1  0  0  0  0
 63 64  1  0  0  0  0
 64 65  2  0  0  0  0
 67 69  1  0  0  0  0
 67 66  1  0  0  0  0
 68 70  1  0  0  0  0
 69 68  3  0  0  0  0
M  END
>  <MODEL>
4

>  <REMARK>
 VINA RESULT:      -6.0      3.313     10.141
  Name = 
  20 active torsions:
  status: ('A' for Active; 'I' for Inactive)
    1  A    between atoms: O_7  and  C_47
    2  A    between atoms: O_7  and  C_62
    3  A    between atoms: N_8  and  C_39
    4  A    between atoms: N_8  and  N_53
    5  A    between atoms: N_12  and  C_69
    6  A    between atoms: C_13  and  C_15
    7  A    between atoms: C_13  and  C_27
    8  A    between atoms: C_18  and  C_44
    9  A    between atoms: C_19  and  C_67
   10  A    between atoms: C_20  and  CA_60
   11  A    between atoms: C_25  and  C_47
   12  A    between atoms: C_25  and  C_52
   13  A    between atoms: C_27  and  CA_60
   14  A    between atoms: C_29  and  N_53
   15  A    between atoms: C_30  and  C_39
   16  A    between atoms: N_32  and  C_40
   17  A    between atoms: N_38  and  C_62
   18  A    between atoms: N_38  and  C_67
   19  A    between atoms: N_50  and  CA_60
   20  A    between atoms: N_53  and  C_58
                            x       y       z     vdW  Elec       q    Type
                         _______ _______ _______ _____ _____    ______ ____

>  <TORSDO>
F 20

$$$$
=
 OpenBabel10222418543D

 70 78  0  0  1  0  0  0  0  0999 V2000
  185.6180  178.4510  139.7180 C   0  0  0  0  0  0  0  0  0  0  0  0
  184.3110  178.2200  139.2440 N   0  0  0  0  0  0  0  0  0  0  0  0
  182.8550  177.7190  137.3840 C   0  0  0  0  0  3  0  0  0  0  0  0
  185.2740  177.5490  137.0400 C   0  0  0  0  0  0  0  0  0  0  0  0
  185.0830  177.0040  135.6490 C   0  0  0  0  0  2  0  0  0  0  0  0
  185.6370  179.0630  141.0680 C   0  0  1  0  0  3  0  0  0  0  0  0
  182.6370  177.4080  135.9550 C   0  0  0  0  0  0  0  0  0  0  0  0
  186.6800  178.2770  138.9290 C   0  0  0  0  0  3  0  0  0  0  0  0
  184.1490  179.3530  141.3330 C   0  0  0  0  0  3  0  0  0  0  0  0
  183.6710  177.1430  135.1520 C   0  0  0  0  0  3  0  0  0  0  0  0
  186.5080  177.7750  137.5430 C   0  0  0  0  0  0  0  0  0  0  0  0
  184.0850  177.7930  137.8960 C   0  0  0  0  0  0  0  0  0  0  0  0
  183.3320  178.7050  140.1980 C   0  0  0  0  0  3  0  0  0  0  0  0
  180.4380  178.6220  135.5590 C   0  0  0  0  0  0  0  0  0  0  0  0
  181.3350  177.5220  135.3700 N   0  0  0  0  0  2  0  0  0  0  0  0
  179.4510  178.7440  134.7860 O   0  0  0  0  0  0  0  0  0  0  0  0
  180.6210  179.5250  136.6610 N   0  0  0  0  0  2  0  0  0  0  0  0
  179.7930  180.6870  136.9810 C   0  0  1  0  0  3  0  0  0  0  0  0
  180.3950  180.3690  139.3040 O   0  0  0  0  0  1  0  0  0  0  0  0
  179.3520  180.7200  138.4440 C   0  0  0  0  0  2  0  0  0  0  0  0
  180.7230  182.0910  135.3020 O   0  0  0  0  0  0  0  0  0  0  0  0
  180.3640  181.9830  136.4660 C   0  0  0  0  0  0  0  0  0  0  0  0
  180.5060  183.1570  137.3820 C   0  0  0  0  0  2  0  0  0  0  0  0
  181.3030  184.2730  136.7240 C   0  0  0  0  0  3  0  0  0  0  0  0
  182.3070  184.6850  137.5940 O   0  0  0  0  0  1  0  0  0  0  0  0
  180.4640  185.3550  136.4440 O   0  0  0  0  0  1  0  0  0  0  0  0
  187.7310  177.5950  136.7000 C   0  0  0  0  0  2  0  0  0  0  0  0
  188.0770  176.1260  136.5400 C   0  0  0  0  0  2  0  0  0  0  0  0
  188.8570  175.6890  137.6460 O   0  0  0  0  0  0  0  0  0  0  0  0
  189.7350  173.4120  136.7230 S   0  0  0  0  0  0  0  0  0  0  0  0
  189.9550  174.8430  137.4920 C   0  0  0  0  0  0  0  0  0  0  0  0
  191.2380  175.2300  137.9980 N   0  0  0  0  0  2  0  0  0  0  0  0
  192.3720  175.6060  137.1670 C   0  0  0  0  0  2  0  0  0  0  0  0
  194.3170  175.2180  138.6800 C   0  0  0  0  0  3  0  0  0  0  0  0
  195.4430  174.4990  139.0770 C   0  0  0  0  0  3  0  0  0  0  0  0
  195.1200  172.9670  137.2120 C   0  0  0  0  0  0  0  0  0  0  0  0
  193.5900  174.8280  137.5550 C   0  0  0  0  0  0  0  0  0  0  0  0
  196.0460  170.6630  137.2690 C   0  0  0  0  0  1  0  0  0  0  0  0
  193.2840  173.3420  135.6680 O   0  0  0  0  0  0  0  0  0  0  0  0
  193.2910  170.9330  135.8740 C   0  0  0  0  0  2  0  0  0  0  0  0
  193.9980  173.7060  136.8100 C   0  0  0  0  0  0  0  0  0  0  0  0
  195.6420  171.8250  136.3720 C   0  0  2  0  0  0  0  0  0  0  0  0
  195.8450  173.3830  138.3420 C   0  0  0  0  0  3  0  0  0  0  0  0
  193.4460  172.1230  134.9390 C   0  0  2  0  0  3  0  0  0  0  0  0
  196.7860  172.2660  135.7050 O   0  0  0  0  0  1  0  0  0  0  0  0
  194.6650  171.2750  135.3110 C   0  0  2  0  0  3  0  0  0  0  0  0
  186.1790  178.1300  142.0600 N   0  0  0  0  0  0  0  0  0  0  0  0
  188.4030  178.1330  141.0230 C   0  0  0  0  0  3  0  0  0  0  0  0
  190.3710  177.5430  142.2860 C   0  0  0  0  0  3  0  0  0  0  0  0
  188.2010  177.5680  143.3760 C   0  0  0  0  0  0  0  0  0  0  0  0
  189.6010  177.3700  143.4470 C   0  0  0  0  0  0  0  0  0  0  0  0
  187.4060  177.3880  144.5060 O   0  0  0  0  0  1  0  0  0  0  0  0
  189.7770  177.9250  141.0850 C   0  0  0  0  0  3  0  0  0  0  0  0
  187.6030  177.9540  142.1590 C   0  0  0  0  0  0  0  0  0  0  0  0
  190.6140  177.2790  147.1100 C   0  0  0  0  0  3  0  0  0  0  0  0
  190.2940  177.0060  144.7120 C   0  0  0  0  0  0  0  0  0  0  0  0
  191.3700  176.1050  144.6940 C   0  0  0  0  0  3  0  0  0  0  0  0
  192.0570  175.7890  145.8700 C   0  0  0  0  0  3  0  0  0  0  0  0
  189.9240  177.5900  145.9360 C   0  0  0  0  0  3  0  0  0  0  0  0
  191.6800  176.3780  147.0810 C   0  0  0  0  0  0  0  0  0  0  0  0
  192.8310  174.8770  148.9560 C   0  0  0  0  0  2  0  0  0  0  0  0
  192.3970  176.0790  148.2780 N   0  0  0  0  0  0  0  0  0  0  0  0
  193.4680  175.6020  150.0150 C   0  0  0  0  0  2  0  0  0  0  0  0
  193.0430  176.8690  149.3480 C   0  0  0  0  0  0  0  0  0  0  0  0
  193.1750  178.0950  149.5940 O   0  0  0  0  0  0  0  0  0  0  0  0
  185.3190  177.5050  142.9810 N   0  0  0  0  0  2  0  0  0  0  0  0
  184.5240  178.5370  143.6320 C   0  0  0  0  0  2  0  0  0  0  0  0
  185.5080  178.9750  146.0760 C   0  0  0  0  0  0  0  0  0  0  0  0
  185.0610  178.7790  144.9750 C   0  0  0  0  0  0  0  0  0  0  0  0
  186.0530  179.2040  147.4150 C   0  0  0  0  0  1  0  0  0  0  0  0
  1  6  1  0  0  0  0
  2  1  1  0  0  0  0
  2 13  1  0  0  0  0
  3 12  2  0  0  0  0
  4 11  2  0  0  0  0
  4 12  1  0  0  0  0
  5  4  1  0  0  0  0
  6  9  1  0  0  0  0
  6 47  1  1  0  0  0
  7  3  1  0  0  0  0
  8  1  2  0  0  0  0
 10  5  1  0  0  0  0
 10  7  2  0  0  0  0
 11  8  1  0  0  0  0
 12  2  1  0  0  0  0
 13  9  2  0  0  0  0
 14 17  1  0  0  0  0
 15 14  1  0  0  0  0
 15  7  1  0  0  0  0
 16 14  2  0  0  0  0
 17 18  1  0  0  0  0
 18 20  1  1  0  0  0
 20 19  1  0  0  0  0
 21 22  2  0  0  0  0
 22 18  1  0  0  0  0
 22 23  1  0  0  0  0
 24 23  1  0  0  0  0
 24 25  1  0  0  0  0
 26 24  1  0  0  0  0
 27 11  1  0  0  0  0
 28 27  1  0  0  0  0
 28 29  1  0  0  0  0
 30 31  2  0  0  0  0
 31 29  1  0  0  0  0
 31 32  1  0  0  0  0
 33 37  1  0  0  0  0
 33 32  1  0  0  0  0
 34 35  1  0  0  0  0
 36 43  1  0  0  0  0
 37 34  2  0  0  0  0
 39 41  1  0  0  0  0
 41 36  2  0  0  0  0
 41 37  1  0  0  0  0
 42 36  1  0  0  0  0
 42 38  1  1  0  0  0
 43 35  2  0  0  0  0
 44 46  1  0  0  0  0
 44 39  1  0  0  0  0
 44 40  1  1  0  0  0
 45 42  1  0  0  0  0
 46 40  1  1  0  0  0
 46 42  1  0  0  0  0
 47 54  1  0  0  0  0
 47 66  1  0  0  0  0
 48 53  2  0  0  0  0
 48 54  1  0  0  0  0
 49 51  2  0  0  0  0
 50 51  1  0  0  0  0
 50 52  1  0  0  0  0
 51 56  1  0  0  0  0
 53 49  1  0  0  0  0
 54 50  2  0  0  0  0
 56 59  1  0  0  0  0
 57 56  2  0  0  0  0
 57 58  1  0  0  0  0
 58 60  2  0  0  0  0
 59 55  2  0  0  0  0
 60 55  1  0  0  0  0
 60 62  1  0  0  0  0
 61 63  1  0  0  0  0
 62 61  1  0  0  0  0
 62 64  1  0  0  0  0
 64 65  2  0  0  0  0
 64 63  1  0  0  0  0
 66 67  1  0  0  0  0
 67 69  1  0  0  0  0
 68 70  1  0  0  0  0
 69 68  3  0  0  0  0
M  END
>  <MODEL>
5

>  <REMARK>
 VINA RESULT:      -5.8      3.668     11.804
  Name = 
  20 active torsions:
  status: ('A' for Active; 'I' for Inactive)
    1  A    between atoms: O_7  and  C_47
    2  A    between atoms: O_7  and  C_62
    3  A    between atoms: N_8  and  C_39
    4  A    between atoms: N_8  and  N_53
    5  A    between atoms: N_12  and  C_69
    6  A    between atoms: C_13  and  C_15
    7  A    between atoms: C_13  and  C_27
    8  A    between atoms: C_18  and  C_44
    9  A    between atoms: C_19  and  C_67
   10  A    between atoms: C_20  and  CA_60
   11  A    between atoms: C_25  and  C_47
   12  A    between atoms: C_25  and  C_52
   13  A    between atoms: C_27  and  CA_60
   14  A    between atoms: C_29  and  N_53
   15  A    between atoms: C_30  and  C_39
   16  A    between atoms: N_32  and  C_40
   17  A    between atoms: N_38  and  C_62
   18  A    between atoms: N_38  and  C_67
   19  A    between atoms: N_50  and  CA_60
   20  A    between atoms: N_53  and  C_58
                            x       y       z     vdW  Elec       q    Type
                         _______ _______ _______ _____ _____    ______ ____

>  <TORSDO>
F 20

$$$$
=
 OpenBabel10222418543D

 70 78  0  0  1  0  0  0  0  0999 V2000
  186.5080  174.9470  135.6080 C   0  0  0  0  0  0  0  0  0  0  0  0
  187.5880  174.1880  136.1030 N   0  0  0  0  0  0  0  0  0  0  0  0
  189.7840  174.1450  137.1070 C   0  0  0  0  0  3  0  0  0  0  0  0
  188.6130  176.2920  136.9740 C   0  0  0  0  0  0  0  0  0  0  0  0
  189.6970  176.9830  137.7600 C   0  0  0  0  0  3  0  0  0  0  0  0
  185.5710  174.1420  134.7890 C   0  0  1  0  0  3  0  0  0  0  0  0
  190.9640  174.8320  137.6750 C   0  0  0  0  0  0  0  0  0  0  0  0
  186.4730  176.2730  135.7500 C   0  0  0  0  0  3  0  0  0  0  0  0
  186.2890  172.7860  134.6810 C   0  0  0  0  0  3  0  0  0  0  0  0
  190.9360  176.1460  137.9120 C   0  0  0  0  0  3  0  0  0  0  0  0
  187.5510  176.9750  136.4910 C   0  0  0  0  0  0  0  0  0  0  0  0
  188.6840  174.8220  136.7710 C   0  0  1  0  0  3  0  0  0  0  0  0
  187.5140  172.8230  135.6180 C   0  0  0  0  0  3  0  0  0  0  0  0
  193.4060  174.3950  137.1180 C   0  0  0  0  0  0  0  0  0  0  0  0
  192.2030  174.1360  137.8500 N   0  0  0  0  0  2  0  0  0  0  0  0
  194.4920  173.9200  137.5430 O   0  0  0  0  0  0  0  0  0  0  0  0
  193.3590  175.1210  135.8790 N   0  0  0  0  0  2  0  0  0  0  0  0
  194.4970  175.4620  135.0260 C   0  0  1  0  0  3  0  0  0  0  0  0
  194.5670  177.7890  135.6910 O   0  0  0  0  0  1  0  0  0  0  0  0
  194.4970  176.9280  134.5940 C   0  0  0  0  0  2  0  0  0  0  0  0
  196.3860  175.5550  136.4670 O   0  0  0  0  0  0  0  0  0  0  0  0
  195.8130  174.9630  135.5640 C   0  0  0  0  0  0  0  0  0  0  0  0
  196.4390  173.7320  134.9880 C   0  0  0  0  0  2  0  0  0  0  0  0
  197.5460  173.2080  135.8910 C   0  0  0  0  0  3  0  0  0  0  0  0
  198.5180  172.5970  135.1050 O   0  0  0  0  0  1  0  0  0  0  0  0
  197.0240  172.2710  136.7870 O   0  0  0  0  0  1  0  0  0  0  0  0
  187.4640  178.4630  136.6240 C   0  0  0  0  0  2  0  0  0  0  0  0
  186.1170  178.8870  137.1800 C   0  0  0  0  0  2  0  0  0  0  0  0
  185.8290  178.1520  138.3620 O   0  0  0  0  0  0  0  0  0  0  0  0
  184.8190  179.7580  140.1550 S   0  0  0  0  0  0  0  0  0  0  0  0
  185.9660  178.7080  139.6340 C   0  0  0  0  0  0  0  0  0  0  0  0
  187.0870  178.3590  140.4550 N   0  0  0  0  0  2  0  0  0  0  0  0
  187.1630  177.1620  141.2800 C   0  0  0  0  0  2  0  0  0  0  0  0
  186.5440  177.7770  143.6170 C   0  0  0  0  0  3  0  0  0  0  0  0
  186.8710  178.0860  144.9360 C   0  0  0  0  0  3  0  0  0  0  0  0
  189.2360  177.8640  144.3990 C   0  0  0  0  0  0  0  0  0  0  0  0
  187.5470  177.5140  142.6830 C   0  0  0  0  0  0  0  0  0  0  0  0
  190.9110  177.3650  146.1640 C   0  0  0  0  0  1  0  0  0  0  0  0
  189.8960  177.3370  142.1220 O   0  0  0  0  0  0  0  0  0  0  0  0
  191.4640  176.0330  143.4210 C   0  0  0  0  0  2  0  0  0  0  0  0
  188.8980  177.5690  143.0700 C   0  0  0  0  0  0  0  0  0  0  0  0
  190.6780  178.0340  144.8170 C   0  0  2  0  0  0  0  0  0  0  0  0
  188.2110  178.1360  145.3220 C   0  0  0  0  0  3  0  0  0  0  0  0
  191.2840  177.1510  142.4040 C   0  0  2  0  0  3  0  0  0  0  0  0
  190.9250  179.3990  144.9700 O   0  0  0  0  0  1  0  0  0  0  0  0
  191.7280  177.4760  143.8340 C   0  0  2  0  0  3  0  0  0  0  0  0
  184.2750  174.0030  135.4590 N   0  0  0  0  0  0  0  0  0  0  0  0
  183.0660  175.9540  134.5940 C   0  0  0  0  0  3  0  0  0  0  0  0
  181.9600  177.4990  136.0800 C   0  0  0  0  0  3  0  0  0  0  0  0
  183.1030  175.5590  136.9900 C   0  0  0  0  0  0  0  0  0  0  0  0
  182.3320  176.7290  137.1930 C   0  0  0  0  0  0  0  0  0  0  0  0
  183.5030  174.7820  138.0750 O   0  0  0  0  0  1  0  0  0  0  0  0
  182.3210  177.1130  134.7910 C   0  0  0  0  0  3  0  0  0  0  0  0
  183.4670  175.1710  135.6840 C   0  0  0  0  0  0  0  0  0  0  0  0
  182.1580  177.2080  140.9600 C   0  0  0  0  0  3  0  0  0  0  0  0
  181.8810  177.1640  138.5420 C   0  0  0  0  0  0  0  0  0  0  0  0
  180.6760  177.8680  138.6910 C   0  0  0  0  0  3  0  0  0  0  0  0
  180.2190  178.2450  139.9570 C   0  0  0  0  0  3  0  0  0  0  0  0
  182.6170  176.8380  139.6940 C   0  0  0  0  0  3  0  0  0  0  0  0
  180.9600  177.9130  141.0960 C   0  0  0  0  0  0  0  0  0  0  0  0
  179.2030  178.2540  143.0680 C   0  0  0  0  0  2  0  0  0  0  0  0
  180.4820  178.2700  142.3920 N   0  0  0  0  0  0  0  0  0  0  0  0
  179.7490  178.7600  144.2930 C   0  0  0  0  0  2  0  0  0  0  0  0
  181.0890  178.7910  143.6350 C   0  0  0  0  0  0  0  0  0  0  0  0
  182.2500  179.1230  143.9890 O   0  0  0  0  0  0  0  0  0  0  0  0
  183.7780  172.7240  135.7710 N   0  0  0  0  0  2  0  0  0  0  0  0
  182.6100  172.4760  134.9370 C   0  0  0  0  0  2  0  0  0  0  0  0
  180.4290  173.3460  136.2110 C   0  0  0  0  0  0  0  0  0  0  0  0
  181.4130  172.9560  135.6350 C   0  0  0  0  0  0  0  0  0  0  0  0
  179.2270  173.8120  136.9050 C   0  0  0  0  0  1  0  0  0  0  0  0
  1  8  2  0  0  0  0
  1  2  1  0  0  0  0
  2 12  1  0  0  0  0
  3  7  2  0  0  0  0
  4  5  1  0  0  0  0
  5 10  2  0  0  0  0
  6 47  1  1  0  0  0
  6  1  1  0  0  0  0
  7 15  1  0  0  0  0
  7 10  1  0  0  0  0
  8 11  1  0  0  0  0
  9  6  1  0  0  0  0
  9 13  2  0  0  0  0
 11 27  1  0  0  0  0
 11  4  2  0  0  0  0
 12  4  1  0  0  0  0
 12  3  1  6  0  0  0
 13  2  1  0  0  0  0
 14 16  2  0  0  0  0
 14 15  1  0  0  0  0
 17 14  1  0  0  0  0
 18 20  1  1  0  0  0
 18 22  1  0  0  0  0
 18 17  1  0  0  0  0
 20 19  1  0  0  0  0
 22 21  2  0  0  0  0
 23 22  1  0  0  0  0
 23 24  1  0  0  0  0
 24 26  1  0  0  0  0
 25 24  1  0  0  0  0
 27 28  1  0  0  0  0
 28 29  1  0  0  0  0
 29 31  1  0  0  0  0
 31 30  2  0  0  0  0
 31 32  1  0  0  0  0
 32 33  1  0  0  0  0
 33 37  1  0  0  0  0
 34 35  1  0  0  0  0
 35 43  2  0  0  0  0
 36 42  1  0  0  0  0
 36 43  1  0  0  0  0
 37 41  1  0  0  0  0
 37 34  2  0  0  0  0
 39 44  1  0  0  0  0
 39 41  1  0  0  0  0
 41 36  2  0  0  0  0
 42 45  1  0  0  0  0
 42 38  1  1  0  0  0
 44 40  1  1  0  0  0
 44 46  1  0  0  0  0
 46 40  1  1  0  0  0
 46 42  1  0  0  0  0
 47 54  1  0  0  0  0
 47 66  1  0  0  0  0
 48 53  2  0  0  0  0
 48 54  1  0  0  0  0
 49 51  2  0  0  0  0
 50 51  1  0  0  0  0
 50 52  1  0  0  0  0
 51 56  1  0  0  0  0
 53 49  1  0  0  0  0
 54 50  2  0  0  0  0
 55 60  1  0  0  0  0
 56 57  2  0  0  0  0
 56 59  1  0  0  0  0
 57 58  1  0  0  0  0
 58 60  2  0  0  0  0
 59 55  2  0  0  0  0
 60 62  1  0  0  0  0
 61 63  1  0  0  0  0
 62 61  1  0  0  0  0
 62 64  1  0  0  0  0
 64 65  2  0  0  0  0
 64 63  1  0  0  0  0
 67 69  1  0  0  0  0
 67 66  1  0  0  0  0
 68 70  1  0  0  0  0
 69 68  3  0  0  0  0
M  END
>  <MODEL>
6

>  <REMARK>
 VINA RESULT:      -5.3      1.577      2.378
  Name = 
  20 active torsions:
  status: ('A' for Active; 'I' for Inactive)
    1  A    between atoms: O_7  and  C_47
    2  A    between atoms: O_7  and  C_62
    3  A    between atoms: N_8  and  C_39
    4  A    between atoms: N_8  and  N_53
    5  A    between atoms: N_12  and  C_69
    6  A    between atoms: C_13  and  C_15
    7  A    between atoms: C_13  and  C_27
    8  A    between atoms: C_18  and  C_44
    9  A    between atoms: C_19  and  C_67
   10  A    between atoms: C_20  and  CA_60
   11  A    between atoms: C_25  and  C_47
   12  A    between atoms: C_25  and  C_52
   13  A    between atoms: C_27  and  CA_60
   14  A    between atoms: C_29  and  N_53
   15  A    between atoms: C_30  and  C_39
   16  A    between atoms: N_32  and  C_40
   17  A    between atoms: N_38  and  C_62
   18  A    between atoms: N_38  and  C_67
   19  A    between atoms: N_50  and  CA_60
   20  A    between atoms: N_53  and  C_58
                            x       y       z     vdW  Elec       q    Type
                         _______ _______ _______ _____ _____    ______ ____

>  <TORSDO>
F 20

$$$$
=
 OpenBabel10222418543D

 70 78  0  0  1  0  0  0  0  0999 V2000
  185.4260  178.3920  139.7180 C   0  0  0  0  0  0  0  0  0  0  0  0
  184.1010  178.1380  139.3080 N   0  0  0  0  0  0  0  0  0  0  0  0
  182.5740  177.5400  137.5350 C   0  0  0  0  0  3  0  0  0  0  0  0
  184.9780  177.3500  137.1070 C   0  0  0  0  0  0  0  0  0  0  0  0
  184.7340  176.7320  135.7540 C   0  0  0  0  0  2  0  0  0  0  0  0
  185.4970  179.0750  141.0310 C   0  0  1  0  0  3  0  0  0  0  0  0
  182.3010  177.1530  136.1340 C   0  0  0  0  0  0  0  0  0  0  0  0
  186.4560  178.1760  138.8980 C   0  0  0  0  0  3  0  0  0  0  0  0
  184.0200  179.3810  141.3380 C   0  0  0  0  0  3  0  0  0  0  0  0
  183.3030  176.8450  135.3060 C   0  0  0  0  0  3  0  0  0  0  0  0
  186.2310  177.6010  137.5490 C   0  0  0  0  0  0  0  0  0  0  0  0
  183.8230  177.6400  137.9940 C   0  0  0  0  0  0  0  0  0  0  0  0
  183.1600  178.6730  140.2720 C   0  0  0  0  0  3  0  0  0  0  0  0
  180.1180  178.3790  135.6890 C   0  0  0  0  0  0  0  0  0  0  0  0
  180.9780  177.2370  135.5960 N   0  0  0  0  0  2  0  0  0  0  0  0
  179.1010  178.4380  134.9490 O   0  0  0  0  0  0  0  0  0  0  0  0
  180.3750  179.4010  136.6650 N   0  0  0  0  0  2  0  0  0  0  0  0
  179.5930  180.6180  136.8780 C   0  0  1  0  0  3  0  0  0  0  0  0
  179.7470  180.0100  139.2160 O   0  0  0  0  0  1  0  0  0  0  0  0
  178.9750  180.6930  138.2740 C   0  0  0  0  0  2  0  0  0  0  0  0
  180.8270  181.9380  135.3320 O   0  0  0  0  0  0  0  0  0  0  0  0
  180.3090  181.8690  136.4370 C   0  0  0  0  0  0  0  0  0  0  0  0
  180.3980  183.0450  137.3580 C   0  0  0  0  0  2  0  0  0  0  0  0
  181.7870  183.6650  137.3200 C   0  0  0  0  0  3  0  0  0  0  0  0
  182.5250  183.1850  138.3970 O   0  0  0  0  0  1  0  0  0  0  0  0
  181.6890  185.0560  137.4130 O   0  0  0  0  0  1  0  0  0  0  0  0
  187.4200  177.3750  136.6690 C   0  0  0  0  0  2  0  0  0  0  0  0
  188.0680  176.0340  136.9540 C   0  0  0  0  0  2  0  0  0  0  0  0
  188.2870  175.3330  135.7370 O   0  0  0  0  0  0  0  0  0  0  0  0
  190.0950  176.8280  134.5940 S   0  0  0  0  0  0  0  0  0  0  0  0
  189.5100  175.3720  135.0670 C   0  0  0  0  0  0  0  0  0  0  0  0
  190.2280  174.1590  134.8080 N   0  0  0  0  0  2  0  0  0  0  0  0
  190.3270  173.0450  135.7400 C   0  0  0  0  0  2  0  0  0  0  0  0
  192.0020  171.3510  135.0000 C   0  0  0  0  0  3  0  0  0  0  0  0
  193.2920  170.8270  134.9750 C   0  0  0  0  0  3  0  0  0  0  0  0
  194.0400  172.6000  136.4670 C   0  0  0  0  0  0  0  0  0  0  0  0
  191.7170  172.4920  135.7520 C   0  0  0  0  0  0  0  0  0  0  0  0
  196.4270  173.2810  136.5560 C   0  0  0  0  0  1  0  0  0  0  0  0
  192.4340  174.2330  137.2740 O   0  0  0  0  0  0  0  0  0  0  0  0
  194.3930  175.5960  136.8860 C   0  0  0  0  0  2  0  0  0  0  0  0
  192.7350  173.1120  136.4990 C   0  0  0  0  0  0  0  0  0  0  0  0
  195.1260  173.1820  137.3410 C   0  0  2  0  0  0  0  0  0  0  0  0
  194.3040  171.4450  135.7110 C   0  0  0  0  0  3  0  0  0  0  0  0
  193.3880  175.0860  137.9090 C   0  0  2  0  0  3  0  0  0  0  0  0
  195.3370  172.3080  138.4080 O   0  0  0  0  0  1  0  0  0  0  0  0
  194.8330  174.5780  137.9310 C   0  0  2  0  0  3  0  0  0  0  0  0
  186.0780  178.1960  142.0490 N   0  0  0  0  0  0  0  0  0  0  0  0
  188.2970  178.3220  141.0090 C   0  0  0  0  0  3  0  0  0  0  0  0
  190.2900  177.7550  142.2440 C   0  0  0  0  0  3  0  0  0  0  0  0
  188.1240  177.6560  143.3380 C   0  0  0  0  0  0  0  0  0  0  0  0
  189.5310  177.5080  143.3980 C   0  0  0  0  0  0  0  0  0  0  0  0
  187.3400  177.4020  144.4620 O   0  0  0  0  0  1  0  0  0  0  0  0
  189.6780  178.1620  141.0600 C   0  0  0  0  0  3  0  0  0  0  0  0
  187.5080  178.0680  142.1390 C   0  0  0  0  0  0  0  0  0  0  0  0
  190.5420  177.2890  147.0560 C   0  0  0  0  0  3  0  0  0  0  0  0
  190.2400  177.1190  144.6470 C   0  0  0  0  0  0  0  0  0  0  0  0
  191.3640  176.2800  144.5880 C   0  0  0  0  0  3  0  0  0  0  0  0
  192.0650  175.9430  145.7490 C   0  0  0  0  0  3  0  0  0  0  0  0
  189.8380  177.6200  145.8960 C   0  0  0  0  0  3  0  0  0  0  0  0
  191.6550  176.4500  146.9870 C   0  0  0  0  0  0  0  0  0  0  0  0
  192.8920  174.9230  148.7850 C   0  0  0  0  0  2  0  0  0  0  0  0
  192.3860  176.1310  148.1710 N   0  0  0  0  0  0  0  0  0  0  0  0
  193.4800  175.6280  149.8860 C   0  0  0  0  0  2  0  0  0  0  0  0
  192.9790  176.9000  149.2860 C   0  0  0  0  0  0  0  0  0  0  0  0
  193.0340  178.1170  149.5990 O   0  0  0  0  0  0  0  0  0  0  0  0
  185.2480  177.5770  143.0020 N   0  0  0  0  0  2  0  0  0  0  0  0
  184.8830  178.5720  144.0000 C   0  0  0  0  0  2  0  0  0  0  0  0
  182.2220  178.6440  144.2180 C   0  0  0  0  0  0  0  0  0  0  0  0
  183.4230  178.6130  144.1230 C   0  0  0  0  0  0  0  0  0  0  0  0
  180.7630  178.6900  144.3260 C   0  0  0  0  0  1  0  0  0  0  0  0
  1  6  1  0  0  0  0
  2  1  1  0  0  0  0
  2 13  1  0  0  0  0
  3 12  2  0  0  0  0
  4 11  2  0  0  0  0
  4 12  1  0  0  0  0
  5  4  1  0  0  0  0
  6  9  1  0  0  0  0
  6 47  1  1  0  0  0
  7  3  1  0  0  0  0
  8  1  2  0  0  0  0
 10  5  1  0  0  0  0
 10  7  2  0  0  0  0
 11  8  1  0  0  0  0
 12  2  1  0  0  0  0
 13  9  2  0  0  0  0
 14 17  1  0  0  0  0
 15 14  1  0  0  0  0
 15  7  1  0  0  0  0
 16 14  2  0  0  0  0
 17 18  1  0  0  0  0
 18 20  1  1  0  0  0
 20 19  1  0  0  0  0
 21 22  2  0  0  0  0
 22 18  1  0  0  0  0
 22 23  1  0  0  0  0
 24 23  1  0  0  0  0
 24 26  1  0  0  0  0
 24 25  1  0  0  0  0
 27 28  1  0  0  0  0
 27 11  1  0  0  0  0
 29 28  1  0  0  0  0
 30 31  2  0  0  0  0
 31 29  1  0  0  0  0
 32 31  1  0  0  0  0
 32 33  1  0  0  0  0
 33 37  1  0  0  0  0
 34 37  1  0  0  0  0
 35 34  2  0  0  0  0
 35 43  1  0  0  0  0
 36 41  1  0  0  0  0
 36 42  1  0  0  0  0
 37 41  2  0  0  0  0
 39 44  1  0  0  0  0
 41 39  1  0  0  0  0
 42 38  1  6  0  0  0
 42 46  1  0  0  0  0
 42 45  1  0  0  0  0
 43 36  2  0  0  0  0
 44 40  1  6  0  0  0
 44 46  1  0  0  0  0
 46 40  1  6  0  0  0
 47 54  1  0  0  0  0
 47 66  1  0  0  0  0
 48 53  2  0  0  0  0
 48 54  1  0  0  0  0
 49 51  2  0  0  0  0
 50 51  1  0  0  0  0
 50 52  1  0  0  0  0
 51 56  1  0  0  0  0
 53 49  1  0  0  0  0
 54 50  2  0  0  0  0
 56 59  1  0  0  0  0
 57 56  2  0  0  0  0
 57 58  1  0  0  0  0
 58 60  2  0  0  0  0
 59 55  2  0  0  0  0
 60 55  1  0  0  0  0
 60 62  1  0  0  0  0
 61 63  1  0  0  0  0
 62 61  1  0  0  0  0
 62 64  1  0  0  0  0
 64 65  2  0  0  0  0
 64 63  1  0  0  0  0
 66 67  1  0  0  0  0
 67 69  1  0  0  0  0
 68 70  1  0  0  0  0
 69 68  3  0  0  0  0
M  END
>  <MODEL>
7

>  <REMARK>
 VINA RESULT:      -5.2      3.554     11.629
  Name = 
  20 active torsions:
  status: ('A' for Active; 'I' for Inactive)
    1  A    between atoms: O_7  and  C_47
    2  A    between atoms: O_7  and  C_62
    3  A    between atoms: N_8  and  C_39
    4  A    between atoms: N_8  and  N_53
    5  A    between atoms: N_12  and  C_69
    6  A    between atoms: C_13  and  C_15
    7  A    between atoms: C_13  and  C_27
    8  A    between atoms: C_18  and  C_44
    9  A    between atoms: C_19  and  C_67
   10  A    between atoms: C_20  and  CA_60
   11  A    between atoms: C_25  and  C_47
   12  A    between atoms: C_25  and  C_52
   13  A    between atoms: C_27  and  CA_60
   14  A    between atoms: C_29  and  N_53
   15  A    between atoms: C_30  and  C_39
   16  A    between atoms: N_32  and  C_40
   17  A    between atoms: N_38  and  C_62
   18  A    between atoms: N_38  and  C_67
   19  A    between atoms: N_50  and  CA_60
   20  A    between atoms: N_53  and  C_58
                            x       y       z     vdW  Elec       q    Type
                         _______ _______ _______ _____ _____    ______ ____

>  <TORSDO>
F 20

$$$$
