=
 OpenBabel10222420323D

 37 38  0  0  0  0  0  0  0  0999 V2000
  182.0460  178.9500  142.3530 C   0  0  0  0  0  3  0  0  0  0  0  0
  182.5490  178.6320  141.1510 C   0  0  0  0  0  0  0  0  0  0  0  0
  184.4940  180.0610  139.5160 O   0  0  0  0  0  0  0  0  0  0  0  0
  184.8770  179.0780  140.2070 C   0  0  0  0  0  0  0  0  0  0  0  0
  183.9440  178.3380  141.0070 N   0  0  0  0  0  2  0  0  0  0  0  0
  191.3080  177.2540  140.6960 C   0  0  0  0  0  1  0  0  0  0  0  0
  186.2830  178.6550  140.1740 C   0  0  0  0  0  0  0  0  0  0  0  0
  190.1650  177.5020  139.7740 C   0  0  0  0  0  0  0  0  0  0  0  0
  190.1390  177.2720  138.3950 C   0  0  0  0  0  3  0  0  0  0  0  0
  188.1690  177.9600  138.9740 C   0  0  0  0  0  0  0  0  0  0  0  0
  186.8640  178.3240  138.9780 N   0  0  0  0  0  0  0  0  0  0  0  0
  188.9030  177.9240  140.1140 C   0  0  0  0  0  0  0  0  0  0  0  0
  188.9040  177.5690  137.9220 N   0  0  0  0  0  0  0  0  0  0  0  0
  188.4490  177.3950  136.5550 C   0  0  0  0  0  1  0  0  0  0  0  0
  187.0570  178.6140  141.3650 C   0  0  0  0  0  3  0  0  0  0  0  0
  188.3720  178.2410  141.3190 N   0  0  0  0  0  0  0  0  0  0  0  0
  181.7120  178.6690  139.9840 N   0  0  0  0  0  2  0  0  0  0  0  0
  181.5430  176.3740  139.5510 O   0  0  0  0  0  0  0  0  0  0  0  0
  181.1430  177.5440  139.3070 C   0  0  0  0  0  0  0  0  0  0  0  0
  180.1620  177.7650  138.3400 O   0  0  0  0  0  0  0  0  0  0  0  0
  180.4320  178.4850  137.1480 C   0  0  0  0  0  1  0  0  0  0  0  0
  182.1940  178.5110  144.6620 O   0  0  0  0  0  0  0  0  0  0  0  0
  182.7610  178.9940  143.6470 C   0  0  0  0  0  0  0  0  0  0  0  0
  184.1540  179.5200  143.7940 C   0  0  0  0  0  2  0  0  0  0  0  0
  185.0480  178.4790  144.4510 C   0  0  0  0  0  2  0  0  0  0  0  0
  184.9220  178.5240  145.9630 C   0  0  0  0  0  2  0  0  0  0  0  0
  186.2980  178.4650  146.5980 C   0  0  0  0  0  2  0  0  0  0  0  0
  188.6260  177.7430  145.9690 C   0  0  0  0  0  0  0  0  0  0  0  0
  187.2550  177.9590  145.6290 N   0  0  0  0  0  2  0  0  0  0  0  0
  189.0510  178.0220  147.1220 O   0  0  0  0  0  0  0  0  0  0  0  0
  189.5640  177.1540  144.9660 C   0  0  0  0  0  2  0  0  0  0  0  0
  190.9530  177.4200  145.3320 N   0  0  0  0  0  0  0  0  0  0  0  0
  191.0510  179.5070  144.0970 N   0  0  0  0  0  1  0  0  0  0  0  0
  191.5950  178.1570  144.2370 C   0  0  0  0  0  2  0  0  0  0  0  0
  191.6360  176.1460  145.5220 C   0  0  0  0  0  2  0  0  0  0  0  0
  191.8300  175.8710  147.0040 C   0  0  0  0  0  2  0  0  0  0  0  0
  192.1220  177.0610  147.6780 O   0  0  0  0  0  1  0  0  0  0  0  0
  1 23  1  0  0  0  0
  2  1  2  0  0  0  0
  3  4  2  0  0  0  0
  4  5  1  0  0  0  0
  5  2  1  0  0  0  0
  7  4  1  0  0  0  0
  7 15  1  0  0  0  0
  8 12  1  0  0  0  0
  8  6  1  0  0  0  0
  9  8  2  0  0  0  0
 10 11  1  0  0  0  0
 10 12  2  0  0  0  0
 11  7  2  0  0  0  0
 12 16  1  0  0  0  0
 13  9  1  0  0  0  0
 13 10  1  0  0  0  0
 14 13  1  0  0  0  0
 16 15  2  0  0  0  0
 17  2  1  0  0  0  0
 19 18  2  0  0  0  0
 19 17  1  0  0  0  0
 20 19  1  0  0  0  0
 21 20  1  0  0  0  0
 23 24  1  0  0  0  0
 23 22  2  0  0  0  0
 24 25  1  0  0  0  0
 25 26  1  0  0  0  0
 26 27  1  0  0  0  0
 28 30  2  0  0  0  0
 29 28  1  0  0  0  0
 29 27  1  0  0  0  0
 31 32  1  0  0  0  0
 31 28  1  0  0  0  0
 32 35  1  0  0  0  0
 33 34  1  0  0  0  0
 34 32  1  0  0  0  0
 35 36  1  0  0  0  0
 36 37  1  0  0  0  0
M  END
>  <MODEL>
1

>  <REMARK>
 VINA RESULT:      -7.5      0.000      0.000
  Name = 
  15 active torsions:
  status: ('A' for Active; 'I' for Inactive)
    1  A    between atoms: C_2  and  C_15
    2  A    between atoms: C_2  and  C_22
    3  A    between atoms: N_3  and  C_12
    4  A    between atoms: N_3  and  C_29
    5  A    between atoms: N_3  and  C_30
    6  A    between atoms: C_4  and  C_22
    7  A    between atoms: C_6  and  C_29
    8  A    between atoms: C_7  and  N_10
    9  A    between atoms: C_7  and  N_36
   10  A    between atoms: C_8  and  C_16
   11  A    between atoms: N_9  and  C_26
   12  A    between atoms: C_12  and  C_24
   13  A    between atoms: C_15  and  C_33
   14  A    between atoms: C_26  and  C_33
   15  A    between atoms: O_32  and  C_37
                            x       y       z     vdW  Elec       q    Type
                         _______ _______ _______ _____ _____    ______ ____

>  <TORSDO>
F 15

$$$$
=
 OpenBabel10222420323D

 37 38  0  0  0  0  0  0  0  0999 V2000
  187.5730  177.8800  146.1090 C   0  0  0  0  0  3  0  0  0  0  0  0
  188.6730  177.6160  145.3900 C   0  0  0  0  0  0  0  0  0  0  0  0
  188.8850  175.6560  143.2430 O   0  0  0  0  0  0  0  0  0  0  0  0
  188.7780  176.8770  142.9490 C   0  0  0  0  0  0  0  0  0  0  0  0
  188.6930  177.8720  143.9800 N   0  0  0  0  0  2  0  0  0  0  0  0
  188.2510  179.1900  136.6810 C   0  0  0  0  0  1  0  0  0  0  0  0
  188.7750  177.3020  141.5430 C   0  0  0  0  0  0  0  0  0  0  0  0
  188.9610  178.2490  137.5910 C   0  0  0  0  0  0  0  0  0  0  0  0
  190.0590  177.4440  137.2690 C   0  0  0  0  0  3  0  0  0  0  0  0
  189.6380  177.1540  139.3730 C   0  0  0  0  0  0  0  0  0  0  0  0
  189.6800  176.7610  140.6690 N   0  0  0  0  0  0  0  0  0  0  0  0
  188.7260  178.0550  138.9300 C   0  0  0  0  0  0  0  0  0  0  0  0
  190.4540  176.7720  138.3780 N   0  0  0  0  0  0  0  0  0  0  0  0
  191.6010  175.8910  138.4800 C   0  0  0  0  0  1  0  0  0  0  0  0
  187.8230  178.2460  141.0740 C   0  0  0  0  0  3  0  0  0  0  0  0
  187.8130  178.6170  139.7570 N   0  0  0  0  0  0  0  0  0  0  0  0
  189.8100  176.9930  146.0090 N   0  0  0  0  0  2  0  0  0  0  0  0
  191.5280  177.9950  144.7720 O   0  0  0  0  0  0  0  0  0  0  0  0
  191.1870  177.2960  145.7640 C   0  0  0  0  0  0  0  0  0  0  0  0
  192.1540  176.7720  146.6210 O   0  0  0  0  0  0  0  0  0  0  0  0
  191.9270  175.5940  147.3790 C   0  0  0  0  0  1  0  0  0  0  0  0
  185.8460  179.4750  146.2630 O   0  0  0  0  0  0  0  0  0  0  0  0
  186.3100  178.4860  145.6350 C   0  0  0  0  0  0  0  0  0  0  0  0
  185.5940  178.0270  144.4040 C   0  0  0  0  0  2  0  0  0  0  0  0
  184.5230  179.0330  144.0060 C   0  0  0  0  0  2  0  0  0  0  0  0
  183.2330  178.7900  144.7690 C   0  0  0  0  0  2  0  0  0  0  0  0
  182.0570  178.8060  143.8120 C   0  0  0  0  0  2  0  0  0  0  0  0
  181.7990  178.7060  141.3100 C   0  0  0  0  0  0  0  0  0  0  0  0
  182.5300  179.1050  142.4700 N   0  0  0  0  0  2  0  0  0  0  0  0
  180.7310  178.0470  141.4210 O   0  0  0  0  0  0  0  0  0  0  0  0
  182.2810  179.0940  139.9500 C   0  0  0  0  0  2  0  0  0  0  0  0
  183.0950  178.0320  139.3620 N   0  0  0  0  0  0  0  0  0  0  0  0
  184.4580  180.0340  139.1980 N   0  0  0  0  0  1  0  0  0  0  0  0
  184.4110  178.5840  139.0190 C   0  0  0  0  0  2  0  0  0  0  0  0
  182.4370  177.5600  138.1490 C   0  0  0  0  0  2  0  0  0  0  0  0
  181.8030  176.2010  138.3910 C   0  0  0  0  0  2  0  0  0  0  0  0
  182.3890  175.5900  139.5040 O   0  0  0  0  0  1  0  0  0  0  0  0
  2 17  1  0  0  0  0
  2  1  2  0  0  0  0
  4  3  2  0  0  0  0
  4  5  1  0  0  0  0
  5  2  1  0  0  0  0
  6  8  1  0  0  0  0
  7  4  1  0  0  0  0
  8 12  1  0  0  0  0
  9  8  2  0  0  0  0
  9 13  1  0  0  0  0
 10 11  1  0  0  0  0
 11  7  2  0  0  0  0
 12 10  2  0  0  0  0
 12 16  1  0  0  0  0
 13 14  1  0  0  0  0
 13 10  1  0  0  0  0
 15  7  1  0  0  0  0
 16 15  2  0  0  0  0
 18 19  2  0  0  0  0
 19 17  1  0  0  0  0
 19 20  1  0  0  0  0
 20 21  1  0  0  0  0
 23  1  1  0  0  0  0
 23 22  2  0  0  0  0
 24 23  1  0  0  0  0
 25 24  1  0  0  0  0
 25 26  1  0  0  0  0
 27 26  1  0  0  0  0
 28 30  2  0  0  0  0
 28 29  1  0  0  0  0
 29 27  1  0  0  0  0
 31 28  1  0  0  0  0
 32 31  1  0  0  0  0
 34 33  1  0  0  0  0
 34 32  1  0  0  0  0
 35 36  1  0  0  0  0
 35 32  1  0  0  0  0
 36 37  1  0  0  0  0
M  END
>  <MODEL>
2

>  <REMARK>
 VINA RESULT:      -7.5      1.841      7.741
  Name = 
  15 active torsions:
  status: ('A' for Active; 'I' for Inactive)
    1  A    between atoms: C_2  and  C_15
    2  A    between atoms: C_2  and  C_22
    3  A    between atoms: N_3  and  C_12
    4  A    between atoms: N_3  and  C_29
    5  A    between atoms: N_3  and  C_30
    6  A    between atoms: C_4  and  C_22
    7  A    between atoms: C_6  and  C_29
    8  A    between atoms: C_7  and  N_10
    9  A    between atoms: C_7  and  N_36
   10  A    between atoms: C_8  and  C_16
   11  A    between atoms: N_9  and  C_26
   12  A    between atoms: C_12  and  C_24
   13  A    between atoms: C_15  and  C_33
   14  A    between atoms: C_26  and  C_33
   15  A    between atoms: O_32  and  C_37
                            x       y       z     vdW  Elec       q    Type
                         _______ _______ _______ _____ _____    ______ ____

>  <TORSDO>
F 15

$$$$
=
 OpenBabel10222420323D

 37 38  0  0  0  0  0  0  0  0999 V2000
  188.6210  177.2430  145.8050 C   0  0  0  0  0  2  0  0  0  0  0  0
  189.7000  177.2360  145.0080 C   0  0  0  0  0  0  0  0  0  0  0  0
  190.1760  175.4000  142.7950 O   0  0  0  0  0  0  0  0  0  0  0  0
  189.7890  176.5730  142.5450 C   0  0  0  0  0  0  0  0  0  0  0  0
  189.5650  177.5110  143.6080 N   0  0  0  0  0  2  0  0  0  0  0  0
  188.4840  178.9960  136.4340 C   0  0  0  0  0  1  0  0  0  0  0  0
  189.5950  177.0080  141.1560 C   0  0  0  0  0  0  0  0  0  0  0  0
  189.2070  177.9570  137.2190 C   0  0  0  0  0  0  0  0  0  0  0  0
  190.1090  177.0110  136.7200 C   0  0  0  0  0  3  0  0  0  0  0  0
  190.0310  176.7630  138.8700 C   0  0  0  0  0  0  0  0  0  0  0  0
  190.2470  176.3550  140.1440 N   0  0  0  0  0  0  0  0  0  0  0  0
  189.1880  177.7850  138.5810 C   0  0  0  0  0  0  0  0  0  0  0  0
  190.5970  176.2810  137.7520 N   0  0  0  0  0  0  0  0  0  0  0  0
  191.6120  175.2480  137.6630 C   0  0  0  0  0  1  0  0  0  0  0  0
  188.7140  178.0790  140.8470 C   0  0  0  0  0  3  0  0  0  0  0  0
  188.5230  178.4600  139.5480 N   0  0  0  0  0  0  0  0  0  0  0  0
  190.9850  176.8670  145.5330 N   0  0  0  0  0  0  0  0  0  0  0  0
  190.5520  177.0950  147.8240 O   0  0  0  0  0  0  0  0  0  0  0  0
  191.3240  176.6920  146.9130 C   0  0  0  0  0  0  0  0  0  0  0  0
  192.5440  176.0990  147.2360 O   0  0  0  0  0  0  0  0  0  0  0  0
  192.9460  175.8930  148.5810 C   0  0  0  0  0  1  0  0  0  0  0  0
  186.6380  176.8170  144.6090 O   0  0  0  0  0  0  0  0  0  0  0  0
  187.2270  177.5660  145.4330 C   0  0  0  0  0  0  0  0  0  0  0  0
  186.4580  178.6960  146.0410 C   0  0  0  0  0  2  0  0  0  0  0  0
  185.0760  178.2260  146.4740 C   0  0  0  0  0  2  0  0  0  0  0  0
  183.9880  178.9050  145.6610 C   0  0  0  0  0  2  0  0  0  0  0  0
  184.5770  179.4790  144.3870 C   0  0  0  0  0  2  0  0  0  0  0  0
  184.5790  178.9030  141.9370 C   0  0  0  0  0  0  0  0  0  0  0  0
  184.0050  178.7950  143.2400 N   0  0  0  0  0  2  0  0  0  0  0  0
  185.5890  179.6310  141.7410 O   0  0  0  0  0  0  0  0  0  0  0  0
  184.0040  178.1280  140.7970 C   0  0  0  0  0  2  0  0  0  0  0  0
  183.3650  179.0180  139.8300 N   0  0  0  0  0  0  0  0  0  0  0  0
  181.1870  179.3440  138.8110 N   0  0  0  0  0  1  0  0  0  0  0  0
  181.9120  178.9510  140.0180 C   0  0  0  0  0  2  0  0  0  0  0  0
  183.7010  178.5620  138.4860 C   0  0  0  0  0  2  0  0  0  0  0  0
  185.1980  178.3360  138.3670 C   0  0  0  0  0  2  0  0  0  0  0  0
  185.4610  177.3570  137.4040 O   0  0  0  0  0  1  0  0  0  0  0  0
  2 17  2  0  0  0  0
  2  1  1  0  0  0  0
  4  3  2  0  0  0  0
  4  5  1  0  0  0  0
  5  2  1  0  0  0  0
  6  8  1  0  0  0  0
  7  4  1  0  0  0  0
  8 12  1  0  0  0  0
  9  8  2  0  0  0  0
  9 13  1  0  0  0  0
 10 11  1  0  0  0  0
 11  7  2  0  0  0  0
 12 10  2  0  0  0  0
 12 16  1  0  0  0  0
 13 10  1  0  0  0  0
 14 13  1  0  0  0  0
 15  7  1  0  0  0  0
 16 15  2  0  0  0  0
 17 19  1  0  0  0  0
 19 20  1  0  0  0  0
 19 18  2  0  0  0  0
 20 21  1  0  0  0  0
 22 23  2  0  0  0  0
 23  1  1  0  0  0  0
 23 24  1  0  0  0  0
 24 25  1  0  0  0  0
 26 25  1  0  0  0  0
 27 26  1  0  0  0  0
 28 29  1  0  0  0  0
 29 27  1  0  0  0  0
 30 28  2  0  0  0  0
 31 28  1  0  0  0  0
 32 34  1  0  0  0  0
 32 31  1  0  0  0  0
 33 34  1  0  0  0  0
 35 32  1  0  0  0  0
 36 35  1  0  0  0  0
 37 36  1  0  0  0  0
M  END
>  <MODEL>
3

>  <REMARK>
 VINA RESULT:      -7.4      2.127      7.833
  Name = 
  15 active torsions:
  status: ('A' for Active; 'I' for Inactive)
    1  A    between atoms: C_2  and  C_15
    2  A    between atoms: C_2  and  C_22
    3  A    between atoms: N_3  and  C_12
    4  A    between atoms: N_3  and  C_29
    5  A    between atoms: N_3  and  C_30
    6  A    between atoms: C_4  and  C_22
    7  A    between atoms: C_6  and  C_29
    8  A    between atoms: C_7  and  N_10
    9  A    between atoms: C_7  and  N_36
   10  A    between atoms: C_8  and  C_16
   11  A    between atoms: N_9  and  C_26
   12  A    between atoms: C_12  and  C_24
   13  A    between atoms: C_15  and  C_33
   14  A    between atoms: C_26  and  C_33
   15  A    between atoms: O_32  and  C_37
                            x       y       z     vdW  Elec       q    Type
                         _______ _______ _______ _____ _____    ______ ____

>  <TORSDO>
F 15

$$$$
=
 OpenBabel10222420323D

 37 38  0  0  0  0  0  0  0  0999 V2000
  190.2310  177.2470  137.0070 C   0  0  0  0  0  3  0  0  0  0  0  0
  190.7660  176.6290  138.0700 C   0  0  0  0  0  0  0  0  0  0  0  0
  191.9560  177.5740  140.5570 O   0  0  0  0  0  0  0  0  0  0  0  0
  190.7480  177.2140  140.5540 C   0  0  0  0  0  0  0  0  0  0  0  0
  190.1340  176.7230  139.3530 N   0  0  0  0  0  2  0  0  0  0  0  0
  186.6270  177.5120  145.8310 C   0  0  0  0  0  1  0  0  0  0  0  0
  189.9590  177.2590  141.7920 C   0  0  0  0  0  0  0  0  0  0  0  0
  188.0420  177.4060  145.3770 C   0  0  0  0  0  0  0  0  0  0  0  0
  189.1650  177.2100  146.1870 C   0  0  0  0  0  3  0  0  0  0  0  0
  189.8420  177.2250  144.1290 C   0  0  0  0  0  0  0  0  0  0  0  0
  190.5920  177.1570  143.0030 N   0  0  0  0  0  0  0  0  0  0  0  0
  188.4980  177.3980  144.0820 C   0  0  0  0  0  0  0  0  0  0  0  0
  190.2640  177.1110  145.3980 N   0  0  0  0  0  0  0  0  0  0  0  0
  191.6150  176.8330  145.8470 C   0  0  0  0  0  1  0  0  0  0  0  0
  188.5510  177.4380  141.7490 C   0  0  0  0  0  3  0  0  0  0  0  0
  187.8290  177.5030  142.9090 N   0  0  0  0  0  0  0  0  0  0  0  0
  192.0210  175.9410  137.9510 N   0  0  0  0  0  2  0  0  0  0  0  0
  191.2410  173.7800  137.4960 O   0  0  0  0  0  0  0  0  0  0  0  0
  192.2130  174.5810  137.5490 C   0  0  0  0  0  0  0  0  0  0  0  0
  193.5030  174.1420  137.2520 O   0  0  0  0  0  0  0  0  0  0  0  0
  194.6310  174.5650  138.0020 C   0  0  0  0  0  1  0  0  0  0  0  0
  188.9850  179.2150  137.3550 O   0  0  0  0  0  0  0  0  0  0  0  0
  188.9720  178.0210  136.9530 C   0  0  0  0  0  0  0  0  0  0  0  0
  187.7020  177.4790  136.3780 C   0  0  0  0  0  2  0  0  0  0  0  0
  186.5230  178.3570  136.7730 C   0  0  0  0  0  2  0  0  0  0  0  0
  185.7630  177.7580  137.9430 C   0  0  0  0  0  2  0  0  0  0  0  0
  185.2500  178.8640  138.8440 C   0  0  0  0  0  2  0  0  0  0  0  0
  184.7710  178.7870  141.3140 C   0  0  0  0  0  0  0  0  0  0  0  0
  184.5790  178.2790  139.9930 N   0  0  0  0  0  2  0  0  0  0  0  0
  185.5630  179.7450  141.5240 O   0  0  0  0  0  0  0  0  0  0  0  0
  184.0080  178.2050  142.4600 C   0  0  0  0  0  2  0  0  0  0  0  0
  183.2210  179.2330  143.1380 N   0  0  0  0  0  0  0  0  0  0  0  0
  183.4880  179.0680  145.5440 N   0  0  0  0  0  1  0  0  0  0  0  0
  183.9660  179.6960  144.3140 C   0  0  0  0  0  2  0  0  0  0  0  0
  181.9580  178.6420  143.5670 C   0  0  0  0  0  2  0  0  0  0  0  0
  180.8330  179.0870  142.6480 C   0  0  0  0  0  2  0  0  0  0  0  0
  180.4650  180.4040  142.9420 O   0  0  0  0  0  1  0  0  0  0  0  0
  1  2  2  0  0  0  0
  2  5  1  0  0  0  0
  4  3  2  0  0  0  0
  4  7  1  0  0  0  0
  5  4  1  0  0  0  0
  7 11  1  0  0  0  0
  8  6  1  0  0  0  0
  8  9  2  0  0  0  0
 10 13  1  0  0  0  0
 11 10  2  0  0  0  0
 12 10  1  0  0  0  0
 12  8  1  0  0  0  0
 13 14  1  0  0  0  0
 13  9  1  0  0  0  0
 15  7  2  0  0  0  0
 15 16  1  0  0  0  0
 16 12  2  0  0  0  0
 17  2  1  0  0  0  0
 18 19  2  0  0  0  0
 19 17  1  0  0  0  0
 20 19  1  0  0  0  0
 20 21  1  0  0  0  0
 23  1  1  0  0  0  0
 23 22  2  0  0  0  0
 24 25  1  0  0  0  0
 24 23  1  0  0  0  0
 25 26  1  0  0  0  0
 26 27  1  0  0  0  0
 27 29  1  0  0  0  0
 28 30  2  0  0  0  0
 28 31  1  0  0  0  0
 29 28  1  0  0  0  0
 31 32  1  0  0  0  0
 32 35  1  0  0  0  0
 32 34  1  0  0  0  0
 34 33  1  0  0  0  0
 36 37  1  0  0  0  0
 36 35  1  0  0  0  0
M  END
>  <MODEL>
4

>  <REMARK>
 VINA RESULT:      -7.3      3.384      8.561
  Name = 
  15 active torsions:
  status: ('A' for Active; 'I' for Inactive)
    1  A    between atoms: C_2  and  C_15
    2  A    between atoms: C_2  and  C_22
    3  A    between atoms: N_3  and  C_12
    4  A    between atoms: N_3  and  C_29
    5  A    between atoms: N_3  and  C_30
    6  A    between atoms: C_4  and  C_22
    7  A    between atoms: C_6  and  C_29
    8  A    between atoms: C_7  and  N_10
    9  A    between atoms: C_7  and  N_36
   10  A    between atoms: C_8  and  C_16
   11  A    between atoms: N_9  and  C_26
   12  A    between atoms: C_12  and  C_24
   13  A    between atoms: C_15  and  C_33
   14  A    between atoms: C_26  and  C_33
   15  A    between atoms: O_32  and  C_37
                            x       y       z     vdW  Elec       q    Type
                         _______ _______ _______ _____ _____    ______ ____

>  <TORSDO>
F 15

$$$$
=
 OpenBabel10222420323D

 37 38  0  0  0  0  0  0  0  0999 V2000
  187.6570  177.7970  146.1190 C   0  0  0  0  0  3  0  0  0  0  0  0
  188.7220  177.5340  145.3470 C   0  0  0  0  0  0  0  0  0  0  0  0
  188.9630  175.6190  143.1630 O   0  0  0  0  0  0  0  0  0  0  0  0
  188.7830  176.8370  142.8930 C   0  0  0  0  0  0  0  0  0  0  0  0
  188.6820  177.8120  143.9410 N   0  0  0  0  0  2  0  0  0  0  0  0
  187.9130  179.1900  136.6780 C   0  0  0  0  0  1  0  0  0  0  0  0
  188.7110  177.2820  141.4950 C   0  0  0  0  0  0  0  0  0  0  0  0
  188.7240  178.3010  137.5570 C   0  0  0  0  0  0  0  0  0  0  0  0
  189.8810  177.6030  137.1970 C   0  0  0  0  0  3  0  0  0  0  0  0
  189.5340  177.2440  139.3040 C   0  0  0  0  0  0  0  0  0  0  0  0
  189.6400  176.8360  140.5920 N   0  0  0  0  0  0  0  0  0  0  0  0
  188.5360  178.0670  138.8960 C   0  0  0  0  0  0  0  0  0  0  0  0
  190.3580  176.9520  138.2860 N   0  0  0  0  0  0  0  0  0  0  0  0
  191.5820  176.1750  138.3490 C   0  0  0  0  0  1  0  0  0  0  0  0
  187.6680  178.1440  141.0610 C   0  0  0  0  0  3  0  0  0  0  0  0
  187.5960  178.5330  139.7520 N   0  0  0  0  0  0  0  0  0  0  0  0
  189.8790  176.8920  145.9050 N   0  0  0  0  0  2  0  0  0  0  0  0
  191.5620  178.0650  144.7750 O   0  0  0  0  0  0  0  0  0  0  0  0
  191.2460  177.2620  145.6940 C   0  0  0  0  0  0  0  0  0  0  0  0
  192.2310  176.6900  146.4990 O   0  0  0  0  0  0  0  0  0  0  0  0
  191.9080  175.9110  147.6400 C   0  0  0  0  0  1  0  0  0  0  0  0
  185.9190  179.3580  146.4150 O   0  0  0  0  0  0  0  0  0  0  0  0
  186.3800  178.4220  145.7110 C   0  0  0  0  0  0  0  0  0  0  0  0
  185.6460  178.0430  144.4630 C   0  0  0  0  0  2  0  0  0  0  0  0
  184.4520  178.9620  144.2500 C   0  0  0  0  0  2  0  0  0  0  0  0
  183.6540  178.5480  143.0270 C   0  0  0  0  0  2  0  0  0  0  0  0
  184.3580  179.0160  141.7680 C   0  0  0  0  0  2  0  0  0  0  0  0
  183.7660  179.1640  139.3260 C   0  0  0  0  0  0  0  0  0  0  0  0
  183.6350  178.5370  140.6030 N   0  0  0  0  0  2  0  0  0  0  0  0
  184.4940  180.1820  139.1850 O   0  0  0  0  0  0  0  0  0  0  0  0
  183.0620  178.5970  138.1370 C   0  0  0  0  0  2  0  0  0  0  0  0
  182.6170  177.2300  138.3950 N   0  0  0  0  0  0  0  0  0  0  0  0
  183.4160  174.9470  138.1910 N   0  0  0  0  0  1  0  0  0  0  0  0
  183.4840  176.3050  137.6550 C   0  0  0  0  0  2  0  0  0  0  0  0
  181.2450  177.0900  137.9230 C   0  0  0  0  0  2  0  0  0  0  0  0
  180.2710  177.3260  139.0640 C   0  0  0  0  0  2  0  0  0  0  0  0
  180.6100  176.5250  140.1590 O   0  0  0  0  0  1  0  0  0  0  0  0
  2 17  1  0  0  0  0
  2  1  2  0  0  0  0
  4  3  2  0  0  0  0
  4  5  1  0  0  0  0
  5  2  1  0  0  0  0
  6  8  1  0  0  0  0
  7  4  1  0  0  0  0
  8 12  1  0  0  0  0
  9  8  2  0  0  0  0
  9 13  1  0  0  0  0
 10 11  1  0  0  0  0
 11  7  2  0  0  0  0
 12 10  2  0  0  0  0
 12 16  1  0  0  0  0
 13 14  1  0  0  0  0
 13 10  1  0  0  0  0
 15  7  1  0  0  0  0
 16 15  2  0  0  0  0
 18 19  2  0  0  0  0
 19 17  1  0  0  0  0
 19 20  1  0  0  0  0
 20 21  1  0  0  0  0
 23  1  1  0  0  0  0
 23 22  2  0  0  0  0
 24 23  1  0  0  0  0
 25 24  1  0  0  0  0
 26 25  1  0  0  0  0
 27 26  1  0  0  0  0
 28 29  1  0  0  0  0
 29 27  1  0  0  0  0
 30 28  2  0  0  0  0
 31 32  1  0  0  0  0
 31 28  1  0  0  0  0
 34 33  1  0  0  0  0
 34 32  1  0  0  0  0
 35 32  1  0  0  0  0
 35 36  1  0  0  0  0
 36 37  1  0  0  0  0
M  END
>  <MODEL>
5

>  <REMARK>
 VINA RESULT:      -7.3      1.915      8.069
  Name = 
  15 active torsions:
  status: ('A' for Active; 'I' for Inactive)
    1  A    between atoms: C_2  and  C_15
    2  A    between atoms: C_2  and  C_22
    3  A    between atoms: N_3  and  C_12
    4  A    between atoms: N_3  and  C_29
    5  A    between atoms: N_3  and  C_30
    6  A    between atoms: C_4  and  C_22
    7  A    between atoms: C_6  and  C_29
    8  A    between atoms: C_7  and  N_10
    9  A    between atoms: C_7  and  N_36
   10  A    between atoms: C_8  and  C_16
   11  A    between atoms: N_9  and  C_26
   12  A    between atoms: C_12  and  C_24
   13  A    between atoms: C_15  and  C_33
   14  A    between atoms: C_26  and  C_33
   15  A    between atoms: O_32  and  C_37
                            x       y       z     vdW  Elec       q    Type
                         _______ _______ _______ _____ _____    ______ ____

>  <TORSDO>
F 15

$$$$
=
 OpenBabel10222420323D

 37 38  0  0  0  0  0  0  0  0999 V2000
  187.9730  177.7860  145.9740 C   0  0  0  0  0  3  0  0  0  0  0  0
  189.0750  177.9120  145.2200 C   0  0  0  0  0  0  0  0  0  0  0  0
  189.0190  175.8460  143.1650 O   0  0  0  0  0  0  0  0  0  0  0  0
  188.9180  177.0550  142.8220 C   0  0  0  0  0  0  0  0  0  0  0  0
  188.9630  178.1000  143.8040 N   0  0  0  0  0  2  0  0  0  0  0  0
  187.7810  179.0050  136.5110 C   0  0  0  0  0  1  0  0  0  0  0  0
  188.7870  177.4120  141.4030 C   0  0  0  0  0  0  0  0  0  0  0  0
  188.6430  178.1920  137.4130 C   0  0  0  0  0  0  0  0  0  0  0  0
  189.8060  177.5010  137.0560 C   0  0  0  0  0  3  0  0  0  0  0  0
  189.5390  177.2620  139.1910 C   0  0  0  0  0  0  0  0  0  0  0  0
  189.6980  176.9360  140.4970 N   0  0  0  0  0  0  0  0  0  0  0  0
  188.5070  178.0340  138.7700 C   0  0  0  0  0  0  0  0  0  0  0  0
  190.3360  176.9290  138.1650 N   0  0  0  0  0  0  0  0  0  0  0  0
  191.5810  176.1870  138.2310 C   0  0  0  0  0  1  0  0  0  0  0  0
  187.7090  178.2210  140.9550 C   0  0  0  0  0  3  0  0  0  0  0  0
  187.5830  178.5280  139.6290 N   0  0  0  0  0  0  0  0  0  0  0  0
  190.3770  177.7720  145.8110 N   0  0  0  0  0  2  0  0  0  0  0  0
  189.8110  176.5250  147.7120 O   0  0  0  0  0  0  0  0  0  0  0  0
  190.7120  176.9850  146.9590 C   0  0  0  0  0  0  0  0  0  0  0  0
  192.0570  176.7670  147.2560 O   0  0  0  0  0  0  0  0  0  0  0  0
  192.5040  175.5710  147.8750 C   0  0  0  0  0  1  0  0  0  0  0  0
  186.0860  176.9130  144.8700 O   0  0  0  0  0  0  0  0  0  0  0  0
  186.5640  177.8700  145.5330 C   0  0  0  0  0  0  0  0  0  0  0  0
  185.6590  179.0040  145.8980 C   0  0  0  0  0  2  0  0  0  0  0  0
  184.3880  178.9590  145.0620 C   0  0  0  0  0  2  0  0  0  0  0  0
  184.5490  179.7520  143.7780 C   0  0  0  0  0  2  0  0  0  0  0  0
  184.5990  178.8090  142.5920 C   0  0  0  0  0  2  0  0  0  0  0  0
  182.9630  179.0000  140.6890 C   0  0  0  0  0  0  0  0  0  0  0  0
  183.2630  178.6540  142.0420 N   0  0  0  0  0  2  0  0  0  0  0  0
  183.8520  179.4860  139.9390 O   0  0  0  0  0  0  0  0  0  0  0  0
  181.5950  178.7590  140.1380 C   0  0  0  0  0  2  0  0  0  0  0  0
  180.8060  179.9880  140.1440 N   0  0  0  0  0  0  0  0  0  0  0  0
  179.6810  180.8780  142.1020 N   0  0  0  0  0  1  0  0  0  0  0  0
  179.6910  179.8280  141.0850 C   0  0  0  0  0  2  0  0  0  0  0  0
  180.2790  180.2090  138.8030 C   0  0  0  0  0  2  0  0  0  0  0  0
  180.5780  181.6260  138.3470 C   0  0  0  0  0  2  0  0  0  0  0  0
  181.9390  181.9060  138.5120 O   0  0  0  0  0  1  0  0  0  0  0  0
  2 17  1  0  0  0  0
  2  1  2  0  0  0  0
  4  3  2  0  0  0  0
  4  5  1  0  0  0  0
  5  2  1  0  0  0  0
  6  8  1  0  0  0  0
  7  4  1  0  0  0  0
  8 12  1  0  0  0  0
  9  8  2  0  0  0  0
  9 13  1  0  0  0  0
 10 11  1  0  0  0  0
 11  7  2  0  0  0  0
 12 10  2  0  0  0  0
 12 16  1  0  0  0  0
 13 14  1  0  0  0  0
 13 10  1  0  0  0  0
 15  7  1  0  0  0  0
 16 15  2  0  0  0  0
 17 19  1  0  0  0  0
 19 20  1  0  0  0  0
 19 18  2  0  0  0  0
 20 21  1  0  0  0  0
 22 23  2  0  0  0  0
 23 24  1  0  0  0  0
 23  1  1  0  0  0  0
 25 24  1  0  0  0  0
 26 25  1  0  0  0  0
 27 26  1  0  0  0  0
 28 29  1  0  0  0  0
 29 27  1  0  0  0  0
 30 28  2  0  0  0  0
 31 32  1  0  0  0  0
 31 28  1  0  0  0  0
 32 34  1  0  0  0  0
 34 33  1  0  0  0  0
 35 32  1  0  0  0  0
 36 37  1  0  0  0  0
 36 35  1  0  0  0  0
M  END
>  <MODEL>
6

>  <REMARK>
 VINA RESULT:      -7.2      1.943      8.370
  Name = 
  15 active torsions:
  status: ('A' for Active; 'I' for Inactive)
    1  A    between atoms: C_2  and  C_15
    2  A    between atoms: C_2  and  C_22
    3  A    between atoms: N_3  and  C_12
    4  A    between atoms: N_3  and  C_29
    5  A    between atoms: N_3  and  C_30
    6  A    between atoms: C_4  and  C_22
    7  A    between atoms: C_6  and  C_29
    8  A    between atoms: C_7  and  N_10
    9  A    between atoms: C_7  and  N_36
   10  A    between atoms: C_8  and  C_16
   11  A    between atoms: N_9  and  C_26
   12  A    between atoms: C_12  and  C_24
   13  A    between atoms: C_15  and  C_33
   14  A    between atoms: C_26  and  C_33
   15  A    between atoms: O_32  and  C_37
                            x       y       z     vdW  Elec       q    Type
                         _______ _______ _______ _____ _____    ______ ____

>  <TORSDO>
F 15

$$$$
=
 OpenBabel10222420323D

 37 38  0  0  0  0  0  0  0  0999 V2000
  190.1060  177.4370  137.2210 C   0  0  0  0  0  3  0  0  0  0  0  0
  190.5630  176.6920  138.2380 C   0  0  0  0  0  0  0  0  0  0  0  0
  191.8170  177.6410  140.6920 O   0  0  0  0  0  0  0  0  0  0  0  0
  190.6070  177.2880  140.7190 C   0  0  0  0  0  0  0  0  0  0  0  0
  189.9620  176.7950  139.5350 N   0  0  0  0  0  2  0  0  0  0  0  0
  186.6190  177.6690  146.0920 C   0  0  0  0  0  1  0  0  0  0  0  0
  189.8480  177.3430  141.9750 C   0  0  0  0  0  0  0  0  0  0  0  0
  188.0170  177.5020  145.6050 C   0  0  0  0  0  0  0  0  0  0  0  0
  189.1450  177.2290  146.3840 C   0  0  0  0  0  3  0  0  0  0  0  0
  189.7780  177.2590  144.3130 C   0  0  0  0  0  0  0  0  0  0  0  0
  190.5000  177.1790  143.1690 N   0  0  0  0  0  0  0  0  0  0  0  0
  188.4440  177.5020  144.3000 C   0  0  0  0  0  0  0  0  0  0  0  0
  190.2210  177.0920  145.5690 N   0  0  0  0  0  0  0  0  0  0  0  0
  191.5650  176.7350  145.9820 C   0  0  0  0  0  1  0  0  0  0  0  0
  188.4500  177.5960  141.9680 C   0  0  0  0  0  3  0  0  0  0  0  0
  187.7570  177.6690  143.1450 N   0  0  0  0  0  0  0  0  0  0  0  0
  191.7120  175.8490  138.0590 N   0  0  0  0  0  2  0  0  0  0  0  0
  190.6420  173.8360  137.5250 O   0  0  0  0  0  0  0  0  0  0  0  0
  191.7130  174.4960  137.5910 C   0  0  0  0  0  0  0  0  0  0  0  0
  192.9280  173.9050  137.2450 O   0  0  0  0  0  0  0  0  0  0  0  0
  192.9930  172.7580  136.4130 C   0  0  0  0  0  1  0  0  0  0  0  0
  189.0580  179.4270  137.9200 O   0  0  0  0  0  0  0  0  0  0  0  0
  188.9630  178.3750  137.2330 C   0  0  0  0  0  0  0  0  0  0  0  0
  187.7290  178.1720  136.4120 C   0  0  0  0  0  2  0  0  0  0  0  0
  187.1530  176.7840  136.6540 C   0  0  0  0  0  2  0  0  0  0  0  0
  185.7650  176.8660  137.2630 C   0  0  0  0  0  2  0  0  0  0  0  0
  185.5950  178.1910  137.9810 C   0  0  0  0  0  2  0  0  0  0  0  0
  183.8570  179.1150  139.5500 C   0  0  0  0  0  0  0  0  0  0  0  0
  184.2130  178.3350  138.4080 N   0  0  0  0  0  2  0  0  0  0  0  0
  184.7460  179.6780  140.2430 O   0  0  0  0  0  0  0  0  0  0  0  0
  182.4200  179.2980  139.9150 C   0  0  0  0  0  2  0  0  0  0  0  0
  182.0520  178.4330  141.0340 N   0  0  0  0  0  0  0  0  0  0  0  0
  181.4820  176.5530  139.6090 N   0  0  0  0  0  1  0  0  0  0  0  0
  180.9930  177.5180  140.5920 C   0  0  0  0  0  2  0  0  0  0  0  0
  181.5490  179.2670  142.1190 C   0  0  0  0  0  2  0  0  0  0  0  0
  182.3010  178.9650  143.4040 C   0  0  0  0  0  2  0  0  0  0  0  0
  183.6340  179.3700  143.2870 O   0  0  0  0  0  1  0  0  0  0  0  0
  1 23  1  0  0  0  0
  1  2  2  0  0  0  0
  2  5  1  0  0  0  0
  3  4  2  0  0  0  0
  4  7  1  0  0  0  0
  5  4  1  0  0  0  0
  7 11  1  0  0  0  0
  8  6  1  0  0  0  0
  8  9  2  0  0  0  0
 10 13  1  0  0  0  0
 11 10  2  0  0  0  0
 12 10  1  0  0  0  0
 12  8  1  0  0  0  0
 13 14  1  0  0  0  0
 13  9  1  0  0  0  0
 15  7  2  0  0  0  0
 15 16  1  0  0  0  0
 16 12  2  0  0  0  0
 17  2  1  0  0  0  0
 18 19  2  0  0  0  0
 19 17  1  0  0  0  0
 20 19  1  0  0  0  0
 21 20  1  0  0  0  0
 23 22  2  0  0  0  0
 24 25  1  0  0  0  0
 24 23  1  0  0  0  0
 25 26  1  0  0  0  0
 26 27  1  0  0  0  0
 27 29  1  0  0  0  0
 28 31  1  0  0  0  0
 28 30  2  0  0  0  0
 29 28  1  0  0  0  0
 31 32  1  0  0  0  0
 32 35  1  0  0  0  0
 33 34  1  0  0  0  0
 34 32  1  0  0  0  0
 35 36  1  0  0  0  0
 37 36  1  0  0  0  0
M  END
>  <MODEL>
7

>  <REMARK>
 VINA RESULT:      -7.1      3.258      8.773
  Name = 
  15 active torsions:
  status: ('A' for Active; 'I' for Inactive)
    1  A    between atoms: C_2  and  C_15
    2  A    between atoms: C_2  and  C_22
    3  A    between atoms: N_3  and  C_12
    4  A    between atoms: N_3  and  C_29
    5  A    between atoms: N_3  and  C_30
    6  A    between atoms: C_4  and  C_22
    7  A    between atoms: C_6  and  C_29
    8  A    between atoms: C_7  and  N_10
    9  A    between atoms: C_7  and  N_36
   10  A    between atoms: C_8  and  C_16
   11  A    between atoms: N_9  and  C_26
   12  A    between atoms: C_12  and  C_24
   13  A    between atoms: C_15  and  C_33
   14  A    between atoms: C_26  and  C_33
   15  A    between atoms: O_32  and  C_37
                            x       y       z     vdW  Elec       q    Type
                         _______ _______ _______ _____ _____    ______ ____

>  <TORSDO>
F 15

$$$$
=
 OpenBabel10222420323D

 37 38  0  0  0  0  0  0  0  0999 V2000
  183.0880  178.9480  142.3020 C   0  0  0  0  0  3  0  0  0  0  0  0
  182.6910  178.4880  141.1060 C   0  0  0  0  0  0  0  0  0  0  0  0
  184.1910  180.0950  139.1920 O   0  0  0  0  0  0  0  0  0  0  0  0
  184.3910  178.8510  139.2380 C   0  0  0  0  0  0  0  0  0  0  0  0
  183.6560  178.0250  140.1530 N   0  0  0  0  0  2  0  0  0  0  0  0
  188.2990  175.8040  134.7260 C   0  0  0  0  0  1  0  0  0  0  0  0
  185.3580  178.2230  138.3290 C   0  0  0  0  0  0  0  0  0  0  0  0
  188.2520  176.5230  136.0300 C   0  0  0  0  0  0  0  0  0  0  0  0
  189.3470  176.9090  136.8100 C   0  0  0  0  0  3  0  0  0  0  0  0
  187.5610  177.6420  137.7900 C   0  0  0  0  0  0  0  0  0  0  0  0
  186.6930  178.2500  138.6360 N   0  0  0  0  0  0  0  0  0  0  0  0
  187.1380  177.0100  136.6670 C   0  0  0  0  0  0  0  0  0  0  0  0
  188.8980  177.5890  137.8930 N   0  0  0  0  0  0  0  0  0  0  0  0
  189.7210  178.2200  138.9080 C   0  0  0  0  0  1  0  0  0  0  0  0
  184.9220  177.5610  137.1500 C   0  0  0  0  0  3  0  0  0  0  0  0
  185.8290  176.9590  136.3230 N   0  0  0  0  0  0  0  0  0  0  0  0
  181.3030  178.5370  140.7380 N   0  0  0  0  0  2  0  0  0  0  0  0
  181.2230  180.6800  139.7960 O   0  0  0  0  0  0  0  0  0  0  0  0
  180.6550  179.5720  139.9910 C   0  0  0  0  0  0  0  0  0  0  0  0
  179.3640  179.3500  139.5130 O   0  0  0  0  0  0  0  0  0  0  0  0
  179.0950  178.4020  138.4920 C   0  0  0  0  0  1  0  0  0  0  0  0
  185.3000  179.7570  142.2650 O   0  0  0  0  0  0  0  0  0  0  0  0
  184.4670  179.0020  142.8340 C   0  0  0  0  0  0  0  0  0  0  0  0
  184.9020  178.2590  144.0570 C   0  0  0  0  0  2  0  0  0  0  0  0
  184.3160  178.9030  145.3060 C   0  0  0  0  0  2  0  0  0  0  0  0
  185.3500  178.9910  146.4130 C   0  0  0  0  0  2  0  0  0  0  0  0
  186.1340  177.6950  146.4900 C   0  0  0  0  0  2  0  0  0  0  0  0
  188.4280  177.5270  145.4670 C   0  0  0  0  0  0  0  0  0  0  0  0
  187.5570  177.9920  146.4990 N   0  0  0  0  0  2  0  0  0  0  0  0
  187.9850  176.8110  144.5290 O   0  0  0  0  0  0  0  0  0  0  0  0
  189.8710  177.9130  145.4730 C   0  0  0  0  0  2  0  0  0  0  0  0
  190.6900  176.8830  144.8370 N   0  0  0  0  0  0  0  0  0  0  0  0
  191.1590  176.3630  147.1600 N   0  0  0  0  0  1  0  0  0  0  0  0
  191.6940  176.4180  145.8010 C   0  0  0  0  0  2  0  0  0  0  0  0
  191.3620  177.4700  143.6830 C   0  0  0  0  0  2  0  0  0  0  0  0
  191.0060  176.7010  142.4220 C   0  0  0  0  0  2  0  0  0  0  0  0
  190.2870  175.5470  142.7510 O   0  0  0  0  0  1  0  0  0  0  0  0
  1 23  1  0  0  0  0
  2  1  2  0  0  0  0
  3  4  2  0  0  0  0
  4  5  1  0  0  0  0
  5  2  1  0  0  0  0
  6  8  1  0  0  0  0
  7 11  1  0  0  0  0
  7  4  1  0  0  0  0
  8 12  1  0  0  0  0
  8  9  2  0  0  0  0
  9 13  1  0  0  0  0
 10 13  1  0  0  0  0
 10 11  2  0  0  0  0
 12 10  1  0  0  0  0
 13 14  1  0  0  0  0
 15  7  2  0  0  0  0
 16 12  2  0  0  0  0
 16 15  1  0  0  0  0
 17  2  1  0  0  0  0
 18 19  2  0  0  0  0
 19 17  1  0  0  0  0
 20 19  1  0  0  0  0
 21 20  1  0  0  0  0
 22 23  2  0  0  0  0
 23 24  1  0  0  0  0
 24 25  1  0  0  0  0
 25 26  1  0  0  0  0
 26 27  1  0  0  0  0
 27 29  1  0  0  0  0
 28 31  1  0  0  0  0
 28 29  1  0  0  0  0
 30 28  2  0  0  0  0
 32 31  1  0  0  0  0
 32 34  1  0  0  0  0
 34 33  1  0  0  0  0
 35 32  1  0  0  0  0
 36 37  1  0  0  0  0
 36 35  1  0  0  0  0
M  END
>  <MODEL>
8

>  <REMARK>
 VINA RESULT:      -7.0      1.923      2.899
  Name = 
  15 active torsions:
  status: ('A' for Active; 'I' for Inactive)
    1  A    between atoms: C_2  and  C_15
    2  A    between atoms: C_2  and  C_22
    3  A    between atoms: N_3  and  C_12
    4  A    between atoms: N_3  and  C_29
    5  A    between atoms: N_3  and  C_30
    6  A    between atoms: C_4  and  C_22
    7  A    between atoms: C_6  and  C_29
    8  A    between atoms: C_7  and  N_10
    9  A    between atoms: C_7  and  N_36
   10  A    between atoms: C_8  and  C_16
   11  A    between atoms: N_9  and  C_26
   12  A    between atoms: C_12  and  C_24
   13  A    between atoms: C_15  and  C_33
   14  A    between atoms: C_26  and  C_33
   15  A    between atoms: O_32  and  C_37
                            x       y       z     vdW  Elec       q    Type
                         _______ _______ _______ _____ _____    ______ ____

>  <TORSDO>
F 15

$$$$
=
 OpenBabel10222420323D

 37 38  0  0  0  0  0  0  0  0999 V2000
  187.7890  177.7290  146.3710 C   0  0  0  0  0  3  0  0  0  0  0  0
  189.0590  177.4380  146.0510 C   0  0  0  0  0  0  0  0  0  0  0  0
  190.5030  179.2960  144.3310 O   0  0  0  0  0  0  0  0  0  0  0  0
  190.1610  178.1730  143.8700 C   0  0  0  0  0  0  0  0  0  0  0  0
  189.4300  177.2410  144.6800 N   0  0  0  0  0  2  0  0  0  0  0  0
  192.2100  176.4400  137.7290 C   0  0  0  0  0  1  0  0  0  0  0  0
  190.4770  177.8170  142.4800 C   0  0  0  0  0  0  0  0  0  0  0  0
  191.0780  176.9490  138.5510 C   0  0  0  0  0  0  0  0  0  0  0  0
  189.7690  177.1810  138.1170 C   0  0  0  0  0  3  0  0  0  0  0  0
  189.8310  177.5960  140.2410 C   0  0  0  0  0  0  0  0  0  0  0  0
  189.5050  177.9090  141.5190 N   0  0  0  0  0  0  0  0  0  0  0  0
  191.0840  177.2070  139.9000 C   0  0  0  0  0  0  0  0  0  0  0  0
  189.0200  177.5880  139.1720 N   0  0  0  0  0  0  0  0  0  0  0  0
  187.5960  177.8600  139.1540 C   0  0  0  0  0  1  0  0  0  0  0  0
  191.7880  177.4070  142.1170 C   0  0  0  0  0  3  0  0  0  0  0  0
  192.0770  177.1000  140.8160 N   0  0  0  0  0  0  0  0  0  0  0  0
  190.0370  177.2340  147.0820 N   0  0  0  0  0  2  0  0  0  0  0  0
  191.6460  176.0430  145.8670 O   0  0  0  0  0  0  0  0  0  0  0  0
  191.3380  176.6590  146.9230 C   0  0  0  0  0  0  0  0  0  0  0  0
  192.2500  176.7560  147.9730 O   0  0  0  0  0  0  0  0  0  0  0  0
  192.9650  175.6280  148.4530 C   0  0  0  0  0  1  0  0  0  0  0  0
  186.4880  177.1270  144.5030 O   0  0  0  0  0  0  0  0  0  0  0  0
  186.6520  177.9420  145.4500 C   0  0  0  0  0  0  0  0  0  0  0  0
  185.6470  179.0350  145.6290 C   0  0  0  0  0  2  0  0  0  0  0  0
  184.2350  178.4650  145.6160 C   0  0  0  0  0  2  0  0  0  0  0  0
  183.3710  179.1700  144.5860 C   0  0  0  0  0  2  0  0  0  0  0  0
  184.1360  179.3170  143.2850 C   0  0  0  0  0  2  0  0  0  0  0  0
  183.9480  178.4860  140.9160 C   0  0  0  0  0  0  0  0  0  0  0  0
  183.5870  178.4050  142.2960 N   0  0  0  0  0  2  0  0  0  0  0  0
  184.7340  179.3830  140.5120 O   0  0  0  0  0  0  0  0  0  0  0  0
  183.4190  177.4840  139.9420 C   0  0  0  0  0  2  0  0  0  0  0  0
  183.4950  177.9950  138.5750 N   0  0  0  0  0  0  0  0  0  0  0  0
  181.1830  177.2750  138.7390 N   0  0  0  0  0  1  0  0  0  0  0  0
  182.1320  178.1510  138.0550 C   0  0  0  0  0  2  0  0  0  0  0  0
  184.2170  177.0280  137.7570 C   0  0  0  0  0  2  0  0  0  0  0  0
  183.8150  177.1700  136.2990 C   0  0  0  0  0  2  0  0  0  0  0  0
  183.2980  175.9600  135.8240 O   0  0  0  0  0  1  0  0  0  0  0  0
  2  1  2  0  0  0  0
  2 17  1  0  0  0  0
  4  3  2  0  0  0  0
  4  5  1  0  0  0  0
  5  2  1  0  0  0  0
  6  8  1  0  0  0  0
  7  4  1  0  0  0  0
  8 12  1  0  0  0  0
  9  8  2  0  0  0  0
  9 13  1  0  0  0  0
 10 11  1  0  0  0  0
 11  7  2  0  0  0  0
 12 10  2  0  0  0  0
 12 16  1  0  0  0  0
 13 10  1  0  0  0  0
 14 13  1  0  0  0  0
 15  7  1  0  0  0  0
 16 15  2  0  0  0  0
 18 19  2  0  0  0  0
 19 17  1  0  0  0  0
 19 20  1  0  0  0  0
 20 21  1  0  0  0  0
 22 23  2  0  0  0  0
 23 24  1  0  0  0  0
 23  1  1  0  0  0  0
 25 24  1  0  0  0  0
 26 25  1  0  0  0  0
 27 26  1  0  0  0  0
 28 29  1  0  0  0  0
 29 27  1  0  0  0  0
 30 28  2  0  0  0  0
 31 28  1  0  0  0  0
 32 31  1  0  0  0  0
 34 32  1  0  0  0  0
 34 33  1  0  0  0  0
 35 32  1  0  0  0  0
 36 35  1  0  0  0  0
 37 36  1  0  0  0  0
M  END
>  <MODEL>
9

>  <REMARK>
 VINA RESULT:      -7.0      1.986      8.186
  Name = 
  15 active torsions:
  status: ('A' for Active; 'I' for Inactive)
    1  A    between atoms: C_2  and  C_15
    2  A    between atoms: C_2  and  C_22
    3  A    between atoms: N_3  and  C_12
    4  A    between atoms: N_3  and  C_29
    5  A    between atoms: N_3  and  C_30
    6  A    between atoms: C_4  and  C_22
    7  A    between atoms: C_6  and  C_29
    8  A    between atoms: C_7  and  N_10
    9  A    between atoms: C_7  and  N_36
   10  A    between atoms: C_8  and  C_16
   11  A    between atoms: N_9  and  C_26
   12  A    between atoms: C_12  and  C_24
   13  A    between atoms: C_15  and  C_33
   14  A    between atoms: C_26  and  C_33
   15  A    between atoms: O_32  and  C_37
                            x       y       z     vdW  Elec       q    Type
                         _______ _______ _______ _____ _____    ______ ____

>  <TORSDO>
F 15

$$$$
