=
 OpenBabel10222415133D

 34 37  0  0  1  0  0  0  0  0999 V2000
  187.3030  177.8530  145.7070 C   0  0  0  0  0  0  0  0  0  0  0  0
  186.0160  178.3850  145.8200 C   0  0  0  0  0  3  0  0  0  0  0  0
  189.4760  177.1790  146.5360 C   0  0  0  0  0  0  0  0  0  0  0  0
  185.3510  178.4050  144.5900 C   0  0  0  0  0  0  0  0  0  0  0  0
  192.0430  176.1340  146.1510 C   0  0  0  0  0  3  0  0  0  0  0  0
  188.2010  177.7160  146.7620 O   0  0  0  0  0  0  0  0  0  0  0  0
  188.9270  176.8830  144.1220 N   0  0  0  0  0  0  0  0  0  0  0  0
  186.3580  177.7440  143.3970 S   0  0  0  0  0  0  0  0  0  0  0  0
  190.3600  177.0660  147.6130 C   0  0  0  0  0  3  0  0  0  0  0  0
  191.6400  176.5460  147.4220 C   0  0  0  0  0  0  0  0  0  0  0  0
  187.6470  177.4530  144.4350 C   0  0  0  0  0  0  0  0  0  0  0  0
  191.1650  176.2410  145.0700 C   0  0  0  0  0  3  0  0  0  0  0  0
  192.4920  176.4390  148.4690 F   0  0  0  0  0  0  0  0  0  0  0  0
  189.8690  176.7590  145.2340 C   0  0  0  0  0  0  0  0  0  0  0  0
  183.3020  178.8320  143.1270 N   0  0  0  0  0  0  0  0  0  0  0  0
  183.9610  178.8680  144.4060 C   0  0  0  0  0  0  0  0  0  0  0  0
  183.3330  179.2990  145.4120 O   0  0  0  0  0  0  0  0  0  0  0  0
  184.0400  178.9860  141.8840 C   0  0  0  0  0  1  0  0  0  0  0  0
  179.2360  178.8980  142.9270 C   0  0  0  0  0  1  0  0  0  0  0  0
  181.9010  178.8550  143.0580 C   0  0  0  0  0  0  0  0  0  0  0  0
  180.6970  178.8750  143.0000 C   0  0  0  0  0  0  0  0  0  0  0  0
  189.1320  176.4930  142.7110 C   0  0  2  0  0  3  0  0  0  0  0  0
  190.5850  176.3370  142.3090 C   0  0  0  0  0  2  0  0  0  0  0  0
  189.8150  177.5880  141.9160 C   0  0  1  0  0  3  0  0  0  0  0  0
  189.3920  177.4820  140.4650 C   0  0  0  0  0  2  0  0  0  0  0  0
  188.0720  178.2050  140.2630 C   0  0  0  0  0  2  0  0  0  0  0  0
  187.6360  178.1090  138.8120 C   0  0  0  0  0  2  0  0  0  0  0  0
  188.9700  179.7180  137.5770 O   0  0  0  0  0  1  0  0  0  0  0  0
  188.8070  178.3590  137.8670 C   0  0  2  0  0  3  0  0  0  0  0  0
  188.7550  177.5490  136.7080 O   0  0  0  0  0  0  0  0  0  0  0  0
  191.3570  176.8670  137.5400 O   0  0  0  0  0  1  0  0  0  0  0  0
  190.3600  175.9120  135.1620 O   0  0  0  0  0  0  0  0  0  0  0  0
  189.9580  176.3310  136.7510 P   0  0  0  0  0  0  0  0  0  0  0  0
  189.4220  175.1070  137.4570 O   0  0  0  0  0  1  0  0  0  0  0  0
  1  2  1  0  0  0  0
  1  6  1  0  0  0  0
  3  6  1  0  0  0  0
  3  9  1  0  0  0  0
  4  2  2  0  0  0  0
  5 10  1  0  0  0  0
  7 11  1  0  0  0  0
  7 14  1  0  0  0  0
  8 11  1  0  0  0  0
  8  4  1  0  0  0  0
 10  9  2  0  0  0  0
 10 13  1  0  0  0  0
 11  1  2  0  0  0  0
 12 14  1  0  0  0  0
 12  5  2  0  0  0  0
 14  3  2  0  0  0  0
 15 16  1  0  0  0  0
 16  4  1  0  0  0  0
 16 17  2  0  0  0  0
 18 15  1  0  0  0  0
 19 21  1  0  0  0  0
 20 15  1  0  0  0  0
 21 20  3  0  0  0  0
 22 23  1  1  0  0  0
 22  7  1  0  0  0  0
 24 25  1  6  0  0  0
 24 23  1  0  0  0  0
 24 22  1  0  0  0  0
 26 25  1  0  0  0  0
 27 26  1  0  0  0  0
 29 28  1  6  0  0  0
 29 27  1  0  0  0  0
 30 33  1  0  0  0  0
 30 29  1  0  0  0  0
 32 33  2  0  0  0  0
 33 34  1  0  0  0  0
 33 31  1  0  0  0  0
M  END
>  <MODEL>
1

>  <REMARK>
 VINA RESULT:      -8.8      0.000      0.000
  Name = 
  9 active torsions:
  status: ('A' for Active; 'I' for Inactive)
    1  A    between atoms: C_4  and  N_14
    2  A    between atoms: N_5  and  C_16
    3  A    between atoms: C_10  and  C_26
    4  A    between atoms: C_10  and  C_34
    5  A    between atoms: C_11  and  C_20
    6  A    between atoms: O_17  and  P_22
    7  A    between atoms: O_17  and  C_26
    8  A    between atoms: C_18  and  C_28
    9  A    between atoms: C_28  and  C_34
                            x       y       z     vdW  Elec       q    Type
                         _______ _______ _______ _____ _____    ______ ____

>  <TORSDO>
F 9

$$$$
=
 OpenBabel10222415133D

 34 37  0  0  1  0  0  0  0  0999 V2000
  190.0650  176.9690  142.5810 C   0  0  0  0  0  0  0  0  0  0  0  0
  190.0240  176.9640  141.1850 C   0  0  0  0  0  3  0  0  0  0  0  0
  191.0320  176.4790  144.7470 C   0  0  0  0  0  0  0  0  0  0  0  0
  188.8600  177.5650  140.6960 C   0  0  0  0  0  0  0  0  0  0  0  0
  190.9570  176.5230  147.5430 C   0  0  0  0  0  3  0  0  0  0  0  0
  191.0960  176.4320  143.3470 O   0  0  0  0  0  0  0  0  0  0  0  0
  188.8420  177.6640  144.6090 N   0  0  0  0  0  0  0  0  0  0  0  0
  187.9210  178.1110  141.9970 S   0  0  0  0  0  0  0  0  0  0  0  0
  192.0770  175.9200  145.4890 C   0  0  0  0  0  3  0  0  0  0  0  0
  192.0400  175.9410  146.8830 C   0  0  0  0  0  0  0  0  0  0  0  0
  188.9790  177.5630  143.1830 C   0  0  0  0  0  0  0  0  0  0  0  0
  189.9110  177.0860  146.8100 C   0  0  0  0  0  3  0  0  0  0  0  0
  193.0540  175.3980  147.5960 F   0  0  0  0  0  0  0  0  0  0  0  0
  189.9230  177.0820  145.4050 C   0  0  0  0  0  0  0  0  0  0  0  0
  188.9750  176.7960  138.2630 N   0  0  0  0  0  0  0  0  0  0  0  0
  188.5610  177.7480  139.2610 C   0  0  0  0  0  0  0  0  0  0  0  0
  187.9130  178.7700  138.9070 O   0  0  0  0  0  0  0  0  0  0  0  0
  190.1860  176.0060  138.4180 C   0  0  0  0  0  1  0  0  0  0  0  0
  187.0960  176.6840  134.6530 C   0  0  0  0  0  1  0  0  0  0  0  0
  188.3280  176.7580  137.0190 C   0  0  0  0  0  0  0  0  0  0  0  0
  187.7710  176.7250  135.9500 C   0  0  0  0  0  0  0  0  0  0  0  0
  187.6230  178.3440  145.0940 C   0  0  2  0  0  3  0  0  0  0  0  0
  186.8080  177.5380  146.0860 C   0  0  0  0  0  2  0  0  0  0  0  0
  186.3620  177.6390  144.6350 C   0  0  1  0  0  3  0  0  0  0  0  0
  185.2420  178.6520  144.5230 C   0  0  0  0  0  2  0  0  0  0  0  0
  184.2430  178.1970  143.4750 C   0  0  0  0  0  2  0  0  0  0  0  0
  184.4390  178.9770  142.1870 C   0  0  0  0  0  2  0  0  0  0  0  0
  182.0530  178.5970  141.9430 O   0  0  0  0  0  1  0  0  0  0  0  0
  183.2510  178.7950  141.2470 C   0  0  2  0  0  3  0  0  0  0  0  0
  183.4840  177.8110  140.2590 O   0  0  0  0  0  0  0  0  0  0  0  0
  184.4160  180.1180  138.9420 O   0  0  0  0  0  1  0  0  0  0  0  0
  182.4780  178.5450  137.7900 O   0  0  0  0  0  0  0  0  0  0  0  0
  183.8690  178.5270  138.7510 P   0  0  0  0  0  0  0  0  0  0  0  0
  184.9330  177.7110  138.0540 O   0  0  0  0  0  1  0  0  0  0  0  0
  1 11  2  0  0  0  0
  1  6  1  0  0  0  0
  2  1  1  0  0  0  0
  3 14  2  0  0  0  0
  3  9  1  0  0  0  0
  4  2  2  0  0  0  0
  4  8  1  0  0  0  0
  6  3  1  0  0  0  0
  7 14  1  0  0  0  0
  8 11  1  0  0  0  0
  9 10  2  0  0  0  0
 10  5  1  0  0  0  0
 10 13  1  0  0  0  0
 11  7  1  0  0  0  0
 12  5  2  0  0  0  0
 14 12  1  0  0  0  0
 15 18  1  0  0  0  0
 15 16  1  0  0  0  0
 16  4  1  0  0  0  0
 17 16  2  0  0  0  0
 19 21  1  0  0  0  0
 20 15  1  0  0  0  0
 21 20  3  0  0  0  0
 22  7  1  6  0  0  0
 22 23  1  0  0  0  0
 24 25  1  1  0  0  0
 24 22  1  0  0  0  0
 24 23  1  0  0  0  0
 26 25  1  0  0  0  0
 27 26  1  0  0  0  0
 29 28  1  1  0  0  0
 29 27  1  0  0  0  0
 30 29  1  0  0  0  0
 32 33  2  0  0  0  0
 33 31  1  0  0  0  0
 33 30  1  0  0  0  0
 34 33  1  0  0  0  0
M  END
>  <MODEL>
2

>  <REMARK>
 VINA RESULT:      -8.6      2.887      5.940
  Name = 
  9 active torsions:
  status: ('A' for Active; 'I' for Inactive)
    1  A    between atoms: C_4  and  N_14
    2  A    between atoms: N_5  and  C_16
    3  A    between atoms: C_10  and  C_26
    4  A    between atoms: C_10  and  C_34
    5  A    between atoms: C_11  and  C_20
    6  A    between atoms: O_17  and  P_22
    7  A    between atoms: O_17  and  C_26
    8  A    between atoms: C_18  and  C_28
    9  A    between atoms: C_28  and  C_34
                            x       y       z     vdW  Elec       q    Type
                         _______ _______ _______ _____ _____    ______ ____

>  <TORSDO>
F 9

$$$$
=
 OpenBabel10222415133D

 34 37  0  0  1  0  0  0  0  0999 V2000
  185.0920  178.5490  144.8320 C   0  0  0  0  0  0  0  0  0  0  0  0
  183.8570  178.9630  144.3290 C   0  0  0  0  0  3  0  0  0  0  0  0
  186.7790  178.2730  146.5480 C   0  0  0  0  0  0  0  0  0  0  0  0
  183.7240  178.6720  142.9680 C   0  0  0  0  0  0  0  0  0  0  0  0
  189.3060  177.4310  147.4030 C   0  0  0  0  0  3  0  0  0  0  0  0
  185.5100  178.7150  146.1500 O   0  0  0  0  0  0  0  0  0  0  0  0
  187.2190  177.4470  144.2360 N   0  0  0  0  0  0  0  0  0  0  0  0
  185.1250  177.8880  142.4230 S   0  0  0  0  0  0  0  0  0  0  0  0
  187.1740  178.4650  147.8750 C   0  0  0  0  0  3  0  0  0  0  0  0
  188.4340  178.0460  148.3020 C   0  0  0  0  0  0  0  0  0  0  0  0
  185.9110  177.9400  143.9080 C   0  0  0  0  0  0  0  0  0  0  0  0
  188.9190  177.2320  146.0760 C   0  0  0  0  0  3  0  0  0  0  0  0
  188.8120  178.2350  149.5880 F   0  0  0  0  0  0  0  0  0  0  0  0
  187.6550  177.6420  145.6200 C   0  0  0  0  0  0  0  0  0  0  0  0
  182.4980  178.8770  140.7370 N   0  0  0  0  0  0  0  0  0  0  0  0
  182.5100  178.9490  142.1750 C   0  0  0  0  0  0  0  0  0  0  0  0
  181.4480  179.2480  142.7860 O   0  0  0  0  0  0  0  0  0  0  0  0
  183.6810  179.1810  139.9490 C   0  0  0  0  0  1  0  0  0  0  0  0
  178.9760  178.4000  138.7520 C   0  0  0  0  0  1  0  0  0  0  0  0
  181.2840  178.7130  140.0530 C   0  0  0  0  0  0  0  0  0  0  0  0
  180.2420  178.5720  139.4640 C   0  0  0  0  0  0  0  0  0  0  0  0
  187.9640  176.8060  143.1320 C   0  0  2  0  0  3  0  0  0  0  0  0
  189.4610  176.7220  143.3520 C   0  0  0  0  0  2  0  0  0  0  0  0
  188.8840  177.7830  142.4280 C   0  0  1  0  0  3  0  0  0  0  0  0
  189.0610  177.3470  140.9880 C   0  0  0  0  0  2  0  0  0  0  0  0
  188.2300  178.2340  140.0790 C   0  0  0  0  0  2  0  0  0  0  0  0
  189.0660  178.7130  138.9050 C   0  0  0  0  0  2  0  0  0  0  0  0
  187.5210  179.0410  137.0610 O   0  0  0  0  0  1  0  0  0  0  0  0
  188.5060  178.1960  137.5840 C   0  0  2  0  0  3  0  0  0  0  0  0
  188.0900  176.8460  137.6590 O   0  0  0  0  0  0  0  0  0  0  0  0
  190.4030  175.4120  138.3800 O   0  0  0  0  0  1  0  0  0  0  0  0
  190.1880  176.5440  135.8840 O   0  0  0  0  0  0  0  0  0  0  0  0
  189.3270  175.7870  137.1280 P   0  0  0  0  0  0  0  0  0  0  0  0
  188.7160  174.5130  136.5930 O   0  0  0  0  0  1  0  0  0  0  0  0
  1  6  1  0  0  0  0
  2  1  1  0  0  0  0
  3  9  1  0  0  0  0
  4  2  2  0  0  0  0
  5 10  1  0  0  0  0
  6  3  1  0  0  0  0
  7 14  1  0  0  0  0
  8  4  1  0  0  0  0
  8 11  1  0  0  0  0
  9 10  2  0  0  0  0
 10 13  1  0  0  0  0
 11  7  1  0  0  0  0
 11  1  2  0  0  0  0
 12  5  2  0  0  0  0
 14 12  1  0  0  0  0
 14  3  2  0  0  0  0
 15 16  1  0  0  0  0
 16 17  2  0  0  0  0
 16  4  1  0  0  0  0
 18 15  1  0  0  0  0
 19 21  1  0  0  0  0
 20 15  1  0  0  0  0
 21 20  3  0  0  0  0
 22 23  1  1  0  0  0
 22  7  1  0  0  0  0
 24 25  1  6  0  0  0
 24 22  1  0  0  0  0
 24 23  1  0  0  0  0
 26 25  1  0  0  0  0
 27 26  1  0  0  0  0
 29 28  1  1  0  0  0
 29 30  1  0  0  0  0
 29 27  1  0  0  0  0
 32 33  2  0  0  0  0
 33 30  1  0  0  0  0
 33 31  1  0  0  0  0
 34 33  1  0  0  0  0
M  END
>  <MODEL>
3

>  <REMARK>
 VINA RESULT:      -8.4      1.889      2.426
  Name = 
  9 active torsions:
  status: ('A' for Active; 'I' for Inactive)
    1  A    between atoms: C_4  and  N_14
    2  A    between atoms: N_5  and  C_16
    3  A    between atoms: C_10  and  C_26
    4  A    between atoms: C_10  and  C_34
    5  A    between atoms: C_11  and  C_20
    6  A    between atoms: O_17  and  P_22
    7  A    between atoms: O_17  and  C_26
    8  A    between atoms: C_18  and  C_28
    9  A    between atoms: C_28  and  C_34
                            x       y       z     vdW  Elec       q    Type
                         _______ _______ _______ _____ _____    ______ ____

>  <TORSDO>
F 9

$$$$
=
 OpenBabel10222415133D

 34 37  0  0  1  0  0  0  0  0999 V2000
  186.1110  178.4870  143.6590 C   0  0  0  0  0  0  0  0  0  0  0  0
  185.1600  178.9210  142.7330 C   0  0  0  0  0  3  0  0  0  0  0  0
  186.9980  178.1230  145.8840 C   0  0  0  0  0  0  0  0  0  0  0  0
  185.5800  178.7090  141.4170 C   0  0  0  0  0  0  0  0  0  0  0  0
  189.0120  177.2510  147.6180 C   0  0  0  0  0  3  0  0  0  0  0  0
  185.9740  178.5790  145.0420 O   0  0  0  0  0  0  0  0  0  0  0  0
  188.3330  177.4380  143.8920 N   0  0  0  0  0  0  0  0  0  0  0  0
  187.1050  177.9690  141.4260 S   0  0  0  0  0  0  0  0  0  0  0  0
  186.8360  178.2400  147.2670 C   0  0  0  0  0  3  0  0  0  0  0  0
  187.8400  177.8060  148.1330 C   0  0  0  0  0  0  0  0  0  0  0  0
  187.2440  177.9390  143.1010 C   0  0  0  0  0  0  0  0  0  0  0  0
  189.1820  177.1270  146.2380 C   0  0  0  0  0  3  0  0  0  0  0  0
  187.6770  177.9220  149.4720 F   0  0  0  0  0  0  0  0  0  0  0  0
  188.1860  177.5540  145.3430 C   0  0  0  0  0  0  0  0  0  0  0  0
  183.3260  178.9790  140.2460 N   0  0  0  0  0  0  0  0  0  0  0  0
  184.7650  179.0230  140.2260 C   0  0  0  0  0  0  0  0  0  0  0  0
  185.3570  179.3510  139.1610 O   0  0  0  0  0  0  0  0  0  0  0  0
  182.6040  178.0580  141.1090 C   0  0  0  0  0  1  0  0  0  0  0  0
  181.1870  181.0140  137.4440 C   0  0  0  0  0  1  0  0  0  0  0  0
  182.5890  179.6800  139.2810 C   0  0  0  0  0  0  0  0  0  0  0  0
  181.9540  180.2830  138.4510 C   0  0  0  0  0  0  0  0  0  0  0  0
  189.4700  176.8670  143.1380 C   0  0  2  0  0  3  0  0  0  0  0  0
  190.7260  176.6590  143.9600 C   0  0  0  0  0  2  0  0  0  0  0  0
  190.6190  177.8490  143.0190 C   0  0  1  0  0  3  0  0  0  0  0  0
  191.3900  177.5560  141.7490 C   0  0  0  0  0  2  0  0  0  0  0  0
  190.5220  176.7510  140.7990 C   0  0  0  0  0  2  0  0  0  0  0  0
  190.4270  177.4490  139.4540 C   0  0  0  0  0  2  0  0  0  0  0  0
  190.7540  175.2790  138.4140 O   0  0  0  0  0  1  0  0  0  0  0  0
  190.0240  176.4720  138.3530 C   0  0  2  0  0  3  0  0  0  0  0  0
  190.0390  177.0620  137.0680 O   0  0  0  0  0  0  0  0  0  0  0  0
  188.6780  179.5220  137.2180 O   0  0  0  0  0  1  0  0  0  0  0  0
  187.3350  177.1590  137.6330 O   0  0  0  0  0  1  0  0  0  0  0  0
  188.5760  177.8970  136.7540 P   0  0  0  0  0  0  0  0  0  0  0  0
  188.2460  177.8150  135.2820 O   0  0  0  0  0  0  0  0  0  0  0  0
  1  6  1  0  0  0  0
  2  1  1  0  0  0  0
  3  9  1  0  0  0  0
  4  8  1  0  0  0  0
  4  2  2  0  0  0  0
  5 10  1  0  0  0  0
  6  3  1  0  0  0  0
  7 14  1  0  0  0  0
  8 11  1  0  0  0  0
  9 10  2  0  0  0  0
 10 13  1  0  0  0  0
 11  1  2  0  0  0  0
 11  7  1  0  0  0  0
 12  5  2  0  0  0  0
 14  3  2  0  0  0  0
 14 12  1  0  0  0  0
 15 18  1  0  0  0  0
 16 15  1  0  0  0  0
 16  4  1  0  0  0  0
 17 16  2  0  0  0  0
 19 21  1  0  0  0  0
 20 15  1  0  0  0  0
 21 20  3  0  0  0  0
 22  7  1  1  0  0  0
 22 23  1  0  0  0  0
 24 25  1  6  0  0  0
 24 22  1  0  0  0  0
 24 23  1  0  0  0  0
 26 25  1  0  0  0  0
 27 26  1  0  0  0  0
 29 28  1  6  0  0  0
 29 27  1  0  0  0  0
 30 29  1  0  0  0  0
 33 30  1  0  0  0  0
 33 31  1  0  0  0  0
 33 32  1  0  0  0  0
 34 33  2  0  0  0  0
M  END
>  <MODEL>
4

>  <REMARK>
 VINA RESULT:      -8.4      2.295      3.379
  Name = 
  9 active torsions:
  status: ('A' for Active; 'I' for Inactive)
    1  A    between atoms: C_4  and  N_14
    2  A    between atoms: N_5  and  C_16
    3  A    between atoms: C_10  and  C_26
    4  A    between atoms: C_10  and  C_34
    5  A    between atoms: C_11  and  C_20
    6  A    between atoms: O_17  and  P_22
    7  A    between atoms: O_17  and  C_26
    8  A    between atoms: C_18  and  C_28
    9  A    between atoms: C_28  and  C_34
                            x       y       z     vdW  Elec       q    Type
                         _______ _______ _______ _____ _____    ______ ____

>  <TORSDO>
F 9

$$$$
=
 OpenBabel10222415133D

 34 37  0  0  1  0  0  0  0  0999 V2000
  189.6850  177.2980  142.6880 C   0  0  0  0  0  0  0  0  0  0  0  0
  190.6520  177.1180  141.6950 C   0  0  0  0  0  3  0  0  0  0  0  0
  188.8880  177.4460  144.9700 C   0  0  0  0  0  0  0  0  0  0  0  0
  190.1010  177.1930  140.4120 C   0  0  0  0  0  0  0  0  0  0  0  0
  186.8390  177.7790  146.8450 C   0  0  0  0  0  3  0  0  0  0  0  0
  189.9370  177.2650  144.0570 O   0  0  0  0  0  0  0  0  0  0  0  0
  187.2860  177.7260  143.0790 N   0  0  0  0  0  0  0  0  0  0  0  0
  188.4390  177.5040  140.5320 S   0  0  0  0  0  0  0  0  0  0  0  0
  189.1700  177.3950  146.3380 C   0  0  0  0  0  3  0  0  0  0  0  0
  188.1490  177.5610  147.2740 C   0  0  0  0  0  0  0  0  0  0  0  0
  188.4120  177.5190  142.2130 C   0  0  0  0  0  0  0  0  0  0  0  0
  186.5490  177.8340  145.4810 C   0  0  0  0  0  3  0  0  0  0  0  0
  188.4280  177.5100  148.5980 F   0  0  0  0  0  0  0  0  0  0  0  0
  187.5580  177.6730  144.5160 C   0  0  0  0  0  0  0  0  0  0  0  0
  192.3160  176.9140  139.1710 N   0  0  0  0  0  0  0  0  0  0  0  0
  190.8870  177.0890  139.1660 C   0  0  0  0  0  0  0  0  0  0  0  0
  190.2760  177.1450  138.0640 O   0  0  0  0  0  0  0  0  0  0  0  0
  193.1470  177.4580  140.2330 C   0  0  0  0  0  1  0  0  0  0  0  0
  194.1950  175.4000  135.8920 C   0  0  0  0  0  1  0  0  0  0  0  0
  192.9630  176.3920  138.0410 C   0  0  0  0  0  0  0  0  0  0  0  0
  193.5190  175.9440  137.0690 C   0  0  0  0  0  0  0  0  0  0  0  0
  185.9900  177.9650  142.4090 C   0  0  2  0  0  3  0  0  0  0  0  0
  185.8720  179.3190  141.7390 C   0  0  0  0  0  2  0  0  0  0  0  0
  185.2020  179.0720  143.0820 C   0  0  1  0  0  3  0  0  0  0  0  0
  183.7230  178.8250  142.8670 C   0  0  0  0  0  2  0  0  0  0  0  0
  182.9910  178.9220  144.1930 C   0  0  0  0  0  2  0  0  0  0  0  0
  181.5060  178.6770  143.9940 C   0  0  0  0  0  2  0  0  0  0  0  0
  180.4000  180.5040  142.8380 O   0  0  0  0  0  1  0  0  0  0  0  0
  181.0240  179.2620  142.6700 C   0  0  2  0  0  3  0  0  0  0  0  0
  180.2440  178.3500  141.9220 O   0  0  0  0  0  0  0  0  0  0  0  0
  181.3820  179.7340  139.7500 O   0  0  0  0  0  1  0  0  0  0  0  0
  179.5090  177.7680  139.3210 O   0  0  0  0  0  0  0  0  0  0  0  0
  180.7990  178.2440  140.3040 P   0  0  0  0  0  0  0  0  0  0  0  0
  181.8950  177.2090  140.2060 O   0  0  0  0  0  1  0  0  0  0  0  0
  1  6  1  0  0  0  0
  2  1  1  0  0  0  0
  3  9  1  0  0  0  0
  4  8  1  0  0  0  0
  4  2  2  0  0  0  0
  5 10  1  0  0  0  0
  6  3  1  0  0  0  0
  7 14  1  0  0  0  0
  8 11  1  0  0  0  0
  9 10  2  0  0  0  0
 10 13  1  0  0  0  0
 11  1  2  0  0  0  0
 11  7  1  0  0  0  0
 12  5  2  0  0  0  0
 14  3  2  0  0  0  0
 14 12  1  0  0  0  0
 15 18  1  0  0  0  0
 16 15  1  0  0  0  0
 16  4  1  0  0  0  0
 17 16  2  0  0  0  0
 19 21  1  0  0  0  0
 20 15  1  0  0  0  0
 21 20  3  0  0  0  0
 22 23  1  6  0  0  0
 22  7  1  0  0  0  0
 22 24  1  0  0  0  0
 23 24  1  0  0  0  0
 24 25  1  6  0  0  0
 25 26  1  0  0  0  0
 27 26  1  0  0  0  0
 29 28  1  1  0  0  0
 29 27  1  0  0  0  0
 30 29  1  0  0  0  0
 31 33  1  0  0  0  0
 32 33  2  0  0  0  0
 33 30  1  0  0  0  0
 34 33  1  0  0  0  0
M  END
>  <MODEL>
5

>  <REMARK>
 VINA RESULT:      -8.3      3.748      7.989
  Name = 
  9 active torsions:
  status: ('A' for Active; 'I' for Inactive)
    1  A    between atoms: C_4  and  N_14
    2  A    between atoms: N_5  and  C_16
    3  A    between atoms: C_10  and  C_26
    4  A    between atoms: C_10  and  C_34
    5  A    between atoms: C_11  and  C_20
    6  A    between atoms: O_17  and  P_22
    7  A    between atoms: O_17  and  C_26
    8  A    between atoms: C_18  and  C_28
    9  A    between atoms: C_28  and  C_34
                            x       y       z     vdW  Elec       q    Type
                         _______ _______ _______ _____ _____    ______ ____

>  <TORSDO>
F 9

$$$$
=
 OpenBabel10222415133D

 34 37  0  0  1  0  0  0  0  0999 V2000
  189.4150  177.2570  142.6290 C   0  0  0  0  0  0  0  0  0  0  0  0
  189.2410  177.2910  141.2430 C   0  0  0  0  0  3  0  0  0  0  0  0
  190.5740  176.6950  144.6800 C   0  0  0  0  0  0  0  0  0  0  0  0
  188.0460  177.9200  140.8830 C   0  0  0  0  0  0  0  0  0  0  0  0
  190.7640  176.6630  147.4710 C   0  0  0  0  0  3  0  0  0  0  0  0
  190.5050  176.6850  143.2800 O   0  0  0  0  0  0  0  0  0  0  0  0
  188.4000  177.9130  144.7820 N   0  0  0  0  0  0  0  0  0  0  0  0
  187.2430  178.4430  142.2810 S   0  0  0  0  0  0  0  0  0  0  0  0
  191.6750  176.1010  145.3050 C   0  0  0  0  0  3  0  0  0  0  0  0
  191.7700  176.0850  146.6960 C   0  0  0  0  0  0  0  0  0  0  0  0
  188.4000  177.8490  143.3470 C   0  0  0  0  0  0  0  0  0  0  0  0
  189.6620  177.2600  146.8550 C   0  0  0  0  0  3  0  0  0  0  0  0
  192.8380  175.5080  147.2960 F   0  0  0  0  0  0  0  0  0  0  0  0
  189.5420  177.2940  145.4560 C   0  0  0  0  0  0  0  0  0  0  0  0
  188.4530  177.8180  138.3640 N   0  0  0  0  0  0  0  0  0  0  0  0
  187.6160  178.1460  139.4880 C   0  0  0  0  0  0  0  0  0  0  0  0
  186.4720  178.6350  139.2840 O   0  0  0  0  0  0  0  0  0  0  0  0
  189.9030  177.8800  138.4480 C   0  0  0  0  0  1  0  0  0  0  0  0
  186.7980  177.2740  134.6840 C   0  0  0  0  0  1  0  0  0  0  0  0
  187.8830  177.6310  137.0960 C   0  0  0  0  0  0  0  0  0  0  0  0
  187.3930  177.4690  136.0060 C   0  0  0  0  0  0  0  0  0  0  0  0
  187.2430  178.5960  145.3980 C   0  0  2  0  0  3  0  0  0  0  0  0
  186.4010  177.7140  146.2980 C   0  0  0  0  0  2  0  0  0  0  0  0
  185.9250  178.0430  144.8910 C   0  0  1  0  0  3  0  0  0  0  0  0
  184.8740  179.1320  144.9590 C   0  0  0  0  0  2  0  0  0  0  0  0
  183.5670  178.6170  144.3850 C   0  0  0  0  0  2  0  0  0  0  0  0
  183.6180  178.6270  142.8670 C   0  0  0  0  0  2  0  0  0  0  0  0
  182.2500  179.0110  140.8990 O   0  0  0  0  0  1  0  0  0  0  0  0
  182.2190  178.7320  142.2700 C   0  0  2  0  0  3  0  0  0  0  0  0
  181.3810  179.6130  142.9930 O   0  0  0  0  0  0  0  0  0  0  0  0
  179.9200  177.4870  144.1180 O   0  0  0  0  0  1  0  0  0  0  0  0
  179.1390  178.6040  141.7300 O   0  0  0  0  0  0  0  0  0  0  0  0
  179.8300  178.9300  143.2380 P   0  0  0  0  0  0  0  0  0  0  0  0
  178.9490  179.9130  143.9750 O   0  0  0  0  0  1  0  0  0  0  0  0
  1  6  1  0  0  0  0
  1 11  2  0  0  0  0
  2  1  1  0  0  0  0
  3  9  2  0  0  0  0
  3 14  1  0  0  0  0
  4  2  2  0  0  0  0
  4  8  1  0  0  0  0
  6  3  1  0  0  0  0
  7 14  1  0  0  0  0
  8 11  1  0  0  0  0
  9 10  1  0  0  0  0
 10 13  1  0  0  0  0
 10  5  2  0  0  0  0
 11  7  1  0  0  0  0
 12  5  1  0  0  0  0
 14 12  2  0  0  0  0
 15 18  1  0  0  0  0
 15 16  1  0  0  0  0
 16  4  1  0  0  0  0
 17 16  2  0  0  0  0
 19 21  1  0  0  0  0
 20 15  1  0  0  0  0
 21 20  3  0  0  0  0
 22  7  1  6  0  0  0
 22 23  1  0  0  0  0
 24 25  1  1  0  0  0
 24 22  1  0  0  0  0
 24 23  1  0  0  0  0
 26 25  1  0  0  0  0
 27 26  1  0  0  0  0
 29 28  1  6  0  0  0
 29 27  1  0  0  0  0
 29 30  1  0  0  0  0
 30 33  1  0  0  0  0
 32 33  2  0  0  0  0
 33 34  1  0  0  0  0
 33 31  1  0  0  0  0
M  END
>  <MODEL>
6

>  <REMARK>
 VINA RESULT:      -8.1      3.259      7.035
  Name = 
  9 active torsions:
  status: ('A' for Active; 'I' for Inactive)
    1  A    between atoms: C_4  and  N_14
    2  A    between atoms: N_5  and  C_16
    3  A    between atoms: C_10  and  C_26
    4  A    between atoms: C_10  and  C_34
    5  A    between atoms: C_11  and  C_20
    6  A    between atoms: O_17  and  P_22
    7  A    between atoms: O_17  and  C_26
    8  A    between atoms: C_18  and  C_28
    9  A    between atoms: C_28  and  C_34
                            x       y       z     vdW  Elec       q    Type
                         _______ _______ _______ _____ _____    ______ ____

>  <TORSDO>
F 9

$$$$
=
 OpenBabel10222415133D

 34 37  0  0  1  0  0  0  0  0999 V2000
  185.8600  178.5720  143.4850 C   0  0  0  0  0  0  0  0  0  0  0  0
  184.8850  179.0430  142.6020 C   0  0  0  0  0  3  0  0  0  0  0  0
  186.8210  178.1530  145.6690 C   0  0  0  0  0  0  0  0  0  0  0  0
  185.2500  178.8410  141.2680 C   0  0  0  0  0  0  0  0  0  0  0  0
  188.8760  177.2050  147.3130 C   0  0  0  0  0  3  0  0  0  0  0  0
  185.7770  178.6460  144.8730 O   0  0  0  0  0  0  0  0  0  0  0  0
  188.0620  177.4650  143.6180 N   0  0  0  0  0  0  0  0  0  0  0  0
  186.7550  178.0640  141.2090 S   0  0  0  0  0  0  0  0  0  0  0  0
  186.7140  178.2530  147.0590 C   0  0  0  0  0  3  0  0  0  0  0  0
  187.7380  177.7810  147.8790 C   0  0  0  0  0  0  0  0  0  0  0  0
  186.9570  178.0050  142.8770 C   0  0  0  0  0  0  0  0  0  0  0  0
  188.9900  177.0990  145.9250 C   0  0  0  0  0  3  0  0  0  0  0  0
  187.6290  177.8810  149.2250 F   0  0  0  0  0  0  0  0  0  0  0  0
  187.9720  177.5630  145.0750 C   0  0  0  0  0  0  0  0  0  0  0  0
  183.0310  178.7580  140.0060 N   0  0  0  0  0  0  0  0  0  0  0  0
  184.3990  179.1930  140.1130 C   0  0  0  0  0  0  0  0  0  0  0  0
  184.8920  179.9090  139.1990 O   0  0  0  0  0  0  0  0  0  0  0  0
  182.5840  177.5000  140.5830 C   0  0  0  0  0  1  0  0  0  0  0  0
  180.4490  180.7360  137.5580 C   0  0  0  0  0  1  0  0  0  0  0  0
  182.1410  179.4390  139.1630 C   0  0  0  0  0  0  0  0  0  0  0  0
  181.3770  180.0260  138.4370 C   0  0  0  0  0  0  0  0  0  0  0  0
  189.1550  176.8790  142.8130 C   0  0  2  0  0  3  0  0  0  0  0  0
  190.5080  176.8830  143.4960 C   0  0  0  0  0  2  0  0  0  0  0  0
  190.1900  177.9160  142.4250 C   0  0  1  0  0  3  0  0  0  0  0  0
  190.8390  177.5030  141.1200 C   0  0  0  0  0  2  0  0  0  0  0  0
  189.7700  177.0700  140.1330 C   0  0  0  0  0  2  0  0  0  0  0  0
  190.1820  177.4350  138.7180 C   0  0  0  0  0  2  0  0  0  0  0  0
  189.0200  175.6230  137.5950 O   0  0  0  0  0  1  0  0  0  0  0  0
  190.2750  176.1950  137.8340 C   0  0  2  0  0  3  0  0  0  0  0  0
  191.2260  175.2590  138.3040 O   0  0  0  0  0  0  0  0  0  0  0  0
  193.7120  174.1300  137.6180 O   0  0  0  0  0  1  0  0  0  0  0  0
  193.5560  176.7380  138.4750 O   0  0  0  0  0  1  0  0  0  0  0  0
  192.7620  175.5310  137.5960 P   0  0  0  0  0  0  0  0  0  0  0  0
  192.5910  175.9990  136.1690 O   0  0  0  0  0  0  0  0  0  0  0  0
  1  6  1  0  0  0  0
  2  1  1  0  0  0  0
  3  9  1  0  0  0  0
  4  2  2  0  0  0  0
  5 10  1  0  0  0  0
  6  3  1  0  0  0  0
  7 14  1  0  0  0  0
  8  4  1  0  0  0  0
  8 11  1  0  0  0  0
  9 10  2  0  0  0  0
 10 13  1  0  0  0  0
 11  1  2  0  0  0  0
 11  7  1  0  0  0  0
 12  5  2  0  0  0  0
 14  3  2  0  0  0  0
 14 12  1  0  0  0  0
 15 16  1  0  0  0  0
 15 18  1  0  0  0  0
 16  4  1  0  0  0  0
 17 16  2  0  0  0  0
 19 21  1  0  0  0  0
 20 15  1  0  0  0  0
 21 20  3  0  0  0  0
 22 23  1  1  0  0  0
 22  7  1  0  0  0  0
 24 25  1  6  0  0  0
 24 22  1  0  0  0  0
 24 23  1  0  0  0  0
 26 25  1  0  0  0  0
 27 26  1  0  0  0  0
 29 28  1  1  0  0  0
 29 30  1  0  0  0  0
 29 27  1  0  0  0  0
 33 31  1  0  0  0  0
 33 30  1  0  0  0  0
 33 32  1  0  0  0  0
 34 33  2  0  0  0  0
M  END
>  <MODEL>
7

>  <REMARK>
 VINA RESULT:      -8.1      2.485      3.425
  Name = 
  9 active torsions:
  status: ('A' for Active; 'I' for Inactive)
    1  A    between atoms: C_4  and  N_14
    2  A    between atoms: N_5  and  C_16
    3  A    between atoms: C_10  and  C_26
    4  A    between atoms: C_10  and  C_34
    5  A    between atoms: C_11  and  C_20
    6  A    between atoms: O_17  and  P_22
    7  A    between atoms: O_17  and  C_26
    8  A    between atoms: C_18  and  C_28
    9  A    between atoms: C_28  and  C_34
                            x       y       z     vdW  Elec       q    Type
                         _______ _______ _______ _____ _____    ______ ____

>  <TORSDO>
F 9

$$$$
=
 OpenBabel10222415133D

 34 37  0  0  1  0  0  0  0  0999 V2000
  187.4720  177.9490  138.7110 C   0  0  0  0  0  0  0  0  0  0  0  0
  186.1490  178.2750  138.4040 C   0  0  0  0  0  3  0  0  0  0  0  0
  189.7140  177.1850  138.2060 C   0  0  0  0  0  0  0  0  0  0  0  0
  185.4380  178.6870  139.5360 C   0  0  0  0  0  0  0  0  0  0  0  0
  192.3220  176.5260  138.9760 C   0  0  0  0  0  3  0  0  0  0  0  0
  188.4130  177.4970  137.7890 O   0  0  0  0  0  0  0  0  0  0  0  0
  189.1200  177.8210  140.5440 N   0  0  0  0  0  0  0  0  0  0  0  0
  186.4660  178.6630  140.8840 S   0  0  0  0  0  0  0  0  0  0  0  0
  190.6330  176.7230  137.2600 C   0  0  0  0  0  3  0  0  0  0  0  0
  191.9330  176.3930  137.6430 C   0  0  0  0  0  0  0  0  0  0  0  0
  187.8070  178.1060  140.0370 C   0  0  0  0  0  0  0  0  0  0  0  0
  191.4120  176.9900  139.9280 C   0  0  0  0  0  3  0  0  0  0  0  0
  192.8180  175.9450  136.7220 F   0  0  0  0  0  0  0  0  0  0  0  0
  190.0970  177.3320  139.5700 C   0  0  0  0  0  0  0  0  0  0  0  0
  182.9500  178.3040  139.9620 N   0  0  0  0  0  0  0  0  0  0  0  0
  184.0330  179.1400  139.5130 C   0  0  0  0  0  0  0  0  0  0  0  0
  183.7820  180.3020  139.0940 O   0  0  0  0  0  0  0  0  0  0  0  0
  183.0030  176.8560  139.8430 C   0  0  0  0  0  1  0  0  0  0  0  0
  179.4010  179.9790  141.0470 C   0  0  0  0  0  1  0  0  0  0  0  0
  181.7270  178.8810  140.3360 C   0  0  0  0  0  0  0  0  0  0  0  0
  180.6760  179.3770  140.6580 C   0  0  0  0  0  0  0  0  0  0  0  0
  189.3200  178.0560  141.9890 C   0  0  2  0  0  3  0  0  0  0  0  0
  189.9040  176.8770  142.7420 C   0  0  0  0  0  2  0  0  0  0  0  0
  188.4160  177.1800  142.8340 C   0  0  1  0  0  3  0  0  0  0  0  0
  188.1280  177.8860  144.1440 C   0  0  0  0  0  2  0  0  0  0  0  0
  187.1470  177.0650  144.9620 C   0  0  0  0  0  2  0  0  0  0  0  0
  186.8240  177.7770  146.2630 C   0  0  0  0  0  2  0  0  0  0  0  0
  185.6810  179.7350  147.1320 O   0  0  0  0  0  1  0  0  0  0  0  0
  185.7520  178.8420  146.0570 C   0  0  2  0  0  3  0  0  0  0  0  0
  184.4940  178.2920  145.7140 O   0  0  0  0  0  0  0  0  0  0  0  0
  182.2360  179.1730  144.2830 O   0  0  0  0  0  1  0  0  0  0  0  0
  184.2860  177.8780  142.9880 O   0  0  0  0  0  0  0  0  0  0  0  0
  183.9130  178.9490  144.2420 P   0  0  0  0  0  0  0  0  0  0  0  0
  184.5900  180.2730  143.9710 O   0  0  0  0  0  1  0  0  0  0  0  0
  1 11  2  0  0  0  0
  2  1  1  0  0  0  0
  2  4  2  0  0  0  0
  3 14  1  0  0  0  0
  4  8  1  0  0  0  0
  5 12  1  0  0  0  0
  6  3  1  0  0  0  0
  6  1  1  0  0  0  0
  9 10  1  0  0  0  0
  9  3  2  0  0  0  0
 10  5  2  0  0  0  0
 11  7  1  0  0  0  0
 11  8  1  0  0  0  0
 13 10  1  0  0  0  0
 14 12  2  0  0  0  0
 14  7  1  0  0  0  0
 15 20  1  0  0  0  0
 16  4  1  0  0  0  0
 16 15  1  0  0  0  0
 17 16  2  0  0  0  0
 18 15  1  0  0  0  0
 20 21  3  0  0  0  0
 21 19  1  0  0  0  0
 22  7  1  6  0  0  0
 22 23  1  0  0  0  0
 22 24  1  0  0  0  0
 23 24  1  0  0  0  0
 24 25  1  1  0  0  0
 25 26  1  0  0  0  0
 26 27  1  0  0  0  0
 29 27  1  0  0  0  0
 29 28  1  1  0  0  0
 30 29  1  0  0  0  0
 32 33  2  0  0  0  0
 33 31  1  0  0  0  0
 33 30  1  0  0  0  0
 34 33  1  0  0  0  0
M  END
>  <MODEL>
8

>  <REMARK>
 VINA RESULT:      -7.9      3.573      7.041
  Name = 
  9 active torsions:
  status: ('A' for Active; 'I' for Inactive)
    1  A    between atoms: C_4  and  N_14
    2  A    between atoms: N_5  and  C_16
    3  A    between atoms: C_10  and  C_26
    4  A    between atoms: C_10  and  C_34
    5  A    between atoms: C_11  and  C_20
    6  A    between atoms: O_17  and  P_22
    7  A    between atoms: O_17  and  C_26
    8  A    between atoms: C_18  and  C_28
    9  A    between atoms: C_28  and  C_34
                            x       y       z     vdW  Elec       q    Type
                         _______ _______ _______ _____ _____    ______ ____

>  <TORSDO>
F 9

$$$$
=
 OpenBabel10222415133D

 34 37  0  0  1  0  0  0  0  0999 V2000
  184.9540  178.6680  140.6350 C   0  0  0  0  0  0  0  0  0  0  0  0
  186.0520  178.6270  139.7720 C   0  0  0  0  0  3  0  0  0  0  0  0
  182.6090  178.9170  141.1880 C   0  0  0  0  0  0  0  0  0  0  0  0
  187.2480  178.4070  140.4620 C   0  0  0  0  0  0  0  0  0  0  0  0
  180.5140  179.0190  143.0390 C   0  0  0  0  0  3  0  0  0  0  0  0
  183.6380  178.8820  140.2360 O   0  0  0  0  0  0  0  0  0  0  0  0
  184.2690  178.4850  142.9990 N   0  0  0  0  0  0  0  0  0  0  0  0
  186.9210  178.2440  142.1170 S   0  0  0  0  0  0  0  0  0  0  0  0
  181.3000  179.1460  140.7570 C   0  0  0  0  0  3  0  0  0  0  0  0
  180.2540  179.1970  141.6790 C   0  0  0  0  0  0  0  0  0  0  0  0
  185.2630  178.4770  141.9630 C   0  0  0  0  0  0  0  0  0  0  0  0
  181.8190  178.7860  143.4770 C   0  0  0  0  0  3  0  0  0  0  0  0
  178.9870  179.4200  141.2560 F   0  0  0  0  0  0  0  0  0  0  0  0
  182.8910  178.7270  142.5710 C   0  0  0  0  0  0  0  0  0  0  0  0
  189.5270  177.2780  140.2260 N   0  0  0  0  0  0  0  0  0  0  0  0
  188.5670  178.2680  139.8110 C   0  0  0  0  0  0  0  0  0  0  0  0
  188.8500  179.0390  138.8550 O   0  0  0  0  0  0  0  0  0  0  0  0
  189.6080  176.8230  141.6040 C   0  0  0  0  0  1  0  0  0  0  0  0
  192.4890  176.1240  137.6820 C   0  0  0  0  0  1  0  0  0  0  0  0
  190.5480  176.8800  139.3490 C   0  0  0  0  0  0  0  0  0  0  0  0
  191.4240  176.5380  138.5950 C   0  0  0  0  0  0  0  0  0  0  0  0
  184.7640  178.2500  144.3720 C   0  0  2  0  0  3  0  0  0  0  0  0
  183.7890  178.6380  145.4650 C   0  0  0  0  0  2  0  0  0  0  0  0
  184.9620  179.5460  145.1310 C   0  0  1  0  0  3  0  0  0  0  0  0
  186.0560  179.3530  146.1610 C   0  0  0  0  0  2  0  0  0  0  0  0
  186.9780  178.2290  145.7240 C   0  0  0  0  0  2  0  0  0  0  0  0
  187.4810  177.4610  146.9330 C   0  0  0  0  0  2  0  0  0  0  0  0
  189.4340  177.9570  148.2880 O   0  0  0  0  0  1  0  0  0  0  0  0
  189.0020  177.5220  147.0300 C   0  0  2  0  0  3  0  0  0  0  0  0
  189.5880  178.2470  145.9660 O   0  0  0  0  0  0  0  0  0  0  0  0
  192.0430  176.9830  146.5120 O   0  0  0  0  0  1  0  0  0  0  0  0
  191.6990  178.4100  144.1880 O   0  0  0  0  0  0  0  0  0  0  0  0
  190.9290  177.4070  145.3100 P   0  0  0  0  0  0  0  0  0  0  0  0
  190.4540  176.1580  144.6030 O   0  0  0  0  0  1  0  0  0  0  0  0
  1 11  2  0  0  0  0
  2  4  2  0  0  0  0
  2  1  1  0  0  0  0
  3 14  1  0  0  0  0
  4  8  1  0  0  0  0
  5 12  1  0  0  0  0
  6  1  1  0  0  0  0
  6  3  1  0  0  0  0
  9  3  2  0  0  0  0
  9 10  1  0  0  0  0
 10  5  2  0  0  0  0
 11  8  1  0  0  0  0
 11  7  1  0  0  0  0
 13 10  1  0  0  0  0
 14  7  1  0  0  0  0
 14 12  2  0  0  0  0
 15 18  1  0  0  0  0
 16 15  1  0  0  0  0
 16  4  1  0  0  0  0
 17 16  2  0  0  0  0
 19 21  1  0  0  0  0
 20 15  1  0  0  0  0
 21 20  3  0  0  0  0
 22  7  1  6  0  0  0
 22 24  1  0  0  0  0
 22 23  1  0  0  0  0
 24 23  1  0  0  0  0
 24 25  1  1  0  0  0
 26 25  1  0  0  0  0
 26 27  1  0  0  0  0
 27 29  1  0  0  0  0
 29 28  1  1  0  0  0
 30 29  1  0  0  0  0
 32 33  2  0  0  0  0
 33 30  1  0  0  0  0
 33 31  1  0  0  0  0
 34 33  1  0  0  0  0
M  END
>  <MODEL>
9

>  <REMARK>
 VINA RESULT:      -7.9      3.801      8.793
  Name = 
  9 active torsions:
  status: ('A' for Active; 'I' for Inactive)
    1  A    between atoms: C_4  and  N_14
    2  A    between atoms: N_5  and  C_16
    3  A    between atoms: C_10  and  C_26
    4  A    between atoms: C_10  and  C_34
    5  A    between atoms: C_11  and  C_20
    6  A    between atoms: O_17  and  P_22
    7  A    between atoms: O_17  and  C_26
    8  A    between atoms: C_18  and  C_28
    9  A    between atoms: C_28  and  C_34
                            x       y       z     vdW  Elec       q    Type
                         _______ _______ _______ _____ _____    ______ ____

>  <TORSDO>
F 9

$$$$
