=
 OpenBabel10222415313D

 31 31  0  0  1  0  0  0  0  0999 V2000
  189.5300  177.5190  141.1900 N   0  0  0  0  0  0  0  0  0  0  0  0
  191.2550  175.7380  144.0910 C   0  0  0  0  0  2  0  0  0  0  0  0
  191.1150  178.1830  144.5940 C   0  0  0  0  0  2  0  0  0  0  0  0
  190.3170  175.9130  142.9000 C   0  0  0  0  0  2  0  0  0  0  0  0
  190.4300  177.3320  142.3370 C   0  0  2  0  0  3  0  0  0  0  0  0
  190.9430  176.7790  145.1660 C   0  0  2  0  0  3  0  0  0  0  0  0
  190.1680  178.3870  143.4140 C   0  0  0  0  0  2  0  0  0  0  0  0
  191.8650  176.6000  146.3560 C   0  0  0  0  0  2  0  0  0  0  0  0
  191.1210  176.7840  147.5890 N   0  0  0  0  0  2  0  0  0  0  0  0
  189.7130  176.7630  147.2350 C   0  0  0  0  0  2  0  0  0  0  0  0
  189.5630  178.6430  148.6850 O   0  0  0  0  0  0  0  0  0  0  0  0
  187.5580  177.5370  148.2910 N   0  0  0  0  0  1  0  0  0  0  0  0
  188.9610  177.6950  148.1170 C   0  0  0  0  0  0  0  0  0  0  0  0
  190.8470  176.6920  139.3890 C   0  0  0  0  0  3  0  0  0  0  0  0
  189.9890  177.5430  139.8580 N   0  0  0  0  0  0  0  0  0  0  0  0
  190.1330  177.0080  137.1020 N   0  0  0  0  0  1  0  0  0  0  0  0
  191.2800  176.7570  137.9630 C   0  0  2  0  0  3  0  0  0  0  0  0
  192.0120  175.4710  137.5570 C   0  0  1  0  0  3  0  0  0  0  0  0
  190.3230  173.5630  136.7330 C   0  0  0  0  0  3  0  0  0  0  0  0
  191.0880  174.4200  137.1040 C   0  0  0  0  0  0  0  0  0  0  0  0
  193.9240  176.7460  136.9010 O   0  0  0  0  0  1  0  0  0  0  0  0
  193.0480  175.7460  136.4780 C   0  0  0  0  0  2  0  0  0  0  0  0
  187.4370  178.7390  141.0840 C   0  0  0  0  0  3  0  0  0  0  0  0
  188.1180  177.6370  141.3960 C   0  0  0  0  0  3  0  0  0  0  0  0
  185.3000  179.5460  140.5120 O   0  0  0  0  0  0  0  0  0  0  0  0
  185.9890  178.8520  141.3050 C   0  0  0  0  0  0  0  0  0  0  0  0
  185.3110  178.1450  142.4330 C   0  0  0  0  0  2  0  0  0  0  0  0
  185.1390  179.0900  143.6100 C   0  0  0  0  0  2  0  0  0  0  0  0
  184.9410  178.5670  145.9970 C   0  0  0  0  0  2  0  0  0  0  0  0
  186.7940  177.5220  144.8080 C   0  0  0  0  0  1  0  0  0  0  0  0
  185.6320  178.4530  144.8660 C   0  0  0  0  0  0  0  0  0  0  0  0
  1 24  1  0  0  0  0
  2  6  1  0  0  0  0
  3  6  1  0  0  0  0
  4  2  1  0  0  0  0
  5  1  1  6  0  0  0
  5  4  1  0  0  0  0
  5  7  1  0  0  0  0
  6  8  1  1  0  0  0
  7  3  1  0  0  0  0
  8  9  1  0  0  0  0
 10  9  1  0  0  0  0
 10 13  1  0  0  0  0
 13 12  1  0  0  0  0
 13 11  2  0  0  0  0
 14 15  2  0  0  0  0
 15  1  1  0  0  0  0
 17 16  1  6  0  0  0
 17 14  1  0  0  0  0
 18 22  1  6  0  0  0
 18 17  1  0  0  0  0
 19 20  3  0  0  0  0
 20 18  1  0  0  0  0
 22 21  1  0  0  0  0
 23 26  1  0  0  0  0
 23 24  2  0  0  0  0
 25 26  2  0  0  0  0
 26 27  1  0  0  0  0
 27 28  1  0  0  0  0
 28 31  1  0  0  0  0
 30 31  1  0  0  0  0
 31 29  2  0  0  0  0
M  END
>  <MODEL>
1

>  <REMARK>
 VINA RESULT:      -7.2      0.000      0.000
  Name = 
  15 active torsions:
  status: ('A' for Active; 'I' for Inactive)
    1  A    between atoms: C_1  and  N_3
    2  A    between atoms: C_1  and  C_21
    3  A    between atoms: N_3  and  C_31
    4  A    between atoms: C_5  and  C_10
    5  A    between atoms: C_5  and  C_20
    6  A    between atoms: C_14  and  C_20
    7  A    between atoms: C_17  and  C_20
    8  A    between atoms: C_18  and  N_28
    9  A    between atoms: N_19  and  N_28
   10  A    between atoms: C_22  and  C_23
   11  A    between atoms: C_22  and  C_29
   12  A    between atoms: C_24  and  N_28
   13  A    between atoms: C_25  and  C_26
   14  A    between atoms: C_26  and  C_29
   15  A    between atoms: C_27  and  C_31
                            x       y       z     vdW  Elec       q    Type
                         _______ _______ _______ _____ _____    ______ ____

>  <TORSDO>
F 15

$$$$
=
 OpenBabel10222415313D

 31 31  0  0  1  0  0  0  0  0999 V2000
  189.2770  177.8390  140.8460 N   0  0  0  0  0  0  0  0  0  0  0  0
  190.4870  176.6400  137.4320 C   0  0  0  0  0  2  0  0  0  0  0  0
  192.4580  176.9640  138.9340 C   0  0  0  0  0  2  0  0  0  0  0  0
  189.5370  176.8010  138.6160 C   0  0  0  0  0  2  0  0  0  0  0  0
  190.1770  177.6750  139.6960 C   0  0  2  0  0  3  0  0  0  0  0  0
  191.8160  176.0470  137.8990 C   0  0  2  0  0  3  0  0  0  0  0  0
  191.5330  177.1200  140.1390 C   0  0  0  0  0  2  0  0  0  0  0  0
  192.7570  175.8730  136.7230 C   0  0  0  0  0  2  0  0  0  0  0  0
  194.1340  175.9420  137.1770 N   0  0  0  0  0  2  0  0  0  0  0  0
  194.6480  174.5840  137.1550 C   0  0  0  0  0  2  0  0  0  0  0  0
  195.5260  175.1740  139.2870 O   0  0  0  0  0  0  0  0  0  0  0  0
  195.4490  172.8930  138.8470 N   0  0  0  0  0  1  0  0  0  0  0  0
  195.2400  174.2520  138.4790 C   0  0  0  0  0  0  0  0  0  0  0  0
  190.1120  178.7510  142.8800 C   0  0  0  0  0  3  0  0  0  0  0  0
  189.7190  177.7330  142.1810 N   0  0  0  0  0  0  0  0  0  0  0  0
  191.9940  178.7360  144.3950 N   0  0  0  0  0  1  0  0  0  0  0  0
  190.5500  178.5770  144.2950 C   0  0  2  0  0  3  0  0  0  0  0  0
  190.0990  177.2150  144.8410 C   0  0  1  0  0  3  0  0  0  0  0  0
  191.8110  176.2170  146.6430 C   0  0  0  0  0  3  0  0  0  0  0  0
  191.0410  176.6710  145.8330 C   0  0  0  0  0  0  0  0  0  0  0  0
  188.7700  177.8860  146.7100 O   0  0  0  0  0  1  0  0  0  0  0  0
  188.7060  177.3000  145.4460 C   0  0  0  0  0  2  0  0  0  0  0  0
  187.1140  178.6200  141.6160 C   0  0  0  0  0  3  0  0  0  0  0  0
  187.8990  178.1680  140.6390 C   0  0  0  0  0  3  0  0  0  0  0  0
  185.3460  179.4180  140.2820 O   0  0  0  0  0  0  0  0  0  0  0  0
  185.7000  178.9480  141.3950 C   0  0  0  0  0  0  0  0  0  0  0  0
  184.6680  178.7160  142.4490 C   0  0  0  0  0  2  0  0  0  0  0  0
  185.3300  178.2280  143.7260 C   0  0  0  0  0  2  0  0  0  0  0  0
  183.3020  179.0810  144.8070 C   0  0  0  0  0  2  0  0  0  0  0  0
  185.1820  178.5770  146.2730 C   0  0  0  0  0  1  0  0  0  0  0  0
  184.5740  178.7070  144.9200 C   0  0  0  0  0  0  0  0  0  0  0  0
  1 15  1  0  0  0  0
  2  6  1  0  0  0  0
  2  4  1  0  0  0  0
  3  7  1  0  0  0  0
  4  5  1  0  0  0  0
  5  7  1  0  0  0  0
  5  1  1  1  0  0  0
  6  8  1  6  0  0  0
  6  3  1  0  0  0  0
  8  9  1  0  0  0  0
 10  9  1  0  0  0  0
 10 13  1  0  0  0  0
 13 12  1  0  0  0  0
 13 11  2  0  0  0  0
 14 17  1  0  0  0  0
 15 14  2  0  0  0  0
 17 16  1  6  0  0  0
 17 18  1  0  0  0  0
 18 22  1  1  0  0  0
 18 20  1  0  0  0  0
 20 19  3  0  0  0  0
 22 21  1  0  0  0  0
 24  1  1  0  0  0  0
 24 23  2  0  0  0  0
 25 26  2  0  0  0  0
 26 23  1  0  0  0  0
 26 27  1  0  0  0  0
 27 28  1  0  0  0  0
 28 31  1  0  0  0  0
 29 31  2  0  0  0  0
 31 30  1  0  0  0  0
M  END
>  <MODEL>
2

>  <REMARK>
 VINA RESULT:      -7.0      2.103      7.156
  Name = 
  15 active torsions:
  status: ('A' for Active; 'I' for Inactive)
    1  A    between atoms: C_1  and  N_3
    2  A    between atoms: C_1  and  C_21
    3  A    between atoms: N_3  and  C_31
    4  A    between atoms: C_5  and  C_10
    5  A    between atoms: C_5  and  C_20
    6  A    between atoms: C_14  and  C_20
    7  A    between atoms: C_17  and  C_20
    8  A    between atoms: C_18  and  N_28
    9  A    between atoms: N_19  and  N_28
   10  A    between atoms: C_22  and  C_23
   11  A    between atoms: C_22  and  C_29
   12  A    between atoms: C_24  and  N_28
   13  A    between atoms: C_25  and  C_26
   14  A    between atoms: C_26  and  C_29
   15  A    between atoms: C_27  and  C_31
                            x       y       z     vdW  Elec       q    Type
                         _______ _______ _______ _____ _____    ______ ____

>  <TORSDO>
F 15

$$$$
=
 OpenBabel10222415313D

 31 31  0  0  1  0  0  0  0  0999 V2000
  185.9650  178.2160  142.1860 N   0  0  0  0  0  0  0  0  0  0  0  0
  188.9830  176.0540  143.0700 C   0  0  0  0  0  2  0  0  0  0  0  0
  189.7720  178.1550  141.9700 C   0  0  0  0  0  2  0  0  0  0  0  0
  187.5730  176.6270  143.1920 C   0  0  0  0  0  2  0  0  0  0  0  0
  187.3180  177.6510  142.0830 C   0  0  2  0  0  3  0  0  0  0  0  0
  190.0160  177.1790  143.1160 C   0  0  2  0  0  3  0  0  0  0  0  0
  188.3740  178.7580  142.0860 C   0  0  0  0  0  2  0  0  0  0  0  0
  191.4180  176.6120  143.0090 C   0  0  0  0  0  2  0  0  0  0  0  0
  191.7830  175.9570  144.2530 N   0  0  0  0  0  2  0  0  0  0  0  0
  191.6120  176.9410  145.3070 C   0  0  0  0  0  2  0  0  0  0  0  0
  192.3940  175.1640  146.6830 O   0  0  0  0  0  0  0  0  0  0  0  0
  191.5750  177.0130  147.8280 N   0  0  0  0  0  1  0  0  0  0  0  0
  191.8750  176.3100  146.6280 C   0  0  0  0  0  0  0  0  0  0  0  0
  184.4810  178.2520  140.3260 C   0  0  0  0  0  3  0  0  0  0  0  0
  185.3220  178.8540  141.1070 N   0  0  0  0  0  0  0  0  0  0  0  0
  184.3890  180.3220  139.0810 N   0  0  0  0  0  1  0  0  0  0  0  0
  183.8180  178.9880  139.2110 C   0  0  2  0  0  3  0  0  0  0  0  0
  182.3000  179.0500  139.4270 C   0  0  1  0  0  3  0  0  0  0  0  0
  181.6260  178.8130  142.0080 C   0  0  0  0  0  3  0  0  0  0  0  0
  181.9300  178.9150  140.8450 C   0  0  0  0  0  0  0  0  0  0  0  0
  180.7040  180.0390  137.9490 O   0  0  0  0  0  1  0  0  0  0  0  0
  181.7160  180.3350  138.8620 C   0  0  0  0  0  2  0  0  0  0  0  0
  185.3430  178.9510  144.4110 C   0  0  0  0  0  3  0  0  0  0  0  0
  185.2240  178.0870  143.4050 C   0  0  0  0  0  3  0  0  0  0  0  0
  183.3760  179.1630  145.6880 O   0  0  0  0  0  0  0  0  0  0  0  0
  184.5820  178.8070  145.6600 C   0  0  0  0  0  0  0  0  0  0  0  0
  185.1990  178.2240  146.8890 C   0  0  0  0  0  2  0  0  0  0  0  0
  186.3820  179.0700  147.3280 C   0  0  0  0  0  2  0  0  0  0  0  0
  188.0200  177.9750  148.7870 C   0  0  0  0  0  2  0  0  0  0  0  0
  188.1660  177.4570  146.4100 C   0  0  0  0  0  1  0  0  0  0  0  0
  187.5810  178.2110  147.5530 C   0  0  0  0  0  0  0  0  0  0  0  0
  1 24  1  0  0  0  0
  2  6  1  0  0  0  0
  2  4  1  0  0  0  0
  3  7  1  0  0  0  0
  3  6  1  0  0  0  0
  5  7  1  0  0  0  0
  5  1  1  1  0  0  0
  5  4  1  0  0  0  0
  6  8  1  6  0  0  0
  8  9  1  0  0  0  0
  9 10  1  0  0  0  0
 10 13  1  0  0  0  0
 13 11  2  0  0  0  0
 13 12  1  0  0  0  0
 14 15  2  0  0  0  0
 15  1  1  0  0  0  0
 17 16  1  1  0  0  0
 17 18  1  0  0  0  0
 17 14  1  0  0  0  0
 18 22  1  1  0  0  0
 18 20  1  0  0  0  0
 20 19  3  0  0  0  0
 21 22  1  0  0  0  0
 23 26  1  0  0  0  0
 24 23  2  0  0  0  0
 26 25  2  0  0  0  0
 26 27  1  0  0  0  0
 27 28  1  0  0  0  0
 28 31  1  0  0  0  0
 30 31  1  0  0  0  0
 31 29  2  0  0  0  0
M  END
>  <MODEL>
3

>  <REMARK>
 VINA RESULT:      -6.9      3.896      6.145
  Name = 
  15 active torsions:
  status: ('A' for Active; 'I' for Inactive)
    1  A    between atoms: C_1  and  N_3
    2  A    between atoms: C_1  and  C_21
    3  A    between atoms: N_3  and  C_31
    4  A    between atoms: C_5  and  C_10
    5  A    between atoms: C_5  and  C_20
    6  A    between atoms: C_14  and  C_20
    7  A    between atoms: C_17  and  C_20
    8  A    between atoms: C_18  and  N_28
    9  A    between atoms: N_19  and  N_28
   10  A    between atoms: C_22  and  C_23
   11  A    between atoms: C_22  and  C_29
   12  A    between atoms: C_24  and  N_28
   13  A    between atoms: C_25  and  C_26
   14  A    between atoms: C_26  and  C_29
   15  A    between atoms: C_27  and  C_31
                            x       y       z     vdW  Elec       q    Type
                         _______ _______ _______ _____ _____    ______ ____

>  <TORSDO>
F 15

$$$$
=
 OpenBabel10222415313D

 31 31  0  0  1  0  0  0  0  0999 V2000
  189.9890  177.6980  141.0850 N   0  0  0  0  0  0  0  0  0  0  0  0
  190.8200  176.2110  137.6700 C   0  0  0  0  0  2  0  0  0  0  0  0
  192.9300  176.9880  138.7630 C   0  0  0  0  0  2  0  0  0  0  0  0
  190.0520  176.4080  138.9740 C   0  0  0  0  0  2  0  0  0  0  0  0
  190.7140  177.4970  139.8220 C   0  0  2  0  0  3  0  0  0  0  0  0
  192.2790  175.8640  137.9640 C   0  0  2  0  0  3  0  0  0  0  0  0
  192.1900  177.1860  140.0840 C   0  0  0  0  0  2  0  0  0  0  0  0
  193.0410  175.6540  136.6700 C   0  0  0  0  0  2  0  0  0  0  0  0
  194.4690  175.6620  136.9310 N   0  0  0  0  0  2  0  0  0  0  0  0
  194.8590  174.2810  137.1540 C   0  0  0  0  0  2  0  0  0  0  0  0
  195.7290  173.5710  139.2530 O   0  0  0  0  0  0  0  0  0  0  0  0
  197.1670  174.8780  137.9790 N   0  0  0  0  0  1  0  0  0  0  0  0
  195.9220  174.2240  138.1950 C   0  0  0  0  0  0  0  0  0  0  0  0
  190.7250  177.9710  143.3320 C   0  0  0  0  0  3  0  0  0  0  0  0
  190.4600  177.2070  142.3190 N   0  0  0  0  0  0  0  0  0  0  0  0
  191.4970  175.9730  144.4510 N   0  0  0  0  0  1  0  0  0  0  0  0
  191.2020  177.3890  144.6190 C   0  0  2  0  0  3  0  0  0  0  0  0
  190.1710  177.6160  145.7340 C   0  0  1  0  0  3  0  0  0  0  0  0
  187.6640  177.1730  144.9020 C   0  0  0  0  0  3  0  0  0  0  0  0
  188.7930  177.3760  145.2780 C   0  0  0  0  0  0  0  0  0  0  0  0
  191.7050  177.1000  147.4920 O   0  0  0  0  0  1  0  0  0  0  0  0
  190.4720  176.7470  146.9450 C   0  0  0  0  0  2  0  0  0  0  0  0
  187.5900  177.9140  141.3570 C   0  0  0  0  0  3  0  0  0  0  0  0
  188.7770  178.4610  141.1040 C   0  0  0  0  0  3  0  0  0  0  0  0
  185.8390  179.0560  140.2740 O   0  0  0  0  0  0  0  0  0  0  0  0
  186.3510  178.7040  141.3680 C   0  0  0  0  0  0  0  0  0  0  0  0
  185.6720  179.0770  142.6450 C   0  0  0  0  0  2  0  0  0  0  0  0
  184.3440  178.3480  142.7590 C   0  0  0  0  0  2  0  0  0  0  0  0
  182.2930  178.8600  144.0020 C   0  0  0  0  0  2  0  0  0  0  0  0
  184.3730  178.9080  145.2720 C   0  0  0  0  0  1  0  0  0  0  0  0
  183.6210  178.7730  143.9930 C   0  0  0  0  0  0  0  0  0  0  0  0
  1 24  1  0  0  0  0
  1 15  1  0  0  0  0
  2  6  1  0  0  0  0
  2  4  1  0  0  0  0
  3  7  1  0  0  0  0
  4  5  1  0  0  0  0
  5  7  1  0  0  0  0
  5  1  1  1  0  0  0
  6  8  1  6  0  0  0
  6  3  1  0  0  0  0
  8  9  1  0  0  0  0
  9 10  1  0  0  0  0
 10 13  1  0  0  0  0
 12 13  1  0  0  0  0
 13 11  2  0  0  0  0
 14 17  1  0  0  0  0
 15 14  2  0  0  0  0
 17 16  1  6  0  0  0
 17 18  1  0  0  0  0
 18 20  1  6  0  0  0
 18 22  1  0  0  0  0
 19 20  3  0  0  0  0
 22 21  1  0  0  0  0
 23 26  1  0  0  0  0
 24 23  2  0  0  0  0
 25 26  2  0  0  0  0
 26 27  1  0  0  0  0
 27 28  1  0  0  0  0
 28 31  1  0  0  0  0
 31 29  2  0  0  0  0
 31 30  1  0  0  0  0
M  END
>  <MODEL>
4

>  <REMARK>
 VINA RESULT:      -6.7      2.333      7.361
  Name = 
  15 active torsions:
  status: ('A' for Active; 'I' for Inactive)
    1  A    between atoms: C_1  and  N_3
    2  A    between atoms: C_1  and  C_21
    3  A    between atoms: N_3  and  C_31
    4  A    between atoms: C_5  and  C_10
    5  A    between atoms: C_5  and  C_20
    6  A    between atoms: C_14  and  C_20
    7  A    between atoms: C_17  and  C_20
    8  A    between atoms: C_18  and  N_28
    9  A    between atoms: N_19  and  N_28
   10  A    between atoms: C_22  and  C_23
   11  A    between atoms: C_22  and  C_29
   12  A    between atoms: C_24  and  N_28
   13  A    between atoms: C_25  and  C_26
   14  A    between atoms: C_26  and  C_29
   15  A    between atoms: C_27  and  C_31
                            x       y       z     vdW  Elec       q    Type
                         _______ _______ _______ _____ _____    ______ ____

>  <TORSDO>
F 15

$$$$
=
 OpenBabel10222415313D

 31 31  0  0  1  0  0  0  0  0999 V2000
  185.2000  178.7980  142.0400 N   0  0  0  0  0  0  0  0  0  0  0  0
  182.9050  178.7110  138.9930 C   0  0  0  0  0  2  0  0  0  0  0  0
  181.5430  178.3480  141.0570 C   0  0  0  0  0  2  0  0  0  0  0  0
  184.1130  179.1050  139.8390 C   0  0  0  0  0  2  0  0  0  0  0  0
  184.0450  178.4280  141.2100 C   0  0  2  0  0  3  0  0  0  0  0  0
  181.6110  179.0770  139.7190 C   0  0  2  0  0  3  0  0  0  0  0  0
  182.7320  178.7450  141.9290 C   0  0  0  0  0  2  0  0  0  0  0  0
  180.4090  178.7000  138.8760 C   0  0  0  0  0  2  0  0  0  0  0  0
  179.6450  177.6590  139.5400 N   0  0  0  0  0  2  0  0  0  0  0  0
  179.5440  176.5550  138.6030 C   0  0  0  0  0  2  0  0  0  0  0  0
  180.4430  174.8000  139.9360 O   0  0  0  0  0  0  0  0  0  0  0  0
  181.6970  175.3590  138.0620 N   0  0  0  0  0  1  0  0  0  0  0  0
  180.5770  175.5330  138.9210 C   0  0  0  0  0  0  0  0  0  0  0  0
  187.4720  178.1080  141.8700 C   0  0  0  0  0  3  0  0  0  0  0  0
  186.5070  178.9010  141.5230 N   0  0  0  0  0  0  0  0  0  0  0  0
  188.8230  177.7950  139.8900 N   0  0  0  0  0  1  0  0  0  0  0  0
  188.8300  178.2560  141.2720 C   0  0  2  0  0  3  0  0  0  0  0  0
  189.8770  177.5050  142.1060 C   0  0  1  0  0  3  0  0  0  0  0  0
  190.9200  179.0340  144.0420 C   0  0  0  0  0  3  0  0  0  0  0  0
  190.4540  178.3460  143.1670 C   0  0  0  0  0  0  0  0  0  0  0  0
  190.2950  175.2860  142.8860 O   0  0  0  0  0  1  0  0  0  0  0  0
  189.2920  176.2390  142.7120 C   0  0  0  0  0  2  0  0  0  0  0  0
  185.2870  178.2580  144.4020 C   0  0  0  0  0  3  0  0  0  0  0  0
  185.0180  179.1200  143.4230 C   0  0  0  0  0  3  0  0  0  0  0  0
  183.9600  178.9940  146.2020 O   0  0  0  0  0  0  0  0  0  0  0  0
  185.0910  178.5960  145.8180 C   0  0  0  0  0  0  0  0  0  0  0  0
  186.1920  178.4550  146.8170 C   0  0  0  0  0  2  0  0  0  0  0  0
  187.3970  177.7900  146.1710 C   0  0  0  0  0  2  0  0  0  0  0  0
  189.5920  176.9320  146.8470 C   0  0  0  0  0  2  0  0  0  0  0  0
  188.3620  178.2030  148.5230 C   0  0  0  0  0  1  0  0  0  0  0  0
  188.4670  177.5580  147.1850 C   0  0  0  0  0  0  0  0  0  0  0  0
  1 24  1  0  0  0  0
  2  6  1  0  0  0  0
  2  4  1  0  0  0  0
  3  7  1  0  0  0  0
  4  5  1  0  0  0  0
  5  7  1  0  0  0  0
  5  1  1  1  0  0  0
  6  8  1  6  0  0  0
  6  3  1  0  0  0  0
  8  9  1  0  0  0  0
 10 13  1  0  0  0  0
 10  9  1  0  0  0  0
 12 13  1  0  0  0  0
 13 11  2  0  0  0  0
 15 14  2  0  0  0  0
 15  1  1  0  0  0  0
 17 16  1  6  0  0  0
 17 14  1  0  0  0  0
 17 18  1  0  0  0  0
 18 22  1  1  0  0  0
 18 20  1  0  0  0  0
 20 19  3  0  0  0  0
 22 21  1  0  0  0  0
 23 26  1  0  0  0  0
 24 23  2  0  0  0  0
 26 25  2  0  0  0  0
 26 27  1  0  0  0  0
 28 27  1  0  0  0  0
 28 31  1  0  0  0  0
 29 31  2  0  0  0  0
 31 30  1  0  0  0  0
M  END
>  <MODEL>
5

>  <REMARK>
 VINA RESULT:      -6.7      4.193      8.167
  Name = 
  15 active torsions:
  status: ('A' for Active; 'I' for Inactive)
    1  A    between atoms: C_1  and  N_3
    2  A    between atoms: C_1  and  C_21
    3  A    between atoms: N_3  and  C_31
    4  A    between atoms: C_5  and  C_10
    5  A    between atoms: C_5  and  C_20
    6  A    between atoms: C_14  and  C_20
    7  A    between atoms: C_17  and  C_20
    8  A    between atoms: C_18  and  N_28
    9  A    between atoms: N_19  and  N_28
   10  A    between atoms: C_22  and  C_23
   11  A    between atoms: C_22  and  C_29
   12  A    between atoms: C_24  and  N_28
   13  A    between atoms: C_25  and  C_26
   14  A    between atoms: C_26  and  C_29
   15  A    between atoms: C_27  and  C_31
                            x       y       z     vdW  Elec       q    Type
                         _______ _______ _______ _____ _____    ______ ____

>  <TORSDO>
F 15

$$$$
=
 OpenBabel10222415313D

 31 31  0  0  1  0  0  0  0  0999 V2000
  189.1370  177.8990  141.1330 N   0  0  0  0  0  0  0  0  0  0  0  0
  190.6420  176.8140  137.7980 C   0  0  0  0  0  2  0  0  0  0  0  0
  192.4880  177.3440  139.3990 C   0  0  0  0  0  2  0  0  0  0  0  0
  189.6190  176.8830  138.9290 C   0  0  0  0  0  2  0  0  0  0  0  0
  190.1090  177.8230  140.0330 C   0  0  2  0  0  3  0  0  0  0  0  0
  191.9980  176.3620  138.3400 C   0  0  2  0  0  3  0  0  0  0  0  0
  191.4890  177.4100  140.5520 C   0  0  0  0  0  2  0  0  0  0  0  0
  193.0130  176.2800  137.2170 C   0  0  0  0  0  2  0  0  0  0  0  0
  193.4160  174.8990  137.0140 N   0  0  0  0  0  2  0  0  0  0  0  0
  194.4180  174.6060  138.0220 C   0  0  0  0  0  2  0  0  0  0  0  0
  195.3380  172.6130  138.9420 O   0  0  0  0  0  0  0  0  0  0  0  0
  194.4910  172.4070  136.7880 N   0  0  0  0  0  1  0  0  0  0  0  0
  194.7880  173.1660  137.9540 C   0  0  0  0  0  0  0  0  0  0  0  0
  189.2590  176.8890  143.2850 C   0  0  0  0  0  3  0  0  0  0  0  0
  189.5190  177.8780  142.4900 N   0  0  0  0  0  0  0  0  0  0  0  0
  189.2190  178.1240  145.3620 N   0  0  0  0  0  1  0  0  0  0  0  0
  189.7070  176.9180  144.7070 C   0  0  2  0  0  3  0  0  0  0  0  0
  191.2360  176.8130  144.7990 C   0  0  1  0  0  3  0  0  0  0  0  0
  192.0670  176.0700  147.2340 C   0  0  0  0  0  3  0  0  0  0  0  0
  191.6890  176.4060  146.1390 C   0  0  0  0  0  0  0  0  0  0  0  0
  192.1360  174.6430  144.3590 O   0  0  0  0  0  1  0  0  0  0  0  0
  191.7840  175.8510  143.7560 C   0  0  0  0  0  2  0  0  0  0  0  0
  186.9560  178.8800  141.5320 C   0  0  0  0  0  3  0  0  0  0  0  0
  187.7410  178.0480  140.8490 C   0  0  0  0  0  3  0  0  0  0  0  0
  185.1690  179.4170  140.0960 O   0  0  0  0  0  0  0  0  0  0  0  0
  185.5240  179.0220  141.2370 C   0  0  0  0  0  0  0  0  0  0  0  0
  184.4790  178.6860  142.2500 C   0  0  0  0  0  2  0  0  0  0  0  0
  185.1310  178.1170  143.4990 C   0  0  0  0  0  2  0  0  0  0  0  0
  183.2700  178.9540  144.8590 C   0  0  0  0  0  2  0  0  0  0  0  0
  185.4860  179.0630  145.8680 C   0  0  0  0  0  1  0  0  0  0  0  0
  184.5820  178.7790  144.7190 C   0  0  0  0  0  0  0  0  0  0  0  0
  1 15  1  0  0  0  0
  2  6  1  0  0  0  0
  2  4  1  0  0  0  0
  3  7  1  0  0  0  0
  4  5  1  0  0  0  0
  5  7  1  0  0  0  0
  5  1  1  1  0  0  0
  6  8  1  6  0  0  0
  6  3  1  0  0  0  0
  9  8  1  0  0  0  0
  9 10  1  0  0  0  0
 12 13  1  0  0  0  0
 13 10  1  0  0  0  0
 13 11  2  0  0  0  0
 14 17  1  0  0  0  0
 15 14  2  0  0  0  0
 17 18  1  0  0  0  0
 17 16  1  6  0  0  0
 18 22  1  6  0  0  0
 18 20  1  0  0  0  0
 20 19  3  0  0  0  0
 22 21  1  0  0  0  0
 24  1  1  0  0  0  0
 24 23  2  0  0  0  0
 25 26  2  0  0  0  0
 26 23  1  0  0  0  0
 26 27  1  0  0  0  0
 27 28  1  0  0  0  0
 28 31  1  0  0  0  0
 31 29  2  0  0  0  0
 31 30  1  0  0  0  0
M  END
>  <MODEL>
6

>  <REMARK>
 VINA RESULT:      -6.7      2.388      7.036
  Name = 
  15 active torsions:
  status: ('A' for Active; 'I' for Inactive)
    1  A    between atoms: C_1  and  N_3
    2  A    between atoms: C_1  and  C_21
    3  A    between atoms: N_3  and  C_31
    4  A    between atoms: C_5  and  C_10
    5  A    between atoms: C_5  and  C_20
    6  A    between atoms: C_14  and  C_20
    7  A    between atoms: C_17  and  C_20
    8  A    between atoms: C_18  and  N_28
    9  A    between atoms: N_19  and  N_28
   10  A    between atoms: C_22  and  C_23
   11  A    between atoms: C_22  and  C_29
   12  A    between atoms: C_24  and  N_28
   13  A    between atoms: C_25  and  C_26
   14  A    between atoms: C_26  and  C_29
   15  A    between atoms: C_27  and  C_31
                            x       y       z     vdW  Elec       q    Type
                         _______ _______ _______ _____ _____    ______ ____

>  <TORSDO>
F 15

$$$$
=
 OpenBabel10222415313D

 31 31  0  0  1  0  0  0  0  0999 V2000
  185.4180  179.0830  141.6020 N   0  0  0  0  0  0  0  0  0  0  0  0
  182.2260  177.6230  140.1050 C   0  0  0  0  0  2  0  0  0  0  0  0
  183.6840  178.4720  138.2600 C   0  0  0  0  0  2  0  0  0  0  0  0
  183.3650  177.7940  141.1070 C   0  0  0  0  0  2  0  0  0  0  0  0
  184.3130  178.9060  140.6490 C   0  0  2  0  0  3  0  0  0  0  0  0
  182.7870  177.3250  138.7150 C   0  0  2  0  0  3  0  0  0  0  0  0
  184.8440  178.6460  139.2380 C   0  0  0  0  0  2  0  0  0  0  0  0
  181.6580  177.1400  137.7200 C   0  0  0  0  0  2  0  0  0  0  0  0
  180.4610  177.8060  138.2020 N   0  0  0  0  0  2  0  0  0  0  0  0
  180.1310  178.8280  137.2240 C   0  0  0  0  0  2  0  0  0  0  0  0
  181.0770  181.0050  137.0540 O   0  0  0  0  0  0  0  0  0  0  0  0
  180.0700  180.5220  139.0920 N   0  0  0  0  0  1  0  0  0  0  0  0
  180.4670  180.1700  137.7720 C   0  0  0  0  0  0  0  0  0  0  0  0
  187.6020  178.1370  141.6360 C   0  0  0  0  0  3  0  0  0  0  0  0
  186.7720  179.0390  141.2130 N   0  0  0  0  0  0  0  0  0  0  0  0
  189.1230  177.4630  139.8830 N   0  0  0  0  0  1  0  0  0  0  0  0
  189.0190  178.1310  141.1720 C   0  0  2  0  0  3  0  0  0  0  0  0
  189.9310  177.4740  142.2170 C   0  0  1  0  0  3  0  0  0  0  0  0
  190.7980  179.2230  144.0510 C   0  0  0  0  0  3  0  0  0  0  0  0
  190.4060  178.4320  143.2280 C   0  0  0  0  0  0  0  0  0  0  0  0
  190.0690  175.1940  142.9190 O   0  0  0  0  0  1  0  0  0  0  0  0
  189.2320  176.3090  142.9010 C   0  0  0  0  0  2  0  0  0  0  0  0
  185.2330  178.4360  143.9300 C   0  0  0  0  0  3  0  0  0  0  0  0
  185.1420  179.3630  142.9790 C   0  0  0  0  0  3  0  0  0  0  0  0
  183.7820  179.0990  145.6620 O   0  0  0  0  0  0  0  0  0  0  0  0
  184.9410  178.7310  145.3400 C   0  0  0  0  0  0  0  0  0  0  0  0
  185.9810  178.5810  146.4020 C   0  0  0  0  0  2  0  0  0  0  0  0
  187.2050  177.8800  145.8360 C   0  0  0  0  0  2  0  0  0  0  0  0
  189.3750  177.0640  146.6330 C   0  0  0  0  0  2  0  0  0  0  0  0
  187.9360  178.1170  148.2940 C   0  0  0  0  0  1  0  0  0  0  0  0
  188.1930  177.6050  146.9200 C   0  0  0  0  0  0  0  0  0  0  0  0
  1 24  1  0  0  0  0
  2  4  1  0  0  0  0
  3  6  1  0  0  0  0
  3  7  1  0  0  0  0
  5  4  1  0  0  0  0
  5  1  1  1  0  0  0
  6  8  1  6  0  0  0
  6  2  1  0  0  0  0
  7  5  1  0  0  0  0
  8  9  1  0  0  0  0
 10 13  1  0  0  0  0
 10  9  1  0  0  0  0
 11 13  2  0  0  0  0
 13 12  1  0  0  0  0
 15  1  1  0  0  0  0
 15 14  2  0  0  0  0
 17 16  1  6  0  0  0
 17 14  1  0  0  0  0
 17 18  1  0  0  0  0
 18 22  1  1  0  0  0
 18 20  1  0  0  0  0
 20 19  3  0  0  0  0
 22 21  1  0  0  0  0
 23 26  1  0  0  0  0
 24 23  2  0  0  0  0
 26 25  2  0  0  0  0
 26 27  1  0  0  0  0
 28 27  1  0  0  0  0
 28 31  1  0  0  0  0
 29 31  2  0  0  0  0
 31 30  1  0  0  0  0
M  END
>  <MODEL>
7

>  <REMARK>
 VINA RESULT:      -6.6      4.164      8.192
  Name = 
  15 active torsions:
  status: ('A' for Active; 'I' for Inactive)
    1  A    between atoms: C_1  and  N_3
    2  A    between atoms: C_1  and  C_21
    3  A    between atoms: N_3  and  C_31
    4  A    between atoms: C_5  and  C_10
    5  A    between atoms: C_5  and  C_20
    6  A    between atoms: C_14  and  C_20
    7  A    between atoms: C_17  and  C_20
    8  A    between atoms: C_18  and  N_28
    9  A    between atoms: N_19  and  N_28
   10  A    between atoms: C_22  and  C_23
   11  A    between atoms: C_22  and  C_29
   12  A    between atoms: C_24  and  N_28
   13  A    between atoms: C_25  and  C_26
   14  A    between atoms: C_26  and  C_29
   15  A    between atoms: C_27  and  C_31
                            x       y       z     vdW  Elec       q    Type
                         _______ _______ _______ _____ _____    ______ ____

>  <TORSDO>
F 15

$$$$
=
 OpenBabel10222415313D

 31 31  0  0  1  0  0  0  0  0999 V2000
  188.9080  177.4800  141.8640 N   0  0  0  0  0  0  0  0  0  0  0  0
  185.8520  178.0510  144.0770 C   0  0  0  0  0  2  0  0  0  0  0  0
  185.5880  179.3550  141.9600 C   0  0  0  0  0  2  0  0  0  0  0  0
  187.0520  177.3110  143.4910 C   0  0  0  0  0  2  0  0  0  0  0  0
  187.7500  178.1780  142.4410 C   0  0  2  0  0  3  0  0  0  0  0  0
  184.8830  178.4490  142.9640 C   0  0  2  0  0  3  0  0  0  0  0  0
  186.7800  178.6250  141.3450 C   0  0  0  0  0  2  0  0  0  0  0  0
  183.6830  179.1710  143.5440 C   0  0  0  0  0  2  0  0  0  0  0  0
  182.4700  178.7310  142.8770 N   0  0  0  0  0  2  0  0  0  0  0  0
  181.4270  178.7020  143.8860 C   0  0  0  0  0  2  0  0  0  0  0  0
  179.1410  178.4220  143.2860 O   0  0  0  0  0  0  0  0  0  0  0  0
  180.0490  180.4990  142.7760 N   0  0  0  0  0  1  0  0  0  0  0  0
  180.1470  179.1790  143.2960 C   0  0  0  0  0  0  0  0  0  0  0  0
  190.6250  177.5460  143.5100 C   0  0  0  0  0  3  0  0  0  0  0  0
  189.9100  176.8850  142.6560 N   0  0  0  0  0  0  0  0  0  0  0  0
  191.6870  175.4340  144.0130 N   0  0  0  0  0  1  0  0  0  0  0  0
  191.6580  176.8550  144.3330 C   0  0  2  0  0  3  0  0  0  0  0  0
  191.4060  177.0840  145.8300 C   0  0  1  0  0  3  0  0  0  0  0  0
  188.7970  177.2300  146.4180 C   0  0  0  0  0  3  0  0  0  0  0  0
  189.9710  177.1630  146.1490 C   0  0  0  0  0  0  0  0  0  0  0  0
  192.1550  176.4170  147.9980 O   0  0  0  0  0  1  0  0  0  0  0  0
  192.0610  176.0000  146.6710 C   0  0  0  0  0  2  0  0  0  0  0  0
  190.0970  176.7970  139.8650 C   0  0  0  0  0  3  0  0  0  0  0  0
  189.0270  177.3390  140.4440 C   0  0  0  0  0  3  0  0  0  0  0  0
  190.8370  175.6800  137.9290 O   0  0  0  0  0  0  0  0  0  0  0  0
  190.2130  176.6620  138.4060 C   0  0  0  0  0  0  0  0  0  0  0  0
  189.5860  177.6490  137.4770 C   0  0  0  0  0  2  0  0  0  0  0  0
  188.6110  176.9440  136.5500 C   0  0  0  0  0  2  0  0  0  0  0  0
  186.9380  178.2370  135.3080 C   0  0  0  0  0  2  0  0  0  0  0  0
  186.3970  177.7040  137.6240 C   0  0  0  0  0  1  0  0  0  0  0  0
  187.3310  177.7070  136.4640 C   0  0  0  0  0  0  0  0  0  0  0  0
  1 15  1  0  0  0  0
  3  6  1  0  0  0  0
  4  2  1  0  0  0  0
  5  1  1  6  0  0  0
  5  4  1  0  0  0  0
  6  8  1  1  0  0  0
  6  2  1  0  0  0  0
  7  3  1  0  0  0  0
  7  5  1  0  0  0  0
  9  8  1  0  0  0  0
  9 10  1  0  0  0  0
 11 13  2  0  0  0  0
 12 13  1  0  0  0  0
 13 10  1  0  0  0  0
 14 17  1  0  0  0  0
 15 14  2  0  0  0  0
 17 16  1  1  0  0  0
 17 18  1  0  0  0  0
 18 20  1  6  0  0  0
 18 22  1  0  0  0  0
 20 19  3  0  0  0  0
 22 21  1  0  0  0  0
 23 24  2  0  0  0  0
 24  1  1  0  0  0  0
 25 26  2  0  0  0  0
 26 23  1  0  0  0  0
 27 26  1  0  0  0  0
 28 27  1  0  0  0  0
 29 31  2  0  0  0  0
 31 28  1  0  0  0  0
 31 30  1  0  0  0  0
M  END
>  <MODEL>
8

>  <REMARK>
 VINA RESULT:      -6.5      3.458      7.686
  Name = 
  15 active torsions:
  status: ('A' for Active; 'I' for Inactive)
    1  A    between atoms: C_1  and  N_3
    2  A    between atoms: C_1  and  C_21
    3  A    between atoms: N_3  and  C_31
    4  A    between atoms: C_5  and  C_10
    5  A    between atoms: C_5  and  C_20
    6  A    between atoms: C_14  and  C_20
    7  A    between atoms: C_17  and  C_20
    8  A    between atoms: C_18  and  N_28
    9  A    between atoms: N_19  and  N_28
   10  A    between atoms: C_22  and  C_23
   11  A    between atoms: C_22  and  C_29
   12  A    between atoms: C_24  and  N_28
   13  A    between atoms: C_25  and  C_26
   14  A    between atoms: C_26  and  C_29
   15  A    between atoms: C_27  and  C_31
                            x       y       z     vdW  Elec       q    Type
                         _______ _______ _______ _____ _____    ______ ____

>  <TORSDO>
F 15

$$$$
=
 OpenBabel10222415313D

 31 31  0  0  1  0  0  0  0  0999 V2000
  187.4010  178.3490  141.4040 N   0  0  0  0  0  0  0  0  0  0  0  0
  183.5970  178.5870  141.6000 C   0  0  0  0  0  2  0  0  0  0  0  0
  184.5270  178.3730  143.9110 C   0  0  0  0  0  2  0  0  0  0  0  0
  184.9980  178.8160  141.0390 C   0  0  0  0  0  2  0  0  0  0  0  0
  186.0440  178.1370  141.9280 C   0  0  2  0  0  3  0  0  0  0  0  0
  183.5130  179.1040  143.0360 C   0  0  2  0  0  3  0  0  0  0  0  0
  185.9390  178.6080  143.3800 C   0  0  0  0  0  2  0  0  0  0  0  0
  182.1180  178.8910  143.5910 C   0  0  0  0  0  2  0  0  0  0  0  0
  181.1880  179.8070  142.9560 N   0  0  0  0  0  2  0  0  0  0  0  0
  179.8840  179.1710  142.9950 C   0  0  0  0  0  2  0  0  0  0  0  0
  179.3130  177.0670  142.0390 O   0  0  0  0  0  0  0  0  0  0  0  0
  180.0860  178.6600  140.5340 N   0  0  0  0  0  1  0  0  0  0  0  0
  179.7510  178.2320  141.8490 C   0  0  0  0  0  0  0  0  0  0  0  0
  188.7780  178.2860  139.4640 C   0  0  0  0  0  3  0  0  0  0  0  0
  187.6600  178.5980  140.0410 N   0  0  0  0  0  0  0  0  0  0  0  0
  187.7440  179.0210  137.4060 N   0  0  0  0  0  1  0  0  0  0  0  0
  188.9850  178.5590  138.0130 C   0  0  2  0  0  3  0  0  0  0  0  0
  189.5270  177.3140  137.2970 C   0  0  1  0  0  3  0  0  0  0  0  0
  191.7660  176.3860  138.4360 C   0  0  0  0  0  3  0  0  0  0  0  0
  190.7580  176.8020  137.9190 C   0  0  0  0  0  0  0  0  0  0  0  0
  188.7890  175.3080  136.2270 O   0  0  0  0  0  1  0  0  0  0  0  0
  188.4800  176.2110  137.2440 C   0  0  0  0  0  2  0  0  0  0  0  0
  189.0070  177.2460  142.8470 C   0  0  0  0  0  3  0  0  0  0  0  0
  188.5220  178.3570  142.2950 C   0  0  0  0  0  3  0  0  0  0  0  0
  191.1930  176.6250  143.4600 O   0  0  0  0  0  0  0  0  0  0  0  0
  190.1530  177.2650  143.7650 C   0  0  0  0  0  0  0  0  0  0  0  0
  190.1240  178.0460  145.0380 C   0  0  0  0  0  2  0  0  0  0  0  0
  189.8460  177.1190  146.2090 C   0  0  0  0  0  2  0  0  0  0  0  0
  187.4570  177.5460  146.5560 C   0  0  0  0  0  2  0  0  0  0  0  0
  188.9330  178.0590  148.4260 C   0  0  0  0  0  1  0  0  0  0  0  0
  188.7020  177.6320  147.0180 C   0  0  0  0  0  0  0  0  0  0  0  0
  1 24  1  0  0  0  0
  2  6  1  0  0  0  0
  4  2  1  0  0  0  0
  4  5  1  0  0  0  0
  5  1  1  6  0  0  0
  5  7  1  0  0  0  0
  6  8  1  1  0  0  0
  6  3  1  0  0  0  0
  7  3  1  0  0  0  0
  9 10  1  0  0  0  0
  9  8  1  0  0  0  0
 12 13  1  0  0  0  0
 13 11  2  0  0  0  0
 13 10  1  0  0  0  0
 14 15  2  0  0  0  0
 15  1  1  0  0  0  0
 17 16  1  6  0  0  0
 17 14  1  0  0  0  0
 18 22  1  1  0  0  0
 18 20  1  0  0  0  0
 18 17  1  0  0  0  0
 20 19  3  0  0  0  0
 21 22  1  0  0  0  0
 23 26  1  0  0  0  0
 24 23  2  0  0  0  0
 25 26  2  0  0  0  0
 26 27  1  0  0  0  0
 27 28  1  0  0  0  0
 28 31  1  0  0  0  0
 29 31  2  0  0  0  0
 31 30  1  0  0  0  0
M  END
>  <MODEL>
9

>  <REMARK>
 VINA RESULT:      -6.4      3.643      6.520
  Name = 
  15 active torsions:
  status: ('A' for Active; 'I' for Inactive)
    1  A    between atoms: C_1  and  N_3
    2  A    between atoms: C_1  and  C_21
    3  A    between atoms: N_3  and  C_31
    4  A    between atoms: C_5  and  C_10
    5  A    between atoms: C_5  and  C_20
    6  A    between atoms: C_14  and  C_20
    7  A    between atoms: C_17  and  C_20
    8  A    between atoms: C_18  and  N_28
    9  A    between atoms: N_19  and  N_28
   10  A    between atoms: C_22  and  C_23
   11  A    between atoms: C_22  and  C_29
   12  A    between atoms: C_24  and  N_28
   13  A    between atoms: C_25  and  C_26
   14  A    between atoms: C_26  and  C_29
   15  A    between atoms: C_27  and  C_31
                            x       y       z     vdW  Elec       q    Type
                         _______ _______ _______ _____ _____    ______ ____

>  <TORSDO>
F 15

$$$$
