=
 OpenBabel10222416033D

 32 35  0  0  1  0  0  0  0  0999 V2000
  189.9150  177.6660  144.3130 N   0  0  0  0  0  0  0  0  0  0  0  0
  191.6300  176.2980  143.4870 C   0  0  0  0  0  2  0  0  0  0  0  0
  192.0800  176.4650  138.2170 C   0  0  0  0  0  0  0  0  0  0  0  0
  189.5380  176.7490  137.9830 C   0  0  0  0  0  0  0  0  0  0  0  0
  189.6860  178.1770  140.3690 N   0  0  0  0  0  0  0  0  0  0  0  0
  190.9960  177.0280  144.6180 C   0  0  0  0  0  0  0  0  0  0  0  0
  189.2910  176.2290  136.7840 C   0  0  0  0  0  3  0  0  0  0  0  0
  190.7180  177.2550  140.0920 C   0  0  1  0  0  3  0  0  0  0  0  0
  189.6330  177.5180  142.8940 C   0  0  1  0  0  3  0  0  0  0  0  0
  191.1280  176.4770  141.0580 N   0  0  0  0  0  2  0  0  0  0  0  0
  188.5330  178.0290  139.8240 C   0  0  0  0  0  0  0  0  0  0  0  0
  193.2200  176.6660  139.0530 N   0  0  0  0  0  1  0  0  0  0  0  0
  191.4990  175.4950  135.8600 C   0  0  0  0  0  3  0  0  0  0  0  0
  192.3460  175.9430  136.9140 N   0  0  0  0  0  0  0  0  0  0  0  0
  188.4110  177.2770  138.6460 O   0  0  0  0  0  0  0  0  0  0  0  0
  190.1830  175.6110  135.8110 C   0  0  0  0  0  3  0  0  0  0  0  0
  190.5530  176.3760  142.4200 C   0  0  1  0  0  3  0  0  0  0  0  0
  188.2080  177.2540  142.5720 N   0  0  0  0  0  0  0  0  0  0  0  0
  187.5820  178.5040  142.1130 C   0  0  0  0  0  2  0  0  0  0  0  0
  190.8580  176.7950  138.6920 C   0  0  1  0  0  3  0  0  0  0  0  0
  187.3370  178.5190  140.5790 C   0  0  0  0  0  2  0  0  0  0  0  0
  192.6040  176.0870  147.8980 C   0  0  0  0  0  1  0  0  0  0  0  0
  191.5440  177.0010  145.9430 N   0  0  0  0  0  0  0  0  0  0  0  0
  192.1610  174.7660  145.8830 F   0  0  0  0  0  0  0  0  0  0  0  0
  192.0750  175.9640  146.5160 C   0  0  0  0  0  0  0  0  0  0  0  0
  187.4460  176.7690  143.7200 C   0  0  0  0  0  2  0  0  0  0  0  0
  186.1720  177.5780  143.8730 C   0  0  0  0  0  2  0  0  0  0  0  0
  186.0890  178.3030  145.5360 S   0  0  0  0  0  0  0  0  0  0  0  0
  188.8200  176.4790  147.8030 N   0  0  0  0  0  2  0  0  0  0  0  0
  187.2700  177.1510  146.1700 N   0  0  0  0  0  2  0  0  0  0  0  0
  187.7070  178.5610  148.2400 C   0  0  0  0  0  1  0  0  0  0  0  0
  187.9600  177.3540  147.4040 C   0  0  0  0  0  0  0  0  0  0  0  0
  1  6  2  0  0  0  0
  2  6  1  0  0  0  0
  3 20  1  0  0  0  0
  3 12  1  0  0  0  0
  4 15  1  0  0  0  0
  6 23  1  0  0  0  0
  7  4  2  0  0  0  0
  8  5  1  1  0  0  0
  8 10  1  0  0  0  0
  9  1  1  1  0  0  0
 10 17  1  0  0  0  0
 11  5  2  0  0  0  0
 11 21  1  0  0  0  0
 13 14  1  0  0  0  0
 14  3  2  0  0  0  0
 15 11  1  0  0  0  0
 16 13  2  0  0  0  0
 16  7  1  0  0  0  0
 17  9  1  0  0  0  0
 17  2  1  1  0  0  0
 18  9  1  0  0  0  0
 18 26  1  0  0  0  0
 19 18  1  0  0  0  0
 20  4  1  1  0  0  0
 20  8  1  0  0  0  0
 21 19  1  0  0  0  0
 23 25  2  0  0  0  0
 24 25  1  0  0  0  0
 25 22  1  0  0  0  0
 26 27  1  0  0  0  0
 27 28  1  0  0  0  0
 28 30  1  0  0  0  0
 30 32  1  0  0  0  0
 32 29  2  0  0  0  0
 32 31  1  0  0  0  0
M  END
>  <MODEL>
1

>  <REMARK>
 VINA RESULT:      -8.4      0.000      0.000
  Name = 
  5 active torsions:
  status: ('A' for Active; 'I' for Inactive)
    1  A    between atoms: S_5  and  N_15
    2  A    between atoms: S_5  and  C_18
    3  A    between atoms: C_9  and  N_10
    4  A    between atoms: C_13  and  C_18
    5  A    between atoms: C_13  and  N_29
                            x       y       z     vdW  Elec       q    Type
                         _______ _______ _______ _____ _____    ______ ____

>  <TORSDO>
F 5

$$$$
=
 OpenBabel10222416033D

 32 35  0  0  1  0  0  0  0  0999 V2000
  187.3090  178.8050  140.2780 N   0  0  0  0  0  0  0  0  0  0  0  0
  186.3180  178.3050  142.3430 C   0  0  0  0  0  2  0  0  0  0  0  0
  189.8400  177.4820  146.2050 C   0  0  0  0  0  0  0  0  0  0  0  0
  191.4730  176.4250  144.5270 C   0  0  0  0  0  0  0  0  0  0  0  0
  190.4300  178.2380  142.6870 N   0  0  0  0  0  0  0  0  0  0  0  0
  186.2180  178.8650  140.9670 C   0  0  0  0  0  0  0  0  0  0  0  0
  192.1840  175.5970  145.2860 C   0  0  0  0  0  3  0  0  0  0  0  0
  189.6320  177.9030  143.8030 C   0  0  1  0  0  3  0  0  0  0  0  0
  188.3740  178.2240  141.0800 C   0  0  1  0  0  3  0  0  0  0  0  0
  188.3630  177.6650  143.6050 N   0  0  0  0  0  2  0  0  0  0  0  0
  191.3420  177.4270  142.2870 C   0  0  0  0  0  0  0  0  0  0  0  0
  188.7590  178.3960  146.3870 N   0  0  0  0  0  1  0  0  0  0  0  0
  191.3140  175.8490  147.6200 C   0  0  0  0  0  3  0  0  0  0  0  0
  190.3550  176.8780  147.3940 N   0  0  0  0  0  2  0  0  0  0  0  0
  191.8580  176.4700  143.1710 O   0  0  0  0  0  0  0  0  0  0  0  0
  192.0930  175.2930  146.7090 C   0  0  0  0  0  3  0  0  0  0  0  0
  187.6640  177.6050  142.3000 C   0  0  1  0  0  3  0  0  0  0  0  0
  189.2150  177.2330  140.3630 N   0  0  0  0  0  0  0  0  0  0  0  0
  190.4740  177.8780  139.9600 C   0  0  0  0  0  2  0  0  0  0  0  0
  190.3100  177.2700  144.9550 C   0  0  0  0  0  0  0  0  0  0  0  0
  191.6800  177.4250  140.8290 C   0  0  0  0  0  2  0  0  0  0  0  0
  183.1070  179.6530  138.9840 C   0  0  0  0  0  1  0  0  0  0  0  0
  184.9940  179.4070  140.4550 N   0  0  0  0  0  0  0  0  0  0  0  0
  184.8480  177.9630  138.6460 F   0  0  0  0  0  0  0  0  0  0  0  0
  184.3720  178.9900  139.3940 C   0  0  0  0  0  0  0  0  0  0  0  0
  188.5750  176.7100  139.1590 C   0  0  0  0  0  2  0  0  0  0  0  0
  189.5430  176.7730  137.9920 C   0  0  0  0  0  2  0  0  0  0  0  0
  189.7530  175.1210  137.2670 S   0  0  0  0  0  0  0  0  0  0  0  0
  193.6780  175.0710  137.9870 N   0  0  0  0  0  2  0  0  0  0  0  0
  191.3330  174.9130  138.0300 N   0  0  0  0  0  2  0  0  0  0  0  0
  192.5600  175.8370  136.0040 C   0  0  0  0  0  1  0  0  0  0  0  0
  192.5560  175.2600  137.3770 C   0  0  0  0  0  0  0  0  0  0  0  0
  1  6  2  0  0  0  0
  3 12  1  0  0  0  0
  3 14  1  0  0  0  0
  4 20  1  0  0  0  0
  4  7  2  0  0  0  0
  6  2  1  0  0  0  0
  7 16  1  0  0  0  0
  8  5  1  6  0  0  0
  8 20  1  0  0  0  0
  9  1  1  6  0  0  0
  9 17  1  0  0  0  0
 10  8  1  0  0  0  0
 11  5  2  0  0  0  0
 11 15  1  0  0  0  0
 14 13  1  0  0  0  0
 15  4  1  0  0  0  0
 16 13  2  0  0  0  0
 17  2  1  1  0  0  0
 17 10  1  0  0  0  0
 18  9  1  0  0  0  0
 19 18  1  0  0  0  0
 19 21  1  0  0  0  0
 20  3  2  0  0  0  0
 21 11  1  0  0  0  0
 22 25  1  0  0  0  0
 23  6  1  0  0  0  0
 24 25  1  0  0  0  0
 25 23  2  0  0  0  0
 26 18  1  0  0  0  0
 27 26  1  0  0  0  0
 28 27  1  0  0  0  0
 28 30  1  0  0  0  0
 31 32  1  0  0  0  0
 32 29  2  0  0  0  0
 32 30  1  0  0  0  0
M  END
>  <MODEL>
2

>  <REMARK>
 VINA RESULT:      -8.3      3.274      8.100
  Name = 
  5 active torsions:
  status: ('A' for Active; 'I' for Inactive)
    1  A    between atoms: S_5  and  N_15
    2  A    between atoms: S_5  and  C_18
    3  A    between atoms: C_9  and  N_10
    4  A    between atoms: C_13  and  C_18
    5  A    between atoms: C_13  and  N_29
                            x       y       z     vdW  Elec       q    Type
                         _______ _______ _______ _____ _____    ______ ____

>  <TORSDO>
F 5

$$$$
=
 OpenBabel10222416033D

 32 35  0  0  1  0  0  0  0  0999 V2000
  187.2820  178.7750  140.2820 N   0  0  0  0  0  0  0  0  0  0  0  0
  186.2820  178.2620  142.3390 C   0  0  0  0  0  2  0  0  0  0  0  0
  189.7840  177.5050  146.2330 C   0  0  0  0  0  0  0  0  0  0  0  0
  191.4490  176.4730  144.5710 C   0  0  0  0  0  0  0  0  0  0  0  0
  190.3910  178.2650  142.7200 N   0  0  0  0  0  0  0  0  0  0  0  0
  186.1850  178.8180  140.9620 C   0  0  0  0  0  0  0  0  0  0  0  0
  192.1670  175.6590  145.3380 C   0  0  0  0  0  3  0  0  0  0  0  0
  189.5890  177.9180  143.8280 C   0  0  1  0  0  3  0  0  0  0  0  0
  188.3500  178.2130  141.0950 C   0  0  1  0  0  3  0  0  0  0  0  0
  188.3260  177.6580  143.6210 N   0  0  0  0  0  2  0  0  0  0  0  0
  191.3200  177.4690  142.3280 C   0  0  0  0  0  0  0  0  0  0  0  0
  188.6860  178.4010  146.4040 N   0  0  0  0  0  1  0  0  0  0  0  0
  191.2730  175.9000  147.6640 C   0  0  0  0  0  3  0  0  0  0  0  0
  190.2980  176.9120  147.4280 N   0  0  0  0  0  2  0  0  0  0  0  0
  191.8450  176.5220  143.2180 O   0  0  0  0  0  0  0  0  0  0  0  0
  192.0690  175.3560  146.7610 C   0  0  0  0  0  3  0  0  0  0  0  0
  187.6400  177.5840  142.3090 C   0  0  1  0  0  3  0  0  0  0  0  0
  189.2140  177.2350  140.3870 N   0  0  0  0  0  0  0  0  0  0  0  0
  190.4660  177.9000  139.9930 C   0  0  0  0  0  2  0  0  0  0  0  0
  190.2680  177.2980  144.9880 C   0  0  0  0  0  0  0  0  0  0  0  0
  191.6710  177.4700  140.8730 C   0  0  0  0  0  2  0  0  0  0  0  0
  182.6410  179.3590  139.7870 C   0  0  0  0  0  1  0  0  0  0  0  0
  184.9560  179.3380  140.4380 N   0  0  0  0  0  0  0  0  0  0  0  0
  183.7290  177.3990  140.7750 F   0  0  0  0  0  0  0  0  0  0  0  0
  183.8360  178.6850  140.3550 C   0  0  0  0  0  0  0  0  0  0  0  0
  188.5930  176.6990  139.1780 C   0  0  0  0  0  2  0  0  0  0  0  0
  189.4420  177.0410  137.9680 C   0  0  0  0  0  2  0  0  0  0  0  0
  188.5140  178.1200  136.8400 S   0  0  0  0  0  0  0  0  0  0  0  0
  185.6570  175.5060  135.8780 N   0  0  0  0  0  2  0  0  0  0  0  0
  187.6290  176.7530  136.1530 N   0  0  0  0  0  2  0  0  0  0  0  0
  185.4500  177.4630  137.2530 C   0  0  0  0  0  1  0  0  0  0  0  0
  186.2400  176.5310  136.4010 C   0  0  0  0  0  0  0  0  0  0  0  0
  1  6  2  0  0  0  0
  3 12  1  0  0  0  0
  3 14  1  0  0  0  0
  4 20  1  0  0  0  0
  4  7  2  0  0  0  0
  6  2  1  0  0  0  0
  7 16  1  0  0  0  0
  8  5  1  6  0  0  0
  8 20  1  0  0  0  0
  9  1  1  6  0  0  0
  9 17  1  0  0  0  0
 10  8  1  0  0  0  0
 11  5  2  0  0  0  0
 11 15  1  0  0  0  0
 14 13  1  0  0  0  0
 15  4  1  0  0  0  0
 16 13  2  0  0  0  0
 17  2  1  1  0  0  0
 17 10  1  0  0  0  0
 18  9  1  0  0  0  0
 19 18  1  0  0  0  0
 19 21  1  0  0  0  0
 20  3  2  0  0  0  0
 21 11  1  0  0  0  0
 22 25  1  0  0  0  0
 23  6  1  0  0  0  0
 25 23  2  0  0  0  0
 25 24  1  0  0  0  0
 26 18  1  0  0  0  0
 27 26  1  0  0  0  0
 28 27  1  0  0  0  0
 29 32  2  0  0  0  0
 30 32  1  0  0  0  0
 30 28  1  0  0  0  0
 32 31  1  0  0  0  0
M  END
>  <MODEL>
3

>  <REMARK>
 VINA RESULT:      -8.1      3.564      8.025
  Name = 
  5 active torsions:
  status: ('A' for Active; 'I' for Inactive)
    1  A    between atoms: S_5  and  N_15
    2  A    between atoms: S_5  and  C_18
    3  A    between atoms: C_9  and  N_10
    4  A    between atoms: C_13  and  C_18
    5  A    between atoms: C_13  and  N_29
                            x       y       z     vdW  Elec       q    Type
                         _______ _______ _______ _____ _____    ______ ____

>  <TORSDO>
F 5

$$$$
=
 OpenBabel10222416033D

 32 35  0  0  1  0  0  0  0  0999 V2000
  190.0100  177.5050  144.4480 N   0  0  0  0  0  0  0  0  0  0  0  0
  191.8350  176.2740  143.6410 C   0  0  0  0  0  2  0  0  0  0  0  0
  192.4670  176.6660  138.4020 C   0  0  0  0  0  0  0  0  0  0  0  0
  189.9220  176.8060  138.0790 C   0  0  0  0  0  0  0  0  0  0  0  0
  189.8950  178.1490  140.5190 N   0  0  0  0  0  0  0  0  0  0  0  0
  191.1170  176.9220  144.7720 C   0  0  0  0  0  0  0  0  0  0  0  0
  189.7510  176.3180  136.8550 C   0  0  0  0  0  3  0  0  0  0  0  0
  190.9910  177.3020  140.2490 C   0  0  1  0  0  3  0  0  0  0  0  0
  189.7900  177.3940  143.0150 C   0  0  1  0  0  3  0  0  0  0  0  0
  191.4120  176.5140  141.2020 N   0  0  0  0  0  2  0  0  0  0  0  0
  188.7740  177.9540  139.9240 C   0  0  0  0  0  0  0  0  0  0  0  0
  193.5610  176.9040  139.2880 N   0  0  0  0  0  1  0  0  0  0  0  0
  192.0320  175.7520  135.9910 C   0  0  0  0  0  3  0  0  0  0  0  0
  192.8120  176.2100  137.0920 N   0  0  0  0  0  0  0  0  0  0  0  0
  188.7420  177.2410  138.7170 O   0  0  0  0  0  0  0  0  0  0  0  0
  190.7150  175.7910  135.8960 C   0  0  0  0  0  3  0  0  0  0  0  0
  190.7950  176.3280  142.5370 C   0  0  1  0  0  3  0  0  0  0  0  0
  188.3970  177.0580  142.6290 N   0  0  0  0  0  0  0  0  0  0  0  0
  187.7130  178.2840  142.1900 C   0  0  0  0  0  2  0  0  0  0  0  0
  191.2100  176.9050  138.8410 C   0  0  1  0  0  3  0  0  0  0  0  0
  187.5230  178.3420  140.6490 C   0  0  0  0  0  2  0  0  0  0  0  0
  192.6340  175.9470  148.0860 C   0  0  0  0  0  1  0  0  0  0  0  0
  191.6160  176.8780  146.1150 N   0  0  0  0  0  0  0  0  0  0  0  0
  192.3070  174.6650  146.0240 F   0  0  0  0  0  0  0  0  0  0  0  0
  192.1600  175.8430  146.6820 C   0  0  0  0  0  0  0  0  0  0  0  0
  187.6250  176.4850  143.7290 C   0  0  0  0  0  2  0  0  0  0  0  0
  186.4320  177.3700  144.0360 C   0  0  0  0  0  2  0  0  0  0  0  0
  186.6130  178.1100  145.6850 S   0  0  0  0  0  0  0  0  0  0  0  0
  182.8110  179.2060  145.1690 N   0  0  0  0  0  2  0  0  0  0  0  0
  184.8650  178.3010  145.8640 N   0  0  0  0  0  2  0  0  0  0  0  0
  184.7050  179.8070  143.8230 C   0  0  0  0  0  1  0  0  0  0  0  0
  184.0820  179.0980  144.9740 C   0  0  0  0  0  0  0  0  0  0  0  0
  1  6  2  0  0  0  0
  2  6  1  0  0  0  0
  3 20  1  0  0  0  0
  3 12  1  0  0  0  0
  4 15  1  0  0  0  0
  6 23  1  0  0  0  0
  7  4  2  0  0  0  0
  8  5  1  6  0  0  0
  8 10  1  0  0  0  0
  9  1  1  1  0  0  0
 10 17  1  0  0  0  0
 11  5  2  0  0  0  0
 11 21  1  0  0  0  0
 13 14  1  0  0  0  0
 14  3  2  0  0  0  0
 15 11  1  0  0  0  0
 16 13  2  0  0  0  0
 16  7  1  0  0  0  0
 17  9  1  0  0  0  0
 17  2  1  1  0  0  0
 18  9  1  0  0  0  0
 18 26  1  0  0  0  0
 19 18  1  0  0  0  0
 20  4  1  1  0  0  0
 20  8  1  0  0  0  0
 21 19  1  0  0  0  0
 23 25  2  0  0  0  0
 24 25  1  0  0  0  0
 25 22  1  0  0  0  0
 26 27  1  0  0  0  0
 27 28  1  0  0  0  0
 28 30  1  0  0  0  0
 31 32  1  0  0  0  0
 32 29  2  0  0  0  0
 32 30  1  0  0  0  0
M  END
>  <MODEL>
4

>  <REMARK>
 VINA RESULT:      -7.9      1.325      1.900
  Name = 
  5 active torsions:
  status: ('A' for Active; 'I' for Inactive)
    1  A    between atoms: S_5  and  N_15
    2  A    between atoms: S_5  and  C_18
    3  A    between atoms: C_9  and  N_10
    4  A    between atoms: C_13  and  C_18
    5  A    between atoms: C_13  and  N_29
                            x       y       z     vdW  Elec       q    Type
                         _______ _______ _______ _____ _____    ______ ____

>  <TORSDO>
F 5

$$$$
=
 OpenBabel10222416033D

 32 35  0  0  1  0  0  0  0  0999 V2000
  187.8810  177.3530  140.4240 N   0  0  0  0  0  0  0  0  0  0  0  0
  190.1440  177.5210  141.0130 C   0  0  0  0  0  2  0  0  0  0  0  0
  191.0260  176.7150  146.1680 C   0  0  0  0  0  0  0  0  0  0  0  0
  188.7790  177.8170  146.7520 C   0  0  0  0  0  0  0  0  0  0  0  0
  187.8610  176.7280  144.3580 N   0  0  0  0  0  0  0  0  0  0  0  0
  189.0930  177.3360  139.9760 C   0  0  0  0  0  0  0  0  0  0  0  0
  188.9900  178.2890  147.9760 C   0  0  0  0  0  3  0  0  0  0  0  0
  189.2510  176.9290  144.4960 C   0  0  1  0  0  3  0  0  0  0  0  0
  187.8870  177.5140  141.8700 C   0  0  1  0  0  3  0  0  0  0  0  0
  189.9040  177.4430  143.4880 N   0  0  0  0  0  2  0  0  0  0  0  0
  187.0410  177.4250  145.0600 C   0  0  0  0  0  0  0  0  0  0  0  0
  191.7730  176.0040  145.1810 N   0  0  0  0  0  1  0  0  0  0  0  0
  191.3320  177.6520  148.5900 C   0  0  0  0  0  3  0  0  0  0  0  0
  191.6770  176.9070  147.4260 N   0  0  0  0  0  2  0  0  0  0  0  0
  187.4790  178.0270  146.2470 O   0  0  0  0  0  0  0  0  0  0  0  0
  190.1780  178.2540  148.8200 C   0  0  0  0  0  3  0  0  0  0  0  0
  189.3250  177.9450  142.2190 C   0  0  1  0  0  3  0  0  0  0  0  0
  186.8780  178.4720  142.3880 N   0  0  0  0  0  0  0  0  0  0  0  0
  185.7330  177.7180  142.9210 C   0  0  0  0  0  2  0  0  0  0  0  0
  189.7740  177.1280  145.8660 C   0  0  0  0  0  0  0  0  0  0  0  0
  185.6940  177.7130  144.4750 C   0  0  0  0  0  2  0  0  0  0  0  0
  189.7680  177.7990  136.2940 C   0  0  0  0  0  1  0  0  0  0  0  0
  189.4140  177.1730  138.5890 N   0  0  0  0  0  0  0  0  0  0  0  0
  189.0850  179.3980  138.0190 F   0  0  0  0  0  0  0  0  0  0  0  0
  189.4090  178.1200  137.6990 C   0  0  0  0  0  0  0  0  0  0  0  0
  186.3750  179.3790  141.3600 C   0  0  0  0  0  2  0  0  0  0  0  0
  184.9110  179.0900  141.0880 C   0  0  0  0  0  2  0  0  0  0  0  0
  184.6570  178.7680  139.3180 S   0  0  0  0  0  0  0  0  0  0  0  0
  181.8650  181.5060  138.5220 N   0  0  0  0  0  2  0  0  0  0  0  0
  183.7950  180.2950  139.0960 N   0  0  0  0  0  2  0  0  0  0  0  0
  181.6480  179.1170  138.4160 C   0  0  0  0  0  1  0  0  0  0  0  0
  182.4310  180.3570  138.6780 C   0  0  0  0  0  0  0  0  0  0  0  0
  3 14  1  0  0  0  0
  4  7  2  0  0  0  0
  5  8  1  0  0  0  0
  5 11  2  0  0  0  0
  6  1  2  0  0  0  0
  6  2  1  0  0  0  0
  7 16  1  0  0  0  0
  8 10  1  6  0  0  0
  8 20  1  0  0  0  0
  9  1  1  6  0  0  0
  9 17  1  0  0  0  0
  9 18  1  0  0  0  0
 11 15  1  0  0  0  0
 12  3  1  0  0  0  0
 13 16  2  0  0  0  0
 14 13  1  0  0  0  0
 15  4  1  0  0  0  0
 17  2  1  6  0  0  0
 17 10  1  0  0  0  0
 18 19  1  0  0  0  0
 19 21  1  0  0  0  0
 20  3  2  0  0  0  0
 20  4  1  0  0  0  0
 21 11  1  0  0  0  0
 22 25  1  0  0  0  0
 23  6  1  0  0  0  0
 25 24  1  0  0  0  0
 25 23  2  0  0  0  0
 26 18  1  0  0  0  0
 27 26  1  0  0  0  0
 28 27  1  0  0  0  0
 29 32  2  0  0  0  0
 30 28  1  0  0  0  0
 31 32  1  0  0  0  0
 32 30  1  0  0  0  0
M  END
>  <MODEL>
5

>  <REMARK>
 VINA RESULT:      -7.4      3.708      7.873
  Name = 
  5 active torsions:
  status: ('A' for Active; 'I' for Inactive)
    1  A    between atoms: S_5  and  N_15
    2  A    between atoms: S_5  and  C_18
    3  A    between atoms: C_9  and  N_10
    4  A    between atoms: C_13  and  C_18
    5  A    between atoms: C_13  and  N_29
                            x       y       z     vdW  Elec       q    Type
                         _______ _______ _______ _____ _____    ______ ____

>  <TORSDO>
F 5

$$$$
=
 OpenBabel10222416033D

 32 35  0  0  1  0  0  0  0  0999 V2000
  188.9890  178.0590  144.0660 N   0  0  0  0  0  0  0  0  0  0  0  0
  188.0600  177.3680  142.0270 C   0  0  0  0  0  2  0  0  0  0  0  0
  183.0430  178.9220  141.3840 C   0  0  0  0  0  0  0  0  0  0  0  0
  182.6120  178.6620  143.9030 C   0  0  0  0  0  0  0  0  0  0  0  0
  185.2620  179.4560  144.2280 N   0  0  0  0  0  0  0  0  0  0  0  0
  189.2540  177.6320  142.8760 C   0  0  0  0  0  0  0  0  0  0  0  0
  181.3080  178.4100  143.9550 C   0  0  0  0  0  3  0  0  0  0  0  0
  184.8940  178.8930  142.9860 C   0  0  1  0  0  3  0  0  0  0  0  0
  187.5510  178.2030  144.2340 C   0  0  1  0  0  3  0  0  0  0  0  0
  185.6960  178.0170  142.4420 N   0  0  0  0  0  2  0  0  0  0  0  0
  184.5780  179.1850  145.2800 C   0  0  0  0  0  0  0  0  0  0  0  0
  184.0180  179.1690  140.3700 N   0  0  0  0  0  1  0  0  0  0  0  0
  180.4790  178.4530  141.5930 C   0  0  0  0  0  3  0  0  0  0  0  0
  181.6910  178.8120  140.9350 N   0  0  0  0  0  0  0  0  0  0  0  0
  183.2550  178.7380  145.1550 O   0  0  0  0  0  0  0  0  0  0  0  0
  180.3190  178.2720  142.8920 C   0  0  0  0  0  3  0  0  0  0  0  0
  186.9310  177.4560  143.0380 C   0  0  1  0  0  3  0  0  0  0  0  0
  187.0300  177.7060  145.5320 N   0  0  0  0  0  0  0  0  0  0  0  0
  186.8020  178.8520  146.4270 C   0  0  0  0  0  2  0  0  0  0  0  0
  183.4490  178.8360  142.6710 C   0  0  1  0  0  3  0  0  0  0  0  0
  185.2940  179.1860  146.5950 C   0  0  0  0  0  2  0  0  0  0  0  0
  192.3990  177.2560  140.8260 C   0  0  0  0  0  1  0  0  0  0  0  0
  190.5880  177.4070  142.4020 N   0  0  0  0  0  0  0  0  0  0  0  0
  190.1190  177.8800  140.1800 F   0  0  0  0  0  0  0  0  0  0  0  0
  190.9780  177.5220  141.1680 C   0  0  0  0  0  0  0  0  0  0  0  0
  187.9510  176.7920  146.2030 C   0  0  0  0  0  2  0  0  0  0  0  0
  188.0500  177.1480  147.6740 C   0  0  0  0  0  2  0  0  0  0  0  0
  189.7150  177.7660  148.0560 S   0  0  0  0  0  0  0  0  0  0  0  0
  191.9650  175.9030  145.3370 N   0  0  0  0  0  2  0  0  0  0  0  0
  190.3680  177.1400  146.5370 N   0  0  0  0  0  2  0  0  0  0  0  0
  192.2620  175.9250  147.7190 C   0  0  0  0  0  1  0  0  0  0  0  0
  191.5330  176.3170  146.4800 C   0  0  0  0  0  0  0  0  0  0  0  0
  2  6  1  0  0  0  0
  4  7  2  0  0  0  0
  4 15  1  0  0  0  0
  5 11  2  0  0  0  0
  6  1  2  0  0  0  0
  8 10  1  1  0  0  0
  8  5  1  0  0  0  0
  9  1  1  1  0  0  0
  9 18  1  0  0  0  0
 10 17  1  0  0  0  0
 11 21  1  0  0  0  0
 12  3  1  0  0  0  0
 13 16  2  0  0  0  0
 14  3  2  0  0  0  0
 14 13  1  0  0  0  0
 15 11  1  0  0  0  0
 16  7  1  0  0  0  0
 17  2  1  6  0  0  0
 17  9  1  0  0  0  0
 18 26  1  0  0  0  0
 18 19  1  0  0  0  0
 19 21  1  0  0  0  0
 20  3  1  6  0  0  0
 20  8  1  0  0  0  0
 20  4  1  0  0  0  0
 22 25  1  0  0  0  0
 23  6  1  0  0  0  0
 24 25  1  0  0  0  0
 25 23  2  0  0  0  0
 26 27  1  0  0  0  0
 27 28  1  0  0  0  0
 29 32  2  0  0  0  0
 30 28  1  0  0  0  0
 32 30  1  0  0  0  0
 32 31  1  0  0  0  0
M  END
>  <MODEL>
6

>  <REMARK>
 VINA RESULT:      -7.4      3.608      6.920
  Name = 
  5 active torsions:
  status: ('A' for Active; 'I' for Inactive)
    1  A    between atoms: S_5  and  N_15
    2  A    between atoms: S_5  and  C_18
    3  A    between atoms: C_9  and  N_10
    4  A    between atoms: C_13  and  C_18
    5  A    between atoms: C_13  and  N_29
                            x       y       z     vdW  Elec       q    Type
                         _______ _______ _______ _____ _____    ______ ____

>  <TORSDO>
F 5

$$$$
=
 OpenBabel10222416033D

 32 35  0  0  1  0  0  0  0  0999 V2000
  187.9330  177.3310  140.4200 N   0  0  0  0  0  0  0  0  0  0  0  0
  190.1880  177.5600  141.0220 C   0  0  0  0  0  2  0  0  0  0  0  0
  191.0620  176.7660  146.1800 C   0  0  0  0  0  0  0  0  0  0  0  0
  188.7820  177.8040  146.7530 C   0  0  0  0  0  0  0  0  0  0  0  0
  187.9080  176.6960  144.3520 N   0  0  0  0  0  0  0  0  0  0  0  0
  189.1470  177.3480  139.9790 C   0  0  0  0  0  0  0  0  0  0  0  0
  188.9730  178.2790  147.9800 C   0  0  0  0  0  3  0  0  0  0  0  0
  189.2910  176.9350  144.4980 C   0  0  1  0  0  3  0  0  0  0  0  0
  187.9270  177.4890  141.8660 C   0  0  1  0  0  3  0  0  0  0  0  0
  189.9350  177.4690  143.4950 N   0  0  0  0  0  2  0  0  0  0  0  0
  187.0650  177.3680  145.0500 C   0  0  0  0  0  0  0  0  0  0  0  0
  191.8330  176.0780  145.1960 N   0  0  0  0  0  1  0  0  0  0  0  0
  191.3290  177.7060  148.6060 C   0  0  0  0  0  3  0  0  0  0  0  0
  191.7010  176.9740  147.4420 N   0  0  0  0  0  2  0  0  0  0  0  0
  187.4800  177.9800  146.2420 O   0  0  0  0  0  0  0  0  0  0  0  0
  190.1570  178.2750  148.8310 C   0  0  0  0  0  3  0  0  0  0  0  0
  189.3500  177.9580  142.2240 C   0  0  1  0  0  3  0  0  0  0  0  0
  186.8880  178.4170  142.3800 N   0  0  0  0  0  0  0  0  0  0  0  0
  185.7610  177.6300  142.9050 C   0  0  0  0  0  2  0  0  0  0  0  0
  189.8010  177.1460  145.8710 C   0  0  0  0  0  0  0  0  0  0  0  0
  185.7140  177.6200  144.4580 C   0  0  0  0  0  2  0  0  0  0  0  0
  189.7770  177.8240  136.2900 C   0  0  0  0  0  1  0  0  0  0  0  0
  189.4810  177.1980  138.5930 N   0  0  0  0  0  0  0  0  0  0  0  0
  188.9590  179.3780  137.9980 F   0  0  0  0  0  0  0  0  0  0  0  0
  189.3930  178.1290  137.6920 C   0  0  0  0  0  0  0  0  0  0  0  0
  186.3670  179.3120  141.3510 C   0  0  0  0  0  2  0  0  0  0  0  0
  184.8920  179.0370  141.1270 C   0  0  0  0  0  2  0  0  0  0  0  0
  184.4030  179.5760  139.4630 S   0  0  0  0  0  0  0  0  0  0  0  0
  186.1950  176.8400  137.1760 N   0  0  0  0  0  2  0  0  0  0  0  0
  185.6060  178.5310  138.6980 N   0  0  0  0  0  2  0  0  0  0  0  0
  183.8670  177.4310  137.2040 C   0  0  0  0  0  1  0  0  0  0  0  0
  185.2690  177.5810  137.6850 C   0  0  0  0  0  0  0  0  0  0  0  0
  3 14  1  0  0  0  0
  4  7  2  0  0  0  0
  5  8  1  0  0  0  0
  5 11  2  0  0  0  0
  6  1  2  0  0  0  0
  6  2  1  0  0  0  0
  7 16  1  0  0  0  0
  8 10  1  6  0  0  0
  8 20  1  0  0  0  0
  9  1  1  6  0  0  0
  9 17  1  0  0  0  0
  9 18  1  0  0  0  0
 11 15  1  0  0  0  0
 12  3  1  0  0  0  0
 13 16  2  0  0  0  0
 14 13  1  0  0  0  0
 15  4  1  0  0  0  0
 17  2  1  6  0  0  0
 17 10  1  0  0  0  0
 18 19  1  0  0  0  0
 19 21  1  0  0  0  0
 20  3  2  0  0  0  0
 20  4  1  0  0  0  0
 21 11  1  0  0  0  0
 22 25  1  0  0  0  0
 23  6  1  0  0  0  0
 25 24  1  0  0  0  0
 25 23  2  0  0  0  0
 26 18  1  0  0  0  0
 27 26  1  0  0  0  0
 28 27  1  0  0  0  0
 29 32  2  0  0  0  0
 30 28  1  0  0  0  0
 31 32  1  0  0  0  0
 32 30  1  0  0  0  0
M  END
>  <MODEL>
7

>  <REMARK>
 VINA RESULT:      -7.2      3.254      7.753
  Name = 
  5 active torsions:
  status: ('A' for Active; 'I' for Inactive)
    1  A    between atoms: S_5  and  N_15
    2  A    between atoms: S_5  and  C_18
    3  A    between atoms: C_9  and  N_10
    4  A    between atoms: C_13  and  C_18
    5  A    between atoms: C_13  and  N_29
                            x       y       z     vdW  Elec       q    Type
                         _______ _______ _______ _____ _____    ______ ____

>  <TORSDO>
F 5

$$$$
=
 OpenBabel10222416033D

 32 35  0  0  1  0  0  0  0  0999 V2000
  189.7050  177.8990  141.4070 N   0  0  0  0  0  0  0  0  0  0  0  0
  188.5680  177.8660  139.3570 C   0  0  0  0  0  2  0  0  0  0  0  0
  183.5870  179.6210  139.7030 C   0  0  0  0  0  0  0  0  0  0  0  0
  183.3710  178.6230  142.0610 C   0  0  0  0  0  0  0  0  0  0  0  0
  186.0730  179.2410  142.3440 N   0  0  0  0  0  0  0  0  0  0  0  0
  189.8430  177.8450  140.1240 C   0  0  0  0  0  0  0  0  0  0  0  0
  182.0680  178.3870  142.1640 C   0  0  0  0  0  3  0  0  0  0  0  0
  185.5700  179.0830  141.0340 C   0  0  1  0  0  3  0  0  0  0  0  0
  188.2960  178.0080  141.7520 C   0  0  1  0  0  3  0  0  0  0  0  0
  186.2810  178.3980  140.1780 N   0  0  0  0  0  2  0  0  0  0  0  0
  185.4750  178.6780  143.3310 C   0  0  0  0  0  0  0  0  0  0  0  0
  184.4780  180.1450  138.7180 N   0  0  0  0  0  1  0  0  0  0  0  0
  181.0340  179.1510  140.0150 C   0  0  0  0  0  3  0  0  0  0  0  0
  182.1970  179.6710  139.3770 N   0  0  0  0  0  0  0  0  0  0  0  0
  184.1270  178.3100  143.2090 O   0  0  0  0  0  0  0  0  0  0  0  0
  180.9830  178.5900  141.2110 C   0  0  0  0  0  3  0  0  0  0  0  0
  187.5380  177.6650  140.4550 C   0  0  1  0  0  3  0  0  0  0  0  0
  187.8710  177.1530  142.8880 N   0  0  0  0  0  0  0  0  0  0  0  0
  187.7750  177.9810  144.1010 C   0  0  0  0  0  2  0  0  0  0  0  0
  184.1020  179.1460  140.8600 C   0  0  1  0  0  3  0  0  0  0  0  0
  186.3040  178.2730  144.5090 C   0  0  0  0  0  2  0  0  0  0  0  0
  192.9180  176.7570  138.2300 C   0  0  0  0  0  1  0  0  0  0  0  0
  191.1180  177.7520  139.4760 N   0  0  0  0  0  0  0  0  0  0  0  0
  190.8500  175.5590  138.7690 F   0  0  0  0  0  0  0  0  0  0  0  0
  191.5730  176.7040  138.8580 C   0  0  0  0  0  0  0  0  0  0  0  0
  188.8060  176.0660  143.1630 C   0  0  0  0  0  2  0  0  0  0  0  0
  189.5060  176.3100  144.4870 C   0  0  0  0  0  2  0  0  0  0  0  0
  191.2840  176.5600  144.2150 S   0  0  0  0  0  0  0  0  0  0  0  0
  191.9830  177.1320  148.1030 N   0  0  0  0  0  2  0  0  0  0  0  0
  191.4920  177.2930  145.8100 N   0  0  0  0  0  2  0  0  0  0  0  0
  192.1060  175.0700  146.8790 C   0  0  0  0  0  1  0  0  0  0  0  0
  191.8600  176.5360  146.9640 C   0  0  0  0  0  0  0  0  0  0  0  0
  2  6  1  0  0  0  0
  4  7  2  0  0  0  0
  4 15  1  0  0  0  0
  5 11  2  0  0  0  0
  6  1  2  0  0  0  0
  8 10  1  1  0  0  0
  8  5  1  0  0  0  0
  9  1  1  6  0  0  0
  9 18  1  0  0  0  0
 10 17  1  0  0  0  0
 11 21  1  0  0  0  0
 12  3  1  0  0  0  0
 13 16  2  0  0  0  0
 14  3  2  0  0  0  0
 14 13  1  0  0  0  0
 15 11  1  0  0  0  0
 16  7  1  0  0  0  0
 17  2  1  6  0  0  0
 17  9  1  0  0  0  0
 18 26  1  0  0  0  0
 18 19  1  0  0  0  0
 19 21  1  0  0  0  0
 20  3  1  6  0  0  0
 20  8  1  0  0  0  0
 20  4  1  0  0  0  0
 22 25  1  0  0  0  0
 23  6  1  0  0  0  0
 24 25  1  0  0  0  0
 25 23  2  0  0  0  0
 26 27  1  0  0  0  0
 28 27  1  0  0  0  0
 28 30  1  0  0  0  0
 30 32  1  0  0  0  0
 31 32  1  0  0  0  0
 32 29  2  0  0  0  0
M  END
>  <MODEL>
8

>  <REMARK>
 VINA RESULT:      -7.2      3.510      6.545
  Name = 
  5 active torsions:
  status: ('A' for Active; 'I' for Inactive)
    1  A    between atoms: S_5  and  N_15
    2  A    between atoms: S_5  and  C_18
    3  A    between atoms: C_9  and  N_10
    4  A    between atoms: C_13  and  C_18
    5  A    between atoms: C_13  and  N_29
                            x       y       z     vdW  Elec       q    Type
                         _______ _______ _______ _____ _____    ______ ____

>  <TORSDO>
F 5

$$$$
=
 OpenBabel10222416033D

 32 35  0  0  1  0  0  0  0  0999 V2000
  183.4720  178.8150  137.9680 N   0  0  0  0  0  0  0  0  0  0  0  0
  182.1140  178.5440  139.8600 C   0  0  0  0  0  2  0  0  0  0  0  0
  184.7650  179.0010  144.4170 C   0  0  0  0  0  0  0  0  0  0  0  0
  186.8410  177.9330  143.3460 C   0  0  0  0  0  0  0  0  0  0  0  0
  186.0260  179.1950  141.0010 N   0  0  0  0  0  0  0  0  0  0  0  0
  182.2560  178.8240  138.4050 C   0  0  0  0  0  0  0  0  0  0  0  0
  187.4580  177.3790  144.3850 C   0  0  0  0  0  3  0  0  0  0  0  0
  185.0460  178.9440  141.9850 C   0  0  1  0  0  3  0  0  0  0  0  0
  184.3940  178.5650  139.0650 C   0  0  1  0  0  3  0  0  0  0  0  0
  183.8890  178.4750  141.6000 N   0  0  0  0  0  2  0  0  0  0  0  0
  187.0930  178.4810  140.9640 C   0  0  0  0  0  0  0  0  0  0  0  0
  183.5700  179.7500  144.1900 N   0  0  0  0  0  1  0  0  0  0  0  0
  186.0690  177.9060  146.4010 C   0  0  0  0  0  3  0  0  0  0  0  0
  185.0700  178.7110  145.7830 N   0  0  0  0  0  2  0  0  0  0  0  0
  187.5100  177.7920  142.1120 O   0  0  0  0  0  0  0  0  0  0  0  0
  187.0910  177.3260  145.7950 C   0  0  0  0  0  3  0  0  0  0  0  0
  183.5090  178.0710  140.2260 C   0  0  1  0  0  3  0  0  0  0  0  0
  185.4830  177.6070  138.7490 N   0  0  0  0  0  0  0  0  0  0  0  0
  186.7160  178.3600  138.4710 C   0  0  0  0  0  2  0  0  0  0  0  0
  185.5210  178.6450  143.3550 C   0  0  0  0  0  0  0  0  0  0  0  0
  187.7440  178.2700  139.6330 C   0  0  0  0  0  2  0  0  0  0  0  0
  179.5210  180.3210  136.2820 C   0  0  0  0  0  1  0  0  0  0  0  0
  181.1210  179.0640  137.5620 N   0  0  0  0  0  0  0  0  0  0  0  0
  181.3640  181.3700  137.5080 F   0  0  0  0  0  0  0  0  0  0  0  0
  180.7190  180.2290  137.1560 C   0  0  0  0  0  0  0  0  0  0  0  0
  185.1920  176.7810  137.5810 C   0  0  0  0  0  2  0  0  0  0  0  0
  186.2140  177.0490  136.4920 C   0  0  0  0  0  2  0  0  0  0  0  0
  186.8540  175.4800  135.8380 S   0  0  0  0  0  0  0  0  0  0  0  0
  190.0170  175.6240  138.2660 N   0  0  0  0  0  2  0  0  0  0  0  0
  187.9460  175.2750  137.2120 N   0  0  0  0  0  2  0  0  0  0  0  0
  189.7910  176.6180  136.0920 C   0  0  0  0  0  1  0  0  0  0  0  0
  189.2660  175.8220  137.2360 C   0  0  0  0  0  0  0  0  0  0  0  0
  1  6  2  0  0  0  0
  3 14  1  0  0  0  0
  4 20  1  0  0  0  0
  4  7  2  0  0  0  0
  6  2  1  0  0  0  0
  7 16  1  0  0  0  0
  8  5  1  6  0  0  0
  8 20  1  0  0  0  0
  9  1  1  6  0  0  0
  9 17  1  0  0  0  0
 10  8  1  0  0  0  0
 11  5  2  0  0  0  0
 11 15  1  0  0  0  0
 12  3  1  0  0  0  0
 14 13  1  0  0  0  0
 15  4  1  0  0  0  0
 16 13  2  0  0  0  0
 17  2  1  6  0  0  0
 17 10  1  0  0  0  0
 18  9  1  0  0  0  0
 19 18  1  0  0  0  0
 19 21  1  0  0  0  0
 20  3  2  0  0  0  0
 21 11  1  0  0  0  0
 22 25  1  0  0  0  0
 23  6  1  0  0  0  0
 25 24  1  0  0  0  0
 25 23  2  0  0  0  0
 26 18  1  0  0  0  0
 27 26  1  0  0  0  0
 28 27  1  0  0  0  0
 28 30  1  0  0  0  0
 30 32  1  0  0  0  0
 31 32  1  0  0  0  0
 32 29  2  0  0  0  0
M  END
>  <MODEL>
9

>  <REMARK>
 VINA RESULT:      -7.1      5.194      9.628
  Name = 
  5 active torsions:
  status: ('A' for Active; 'I' for Inactive)
    1  A    between atoms: S_5  and  N_15
    2  A    between atoms: S_5  and  C_18
    3  A    between atoms: C_9  and  N_10
    4  A    between atoms: C_13  and  C_18
    5  A    between atoms: C_13  and  N_29
                            x       y       z     vdW  Elec       q    Type
                         _______ _______ _______ _____ _____    ______ ____

>  <TORSDO>
F 5

$$$$
