=
 OpenBabel10222415503D

 47 50  0  0  1  0  0  0  0  0999 V2000
  184.5350  179.0320  141.1730 C   0  0  1  0  0  3  0  0  0  0  0  0
  186.9880  178.5020  140.8900 C   0  0  0  0  0  3  0  0  0  0  0  0
  185.8570  177.8340  142.9240 C   0  0  0  0  0  3  0  0  0  0  0  0
  188.2110  177.3360  142.6300 C   0  0  0  0  0  0  0  0  0  0  0  0
  187.0490  177.2840  143.4060 C   0  0  0  0  0  3  0  0  0  0  0  0
  188.1810  177.9550  141.3730 C   0  0  0  0  0  3  0  0  0  0  0  0
  185.8220  178.4450  141.6660 C   0  0  0  0  0  0  0  0  0  0  0  0
  189.4870  176.7960  143.1860 C   0  0  0  0  0  2  0  0  0  0  0  0
  190.0180  177.6540  144.3470 C   0  0  1  0  0  3  0  0  0  0  0  0
  189.9420  176.8810  145.6040 N   0  0  0  0  0  0  0  0  0  0  0  0
  191.1640  176.7880  147.5510 C   0  0  0  0  0  2  0  0  0  0  0  0
  191.2450  176.6830  146.0980 N   0  0  0  0  0  2  0  0  0  0  0  0
  189.8720  177.3440  147.9040 N   0  0  0  0  0  2  0  0  0  0  0  0
  189.2800  177.6860  146.6270 C   0  0  0  0  0  2  0  0  0  0  0  0
  191.5970  179.6030  144.0440 C   0  0  0  0  0  1  0  0  0  0  0  0
  191.9010  177.6170  142.8040 O   0  0  0  0  0  1  0  0  0  0  0  0
  191.4710  178.0920  144.0480 C   0  0  2  0  0  3  0  0  0  0  0  0
  184.4730  179.0270  139.6740 C   0  0  0  0  0  0  0  0  0  0  0  0
  184.2930  177.8050  138.9470 N   0  0  0  0  0  2  0  0  0  0  0  0
  184.6140  180.1150  139.0510 O   0  0  0  0  0  0  0  0  0  0  0  0
  184.3970  177.7320  137.4940 C   0  0  0  0  0  2  0  0  0  0  0  0
  185.0630  176.4280  137.0720 C   0  0  0  0  0  2  0  0  0  0  0  0
  187.3530  175.4340  137.2370 C   0  0  0  0  0  3  0  0  0  0  0  0
  189.3080  176.8640  137.4230 C   0  0  0  0  0  0  0  0  0  0  0  0
  188.9400  179.4000  137.4140 C   0  0  0  0  0  1  0  0  0  0  0  0
  187.1030  177.8060  137.2420 N   0  0  0  0  0  0  0  0  0  0  0  0
  188.7350  175.5900  137.3570 C   0  0  0  0  0  3  0  0  0  0  0  0
  186.5420  176.5670  137.1830 C   0  0  0  0  0  0  0  0  0  0  0  0
  188.4450  177.9920  137.3590 C   0  0  0  0  0  0  0  0  0  0  0  0
  190.7370  176.9360  137.5810 N   0  0  0  0  0  0  0  0  0  0  0  0
  191.5870  176.0820  137.1130 C   0  0  0  0  0  3  0  0  0  0  0  0
  193.0490  176.2710  137.3220 C   0  0  0  0  0  2  0  0  0  0  0  0
  193.6970  174.9750  137.7950 C   0  0  0  0  0  2  0  0  0  0  0  0
  194.8310  175.2540  138.6080 O   0  0  0  0  0  0  0  0  0  0  0  0
  195.7260  174.2580  139.0030 C   0  0  0  0  0  0  0  0  0  0  0  0
  195.4020  173.0400  138.9560 O   0  0  0  0  0  0  0  0  0  0  0  0
  197.0900  174.6440  139.4630 C   0  0  0  0  0  1  0  0  0  0  0  0
  183.4100  178.3160  141.7590 N   0  0  0  0  0  2  0  0  0  0  0  0
  182.2220  179.1150  141.5150 C   0  0  0  0  0  2  0  0  0  0  0  0
  181.0930  178.3010  141.6020 O   0  0  0  0  0  0  0  0  0  0  0  0
  180.8960  177.8200  140.3030 C   0  0  0  0  0  2  0  0  0  0  0  0
  179.8250  178.6450  139.6030 C   0  0  0  0  0  2  0  0  0  0  0  0
  180.2120  178.9250  138.1820 C   0  0  0  0  0  0  0  0  0  0  0  0
  179.5830  178.4090  137.2710 O   0  0  0  0  0  0  0  0  0  0  0  0
  181.3310  179.8700  137.8710 C   0  0  0  0  0  3  0  0  0  0  0  0
  180.9730  181.2680  138.3530 C   0  0  0  0  0  2  0  0  0  0  0  0
  180.8730  180.9340  136.8840 C   0  0  0  0  0  2  0  0  0  0  0  0
  1 18  1  6  0  0  0
  1  7  1  0  0  0  0
  1 38  1  0  0  0  0
  2  6  2  0  0  0  0
  2  7  1  0  0  0  0
  3  5  1  0  0  0  0
  4  8  1  0  0  0  0
  4  5  2  0  0  0  0
  6  4  1  0  0  0  0
  7  3  2  0  0  0  0
  9  8  1  6  0  0  0
  9 10  1  0  0  0  0
 10 12  1  0  0  0  0
 10 14  1  0  0  0  0
 11 13  1  0  0  0  0
 12 11  1  0  0  0  0
 14 13  1  0  0  0  0
 16 17  1  0  0  0  0
 17 15  1  6  0  0  0
 17  9  1  0  0  0  0
 19 18  1  0  0  0  0
 20 18  2  0  0  0  0
 21 19  1  0  0  0  0
 22 28  1  0  0  0  0
 22 21  1  0  0  0  0
 23 27  1  0  0  0  0
 24 30  1  0  0  0  0
 26 29  2  0  0  0  0
 27 24  2  0  0  0  0
 28 23  2  0  0  0  0
 28 26  1  0  0  0  0
 29 25  1  0  0  0  0
 29 24  1  0  0  0  0
 31 32  1  0  0  0  0
 31 30  2  0  0  0  0
 32 33  1  0  0  0  0
 33 34  1  0  0  0  0
 34 35  1  0  0  0  0
 35 37  1  0  0  0  0
 36 35  2  0  0  0  0
 39 40  1  0  0  0  0
 39 38  1  0  0  0  0
 41 40  1  0  0  0  0
 42 41  1  0  0  0  0
 43 42  1  0  0  0  0
 44 43  2  0  0  0  0
 45 43  1  0  0  0  0
 45 46  1  0  0  0  0
 47 45  1  0  0  0  0
 47 46  1  0  0  0  0
M  END
>  <MODEL>
1

>  <REMARK>
 VINA RESULT:      -6.9      0.000      0.000
  Name = 
  21 active torsions:
  status: ('A' for Active; 'I' for Inactive)
    1  A    between atoms: C_3  and  C_13
    2  A    between atoms: C_3  and  C_32
    3  A    between atoms: C_6  and  C_33
    4  A    between atoms: C_7  and  N_18
    5  A    between atoms: N_8  and  C_29
    6  A    between atoms: C_9  and  C_38
    7  A    between atoms: C_13  and  N_26
    8  A    between atoms: C_15  and  C_20
    9  A    between atoms: C_15  and  O_37
   10  A    between atoms: C_16  and  C_28
   11  A    between atoms: C_20  and  C_36
   12  A    between atoms: C_22  and  O_37
   13  A    between atoms: C_28  and  C_34
   14  A    between atoms: C_29  and  C_31
   15  A    between atoms: C_29  and  C_33
   16  A    between atoms: C_34  and  C_42
   17  A    between atoms: C_35  and  C_38
   18  A    between atoms: C_38  and  N_46
   19  A    between atoms: O_41  and  C_42
   20  A    between atoms: O_41  and  C_47
   21  A    between atoms: N_46  and  C_47
                            x       y       z     vdW  Elec       q    Type
                         _______ _______ _______ _____ _____    ______ ____

>  <TORSDO>
F 21

$$$$
=
 OpenBabel10222415503D

 47 50  0  0  1  0  0  0  0  0999 V2000
  190.5200  176.7450  141.4960 C   0  0  1  0  0  3  0  0  0  0  0  0
  188.2660  177.1260  142.5700 C   0  0  0  0  0  3  0  0  0  0  0  0
  188.7440  178.1390  140.4240 C   0  0  0  0  0  3  0  0  0  0  0  0
  186.5870  178.4900  141.4720 C   0  0  0  0  0  0  0  0  0  0  0  0
  187.4690  178.7120  140.4100 C   0  0  0  0  0  3  0  0  0  0  0  0
  186.9920  177.7020  142.5590 C   0  0  0  0  0  3  0  0  0  0  0  0
  189.1480  177.3450  141.5020 C   0  0  0  0  0  0  0  0  0  0  0  0
  185.2530  179.1590  141.4690 C   0  0  0  0  0  2  0  0  0  0  0  0
  184.1840  178.3060  140.7660 C   0  0  1  0  0  3  0  0  0  0  0  0
  183.0550  178.0710  141.6890 N   0  0  0  0  0  0  0  0  0  0  0  0
  182.0920  179.2220  143.4330 C   0  0  0  0  0  2  0  0  0  0  0  0
  183.3450  178.6710  142.9290 N   0  0  0  0  0  2  0  0  0  0  0  0
  181.1170  179.2140  142.3590 N   0  0  0  0  0  2  0  0  0  0  0  0
  181.8760  178.7850  141.2030 C   0  0  0  0  0  2  0  0  0  0  0  0
  183.9770  178.1720  138.2500 C   0  0  0  0  0  1  0  0  0  0  0  0
  184.3650  180.2470  139.3080 O   0  0  0  0  0  1  0  0  0  0  0  0
  183.7120  179.0220  139.4780 C   0  0  2  0  0  3  0  0  0  0  0  0
  191.1070  176.7430  140.1150 C   0  0  0  0  0  0  0  0  0  0  0  0
  190.5960  175.8700  139.0990 N   0  0  0  0  0  2  0  0  0  0  0  0
  192.0840  177.4990  139.8630 O   0  0  0  0  0  0  0  0  0  0  0  0
  191.2430  175.7140  137.8000 C   0  0  0  0  0  2  0  0  0  0  0  0
  190.7610  174.4400  137.1160 C   0  0  0  0  0  2  0  0  0  0  0  0
  188.6630  175.7660  136.8010 C   0  0  0  0  0  3  0  0  0  0  0  0
  186.5320  174.6450  136.4820 C   0  0  0  0  0  0  0  0  0  0  0  0
  186.5210  172.0830  136.4510 C   0  0  0  0  0  1  0  0  0  0  0  0
  188.5590  173.3840  136.7640 N   0  0  0  0  0  0  0  0  0  0  0  0
  187.2830  175.8190  136.6000 C   0  0  0  0  0  3  0  0  0  0  0  0
  189.2920  174.5240  136.8850 C   0  0  0  0  0  0  0  0  0  0  0  0
  187.2130  173.4010  136.5680 C   0  0  0  0  0  0  0  0  0  0  0  0
  185.1100  174.7880  136.3110 N   0  0  0  0  0  0  0  0  0  0  0  0
  184.5300  175.6630  135.5570 C   0  0  0  0  0  3  0  0  0  0  0  0
  183.0450  175.7040  135.4410 C   0  0  0  0  0  2  0  0  0  0  0  0
  182.3960  174.9060  136.5670 C   0  0  0  0  0  2  0  0  0  0  0  0
  181.3640  175.6670  137.1840 O   0  0  0  0  0  0  0  0  0  0  0  0
  180.9610  175.4430  138.5020 C   0  0  0  0  0  0  0  0  0  0  0  0
  181.7280  175.7060  139.4670 O   0  0  0  0  0  0  0  0  0  0  0  0
  179.5950  174.9080  138.7640 C   0  0  0  0  0  1  0  0  0  0  0  0
  191.3730  177.4520  142.4400 N   0  0  0  0  0  2  0  0  0  0  0  0
  191.5870  176.5650  143.5690 C   0  0  0  0  0  2  0  0  0  0  0  0
  191.7020  177.3210  144.7350 O   0  0  0  0  0  0  0  0  0  0  0  0
  190.6340  176.9080  145.5390 C   0  0  0  0  0  2  0  0  0  0  0  0
  189.5390  177.9650  145.5290 C   0  0  0  0  0  2  0  0  0  0  0  0
  188.3980  177.5590  146.4120 C   0  0  0  0  0  0  0  0  0  0  0  0
  187.2640  177.5280  145.9600 O   0  0  0  0  0  0  0  0  0  0  0  0
  188.6440  177.1440  147.8300 C   0  0  0  0  0  3  0  0  0  0  0  0
  187.9240  178.0920  148.7770 C   0  0  0  0  0  2  0  0  0  0  0  0
  189.4140  178.2220  148.5770 C   0  0  0  0  0  2  0  0  0  0  0  0
  1 18  1  6  0  0  0
  1  7  1  0  0  0  0
  1 38  1  0  0  0  0
  3  7  1  0  0  0  0
  4  6  2  0  0  0  0
  5  3  2  0  0  0  0
  5  4  1  0  0  0  0
  6  2  1  0  0  0  0
  7  2  2  0  0  0  0
  8  4  1  0  0  0  0
  9  8  1  1  0  0  0
  9 10  1  0  0  0  0
 10 12  1  0  0  0  0
 12 11  1  0  0  0  0
 13 11  1  0  0  0  0
 14 10  1  0  0  0  0
 14 13  1  0  0  0  0
 16 17  1  0  0  0  0
 17 15  1  6  0  0  0
 17  9  1  0  0  0  0
 19 18  1  0  0  0  0
 20 18  2  0  0  0  0
 21 19  1  0  0  0  0
 22 21  1  0  0  0  0
 23 28  1  0  0  0  0
 24 29  2  0  0  0  0
 24 27  1  0  0  0  0
 25 29  1  0  0  0  0
 26 28  2  0  0  0  0
 27 23  2  0  0  0  0
 28 22  1  0  0  0  0
 29 26  1  0  0  0  0
 30 24  1  0  0  0  0
 31 30  2  0  0  0  0
 32 31  1  0  0  0  0
 32 33  1  0  0  0  0
 33 34  1  0  0  0  0
 34 35  1  0  0  0  0
 35 37  1  0  0  0  0
 35 36  2  0  0  0  0
 38 39  1  0  0  0  0
 39 40  1  0  0  0  0
 40 41  1  0  0  0  0
 42 41  1  0  0  0  0
 42 43  1  0  0  0  0
 43 45  1  0  0  0  0
 44 43  2  0  0  0  0
 45 47  1  0  0  0  0
 45 46  1  0  0  0  0
 47 46  1  0  0  0  0
M  END
>  <MODEL>
2

>  <REMARK>
 VINA RESULT:      -6.6      2.707      9.020
  Name = 
  21 active torsions:
  status: ('A' for Active; 'I' for Inactive)
    1  A    between atoms: C_3  and  C_13
    2  A    between atoms: C_3  and  C_32
    3  A    between atoms: C_6  and  C_33
    4  A    between atoms: C_7  and  N_18
    5  A    between atoms: N_8  and  C_29
    6  A    between atoms: C_9  and  C_38
    7  A    between atoms: C_13  and  N_26
    8  A    between atoms: C_15  and  C_20
    9  A    between atoms: C_15  and  O_37
   10  A    between atoms: C_16  and  C_28
   11  A    between atoms: C_20  and  C_36
   12  A    between atoms: C_22  and  O_37
   13  A    between atoms: C_28  and  C_34
   14  A    between atoms: C_29  and  C_31
   15  A    between atoms: C_29  and  C_33
   16  A    between atoms: C_34  and  C_42
   17  A    between atoms: C_35  and  C_38
   18  A    between atoms: C_38  and  N_46
   19  A    between atoms: O_41  and  C_42
   20  A    between atoms: O_41  and  C_47
   21  A    between atoms: N_46  and  C_47
                            x       y       z     vdW  Elec       q    Type
                         _______ _______ _______ _____ _____    ______ ____

>  <TORSDO>
F 21

$$$$
=
 OpenBabel10222415503D

 47 50  0  0  1  0  0  0  0  0999 V2000
  191.0310  176.8750  141.8290 C   0  0  1  0  0  3  0  0  0  0  0  0
  188.9030  176.1970  143.0080 C   0  0  0  0  0  3  0  0  0  0  0  0
  188.8960  178.1480  141.5740 C   0  0  0  0  0  3  0  0  0  0  0  0
  186.8650  177.4790  142.7160 C   0  0  0  0  0  0  0  0  0  0  0  0
  187.5430  178.3530  141.8610 C   0  0  0  0  0  3  0  0  0  0  0  0
  187.5510  176.4040  143.2980 C   0  0  0  0  0  3  0  0  0  0  0  0
  189.5810  177.0710  142.1470 C   0  0  0  0  0  0  0  0  0  0  0  0
  185.4370  177.7480  143.0570 C   0  0  0  0  0  2  0  0  0  0  0  0
  185.0330  179.1980  142.7430 C   0  0  1  0  0  3  0  0  0  0  0  0
  184.1370  179.2170  141.5690 N   0  0  0  0  0  0  0  0  0  0  0  0
  184.3770  178.8390  139.3120 C   0  0  0  0  0  2  0  0  0  0  0  0
  184.8720  179.6230  140.4390 N   0  0  0  0  0  2  0  0  0  0  0  0
  183.5580  177.7560  139.8250 N   0  0  0  0  0  2  0  0  0  0  0  0
  183.7140  177.8530  141.2610 C   0  0  0  0  0  2  0  0  0  0  0  0
  184.8860  179.2320  145.2660 C   0  0  0  0  0  1  0  0  0  0  0  0
  182.9630  179.6180  143.9530 O   0  0  0  0  0  1  0  0  0  0  0  0
  184.3460  179.8250  143.9790 C   0  0  2  0  0  3  0  0  0  0  0  0
  191.2750  176.9160  140.3480 C   0  0  0  0  0  0  0  0  0  0  0  0
  190.5910  176.0190  139.4640 N   0  0  0  0  0  2  0  0  0  0  0  0
  192.1180  177.7330  139.8880 O   0  0  0  0  0  0  0  0  0  0  0  0
  190.9210  175.9100  138.0470 C   0  0  0  0  0  2  0  0  0  0  0  0
  190.2310  174.6990  137.4310 C   0  0  0  0  0  2  0  0  0  0  0  0
  188.6980  176.3120  136.2860 C   0  0  0  0  0  3  0  0  0  0  0  0
  186.3320  175.8120  136.0550 C   0  0  0  0  0  0  0  0  0  0  0  0
  185.4830  173.5840  136.9920 C   0  0  0  0  0  1  0  0  0  0  0  0
  187.8200  174.2620  137.1340 N   0  0  0  0  0  0  0  0  0  0  0  0
  187.4210  176.6650  135.8480 C   0  0  0  0  0  3  0  0  0  0  0  0
  188.8810  175.0930  136.9380 C   0  0  0  0  0  0  0  0  0  0  0  0
  186.5630  174.5770  136.7190 C   0  0  0  0  0  0  0  0  0  0  0  0
  185.0440  176.2680  135.6030 N   0  0  0  0  0  0  0  0  0  0  0  0
  184.1650  176.8740  136.3320 C   0  0  0  0  0  3  0  0  0  0  0  0
  182.8690  177.3200  135.7480 C   0  0  0  0  0  2  0  0  0  0  0  0
  181.7480  176.3620  136.1330 C   0  0  0  0  0  2  0  0  0  0  0  0
  182.0670  175.6850  137.3440 O   0  0  0  0  0  0  0  0  0  0  0  0
  181.2110  174.7420  137.9170 C   0  0  0  0  0  0  0  0  0  0  0  0
  180.4850  175.0420  138.9030 O   0  0  0  0  0  0  0  0  0  0  0  0
  181.1430  173.3730  137.3360 C   0  0  0  0  0  1  0  0  0  0  0  0
  191.8300  177.8680  142.5320 N   0  0  0  0  0  2  0  0  0  0  0  0
  191.6070  177.6660  143.9530 C   0  0  0  0  0  2  0  0  0  0  0  0
  192.0660  176.4000  144.3160 O   0  0  0  0  0  0  0  0  0  0  0  0
  191.5940  176.2060  145.6180 C   0  0  0  0  0  2  0  0  0  0  0  0
  190.5010  177.2190  145.9290 C   0  0  0  0  0  2  0  0  0  0  0  0
  190.0930  177.1390  147.3690 C   0  0  0  0  0  0  0  0  0  0  0  0
  190.9260  177.3150  148.2450 O   0  0  0  0  0  0  0  0  0  0  0  0
  188.6640  176.8930  147.7420 C   0  0  0  0  0  3  0  0  0  0  0  0
  187.7900  178.0160  147.2030 C   0  0  0  0  0  2  0  0  0  0  0  0
  188.1560  177.9890  148.6670 C   0  0  0  0  0  2  0  0  0  0  0  0
  1 18  1  6  0  0  0
  1  7  1  0  0  0  0
  1 38  1  0  0  0  0
  2  6  1  0  0  0  0
  3  5  2  0  0  0  0
  3  7  1  0  0  0  0
  4  8  1  0  0  0  0
  4  6  2  0  0  0  0
  5  4  1  0  0  0  0
  7  2  2  0  0  0  0
  9  8  1  1  0  0  0
  9 17  1  0  0  0  0
 10  9  1  0  0  0  0
 11 13  1  0  0  0  0
 11 12  1  0  0  0  0
 12 10  1  0  0  0  0
 13 14  1  0  0  0  0
 14 10  1  0  0  0  0
 16 17  1  0  0  0  0
 17 15  1  1  0  0  0
 19 18  1  0  0  0  0
 20 18  2  0  0  0  0
 21 19  1  0  0  0  0
 22 21  1  0  0  0  0
 23 28  1  0  0  0  0
 24 29  2  0  0  0  0
 27 24  1  0  0  0  0
 27 23  2  0  0  0  0
 28 26  2  0  0  0  0
 28 22  1  0  0  0  0
 29 25  1  0  0  0  0
 29 26  1  0  0  0  0
 30 24  1  0  0  0  0
 30 31  2  0  0  0  0
 32 33  1  0  0  0  0
 32 31  1  0  0  0  0
 33 34  1  0  0  0  0
 34 35  1  0  0  0  0
 35 36  2  0  0  0  0
 37 35  1  0  0  0  0
 38 39  1  0  0  0  0
 39 40  1  0  0  0  0
 40 41  1  0  0  0  0
 41 42  1  0  0  0  0
 42 43  1  0  0  0  0
 43 45  1  0  0  0  0
 43 44  2  0  0  0  0
 45 47  1  0  0  0  0
 46 45  1  0  0  0  0
 46 47  1  0  0  0  0
M  END
>  <MODEL>
3

>  <REMARK>
 VINA RESULT:      -6.6      2.920      9.030
  Name = 
  21 active torsions:
  status: ('A' for Active; 'I' for Inactive)
    1  A    between atoms: C_3  and  C_13
    2  A    between atoms: C_3  and  C_32
    3  A    between atoms: C_6  and  C_33
    4  A    between atoms: C_7  and  N_18
    5  A    between atoms: N_8  and  C_29
    6  A    between atoms: C_9  and  C_38
    7  A    between atoms: C_13  and  N_26
    8  A    between atoms: C_15  and  C_20
    9  A    between atoms: C_15  and  O_37
   10  A    between atoms: C_16  and  C_28
   11  A    between atoms: C_20  and  C_36
   12  A    between atoms: C_22  and  O_37
   13  A    between atoms: C_28  and  C_34
   14  A    between atoms: C_29  and  C_31
   15  A    between atoms: C_29  and  C_33
   16  A    between atoms: C_34  and  C_42
   17  A    between atoms: C_35  and  C_38
   18  A    between atoms: C_38  and  N_46
   19  A    between atoms: O_41  and  C_42
   20  A    between atoms: O_41  and  C_47
   21  A    between atoms: N_46  and  C_47
                            x       y       z     vdW  Elec       q    Type
                         _______ _______ _______ _____ _____    ______ ____

>  <TORSDO>
F 21

$$$$
=
 OpenBabel10222415503D

 47 50  0  0  1  0  0  0  0  0999 V2000
  184.2260  179.1340  141.1620 C   0  0  1  0  0  3  0  0  0  0  0  0
  186.7040  178.6500  141.2330 C   0  0  0  0  0  3  0  0  0  0  0  0
  185.2960  177.8970  143.0530 C   0  0  0  0  0  3  0  0  0  0  0  0
  187.6760  177.4430  143.1000 C   0  0  0  0  0  0  0  0  0  0  0  0
  186.4130  177.3480  143.6900 C   0  0  0  0  0  3  0  0  0  0  0  0
  187.8220  178.1040  141.8720 C   0  0  0  0  0  3  0  0  0  0  0  0
  185.4370  178.5500  141.8240 C   0  0  0  0  0  0  0  0  0  0  0  0
  188.8660  176.9040  143.8230 C   0  0  0  0  0  2  0  0  0  0  0  0
  189.3280  177.8420  144.9500 C   0  0  1  0  0  3  0  0  0  0  0  0
  188.9270  177.2790  146.2550 N   0  0  0  0  0  0  0  0  0  0  0  0
  189.1420  177.9150  148.4560 C   0  0  0  0  0  2  0  0  0  0  0  0
  189.8780  177.6470  147.2250 N   0  0  0  0  0  2  0  0  0  0  0  0
  187.7280  177.9970  148.1420 N   0  0  0  0  0  2  0  0  0  0  0  0
  187.6880  177.9150  146.6960 C   0  0  0  0  0  2  0  0  0  0  0  0
  191.2240  179.2050  143.9830 C   0  0  0  0  0  1  0  0  0  0  0  0
  191.4910  176.8900  144.3640 O   0  0  0  0  0  1  0  0  0  0  0  0
  190.8620  178.0310  144.8730 C   0  0  2  0  0  3  0  0  0  0  0  0
  184.3560  179.1060  139.6670 C   0  0  0  0  0  0  0  0  0  0  0  0
  184.2960  177.8680  138.9460 N   0  0  0  0  0  2  0  0  0  0  0  0
  184.5520  180.1860  139.0480 O   0  0  0  0  0  0  0  0  0  0  0  0
  184.5840  177.7760  137.5190 C   0  0  0  0  0  2  0  0  0  0  0  0
  185.1940  176.4200  137.1850 C   0  0  0  0  0  2  0  0  0  0  0  0
  187.2960  177.7200  137.5750 C   0  0  0  0  0  3  0  0  0  0  0  0
  189.4640  176.6370  137.4100 C   0  0  0  0  0  0  0  0  0  0  0  0
  189.5130  174.1360  136.8570 C   0  0  0  0  0  1  0  0  0  0  0  0
  187.4350  175.3960  137.0600 N   0  0  0  0  0  0  0  0  0  0  0  0
  188.6890  177.7790  137.6400 C   0  0  0  0  0  3  0  0  0  0  0  0
  186.6780  176.5060  137.2770 C   0  0  0  0  0  0  0  0  0  0  0  0
  188.7940  175.4190  137.1150 C   0  0  0  0  0  0  0  0  0  0  0  0
  190.8940  176.7920  137.4620 N   0  0  0  0  0  0  0  0  0  0  0  0
  191.6720  176.2770  138.3570 C   0  0  0  0  0  3  0  0  0  0  0  0
  193.1450  176.4880  138.2970 C   0  0  0  0  0  2  0  0  0  0  0  0
  193.7850  175.5330  137.2950 C   0  0  0  0  0  2  0  0  0  0  0  0
  193.8380  174.2150  137.8290 O   0  0  0  0  0  0  0  0  0  0  0  0
  194.9990  173.6890  138.3990 C   0  0  0  0  0  0  0  0  0  0  0  0
  195.7300  174.3940  139.1460 O   0  0  0  0  0  0  0  0  0  0  0  0
  195.3600  172.2680  138.1360 C   0  0  0  0  0  1  0  0  0  0  0  0
  183.0320  178.4330  141.6110 N   0  0  0  0  0  2  0  0  0  0  0  0
  181.8950  179.0830  140.9840 C   0  0  0  0  0  2  0  0  0  0  0  0
  180.7160  178.5830  141.5360 O   0  0  0  0  0  0  0  0  0  0  0  0
  179.8770  178.3480  140.4410 C   0  0  0  0  0  2  0  0  0  0  0  0
  180.6600  177.6710  139.3250 C   0  0  0  0  0  2  0  0  0  0  0  0
  180.6890  176.1850  139.5200 C   0  0  0  0  0  0  0  0  0  0  0  0
  181.7590  175.6140  139.6620 O   0  0  0  0  0  0  0  0  0  0  0  0
  179.4140  175.4030  139.5900 C   0  0  0  0  0  3  0  0  0  0  0  0
  179.4480  174.4680  140.7900 C   0  0  0  0  0  2  0  0  0  0  0  0
  179.6870  173.9170  139.4050 C   0  0  0  0  0  2  0  0  0  0  0  0
  1 18  1  6  0  0  0
  1 38  1  0  0  0  0
  1  7  1  0  0  0  0
  2  7  2  0  0  0  0
  2  6  1  0  0  0  0
  3  5  2  0  0  0  0
  4  5  1  0  0  0  0
  4  8  1  0  0  0  0
  6  4  2  0  0  0  0
  7  3  1  0  0  0  0
  9  8  1  6  0  0  0
  9 10  1  0  0  0  0
 10 14  1  0  0  0  0
 10 12  1  0  0  0  0
 12 11  1  0  0  0  0
 13 11  1  0  0  0  0
 14 13  1  0  0  0  0
 16 17  1  0  0  0  0
 17 15  1  6  0  0  0
 17  9  1  0  0  0  0
 19 18  1  0  0  0  0
 20 18  2  0  0  0  0
 21 19  1  0  0  0  0
 22 28  1  0  0  0  0
 22 21  1  0  0  0  0
 23 27  1  0  0  0  0
 24 30  1  0  0  0  0
 24 27  2  0  0  0  0
 25 29  1  0  0  0  0
 26 29  2  0  0  0  0
 26 28  1  0  0  0  0
 28 23  2  0  0  0  0
 29 24  1  0  0  0  0
 30 31  2  0  0  0  0
 32 31  1  0  0  0  0
 33 34  1  0  0  0  0
 33 32  1  0  0  0  0
 34 35  1  0  0  0  0
 35 36  2  0  0  0  0
 37 35  1  0  0  0  0
 39 40  1  0  0  0  0
 39 38  1  0  0  0  0
 41 40  1  0  0  0  0
 42 43  1  0  0  0  0
 42 41  1  0  0  0  0
 43 45  1  0  0  0  0
 43 44  2  0  0  0  0
 45 46  1  0  0  0  0
 47 45  1  0  0  0  0
 47 46  1  0  0  0  0
M  END
>  <MODEL>
4

>  <REMARK>
 VINA RESULT:      -6.5      1.526      2.391
  Name = 
  21 active torsions:
  status: ('A' for Active; 'I' for Inactive)
    1  A    between atoms: C_3  and  C_13
    2  A    between atoms: C_3  and  C_32
    3  A    between atoms: C_6  and  C_33
    4  A    between atoms: C_7  and  N_18
    5  A    between atoms: N_8  and  C_29
    6  A    between atoms: C_9  and  C_38
    7  A    between atoms: C_13  and  N_26
    8  A    between atoms: C_15  and  C_20
    9  A    between atoms: C_15  and  O_37
   10  A    between atoms: C_16  and  C_28
   11  A    between atoms: C_20  and  C_36
   12  A    between atoms: C_22  and  O_37
   13  A    between atoms: C_28  and  C_34
   14  A    between atoms: C_29  and  C_31
   15  A    between atoms: C_29  and  C_33
   16  A    between atoms: C_34  and  C_42
   17  A    between atoms: C_35  and  C_38
   18  A    between atoms: C_38  and  N_46
   19  A    between atoms: O_41  and  C_42
   20  A    between atoms: O_41  and  C_47
   21  A    between atoms: N_46  and  C_47
                            x       y       z     vdW  Elec       q    Type
                         _______ _______ _______ _____ _____    ______ ____

>  <TORSDO>
F 21

$$$$
=
 OpenBabel10222415503D

 47 50  0  0  1  0  0  0  0  0999 V2000
  183.3890  179.2070  143.4120 C   0  0  1  0  0  3  0  0  0  0  0  0
  183.0540  178.5090  141.0080 C   0  0  0  0  0  3  0  0  0  0  0  0
  185.2680  179.1260  141.7670 C   0  0  0  0  0  3  0  0  0  0  0  0
  184.9240  178.4520  139.4640 C   0  0  0  0  0  0  0  0  0  0  0  0
  185.7740  178.8860  140.4850 C   0  0  0  0  0  3  0  0  0  0  0  0
  183.5580  178.2720  139.7260 C   0  0  0  0  0  3  0  0  0  0  0  0
  183.9080  178.9390  142.0330 C   0  0  0  0  0  0  0  0  0  0  0  0
  185.4690  178.2580  138.0880 C   0  0  0  0  0  2  0  0  0  0  0  0
  186.7810  177.4560  138.0970 C   0  0  1  0  0  3  0  0  0  0  0  0
  186.5950  176.1990  137.3430 N   0  0  0  0  0  0  0  0  0  0  0  0
  186.0060  175.6480  135.1890 C   0  0  0  0  0  2  0  0  0  0  0  0
  185.5930  176.3910  136.3740 N   0  0  0  0  0  2  0  0  0  0  0  0
  187.3950  175.2600  135.3450 N   0  0  0  0  0  2  0  0  0  0  0  0
  187.8030  175.9160  136.5710 C   0  0  0  0  0  2  0  0  0  0  0  0
  188.9820  178.6240  138.5210 C   0  0  0  0  0  1  0  0  0  0  0  0
  187.4300  179.5200  136.9830 O   0  0  0  0  0  1  0  0  0  0  0  0
  187.9170  178.3100  137.4870 C   0  0  2  0  0  3  0  0  0  0  0  0
  181.8940  179.0830  143.4650 C   0  0  0  0  0  0  0  0  0  0  0  0
  181.0510  180.0800  142.8740 N   0  0  0  0  0  2  0  0  0  0  0  0
  181.3820  178.1020  144.0690 O   0  0  0  0  0  0  0  0  0  0  0  0
  179.6020  180.0860  143.0480 C   0  0  0  0  0  2  0  0  0  0  0  0
  178.9340  180.8640  141.9210 C   0  0  0  0  0  2  0  0  0  0  0  0
  179.2610  179.0260  140.2550 C   0  0  0  0  0  3  0  0  0  0  0  0
  180.4040  179.4540  138.1550 C   0  0  0  0  0  0  0  0  0  0  0  0
  181.2260  181.8390  137.7050 C   0  0  0  0  0  1  0  0  0  0  0  0
  180.0630  181.2160  139.7560 N   0  0  0  0  0  0  0  0  0  0  0  0
  179.7500  178.5780  139.0270 C   0  0  0  0  0  3  0  0  0  0  0  0
  179.4320  180.3640  140.6090 C   0  0  0  0  0  0  0  0  0  0  0  0
  180.5520  180.8110  138.5520 C   0  0  0  0  0  0  0  0  0  0  0  0
  180.9080  178.9040  136.9240 N   0  0  0  0  0  0  0  0  0  0  0  0
  181.7810  177.9550  136.8290 C   0  0  0  0  0  3  0  0  0  0  0  0
  182.2140  177.4490  135.4970 C   0  0  0  0  0  2  0  0  0  0  0  0
  181.9280  175.9580  135.3690 C   0  0  0  0  0  2  0  0  0  0  0  0
  181.6680  175.3900  136.6480 O   0  0  0  0  0  0  0  0  0  0  0  0
  182.5540  174.5040  137.2620 C   0  0  0  0  0  0  0  0  0  0  0  0
  183.3680  174.9040  138.1380 O   0  0  0  0  0  0  0  0  0  0  0  0
  182.5170  173.0610  136.8900 C   0  0  0  0  0  1  0  0  0  0  0  0
  184.0360  178.3170  144.3650 N   0  0  0  0  0  2  0  0  0  0  0  0
  184.8340  179.1470  145.2500 C   0  0  0  0  0  2  0  0  0  0  0  0
  184.6580  178.7190  146.5660 O   0  0  0  0  0  0  0  0  0  0  0  0
  185.9510  178.6340  147.0930 C   0  0  0  0  0  2  0  0  0  0  0  0
  186.7540  177.5920  146.3280 C   0  0  0  0  0  2  0  0  0  0  0  0
  188.2060  177.6640  146.6930 C   0  0  0  0  0  0  0  0  0  0  0  0
  188.5380  178.1520  147.7630 O   0  0  0  0  0  0  0  0  0  0  0  0
  189.2490  177.0970  145.7800 C   0  0  0  0  0  3  0  0  0  0  0  0
  189.9040  178.2180  144.9880 C   0  0  0  0  0  2  0  0  0  0  0  0
  188.8730  177.3370  144.3260 C   0  0  0  0  0  2  0  0  0  0  0  0
  1 18  1  6  0  0  0
  1 38  1  0  0  0  0
  2  7  1  0  0  0  0
  3  7  2  0  0  0  0
  4  6  1  0  0  0  0
  4  5  2  0  0  0  0
  5  3  1  0  0  0  0
  6  2  2  0  0  0  0
  7  1  1  0  0  0  0
  8  4  1  0  0  0  0
  9  8  1  6  0  0  0
 10  9  1  0  0  0  0
 11 13  1  0  0  0  0
 11 12  1  0  0  0  0
 12 10  1  0  0  0  0
 13 14  1  0  0  0  0
 14 10  1  0  0  0  0
 16 17  1  0  0  0  0
 17  9  1  0  0  0  0
 17 15  1  1  0  0  0
 18 20  2  0  0  0  0
 19 21  1  0  0  0  0
 19 18  1  0  0  0  0
 22 21  1  0  0  0  0
 23 28  1  0  0  0  0
 24 29  2  0  0  0  0
 24 27  1  0  0  0  0
 25 29  1  0  0  0  0
 26 28  2  0  0  0  0
 27 23  2  0  0  0  0
 28 22  1  0  0  0  0
 29 26  1  0  0  0  0
 30 24  1  0  0  0  0
 31 30  2  0  0  0  0
 32 31  1  0  0  0  0
 33 32  1  0  0  0  0
 33 34  1  0  0  0  0
 34 35  1  0  0  0  0
 35 36  2  0  0  0  0
 37 35  1  0  0  0  0
 38 39  1  0  0  0  0
 39 40  1  0  0  0  0
 40 41  1  0  0  0  0
 42 43  1  0  0  0  0
 42 41  1  0  0  0  0
 43 44  2  0  0  0  0
 45 43  1  0  0  0  0
 46 45  1  0  0  0  0
 47 46  1  0  0  0  0
 47 45  1  0  0  0  0
M  END
>  <MODEL>
5

>  <REMARK>
 VINA RESULT:      -6.3      3.926      9.140
  Name = 
  21 active torsions:
  status: ('A' for Active; 'I' for Inactive)
    1  A    between atoms: C_3  and  C_13
    2  A    between atoms: C_3  and  C_32
    3  A    between atoms: C_6  and  C_33
    4  A    between atoms: C_7  and  N_18
    5  A    between atoms: N_8  and  C_29
    6  A    between atoms: C_9  and  C_38
    7  A    between atoms: C_13  and  N_26
    8  A    between atoms: C_15  and  C_20
    9  A    between atoms: C_15  and  O_37
   10  A    between atoms: C_16  and  C_28
   11  A    between atoms: C_20  and  C_36
   12  A    between atoms: C_22  and  O_37
   13  A    between atoms: C_28  and  C_34
   14  A    between atoms: C_29  and  C_31
   15  A    between atoms: C_29  and  C_33
   16  A    between atoms: C_34  and  C_42
   17  A    between atoms: C_35  and  C_38
   18  A    between atoms: C_38  and  N_46
   19  A    between atoms: O_41  and  C_42
   20  A    between atoms: O_41  and  C_47
   21  A    between atoms: N_46  and  C_47
                            x       y       z     vdW  Elec       q    Type
                         _______ _______ _______ _____ _____    ______ ____

>  <TORSDO>
F 21

$$$$
=
 OpenBabel10222415503D

 47 50  0  0  1  0  0  0  0  0999 V2000
  186.6110  176.9920  136.0950 C   0  0  1  0  0  3  0  0  0  0  0  0
  184.9000  177.4070  137.9060 C   0  0  0  0  0  3  0  0  0  0  0  0
  184.1660  177.1740  135.6100 C   0  0  0  0  0  3  0  0  0  0  0  0
  182.5410  177.5730  137.3640 C   0  0  0  0  0  0  0  0  0  0  0  0
  182.8410  177.3660  136.0140 C   0  0  0  0  0  3  0  0  0  0  0  0
  183.5760  177.6020  138.3100 C   0  0  0  0  0  3  0  0  0  0  0  0
  185.2000  177.1950  136.5530 C   0  0  0  0  0  0  0  0  0  0  0  0
  181.1290  177.8350  137.7690 C   0  0  0  0  0  2  0  0  0  0  0  0
  181.0420  178.7920  138.9690 C   0  0  1  0  0  3  0  0  0  0  0  0
  180.3460  180.0300  138.5620 N   0  0  0  0  0  0  0  0  0  0  0  0
  180.9920  182.1290  137.8770 C   0  0  0  0  0  2  0  0  0  0  0  0
  181.1260  181.1390  138.9400 N   0  0  0  0  0  2  0  0  0  0  0  0
  180.3750  181.4940  136.7270 N   0  0  0  0  0  2  0  0  0  0  0  0
  180.2930  180.0980  137.1040 C   0  0  0  0  0  2  0  0  0  0  0  0
  180.4960  176.5930  140.0880 C   0  0  0  0  0  1  0  0  0  0  0  0
  178.9320  178.3610  140.1030 O   0  0  0  0  0  1  0  0  0  0  0  0
  180.3050  178.0970  140.1380 C   0  0  2  0  0  3  0  0  0  0  0  0
  187.5630  177.8670  136.8580 C   0  0  0  0  0  0  0  0  0  0  0  0
  188.6100  177.2980  137.6540 N   0  0  0  0  0  2  0  0  0  0  0  0
  187.4110  179.1180  136.8180 O   0  0  0  0  0  0  0  0  0  0  0  0
  189.4460  178.1000  138.5400 C   0  0  0  0  0  2  0  0  0  0  0  0
  190.3260  177.2000  139.4010 C   0  0  0  0  0  2  0  0  0  0  0  0
  188.6990  177.9100  141.1640 C   0  0  0  0  0  3  0  0  0  0  0  0
  189.2050  177.5760  143.5160 C   0  0  0  0  0  0  0  0  0  0  0  0
  191.4300  176.4540  144.1120 C   0  0  0  0  0  1  0  0  0  0  0  0
  190.7500  176.8780  141.8100 N   0  0  0  0  0  0  0  0  0  0  0  0
  188.3480  178.0320  142.5090 C   0  0  0  0  0  3  0  0  0  0  0  0
  189.9200  177.3260  140.8290 C   0  0  0  0  0  0  0  0  0  0  0  0
  190.4380  176.9820  143.1300 C   0  0  0  0  0  0  0  0  0  0  0  0
  188.7830  177.7700  144.8780 N   0  0  0  0  0  0  0  0  0  0  0  0
  187.6470  177.4010  145.3710 C   0  0  0  0  0  3  0  0  0  0  0  0
  187.3270  177.6380  146.8070 C   0  0  0  0  0  2  0  0  0  0  0  0
  186.0860  178.5110  146.9440 C   0  0  0  0  0  2  0  0  0  0  0  0
  185.8200  179.1910  145.7220 O   0  0  0  0  0  0  0  0  0  0  0  0
  184.5890  179.0960  145.0710 C   0  0  0  0  0  0  0  0  0  0  0  0
  183.5090  179.1140  145.7210 O   0  0  0  0  0  0  0  0  0  0  0  0
  184.5570  178.9960  143.5850 C   0  0  0  0  0  1  0  0  0  0  0  0
  186.9690  175.5850  136.2070 N   0  0  0  0  0  2  0  0  0  0  0  0
  187.2780  175.1160  134.8680 C   0  0  0  0  0  2  0  0  0  0  0  0
  187.2730  173.7210  134.8550 O   0  0  0  0  0  0  0  0  0  0  0  0
  186.8500  173.3520  136.1370 C   0  0  0  0  0  2  0  0  0  0  0  0
  186.1130  172.0210  136.0740 C   0  0  0  0  0  2  0  0  0  0  0  0
  184.6480  172.2090  136.3330 C   0  0  0  0  0  0  0  0  0  0  0  0
  183.9350  171.2340  136.5100 O   0  0  0  0  0  0  0  0  0  0  0  0
  184.0630  173.5840  136.4230 C   0  0  0  0  0  3  0  0  0  0  0  0
  183.8630  173.9640  137.8830 C   0  0  0  0  0  2  0  0  0  0  0  0
  182.6780  173.5360  137.0510 C   0  0  0  0  0  2  0  0  0  0  0  0
  1 38  1  1  0  0  0
  1  7  1  0  0  0  0
  1 18  1  0  0  0  0
  2  6  1  0  0  0  0
  3  5  2  0  0  0  0
  3  7  1  0  0  0  0
  4  8  1  0  0  0  0
  4  6  2  0  0  0  0
  5  4  1  0  0  0  0
  7  2  2  0  0  0  0
  9  8  1  6  0  0  0
  9 17  1  0  0  0  0
 10 12  1  0  0  0  0
 10  9  1  0  0  0  0
 11 12  1  0  0  0  0
 13 14  1  0  0  0  0
 13 11  1  0  0  0  0
 14 10  1  0  0  0  0
 16 17  1  0  0  0  0
 17 15  1  6  0  0  0
 18 19  1  0  0  0  0
 19 21  1  0  0  0  0
 20 18  2  0  0  0  0
 21 22  1  0  0  0  0
 22 28  1  0  0  0  0
 23 27  1  0  0  0  0
 24 30  1  0  0  0  0
 26 29  2  0  0  0  0
 27 24  2  0  0  0  0
 28 23  2  0  0  0  0
 28 26  1  0  0  0  0
 29 24  1  0  0  0  0
 29 25  1  0  0  0  0
 30 31  2  0  0  0  0
 31 32  1  0  0  0  0
 32 33  1  0  0  0  0
 34 33  1  0  0  0  0
 35 36  2  0  0  0  0
 35 34  1  0  0  0  0
 37 35  1  0  0  0  0
 39 38  1  0  0  0  0
 40 39  1  0  0  0  0
 40 41  1  0  0  0  0
 42 41  1  0  0  0  0
 42 43  1  0  0  0  0
 43 45  1  0  0  0  0
 43 44  2  0  0  0  0
 45 47  1  0  0  0  0
 45 46  1  0  0  0  0
 47 46  1  0  0  0  0
M  END
>  <MODEL>
6

>  <REMARK>
 VINA RESULT:      -6.2      3.339      9.438
  Name = 
  21 active torsions:
  status: ('A' for Active; 'I' for Inactive)
    1  A    between atoms: C_3  and  C_13
    2  A    between atoms: C_3  and  C_32
    3  A    between atoms: C_6  and  C_33
    4  A    between atoms: C_7  and  N_18
    5  A    between atoms: N_8  and  C_29
    6  A    between atoms: C_9  and  C_38
    7  A    between atoms: C_13  and  N_26
    8  A    between atoms: C_15  and  C_20
    9  A    between atoms: C_15  and  O_37
   10  A    between atoms: C_16  and  C_28
   11  A    between atoms: C_20  and  C_36
   12  A    between atoms: C_22  and  O_37
   13  A    between atoms: C_28  and  C_34
   14  A    between atoms: C_29  and  C_31
   15  A    between atoms: C_29  and  C_33
   16  A    between atoms: C_34  and  C_42
   17  A    between atoms: C_35  and  C_38
   18  A    between atoms: C_38  and  N_46
   19  A    between atoms: O_41  and  C_42
   20  A    between atoms: O_41  and  C_47
   21  A    between atoms: N_46  and  C_47
                            x       y       z     vdW  Elec       q    Type
                         _______ _______ _______ _____ _____    ______ ____

>  <TORSDO>
F 21

$$$$
=
 OpenBabel10222415503D

 47 50  0  0  1  0  0  0  0  0999 V2000
  183.8810  179.1940  143.4500 C   0  0  1  0  0  3  0  0  0  0  0  0
  185.7330  179.0130  141.7420 C   0  0  0  0  0  3  0  0  0  0  0  0
  183.4460  178.6080  141.0590 C   0  0  0  0  0  3  0  0  0  0  0  0
  185.2400  178.4400  139.4370 C   0  0  0  0  0  0  0  0  0  0  0  0
  183.8800  178.3580  139.7540 C   0  0  0  0  0  3  0  0  0  0  0  0
  186.1690  178.7600  140.4380 C   0  0  0  0  0  3  0  0  0  0  0  0
  184.3690  178.9350  142.0570 C   0  0  0  0  0  0  0  0  0  0  0  0
  185.6910  178.1120  138.0530 C   0  0  0  0  0  2  0  0  0  0  0  0
  187.0230  177.3440  138.0490 C   0  0  1  0  0  3  0  0  0  0  0  0
  186.8540  176.0690  137.3220 N   0  0  0  0  0  0  0  0  0  0  0  0
  186.1190  175.4550  135.2300 C   0  0  0  0  0  2  0  0  0  0  0  0
  185.7620  176.1850  136.4410 N   0  0  0  0  0  2  0  0  0  0  0  0
  187.5390  175.1560  135.2700 N   0  0  0  0  0  2  0  0  0  0  0  0
  188.0070  175.8520  136.4510 C   0  0  0  0  0  2  0  0  0  0  0  0
  189.1720  178.6210  138.4150 C   0  0  0  0  0  1  0  0  0  0  0  0
  187.5870  179.3790  136.8380 O   0  0  0  0  0  1  0  0  0  0  0  0
  188.1240  178.2150  137.3980 C   0  0  2  0  0  3  0  0  0  0  0  0
  182.3880  179.0590  143.5370 C   0  0  0  0  0  0  0  0  0  0  0  0
  181.5250  179.9270  142.7910 N   0  0  0  0  0  2  0  0  0  0  0  0
  181.8960  178.1890  144.3050 O   0  0  0  0  0  0  0  0  0  0  0  0
  180.0780  179.9420  142.9740 C   0  0  0  0  0  2  0  0  0  0  0  0
  179.3740  180.1490  141.6390 C   0  0  0  0  0  2  0  0  0  0  0  0
  179.5680  177.7070  141.1270 C   0  0  0  0  0  3  0  0  0  0  0  0
  180.4070  176.9610  138.9730 C   0  0  0  0  0  0  0  0  0  0  0  0
  181.0490  178.7500  137.2550 C   0  0  0  0  0  1  0  0  0  0  0  0
  180.1940  179.3040  139.4700 N   0  0  0  0  0  0  0  0  0  0  0  0
  179.9140  176.6770  140.2510 C   0  0  0  0  0  3  0  0  0  0  0  0
  179.7200  179.0310  140.7160 C   0  0  0  0  0  0  0  0  0  0  0  0
  180.5410  178.3240  138.5920 C   0  0  0  0  0  0  0  0  0  0  0  0
  180.7720  175.8420  138.1450 N   0  0  0  0  0  0  0  0  0  0  0  0
  179.9600  174.9360  137.7080 C   0  0  0  0  0  3  0  0  0  0  0  0
  180.4500  173.8310  136.8370 C   0  0  0  0  0  2  0  0  0  0  0  0
  181.9170  173.5330  137.1210 C   0  0  0  0  0  2  0  0  0  0  0  0
  182.1420  172.1270  137.1490 O   0  0  0  0  0  0  0  0  0  0  0  0
  183.3850  171.5670  136.8490 C   0  0  0  0  0  0  0  0  0  0  0  0
  184.4530  172.1220  137.2240 O   0  0  0  0  0  0  0  0  0  0  0  0
  183.4420  170.2840  136.0950 C   0  0  0  0  0  1  0  0  0  0  0  0
  184.5560  178.3050  144.3830 N   0  0  0  0  0  2  0  0  0  0  0  0
  185.0310  179.1230  145.4850 C   0  0  0  0  0  2  0  0  0  0  0  0
  185.7390  178.3240  146.3810 O   0  0  0  0  0  0  0  0  0  0  0  0
  186.4860  177.4560  145.5780 C   0  0  0  0  0  2  0  0  0  0  0  0
  187.9510  177.5000  145.9900 C   0  0  0  0  0  2  0  0  0  0  0  0
  188.8410  177.1570  144.8340 C   0  0  0  0  0  0  0  0  0  0  0  0
  189.9950  176.8120  145.0400 O   0  0  0  0  0  0  0  0  0  0  0  0
  188.3130  177.1860  143.4330 C   0  0  0  0  0  3  0  0  0  0  0  0
  189.2310  176.3870  142.5200 C   0  0  0  0  0  2  0  0  0  0  0  0
  189.2910  177.8950  142.5080 C   0  0  0  0  0  2  0  0  0  0  0  0
  1 18  1  6  0  0  0
  1 38  1  0  0  0  0
  2  7  1  0  0  0  0
  3  7  2  0  0  0  0
  4  5  2  0  0  0  0
  4  6  1  0  0  0  0
  5  3  1  0  0  0  0
  6  2  2  0  0  0  0
  7  1  1  0  0  0  0
  8  4  1  0  0  0  0
  9  8  1  6  0  0  0
 10  9  1  0  0  0  0
 11 13  1  0  0  0  0
 11 12  1  0  0  0  0
 12 10  1  0  0  0  0
 13 14  1  0  0  0  0
 14 10  1  0  0  0  0
 16 17  1  0  0  0  0
 17  9  1  0  0  0  0
 17 15  1  1  0  0  0
 18 20  2  0  0  0  0
 19 21  1  0  0  0  0
 19 18  1  0  0  0  0
 22 21  1  0  0  0  0
 24 27  1  0  0  0  0
 25 29  1  0  0  0  0
 26 28  2  0  0  0  0
 27 23  2  0  0  0  0
 28 23  1  0  0  0  0
 28 22  1  0  0  0  0
 29 24  2  0  0  0  0
 29 26  1  0  0  0  0
 30 24  1  0  0  0  0
 31 30  2  0  0  0  0
 32 33  1  0  0  0  0
 32 31  1  0  0  0  0
 33 34  1  0  0  0  0
 35 34  1  0  0  0  0
 35 36  2  0  0  0  0
 37 35  1  0  0  0  0
 38 39  1  0  0  0  0
 39 40  1  0  0  0  0
 41 42  1  0  0  0  0
 41 40  1  0  0  0  0
 43 44  2  0  0  0  0
 43 42  1  0  0  0  0
 45 43  1  0  0  0  0
 46 45  1  0  0  0  0
 47 46  1  0  0  0  0
 47 45  1  0  0  0  0
M  END
>  <MODEL>
7

>  <REMARK>
 VINA RESULT:      -6.0      3.779      8.922
  Name = 
  21 active torsions:
  status: ('A' for Active; 'I' for Inactive)
    1  A    between atoms: C_3  and  C_13
    2  A    between atoms: C_3  and  C_32
    3  A    between atoms: C_6  and  C_33
    4  A    between atoms: C_7  and  N_18
    5  A    between atoms: N_8  and  C_29
    6  A    between atoms: C_9  and  C_38
    7  A    between atoms: C_13  and  N_26
    8  A    between atoms: C_15  and  C_20
    9  A    between atoms: C_15  and  O_37
   10  A    between atoms: C_16  and  C_28
   11  A    between atoms: C_20  and  C_36
   12  A    between atoms: C_22  and  O_37
   13  A    between atoms: C_28  and  C_34
   14  A    between atoms: C_29  and  C_31
   15  A    between atoms: C_29  and  C_33
   16  A    between atoms: C_34  and  C_42
   17  A    between atoms: C_35  and  C_38
   18  A    between atoms: C_38  and  N_46
   19  A    between atoms: O_41  and  C_42
   20  A    between atoms: O_41  and  C_47
   21  A    between atoms: N_46  and  C_47
                            x       y       z     vdW  Elec       q    Type
                         _______ _______ _______ _____ _____    ______ ____

>  <TORSDO>
F 21

$$$$
=
 OpenBabel10222415503D

 47 50  0  0  1  0  0  0  0  0999 V2000
  189.6010  177.0770  139.8850 C   0  0  1  0  0  3  0  0  0  0  0  0
  192.0730  177.1810  139.3760 C   0  0  0  0  0  3  0  0  0  0  0  0
  190.7160  175.4750  138.3240 C   0  0  0  0  0  3  0  0  0  0  0  0
  193.0910  175.5940  137.8500 C   0  0  0  0  0  0  0  0  0  0  0  0
  191.8460  174.9850  137.6620 C   0  0  0  0  0  3  0  0  0  0  0  0
  193.2040  176.6900  138.7180 C   0  0  0  0  0  3  0  0  0  0  0  0
  190.8250  176.5730  139.1830 C   0  0  0  0  0  0  0  0  0  0  0  0
  194.2960  175.0210  137.1820 C   0  0  0  0  0  2  0  0  0  0  0  0
  194.9210  173.8810  138.0020 C   0  0  1  0  0  3  0  0  0  0  0  0
  194.7980  172.6120  137.2560 N   0  0  0  0  0  0  0  0  0  0  0  0
  196.0750  171.4840  135.7100 C   0  0  0  0  0  2  0  0  0  0  0  0
  195.4230  172.7550  136.0020 N   0  0  0  0  0  2  0  0  0  0  0  0
  196.0930  170.6830  136.9190 N   0  0  0  0  0  2  0  0  0  0  0  0
  195.5710  171.5740  137.9340 C   0  0  0  0  0  2  0  0  0  0  0  0
  196.5890  174.6210  139.7500 C   0  0  0  0  0  1  0  0  0  0  0  0
  196.8690  175.2490  137.4920 O   0  0  0  0  0  1  0  0  0  0  0  0
  196.4030  174.2090  138.3030 C   0  0  2  0  0  3  0  0  0  0  0  0
  189.7410  176.9620  141.3750 C   0  0  0  0  0  0  0  0  0  0  0  0
  189.1480  177.9320  142.2480 N   0  0  0  0  0  2  0  0  0  0  0  0
  190.4190  176.0140  141.8550 O   0  0  0  0  0  0  0  0  0  0  0  0
  189.4000  177.9540  143.6850 C   0  0  0  0  0  2  0  0  0  0  0  0
  188.4150  177.0460  144.4110 C   0  0  0  0  0  2  0  0  0  0  0  0
  186.3940  178.0590  145.4860 C   0  0  0  0  0  3  0  0  0  0  0  0
  184.4720  178.6950  144.1440 C   0  0  0  0  0  0  0  0  0  0  0  0
  184.6030  178.3200  141.6130 C   0  0  0  0  0  1  0  0  0  0  0  0
  186.4280  177.7410  143.1230 N   0  0  0  0  0  0  0  0  0  0  0  0
  185.1070  178.5890  145.3860 C   0  0  0  0  0  3  0  0  0  0  0  0
  187.0470  177.6320  144.3300 C   0  0  0  0  0  0  0  0  0  0  0  0
  185.1750  178.2530  142.9910 C   0  0  0  0  0  0  0  0  0  0  0  0
  183.1320  179.2210  144.1330 N   0  0  0  0  0  0  0  0  0  0  0  0
  182.0980  178.6270  143.6360 C   0  0  0  0  0  3  0  0  0  0  0  0
  180.7510  179.2610  143.7010 C   0  0  0  0  0  2  0  0  0  0  0  0
  180.1820  179.4580  142.3000 C   0  0  0  0  0  2  0  0  0  0  0  0
  179.2790  178.4050  141.9780 O   0  0  0  0  0  0  0  0  0  0  0  0
  179.6890  177.2540  141.3030 C   0  0  0  0  0  0  0  0  0  0  0  0
  179.3030  176.1130  141.6750 O   0  0  0  0  0  0  0  0  0  0  0  0
  180.5770  177.3850  140.1140 C   0  0  0  0  0  1  0  0  0  0  0  0
  189.3270  178.4470  139.4760 N   0  0  0  0  0  2  0  0  0  0  0  0
  188.5260  178.3790  138.2670 C   0  0  0  0  0  2  0  0  0  0  0  0
  187.6420  177.3040  138.3590 O   0  0  0  0  0  0  0  0  0  0  0  0
  187.3470  176.9650  137.0340 C   0  0  0  0  0  2  0  0  0  0  0  0
  186.5110  175.6940  136.9990 C   0  0  0  0  0  2  0  0  0  0  0  0
  185.0540  176.0180  136.8610 C   0  0  0  0  0  0  0  0  0  0  0  0
  184.2320  175.1140  136.8400 O   0  0  0  0  0  0  0  0  0  0  0  0
  184.5940  177.4420  136.8000 C   0  0  0  0  0  3  0  0  0  0  0  0
  183.8990  177.8160  138.1010 C   0  0  0  0  0  2  0  0  0  0  0  0
  183.0760  177.5170  136.8710 C   0  0  0  0  0  2  0  0  0  0  0  0
  1 38  1  1  0  0  0
  1 18  1  0  0  0  0
  3  7  2  0  0  0  0
  4  6  1  0  0  0  0
  5  4  2  0  0  0  0
  5  3  1  0  0  0  0
  6  2  2  0  0  0  0
  7  2  1  0  0  0  0
  7  1  1  0  0  0  0
  8  4  1  0  0  0  0
  9  8  1  6  0  0  0
  9 17  1  0  0  0  0
 10 14  1  0  0  0  0
 10  9  1  0  0  0  0
 11 12  1  0  0  0  0
 11 13  1  0  0  0  0
 12 10  1  0  0  0  0
 13 14  1  0  0  0  0
 16 17  1  0  0  0  0
 17 15  1  1  0  0  0
 18 20  2  0  0  0  0
 18 19  1  0  0  0  0
 19 21  1  0  0  0  0
 21 22  1  0  0  0  0
 24 27  2  0  0  0  0
 25 29  1  0  0  0  0
 26 28  1  0  0  0  0
 27 23  1  0  0  0  0
 28 22  1  0  0  0  0
 28 23  2  0  0  0  0
 29 26  2  0  0  0  0
 29 24  1  0  0  0  0
 30 24  1  0  0  0  0
 31 32  1  0  0  0  0
 31 30  2  0  0  0  0
 33 32  1  0  0  0  0
 34 33  1  0  0  0  0
 35 36  2  0  0  0  0
 35 34  1  0  0  0  0
 37 35  1  0  0  0  0
 39 40  1  0  0  0  0
 39 38  1  0  0  0  0
 41 40  1  0  0  0  0
 42 41  1  0  0  0  0
 43 42  1  0  0  0  0
 44 43  2  0  0  0  0
 45 43  1  0  0  0  0
 45 47  1  0  0  0  0
 45 46  1  0  0  0  0
 47 46  1  0  0  0  0
M  END
>  <MODEL>
8

>  <REMARK>
 VINA RESULT:      -6.0      2.768      9.481
  Name = 
  21 active torsions:
  status: ('A' for Active; 'I' for Inactive)
    1  A    between atoms: C_3  and  C_13
    2  A    between atoms: C_3  and  C_32
    3  A    between atoms: C_6  and  C_33
    4  A    between atoms: C_7  and  N_18
    5  A    between atoms: N_8  and  C_29
    6  A    between atoms: C_9  and  C_38
    7  A    between atoms: C_13  and  N_26
    8  A    between atoms: C_15  and  C_20
    9  A    between atoms: C_15  and  O_37
   10  A    between atoms: C_16  and  C_28
   11  A    between atoms: C_20  and  C_36
   12  A    between atoms: C_22  and  O_37
   13  A    between atoms: C_28  and  C_34
   14  A    between atoms: C_29  and  C_31
   15  A    between atoms: C_29  and  C_33
   16  A    between atoms: C_34  and  C_42
   17  A    between atoms: C_35  and  C_38
   18  A    between atoms: C_38  and  N_46
   19  A    between atoms: O_41  and  C_42
   20  A    between atoms: O_41  and  C_47
   21  A    between atoms: N_46  and  C_47
                            x       y       z     vdW  Elec       q    Type
                         _______ _______ _______ _____ _____    ______ ____

>  <TORSDO>
F 21

$$$$
=
 OpenBabel10222415503D

 47 50  0  0  1  0  0  0  0  0999 V2000
  189.8190  176.9750  139.3310 C   0  0  1  0  0  3  0  0  0  0  0  0
  191.0850  177.5200  141.4470 C   0  0  0  0  0  3  0  0  0  0  0  0
  188.6640  177.5400  141.4750 C   0  0  0  0  0  3  0  0  0  0  0  0
  189.9000  178.0600  143.4940 C   0  0  0  0  0  0  0  0  0  0  0  0
  188.6830  177.8960  142.8270 C   0  0  0  0  0  3  0  0  0  0  0  0
  191.1040  177.8790  142.7980 C   0  0  0  0  0  3  0  0  0  0  0  0
  189.8640  177.3520  140.7800 C   0  0  0  0  0  0  0  0  0  0  0  0
  189.9010  178.4980  144.9210 C   0  0  0  0  0  2  0  0  0  0  0  0
  189.3570  177.4060  145.8580 C   0  0  1  0  0  3  0  0  0  0  0  0
  190.3500  177.1250  146.9150 N   0  0  0  0  0  0  0  0  0  0  0  0
  191.4110  175.2470  147.7150 C   0  0  0  0  0  2  0  0  0  0  0  0
  190.1080  175.8420  147.4410 N   0  0  0  0  0  2  0  0  0  0  0  0
  192.4330  176.0550  147.0760 N   0  0  0  0  0  2  0  0  0  0  0  0
  191.6800  177.0320  146.3170 C   0  0  0  0  0  2  0  0  0  0  0  0
  188.0080  177.7060  147.9740 C   0  0  0  0  0  1  0  0  0  0  0  0
  186.9400  177.1310  145.9480 O   0  0  0  0  0  1  0  0  0  0  0  0
  188.0110  177.8670  146.4660 C   0  0  2  0  0  3  0  0  0  0  0  0
  188.8640  177.8490  138.5710 C   0  0  0  0  0  0  0  0  0  0  0  0
  187.7770  177.2810  137.8280 N   0  0  0  0  0  2  0  0  0  0  0  0
  189.0470  179.0960  138.5640 O   0  0  0  0  0  0  0  0  0  0  0  0
  186.9320  178.0740  136.9420 C   0  0  0  0  0  2  0  0  0  0  0  0
  185.5610  177.4250  136.7930 C   0  0  0  0  0  2  0  0  0  0  0  0
  184.9480  178.9530  138.6780 C   0  0  0  0  0  3  0  0  0  0  0  0
  183.1300  178.3840  140.1850 C   0  0  0  0  0  0  0  0  0  0  0  0
  181.8610  176.1990  139.7570 C   0  0  0  0  0  1  0  0  0  0  0  0
  183.7160  176.9360  138.3560 N   0  0  0  0  0  0  0  0  0  0  0  0
  184.1520  179.2510  139.7850 C   0  0  0  0  0  3  0  0  0  0  0  0
  184.7150  177.7750  137.9680 C   0  0  0  0  0  0  0  0  0  0  0  0
  182.9230  177.1970  139.4300 C   0  0  0  0  0  0  0  0  0  0  0  0
  182.3790  178.7480  141.3570 N   0  0  0  0  0  0  0  0  0  0  0  0
  181.1550  178.4100  141.5990 C   0  0  0  0  0  3  0  0  0  0  0  0
  180.4840  178.8300  142.8610 C   0  0  0  0  0  2  0  0  0  0  0  0
  181.4120  178.6320  144.0540 C   0  0  0  0  0  2  0  0  0  0  0  0
  182.6060  179.3880  143.8850 O   0  0  0  0  0  0  0  0  0  0  0  0
  183.7880  179.0710  144.5570 C   0  0  0  0  0  0  0  0  0  0  0  0
  183.8170  178.9940  145.8150 O   0  0  0  0  0  0  0  0  0  0  0  0
  185.0230  178.7980  143.7700 C   0  0  0  0  0  1  0  0  0  0  0  0
  191.1590  177.0250  138.7660 N   0  0  0  0  0  2  0  0  0  0  0  0
  191.1990  176.0680  137.6750 C   0  0  0  0  0  2  0  0  0  0  0  0
  190.6910  174.8460  138.1150 O   0  0  0  0  0  0  0  0  0  0  0  0
  190.8920  173.9660  137.0470 C   0  0  0  0  0  2  0  0  0  0  0  0
  189.8850  174.2530  135.9430 C   0  0  0  0  0  2  0  0  0  0  0  0
  188.5380  173.6940  136.2920 C   0  0  0  0  0  0  0  0  0  0  0  0
  187.5960  174.4510  136.4720 O   0  0  0  0  0  0  0  0  0  0  0  0
  188.3270  172.2140  136.3730 C   0  0  0  0  0  3  0  0  0  0  0  0
  188.2280  171.6300  134.9710 C   0  0  0  0  0  2  0  0  0  0  0  0
  186.9750  171.8330  135.7880 C   0  0  0  0  0  2  0  0  0  0  0  0
  1 18  1  6  0  0  0
  1  7  1  0  0  0  0
  2  6  1  0  0  0  0
  3  5  2  0  0  0  0
  4  8  1  0  0  0  0
  5  4  1  0  0  0  0
  6  4  2  0  0  0  0
  7  2  2  0  0  0  0
  7  3  1  0  0  0  0
  9  8  1  6  0  0  0
  9 17  1  0  0  0  0
  9 10  1  0  0  0  0
 10 12  1  0  0  0  0
 12 11  1  0  0  0  0
 13 11  1  0  0  0  0
 14 10  1  0  0  0  0
 14 13  1  0  0  0  0
 16 17  1  0  0  0  0
 17 15  1  1  0  0  0
 19 18  1  0  0  0  0
 20 18  2  0  0  0  0
 21 19  1  0  0  0  0
 22 21  1  0  0  0  0
 22 28  1  0  0  0  0
 23 27  1  0  0  0  0
 24 30  1  0  0  0  0
 26 29  2  0  0  0  0
 27 24  2  0  0  0  0
 28 26  1  0  0  0  0
 28 23  2  0  0  0  0
 29 25  1  0  0  0  0
 29 24  1  0  0  0  0
 30 31  2  0  0  0  0
 31 32  1  0  0  0  0
 32 33  1  0  0  0  0
 34 33  1  0  0  0  0
 34 35  1  0  0  0  0
 35 36  2  0  0  0  0
 37 35  1  0  0  0  0
 38  1  1  0  0  0  0
 39 40  1  0  0  0  0
 39 38  1  0  0  0  0
 41 40  1  0  0  0  0
 42 43  1  0  0  0  0
 42 41  1  0  0  0  0
 43 45  1  0  0  0  0
 43 44  2  0  0  0  0
 46 47  1  0  0  0  0
 46 45  1  0  0  0  0
 47 45  1  0  0  0  0
M  END
>  <MODEL>
9

>  <REMARK>
 VINA RESULT:      -6.0      2.786      8.041
  Name = 
  21 active torsions:
  status: ('A' for Active; 'I' for Inactive)
    1  A    between atoms: C_3  and  C_13
    2  A    between atoms: C_3  and  C_32
    3  A    between atoms: C_6  and  C_33
    4  A    between atoms: C_7  and  N_18
    5  A    between atoms: N_8  and  C_29
    6  A    between atoms: C_9  and  C_38
    7  A    between atoms: C_13  and  N_26
    8  A    between atoms: C_15  and  C_20
    9  A    between atoms: C_15  and  O_37
   10  A    between atoms: C_16  and  C_28
   11  A    between atoms: C_20  and  C_36
   12  A    between atoms: C_22  and  O_37
   13  A    between atoms: C_28  and  C_34
   14  A    between atoms: C_29  and  C_31
   15  A    between atoms: C_29  and  C_33
   16  A    between atoms: C_34  and  C_42
   17  A    between atoms: C_35  and  C_38
   18  A    between atoms: C_38  and  N_46
   19  A    between atoms: O_41  and  C_42
   20  A    between atoms: O_41  and  C_47
   21  A    between atoms: N_46  and  C_47
                            x       y       z     vdW  Elec       q    Type
                         _______ _______ _______ _____ _____    ______ ____

>  <TORSDO>
F 21

$$$$
