=
 OpenBabel10222418213D

 34 37  0  0  0  0  0  0  0  0999 V2000
  186.7590  178.2770  145.4910 C   0  0  0  0  0  3  0  0  0  0  0  0
  184.2510  178.3870  142.8730 C   0  0  0  0  0  0  0  0  0  0  0  0
  187.8810  177.6220  143.4100 C   0  0  0  0  0  0  0  0  0  0  0  0
  183.3320  178.7630  143.8400 C   0  0  0  0  0  0  0  0  0  0  0  0
  181.6080  178.9030  142.2500 C   0  0  0  0  0  3  0  0  0  0  0  0
  185.5260  178.1780  143.4030 C   0  0  0  0  0  0  0  0  0  0  0  0
  183.8480  178.2680  141.5430 C   0  0  0  0  0  3  0  0  0  0  0  0
  184.0550  178.8480  145.3620 S   0  0  0  0  0  0  0  0  0  0  0  0
  182.0330  179.0140  143.5430 N   0  0  0  0  0  0  0  0  0  0  0  0
  185.5750  178.3990  144.7730 C   0  0  0  0  0  0  0  0  0  0  0  0
  187.9340  177.9030  144.8120 C   0  0  0  0  0  0  0  0  0  0  0  0
  182.5050  178.5310  141.2310 C   0  0  0  0  0  3  0  0  0  0  0  0
  186.6680  177.7830  142.7110 C   0  0  0  0  0  3  0  0  0  0  0  0
  189.2780  177.1100  146.7860 N   0  0  0  0  0  2  0  0  0  0  0  0
  190.1830  178.5830  145.2130 O   0  0  0  0  0  0  0  0  0  0  0  0
  189.1950  177.8860  145.5850 C   0  0  0  0  0  0  0  0  0  0  0  0
  190.4940  177.0540  147.5790 C   0  0  0  0  0  2  0  0  0  0  0  0
  191.4150  175.9920  147.0230 C   0  0  0  0  0  2  0  0  0  0  0  0
  192.5660  175.7770  147.9810 C   0  0  0  0  0  2  0  0  0  0  0  0
  192.7640  176.9300  148.7350 O   0  0  0  0  0  0  0  0  0  0  0  0
  193.6600  176.5440  149.7330 C   0  0  0  0  0  1  0  0  0  0  0  0
  189.4990  175.7750  142.9020 C   0  0  0  0  0  1  0  0  0  0  0  0
  189.0300  177.1390  142.6910 N   0  0  0  0  0  0  0  0  0  0  0  0
  189.5410  177.8470  141.5270 C   0  0  0  0  0  2  0  0  0  0  0  0
  188.9370  177.2670  140.2560 C   0  0  0  0  0  2  0  0  0  0  0  0
  189.8900  177.3090  139.1540 N   0  0  0  0  0  0  0  0  0  0  0  0
  192.1260  175.2690  136.0780 C   0  0  0  0  0  1  0  0  0  0  0  0
  191.8910  176.1200  138.3460 C   0  0  0  0  0  3  0  0  0  0  0  0
  189.8900  177.0130  135.5160 O   0  0  0  0  0  0  0  0  0  0  0  0
  191.4400  176.1220  137.0880 C   0  0  0  0  0  0  0  0  0  0  0  0
  191.3010  177.0060  139.4080 C   0  0  0  0  0  2  0  0  0  0  0  0
  189.4420  177.5040  137.7990 C   0  0  0  0  0  0  0  0  0  0  0  0
  188.0080  178.2440  137.4690 S   0  0  0  0  0  0  0  0  0  0  0  0
  190.2420  176.9030  136.7230 C   0  0  0  0  0  0  0  0  0  0  0  0
  2  6  1  0  0  0  0
  2  4  1  0  0  0  0
  3 11  2  0  0  0  0
  4  8  1  0  0  0  0
  5  9  1  0  0  0  0
  6 10  1  0  0  0  0
  7  2  2  0  0  0  0
  9  4  2  0  0  0  0
 10  8  1  0  0  0  0
 10  1  2  0  0  0  0
 11  1  1  0  0  0  0
 11 16  1  0  0  0  0
 12  7  1  0  0  0  0
 12  5  2  0  0  0  0
 13  6  2  0  0  0  0
 13  3  1  0  0  0  0
 14 17  1  0  0  0  0
 15 16  2  0  0  0  0
 16 14  1  0  0  0  0
 18 17  1  0  0  0  0
 18 19  1  0  0  0  0
 19 20  1  0  0  0  0
 20 21  1  0  0  0  0
 23 22  1  0  0  0  0
 23  3  1  0  0  0  0
 24 23  1  0  0  0  0
 25 24  1  0  0  0  0
 26 31  1  0  0  0  0
 26 25  1  0  0  0  0
 27 30  1  0  0  0  0
 28 31  1  0  0  0  0
 29 34  2  0  0  0  0
 30 28  2  0  0  0  0
 32 26  1  0  0  0  0
 33 32  2  0  0  0  0
 34 30  1  0  0  0  0
 34 32  1  0  0  0  0
M  END
>  <MODEL>
1

>  <REMARK>
 VINA RESULT:      -8.3      0.000      0.000
  Name = 
  9 active torsions:
  status: ('A' for Active; 'I' for Inactive)
    1  A    between atoms: N_1  and  C_26
    2  A    between atoms: C_2  and  C_9
    3  A    between atoms: C_2  and  C_28
    4  A    between atoms: N_8  and  C_28
    5  A    between atoms: C_9  and  O_24
    6  A    between atoms: C_12  and  C_26
    7  A    between atoms: C_12  and  N_29
    8  A    between atoms: C_16  and  N_29
    9  A    between atoms: C_22  and  C_31
                            x       y       z     vdW  Elec       q    Type
                         _______ _______ _______ _____ _____    ______ ____

>  <TORSDO>
F 9

$$$$
=
 OpenBabel10222418213D

 34 37  0  0  0  0  0  0  0  0999 V2000
  183.5030  178.9100  145.0640 C   0  0  0  0  0  3  0  0  0  0  0  0
  186.9660  177.8370  145.0460 C   0  0  0  0  0  0  0  0  0  0  0  0
  184.0430  178.3080  142.7480 C   0  0  0  0  0  0  0  0  0  0  0  0
  187.0030  178.1030  146.4050 C   0  0  0  0  0  0  0  0  0  0  0  0
  189.2440  177.4140  146.5540 C   0  0  0  0  0  3  0  0  0  0  0  0
  185.7210  178.1190  144.4820 C   0  0  0  0  0  0  0  0  0  0  0  0
  188.1000  177.3330  144.4080 C   0  0  0  0  0  3  0  0  0  0  0  0
  185.5170  178.6910  146.9470 S   0  0  0  0  0  0  0  0  0  0  0  0
  188.1170  177.9030  147.1510 N   0  0  0  0  0  0  0  0  0  0  0  0
  184.8110  178.5980  145.4140 C   0  0  0  0  0  0  0  0  0  0  0  0
  183.0970  178.7510  143.7260 C   0  0  0  0  0  0  0  0  0  0  0  0
  189.2540  177.1200  145.1770 C   0  0  0  0  0  3  0  0  0  0  0  0
  185.3530  177.9760  143.1460 C   0  0  0  0  0  3  0  0  0  0  0  0
  181.3020  180.1300  142.6250 N   0  0  0  0  0  2  0  0  0  0  0  0
  180.7770  178.2170  143.8620 O   0  0  0  0  0  0  0  0  0  0  0  0
  181.6710  178.9900  143.4100 C   0  0  0  0  0  0  0  0  0  0  0  0
  179.9180  180.4070  142.2800 C   0  0  0  0  0  2  0  0  0  0  0  0
  179.6140  179.8500  140.9090 C   0  0  0  0  0  2  0  0  0  0  0  0
  180.0470  180.8470  139.8570 C   0  0  0  0  0  2  0  0  0  0  0  0
  181.1190  180.3250  139.1370 O   0  0  0  0  0  0  0  0  0  0  0  0
  181.6840  181.4340  138.5030 C   0  0  0  0  0  1  0  0  0  0  0  0
  182.5490  177.4490  140.9270 C   0  0  0  0  0  1  0  0  0  0  0  0
  183.7070  178.2260  141.3510 N   0  0  0  0  0  0  0  0  0  0  0  0
  184.2820  179.1480  140.3840 C   0  0  0  0  0  2  0  0  0  0  0  0
  184.9130  178.3740  139.2360 C   0  0  0  0  0  2  0  0  0  0  0  0
  186.3670  178.4530  139.2830 N   0  0  0  0  0  0  0  0  0  0  0  0
  190.1640  176.7090  140.3620 C   0  0  0  0  0  1  0  0  0  0  0  0
  188.2240  178.0910  140.8610 C   0  0  0  0  0  3  0  0  0  0  0  0
  189.2510  176.9470  137.6290 O   0  0  0  0  0  0  0  0  0  0  0  0
  188.9470  177.4540  139.9360 C   0  0  0  0  0  0  0  0  0  0  0  0
  187.0250  178.9250  140.5040 C   0  0  0  0  0  2  0  0  0  0  0  0
  187.1690  177.9420  138.2010 C   0  0  0  0  0  0  0  0  0  0  0  0
  186.5590  177.7930  136.6780 S   0  0  0  0  0  0  0  0  0  0  0  0
  188.5090  177.4330  138.5270 C   0  0  0  0  0  0  0  0  0  0  0  0
  1 10  1  0  0  0  0
  2  4  1  0  0  0  0
  3 13  2  0  0  0  0
  3 11  1  0  0  0  0
  4  8  1  0  0  0  0
  4  9  2  0  0  0  0
  5  9  1  0  0  0  0
  6  2  1  0  0  0  0
  6 10  2  0  0  0  0
  7  2  2  0  0  0  0
  7 12  1  0  0  0  0
 10  8  1  0  0  0  0
 11  1  2  0  0  0  0
 12  5  2  0  0  0  0
 13  6  1  0  0  0  0
 14 16  1  0  0  0  0
 16 11  1  0  0  0  0
 16 15  2  0  0  0  0
 17 14  1  0  0  0  0
 18 17  1  0  0  0  0
 19 18  1  0  0  0  0
 20 19  1  0  0  0  0
 21 20  1  0  0  0  0
 22 23  1  0  0  0  0
 23  3  1  0  0  0  0
 24 23  1  0  0  0  0
 25 26  1  0  0  0  0
 25 24  1  0  0  0  0
 26 31  1  0  0  0  0
 29 34  2  0  0  0  0
 30 27  1  0  0  0  0
 30 28  2  0  0  0  0
 31 28  1  0  0  0  0
 32 34  1  0  0  0  0
 32 26  1  0  0  0  0
 33 32  2  0  0  0  0
 34 30  1  0  0  0  0
M  END
>  <MODEL>
2

>  <REMARK>
 VINA RESULT:      -7.9      3.326      7.549
  Name = 
  9 active torsions:
  status: ('A' for Active; 'I' for Inactive)
    1  A    between atoms: N_1  and  C_26
    2  A    between atoms: C_2  and  C_9
    3  A    between atoms: C_2  and  C_28
    4  A    between atoms: N_8  and  C_28
    5  A    between atoms: C_9  and  O_24
    6  A    between atoms: C_12  and  C_26
    7  A    between atoms: C_12  and  N_29
    8  A    between atoms: C_16  and  N_29
    9  A    between atoms: C_22  and  C_31
                            x       y       z     vdW  Elec       q    Type
                         _______ _______ _______ _____ _____    ______ ____

>  <TORSDO>
F 9

$$$$
=
 OpenBabel10222418213D

 34 37  0  0  0  0  0  0  0  0999 V2000
  188.1110  177.8190  141.1850 C   0  0  0  0  0  3  0  0  0  0  0  0
  185.7540  178.3150  143.8960 C   0  0  0  0  0  0  0  0  0  0  0  0
  185.9940  178.5180  140.1610 C   0  0  0  0  0  0  0  0  0  0  0  0
  186.7580  177.9320  144.7710 C   0  0  0  0  0  0  0  0  0  0  0  0
  185.3540  178.2340  146.6300 C   0  0  0  0  0  3  0  0  0  0  0  0
  186.1700  178.2870  142.5640 C   0  0  0  0  0  0  0  0  0  0  0  0
  184.5030  178.6790  144.3940 C   0  0  0  0  0  3  0  0  0  0  0  0
  188.1740  177.5490  143.9370 S   0  0  0  0  0  0  0  0  0  0  0  0
  186.5680  177.8850  146.1130 N   0  0  0  0  0  0  0  0  0  0  0  0
  187.4920  177.8840  142.4270 C   0  0  0  0  0  0  0  0  0  0  0  0
  187.3720  178.1540  140.0340 C   0  0  0  0  0  0  0  0  0  0  0  0
  184.3040  178.6380  145.7820 C   0  0  0  0  0  3  0  0  0  0  0  0
  185.4080  178.5990  141.4400 C   0  0  0  0  0  3  0  0  0  0  0  0
  188.4220  176.9420  138.0940 N   0  0  0  0  0  2  0  0  0  0  0  0
  188.4490  179.2760  138.2280 O   0  0  0  0  0  0  0  0  0  0  0  0
  188.0910  178.1770  138.7420 C   0  0  0  0  0  0  0  0  0  0  0  0
  189.1210  176.9080  136.8210 C   0  0  0  0  0  2  0  0  0  0  0  0
  190.6060  176.7570  137.0600 C   0  0  0  0  0  2  0  0  0  0  0  0
  190.8300  175.9360  138.3110 C   0  0  0  0  0  2  0  0  0  0  0  0
  190.9810  174.5960  137.9650 O   0  0  0  0  0  0  0  0  0  0  0  0
  192.3210  174.4820  137.5900 C   0  0  0  0  0  1  0  0  0  0  0  0
  185.0760  177.7740  137.9490 C   0  0  0  0  0  1  0  0  0  0  0  0
  185.1690  178.7710  139.0090 N   0  0  0  0  0  0  0  0  0  0  0  0
  184.1750  179.8340  139.0150 C   0  0  0  0  0  2  0  0  0  0  0  0
  182.8680  179.3300  138.4190 C   0  0  0  0  0  2  0  0  0  0  0  0
  181.8920  179.0390  139.4620 N   0  0  0  0  0  0  0  0  0  0  0  0
  180.7750  179.0350  143.6300 C   0  0  0  0  0  1  0  0  0  0  0  0
  181.7610  177.9690  141.6770 C   0  0  0  0  0  3  0  0  0  0  0  0
  179.6360  180.8480  141.6880 O   0  0  0  0  0  0  0  0  0  0  0  0
  181.0030  178.9570  142.1610 C   0  0  0  0  0  0  0  0  0  0  0  0
  181.9810  177.7780  140.2020 C   0  0  0  0  0  2  0  0  0  0  0  0
  180.9310  180.0310  139.8690 C   0  0  0  0  0  0  0  0  0  0  0  0
  180.4870  181.2590  138.8640 S   0  0  0  0  0  0  0  0  0  0  0  0
  180.4570  179.9910  141.2600 C   0  0  0  0  0  0  0  0  0  0  0  0
  1 10  1  0  0  0  0
  2  7  2  0  0  0  0
  2  4  1  0  0  0  0
  3 13  2  0  0  0  0
  4  9  2  0  0  0  0
  6  2  1  0  0  0  0
  7 12  1  0  0  0  0
  8  4  1  0  0  0  0
  9  5  1  0  0  0  0
 10  6  2  0  0  0  0
 10  8  1  0  0  0  0
 11  3  1  0  0  0  0
 11  1  2  0  0  0  0
 12  5  2  0  0  0  0
 13  6  1  0  0  0  0
 14 16  1  0  0  0  0
 15 16  2  0  0  0  0
 16 11  1  0  0  0  0
 17 18  1  0  0  0  0
 17 14  1  0  0  0  0
 18 19  1  0  0  0  0
 20 19  1  0  0  0  0
 21 20  1  0  0  0  0
 22 23  1  0  0  0  0
 23 24  1  0  0  0  0
 23  3  1  0  0  0  0
 25 24  1  0  0  0  0
 25 26  1  0  0  0  0
 26 32  1  0  0  0  0
 26 31  1  0  0  0  0
 28 30  2  0  0  0  0
 30 27  1  0  0  0  0
 31 28  1  0  0  0  0
 32 34  1  0  0  0  0
 33 32  2  0  0  0  0
 34 29  2  0  0  0  0
 34 30  1  0  0  0  0
M  END
>  <MODEL>
3

>  <REMARK>
 VINA RESULT:      -7.7      3.902      8.020
  Name = 
  9 active torsions:
  status: ('A' for Active; 'I' for Inactive)
    1  A    between atoms: N_1  and  C_26
    2  A    between atoms: C_2  and  C_9
    3  A    between atoms: C_2  and  C_28
    4  A    between atoms: N_8  and  C_28
    5  A    between atoms: C_9  and  O_24
    6  A    between atoms: C_12  and  C_26
    7  A    between atoms: C_12  and  N_29
    8  A    between atoms: C_16  and  N_29
    9  A    between atoms: C_22  and  C_31
                            x       y       z     vdW  Elec       q    Type
                         _______ _______ _______ _____ _____    ______ ____

>  <TORSDO>
F 9

$$$$
=
 OpenBabel10222418213D

 34 37  0  0  0  0  0  0  0  0999 V2000
  183.0130  178.9300  144.4790 C   0  0  0  0  0  3  0  0  0  0  0  0
  186.4850  177.9020  144.2880 C   0  0  0  0  0  0  0  0  0  0  0  0
  183.4800  178.4600  142.1180 C   0  0  0  0  0  0  0  0  0  0  0  0
  186.5650  178.0960  145.6570 C   0  0  0  0  0  0  0  0  0  0  0  0
  188.8170  177.4270  145.6940 C   0  0  0  0  0  3  0  0  0  0  0  0
  185.2190  178.1980  143.7810 C   0  0  0  0  0  0  0  0  0  0  0  0
  187.6020  177.4480  143.5850 C   0  0  0  0  0  3  0  0  0  0  0  0
  185.0930  178.6360  146.2790 S   0  0  0  0  0  0  0  0  0  0  0  0
  187.7070  177.8700  146.3530 N   0  0  0  0  0  0  0  0  0  0  0  0
  184.3360  178.6160  144.7680 C   0  0  0  0  0  0  0  0  0  0  0  0
  182.5630  178.8380  143.1480 C   0  0  0  0  0  0  0  0  0  0  0  0
  188.7840  177.2070  144.3030 C   0  0  0  0  0  3  0  0  0  0  0  0
  184.8070  178.1230  142.4530 C   0  0  0  0  0  3  0  0  0  0  0  0
  180.6910  180.3610  142.4330 N   0  0  0  0  0  2  0  0  0  0  0  0
  180.2770  178.1650  143.1190 O   0  0  0  0  0  0  0  0  0  0  0  0
  181.1260  179.0750  142.8940 C   0  0  0  0  0  0  0  0  0  0  0  0
  179.2930  180.6450  142.1620 C   0  0  0  0  0  2  0  0  0  0  0  0
  179.1630  181.3160  140.8140 C   0  0  0  0  0  2  0  0  0  0  0  0
  180.1210  180.6690  139.8380 C   0  0  0  0  0  2  0  0  0  0  0  0
  180.7510  181.6550  139.0840 O   0  0  0  0  0  0  0  0  0  0  0  0
  180.8420  181.1090  137.8030 C   0  0  0  0  0  1  0  0  0  0  0  0
  183.6580  179.4340  139.8140 C   0  0  0  0  0  1  0  0  0  0  0  0
  183.0980  178.4480  140.7300 N   0  0  0  0  0  0  0  0  0  0  0  0
  182.4280  177.2970  140.1440 C   0  0  0  0  0  2  0  0  0  0  0  0
  182.0890  177.5760  138.6870 C   0  0  0  0  0  2  0  0  0  0  0  0
  182.5420  176.4910  137.8240 N   0  0  0  0  0  0  0  0  0  0  0  0
  184.5220  172.6880  137.3420 C   0  0  0  0  0  1  0  0  0  0  0  0
  184.5470  175.1200  137.4150 C   0  0  0  0  0  3  0  0  0  0  0  0
  181.6630  173.0280  137.0830 O   0  0  0  0  0  0  0  0  0  0  0  0
  183.8220  174.0010  137.3300 C   0  0  0  0  0  0  0  0  0  0  0  0
  183.9240  176.4860  137.3370 C   0  0  0  0  0  2  0  0  0  0  0  0
  181.6950  175.3570  137.5610 C   0  0  0  0  0  0  0  0  0  0  0  0
  180.0570  175.4590  137.6990 S   0  0  0  0  0  0  0  0  0  0  0  0
  182.3470  174.0660  137.2940 C   0  0  0  0  0  0  0  0  0  0  0  0
  1 10  1  0  0  0  0
  2  4  1  0  0  0  0
  3 13  2  0  0  0  0
  3 11  1  0  0  0  0
  4  8  1  0  0  0  0
  4  9  2  0  0  0  0
  5  9  1  0  0  0  0
  6  2  1  0  0  0  0
  6 10  2  0  0  0  0
  7  2  2  0  0  0  0
  7 12  1  0  0  0  0
 10  8  1  0  0  0  0
 11  1  2  0  0  0  0
 12  5  2  0  0  0  0
 13  6  1  0  0  0  0
 14 16  1  0  0  0  0
 16 15  2  0  0  0  0
 16 11  1  0  0  0  0
 17 14  1  0  0  0  0
 18 17  1  0  0  0  0
 19 18  1  0  0  0  0
 20 19  1  0  0  0  0
 21 20  1  0  0  0  0
 22 23  1  0  0  0  0
 23  3  1  0  0  0  0
 24 23  1  0  0  0  0
 25 24  1  0  0  0  0
 26 25  1  0  0  0  0
 29 34  2  0  0  0  0
 30 27  1  0  0  0  0
 30 28  2  0  0  0  0
 31 28  1  0  0  0  0
 31 26  1  0  0  0  0
 32 33  2  0  0  0  0
 32 26  1  0  0  0  0
 34 30  1  0  0  0  0
 34 32  1  0  0  0  0
M  END
>  <MODEL>
4

>  <REMARK>
 VINA RESULT:      -7.7      5.114      8.685
  Name = 
  9 active torsions:
  status: ('A' for Active; 'I' for Inactive)
    1  A    between atoms: N_1  and  C_26
    2  A    between atoms: C_2  and  C_9
    3  A    between atoms: C_2  and  C_28
    4  A    between atoms: N_8  and  C_28
    5  A    between atoms: C_9  and  O_24
    6  A    between atoms: C_12  and  C_26
    7  A    between atoms: C_12  and  N_29
    8  A    between atoms: C_16  and  N_29
    9  A    between atoms: C_22  and  C_31
                            x       y       z     vdW  Elec       q    Type
                         _______ _______ _______ _____ _____    ______ ____

>  <TORSDO>
F 9

$$$$
=
 OpenBabel10222418213D

 34 37  0  0  0  0  0  0  0  0999 V2000
  186.5850  178.6170  140.5720 C   0  0  0  0  0  3  0  0  0  0  0  0
  185.9390  178.1930  144.1150 C   0  0  0  0  0  0  0  0  0  0  0  0
  188.5700  177.5370  141.5260 C   0  0  0  0  0  0  0  0  0  0  0  0
  184.7130  178.8070  143.9130 C   0  0  0  0  0  0  0  0  0  0  0  0
  184.1440  178.5790  146.1810 C   0  0  0  0  0  3  0  0  0  0  0  0
  186.6870  178.0990  142.9400 C   0  0  0  0  0  0  0  0  0  0  0  0
  186.2890  177.7460  145.3890 C   0  0  0  0  0  3  0  0  0  0  0  0
  184.5160  179.2490  142.2970 S   0  0  0  0  0  0  0  0  0  0  0  0
  183.8290  179.0040  144.9220 N   0  0  0  0  0  0  0  0  0  0  0  0
  186.0270  178.6390  141.8440 C   0  0  0  0  0  0  0  0  0  0  0  0
  187.8600  178.0480  140.3940 C   0  0  0  0  0  0  0  0  0  0  0  0
  185.3750  177.9430  146.4360 C   0  0  0  0  0  3  0  0  0  0  0  0
  187.9600  177.5520  142.7970 C   0  0  0  0  0  3  0  0  0  0  0  0
  188.4790  176.6600  138.3880 N   0  0  0  0  0  2  0  0  0  0  0  0
  188.7660  178.9800  138.3950 O   0  0  0  0  0  0  0  0  0  0  0  0
  188.3770  177.9450  139.0120 C   0  0  0  0  0  0  0  0  0  0  0  0
  188.9730  176.5040  137.0300 C   0  0  0  0  0  2  0  0  0  0  0  0
  190.4820  176.4160  137.0460 C   0  0  0  0  0  2  0  0  0  0  0  0
  190.9030  175.1920  137.8290 C   0  0  0  0  0  2  0  0  0  0  0  0
  192.2910  175.0850  137.8100 O   0  0  0  0  0  0  0  0  0  0  0  0
  192.7420  176.4030  137.7240 C   0  0  0  0  0  1  0  0  0  0  0  0
  190.9010  177.7740  140.6330 C   0  0  0  0  0  1  0  0  0  0  0  0
  189.9150  177.0380  141.4150 N   0  0  0  0  0  0  0  0  0  0  0  0
  190.4100  176.0060  142.3130 C   0  0  0  0  0  2  0  0  0  0  0  0
  191.7350  176.4390  142.9240 C   0  0  0  0  0  2  0  0  0  0  0  0
  191.5450  176.9790  144.2650 N   0  0  0  0  0  0  0  0  0  0  0  0
  188.9410  177.8940  147.5820 C   0  0  0  0  0  1  0  0  0  0  0  0
  190.0360  178.4900  145.4920 C   0  0  0  0  0  3  0  0  0  0  0  0
  190.8930  175.7630  147.6440 O   0  0  0  0  0  0  0  0  0  0  0  0
  189.9700  177.6560  146.5330 C   0  0  0  0  0  0  0  0  0  0  0  0
  191.0900  178.3620  144.4280 C   0  0  0  0  0  2  0  0  0  0  0  0
  191.6610  176.1310  145.4240 C   0  0  0  0  0  0  0  0  0  0  0  0
  192.5410  174.7400  145.3840 S   0  0  0  0  0  0  0  0  0  0  0  0
  190.8580  176.4790  146.6060 C   0  0  0  0  0  0  0  0  0  0  0  0
  1 10  1  0  0  0  0
  2  7  1  0  0  0  0
  3 13  2  0  0  0  0
  4  2  2  0  0  0  0
  4  9  1  0  0  0  0
  5 12  1  0  0  0  0
  6  2  1  0  0  0  0
  7 12  2  0  0  0  0
  8  4  1  0  0  0  0
  9  5  2  0  0  0  0
 10  8  1  0  0  0  0
 10  6  2  0  0  0  0
 11  1  2  0  0  0  0
 11  3  1  0  0  0  0
 13  6  1  0  0  0  0
 14 16  1  0  0  0  0
 15 16  2  0  0  0  0
 16 11  1  0  0  0  0
 17 18  1  0  0  0  0
 17 14  1  0  0  0  0
 18 19  1  0  0  0  0
 20 19  1  0  0  0  0
 21 20  1  0  0  0  0
 22 23  1  0  0  0  0
 23  3  1  0  0  0  0
 23 24  1  0  0  0  0
 24 25  1  0  0  0  0
 25 26  1  0  0  0  0
 26 31  1  0  0  0  0
 26 32  1  0  0  0  0
 28 30  2  0  0  0  0
 30 34  1  0  0  0  0
 30 27  1  0  0  0  0
 31 28  1  0  0  0  0
 32 34  1  0  0  0  0
 33 32  2  0  0  0  0
 34 29  2  0  0  0  0
M  END
>  <MODEL>
5

>  <REMARK>
 VINA RESULT:      -7.7      2.443      7.100
  Name = 
  9 active torsions:
  status: ('A' for Active; 'I' for Inactive)
    1  A    between atoms: N_1  and  C_26
    2  A    between atoms: C_2  and  C_9
    3  A    between atoms: C_2  and  C_28
    4  A    between atoms: N_8  and  C_28
    5  A    between atoms: C_9  and  O_24
    6  A    between atoms: C_12  and  C_26
    7  A    between atoms: C_12  and  N_29
    8  A    between atoms: C_16  and  N_29
    9  A    between atoms: C_22  and  C_31
                            x       y       z     vdW  Elec       q    Type
                         _______ _______ _______ _____ _____    ______ ____

>  <TORSDO>
F 9

$$$$
=
 OpenBabel10222418213D

 34 37  0  0  0  0  0  0  0  0999 V2000
  192.3550  177.2100  140.4930 C   0  0  0  0  0  3  0  0  0  0  0  0
  191.1900  176.1920  137.2130 C   0  0  0  0  0  0  0  0  0  0  0  0
  189.9100  177.4040  140.5220 C   0  0  0  0  0  0  0  0  0  0  0  0
  192.5150  175.9950  136.8590 C   0  0  0  0  0  0  0  0  0  0  0  0
  191.9100  175.2880  134.7020 C   0  0  0  0  0  3  0  0  0  0  0  0
  191.0510  176.6480  138.5250 C   0  0  0  0  0  0  0  0  0  0  0  0
  190.1790  175.9240  136.2900 C   0  0  0  0  0  3  0  0  0  0  0  0
  193.5460  176.3760  138.1390 S   0  0  0  0  0  0  0  0  0  0  0  0
  192.8770  175.5570  135.6280 N   0  0  0  0  0  0  0  0  0  0  0  0
  192.2730  176.7960  139.1690 C   0  0  0  0  0  0  0  0  0  0  0  0
  191.1700  177.5020  141.1930 C   0  0  0  0  0  0  0  0  0  0  0  0
  190.5480  175.4650  135.0160 C   0  0  0  0  0  3  0  0  0  0  0  0
  189.8650  176.9550  139.1860 C   0  0  0  0  0  3  0  0  0  0  0  0
  191.5490  176.7960  143.5780 N   0  0  0  0  0  2  0  0  0  0  0  0
  191.1190  179.0260  143.0260 O   0  0  0  0  0  0  0  0  0  0  0  0
  191.2880  177.8360  142.6290 C   0  0  0  0  0  0  0  0  0  0  0  0
  191.6800  177.0700  144.9990 C   0  0  0  0  0  2  0  0  0  0  0  0
  191.6900  175.7700  145.7690 C   0  0  0  0  0  2  0  0  0  0  0  0
  191.7320  176.0670  147.2520 C   0  0  0  0  0  2  0  0  0  0  0  0
  192.6840  175.2540  147.8610 O   0  0  0  0  0  0  0  0  0  0  0  0
  193.1800  176.0270  148.9120 C   0  0  0  0  0  1  0  0  0  0  0  0
  187.7230  178.6270  140.4490 C   0  0  0  0  0  1  0  0  0  0  0  0
  188.6790  177.7880  141.1600 N   0  0  0  0  0  0  0  0  0  0  0  0
  188.2090  177.1080  142.3580 C   0  0  0  0  0  2  0  0  0  0  0  0
  187.0300  177.8610  142.9560 C   0  0  0  0  0  2  0  0  0  0  0  0
  186.8980  177.5850  144.3820 N   0  0  0  0  0  0  0  0  0  0  0  0
  187.9180  178.5170  148.4700 C   0  0  0  0  0  1  0  0  0  0  0  0
  188.3030  177.3180  146.3880 C   0  0  0  0  0  3  0  0  0  0  0  0
  185.3190  179.0570  147.3250 O   0  0  0  0  0  0  0  0  0  0  0  0
  187.4710  178.0590  147.1260 C   0  0  0  0  0  0  0  0  0  0  0  0
  187.9030  176.7560  145.0520 C   0  0  0  0  0  2  0  0  0  0  0  0
  185.8770  178.2310  145.1660 C   0  0  0  0  0  0  0  0  0  0  0  0
  184.5030  178.8160  144.4700 S   0  0  0  0  0  0  0  0  0  0  0  0
  186.1600  178.4710  146.5890 C   0  0  0  0  0  0  0  0  0  0  0  0
  1 11  1  0  0  0  0
  2  6  1  0  0  0  0
  3 23  1  0  0  0  0
  3 11  2  0  0  0  0
  4  2  1  0  0  0  0
  4  8  1  0  0  0  0
  5 12  2  0  0  0  0
  5  9  1  0  0  0  0
  6 10  1  0  0  0  0
  6 13  2  0  0  0  0
  7  2  2  0  0  0  0
  8 10  1  0  0  0  0
  9  4  2  0  0  0  0
 10  1  2  0  0  0  0
 11 16  1  0  0  0  0
 12  7  1  0  0  0  0
 13  3  1  0  0  0  0
 14 17  1  0  0  0  0
 16 15  2  0  0  0  0
 16 14  1  0  0  0  0
 17 18  1  0  0  0  0
 18 19  1  0  0  0  0
 19 20  1  0  0  0  0
 20 21  1  0  0  0  0
 22 23  1  0  0  0  0
 23 24  1  0  0  0  0
 24 25  1  0  0  0  0
 25 26  1  0  0  0  0
 26 31  1  0  0  0  0
 26 32  1  0  0  0  0
 28 30  2  0  0  0  0
 30 27  1  0  0  0  0
 31 28  1  0  0  0  0
 32 34  1  0  0  0  0
 33 32  2  0  0  0  0
 34 30  1  0  0  0  0
 34 29  2  0  0  0  0
M  END
>  <MODEL>
6

>  <REMARK>
 VINA RESULT:      -7.6      2.764      7.927
  Name = 
  9 active torsions:
  status: ('A' for Active; 'I' for Inactive)
    1  A    between atoms: N_1  and  C_26
    2  A    between atoms: C_2  and  C_9
    3  A    between atoms: C_2  and  C_28
    4  A    between atoms: N_8  and  C_28
    5  A    between atoms: C_9  and  O_24
    6  A    between atoms: C_12  and  C_26
    7  A    between atoms: C_12  and  N_29
    8  A    between atoms: C_16  and  N_29
    9  A    between atoms: C_22  and  C_31
                            x       y       z     vdW  Elec       q    Type
                         _______ _______ _______ _____ _____    ______ ____

>  <TORSDO>
F 9

$$$$
=
 OpenBabel10222418213D

 34 37  0  0  0  0  0  0  0  0999 V2000
  189.7190  177.4540  141.6660 C   0  0  0  0  0  3  0  0  0  0  0  0
  188.2480  177.5930  144.9770 C   0  0  0  0  0  0  0  0  0  0  0  0
  187.4130  178.2390  141.3810 C   0  0  0  0  0  0  0  0  0  0  0  0
  189.4530  177.1240  145.4770 C   0  0  0  0  0  0  0  0  0  0  0  0
  188.6460  177.1840  147.6820 C   0  0  0  0  0  3  0  0  0  0  0  0
  188.2640  177.7280  143.5880 C   0  0  0  0  0  0  0  0  0  0  0  0
  187.2000  177.8790  145.8520 C   0  0  0  0  0  3  0  0  0  0  0  0
  190.5630  176.8620  144.2330 S   0  0  0  0  0  0  0  0  0  0  0  0
  189.6540  176.9160  146.8010 N   0  0  0  0  0  0  0  0  0  0  0  0
  189.4830  177.3630  143.0320 C   0  0  0  0  0  0  0  0  0  0  0  0
  188.6890  177.9120  140.8230 C   0  0  0  0  0  0  0  0  0  0  0  0
  187.4060  177.6700  147.2250 C   0  0  0  0  0  3  0  0  0  0  0  0
  187.2200  178.1600  142.7750 C   0  0  0  0  0  3  0  0  0  0  0  0
  189.3150  176.9560  138.5810 N   0  0  0  0  0  2  0  0  0  0  0  0
  189.0500  179.2580  138.8890 O   0  0  0  0  0  0  0  0  0  0  0  0
  189.0080  178.0970  139.3910 C   0  0  0  0  0  0  0  0  0  0  0  0
  189.6290  177.0820  137.1680 C   0  0  0  0  0  2  0  0  0  0  0  0
  190.9200  176.3560  136.8670 C   0  0  0  0  0  2  0  0  0  0  0  0
  191.2170  175.3800  137.9840 C   0  0  0  0  0  2  0  0  0  0  0  0
  190.8430  174.0980  137.5910 O   0  0  0  0  0  0  0  0  0  0  0  0
  191.7620  173.7570  136.5970 C   0  0  0  0  0  1  0  0  0  0  0  0
  186.0980  177.9630  139.2640 C   0  0  0  0  0  1  0  0  0  0  0  0
  186.2980  178.6150  140.5520 N   0  0  0  0  0  0  0  0  0  0  0  0
  185.1850  179.3820  141.0920 C   0  0  0  0  0  2  0  0  0  0  0  0
  183.8900  178.9760  140.4040 C   0  0  0  0  0  2  0  0  0  0  0  0
  182.9160  178.4780  141.3680 N   0  0  0  0  0  0  0  0  0  0  0  0
  179.6030  179.2030  144.0370 C   0  0  0  0  0  1  0  0  0  0  0  0
  181.9880  179.0490  143.5780 C   0  0  0  0  0  3  0  0  0  0  0  0
  179.3390  177.7740  141.5380 O   0  0  0  0  0  0  0  0  0  0  0  0
  180.7430  178.7830  143.1750 C   0  0  0  0  0  0  0  0  0  0  0  0
  183.1940  178.5960  142.8020 C   0  0  0  0  0  2  0  0  0  0  0  0
  181.6270  178.0020  140.9350 C   0  0  0  0  0  0  0  0  0  0  0  0
  181.3880  177.4540  139.4000 S   0  0  0  0  0  0  0  0  0  0  0  0
  180.4990  178.1460  141.8660 C   0  0  0  0  0  0  0  0  0  0  0  0
  1 10  1  0  0  0  0
  2  4  2  0  0  0  0
  2  7  1  0  0  0  0
  3 13  2  0  0  0  0
  4  9  1  0  0  0  0
  6  2  1  0  0  0  0
  7 12  2  0  0  0  0
  8  4  1  0  0  0  0
  9  5  2  0  0  0  0
 10  6  2  0  0  0  0
 10  8  1  0  0  0  0
 11  3  1  0  0  0  0
 11  1  2  0  0  0  0
 12  5  1  0  0  0  0
 13  6  1  0  0  0  0
 14 16  1  0  0  0  0
 15 16  2  0  0  0  0
 16 11  1  0  0  0  0
 17 14  1  0  0  0  0
 18 17  1  0  0  0  0
 18 19  1  0  0  0  0
 20 19  1  0  0  0  0
 21 20  1  0  0  0  0
 22 23  1  0  0  0  0
 23 24  1  0  0  0  0
 23  3  1  0  0  0  0
 25 24  1  0  0  0  0
 25 26  1  0  0  0  0
 26 31  1  0  0  0  0
 29 34  2  0  0  0  0
 30 28  2  0  0  0  0
 30 27  1  0  0  0  0
 31 28  1  0  0  0  0
 32 26  1  0  0  0  0
 32 34  1  0  0  0  0
 33 32  2  0  0  0  0
 34 30  1  0  0  0  0
M  END
>  <MODEL>
7

>  <REMARK>
 VINA RESULT:      -7.6      3.314      8.330
  Name = 
  9 active torsions:
  status: ('A' for Active; 'I' for Inactive)
    1  A    between atoms: N_1  and  C_26
    2  A    between atoms: C_2  and  C_9
    3  A    between atoms: C_2  and  C_28
    4  A    between atoms: N_8  and  C_28
    5  A    between atoms: C_9  and  O_24
    6  A    between atoms: C_12  and  C_26
    7  A    between atoms: C_12  and  N_29
    8  A    between atoms: C_16  and  N_29
    9  A    between atoms: C_22  and  C_31
                            x       y       z     vdW  Elec       q    Type
                         _______ _______ _______ _____ _____    ______ ____

>  <TORSDO>
F 9

$$$$
=
 OpenBabel10222418213D

 34 37  0  0  0  0  0  0  0  0999 V2000
  185.7770  178.5450  139.2580 C   0  0  0  0  0  3  0  0  0  0  0  0
  183.7470  178.7020  142.2590 C   0  0  0  0  0  0  0  0  0  0  0  0
  187.2980  178.2290  141.1560 C   0  0  0  0  0  0  0  0  0  0  0  0
  182.6490  178.9250  141.4430 C   0  0  0  0  0  0  0  0  0  0  0  0
  181.2040  179.0260  143.2920 C   0  0  0  0  0  3  0  0  0  0  0  0
  184.9310  178.5640  141.5320 C   0  0  0  0  0  0  0  0  0  0  0  0
  183.5790  178.6280  143.6420 C   0  0  0  0  0  3  0  0  0  0  0  0
  183.1000  178.9630  139.8180 S   0  0  0  0  0  0  0  0  0  0  0  0
  181.3990  179.0900  141.9420 N   0  0  0  0  0  0  0  0  0  0  0  0
  184.7310  178.6820  140.1630 C   0  0  0  0  0  0  0  0  0  0  0  0
  187.0750  178.2980  139.7450 C   0  0  0  0  0  0  0  0  0  0  0  0
  182.2860  178.7930  144.1630 C   0  0  0  0  0  3  0  0  0  0  0  0
  186.2080  178.3450  142.0420 C   0  0  0  0  0  3  0  0  0  0  0  0
  188.4920  176.7070  138.4060 N   0  0  0  0  0  2  0  0  0  0  0  0
  188.7760  179.0210  138.2400 O   0  0  0  0  0  0  0  0  0  0  0  0
  188.1430  178.0530  138.7520 C   0  0  0  0  0  0  0  0  0  0  0  0
  189.5280  176.4100  137.4320 C   0  0  0  0  0  2  0  0  0  0  0  0
  190.6910  175.7300  138.1190 C   0  0  0  0  0  2  0  0  0  0  0  0
  191.7690  176.7510  138.4060 C   0  0  0  0  0  2  0  0  0  0  0  0
  191.4390  177.4640  139.5550 O   0  0  0  0  0  0  0  0  0  0  0  0
  192.6210  177.4930  140.2980 C   0  0  0  0  0  1  0  0  0  0  0  0
  189.3250  179.2440  142.2280 C   0  0  0  0  0  1  0  0  0  0  0  0
  188.6190  178.0790  141.7080 N   0  0  0  0  0  0  0  0  0  0  0  0
  189.1420  176.7680  142.0620 C   0  0  0  0  0  2  0  0  0  0  0  0
  188.3920  176.2150  143.2650 C   0  0  0  0  0  2  0  0  0  0  0  0
  188.6120  177.0380  144.4470 N   0  0  0  0  0  0  0  0  0  0  0  0
  188.3030  177.5930  148.7160 C   0  0  0  0  0  1  0  0  0  0  0  0
  187.4150  177.8040  146.4600 C   0  0  0  0  0  3  0  0  0  0  0  0
  190.8120  177.1260  147.3580 O   0  0  0  0  0  0  0  0  0  0  0  0
  188.4760  177.5680  147.2370 C   0  0  0  0  0  0  0  0  0  0  0  0
  187.5200  177.8680  144.9610 C   0  0  0  0  0  2  0  0  0  0  0  0
  189.8380  176.9390  145.1970 C   0  0  0  0  0  0  0  0  0  0  0  0
  191.2250  176.3870  144.5020 S   0  0  0  0  0  0  0  0  0  0  0  0
  189.7800  177.2210  146.6390 C   0  0  0  0  0  0  0  0  0  0  0  0
  1 11  2  0  0  0  0
  1 10  1  0  0  0  0
  2  7  1  0  0  0  0
  3 23  1  0  0  0  0
  3 13  2  0  0  0  0
  4  9  1  0  0  0  0
  4  2  2  0  0  0  0
  5 12  1  0  0  0  0
  6 13  1  0  0  0  0
  6  2  1  0  0  0  0
  7 12  2  0  0  0  0
  8 10  1  0  0  0  0
  8  4  1  0  0  0  0
  9  5  2  0  0  0  0
 10  6  2  0  0  0  0
 11  3  1  0  0  0  0
 14 16  1  0  0  0  0
 15 16  2  0  0  0  0
 16 11  1  0  0  0  0
 17 18  1  0  0  0  0
 17 14  1  0  0  0  0
 18 19  1  0  0  0  0
 19 20  1  0  0  0  0
 20 21  1  0  0  0  0
 23 24  1  0  0  0  0
 23 22  1  0  0  0  0
 24 25  1  0  0  0  0
 25 26  1  0  0  0  0
 26 31  1  0  0  0  0
 26 32  1  0  0  0  0
 28 30  2  0  0  0  0
 30 27  1  0  0  0  0
 31 28  1  0  0  0  0
 32 34  1  0  0  0  0
 33 32  2  0  0  0  0
 34 30  1  0  0  0  0
 34 29  2  0  0  0  0
M  END
>  <MODEL>
8

>  <REMARK>
 VINA RESULT:      -7.5      2.372      6.908
  Name = 
  9 active torsions:
  status: ('A' for Active; 'I' for Inactive)
    1  A    between atoms: N_1  and  C_26
    2  A    between atoms: C_2  and  C_9
    3  A    between atoms: C_2  and  C_28
    4  A    between atoms: N_8  and  C_28
    5  A    between atoms: C_9  and  O_24
    6  A    between atoms: C_12  and  C_26
    7  A    between atoms: C_12  and  N_29
    8  A    between atoms: C_16  and  N_29
    9  A    between atoms: C_22  and  C_31
                            x       y       z     vdW  Elec       q    Type
                         _______ _______ _______ _____ _____    ______ ____

>  <TORSDO>
F 9

$$$$
=
 OpenBabel10222418213D

 34 37  0  0  0  0  0  0  0  0999 V2000
  185.9860  178.3810  137.9280 C   0  0  0  0  0  3  0  0  0  0  0  0
  189.2440  177.5560  139.2900 C   0  0  0  0  0  0  0  0  0  0  0  0
  185.8160  178.6280  140.3620 C   0  0  0  0  0  0  0  0  0  0  0  0
  189.6660  177.3060  137.9940 C   0  0  0  0  0  0  0  0  0  0  0  0
  191.8330  176.7680  138.7250 C   0  0  0  0  0  3  0  0  0  0  0  0
  187.9040  177.9420  139.3480 C   0  0  0  0  0  0  0  0  0  0  0  0
  190.1400  177.4170  140.3500 C   0  0  0  0  0  3  0  0  0  0  0  0
  188.4130  177.5500  136.8910 S   0  0  0  0  0  0  0  0  0  0  0  0
  190.9330  176.9150  137.7090 N   0  0  0  0  0  0  0  0  0  0  0  0
  187.3090  177.9880  138.0940 C   0  0  0  0  0  0  0  0  0  0  0  0
  185.2270  178.7240  139.0630 C   0  0  0  0  0  0  0  0  0  0  0  0
  191.4540  177.0170  140.0590 C   0  0  0  0  0  3  0  0  0  0  0  0
  187.1690  178.2520  140.4890 C   0  0  0  0  0  3  0  0  0  0  0  0
  182.8300  178.3460  138.3930 N   0  0  0  0  0  2  0  0  0  0  0  0
  183.6010  180.4670  139.0030 O   0  0  0  0  0  0  0  0  0  0  0  0
  183.8580  179.2390  138.8400 C   0  0  0  0  0  0  0  0  0  0  0  0
  181.4680  178.7990  138.1660 C   0  0  0  0  0  2  0  0  0  0  0  0
  180.6040  178.4260  139.3480 C   0  0  0  0  0  2  0  0  0  0  0  0
  180.2760  179.6710  140.1410 C   0  0  0  0  0  2  0  0  0  0  0  0
  180.1990  179.3530  141.4940 O   0  0  0  0  0  0  0  0  0  0  0  0
  179.6790  180.5020  142.0930 C   0  0  0  0  0  1  0  0  0  0  0  0
  183.7310  178.2760  141.7100 C   0  0  0  0  0  1  0  0  0  0  0  0
  185.0540  178.8690  141.5590 N   0  0  0  0  0  0  0  0  0  0  0  0
  185.6830  179.4110  142.7540 C   0  0  0  0  0  2  0  0  0  0  0  0
  185.2480  178.6180  143.9780 C   0  0  0  0  0  2  0  0  0  0  0  0
  186.3600  177.8600  144.5380 N   0  0  0  0  0  0  0  0  0  0  0  0
  190.5790  177.4880  145.3630 C   0  0  0  0  0  1  0  0  0  0  0  0
  188.6370  177.1350  143.9390 C   0  0  0  0  0  3  0  0  0  0  0  0
  188.6060  178.0020  147.4110 O   0  0  0  0  0  0  0  0  0  0  0  0
  189.1060  177.4530  145.1490 C   0  0  0  0  0  0  0  0  0  0  0  0
  187.1650  177.0070  143.6600 C   0  0  0  0  0  2  0  0  0  0  0  0
  186.7650  178.0470  145.9070 C   0  0  0  0  0  0  0  0  0  0  0  0
  185.7180  178.6280  147.0390 S   0  0  0  0  0  0  0  0  0  0  0  0
  188.1810  177.8290  146.2360 C   0  0  0  0  0  0  0  0  0  0  0  0
  1 10  2  0  0  0  0
  1 11  1  0  0  0  0
  2  6  1  0  0  0  0
  2  7  1  0  0  0  0
  3 13  1  0  0  0  0
  3 23  1  0  0  0  0
  4  2  2  0  0  0  0
  5 12  1  0  0  0  0
  6 13  2  0  0  0  0
  8  4  1  0  0  0  0
  8 10  1  0  0  0  0
  9  4  1  0  0  0  0
  9  5  2  0  0  0  0
 10  6  1  0  0  0  0
 11  3  2  0  0  0  0
 12  7  2  0  0  0  0
 14 16  1  0  0  0  0
 16 15  2  0  0  0  0
 16 11  1  0  0  0  0
 17 14  1  0  0  0  0
 17 18  1  0  0  0  0
 18 19  1  0  0  0  0
 19 20  1  0  0  0  0
 20 21  1  0  0  0  0
 23 22  1  0  0  0  0
 23 24  1  0  0  0  0
 24 25  1  0  0  0  0
 25 26  1  0  0  0  0
 26 32  1  0  0  0  0
 28 30  2  0  0  0  0
 30 27  1  0  0  0  0
 30 34  1  0  0  0  0
 31 28  1  0  0  0  0
 31 26  1  0  0  0  0
 32 34  1  0  0  0  0
 32 33  2  0  0  0  0
 34 29  2  0  0  0  0
M  END
>  <MODEL>
9

>  <REMARK>
 VINA RESULT:      -7.5      3.145      9.249
  Name = 
  9 active torsions:
  status: ('A' for Active; 'I' for Inactive)
    1  A    between atoms: N_1  and  C_26
    2  A    between atoms: C_2  and  C_9
    3  A    between atoms: C_2  and  C_28
    4  A    between atoms: N_8  and  C_28
    5  A    between atoms: C_9  and  O_24
    6  A    between atoms: C_12  and  C_26
    7  A    between atoms: C_12  and  N_29
    8  A    between atoms: C_16  and  N_29
    9  A    between atoms: C_22  and  C_31
                            x       y       z     vdW  Elec       q    Type
                         _______ _______ _______ _____ _____    ______ ____

>  <TORSDO>
F 9

$$$$
