=
 OpenBabel10222421183D

 37 41  0  0  1  0  0  0  0  0999 V2000
  185.8270  178.4740  140.6940 C   0  0  0  0  0  0  0  0  0  0  0  0
  188.3740  177.2650  144.6050 C   0  0  2  0  0  3  0  0  0  0  0  0
  187.9800  177.9550  141.5850 C   0  0  1  0  0  0  0  0  0  0  0  0
  189.0010  176.8290  141.4180 C   0  0  2  0  0  3  0  0  0  0  0  0
  189.8810  176.5450  142.6520 C   0  0  1  0  0  3  0  0  0  0  0  0
  184.4100  178.3730  142.6390 C   0  0  0  0  0  2  0  0  0  0  0  0
  189.8700  177.1430  140.1970 C   0  0  0  0  0  2  0  0  0  0  0  0
  186.8950  177.6180  142.6250 C   0  0  2  0  0  3  0  0  0  0  0  0
  182.0070  179.0330  142.4460 C   0  0  0  0  0  1  0  0  0  0  0  0
  188.6140  179.1560  141.8810 F   0  0  0  0  0  0  0  0  0  0  0  0
  183.3500  178.8370  141.8430 C   0  0  0  0  0  0  0  0  0  0  0  0
  187.1950  178.1540  140.3310 C   0  0  0  0  0  0  0  0  0  0  0  0
  185.6580  178.2220  142.0370 C   0  0  0  0  0  0  0  0  0  0  0  0
  184.8940  179.1430  138.6840 O   0  0  0  0  0  0  0  0  0  0  0  0
  189.7060  177.4660  143.8720 C   0  0  0  0  0  2  0  0  0  0  0  0
  183.5420  179.0910  140.5130 N   0  0  0  0  0  0  0  0  0  0  0  0
  187.2520  178.1210  144.0160 C   0  0  0  0  0  2  0  0  0  0  0  0
  184.7540  178.9120  139.9150 C   0  0  0  0  0  0  0  0  0  0  0  0
  187.6560  177.8710  139.1110 C   0  0  0  0  0  3  0  0  0  0  0  0
  189.0240  177.2630  138.9090 C   0  0  1  0  0  3  0  0  0  0  0  0
  189.7630  175.2060  143.0260 O   0  0  0  0  0  1  0  0  0  0  0  0
  187.4170  177.9480  146.8070 C   0  0  0  0  0  3  0  0  0  0  0  0
  189.9010  177.6880  148.0660 C   0  0  0  0  0  3  0  0  0  0  0  0
  188.5330  177.5470  146.0650 C   0  0  0  0  0  0  0  0  0  0  0  0
  187.5410  178.2170  148.1730 C   0  0  0  0  0  3  0  0  0  0  0  0
  189.7790  177.4170  146.7000 C   0  0  0  0  0  3  0  0  0  0  0  0
  188.7820  178.0880  148.8020 C   0  0  0  0  0  3  0  0  0  0  0  0
  189.7800  178.0320  137.8340 C   0  0  0  0  0  2  0  0  0  0  0  0
  190.7000  177.1390  137.0710 C   0  0  0  0  0  3  0  0  0  0  0  0
  191.8460  176.7270  137.6040 C   0  0  0  0  0  3  0  0  0  0  0  0
  192.7680  175.8510  136.8750 C   0  0  0  0  0  0  0  0  0  0  0  0
  192.3450  175.0860  135.9660 O   0  0  0  0  0  0  0  0  0  0  0  0
  194.1550  175.8770  137.2090 N   0  0  0  0  0  2  0  0  0  0  0  0
  195.0160  173.1810  136.8160 C   0  0  0  0  0  1  0  0  0  0  0  0
  196.7060  175.2560  136.8530 O   0  0  0  0  0  0  0  0  0  0  0  0
  195.3220  174.8820  136.4040 S   0  0  0  0  0  0  0  0  0  0  0  0
  195.2010  175.0580  134.9170 O   0  0  0  0  0  0  0  0  0  0  0  0
  1 13  2  0  0  0  0
  2 24  1  1  0  0  0
  3 10  1  1  0  0  0
  3  8  1  0  0  0  0
  4  7  1  6  0  0  0
  4  3  1  0  0  0  0
  4  5  1  0  0  0  0
  5 21  1  1  0  0  0
  5 15  1  0  0  0  0
  8 17  1  1  0  0  0
 11  9  1  0  0  0  0
 11  6  1  0  0  0  0
 12  1  1  0  0  0  0
 12  3  1  0  0  0  0
 13  8  1  0  0  0  0
 13  6  1  0  0  0  0
 14 18  2  0  0  0  0
 15  2  1  0  0  0  0
 16 11  2  0  0  0  0
 17  2  1  0  0  0  0
 18 16  1  0  0  0  0
 18  1  1  0  0  0  0
 19 12  2  0  0  0  0
 20 28  1  6  0  0  0
 20 19  1  0  0  0  0
 20  7  1  0  0  0  0
 22 25  1  0  0  0  0
 23 27  1  0  0  0  0
 24 26  1  0  0  0  0
 24 22  2  0  0  0  0
 25 27  2  0  0  0  0
 26 23  2  0  0  0  0
 29 30  2  0  0  0  0
 29 28  1  0  0  0  0
 31 33  1  0  0  0  0
 31 30  1  0  0  0  0
 32 31  2  0  0  0  0
 36 34  1  0  0  0  0
 36 35  2  0  0  0  0
 36 33  1  0  0  0  0
 37 36  2  0  0  0  0
M  END
>  <MODEL>
1

>  <REMARK>
 VINA RESULT:     -10.0      0.000      0.000
  Name = 
  5 active torsions:
  status: ('A' for Active; 'I' for Inactive)
    1  A    between atoms: C_3  and  C_20
    2  A    between atoms: C_6  and  C_22
    3  A    between atoms: C_8  and  C_26
    4  A    between atoms: C_26  and  C_34
    5  A    between atoms: S_30  and  N_32
                            x       y       z     vdW  Elec       q    Type
                         _______ _______ _______ _____ _____    ______ ____

>  <TORSDO>
F 5

$$$$
=
 OpenBabel10222421183D

 37 41  0  0  1  0  0  0  0  0999 V2000
  186.0080  178.5000  141.5620 C   0  0  0  0  0  0  0  0  0  0  0  0
  188.6250  177.7550  145.5420 C   0  0  2  0  0  3  0  0  0  0  0  0
  185.9820  178.0910  143.9140 C   0  0  1  0  0  0  0  0  0  0  0  0
  185.5660  178.8680  145.1640 C   0  0  2  0  0  3  0  0  0  0  0  0
  186.3460  178.5210  146.4480 C   0  0  1  0  0  3  0  0  0  0  0  0
  188.3600  178.4600  141.0430 C   0  0  0  0  0  2  0  0  0  0  0  0
  184.0630  178.6710  145.3760 C   0  0  0  0  0  2  0  0  0  0  0  0
  187.4170  178.4240  143.4630 C   0  0  2  0  0  3  0  0  0  0  0  0
  189.0970  178.6160  138.6600 C   0  0  0  0  0  1  0  0  0  0  0  0
  185.8110  176.7260  144.1020 F   0  0  0  0  0  0  0  0  0  0  0  0
  188.0230  178.5710  139.6850 C   0  0  0  0  0  0  0  0  0  0  0  0
  185.1560  178.4940  142.7360 C   0  0  0  0  0  0  0  0  0  0  0  0
  187.3190  178.4010  141.9690 C   0  0  0  0  0  0  0  0  0  0  0  0
  184.5000  178.7300  139.8220 O   0  0  0  0  0  0  0  0  0  0  0  0
  187.3820  177.3870  146.3620 C   0  0  0  0  0  2  0  0  0  0  0  0
  186.7130  178.6580  139.3000 N   0  0  0  0  0  0  0  0  0  0  0  0
  188.4440  177.4670  144.0510 C   0  0  0  0  0  2  0  0  0  0  0  0
  185.6950  178.6350  140.2070 C   0  0  0  0  0  0  0  0  0  0  0  0
  183.9100  178.9620  142.8260 C   0  0  0  0  0  3  0  0  0  0  0  0
  183.2430  179.1730  144.1650 C   0  0  1  0  0  3  0  0  0  0  0  0
  186.9220  179.6730  146.9840 O   0  0  0  0  0  1  0  0  0  0  0  0
  190.8530  176.6860  145.1820 C   0  0  0  0  0  3  0  0  0  0  0  0
  191.0800  176.0430  147.8950 C   0  0  0  0  0  3  0  0  0  0  0  0
  189.8280  177.0380  146.0670 C   0  0  0  0  0  0  0  0  0  0  0  0
  191.9870  176.0170  145.6500 C   0  0  0  0  0  3  0  0  0  0  0  0
  189.9450  176.7140  147.4290 C   0  0  0  0  0  3  0  0  0  0  0  0
  192.1010  175.6950  147.0050 C   0  0  0  0  0  3  0  0  0  0  0  0
  181.8540  178.5510  144.1570 C   0  0  0  0  0  2  0  0  0  0  0  0
  180.9680  179.2150  143.1550 C   0  0  0  0  0  3  0  0  0  0  0  0
  181.0800  178.9410  141.8600 C   0  0  0  0  0  3  0  0  0  0  0  0
  180.2240  179.5790  140.8560 C   0  0  0  0  0  0  0  0  0  0  0  0
  178.9970  179.2980  140.7850 O   0  0  0  0  0  0  0  0  0  0  0  0
  180.8000  180.5280  139.9590 N   0  0  0  0  0  2  0  0  0  0  0  0
  180.9730  182.2140  137.6580 C   0  0  0  0  0  1  0  0  0  0  0  0
  178.9310  182.3150  139.3860 O   0  0  0  0  0  0  0  0  0  0  0  0
  179.8710  181.3360  138.7410 S   0  0  0  0  0  0  0  0  0  0  0  0
  179.0940  180.3290  137.9430 O   0  0  0  0  0  0  0  0  0  0  0  0
  1 13  2  0  0  0  0
  1 12  1  0  0  0  0
  2 24  1  1  0  0  0
  2 15  1  0  0  0  0
  3 10  1  1  0  0  0
  3  4  1  0  0  0  0
  4  7  1  1  0  0  0
  4  5  1  0  0  0  0
  5 21  1  6  0  0  0
  6 13  1  0  0  0  0
  8  3  1  0  0  0  0
  8 17  1  1  0  0  0
  9 11  1  0  0  0  0
 11  6  1  0  0  0  0
 12 19  2  0  0  0  0
 12  3  1  0  0  0  0
 13  8  1  0  0  0  0
 14 18  2  0  0  0  0
 15  5  1  0  0  0  0
 16 11  2  0  0  0  0
 16 18  1  0  0  0  0
 17  2  1  0  0  0  0
 18  1  1  0  0  0  0
 19 20  1  0  0  0  0
 20 28  1  6  0  0  0
 20  7  1  0  0  0  0
 22 25  2  0  0  0  0
 22 24  1  0  0  0  0
 24 26  2  0  0  0  0
 25 27  1  0  0  0  0
 26 23  1  0  0  0  0
 27 23  2  0  0  0  0
 29 28  1  0  0  0  0
 30 29  2  0  0  0  0
 31 30  1  0  0  0  0
 32 31  2  0  0  0  0
 33 31  1  0  0  0  0
 34 36  1  0  0  0  0
 36 35  2  0  0  0  0
 36 33  1  0  0  0  0
 37 36  2  0  0  0  0
M  END
>  <MODEL>
2

>  <REMARK>
 VINA RESULT:      -9.9      5.173      8.610
  Name = 
  5 active torsions:
  status: ('A' for Active; 'I' for Inactive)
    1  A    between atoms: C_3  and  C_20
    2  A    between atoms: C_6  and  C_22
    3  A    between atoms: C_8  and  C_26
    4  A    between atoms: C_26  and  C_34
    5  A    between atoms: S_30  and  N_32
                            x       y       z     vdW  Elec       q    Type
                         _______ _______ _______ _____ _____    ______ ____

>  <TORSDO>
F 5

$$$$
=
 OpenBabel10222421183D

 37 41  0  0  1  0  0  0  0  0999 V2000
  185.7890  178.5230  141.3600 C   0  0  0  0  0  0  0  0  0  0  0  0
  188.2900  177.9290  145.4390 C   0  0  2  0  0  3  0  0  0  0  0  0
  185.6950  178.1840  143.7220 C   0  0  1  0  0  0  0  0  0  0  0  0
  185.2310  178.9910  144.9340 C   0  0  2  0  0  3  0  0  0  0  0  0
  185.9750  178.6930  146.2520 C   0  0  1  0  0  3  0  0  0  0  0  0
  188.1560  178.4980  140.9150 C   0  0  0  0  0  2  0  0  0  0  0  0
  183.7240  178.7820  145.1060 C   0  0  0  0  0  2  0  0  0  0  0  0
  187.1390  178.5210  143.3040 C   0  0  2  0  0  3  0  0  0  0  0  0
  188.9650  178.5920  138.5510 C   0  0  0  0  0  1  0  0  0  0  0  0
  185.5340  176.8220  143.9450 F   0  0  0  0  0  0  0  0  0  0  0  0
  187.8590  178.5640  139.5440 C   0  0  0  0  0  0  0  0  0  0  0  0
  184.9010  178.5400  142.5080 C   0  0  0  0  0  0  0  0  0  0  0  0
  187.0880  178.4530  141.8100 C   0  0  0  0  0  0  0  0  0  0  0  0
  184.3320  178.6820  139.5690 O   0  0  0  0  0  0  0  0  0  0  0  0
  187.0260  177.5700  146.2310 C   0  0  0  0  0  2  0  0  0  0  0  0
  186.5610  178.6230  139.1170 N   0  0  0  0  0  0  0  0  0  0  0  0
  188.1580  177.5960  143.9520 C   0  0  0  0  0  2  0  0  0  0  0  0
  185.5160  178.6130  139.9930 C   0  0  0  0  0  0  0  0  0  0  0  0
  183.6470  178.9950  142.5450 C   0  0  0  0  0  3  0  0  0  0  0  0
  182.9370  179.2370  143.8570 C   0  0  1  0  0  3  0  0  0  0  0  0
  186.5210  179.8680  146.7700 O   0  0  0  0  0  1  0  0  0  0  0  0
  190.6040  177.0180  145.2130 C   0  0  0  0  0  3  0  0  0  0  0  0
  190.6300  176.1850  147.8830 C   0  0  0  0  0  3  0  0  0  0  0  0
  189.4850  177.2440  146.0220 C   0  0  0  0  0  0  0  0  0  0  0  0
  191.7320  176.3810  145.7360 C   0  0  0  0  0  3  0  0  0  0  0  0
  189.5010  176.8240  147.3630 C   0  0  0  0  0  3  0  0  0  0  0  0
  191.7450  175.9640  147.0700 C   0  0  0  0  0  3  0  0  0  0  0  0
  181.5560  178.5980  143.8240 C   0  0  0  0  0  2  0  0  0  0  0  0
  181.2330  178.0700  142.4660 C   0  0  0  0  0  3  0  0  0  0  0  0
  180.0450  178.2920  141.9140 C   0  0  0  0  0  3  0  0  0  0  0  0
  179.7020  177.7820  140.5830 C   0  0  0  0  0  0  0  0  0  0  0  0
  178.9310  178.4320  139.8250 O   0  0  0  0  0  0  0  0  0  0  0  0
  180.2560  176.5390  140.1540 N   0  0  0  0  0  2  0  0  0  0  0  0
  181.4200  175.2390  137.8920 C   0  0  0  0  0  1  0  0  0  0  0  0
  179.3410  176.9130  137.6970 O   0  0  0  0  0  0  0  0  0  0  0  0
  179.9130  175.8570  138.6000 S   0  0  0  0  0  0  0  0  0  0  0  0
  178.9370  174.7250  138.7460 O   0  0  0  0  0  0  0  0  0  0  0  0
  1 13  2  0  0  0  0
  1 12  1  0  0  0  0
  2 24  1  1  0  0  0
  2 15  1  0  0  0  0
  3 10  1  1  0  0  0
  3  4  1  0  0  0  0
  4  7  1  1  0  0  0
  4  5  1  0  0  0  0
  5 21  1  6  0  0  0
  6 13  1  0  0  0  0
  8  3  1  0  0  0  0
  8 17  1  1  0  0  0
  9 11  1  0  0  0  0
 11  6  1  0  0  0  0
 12 19  2  0  0  0  0
 12  3  1  0  0  0  0
 13  8  1  0  0  0  0
 14 18  2  0  0  0  0
 15  5  1  0  0  0  0
 16 11  2  0  0  0  0
 16 18  1  0  0  0  0
 17  2  1  0  0  0  0
 18  1  1  0  0  0  0
 19 20  1  0  0  0  0
 20 28  1  6  0  0  0
 20  7  1  0  0  0  0
 22 25  2  0  0  0  0
 22 24  1  0  0  0  0
 24 26  2  0  0  0  0
 25 27  1  0  0  0  0
 26 23  1  0  0  0  0
 27 23  2  0  0  0  0
 29 28  1  0  0  0  0
 30 29  2  0  0  0  0
 31 30  1  0  0  0  0
 32 31  2  0  0  0  0
 33 31  1  0  0  0  0
 34 36  1  0  0  0  0
 35 36  2  0  0  0  0
 36 37  2  0  0  0  0
 36 33  1  0  0  0  0
M  END
>  <MODEL>
3

>  <REMARK>
 VINA RESULT:      -9.3      5.096      8.231
  Name = 
  5 active torsions:
  status: ('A' for Active; 'I' for Inactive)
    1  A    between atoms: C_3  and  C_20
    2  A    between atoms: C_6  and  C_22
    3  A    between atoms: C_8  and  C_26
    4  A    between atoms: C_26  and  C_34
    5  A    between atoms: S_30  and  N_32
                            x       y       z     vdW  Elec       q    Type
                         _______ _______ _______ _____ _____    ______ ____

>  <TORSDO>
F 5

$$$$
=
 OpenBabel10222421183D

 37 41  0  0  1  0  0  0  0  0999 V2000
  188.7700  177.4280  145.5200 C   0  0  0  0  0  0  0  0  0  0  0  0
  184.7220  178.7120  143.2350 C   0  0  2  0  0  3  0  0  0  0  0  0
  187.6410  177.6180  143.4240 C   0  0  1  0  0  0  0  0  0  0  0  0
  187.8050  178.4540  142.1550 C   0  0  2  0  0  3  0  0  0  0  0  0
  186.5030  178.7490  141.3830 C   0  0  1  0  0  3  0  0  0  0  0  0
  187.0970  178.1600  147.0910 C   0  0  0  0  0  2  0  0  0  0  0  0
  188.8240  177.7580  141.2480 C   0  0  0  0  0  2  0  0  0  0  0  0
  186.8360  178.3510  144.5140 C   0  0  2  0  0  3  0  0  0  0  0  0
  187.5610  178.0070  149.5430 C   0  0  0  0  0  1  0  0  0  0  0  0
  187.0880  176.3780  143.1300 F   0  0  0  0  0  0  0  0  0  0  0  0
  187.9730  177.8050  148.1290 C   0  0  0  0  0  0  0  0  0  0  0  0
  188.9600  177.3810  144.0820 C   0  0  0  0  0  0  0  0  0  0  0  0
  187.5170  177.9350  145.7810 C   0  0  0  0  0  0  0  0  0  0  0  0
  190.7850  176.6430  146.3420 O   0  0  0  0  0  0  0  0  0  0  0  0
  185.2080  178.1080  141.9120 C   0  0  0  0  0  2  0  0  0  0  0  0
  189.2100  177.2930  147.8490 N   0  0  0  0  0  0  0  0  0  0  0  0
  185.3500  178.0280  144.4510 C   0  0  0  0  0  2  0  0  0  0  0  0
  189.6350  177.1040  146.5670 C   0  0  0  0  0  0  0  0  0  0  0  0
  190.1230  177.3480  143.4280 C   0  0  0  0  0  3  0  0  0  0  0  0
  190.1970  177.6050  141.9410 C   0  0  1  0  0  3  0  0  0  0  0  0
  186.3410  180.1260  141.2250 O   0  0  0  0  0  1  0  0  0  0  0  0
  182.4810  178.6270  142.1380 C   0  0  0  0  0  3  0  0  0  0  0  0
  181.1750  178.5760  144.6110 C   0  0  0  0  0  3  0  0  0  0  0  0
  183.2300  178.6550  143.3190 C   0  0  0  0  0  0  0  0  0  0  0  0
  181.0860  178.5730  142.1910 C   0  0  0  0  0  3  0  0  0  0  0  0
  182.5710  178.6290  144.5600 C   0  0  0  0  0  3  0  0  0  0  0  0
  180.4330  178.5480  143.4270 C   0  0  0  0  0  3  0  0  0  0  0  0
  191.0250  176.5200  141.2670 C   0  0  0  0  0  2  0  0  0  0  0  0
  190.6600  176.3730  139.8280 C   0  0  0  0  0  3  0  0  0  0  0  0
  191.5690  176.5430  138.8740 C   0  0  0  0  0  3  0  0  0  0  0  0
  191.2360  176.4050  137.4530 C   0  0  0  0  0  0  0  0  0  0  0  0
  192.1470  176.3520  136.5820 O   0  0  0  0  0  0  0  0  0  0  0  0
  189.8640  176.3310  137.0680 N   0  0  0  0  0  2  0  0  0  0  0  0
  187.6010  176.0340  135.3490 C   0  0  0  0  0  1  0  0  0  0  0  0
  189.9810  174.9260  134.8250 O   0  0  0  0  0  0  0  0  0  0  0  0
  189.3720  176.1670  135.4160 S   0  0  0  0  0  0  0  0  0  0  0  0
  189.8050  177.3730  134.6330 O   0  0  0  0  0  0  0  0  0  0  0  0
  1 13  2  0  0  0  0
  1 18  1  0  0  0  0
  2 24  1  1  0  0  0
  2 17  1  0  0  0  0
  3 10  1  6  0  0  0
  3 12  1  0  0  0  0
  3  8  1  0  0  0  0
  4  7  1  6  0  0  0
  4  3  1  0  0  0  0
  5 21  1  1  0  0  0
  5 15  1  0  0  0  0
  5  4  1  0  0  0  0
  6 11  1  0  0  0  0
  7 20  1  0  0  0  0
  8 17  1  1  0  0  0
  8 13  1  0  0  0  0
 11  9  1  0  0  0  0
 12  1  1  0  0  0  0
 13  6  1  0  0  0  0
 14 18  2  0  0  0  0
 15  2  1  0  0  0  0
 16 11  2  0  0  0  0
 18 16  1  0  0  0  0
 19 12  2  0  0  0  0
 20 28  1  6  0  0  0
 20 19  1  0  0  0  0
 22 25  2  0  0  0  0
 22 24  1  0  0  0  0
 24 26  2  0  0  0  0
 25 27  1  0  0  0  0
 26 23  1  0  0  0  0
 27 23  2  0  0  0  0
 29 28  1  0  0  0  0
 30 29  2  0  0  0  0
 31 30  1  0  0  0  0
 32 31  2  0  0  0  0
 33 31  1  0  0  0  0
 34 36  1  0  0  0  0
 35 36  2  0  0  0  0
 36 33  1  0  0  0  0
 37 36  2  0  0  0  0
M  END
>  <MODEL>
4

>  <REMARK>
 VINA RESULT:      -9.0      2.633      5.946
  Name = 
  5 active torsions:
  status: ('A' for Active; 'I' for Inactive)
    1  A    between atoms: C_3  and  C_20
    2  A    between atoms: C_6  and  C_22
    3  A    between atoms: C_8  and  C_26
    4  A    between atoms: C_26  and  C_34
    5  A    between atoms: S_30  and  N_32
                            x       y       z     vdW  Elec       q    Type
                         _______ _______ _______ _____ _____    ______ ____

>  <TORSDO>
F 5

$$$$
=
 OpenBabel10222421183D

 37 41  0  0  1  0  0  0  0  0999 V2000
  188.7870  177.4320  145.2900 C   0  0  0  0  0  0  0  0  0  0  0  0
  184.7350  178.7010  143.0050 C   0  0  2  0  0  3  0  0  0  0  0  0
  187.6410  177.5770  143.2000 C   0  0  1  0  0  0  0  0  0  0  0  0
  187.8050  178.3740  141.9060 C   0  0  2  0  0  3  0  0  0  0  0  0
  186.5000  178.6640  141.1380 C   0  0  1  0  0  3  0  0  0  0  0  0
  187.1380  178.2290  146.8540 C   0  0  0  0  0  2  0  0  0  0  0  0
  188.8060  177.6410  141.0100 C   0  0  0  0  0  2  0  0  0  0  0  0
  186.8550  178.3510  144.2760 C   0  0  2  0  0  3  0  0  0  0  0  0
  187.6210  178.1390  149.3050 C   0  0  0  0  0  1  0  0  0  0  0  0
  187.0710  176.3360  142.9460 F   0  0  0  0  0  0  0  0  0  0  0  0
  188.0180  177.8930  147.8950 C   0  0  0  0  0  0  0  0  0  0  0  0
  188.9640  177.3420  143.8530 C   0  0  0  0  0  0  0  0  0  0  0  0
  187.5430  177.9620  145.5470 C   0  0  0  0  0  0  0  0  0  0  0  0
  190.8000  176.6450  146.1170 O   0  0  0  0  0  0  0  0  0  0  0  0
  185.2020  178.0550  141.6950 C   0  0  0  0  0  2  0  0  0  0  0  0
  189.2460  177.3570  147.6180 N   0  0  0  0  0  0  0  0  0  0  0  0
  185.3660  178.0440  144.2350 C   0  0  0  0  0  2  0  0  0  0  0  0
  189.6570  177.1270  146.3390 C   0  0  0  0  0  0  0  0  0  0  0  0
  190.1200  177.2760  143.1900 C   0  0  0  0  0  3  0  0  0  0  0  0
  190.1840  177.4900  141.6960 C   0  0  1  0  0  3  0  0  0  0  0  0
  186.3530  180.0380  140.9420 O   0  0  0  0  0  1  0  0  0  0  0  0
  182.6430  178.6650  144.3680 C   0  0  0  0  0  3  0  0  0  0  0  0
  181.0450  178.5960  142.0730 C   0  0  0  0  0  3  0  0  0  0  0  0
  183.2430  178.6650  143.1040 C   0  0  0  0  0  0  0  0  0  0  0  0
  181.2510  178.6320  144.4860 C   0  0  0  0  0  3  0  0  0  0  0  0
  182.4380  178.6300  141.9540 C   0  0  0  0  0  3  0  0  0  0  0  0
  180.4520  178.5970  143.3390 C   0  0  0  0  0  3  0  0  0  0  0  0
  190.9930  176.3760  141.0460 C   0  0  0  0  0  2  0  0  0  0  0  0
  191.4780  176.7760  139.6920 C   0  0  0  0  0  3  0  0  0  0  0  0
  192.0650  175.8930  138.8920 C   0  0  0  0  0  3  0  0  0  0  0  0
  192.5530  176.2600  137.5580 C   0  0  0  0  0  0  0  0  0  0  0  0
  191.7710  176.7560  136.7030 O   0  0  0  0  0  0  0  0  0  0  0  0
  193.9280  176.0480  137.2420 N   0  0  0  0  0  2  0  0  0  0  0  0
  195.9820  175.3870  135.3700 C   0  0  0  0  0  1  0  0  0  0  0  0
  195.0640  177.8790  135.7020 O   0  0  0  0  0  0  0  0  0  0  0  0
  194.5970  176.4510  135.6970 S   0  0  0  0  0  0  0  0  0  0  0  0
  193.5620  176.2540  134.6270 O   0  0  0  0  0  0  0  0  0  0  0  0
  1 13  2  0  0  0  0
  1 18  1  0  0  0  0
  2 24  1  1  0  0  0
  2 17  1  0  0  0  0
  3 10  1  6  0  0  0
  3 12  1  0  0  0  0
  3  8  1  0  0  0  0
  4  7  1  6  0  0  0
  4  3  1  0  0  0  0
  5 21  1  1  0  0  0
  5 15  1  0  0  0  0
  5  4  1  0  0  0  0
  6 11  1  0  0  0  0
  7 20  1  0  0  0  0
  8 17  1  1  0  0  0
  8 13  1  0  0  0  0
 11  9  1  0  0  0  0
 12  1  1  0  0  0  0
 13  6  1  0  0  0  0
 14 18  2  0  0  0  0
 15  2  1  0  0  0  0
 16 11  2  0  0  0  0
 18 16  1  0  0  0  0
 19 12  2  0  0  0  0
 20 28  1  6  0  0  0
 20 19  1  0  0  0  0
 22 25  1  0  0  0  0
 23 27  1  0  0  0  0
 24 22  2  0  0  0  0
 26 23  2  0  0  0  0
 26 24  1  0  0  0  0
 27 25  2  0  0  0  0
 29 28  1  0  0  0  0
 30 29  2  0  0  0  0
 31 30  1  0  0  0  0
 32 31  2  0  0  0  0
 33 31  1  0  0  0  0
 34 36  1  0  0  0  0
 36 35  2  0  0  0  0
 36 33  1  0  0  0  0
 37 36  2  0  0  0  0
M  END
>  <MODEL>
5

>  <REMARK>
 VINA RESULT:      -8.8      2.284      5.469
  Name = 
  5 active torsions:
  status: ('A' for Active; 'I' for Inactive)
    1  A    between atoms: C_3  and  C_20
    2  A    between atoms: C_6  and  C_22
    3  A    between atoms: C_8  and  C_26
    4  A    between atoms: C_26  and  C_34
    5  A    between atoms: S_30  and  N_32
                            x       y       z     vdW  Elec       q    Type
                         _______ _______ _______ _____ _____    ______ ____

>  <TORSDO>
F 5

$$$$
=
 OpenBabel10222421183D

 37 41  0  0  1  0  0  0  0  0999 V2000
  186.6950  178.4580  142.4820 C   0  0  0  0  0  0  0  0  0  0  0  0
  190.2760  176.6710  145.1720 C   0  0  2  0  0  3  0  0  0  0  0  0
  188.9690  177.7330  142.5420 C   0  0  1  0  0  0  0  0  0  0  0  0
  189.7780  176.5880  141.9330 C   0  0  2  0  0  3  0  0  0  0  0  0
  190.9880  176.1170  142.7650 C   0  0  1  0  0  3  0  0  0  0  0  0
  185.9950  178.1940  144.7710 C   0  0  0  0  0  2  0  0  0  0  0  0
  190.2200  177.0020  140.5270 C   0  0  0  0  0  2  0  0  0  0  0  0
  188.2630  177.3280  143.8490 C   0  0  2  0  0  3  0  0  0  0  0  0
  183.7280  178.9880  145.4640 C   0  0  0  0  0  1  0  0  0  0  0  0
  189.7650  178.8580  142.7200 F   0  0  0  0  0  0  0  0  0  0  0  0
  184.7760  178.8000  144.4270 C   0  0  0  0  0  0  0  0  0  0  0  0
  187.8350  178.1180  141.6500 C   0  0  0  0  0  0  0  0  0  0  0  0
  186.9570  178.0560  143.7720 C   0  0  0  0  0  0  0  0  0  0  0  0
  185.2120  179.4040  140.9780 O   0  0  0  0  0  0  0  0  0  0  0  0
  191.3040  176.8940  144.0550 C   0  0  0  0  0  2  0  0  0  0  0  0
  184.5390  179.2010  143.1410 N   0  0  0  0  0  0  0  0  0  0  0  0
  189.1000  177.6450  145.0800 C   0  0  0  0  0  2  0  0  0  0  0  0
  185.4670  179.0360  142.1550 C   0  0  0  0  0  0  0  0  0  0  0  0
  187.8420  177.9590  140.3250 C   0  0  0  0  0  3  0  0  0  0  0  0
  189.0100  177.3140  139.6170 C   0  0  1  0  0  3  0  0  0  0  0  0
  190.8870  174.7500  143.0270 O   0  0  0  0  0  1  0  0  0  0  0  0
  191.9790  175.8990  146.8250 C   0  0  0  0  0  3  0  0  0  0  0  0
  191.1400  177.7920  148.7060 C   0  0  0  0  0  3  0  0  0  0  0  0
  190.9310  176.7700  146.5120 C   0  0  0  0  0  0  0  0  0  0  0  0
  192.6070  175.9730  148.0720 C   0  0  0  0  0  3  0  0  0  0  0  0
  190.5110  177.7200  147.4590 C   0  0  0  0  0  3  0  0  0  0  0  0
  192.1870  176.9180  149.0120 C   0  0  0  0  0  3  0  0  0  0  0  0
  189.4320  178.1680  138.4290 C   0  0  0  0  0  2  0  0  0  0  0  0
  190.0220  177.3330  137.3420 C   0  0  0  0  0  3  0  0  0  0  0  0
  191.2010  176.7430  137.5000 C   0  0  0  0  0  3  0  0  0  0  0  0
  191.8040  175.9200  136.4470 C   0  0  0  0  0  0  0  0  0  0  0  0
  191.5300  176.1280  135.2340 O   0  0  0  0  0  0  0  0  0  0  0  0
  192.7070  174.8790  136.8150 N   0  0  0  0  0  2  0  0  0  0  0  0
  194.5120  174.8460  134.6010 C   0  0  0  0  0  1  0  0  0  0  0  0
  192.4250  173.1820  134.8010 O   0  0  0  0  0  0  0  0  0  0  0  0
  193.4700  173.8560  135.6450 S   0  0  0  0  0  0  0  0  0  0  0  0
  194.3100  172.8230  136.3420 O   0  0  0  0  0  0  0  0  0  0  0  0
  1 13  2  0  0  0  0
  2 24  1  1  0  0  0
  3 10  1  1  0  0  0
  3  8  1  0  0  0  0
  4  7  1  6  0  0  0
  4  3  1  0  0  0  0
  4  5  1  0  0  0  0
  5 21  1  1  0  0  0
  5 15  1  0  0  0  0
  8 17  1  1  0  0  0
 11  6  1  0  0  0  0
 11  9  1  0  0  0  0
 12  1  1  0  0  0  0
 12  3  1  0  0  0  0
 13  8  1  0  0  0  0
 13  6  1  0  0  0  0
 14 18  2  0  0  0  0
 15  2  1  0  0  0  0
 16 11  2  0  0  0  0
 17  2  1  0  0  0  0
 18  1  1  0  0  0  0
 18 16  1  0  0  0  0
 19 12  2  0  0  0  0
 20 28  1  6  0  0  0
 20 19  1  0  0  0  0
 20  7  1  0  0  0  0
 22 25  1  0  0  0  0
 23 27  1  0  0  0  0
 24 22  2  0  0  0  0
 24 26  1  0  0  0  0
 25 27  2  0  0  0  0
 26 23  2  0  0  0  0
 29 30  2  0  0  0  0
 29 28  1  0  0  0  0
 31 33  1  0  0  0  0
 31 30  1  0  0  0  0
 32 31  2  0  0  0  0
 34 36  1  0  0  0  0
 35 36  2  0  0  0  0
 36 37  2  0  0  0  0
 36 33  1  0  0  0  0
M  END
>  <MODEL>
6

>  <REMARK>
 VINA RESULT:      -8.7      1.770      2.424
  Name = 
  5 active torsions:
  status: ('A' for Active; 'I' for Inactive)
    1  A    between atoms: C_3  and  C_20
    2  A    between atoms: C_6  and  C_22
    3  A    between atoms: C_8  and  C_26
    4  A    between atoms: C_26  and  C_34
    5  A    between atoms: S_30  and  N_32
                            x       y       z     vdW  Elec       q    Type
                         _______ _______ _______ _____ _____    ______ ____

>  <TORSDO>
F 5

$$$$
=
 OpenBabel10222421183D

 37 41  0  0  1  0  0  0  0  0999 V2000
  186.8770  178.2800  140.1130 C   0  0  0  0  0  0  0  0  0  0  0  0
  182.3960  178.9330  138.4560 C   0  0  2  0  0  3  0  0  0  0  0  0
  184.6010  178.7490  140.6600 C   0  0  1  0  0  0  0  0  0  0  0  0
  183.4800  178.0370  141.4170 C   0  0  2  0  0  3  0  0  0  0  0  0
  182.0500  178.3580  140.9370 C   0  0  1  0  0  3  0  0  0  0  0  0
  186.8250  178.1340  137.7090 C   0  0  0  0  0  2  0  0  0  0  0  0
  183.6300  178.3490  142.9080 C   0  0  0  0  0  2  0  0  0  0  0  0
  184.6980  178.3010  139.1890 C   0  0  2  0  0  3  0  0  0  0  0  0
  188.9660  177.8640  136.4460 C   0  0  0  0  0  1  0  0  0  0  0  0
  184.4690  180.1280  140.7650 F   0  0  0  0  0  0  0  0  0  0  0  0
  188.2240  178.0140  137.7250 C   0  0  0  0  0  0  0  0  0  0  0  0
  185.9380  178.3780  141.2140 C   0  0  0  0  0  0  0  0  0  0  0  0
  186.1720  178.2920  138.9310 C   0  0  0  0  0  0  0  0  0  0  0  0
  188.9230  178.1160  141.1820 O   0  0  0  0  0  0  0  0  0  0  0  0
  181.8970  179.4110  139.8250 C   0  0  0  0  0  2  0  0  0  0  0  0
  188.9070  178.0130  138.9100 N   0  0  0  0  0  0  0  0  0  0  0  0
  183.8910  179.1940  138.2590 C   0  0  0  0  0  2  0  0  0  0  0  0
  188.2660  178.1340  140.1080 C   0  0  0  0  0  0  0  0  0  0  0  0
  186.1420  178.0050  142.4790 C   0  0  0  0  0  3  0  0  0  0  0  0
  184.9970  177.8780  143.4560 C   0  0  1  0  0  3  0  0  0  0  0  0
  181.3840  177.1810  140.5940 O   0  0  0  0  0  1  0  0  0  0  0  0
  181.3070  178.8290  136.2120 C   0  0  0  0  0  3  0  0  0  0  0  0
  180.4290  181.4760  136.4190 C   0  0  0  0  0  3  0  0  0  0  0  0
  181.6070  179.5720  137.3590 C   0  0  0  0  0  0  0  0  0  0  0  0
  180.5690  179.4040  135.1740 C   0  0  0  0  0  3  0  0  0  0  0  0
  181.1650  180.9020  137.4600 C   0  0  0  0  0  3  0  0  0  0  0  0
  180.1310  180.7280  135.2770 C   0  0  0  0  0  3  0  0  0  0  0  0
  185.3380  178.5990  144.7520 C   0  0  0  0  0  2  0  0  0  0  0  0
  186.8010  178.5360  145.0400 C   0  0  0  0  0  3  0  0  0  0  0  0
  187.3100  177.5460  145.7650 C   0  0  0  0  0  3  0  0  0  0  0  0
  188.7430  177.4620  146.0640 C   0  0  0  0  0  0  0  0  0  0  0  0
  189.1950  177.8790  147.1650 O   0  0  0  0  0  0  0  0  0  0  0  0
  189.6210  176.8980  145.0900 N   0  0  0  0  0  2  0  0  0  0  0  0
  191.6160  176.2730  147.0370 C   0  0  0  0  0  1  0  0  0  0  0  0
  191.9940  178.0750  145.0950 O   0  0  0  0  0  0  0  0  0  0  0  0
  191.3260  176.7540  145.3520 S   0  0  0  0  0  0  0  0  0  0  0  0
  191.8940  175.7060  144.4370 O   0  0  0  0  0  0  0  0  0  0  0  0
  1 12  1  0  0  0  0
  2 24  1  6  0  0  0
  2 15  1  0  0  0  0
  3 10  1  1  0  0  0
  3 12  1  0  0  0  0
  3  4  1  0  0  0  0
  4  7  1  1  0  0  0
  5 21  1  6  0  0  0
  5  4  1  0  0  0  0
  6 11  1  0  0  0  0
  6 13  1  0  0  0  0
  7 20  1  0  0  0  0
  8 17  1  6  0  0  0
  8  3  1  0  0  0  0
  9 11  1  0  0  0  0
 11 16  2  0  0  0  0
 12 19  2  0  0  0  0
 13  8  1  0  0  0  0
 13  1  2  0  0  0  0
 15  5  1  0  0  0  0
 16 18  1  0  0  0  0
 17  2  1  0  0  0  0
 18  1  1  0  0  0  0
 18 14  2  0  0  0  0
 19 20  1  0  0  0  0
 20 28  1  1  0  0  0
 22 24  1  0  0  0  0
 23 26  1  0  0  0  0
 24 26  2  0  0  0  0
 25 27  1  0  0  0  0
 25 22  2  0  0  0  0
 27 23  2  0  0  0  0
 28 29  1  0  0  0  0
 29 30  2  0  0  0  0
 30 31  1  0  0  0  0
 31 32  2  0  0  0  0
 33 36  1  0  0  0  0
 33 31  1  0  0  0  0
 35 36  2  0  0  0  0
 36 34  1  0  0  0  0
 37 36  2  0  0  0  0
M  END
>  <MODEL>
7

>  <REMARK>
 VINA RESULT:      -8.2      3.988      8.908
  Name = 
  5 active torsions:
  status: ('A' for Active; 'I' for Inactive)
    1  A    between atoms: C_3  and  C_20
    2  A    between atoms: C_6  and  C_22
    3  A    between atoms: C_8  and  C_26
    4  A    between atoms: C_26  and  C_34
    5  A    between atoms: S_30  and  N_32
                            x       y       z     vdW  Elec       q    Type
                         _______ _______ _______ _____ _____    ______ ____

>  <TORSDO>
F 5

$$$$
=
 OpenBabel10222421183D

 37 41  0  0  1  0  0  0  0  0999 V2000
  185.8710  178.3450  140.1000 C   0  0  0  0  0  0  0  0  0  0  0  0
  187.7250  178.1820  144.5480 C   0  0  2  0  0  3  0  0  0  0  0  0
  185.4270  178.1240  142.4350 C   0  0  1  0  0  0  0  0  0  0  0  0
  184.7150  178.9520  143.5060 C   0  0  2  0  0  3  0  0  0  0  0  0
  185.2580  178.7880  144.9390 C   0  0  1  0  0  3  0  0  0  0  0  0
  188.2740  178.4980  140.0310 C   0  0  0  0  0  2  0  0  0  0  0  0
  183.2200  178.6240  143.4550 C   0  0  0  0  0  2  0  0  0  0  0  0
  186.8890  178.5600  142.2260 C   0  0  2  0  0  3  0  0  0  0  0  0
  189.4420  178.5360  137.8200 C   0  0  0  0  0  1  0  0  0  0  0  0
  185.3360  176.7670  142.7200 F   0  0  0  0  0  0  0  0  0  0  0  0
  188.1970  178.4660  138.6290 C   0  0  0  0  0  0  0  0  0  0  0  0
  184.8130  178.3470  141.0920 C   0  0  0  0  0  0  0  0  0  0  0  0
  187.0830  178.4100  140.7500 C   0  0  0  0  0  0  0  0  0  0  0  0
  184.7130  178.2850  138.0970 O   0  0  0  0  0  0  0  0  0  0  0  0
  186.3820  177.7590  145.1560 C   0  0  0  0  0  2  0  0  0  0  0  0
  186.9830  178.3920  138.0030 N   0  0  0  0  0  0  0  0  0  0  0  0
  187.8590  177.7610  143.0840 C   0  0  0  0  0  2  0  0  0  0  0  0
  185.8150  178.3390  138.7040 C   0  0  0  0  0  0  0  0  0  0  0  0
  183.5380  178.6940  140.9040 C   0  0  0  0  0  3  0  0  0  0  0  0
  182.6110  178.9440  142.0710 C   0  0  1  0  0  3  0  0  0  0  0  0
  185.6230  180.0310  145.4580 O   0  0  0  0  0  1  0  0  0  0  0  0
  188.7530  177.6030  146.7480 C   0  0  0  0  0  3  0  0  0  0  0  0
  191.0710  176.6430  145.5110 C   0  0  0  0  0  3  0  0  0  0  0  0
  188.8590  177.6330  145.3530 C   0  0  0  0  0  0  0  0  0  0  0  0
  189.8000  177.0940  147.5220 C   0  0  0  0  0  3  0  0  0  0  0  0
  190.0240  177.1500  144.7350 C   0  0  0  0  0  3  0  0  0  0  0  0
  190.9580  176.6140  146.9040 C   0  0  0  0  0  3  0  0  0  0  0  0
  181.3050  178.1890  141.8660 C   0  0  0  0  0  2  0  0  0  0  0  0
  181.3290  177.3930  140.6040 C   0  0  0  0  0  3  0  0  0  0  0  0
  180.8190  176.1670  140.5620 C   0  0  0  0  0  3  0  0  0  0  0  0
  180.8320  175.3640  139.3350 C   0  0  0  0  0  0  0  0  0  0  0  0
  179.8350  174.6600  139.0180 O   0  0  0  0  0  0  0  0  0  0  0  0
  181.9910  175.3910  138.5030 N   0  0  0  0  0  2  0  0  0  0  0  0
  181.7720  172.7700  137.3880 C   0  0  0  0  0  1  0  0  0  0  0  0
  183.4830  174.6070  136.4590 O   0  0  0  0  0  0  0  0  0  0  0  0
  182.1010  174.4800  137.0350 S   0  0  0  0  0  0  0  0  0  0  0  0
  181.0860  174.9820  136.0470 O   0  0  0  0  0  0  0  0  0  0  0  0
  1 13  2  0  0  0  0
  1 12  1  0  0  0  0
  2 15  1  0  0  0  0
  2 24  1  1  0  0  0
  3 10  1  1  0  0  0
  3  4  1  0  0  0  0
  4  7  1  1  0  0  0
  4  5  1  0  0  0  0
  5 15  1  0  0  0  0
  5 21  1  6  0  0  0
  6 13  1  0  0  0  0
  8  3  1  0  0  0  0
  8 17  1  1  0  0  0
  9 11  1  0  0  0  0
 11  6  1  0  0  0  0
 12  3  1  0  0  0  0
 13  8  1  0  0  0  0
 14 18  2  0  0  0  0
 16 11  2  0  0  0  0
 16 18  1  0  0  0  0
 17  2  1  0  0  0  0
 18  1  1  0  0  0  0
 19 12  2  0  0  0  0
 19 20  1  0  0  0  0
 20 28  1  6  0  0  0
 20  7  1  0  0  0  0
 22 25  1  0  0  0  0
 23 27  1  0  0  0  0
 24 22  2  0  0  0  0
 26 24  1  0  0  0  0
 26 23  2  0  0  0  0
 27 25  2  0  0  0  0
 29 28  1  0  0  0  0
 30 29  2  0  0  0  0
 31 30  1  0  0  0  0
 32 31  2  0  0  0  0
 33 31  1  0  0  0  0
 35 36  2  0  0  0  0
 36 34  1  0  0  0  0
 36 33  1  0  0  0  0
 37 36  2  0  0  0  0
M  END
>  <MODEL>
8

>  <REMARK>
 VINA RESULT:      -8.2      4.670      7.329
  Name = 
  5 active torsions:
  status: ('A' for Active; 'I' for Inactive)
    1  A    between atoms: C_3  and  C_20
    2  A    between atoms: C_6  and  C_22
    3  A    between atoms: C_8  and  C_26
    4  A    between atoms: C_26  and  C_34
    5  A    between atoms: S_30  and  N_32
                            x       y       z     vdW  Elec       q    Type
                         _______ _______ _______ _____ _____    ______ ____

>  <TORSDO>
F 5

$$$$
=
 OpenBabel10222421183D

 37 41  0  0  1  0  0  0  0  0999 V2000
  187.9310  178.1840  139.1540 C   0  0  0  0  0  0  0  0  0  0  0  0
  188.4330  177.1870  143.8450 C   0  0  2  0  0  3  0  0  0  0  0  0
  189.4340  177.6100  140.9180 C   0  0  1  0  0  0  0  0  0  0  0  0
  190.3100  176.4080  141.2740 C   0  0  2  0  0  3  0  0  0  0  0  0
  190.5470  176.1850  142.7810 C   0  0  1  0  0  3  0  0  0  0  0  0
  185.8180  178.3630  140.2970 C   0  0  0  0  0  2  0  0  0  0  0  0
  191.6430  176.5450  140.5330 C   0  0  0  0  0  2  0  0  0  0  0  0
  187.9820  177.4470  141.4040 C   0  0  2  0  0  3  0  0  0  0  0  0
  183.8060  179.1600  139.0460 C   0  0  0  0  0  1  0  0  0  0  0  0
  190.0000  178.7890  141.3890 F   0  0  0  0  0  0  0  0  0  0  0  0
  185.2510  178.8190  139.0960 C   0  0  0  0  0  0  0  0  0  0  0  0
  189.2830  177.7410  139.4380 C   0  0  0  0  0  0  0  0  0  0  0  0
  187.1820  178.0730  140.3040 C   0  0  0  0  0  0  0  0  0  0  0  0
  188.0150  178.7180  136.9040 O   0  0  0  0  0  0  0  0  0  0  0  0
  189.9630  177.2280  143.7500 C   0  0  0  0  0  2  0  0  0  0  0  0
  186.0150  178.9310  137.9680 N   0  0  0  0  0  0  0  0  0  0  0  0
  187.7610  178.0560  142.7800 C   0  0  0  0  0  2  0  0  0  0  0  0
  187.3420  178.6160  137.9640 C   0  0  0  0  0  0  0  0  0  0  0  0
  190.1880  177.3120  138.5560 C   0  0  0  0  0  3  0  0  0  0  0  0
  191.4430  176.5970  139.0010 C   0  0  1  0  0  3  0  0  0  0  0  0
  190.1460  174.8990  143.1440 O   0  0  0  0  0  1  0  0  0  0  0  0
  186.6950  178.1170  145.3770 C   0  0  0  0  0  3  0  0  0  0  0  0
  188.3830  177.8580  147.5920 C   0  0  0  0  0  3  0  0  0  0  0  0
  187.9830  177.5960  145.2110 C   0  0  0  0  0  0  0  0  0  0  0  0
  186.2510  178.5060  146.6440 C   0  0  0  0  0  3  0  0  0  0  0  0
  188.8280  177.4670  146.3250 C   0  0  0  0  0  3  0  0  0  0  0  0
  187.0950  178.3770  147.7510 C   0  0  0  0  0  3  0  0  0  0  0  0
  192.6580  177.2090  138.3170 C   0  0  0  0  0  2  0  0  0  0  0  0
  193.4010  176.1910  137.5170 C   0  0  0  0  0  3  0  0  0  0  0  0
  193.1250  174.8970  137.6380 C   0  0  0  0  0  3  0  0  0  0  0  0
  193.8410  173.8770  136.8660 C   0  0  0  0  0  0  0  0  0  0  0  0
  193.7460  173.8380  135.6090 O   0  0  0  0  0  0  0  0  0  0  0  0
  194.6510  172.9270  137.5580 N   0  0  0  0  0  2  0  0  0  0  0  0
  196.7830  172.4420  135.7190 C   0  0  0  0  0  1  0  0  0  0  0  0
  194.6050  170.8930  135.8630 O   0  0  0  0  0  0  0  0  0  0  0  0
  195.5360  171.6880  136.7350 S   0  0  0  0  0  0  0  0  0  0  0  0
  196.1970  170.7840  137.7360 O   0  0  0  0  0  0  0  0  0  0  0  0
  1 12  1  0  0  0  0
  1 13  2  0  0  0  0
  2 24  1  1  0  0  0
  3  4  1  0  0  0  0
  3 10  1  1  0  0  0
  3  8  1  0  0  0  0
  4  7  1  6  0  0  0
  4  5  1  0  0  0  0
  5 21  1  1  0  0  0
  5 15  1  0  0  0  0
  6 13  1  0  0  0  0
  8 17  1  1  0  0  0
  9 11  1  0  0  0  0
 11  6  1  0  0  0  0
 12  3  1  0  0  0  0
 13  8  1  0  0  0  0
 14 18  2  0  0  0  0
 15  2  1  0  0  0  0
 16 11  2  0  0  0  0
 17  2  1  0  0  0  0
 18 16  1  0  0  0  0
 18  1  1  0  0  0  0
 19 20  1  0  0  0  0
 19 12  2  0  0  0  0
 20 28  1  6  0  0  0
 20  7  1  0  0  0  0
 22 25  1  0  0  0  0
 23 27  1  0  0  0  0
 24 22  2  0  0  0  0
 24 26  1  0  0  0  0
 25 27  2  0  0  0  0
 26 23  2  0  0  0  0
 29 30  2  0  0  0  0
 29 28  1  0  0  0  0
 31 33  1  0  0  0  0
 31 30  1  0  0  0  0
 32 31  2  0  0  0  0
 34 36  1  0  0  0  0
 35 36  2  0  0  0  0
 36 33  1  0  0  0  0
 36 37  2  0  0  0  0
M  END
>  <MODEL>
9

>  <REMARK>
 VINA RESULT:      -7.9      1.844      2.546
  Name = 
  5 active torsions:
  status: ('A' for Active; 'I' for Inactive)
    1  A    between atoms: C_3  and  C_20
    2  A    between atoms: C_6  and  C_22
    3  A    between atoms: C_8  and  C_26
    4  A    between atoms: C_26  and  C_34
    5  A    between atoms: S_30  and  N_32
                            x       y       z     vdW  Elec       q    Type
                         _______ _______ _______ _____ _____    ______ ____

>  <TORSDO>
F 5

$$$$
