=
 OpenBabel10222416383D

 30 34  0  0  1  0  0  0  0  0999 V2000
  189.4470  177.0820  146.1040 C   0  0  0  0  0  0  0  0  0  0  0  0
  190.3310  178.1370  144.0060 C   0  0  0  0  0  2  0  0  0  0  0  0
  183.8320  178.9220  145.9190 N   0  0  0  0  0  0  0  0  0  0  0  0
  186.0860  178.2450  146.1790 C   0  0  0  0  0  0  0  0  0  0  0  0
  182.8620  178.7630  142.3800 C   0  0  0  0  0  0  0  0  0  0  0  0
  184.8950  178.6910  146.7440 C   0  0  0  0  0  2  0  0  0  0  0  0
  190.4240  177.1200  145.0510 N   0  0  0  0  0  0  0  0  0  0  0  0
  187.2220  177.9380  146.8350 N   0  0  0  0  0  0  0  0  0  0  0  0
  181.7510  179.0070  141.5840 O   0  0  0  0  0  1  0  0  0  0  0  0
  187.4750  177.5940  144.6040 C   0  0  0  0  0  0  0  0  0  0  0  0
  188.0710  177.5400  145.8570 C   0  0  0  0  0  0  0  0  0  0  0  0
  186.1930  178.0420  144.8270 C   0  0  0  0  0  0  0  0  0  0  0  0
  189.7650  176.6650  147.2490 O   0  0  0  0  0  0  0  0  0  0  0  0
  183.9040  178.7240  144.5660 C   0  0  0  0  0  0  0  0  0  0  0  0
  182.7880  178.9690  143.7620 C   0  0  0  0  0  3  0  0  0  0  0  0
  185.1090  178.2650  143.9740 C   0  0  0  0  0  0  0  0  0  0  0  0
  185.1760  178.0640  142.5900 C   0  0  0  0  0  3  0  0  0  0  0  0
  188.0550  177.0480  143.3370 C   0  0  0  0  0  2  0  0  0  0  0  0
  189.3340  177.7710  142.8950 C   0  0  2  0  0  3  0  0  0  0  0  0
  191.6840  176.4090  145.2000 C   0  0  0  0  0  1  0  0  0  0  0  0
  184.0520  178.3120  141.7970 C   0  0  0  0  0  3  0  0  0  0  0  0
  191.4020  177.3520  141.7180 O   0  0  0  0  0  1  0  0  0  0  0  0
  190.0320  177.0730  141.7240 C   0  0  2  0  0  3  0  0  0  0  0  0
  189.3880  177.3510  140.3570 C   0  0  2  0  0  3  0  0  0  0  0  0
  190.7310  176.0710  138.7690 C   0  0  2  0  0  3  0  0  0  0  0  0
  190.4610  177.4120  139.2790 C   0  0  1  0  0  3  0  0  0  0  0  0
  192.0610  176.0350  138.1890 N   0  0  0  0  0  1  0  0  0  0  0  0
  189.8880  176.9900  137.9910 N   0  0  0  0  0  2  0  0  0  0  0  0
  188.5650  178.6340  140.3610 C   0  0  0  0  0  2  0  0  0  0  0  0
  187.3570  178.4330  139.6920 O   0  0  0  0  0  1  0  0  0  0  0  0
  1 13  2  0  0  0  0
  2  7  1  0  0  0  0
  3  6  1  0  0  0  0
  4  6  1  0  0  0  0
  4  8  2  0  0  0  0
  5 15  2  0  0  0  0
  7 20  1  0  0  0  0
  7  1  1  0  0  0  0
  9  5  1  0  0  0  0
 10 12  1  0  0  0  0
 10 11  2  0  0  0  0
 11  1  1  0  0  0  0
 11  8  1  0  0  0  0
 12  4  1  0  0  0  0
 14  3  2  0  0  0  0
 15 14  1  0  0  0  0
 16 14  1  0  0  0  0
 16 12  2  0  0  0  0
 17 16  1  0  0  0  0
 18 10  1  0  0  0  0
 19 23  1  6  0  0  0
 19 18  1  0  0  0  0
 19  2  1  0  0  0  0
 21  5  1  0  0  0  0
 21 17  2  0  0  0  0
 23 22  1  6  0  0  0
 24 29  1  1  0  0  0
 24 23  1  0  0  0  0
 25 27  1  6  0  0  0
 25 26  1  0  0  0  0
 26 24  1  1  0  0  0
 28 25  1  0  0  0  0
 28 26  1  0  0  0  0
 30 29  1  0  0  0  0
M  END
>  <MODEL>
1

>  <REMARK>
 VINA RESULT:     -10.8      0.000      0.000
  Name = 
  4 active torsions:
  status: ('A' for Active; 'I' for Inactive)
    1  A    between atoms: C_11  and  C_20
    2  A    between atoms: C_17  and  C_20
    3  A    between atoms: C_20  and  C_22
    4  A    between atoms: C_22  and  C_28
                            x       y       z     vdW  Elec       q    Type
                         _______ _______ _______ _____ _____    ______ ____

>  <TORSDO>
F 4

$$$$
=
 OpenBabel10222416383D

 30 34  0  0  1  0  0  0  0  0999 V2000
  189.4060  177.0890  145.7580 C   0  0  0  0  0  0  0  0  0  0  0  0
  190.1610  178.0510  143.5670 C   0  0  0  0  0  2  0  0  0  0  0  0
  183.8300  179.0480  145.9010 N   0  0  0  0  0  0  0  0  0  0  0  0
  186.0830  178.3300  146.0270 C   0  0  0  0  0  0  0  0  0  0  0  0
  182.6100  178.7890  142.4460 C   0  0  0  0  0  0  0  0  0  0  0  0
  184.9440  178.8220  146.6570 C   0  0  0  0  0  2  0  0  0  0  0  0
  190.3070  177.0690  144.6390 N   0  0  0  0  0  0  0  0  0  0  0  0
  187.2560  178.0200  146.6120 N   0  0  0  0  0  0  0  0  0  0  0  0
  181.4510  179.0310  141.7210 O   0  0  0  0  0  1  0  0  0  0  0  0
  187.3440  177.5930  144.3830 C   0  0  0  0  0  0  0  0  0  0  0  0
  188.0260  177.5690  145.5920 C   0  0  0  0  0  0  0  0  0  0  0  0
  186.0900  178.0780  144.6780 C   0  0  0  0  0  0  0  0  0  0  0  0
  189.7960  176.7040  146.8930 O   0  0  0  0  0  0  0  0  0  0  0  0
  183.8020  178.8020  144.5540 C   0  0  0  0  0  0  0  0  0  0  0  0
  182.6380  179.0440  143.8210 C   0  0  0  0  0  3  0  0  0  0  0  0
  184.9530  178.2950  143.8950 C   0  0  0  0  0  0  0  0  0  0  0  0
  184.9180  178.0450  142.5190 C   0  0  0  0  0  3  0  0  0  0  0  0
  187.8210  176.9910  143.0990 C   0  0  0  0  0  2  0  0  0  0  0  0
  189.0810  177.6690  142.5420 C   0  0  2  0  0  3  0  0  0  0  0  0
  191.5600  176.3340  144.7250 C   0  0  0  0  0  1  0  0  0  0  0  0
  183.7460  178.2910  141.7980 C   0  0  0  0  0  3  0  0  0  0  0  0
  190.4790  175.8520  141.7820 O   0  0  0  0  0  1  0  0  0  0  0  0
  189.6800  176.9150  141.3510 C   0  0  2  0  0  3  0  0  0  0  0  0
  190.4200  177.8150  140.3500 C   0  0  2  0  0  3  0  0  0  0  0  0
  188.2970  177.8150  139.1450 C   0  0  2  0  0  3  0  0  0  0  0  0
  189.7460  177.7420  138.9870 C   0  0  1  0  0  3  0  0  0  0  0  0
  187.6560  177.2120  137.9900 N   0  0  0  0  0  1  0  0  0  0  0  0
  189.0430  179.0060  138.7180 N   0  0  0  0  0  2  0  0  0  0  0  0
  191.8960  177.4510  140.2330 C   0  0  0  0  0  2  0  0  0  0  0  0
  192.1290  176.7670  139.0380 O   0  0  0  0  0  1  0  0  0  0  0  0
  1 13  2  0  0  0  0
  2  7  1  0  0  0  0
  3  6  1  0  0  0  0
  4  8  2  0  0  0  0
  4  6  1  0  0  0  0
  5 15  2  0  0  0  0
  7 20  1  0  0  0  0
  7  1  1  0  0  0  0
  9  5  1  0  0  0  0
 10 12  1  0  0  0  0
 10 11  2  0  0  0  0
 11  1  1  0  0  0  0
 11  8  1  0  0  0  0
 12  4  1  0  0  0  0
 14  3  2  0  0  0  0
 15 14  1  0  0  0  0
 16 14  1  0  0  0  0
 16 12  2  0  0  0  0
 17 16  1  0  0  0  0
 18 10  1  0  0  0  0
 19 23  1  6  0  0  0
 19 18  1  0  0  0  0
 19  2  1  0  0  0  0
 21  5  1  0  0  0  0
 21 17  2  0  0  0  0
 23 22  1  1  0  0  0
 24 29  1  6  0  0  0
 24 23  1  0  0  0  0
 25 27  1  6  0  0  0
 26 25  1  0  0  0  0
 26 24  1  1  0  0  0
 28 26  1  0  0  0  0
 28 25  1  0  0  0  0
 30 29  1  0  0  0  0
M  END
>  <MODEL>
2

>  <REMARK>
 VINA RESULT:     -10.6      1.383      1.644
  Name = 
  4 active torsions:
  status: ('A' for Active; 'I' for Inactive)
    1  A    between atoms: C_11  and  C_20
    2  A    between atoms: C_17  and  C_20
    3  A    between atoms: C_20  and  C_22
    4  A    between atoms: C_22  and  C_28
                            x       y       z     vdW  Elec       q    Type
                         _______ _______ _______ _____ _____    ______ ____

>  <TORSDO>
F 4

$$$$
=
 OpenBabel10222416383D

 30 34  0  0  1  0  0  0  0  0999 V2000
  189.7710  176.8490  140.6710 C   0  0  0  0  0  0  0  0  0  0  0  0
  188.1510  178.7620  140.5740 C   0  0  0  0  0  2  0  0  0  0  0  0
  191.1850  176.9580  146.4100 N   0  0  0  0  0  0  0  0  0  0  0  0
  190.8100  176.9060  144.0730 C   0  0  0  0  0  0  0  0  0  0  0  0
  188.0620  177.7480  148.1760 C   0  0  0  0  0  0  0  0  0  0  0  0
  191.6790  176.7730  145.1510 C   0  0  0  0  0  3  0  0  0  0  0  0
  188.6830  177.5210  140.0160 N   0  0  0  0  0  0  0  0  0  0  0  0
  191.1100  176.7310  142.7710 N   0  0  0  0  0  0  0  0  0  0  0  0
  187.6070  177.9220  149.4750 O   0  0  0  0  0  1  0  0  0  0  0  0
  188.9140  177.2570  143.0150 C   0  0  0  0  0  0  0  0  0  0  0  0
  189.9370  176.9500  142.1280 C   0  0  0  0  0  0  0  0  0  0  0  0
  189.4880  177.2170  144.2660 C   0  0  0  0  0  0  0  0  0  0  0  0
  190.5960  176.1740  139.9990 O   0  0  0  0  0  0  0  0  0  0  0  0
  189.8700  177.2630  146.6380 C   0  0  0  0  0  0  0  0  0  0  0  0
  189.4070  177.4400  147.9440 C   0  0  0  0  0  3  0  0  0  0  0  0
  188.9680  177.3980  145.5500 C   0  0  0  0  0  0  0  0  0  0  0  0
  187.6240  177.7100  145.7900 C   0  0  0  0  0  2  0  0  0  0  0  0
  187.4630  177.3660  142.6700 C   0  0  0  0  0  2  0  0  0  0  0  0
  187.1510  178.5290  141.7180 C   0  0  2  0  0  3  0  0  0  0  0  0
  188.3450  177.1910  138.6400 C   0  0  0  0  0  1  0  0  0  0  0  0
  187.1740  177.8830  147.1020 C   0  0  0  0  0  3  0  0  0  0  0  0
  185.5420  179.3780  140.1280 O   0  0  0  0  0  1  0  0  0  0  0  0
  185.7080  178.5020  141.2050 C   0  0  2  0  0  3  0  0  0  0  0  0
  184.6520  178.7350  142.2970 C   0  0  2  0  0  3  0  0  0  0  0  0
  182.6150  178.0220  141.1560 C   0  0  2  0  0  3  0  0  0  0  0  0
  183.3410  179.1810  141.6660 C   0  0  1  0  0  3  0  0  0  0  0  0
  181.6980  178.4490  140.1150 N   0  0  0  0  0  1  0  0  0  0  0  0
  182.2140  178.6290  142.4330 N   0  0  0  0  0  2  0  0  0  0  0  0
  185.1160  179.7510  143.3350 C   0  0  0  0  0  2  0  0  0  0  0  0
  184.7580  179.3270  144.6160 O   0  0  0  0  0  1  0  0  0  0  0  0
  1 11  1  0  0  0  0
  2 19  1  0  0  0  0
  3 14  1  0  0  0  0
  4 12  1  0  0  0  0
  4  6  1  0  0  0  0
  5  9  1  0  0  0  0
  6  3  2  0  0  0  0
  7  2  1  0  0  0  0
  7  1  1  0  0  0  0
  8  4  2  0  0  0  0
 10 12  1  0  0  0  0
 11  8  1  0  0  0  0
 11 10  2  0  0  0  0
 12 16  2  0  0  0  0
 13  1  2  0  0  0  0
 14 15  2  0  0  0  0
 15  5  1  0  0  0  0
 16 17  1  0  0  0  0
 16 14  1  0  0  0  0
 17 21  1  0  0  0  0
 18 10  1  0  0  0  0
 19 23  1  6  0  0  0
 19 18  1  0  0  0  0
 20  7  1  0  0  0  0
 21  5  2  0  0  0  0
 23 22  1  6  0  0  0
 23 24  1  0  0  0  0
 24 29  1  1  0  0  0
 25 27  1  6  0  0  0
 25 26  1  0  0  0  0
 25 28  1  0  0  0  0
 26 24  1  1  0  0  0
 26 28  1  0  0  0  0
 29 30  1  0  0  0  0
M  END
>  <MODEL>
3

>  <REMARK>
 VINA RESULT:      -9.4      2.170      6.356
  Name = 
  4 active torsions:
  status: ('A' for Active; 'I' for Inactive)
    1  A    between atoms: C_11  and  C_20
    2  A    between atoms: C_17  and  C_20
    3  A    between atoms: C_20  and  C_22
    4  A    between atoms: C_22  and  C_28
                            x       y       z     vdW  Elec       q    Type
                         _______ _______ _______ _____ _____    ______ ____

>  <TORSDO>
F 4

$$$$
=
 OpenBabel10222416383D

 30 34  0  0  1  0  0  0  0  0999 V2000
  181.7040  179.3950  142.6020 C   0  0  0  0  0  0  0  0  0  0  0  0
  182.1540  177.7440  140.7670 C   0  0  0  0  0  2  0  0  0  0  0  0
  186.0890  178.0440  146.3310 N   0  0  0  0  0  0  0  0  0  0  0  0
  184.2110  178.5770  144.9900 C   0  0  0  0  0  0  0  0  0  0  0  0
  188.9970  177.3210  144.2060 C   0  0  0  0  0  0  0  0  0  0  0  0
  184.7730  178.4000  146.2500 C   0  0  0  0  0  2  0  0  0  0  0  0
  181.5550  178.9930  141.2300 N   0  0  0  0  0  0  0  0  0  0  0  0
  182.9460  178.9550  144.7190 N   0  0  0  0  0  0  0  0  0  0  0  0
  190.3310  176.9630  144.3400 O   0  0  0  0  0  1  0  0  0  0  0  0
  184.1170  178.6620  142.7950 C   0  0  0  0  0  0  0  0  0  0  0  0
  182.8980  179.0030  143.3650 C   0  0  0  0  0  0  0  0  0  0  0  0
  184.9570  178.3980  143.8530 C   0  0  0  0  0  0  0  0  0  0  0  0
  180.8060  180.0780  143.1640 O   0  0  0  0  0  0  0  0  0  0  0  0
  186.8620  177.8630  145.2160 C   0  0  0  0  0  0  0  0  0  0  0  0
  188.2060  177.5030  145.3460 C   0  0  0  0  0  3  0  0  0  0  0  0
  186.3070  178.0430  143.9220 C   0  0  0  0  0  0  0  0  0  0  0  0
  187.1040  177.8580  142.7860 C   0  0  0  0  0  3  0  0  0  0  0  0
  184.4710  178.7960  141.3480 C   0  0  0  0  0  2  0  0  0  0  0  0
  183.6480  177.8770  140.4340 C   0  0  2  0  0  3  0  0  0  0  0  0
  180.5370  179.6130  140.3960 C   0  0  0  0  0  1  0  0  0  0  0  0
  188.4470  177.4980  142.9310 C   0  0  0  0  0  3  0  0  0  0  0  0
  182.6860  178.6230  138.3470 O   0  0  0  0  0  1  0  0  0  0  0  0
  183.8660  178.1740  138.9470 C   0  0  2  0  0  3  0  0  0  0  0  0
  184.4970  177.0120  138.1640 C   0  0  2  0  0  3  0  0  0  0  0  0
  186.7050  178.0370  137.9730 C   0  0  2  0  0  3  0  0  0  0  0  0
  185.5610  177.5420  137.2130 C   0  0  1  0  0  3  0  0  0  0  0  0
  187.4330  179.0030  137.1700 N   0  0  0  0  0  1  0  0  0  0  0  0
  186.7750  176.7190  137.3260 N   0  0  0  0  0  2  0  0  0  0  0  0
  183.4550  176.2030  137.3990 C   0  0  0  0  0  2  0  0  0  0  0  0
  182.9570  175.1780  138.2030 O   0  0  0  0  0  1  0  0  0  0  0  0
  1 13  2  0  0  0  0
  1 11  1  0  0  0  0
  2  7  1  0  0  0  0
  4  6  1  0  0  0  0
  5  9  1  0  0  0  0
  5 15  2  0  0  0  0
  6  3  1  0  0  0  0
  7  1  1  0  0  0  0
  8  4  2  0  0  0  0
 10 11  2  0  0  0  0
 10 12  1  0  0  0  0
 11  8  1  0  0  0  0
 12 16  2  0  0  0  0
 12  4  1  0  0  0  0
 14 15  1  0  0  0  0
 14  3  2  0  0  0  0
 16 14  1  0  0  0  0
 17 21  2  0  0  0  0
 17 16  1  0  0  0  0
 18 10  1  0  0  0  0
 19 23  1  6  0  0  0
 19  2  1  0  0  0  0
 19 18  1  0  0  0  0
 20  7  1  0  0  0  0
 21  5  1  0  0  0  0
 23 22  1  6  0  0  0
 24 29  1  6  0  0  0
 24 23  1  0  0  0  0
 25 27  1  6  0  0  0
 26 28  1  0  0  0  0
 26 25  1  0  0  0  0
 26 24  1  1  0  0  0
 28 25  1  0  0  0  0
 29 30  1  0  0  0  0
M  END
>  <MODEL>
4

>  <REMARK>
 VINA RESULT:      -8.4      2.629      6.303
  Name = 
  4 active torsions:
  status: ('A' for Active; 'I' for Inactive)
    1  A    between atoms: C_11  and  C_20
    2  A    between atoms: C_17  and  C_20
    3  A    between atoms: C_20  and  C_22
    4  A    between atoms: C_22  and  C_28
                            x       y       z     vdW  Elec       q    Type
                         _______ _______ _______ _____ _____    ______ ____

>  <TORSDO>
F 4

$$$$
=
 OpenBabel10222416383D

 30 34  0  0  1  0  0  0  0  0999 V2000
  191.0140  176.9780  139.3630 C   0  0  0  0  0  0  0  0  0  0  0  0
  189.3040  178.6280  138.5590 C   0  0  0  0  0  2  0  0  0  0  0  0
  190.3310  177.5220  145.2100 N   0  0  0  0  0  0  0  0  0  0  0  0
  190.7970  177.3220  142.8980 C   0  0  0  0  0  0  0  0  0  0  0  0
  186.7180  177.9170  145.7440 C   0  0  0  0  0  0  0  0  0  0  0  0
  191.2490  177.3610  144.2130 C   0  0  0  0  0  3  0  0  0  0  0  0
  190.1450  177.4570  138.3240 N   0  0  0  0  0  0  0  0  0  0  0  0
  191.5480  177.1410  141.7930 N   0  0  0  0  0  0  0  0  0  0  0  0
  185.8240  178.0750  146.7940 O   0  0  0  0  0  1  0  0  0  0  0  0
  189.3560  177.3500  141.2370 C   0  0  0  0  0  0  0  0  0  0  0  0
  190.6520  177.1610  140.7770 C   0  0  0  0  0  0  0  0  0  0  0  0
  189.4620  177.4440  142.6060 C   0  0  0  0  0  0  0  0  0  0  0  0
  192.0970  176.4050  139.0700 O   0  0  0  0  0  0  0  0  0  0  0  0
  188.9910  177.6410  144.9540 C   0  0  0  0  0  0  0  0  0  0  0  0
  188.0870  177.8000  146.0070 C   0  0  0  0  0  3  0  0  0  0  0  0
  188.5120  177.5990  143.6190 C   0  0  0  0  0  0  0  0  0  0  0  0
  187.1410  177.7200  143.3640 C   0  0  0  0  0  2  0  0  0  0  0  0
  188.1120  177.2320  140.4140 C   0  0  0  0  0  2  0  0  0  0  0  0
  188.0080  178.2990  139.3150 C   0  0  2  0  0  3  0  0  0  0  0  0
  190.3480  177.0270  136.9490 C   0  0  0  0  0  1  0  0  0  0  0  0
  186.2470  177.8780  144.4270 C   0  0  0  0  0  3  0  0  0  0  0  0
  186.8140  179.0020  137.3360 O   0  0  0  0  0  1  0  0  0  0  0  0
  186.8460  178.0410  138.3510 C   0  0  2  0  0  3  0  0  0  0  0  0
  185.4810  177.8950  139.0410 C   0  0  2  0  0  3  0  0  0  0  0  0
  184.4360  176.6310  137.2320 C   0  0  2  0  0  3  0  0  0  0  0  0
  184.3710  177.8700  138.0000 C   0  0  1  0  0  3  0  0  0  0  0  0
  183.7910  176.8260  135.9470 N   0  0  0  0  0  1  0  0  0  0  0  0
  183.4380  176.7730  138.3010 N   0  0  0  0  0  2  0  0  0  0  0  0
  185.2310  179.0030  140.0580 C   0  0  0  0  0  2  0  0  0  0  0  0
  184.5550  180.0650  139.4560 O   0  0  0  0  0  1  0  0  0  0  0  0
  1 11  1  0  0  0  0
  2 19  1  0  0  0  0
  4  6  1  0  0  0  0
  5 15  1  0  0  0  0
  5  9  1  0  0  0  0
  6  3  2  0  0  0  0
  7  2  1  0  0  0  0
  7  1  1  0  0  0  0
  8  4  2  0  0  0  0
 10 12  1  0  0  0  0
 11 10  2  0  0  0  0
 11  8  1  0  0  0  0
 12  4  1  0  0  0  0
 12 16  2  0  0  0  0
 13  1  2  0  0  0  0
 14  3  1  0  0  0  0
 14 15  2  0  0  0  0
 16 14  1  0  0  0  0
 17 16  1  0  0  0  0
 17 21  1  0  0  0  0
 18 10  1  0  0  0  0
 19 23  1  6  0  0  0
 19 18  1  0  0  0  0
 20  7  1  0  0  0  0
 21  5  2  0  0  0  0
 23 22  1  6  0  0  0
 23 24  1  0  0  0  0
 24 29  1  1  0  0  0
 25 27  1  6  0  0  0
 25 26  1  0  0  0  0
 25 28  1  0  0  0  0
 26 28  1  0  0  0  0
 26 24  1  1  0  0  0
 30 29  1  0  0  0  0
M  END
>  <MODEL>
5

>  <REMARK>
 VINA RESULT:      -8.4      2.712      5.742
  Name = 
  4 active torsions:
  status: ('A' for Active; 'I' for Inactive)
    1  A    between atoms: C_11  and  C_20
    2  A    between atoms: C_17  and  C_20
    3  A    between atoms: C_20  and  C_22
    4  A    between atoms: C_22  and  C_28
                            x       y       z     vdW  Elec       q    Type
                         _______ _______ _______ _____ _____    ______ ____

>  <TORSDO>
F 4

$$$$
=
 OpenBabel10222416383D

 30 34  0  0  1  0  0  0  0  0999 V2000
  181.5930  179.4330  142.6380 C   0  0  0  0  0  0  0  0  0  0  0  0
  181.9660  177.6730  140.8890 C   0  0  0  0  0  2  0  0  0  0  0  0
  185.9530  178.1110  146.4060 N   0  0  0  0  0  0  0  0  0  0  0  0
  184.0870  178.6450  145.0510 C   0  0  0  0  0  0  0  0  0  0  0  0
  188.8150  177.1700  144.3050 C   0  0  0  0  0  0  0  0  0  0  0  0
  184.6520  178.5130  146.3150 C   0  0  0  0  0  2  0  0  0  0  0  0
  181.4190  178.9670  141.2900 N   0  0  0  0  0  0  0  0  0  0  0  0
  182.8350  179.0560  144.7680 N   0  0  0  0  0  0  0  0  0  0  0  0
  190.1360  176.7690  144.4490 O   0  0  0  0  0  1  0  0  0  0  0  0
  183.9790  178.6200  142.8550 C   0  0  0  0  0  0  0  0  0  0  0  0
  182.7780  179.0360  143.4140 C   0  0  0  0  0  0  0  0  0  0  0  0
  184.8170  178.3800  143.9200 C   0  0  0  0  0  0  0  0  0  0  0  0
  180.7270  180.1790  143.1690 O   0  0  0  0  0  0  0  0  0  0  0  0
  186.7110  177.8440  145.2980 C   0  0  0  0  0  0  0  0  0  0  0  0
  188.0410  177.4400  145.4380 C   0  0  0  0  0  3  0  0  0  0  0  0
  186.1530  177.9780  144.0000 C   0  0  0  0  0  0  0  0  0  0  0  0
  186.9330  177.7030  142.8700 C   0  0  0  0  0  3  0  0  0  0  0  0
  184.3270  178.6650  141.4000 C   0  0  0  0  0  2  0  0  0  0  0  0
  183.4620  177.7330  140.5410 C   0  0  2  0  0  3  0  0  0  0  0  0
  180.4190  179.5810  140.4310 C   0  0  0  0  0  1  0  0  0  0  0  0
  188.2620  177.3010  143.0260 C   0  0  0  0  0  3  0  0  0  0  0  0
  184.0250  179.2700  138.7640 O   0  0  0  0  0  1  0  0  0  0  0  0
  183.6790  177.9430  139.0390 C   0  0  2  0  0  3  0  0  0  0  0  0
  182.5090  177.4650  138.1650 C   0  0  2  0  0  3  0  0  0  0  0  0
  183.3400  175.1710  138.2320 C   0  0  2  0  0  3  0  0  0  0  0  0
  182.9320  176.2560  137.3450 C   0  0  1  0  0  3  0  0  0  0  0  0
  184.2270  174.2720  137.5180 N   0  0  0  0  0  1  0  0  0  0  0  0
  182.0110  175.1390  137.6050 N   0  0  0  0  0  2  0  0  0  0  0  0
  181.9860  178.5700  137.2530 C   0  0  0  0  0  2  0  0  0  0  0  0
  182.0000  178.1420  135.9250 O   0  0  0  0  0  1  0  0  0  0  0  0
  1 13  2  0  0  0  0
  1 11  1  0  0  0  0
  2  7  1  0  0  0  0
  4  6  1  0  0  0  0
  5  9  1  0  0  0  0
  5 15  2  0  0  0  0
  6  3  1  0  0  0  0
  7  1  1  0  0  0  0
  8  4  2  0  0  0  0
 10 11  2  0  0  0  0
 10 12  1  0  0  0  0
 11  8  1  0  0  0  0
 12 16  2  0  0  0  0
 12  4  1  0  0  0  0
 14 15  1  0  0  0  0
 14  3  2  0  0  0  0
 16 14  1  0  0  0  0
 17 21  2  0  0  0  0
 17 16  1  0  0  0  0
 18 10  1  0  0  0  0
 19 23  1  6  0  0  0
 19  2  1  0  0  0  0
 19 18  1  0  0  0  0
 20  7  1  0  0  0  0
 21  5  1  0  0  0  0
 23 22  1  1  0  0  0
 24 29  1  6  0  0  0
 24 23  1  0  0  0  0
 25 27  1  6  0  0  0
 26 28  1  0  0  0  0
 26 24  1  1  0  0  0
 26 25  1  0  0  0  0
 28 25  1  0  0  0  0
 30 29  1  0  0  0  0
M  END
>  <MODEL>
6

>  <REMARK>
 VINA RESULT:      -8.3      3.261      6.789
  Name = 
  4 active torsions:
  status: ('A' for Active; 'I' for Inactive)
    1  A    between atoms: C_11  and  C_20
    2  A    between atoms: C_17  and  C_20
    3  A    between atoms: C_20  and  C_22
    4  A    between atoms: C_22  and  C_28
                            x       y       z     vdW  Elec       q    Type
                         _______ _______ _______ _____ _____    ______ ____

>  <TORSDO>
F 4

$$$$
=
 OpenBabel10222416383D

 30 34  0  0  1  0  0  0  0  0999 V2000
  185.4980  178.8090  140.7450 C   0  0  0  0  0  0  0  0  0  0  0  0
  187.0450  177.3810  139.3800 C   0  0  0  0  0  2  0  0  0  0  0  0
  187.3180  177.4180  146.1950 N   0  0  0  0  0  0  0  0  0  0  0  0
  186.4060  177.9440  144.0740 C   0  0  0  0  0  0  0  0  0  0  0  0
  190.9710  177.1150  145.9630 C   0  0  0  0  0  0  0  0  0  0  0  0
  186.2200  177.6850  145.4280 C   0  0  0  0  0  3  0  0  0  0  0  0
  186.1550  178.5340  139.4970 N   0  0  0  0  0  0  0  0  0  0  0  0
  185.4510  178.2550  143.1760 N   0  0  0  0  0  0  0  0  0  0  0  0
  192.0550  176.8420  146.7850 O   0  0  0  0  0  1  0  0  0  0  0  0
  187.4960  178.2350  142.1860 C   0  0  0  0  0  0  0  0  0  0  0  0
  186.1320  178.4310  142.0170 C   0  0  0  0  0  0  0  0  0  0  0  0
  187.6600  177.9300  143.5190 C   0  0  0  0  0  0  0  0  0  0  0  0
  184.3690  179.3690  140.7570 O   0  0  0  0  0  0  0  0  0  0  0  0
  188.5830  177.4020  145.6730 C   0  0  0  0  0  0  0  0  0  0  0  0
  189.6780  177.1280  146.4970 C   0  0  0  0  0  3  0  0  0  0  0  0
  188.7920  177.6680  144.2950 C   0  0  0  0  0  0  0  0  0  0  0  0
  190.0890  177.6510  143.7680 C   0  0  0  0  0  2  0  0  0  0  0  0
  188.5530  178.5340  141.1710 C   0  0  0  0  0  2  0  0  0  0  0  0
  188.4580  177.6520  139.9190 C   0  0  2  0  0  3  0  0  0  0  0  0
  185.6810  179.1570  138.2710 C   0  0  0  0  0  1  0  0  0  0  0  0
  191.1750  177.3760  144.6030 C   0  0  0  0  0  3  0  0  0  0  0  0
  189.0550  179.3780  138.3360 O   0  0  0  0  0  1  0  0  0  0  0  0
  189.4050  178.1070  138.8040 C   0  0  2  0  0  3  0  0  0  0  0  0
  189.5480  177.0970  137.6550 C   0  0  2  0  0  3  0  0  0  0  0  0
  191.6180  176.6670  138.8760 C   0  0  2  0  0  3  0  0  0  0  0  0
  190.9890  176.6170  137.5600 C   0  0  1  0  0  3  0  0  0  0  0  0
  193.0580  176.7530  138.7190 N   0  0  0  0  0  1  0  0  0  0  0  0
  191.1480  175.3810  138.3420 N   0  0  0  0  0  2  0  0  0  0  0  0
  189.0920  177.6780  136.3200 C   0  0  0  0  0  2  0  0  0  0  0  0
  187.7880  177.2690  136.0390 O   0  0  0  0  0  1  0  0  0  0  0  0
  1 13  2  0  0  0  0
  1 11  1  0  0  0  0
  2  7  1  0  0  0  0
  2 19  1  0  0  0  0
  4  6  1  0  0  0  0
  5 15  1  0  0  0  0
  5  9  1  0  0  0  0
  6  3  2  0  0  0  0
  7  1  1  0  0  0  0
  8  4  2  0  0  0  0
 10 12  1  0  0  0  0
 11 10  2  0  0  0  0
 11  8  1  0  0  0  0
 12  4  1  0  0  0  0
 12 16  2  0  0  0  0
 14  3  1  0  0  0  0
 14 15  2  0  0  0  0
 16 14  1  0  0  0  0
 17 16  1  0  0  0  0
 17 21  1  0  0  0  0
 18 10  1  0  0  0  0
 19 23  1  6  0  0  0
 19 18  1  0  0  0  0
 20  7  1  0  0  0  0
 21  5  2  0  0  0  0
 23 22  1  6  0  0  0
 24 29  1  6  0  0  0
 24 23  1  0  0  0  0
 25 27  1  6  0  0  0
 26 24  1  1  0  0  0
 26 28  1  0  0  0  0
 26 25  1  0  0  0  0
 28 25  1  0  0  0  0
 30 29  1  0  0  0  0
M  END
>  <MODEL>
7

>  <REMARK>
 VINA RESULT:      -8.2      2.054      5.389
  Name = 
  4 active torsions:
  status: ('A' for Active; 'I' for Inactive)
    1  A    between atoms: C_11  and  C_20
    2  A    between atoms: C_17  and  C_20
    3  A    between atoms: C_20  and  C_22
    4  A    between atoms: C_22  and  C_28
                            x       y       z     vdW  Elec       q    Type
                         _______ _______ _______ _____ _____    ______ ____

>  <TORSDO>
F 4

$$$$
=
 OpenBabel10222416383D

 30 34  0  0  1  0  0  0  0  0999 V2000
  186.1840  178.5510  139.5030 C   0  0  0  0  0  0  0  0  0  0  0  0
  187.7960  176.9450  138.4470 C   0  0  0  0  0  2  0  0  0  0  0  0
  187.3670  177.6210  145.2210 N   0  0  0  0  0  0  0  0  0  0  0  0
  186.7040  177.9750  142.9750 C   0  0  0  0  0  0  0  0  0  0  0  0
  191.0080  177.1670  145.4090 C   0  0  0  0  0  0  0  0  0  0  0  0
  186.3680  177.8540  144.3200 C   0  0  0  0  0  3  0  0  0  0  0  0
  186.9530  178.1340  138.3630 N   0  0  0  0  0  0  0  0  0  0  0  0
  185.8620  178.2330  141.9550 N   0  0  0  0  0  0  0  0  0  0  0  0
  191.9880  176.9350  146.3630 O   0  0  0  0  0  1  0  0  0  0  0  0
  187.9940  178.0460  141.1960 C   0  0  0  0  0  0  0  0  0  0  0  0
  186.6660  178.2740  140.8650 C   0  0  0  0  0  0  0  0  0  0  0  0
  188.0070  177.8630  142.5610 C   0  0  0  0  0  0  0  0  0  0  0  0
  185.0860  179.1490  139.3440 O   0  0  0  0  0  0  0  0  0  0  0  0
  188.6780  177.5110  144.8400 C   0  0  0  0  0  0  0  0  0  0  0  0
  189.6680  177.2770  145.7980 C   0  0  0  0  0  3  0  0  0  0  0  0
  189.0400  177.6360  143.4740 C   0  0  0  0  0  0  0  0  0  0  0  0
  190.3820  177.5230  143.0920 C   0  0  0  0  0  2  0  0  0  0  0  0
  189.1630  178.2090  140.2770 C   0  0  0  0  0  2  0  0  0  0  0  0
  189.1580  177.2160  139.1070 C   0  0  2  0  0  3  0  0  0  0  0  0
  186.6370  178.6550  137.0420 C   0  0  0  0  0  1  0  0  0  0  0  0
  191.3620  177.2900  144.0600 C   0  0  0  0  0  3  0  0  0  0  0  0
  189.6860  177.5780  136.7770 O   0  0  0  0  0  1  0  0  0  0  0  0
  190.2340  177.5280  138.0620 C   0  0  2  0  0  3  0  0  0  0  0  0
  191.4550  176.5970  138.1260 C   0  0  2  0  0  3  0  0  0  0  0  0
  190.6710  174.5590  137.0340 C   0  0  2  0  0  3  0  0  0  0  0  0
  191.0030  175.1580  138.3240 C   0  0  1  0  0  3  0  0  0  0  0  0
  189.7560  173.4510  137.2400 N   0  0  0  0  0  1  0  0  0  0  0  0
  191.9580  174.2480  137.6710 N   0  0  0  0  0  2  0  0  0  0  0  0
  192.4300  177.0040  139.2260 C   0  0  0  0  0  2  0  0  0  0  0  0
  193.7440  176.8690  138.7780 O   0  0  0  0  0  1  0  0  0  0  0  0
  1 11  1  0  0  0  0
  2 19  1  0  0  0  0
  4  6  1  0  0  0  0
  5 15  1  0  0  0  0
  5  9  1  0  0  0  0
  6  3  2  0  0  0  0
  7  2  1  0  0  0  0
  7  1  1  0  0  0  0
  8  4  2  0  0  0  0
 10 12  1  0  0  0  0
 11 10  2  0  0  0  0
 11  8  1  0  0  0  0
 12  4  1  0  0  0  0
 12 16  2  0  0  0  0
 13  1  2  0  0  0  0
 14  3  1  0  0  0  0
 14 15  2  0  0  0  0
 16 14  1  0  0  0  0
 17 16  1  0  0  0  0
 17 21  1  0  0  0  0
 18 10  1  0  0  0  0
 19 23  1  6  0  0  0
 19 18  1  0  0  0  0
 20  7  1  0  0  0  0
 21  5  2  0  0  0  0
 23 22  1  6  0  0  0
 23 24  1  0  0  0  0
 24 29  1  1  0  0  0
 25 27  1  1  0  0  0
 25 28  1  0  0  0  0
 25 26  1  0  0  0  0
 26 24  1  6  0  0  0
 28 26  1  0  0  0  0
 30 29  1  0  0  0  0
M  END
>  <MODEL>
8

>  <REMARK>
 VINA RESULT:      -8.0      2.292      5.823
  Name = 
  4 active torsions:
  status: ('A' for Active; 'I' for Inactive)
    1  A    between atoms: C_11  and  C_20
    2  A    between atoms: C_17  and  C_20
    3  A    between atoms: C_20  and  C_22
    4  A    between atoms: C_22  and  C_28
                            x       y       z     vdW  Elec       q    Type
                         _______ _______ _______ _____ _____    ______ ____

>  <TORSDO>
F 4

$$$$
=
 OpenBabel10222416383D

 30 34  0  0  1  0  0  0  0  0999 V2000
  182.7190  179.0010  143.1550 C   0  0  0  0  0  0  0  0  0  0  0  0
  183.0000  177.7750  140.9850 C   0  0  0  0  0  2  0  0  0  0  0  0
  187.7610  177.5160  145.8630 N   0  0  0  0  0  0  0  0  0  0  0  0
  185.6480  178.0610  144.9430 C   0  0  0  0  0  0  0  0  0  0  0  0
  190.3280  177.5370  143.2360 C   0  0  0  0  0  0  0  0  0  0  0  0
  186.4240  177.7250  146.0470 C   0  0  0  0  0  2  0  0  0  0  0  0
  182.3810  178.8410  141.7680 N   0  0  0  0  0  0  0  0  0  0  0  0
  184.3280  178.3320  144.9390 N   0  0  0  0  0  0  0  0  0  0  0  0
  191.6920  177.3190  143.1010 O   0  0  0  0  0  1  0  0  0  0  0  0
  185.1850  178.5320  142.8450 C   0  0  0  0  0  0  0  0  0  0  0  0
  184.0530  178.6190  143.6430 C   0  0  0  0  0  0  0  0  0  0  0  0
  186.2090  178.1800  143.6960 C   0  0  0  0  0  0  0  0  0  0  0  0
  181.8710  179.4620  143.9660 O   0  0  0  0  0  0  0  0  0  0  0  0
  188.3520  177.6330  144.6330 C   0  0  0  0  0  0  0  0  0  0  0  0
  189.7250  177.4140  144.4920 C   0  0  0  0  0  3  0  0  0  0  0  0
  187.5770  177.9790  143.4960 C   0  0  0  0  0  0  0  0  0  0  0  0
  188.1880  178.0970  142.2420 C   0  0  0  0  0  3  0  0  0  0  0  0
  185.2820  178.9680  141.4170 C   0  0  0  0  0  2  0  0  0  0  0  0
  184.4020  178.1400  140.4700 C   0  0  2  0  0  3  0  0  0  0  0  0
  181.1890  179.4790  141.2310 C   0  0  0  0  0  1  0  0  0  0  0  0
  189.5620  177.8770  142.1160 C   0  0  0  0  0  3  0  0  0  0  0  0
  184.1810  180.1140  139.0940 O   0  0  0  0  0  1  0  0  0  0  0  0
  184.3440  178.7260  139.0560 C   0  0  2  0  0  3  0  0  0  0  0  0
  183.3060  178.0540  138.1430 C   0  0  2  0  0  3  0  0  0  0  0  0
  185.2370  176.8440  137.2660 C   0  0  2  0  0  3  0  0  0  0  0  0
  183.9860  177.5030  136.8990 C   0  0  1  0  0  3  0  0  0  0  0  0
  186.1210  176.8150  136.1150 N   0  0  0  0  0  1  0  0  0  0  0  0
  184.0440  176.0350  136.9790 N   0  0  0  0  0  2  0  0  0  0  0  0
  182.1810  179.0080  137.7560 C   0  0  0  0  0  2  0  0  0  0  0  0
  181.6510  178.6470  136.5160 O   0  0  0  0  0  1  0  0  0  0  0  0
  1 11  1  0  0  0  0
  1 13  2  0  0  0  0
  2  7  1  0  0  0  0
  3  6  1  0  0  0  0
  4  6  1  0  0  0  0
  5 15  2  0  0  0  0
  7  1  1  0  0  0  0
  8  4  2  0  0  0  0
  9  5  1  0  0  0  0
 10 11  2  0  0  0  0
 10 12  1  0  0  0  0
 11  8  1  0  0  0  0
 12  4  1  0  0  0  0
 14  3  2  0  0  0  0
 15 14  1  0  0  0  0
 16 12  2  0  0  0  0
 16 14  1  0  0  0  0
 17 16  1  0  0  0  0
 18 10  1  0  0  0  0
 19 23  1  6  0  0  0
 19  2  1  0  0  0  0
 19 18  1  0  0  0  0
 20  7  1  0  0  0  0
 21 17  2  0  0  0  0
 21  5  1  0  0  0  0
 23 22  1  1  0  0  0
 24 29  1  6  0  0  0
 24 23  1  0  0  0  0
 25 27  1  6  0  0  0
 26 28  1  0  0  0  0
 26 25  1  0  0  0  0
 26 24  1  1  0  0  0
 28 25  1  0  0  0  0
 30 29  1  0  0  0  0
M  END
>  <MODEL>
9

>  <REMARK>
 VINA RESULT:      -7.9      2.795      6.344
  Name = 
  4 active torsions:
  status: ('A' for Active; 'I' for Inactive)
    1  A    between atoms: C_11  and  C_20
    2  A    between atoms: C_17  and  C_20
    3  A    between atoms: C_20  and  C_22
    4  A    between atoms: C_22  and  C_28
                            x       y       z     vdW  Elec       q    Type
                         _______ _______ _______ _____ _____    ______ ____

>  <TORSDO>
F 4

$$$$
