=
 OpenBabel10222420343D

 41 44  0  0  1  0  0  0  0  0999 V2000
  188.8340  177.9810  138.6350 C   0  0  0  0  0  0  0  0  0  0  0  0
  189.5660  177.3770  141.6720 C   0  0  0  0  0  0  0  0  0  0  0  0
  190.7990  177.0860  140.9190 C   0  0  0  0  0  3  0  0  0  0  0  0
  188.1330  178.1640  139.7500 C   0  0  0  0  0  2  0  0  0  0  0  0
  188.4300  177.9170  141.1760 C   0  0  0  0  0  0  0  0  0  0  0  0
  191.0700  177.1300  139.6210 C   0  0  0  0  0  3  0  0  0  0  0  0
  190.1740  177.4960  138.5770 N   0  0  0  0  0  0  0  0  0  0  0  0
  190.3030  178.3720  143.9320 C   0  0  2  0  0  3  0  0  0  0  0  0
  191.1560  177.1620  143.6280 C   0  0  2  0  0  3  0  0  0  0  0  0
  189.7030  177.1770  143.1710 C   0  0  2  0  0  3  0  0  0  0  0  0
  190.7030  179.4170  143.0950 O   0  0  0  0  0  1  0  0  0  0  0  0
  191.2760  176.3090  144.8750 C   0  0  0  0  0  2  0  0  0  0  0  0
  191.6620  177.1700  146.0690 C   0  0  0  0  0  2  0  0  0  0  0  0
  191.6040  175.3400  147.6070 O   0  0  0  0  0  1  0  0  0  0  0  0
  191.0830  176.6140  147.3650 C   0  0  2  0  0  3  0  0  0  0  0  0
  189.5570  176.5590  147.3260 C   0  0  0  0  0  2  0  0  0  0  0  0
  188.9750  177.7170  147.9940 N   0  0  0  0  0  0  0  0  0  0  0  0
  188.0470  177.2450  148.8590 O   0  0  0  0  0  1  0  0  0  0  0  0
  188.2540  178.4760  146.9850 C   0  0  0  0  0  2  0  0  0  0  0  0
  187.4910  177.5400  146.0560 C   0  0  0  0  0  2  0  0  0  0  0  0
  185.6380  179.1010  146.6620 C   0  0  0  0  0  1  0  0  0  0  0  0
  185.9880  177.6890  146.2310 C   0  0  0  0  0  2  0  0  0  0  0  0
  188.1790  178.3550  137.3530 C   0  0  0  0  0  2  0  0  0  0  0  0
  186.7890  177.7500  137.2830 C   0  0  0  0  0  2  0  0  0  0  0  0
  186.2220  178.0290  136.0410 O   0  0  0  0  0  1  0  0  0  0  0  0
  187.4330  178.2800  142.0990 O   0  0  0  0  0  0  0  0  0  0  0  0
  186.1760  178.8440  141.7340 C   0  0  0  0  0  2  0  0  0  0  0  0
  185.3470  179.1500  142.9760 C   0  0  0  0  0  2  0  0  0  0  0  0
  183.9490  178.5480  142.8840 C   0  0  0  0  0  2  0  0  0  0  0  0
  183.0780  178.9910  144.0500 C   0  0  0  0  0  2  0  0  0  0  0  0
  181.6150  178.7500  143.7340 C   0  0  0  0  0  2  0  0  0  0  0  0
  181.3130  179.2230  142.3280 C   0  0  0  0  0  2  0  0  0  0  0  0
  180.8140  178.1560  141.5780 O   0  0  0  0  0  0  0  0  0  0  0  0
  181.4190  178.5320  139.3820 N   0  0  0  0  0  0  0  0  0  0  0  0
  180.0330  177.9040  139.2800 C   0  0  2  0  0  0  0  0  0  0  0  0
  183.1420  178.1480  137.7050 O   0  0  0  0  0  0  0  0  0  0  0  0
  183.5410  179.4630  139.5390 O   0  0  0  0  0  1  0  0  0  0  0  0
  180.3680  178.7420  140.3750 C   0  0  1  0  0  3  0  0  0  0  0  0
  180.4020  176.5240  139.2260 O   0  0  0  0  0  0  0  0  0  0  0  0
  182.7380  178.7410  138.8940 C   0  0  0  0  0  0  0  0  0  0  0  0
  179.3470  176.7860  140.0510 C   0  0  0  0  0  2  0  0  0  0  0  0
  1  4  1  0  0  0  0
  3  2  1  0  0  0  0
  4  5  1  0  0  0  0
  5  2  2  0  0  0  0
  5 26  1  0  0  0  0
  6  3  2  0  0  0  0
  7  1  2  0  0  0  0
  7  6  1  0  0  0  0
  8 11  1  6  0  0  0
  9  8  1  0  0  0  0
  9 12  1  1  0  0  0
 10  2  1  6  0  0  0
 10  9  1  0  0  0  0
 10  8  1  0  0  0  0
 12 13  1  0  0  0  0
 13 15  1  0  0  0  0
 15 14  1  6  0  0  0
 16 15  1  0  0  0  0
 16 17  1  0  0  0  0
 17 18  1  0  0  0  0
 19 17  1  0  0  0  0
 20 22  1  0  0  0  0
 20 19  1  0  0  0  0
 22 21  1  0  0  0  0
 23  1  1  0  0  0  0
 24 23  1  0  0  0  0
 25 24  1  0  0  0  0
 27 26  1  0  0  0  0
 27 28  1  0  0  0  0
 29 28  1  0  0  0  0
 29 30  1  0  0  0  0
 31 30  1  0  0  0  0
 32 31  1  0  0  0  0
 33 32  1  0  0  0  0
 34 38  1  0  0  0  0
 35 34  1  0  0  0  0
 35 41  1  6  0  0  0
 35 38  1  0  0  0  0
 36 40  2  0  0  0  0
 38 33  1  1  0  0  0
 39 35  1  0  0  0  0
 39 41  1  0  0  0  0
 40 34  1  0  0  0  0
 40 37  1  0  0  0  0
M  END
>  <MODEL>
1

>  <REMARK>
 VINA RESULT:      -6.6      0.000      0.000
  Name = 
  20 active torsions:
  status: ('A' for Active; 'I' for Inactive)
    1  A    between atoms: C_1  and  C_22
    2  A    between atoms: C_1  and  O_28
    3  A    between atoms: C_4  and  C_12
    4  A    between atoms: C_4  and  C_22
    5  A    between atoms: C_5  and  C_12
    6  A    between atoms: C_5  and  C_25
    7  A    between atoms: C_6  and  C_30
    8  A    between atoms: C_7  and  C_14
    9  A    between atoms: C_7  and  C_40
   10  A    between atoms: C_9  and  C_30
   11  A    between atoms: C_10  and  C_18
   12  A    between atoms: C_11  and  N_34
   13  A    between atoms: C_11  and  C_40
   14  A    between atoms: C_14  and  C_17
   15  A    between atoms: O_16  and  C_25
   16  A    between atoms: O_16  and  C_27
   17  A    between atoms: C_20  and  O_28
   18  A    between atoms: C_26  and  C_35
   19  A    between atoms: C_26  and  C_39
   20  A    between atoms: N_34  and  C_39
                            x       y       z     vdW  Elec       q    Type
                         _______ _______ _______ _____ _____    ______ ____

>  <TORSDO>
F 20

$$$$
=
 OpenBabel10222420343D

 41 44  0  0  1  0  0  0  0  0999 V2000
  188.9440  177.2430  145.7750 C   0  0  0  0  0  0  0  0  0  0  0  0
  186.0420  177.8740  144.6360 C   0  0  0  0  0  0  0  0  0  0  0  0
  185.9370  178.1010  146.0890 C   0  0  0  0  0  3  0  0  0  0  0  0
  188.4960  177.2960  144.5240 C   0  0  0  0  0  3  0  0  0  0  0  0
  187.1700  177.5980  143.9440 C   0  0  0  0  0  0  0  0  0  0  0  0
  186.8220  177.9630  147.0670 C   0  0  0  0  0  3  0  0  0  0  0  0
  188.1750  177.5370  146.9390 N   0  0  0  0  0  2  0  0  0  0  0  0
  184.5240  179.6200  143.5020 C   0  0  2  0  0  3  0  0  0  0  0  0
  183.7850  179.0170  144.6720 C   0  0  2  0  0  3  0  0  0  0  0  0
  184.7530  178.1470  143.8800 C   0  0  2  0  0  3  0  0  0  0  0  0
  185.5100  180.4790  143.9950 O   0  0  0  0  0  1  0  0  0  0  0  0
  182.3650  178.6890  144.2510 C   0  0  0  0  0  2  0  0  0  0  0  0
  182.2050  178.8680  142.7490 C   0  0  0  0  0  2  0  0  0  0  0  0
  179.8910  178.7760  143.3410 O   0  0  0  0  0  1  0  0  0  0  0  0
  180.7820  179.2750  142.3870 C   0  0  2  0  0  3  0  0  0  0  0  0
  180.3890  178.7850  140.9950 C   0  0  0  0  0  2  0  0  0  0  0  0
  180.7120  179.7790  139.9790 N   0  0  0  0  0  0  0  0  0  0  0  0
  179.5760  180.0060  139.2780 O   0  0  0  0  0  1  0  0  0  0  0  0
  181.6530  179.1620  139.0580 C   0  0  0  0  0  2  0  0  0  0  0  0
  182.9360  179.9790  138.9800 C   0  0  0  0  0  2  0  0  0  0  0  0
  184.6960  178.2840  138.4640 C   0  0  0  0  0  1  0  0  0  0  0  0
  184.1230  179.2010  139.5280 C   0  0  0  0  0  2  0  0  0  0  0  0
  190.3780  176.8930  145.9660 C   0  0  0  0  0  2  0  0  0  0  0  0
  190.7390  176.9660  147.4380 C   0  0  0  0  0  2  0  0  0  0  0  0
  192.0570  176.5490  147.6140 O   0  0  0  0  0  1  0  0  0  0  0  0
  187.0810  177.5940  142.5420 O   0  0  0  0  0  0  0  0  0  0  0  0
  188.2010  177.7360  141.6710 C   0  0  0  0  0  2  0  0  0  0  0  0
  187.8130  178.5210  140.4240 C   0  0  0  0  0  2  0  0  0  0  0  0
  188.8520  178.3720  139.3170 C   0  0  0  0  0  2  0  0  0  0  0  0
  188.4340  177.3190  138.3030 C   0  0  0  0  0  2  0  0  0  0  0  0
  189.6300  176.8740  137.4850 C   0  0  0  0  0  2  0  0  0  0  0  0
  189.7530  175.3660  137.5430 C   0  0  0  0  0  2  0  0  0  0  0  0
  190.9980  175.0240  138.0750 O   0  0  0  0  0  0  0  0  0  0  0  0
  192.8320  176.3590  138.5030 N   0  0  0  0  0  0  0  0  0  0  0  0
  193.2580  175.5220  137.3010 C   0  0  2  0  0  0  0  0  0  0  0  0
  194.4140  177.0700  140.2130 O   0  0  0  0  0  0  0  0  0  0  0  0
  192.1910  177.6130  140.3510 O   0  0  0  0  0  1  0  0  0  0  0  0
  191.9040  175.9160  137.4650 C   0  0  1  0  0  3  0  0  0  0  0  0
  193.8200  174.3980  137.9840 O   0  0  0  0  0  0  0  0  0  0  0  0
  193.1160  177.0390  139.7190 C   0  0  0  0  0  0  0  0  0  0  0  0
  193.0270  174.0670  136.9240 C   0  0  0  0  0  2  0  0  0  0  0  0
  1 23  1  0  0  0  0
  1  7  1  0  0  0  0
  2  3  1  0  0  0  0
  3  6  2  0  0  0  0
  4  1  2  0  0  0  0
  5  4  1  0  0  0  0
  5  2  2  0  0  0  0
  7  6  1  0  0  0  0
  8 10  1  0  0  0  0
  8 11  1  1  0  0  0
  8  9  1  0  0  0  0
  9 12  1  6  0  0  0
 10  2  1  1  0  0  0
 10  9  1  0  0  0  0
 13 12  1  0  0  0  0
 15 13  1  0  0  0  0
 15 14  1  1  0  0  0
 16 15  1  0  0  0  0
 17 16  1  0  0  0  0
 18 17  1  0  0  0  0
 19 17  1  0  0  0  0
 20 19  1  0  0  0  0
 20 22  1  0  0  0  0
 21 22  1  0  0  0  0
 23 24  1  0  0  0  0
 24 25  1  0  0  0  0
 26  5  1  0  0  0  0
 27 26  1  0  0  0  0
 28 27  1  0  0  0  0
 29 28  1  0  0  0  0
 30 29  1  0  0  0  0
 31 32  1  0  0  0  0
 31 30  1  0  0  0  0
 32 33  1  0  0  0  0
 34 40  1  0  0  0  0
 35 41  1  6  0  0  0
 35 38  1  0  0  0  0
 35 39  1  0  0  0  0
 35 34  1  0  0  0  0
 38 33  1  1  0  0  0
 38 34  1  0  0  0  0
 40 36  2  0  0  0  0
 40 37  1  0  0  0  0
 41 39  1  0  0  0  0
M  END
>  <MODEL>
2

>  <REMARK>
 VINA RESULT:      -6.5      2.568      9.507
  Name = 
  20 active torsions:
  status: ('A' for Active; 'I' for Inactive)
    1  A    between atoms: C_1  and  C_22
    2  A    between atoms: C_1  and  O_28
    3  A    between atoms: C_4  and  C_12
    4  A    between atoms: C_4  and  C_22
    5  A    between atoms: C_5  and  C_12
    6  A    between atoms: C_5  and  C_25
    7  A    between atoms: C_6  and  C_30
    8  A    between atoms: C_7  and  C_14
    9  A    between atoms: C_7  and  C_40
   10  A    between atoms: C_9  and  C_30
   11  A    between atoms: C_10  and  C_18
   12  A    between atoms: C_11  and  N_34
   13  A    between atoms: C_11  and  C_40
   14  A    between atoms: C_14  and  C_17
   15  A    between atoms: O_16  and  C_25
   16  A    between atoms: O_16  and  C_27
   17  A    between atoms: C_20  and  O_28
   18  A    between atoms: C_26  and  C_35
   19  A    between atoms: C_26  and  C_39
   20  A    between atoms: N_34  and  C_39
                            x       y       z     vdW  Elec       q    Type
                         _______ _______ _______ _____ _____    ______ ____

>  <TORSDO>
F 20

$$$$
=
 OpenBabel10222420343D

 41 44  0  0  1  0  0  0  0  0999 V2000
  187.6520  177.7290  146.5430 C   0  0  0  0  0  0  0  0  0  0  0  0
  185.7540  177.8710  143.9940 C   0  0  0  0  0  0  0  0  0  0  0  0
  185.0580  178.6560  145.0310 C   0  0  0  0  0  3  0  0  0  0  0  0
  187.8300  177.2830  145.3030 C   0  0  0  0  0  3  0  0  0  0  0  0
  186.9920  177.3370  144.0860 C   0  0  0  0  0  0  0  0  0  0  0  0
  185.3660  178.9130  146.2950 C   0  0  0  0  0  3  0  0  0  0  0  0
  186.5180  178.4640  146.9990 N   0  0  0  0  0  2  0  0  0  0  0  0
  185.2590  179.0470  141.7550 C   0  0  2  0  0  3  0  0  0  0  0  0
  183.9730  178.9280  142.5400 C   0  0  2  0  0  3  0  0  0  0  0  0
  185.0210  177.8280  142.6650 C   0  0  2  0  0  3  0  0  0  0  0  0
  186.0500  180.0350  142.3480 O   0  0  0  0  0  1  0  0  0  0  0  0
  182.8670  178.4560  141.6170 C   0  0  0  0  0  2  0  0  0  0  0  0
  183.2410  178.7190  140.1660 C   0  0  0  0  0  2  0  0  0  0  0  0
  181.0530  179.6750  140.2940 O   0  0  0  0  0  1  0  0  0  0  0  0
  182.1440  179.4890  139.4400 C   0  0  2  0  0  3  0  0  0  0  0  0
  181.6980  178.7750  138.1660 C   0  0  0  0  0  2  0  0  0  0  0  0
  182.4640  177.5530  137.9560 N   0  0  0  0  0  0  0  0  0  0  0  0
  183.0920  177.6830  136.7650 O   0  0  0  0  0  1  0  0  0  0  0  0
  181.5070  176.4680  137.8050 C   0  0  0  0  0  2  0  0  0  0  0  0
  181.4930  175.5910  139.0500 C   0  0  0  0  0  2  0  0  0  0  0  0
  179.7370  174.6350  140.5460 C   0  0  0  0  0  1  0  0  0  0  0  0
  180.2980  175.9060  139.9370 C   0  0  0  0  0  2  0  0  0  0  0  0
  188.7470  177.4750  147.5170 C   0  0  0  0  0  2  0  0  0  0  0  0
  190.0500  177.2210  146.7820 C   0  0  0  0  0  2  0  0  0  0  0  0
  190.8580  176.3790  147.5430 O   0  0  0  0  0  1  0  0  0  0  0  0
  187.5410  176.7780  142.9190 O   0  0  0  0  0  0  0  0  0  0  0  0
  188.9210  176.4580  142.7610 C   0  0  0  0  0  2  0  0  0  0  0  0
  189.6340  177.5450  141.9670 C   0  0  0  0  0  2  0  0  0  0  0  0
  189.6060  177.2600  140.4680 C   0  0  0  0  0  2  0  0  0  0  0  0
  188.5410  178.0880  139.7670 C   0  0  0  0  0  2  0  0  0  0  0  0
  189.1270  178.7750  138.5490 C   0  0  0  0  0  2  0  0  0  0  0  0
  188.2590  178.4940  137.3400 C   0  0  0  0  0  2  0  0  0  0  0  0
  187.5700  177.2960  137.5340 O   0  0  0  0  0  0  0  0  0  0  0  0
  188.7220  175.4360  136.7950 N   0  0  0  0  0  0  0  0  0  0  0  0
  187.3060  175.2260  136.2680 C   0  0  2  0  0  0  0  0  0  0  0  0
  190.1390  173.5780  137.4800 O   0  0  0  0  0  0  0  0  0  0  0  0
  190.8710  175.7460  137.6230 O   0  0  0  0  0  1  0  0  0  0  0  0
  187.8490  176.5330  136.3820 C   0  0  1  0  0  3  0  0  0  0  0  0
  186.7410  174.5290  137.3810 O   0  0  0  0  0  0  0  0  0  0  0  0
  189.9520  174.9440  137.3130 C   0  0  0  0  0  0  0  0  0  0  0  0
  185.9330  175.4990  136.8630 C   0  0  0  0  0  2  0  0  0  0  0  0
  1  7  1  0  0  0  0
  1 23  1  0  0  0  0
  2  5  2  0  0  0  0
  2  3  1  0  0  0  0
  3  6  2  0  0  0  0
  4  1  2  0  0  0  0
  5  4  1  0  0  0  0
  6  7  1  0  0  0  0
  8 11  1  1  0  0  0
  8  9  1  0  0  0  0
  8 10  1  0  0  0  0
  9 12  1  6  0  0  0
  9 10  1  0  0  0  0
 10  2  1  1  0  0  0
 13 12  1  0  0  0  0
 15 13  1  0  0  0  0
 15 14  1  1  0  0  0
 16 15  1  0  0  0  0
 17 16  1  0  0  0  0
 18 17  1  0  0  0  0
 19 17  1  0  0  0  0
 19 20  1  0  0  0  0
 20 22  1  0  0  0  0
 22 21  1  0  0  0  0
 24 23  1  0  0  0  0
 24 25  1  0  0  0  0
 26  5  1  0  0  0  0
 27 26  1  0  0  0  0
 28 27  1  0  0  0  0
 29 28  1  0  0  0  0
 30 29  1  0  0  0  0
 31 30  1  0  0  0  0
 32 33  1  0  0  0  0
 32 31  1  0  0  0  0
 34 40  1  0  0  0  0
 35 38  1  0  0  0  0
 35 34  1  0  0  0  0
 35 41  1  6  0  0  0
 35 39  1  0  0  0  0
 38 34  1  0  0  0  0
 38 33  1  1  0  0  0
 40 36  2  0  0  0  0
 40 37  1  0  0  0  0
 41 39  1  0  0  0  0
M  END
>  <MODEL>
3

>  <REMARK>
 VINA RESULT:      -6.3      2.198      8.692
  Name = 
  20 active torsions:
  status: ('A' for Active; 'I' for Inactive)
    1  A    between atoms: C_1  and  C_22
    2  A    between atoms: C_1  and  O_28
    3  A    between atoms: C_4  and  C_12
    4  A    between atoms: C_4  and  C_22
    5  A    between atoms: C_5  and  C_12
    6  A    between atoms: C_5  and  C_25
    7  A    between atoms: C_6  and  C_30
    8  A    between atoms: C_7  and  C_14
    9  A    between atoms: C_7  and  C_40
   10  A    between atoms: C_9  and  C_30
   11  A    between atoms: C_10  and  C_18
   12  A    between atoms: C_11  and  N_34
   13  A    between atoms: C_11  and  C_40
   14  A    between atoms: C_14  and  C_17
   15  A    between atoms: O_16  and  C_25
   16  A    between atoms: O_16  and  C_27
   17  A    between atoms: C_20  and  O_28
   18  A    between atoms: C_26  and  C_35
   19  A    between atoms: C_26  and  C_39
   20  A    between atoms: N_34  and  C_39
                            x       y       z     vdW  Elec       q    Type
                         _______ _______ _______ _____ _____    ______ ____

>  <TORSDO>
F 20

$$$$
=
 OpenBabel10222420343D

 41 44  0  0  1  0  0  0  0  0999 V2000
  188.1700  177.7570  146.9280 C   0  0  0  0  0  0  0  0  0  0  0  0
  185.8070  178.0140  144.8130 C   0  0  0  0  0  0  0  0  0  0  0  0
  185.2680  178.5930  146.0580 C   0  0  0  0  0  3  0  0  0  0  0  0
  188.1370  177.4860  145.6260 C   0  0  0  0  0  3  0  0  0  0  0  0
  187.0770  177.6020  144.6030 C   0  0  0  0  0  0  0  0  0  0  0  0
  185.7950  178.7240  147.2680 C   0  0  0  0  0  3  0  0  0  0  0  0
  187.0940  178.3130  147.6810 N   0  0  0  0  0  2  0  0  0  0  0  0
  184.8240  179.3850  142.8650 C   0  0  2  0  0  3  0  0  0  0  0  0
  183.7230  179.0800  143.8530 C   0  0  2  0  0  3  0  0  0  0  0  0
  184.8360  178.0600  143.6470 C   0  0  2  0  0  3  0  0  0  0  0  0
  185.6580  180.3610  143.4170 O   0  0  0  0  0  1  0  0  0  0  0  0
  182.4880  178.6260  143.1000 C   0  0  0  0  0  2  0  0  0  0  0  0
  182.6380  178.9180  141.6150 C   0  0  0  0  0  2  0  0  0  0  0  0
  182.5760  177.3260  139.8320 O   0  0  0  0  0  1  0  0  0  0  0  0
  181.7780  177.9810  140.7750 C   0  0  2  0  0  3  0  0  0  0  0  0
  180.6430  178.7260  140.0760 C   0  0  0  0  0  2  0  0  0  0  0  0
  180.4310  180.0380  140.6750 N   0  0  0  0  0  0  0  0  0  0  0  0
  179.2680  179.9700  141.3650 O   0  0  0  0  0  1  0  0  0  0  0  0
  180.2150  180.9770  139.5860 C   0  0  0  0  0  2  0  0  0  0  0  0
  181.3950  180.9580  138.6240 C   0  0  0  0  0  2  0  0  0  0  0  0
  179.9780  180.3310  136.6650 C   0  0  0  0  0  1  0  0  0  0  0  0
  180.9680  181.3410  137.2150 C   0  0  0  0  0  2  0  0  0  0  0  0
  189.4500  177.4990  147.6410 C   0  0  0  0  0  2  0  0  0  0  0  0
  190.4200  176.7770  146.7250 C   0  0  0  0  0  2  0  0  0  0  0  0
  191.7230  176.9740  147.1780 O   0  0  0  0  0  1  0  0  0  0  0  0
  187.4300  177.2480  143.2890 O   0  0  0  0  0  0  0  0  0  0  0  0
  188.6740  176.6500  142.9310 C   0  0  0  0  0  2  0  0  0  0  0  0
  189.6150  177.6910  142.3380 C   0  0  0  0  0  2  0  0  0  0  0  0
  190.7350  177.0450  141.5290 C   0  0  0  0  0  2  0  0  0  0  0  0
  190.7420  177.5460  140.0940 C   0  0  0  0  0  2  0  0  0  0  0  0
  190.2420  176.4630  139.1570 C   0  0  0  0  0  2  0  0  0  0  0  0
  190.4810  176.8820  137.7220 C   0  0  0  0  0  2  0  0  0  0  0  0
  189.4230  177.6850  137.2920 O   0  0  0  0  0  0  0  0  0  0  0  0
  187.1890  177.6430  137.8730 N   0  0  0  0  0  0  0  0  0  0  0  0
  187.2110  177.0800  136.4560 C   0  0  2  0  0  0  0  0  0  0  0  0
  185.3310  178.9770  138.7080 O   0  0  0  0  0  0  0  0  0  0  0  0
  187.1550  178.5270  140.0220 O   0  0  0  0  0  1  0  0  0  0  0  0
  188.2920  176.8440  137.3450 C   0  0  1  0  0  3  0  0  0  0  0  0
  187.0760  178.2960  135.7170 O   0  0  0  0  0  0  0  0  0  0  0  0
  186.5730  178.3920  138.9140 C   0  0  0  0  0  0  0  0  0  0  0  0
  188.0130  177.4410  135.2150 C   0  0  0  0  0  2  0  0  0  0  0  0
  1 23  1  0  0  0  0
  1  7  1  0  0  0  0
  2  3  1  0  0  0  0
  3  6  2  0  0  0  0
  4  1  2  0  0  0  0
  5  2  2  0  0  0  0
  5  4  1  0  0  0  0
  6  7  1  0  0  0  0
  8 11  1  1  0  0  0
  8 10  1  0  0  0  0
  8  9  1  0  0  0  0
  9 12  1  6  0  0  0
 10  9  1  0  0  0  0
 10  2  1  1  0  0  0
 13 12  1  0  0  0  0
 15 14  1  6  0  0  0
 15 13  1  0  0  0  0
 16 17  1  0  0  0  0
 16 15  1  0  0  0  0
 17 18  1  0  0  0  0
 19 17  1  0  0  0  0
 20 19  1  0  0  0  0
 21 22  1  0  0  0  0
 22 20  1  0  0  0  0
 24 25  1  0  0  0  0
 24 23  1  0  0  0  0
 26  5  1  0  0  0  0
 27 26  1  0  0  0  0
 28 27  1  0  0  0  0
 29 28  1  0  0  0  0
 30 29  1  0  0  0  0
 31 30  1  0  0  0  0
 32 31  1  0  0  0  0
 33 32  1  0  0  0  0
 34 40  1  0  0  0  0
 35 41  1  6  0  0  0
 35 38  1  0  0  0  0
 35 34  1  0  0  0  0
 36 40  2  0  0  0  0
 38 33  1  6  0  0  0
 38 34  1  0  0  0  0
 39 35  1  0  0  0  0
 40 37  1  0  0  0  0
 41 39  1  0  0  0  0
M  END
>  <MODEL>
4

>  <REMARK>
 VINA RESULT:      -6.2      1.857      8.675
  Name = 
  20 active torsions:
  status: ('A' for Active; 'I' for Inactive)
    1  A    between atoms: C_1  and  C_22
    2  A    between atoms: C_1  and  O_28
    3  A    between atoms: C_4  and  C_12
    4  A    between atoms: C_4  and  C_22
    5  A    between atoms: C_5  and  C_12
    6  A    between atoms: C_5  and  C_25
    7  A    between atoms: C_6  and  C_30
    8  A    between atoms: C_7  and  C_14
    9  A    between atoms: C_7  and  C_40
   10  A    between atoms: C_9  and  C_30
   11  A    between atoms: C_10  and  C_18
   12  A    between atoms: C_11  and  N_34
   13  A    between atoms: C_11  and  C_40
   14  A    between atoms: C_14  and  C_17
   15  A    between atoms: O_16  and  C_25
   16  A    between atoms: O_16  and  C_27
   17  A    between atoms: C_20  and  O_28
   18  A    between atoms: C_26  and  C_35
   19  A    between atoms: C_26  and  C_39
   20  A    between atoms: N_34  and  C_39
                            x       y       z     vdW  Elec       q    Type
                         _______ _______ _______ _____ _____    ______ ____

>  <TORSDO>
F 20

$$$$
=
 OpenBabel10222420343D

 41 44  0  0  1  0  0  0  0  0999 V2000
  188.3750  177.6620  146.3990 C   0  0  0  0  0  0  0  0  0  0  0  0
  185.6010  178.0260  144.8850 C   0  0  0  0  0  0  0  0  0  0  0  0
  185.3500  178.4990  146.2590 C   0  0  0  0  0  3  0  0  0  0  0  0
  188.0550  177.4880  145.1200 C   0  0  0  0  0  3  0  0  0  0  0  0
  186.7940  177.6570  144.3680 C   0  0  0  0  0  0  0  0  0  0  0  0
  186.1310  178.5510  147.3290 C   0  0  0  0  0  3  0  0  0  0  0  0
  187.4910  178.1380  147.4110 N   0  0  0  0  0  2  0  0  0  0  0  0
  184.1100  179.5550  143.4440 C   0  0  2  0  0  3  0  0  0  0  0  0
  183.2810  178.9870  144.5720 C   0  0  2  0  0  3  0  0  0  0  0  0
  184.3940  178.1370  143.9700 C   0  0  2  0  0  3  0  0  0  0  0  0
  184.9680  180.5240  143.9690 O   0  0  0  0  0  1  0  0  0  0  0  0
  181.9480  178.5170  144.0240 C   0  0  0  0  0  2  0  0  0  0  0  0
  181.3490  179.5750  143.1110 C   0  0  0  0  0  2  0  0  0  0  0  0
  179.4060  178.7510  144.2340 O   0  0  0  0  0  1  0  0  0  0  0  0
  179.8280  179.5900  143.1980 C   0  0  2  0  0  3  0  0  0  0  0  0
  179.1800  179.1650  141.8820 C   0  0  0  0  0  2  0  0  0  0  0  0
  180.1860  178.9490  140.8500 N   0  0  0  0  0  0  0  0  0  0  0  0
  179.8320  179.7160  139.7910 O   0  0  0  0  0  1  0  0  0  0  0  0
  180.0690  177.5650  140.4180 C   0  0  0  0  0  2  0  0  0  0  0  0
  181.4470  176.9460  140.2310 C   0  0  0  0  0  2  0  0  0  0  0  0
  180.4800  175.9430  138.1590 C   0  0  0  0  0  1  0  0  0  0  0  0
  181.3840  175.7060  139.3530 C   0  0  0  0  0  2  0  0  0  0  0  0
  189.7830  177.3790  146.7890 C   0  0  0  0  0  2  0  0  0  0  0  0
  190.6380  177.1850  145.5500 C   0  0  0  0  0  2  0  0  0  0  0  0
  191.9500  176.9070  145.9290 O   0  0  0  0  0  1  0  0  0  0  0  0
  186.8470  177.4090  142.9860 O   0  0  0  0  0  0  0  0  0  0  0  0
  187.5380  178.2370  142.0530 C   0  0  0  0  0  2  0  0  0  0  0  0
  188.6690  177.4630  141.3870 C   0  0  0  0  0  2  0  0  0  0  0  0
  189.2370  178.2130  140.1860 C   0  0  0  0  0  2  0  0  0  0  0  0
  190.1440  177.3210  139.3540 C   0  0  0  0  0  2  0  0  0  0  0  0
  189.7500  177.3890  137.8910 C   0  0  0  0  0  2  0  0  0  0  0  0
  189.1100  178.7300  137.5990 C   0  0  0  0  0  2  0  0  0  0  0  0
  188.0810  178.5580  136.6710 O   0  0  0  0  0  0  0  0  0  0  0  0
  186.0780  177.6800  137.4130 N   0  0  0  0  0  0  0  0  0  0  0  0
  186.4450  176.8050  136.2180 C   0  0  2  0  0  0  0  0  0  0  0  0
  183.7680  178.2060  137.9740 O   0  0  0  0  0  0  0  0  0  0  0  0
  185.5090  179.0320  139.2150 O   0  0  0  0  0  1  0  0  0  0  0  0
  187.4550  177.3520  137.0510 C   0  0  1  0  0  3  0  0  0  0  0  0
  185.8180  177.5560  135.1750 O   0  0  0  0  0  0  0  0  0  0  0  0
  185.1250  178.3340  138.2400 C   0  0  0  0  0  0  0  0  0  0  0  0
  187.0720  177.1130  134.8670 C   0  0  0  0  0  2  0  0  0  0  0  0
  1 23  1  0  0  0  0
  1  7  1  0  0  0  0
  2  3  1  0  0  0  0
  3  6  2  0  0  0  0
  4  1  2  0  0  0  0
  5  2  2  0  0  0  0
  5  4  1  0  0  0  0
  6  7  1  0  0  0  0
  8 11  1  1  0  0  0
  8 10  1  0  0  0  0
  8  9  1  0  0  0  0
  9 12  1  6  0  0  0
 10  9  1  0  0  0  0
 10  2  1  1  0  0  0
 13 15  1  0  0  0  0
 13 12  1  0  0  0  0
 15 14  1  1  0  0  0
 16 15  1  0  0  0  0
 17 16  1  0  0  0  0
 18 17  1  0  0  0  0
 19 17  1  0  0  0  0
 20 19  1  0  0  0  0
 21 22  1  0  0  0  0
 22 20  1  0  0  0  0
 24 25  1  0  0  0  0
 24 23  1  0  0  0  0
 26  5  1  0  0  0  0
 27 26  1  0  0  0  0
 28 27  1  0  0  0  0
 29 28  1  0  0  0  0
 30 29  1  0  0  0  0
 31 30  1  0  0  0  0
 32 31  1  0  0  0  0
 33 32  1  0  0  0  0
 34 40  1  0  0  0  0
 35 41  1  1  0  0  0
 35 38  1  0  0  0  0
 35 34  1  0  0  0  0
 36 40  2  0  0  0  0
 38 33  1  6  0  0  0
 38 34  1  0  0  0  0
 39 35  1  0  0  0  0
 40 37  1  0  0  0  0
 41 39  1  0  0  0  0
M  END
>  <MODEL>
5

>  <REMARK>
 VINA RESULT:      -6.2      1.879      8.337
  Name = 
  20 active torsions:
  status: ('A' for Active; 'I' for Inactive)
    1  A    between atoms: C_1  and  C_22
    2  A    between atoms: C_1  and  O_28
    3  A    between atoms: C_4  and  C_12
    4  A    between atoms: C_4  and  C_22
    5  A    between atoms: C_5  and  C_12
    6  A    between atoms: C_5  and  C_25
    7  A    between atoms: C_6  and  C_30
    8  A    between atoms: C_7  and  C_14
    9  A    between atoms: C_7  and  C_40
   10  A    between atoms: C_9  and  C_30
   11  A    between atoms: C_10  and  C_18
   12  A    between atoms: C_11  and  N_34
   13  A    between atoms: C_11  and  C_40
   14  A    between atoms: C_14  and  C_17
   15  A    between atoms: O_16  and  C_25
   16  A    between atoms: O_16  and  C_27
   17  A    between atoms: C_20  and  O_28
   18  A    between atoms: C_26  and  C_35
   19  A    between atoms: C_26  and  C_39
   20  A    between atoms: N_34  and  C_39
                            x       y       z     vdW  Elec       q    Type
                         _______ _______ _______ _____ _____    ______ ____

>  <TORSDO>
F 20

$$$$
=
 OpenBabel10222420343D

 41 44  0  0  1  0  0  0  0  0999 V2000
  187.8060  177.7830  146.6960 C   0  0  0  0  0  0  0  0  0  0  0  0
  185.7730  177.9380  144.2540 C   0  0  0  0  0  0  0  0  0  0  0  0
  185.1570  178.7570  145.3140 C   0  0  0  0  0  3  0  0  0  0  0  0
  187.9030  177.3140  145.4550 C   0  0  0  0  0  3  0  0  0  0  0  0
  187.0000  177.3720  144.2860 C   0  0  0  0  0  0  0  0  0  0  0  0
  185.5420  179.0250  146.5550 C   0  0  0  0  0  3  0  0  0  0  0  0
  186.7200  178.5550  147.2020 N   0  0  0  0  0  2  0  0  0  0  0  0
  185.1670  179.1050  142.0380 C   0  0  2  0  0  3  0  0  0  0  0  0
  183.9260  179.0060  142.8940 C   0  0  2  0  0  3  0  0  0  0  0  0
  184.9660  177.8950  142.9690 C   0  0  2  0  0  3  0  0  0  0  0  0
  186.0010  180.0870  142.5780 O   0  0  0  0  0  1  0  0  0  0  0  0
  182.7640  178.5420  142.0390 C   0  0  0  0  0  2  0  0  0  0  0  0
  181.4530  179.0810  142.5900 C   0  0  0  0  0  2  0  0  0  0  0  0
  179.7190  177.8710  141.4750 O   0  0  0  0  0  1  0  0  0  0  0  0
  180.3690  179.1070  141.5190 C   0  0  2  0  0  3  0  0  0  0  0  0
  180.9380  179.4510  140.1450 C   0  0  0  0  0  2  0  0  0  0  0  0
  180.4180  180.7270  139.6670 N   0  0  0  0  0  0  0  0  0  0  0  0
  179.4380  181.0960  140.5240 O   0  0  0  0  0  1  0  0  0  0  0  0
  179.7780  180.4770  138.3860 C   0  0  0  0  0  2  0  0  0  0  0  0
  180.2630  181.4760  137.3430 C   0  0  0  0  0  2  0  0  0  0  0  0
  181.1720  183.8000  137.2380 C   0  0  0  0  0  1  0  0  0  0  0  0
  181.2620  182.4570  137.9370 C   0  0  0  0  0  2  0  0  0  0  0  0
  188.9470  177.5140  147.6120 C   0  0  0  0  0  2  0  0  0  0  0  0
  190.2090  177.2540  146.8100 C   0  0  0  0  0  2  0  0  0  0  0  0
  190.9070  176.1870  147.3720 O   0  0  0  0  0  1  0  0  0  0  0  0
  187.4680  176.7810  143.1000 O   0  0  0  0  0  0  0  0  0  0  0  0
  188.7910  176.9470  142.5940 C   0  0  0  0  0  2  0  0  0  0  0  0
  188.9220  178.2810  141.8700 C   0  0  0  0  0  2  0  0  0  0  0  0
  188.6710  178.1390  140.3730 C   0  0  0  0  0  2  0  0  0  0  0  0
  189.8030  177.3870  139.6900 C   0  0  0  0  0  2  0  0  0  0  0  0
  189.6090  177.3960  138.1870 C   0  0  0  0  0  2  0  0  0  0  0  0
  189.1880  176.0190  137.7200 C   0  0  0  0  0  2  0  0  0  0  0  0
  190.2780  175.1510  137.7990 O   0  0  0  0  0  0  0  0  0  0  0  0
  192.4680  175.4080  137.1130 N   0  0  0  0  0  0  0  0  0  0  0  0
  191.8670  174.4620  136.0790 C   0  0  2  0  0  0  0  0  0  0  0  0
  194.7960  175.2560  137.8100 O   0  0  0  0  0  0  0  0  0  0  0  0
  193.3880  176.8280  138.7060 O   0  0  0  0  0  1  0  0  0  0  0  0
  191.0740  175.4740  136.6800 C   0  0  1  0  0  3  0  0  0  0  0  0
  192.1330  173.2120  136.7200 O   0  0  0  0  0  0  0  0  0  0  0  0
  193.5530  175.8670  137.9090 C   0  0  0  0  0  0  0  0  0  0  0  0
  190.8810  173.3090  136.1860 C   0  0  0  0  0  2  0  0  0  0  0  0
  1  7  1  0  0  0  0
  1 23  1  0  0  0  0
  2  5  2  0  0  0  0
  2  3  1  0  0  0  0
  3  6  2  0  0  0  0
  4  1  2  0  0  0  0
  5  4  1  0  0  0  0
  6  7  1  0  0  0  0
  8 11  1  1  0  0  0
  8  9  1  0  0  0  0
  8 10  1  0  0  0  0
  9 12  1  6  0  0  0
  9 10  1  0  0  0  0
 10  2  1  1  0  0  0
 12 13  1  0  0  0  0
 15 14  1  6  0  0  0
 15 13  1  0  0  0  0
 16 15  1  0  0  0  0
 17 16  1  0  0  0  0
 17 18  1  0  0  0  0
 19 17  1  0  0  0  0
 20 22  1  0  0  0  0
 20 19  1  0  0  0  0
 21 22  1  0  0  0  0
 24 25  1  0  0  0  0
 24 23  1  0  0  0  0
 26  5  1  0  0  0  0
 27 26  1  0  0  0  0
 28 27  1  0  0  0  0
 29 28  1  0  0  0  0
 30 29  1  0  0  0  0
 31 30  1  0  0  0  0
 32 33  1  0  0  0  0
 32 31  1  0  0  0  0
 34 40  1  0  0  0  0
 35 41  1  6  0  0  0
 35 38  1  0  0  0  0
 35 39  1  0  0  0  0
 35 34  1  0  0  0  0
 36 40  2  0  0  0  0
 38 34  1  0  0  0  0
 38 33  1  1  0  0  0
 40 37  1  0  0  0  0
 41 39  1  0  0  0  0
M  END
>  <MODEL>
6

>  <REMARK>
 VINA RESULT:      -6.1      3.118      9.798
  Name = 
  20 active torsions:
  status: ('A' for Active; 'I' for Inactive)
    1  A    between atoms: C_1  and  C_22
    2  A    between atoms: C_1  and  O_28
    3  A    between atoms: C_4  and  C_12
    4  A    between atoms: C_4  and  C_22
    5  A    between atoms: C_5  and  C_12
    6  A    between atoms: C_5  and  C_25
    7  A    between atoms: C_6  and  C_30
    8  A    between atoms: C_7  and  C_14
    9  A    between atoms: C_7  and  C_40
   10  A    between atoms: C_9  and  C_30
   11  A    between atoms: C_10  and  C_18
   12  A    between atoms: C_11  and  N_34
   13  A    between atoms: C_11  and  C_40
   14  A    between atoms: C_14  and  C_17
   15  A    between atoms: O_16  and  C_25
   16  A    between atoms: O_16  and  C_27
   17  A    between atoms: C_20  and  O_28
   18  A    between atoms: C_26  and  C_35
   19  A    between atoms: C_26  and  C_39
   20  A    between atoms: N_34  and  C_39
                            x       y       z     vdW  Elec       q    Type
                         _______ _______ _______ _____ _____    ______ ____

>  <TORSDO>
F 20

$$$$
=
 OpenBabel10222420343D

 41 44  0  0  1  0  0  0  0  0999 V2000
  187.9060  177.6980  146.7550 C   0  0  0  0  0  0  0  0  0  0  0  0
  185.8170  177.9350  144.3670 C   0  0  0  0  0  0  0  0  0  0  0  0
  185.2650  178.7820  145.4400 C   0  0  0  0  0  3  0  0  0  0  0  0
  187.9500  177.2230  145.5140 C   0  0  0  0  0  3  0  0  0  0  0  0
  187.0200  177.3180  144.3680 C   0  0  0  0  0  0  0  0  0  0  0  0
  185.6930  179.0350  146.6700 C   0  0  0  0  0  3  0  0  0  0  0  0
  186.8660  178.5170  147.2870 N   0  0  0  0  0  2  0  0  0  0  0  0
  185.1770  179.1400  142.1810 C   0  0  2  0  0  3  0  0  0  0  0  0
  183.9580  179.0570  143.0690 C   0  0  2  0  0  3  0  0  0  0  0  0
  184.9760  177.9240  143.1030 C   0  0  2  0  0  3  0  0  0  0  0  0
  186.0450  180.0990  142.7100 O   0  0  0  0  0  1  0  0  0  0  0  0
  182.7640  178.6270  142.2390 C   0  0  0  0  0  2  0  0  0  0  0  0
  181.4760  179.1550  142.8530 C   0  0  0  0  0  2  0  0  0  0  0  0
  179.6340  177.9850  141.8760 O   0  0  0  0  0  1  0  0  0  0  0  0
  180.3460  179.1870  141.8310 C   0  0  2  0  0  3  0  0  0  0  0  0
  180.8670  179.4360  140.4180 C   0  0  0  0  0  2  0  0  0  0  0  0
  180.4030  180.7210  139.9080 N   0  0  0  0  0  0  0  0  0  0  0  0
  179.5160  181.2040  140.8100 O   0  0  0  0  0  1  0  0  0  0  0  0
  179.6550  180.4550  138.6900 C   0  0  0  0  0  2  0  0  0  0  0  0
  180.1970  181.2910  137.5380 C   0  0  0  0  0  2  0  0  0  0  0  0
  181.1210  183.5900  137.2180 C   0  0  0  0  0  1  0  0  0  0  0  0
  181.2190  182.3080  138.0230 C   0  0  0  0  0  2  0  0  0  0  0  0
  189.0580  177.3830  147.6420 C   0  0  0  0  0  2  0  0  0  0  0  0
  190.2320  176.8910  146.8150 C   0  0  0  0  0  2  0  0  0  0  0  0
  191.4180  177.1160  147.5110 O   0  0  0  0  0  1  0  0  0  0  0  0
  187.4310  176.7050  143.1720 O   0  0  0  0  0  0  0  0  0  0  0  0
  188.7380  176.8360  142.6170 C   0  0  0  0  0  2  0  0  0  0  0  0
  188.9220  178.2200  142.0060 C   0  0  0  0  0  2  0  0  0  0  0  0
  188.4570  178.2630  140.5540 C   0  0  0  0  0  2  0  0  0  0  0  0
  189.5750  177.8640  139.6030 C   0  0  0  0  0  2  0  0  0  0  0  0
  189.2100  178.2330  138.1780 C   0  0  0  0  0  2  0  0  0  0  0  0
  187.7090  178.1440  137.9980 C   0  0  0  0  0  2  0  0  0  0  0  0
  187.3350  176.8030  137.8950 O   0  0  0  0  0  0  0  0  0  0  0  0
  188.4060  175.1560  136.6810 N   0  0  0  0  0  0  0  0  0  0  0  0
  187.0620  175.3150  135.9790 C   0  0  2  0  0  0  0  0  0  0  0  0
  189.5460  173.0090  136.8260 O   0  0  0  0  0  0  0  0  0  0  0  0
  190.4430  174.8960  137.7700 O   0  0  0  0  0  1  0  0  0  0  0  0
  187.6990  176.4300  136.5840 C   0  0  1  0  0  3  0  0  0  0  0  0
  186.2920  174.3710  136.7270 O   0  0  0  0  0  0  0  0  0  0  0  0
  189.5060  174.3660  137.1170 C   0  0  0  0  0  0  0  0  0  0  0  0
  185.6510  175.5530  136.4940 C   0  0  0  0  0  2  0  0  0  0  0  0
  1  7  1  0  0  0  0
  1 23  1  0  0  0  0
  2  5  2  0  0  0  0
  2  3  1  0  0  0  0
  3  6  2  0  0  0  0
  4  1  2  0  0  0  0
  5  4  1  0  0  0  0
  6  7  1  0  0  0  0
  8 11  1  1  0  0  0
  8  9  1  0  0  0  0
  8 10  1  0  0  0  0
  9 12  1  6  0  0  0
  9 10  1  0  0  0  0
 10  2  1  1  0  0  0
 12 13  1  0  0  0  0
 15 14  1  6  0  0  0
 15 13  1  0  0  0  0
 16 15  1  0  0  0  0
 17 16  1  0  0  0  0
 17 18  1  0  0  0  0
 19 17  1  0  0  0  0
 20 22  1  0  0  0  0
 20 19  1  0  0  0  0
 21 22  1  0  0  0  0
 24 25  1  0  0  0  0
 24 23  1  0  0  0  0
 26  5  1  0  0  0  0
 27 26  1  0  0  0  0
 28 27  1  0  0  0  0
 29 28  1  0  0  0  0
 30 29  1  0  0  0  0
 31 30  1  0  0  0  0
 32 31  1  0  0  0  0
 33 32  1  0  0  0  0
 34 40  1  0  0  0  0
 35 41  1  6  0  0  0
 35 38  1  0  0  0  0
 35 34  1  0  0  0  0
 35 39  1  0  0  0  0
 36 40  2  0  0  0  0
 38 34  1  0  0  0  0
 38 33  1  1  0  0  0
 40 37  1  0  0  0  0
 41 39  1  0  0  0  0
M  END
>  <MODEL>
7

>  <REMARK>
 VINA RESULT:      -6.1      2.515      8.836
  Name = 
  20 active torsions:
  status: ('A' for Active; 'I' for Inactive)
    1  A    between atoms: C_1  and  C_22
    2  A    between atoms: C_1  and  O_28
    3  A    between atoms: C_4  and  C_12
    4  A    between atoms: C_4  and  C_22
    5  A    between atoms: C_5  and  C_12
    6  A    between atoms: C_5  and  C_25
    7  A    between atoms: C_6  and  C_30
    8  A    between atoms: C_7  and  C_14
    9  A    between atoms: C_7  and  C_40
   10  A    between atoms: C_9  and  C_30
   11  A    between atoms: C_10  and  C_18
   12  A    between atoms: C_11  and  N_34
   13  A    between atoms: C_11  and  C_40
   14  A    between atoms: C_14  and  C_17
   15  A    between atoms: O_16  and  C_25
   16  A    between atoms: O_16  and  C_27
   17  A    between atoms: C_20  and  O_28
   18  A    between atoms: C_26  and  C_35
   19  A    between atoms: C_26  and  C_39
   20  A    between atoms: N_34  and  C_39
                            x       y       z     vdW  Elec       q    Type
                         _______ _______ _______ _____ _____    ______ ____

>  <TORSDO>
F 20

$$$$
=
 OpenBabel10222420343D

 41 44  0  0  1  0  0  0  0  0999 V2000
  186.7380  178.1650  146.7300 C   0  0  0  0  0  0  0  0  0  0  0  0
  185.3070  178.0230  143.8920 C   0  0  0  0  0  0  0  0  0  0  0  0
  184.3360  178.6950  144.7740 C   0  0  0  0  0  3  0  0  0  0  0  0
  187.1900  177.7520  145.5490 C   0  0  0  0  0  3  0  0  0  0  0  0
  186.5760  177.6800  144.2070 C   0  0  0  0  0  0  0  0  0  0  0  0
  184.3790  178.9940  146.0650 C   0  0  0  0  0  3  0  0  0  0  0  0
  185.4470  178.7220  146.9670 N   0  0  0  0  0  2  0  0  0  0  0  0
  185.1540  179.0620  141.5390 C   0  0  2  0  0  3  0  0  0  0  0  0
  183.7580  178.8910  142.0900 C   0  0  2  0  0  3  0  0  0  0  0  0
  184.8290  177.8720  142.4580 C   0  0  2  0  0  3  0  0  0  0  0  0
  185.7660  180.1270  142.2060 O   0  0  0  0  0  1  0  0  0  0  0  0
  182.8650  178.3050  141.0140 C   0  0  0  0  0  2  0  0  0  0  0  0
  181.4050  178.4010  141.4290 C   0  0  0  0  0  2  0  0  0  0  0  0
  179.3920  177.1290  141.2100 O   0  0  0  0  0  1  0  0  0  0  0  0
  180.5090  177.5850  140.5040 C   0  0  2  0  0  3  0  0  0  0  0  0
  181.2570  176.4060  139.8860 C   0  0  0  0  0  2  0  0  0  0  0  0
  180.4590  175.7660  138.8480 N   0  0  0  0  0  0  0  0  0  0  0  0
  181.2370  174.8110  138.2880 O   0  0  0  0  0  1  0  0  0  0  0  0
  180.2170  176.7630  137.8170 C   0  0  0  0  0  2  0  0  0  0  0  0
  181.1870  176.5770  136.6570 C   0  0  0  0  0  2  0  0  0  0  0  0
  183.4550  177.5040  137.1410 C   0  0  0  0  0  1  0  0  0  0  0  0
  182.1060  177.7790  136.5050 C   0  0  0  0  0  2  0  0  0  0  0  0
  187.6740  178.0770  147.8820 C   0  0  0  0  0  2  0  0  0  0  0  0
  188.7720  177.0720  147.5870 C   0  0  0  0  0  2  0  0  0  0  0  0
  190.0090  177.6220  147.9160 O   0  0  0  0  0  1  0  0  0  0  0  0
  187.3940  177.2110  143.1650 O   0  0  0  0  0  0  0  0  0  0  0  0
  188.6950  177.7200  142.8810 C   0  0  0  0  0  2  0  0  0  0  0  0
  189.7000  176.5810  142.7560 C   0  0  0  0  0  2  0  0  0  0  0  0
  191.1330  177.0970  142.6840 C   0  0  0  0  0  2  0  0  0  0  0  0
  191.5060  177.4990  141.2660 C   0  0  0  0  0  2  0  0  0  0  0  0
  190.6450  176.7530  140.2650 C   0  0  0  0  0  2  0  0  0  0  0  0
  191.4430  176.4850  139.0070 C   0  0  0  0  0  2  0  0  0  0  0  0
  190.8050  177.0830  137.9180 O   0  0  0  0  0  0  0  0  0  0  0  0
  188.5180  177.2720  137.6640 N   0  0  0  0  0  0  0  0  0  0  0  0
  188.9480  176.3980  136.4910 C   0  0  2  0  0  0  0  0  0  0  0  0
  186.6620  178.8400  137.5000 O   0  0  0  0  0  0  0  0  0  0  0  0
  187.8690  178.6260  139.4370 O   0  0  0  0  0  1  0  0  0  0  0  0
  189.6290  176.3260  137.7340 C   0  0  1  0  0  3  0  0  0  0  0  0
  189.2170  177.4160  135.5240 O   0  0  0  0  0  0  0  0  0  0  0  0
  187.6830  178.2650  138.2460 C   0  0  0  0  0  0  0  0  0  0  0  0
  190.1580  176.4290  135.5700 C   0  0  0  0  0  2  0  0  0  0  0  0
  1  7  1  0  0  0  0
  1 23  1  0  0  0  0
  2  5  2  0  0  0  0
  2  3  1  0  0  0  0
  3  6  2  0  0  0  0
  4  1  2  0  0  0  0
  5  4  1  0  0  0  0
  6  7  1  0  0  0  0
  8  9  1  0  0  0  0
  8 11  1  1  0  0  0
  8 10  1  0  0  0  0
  9 12  1  6  0  0  0
  9 10  1  0  0  0  0
 10  2  1  1  0  0  0
 12 13  1  0  0  0  0
 15 14  1  1  0  0  0
 15 13  1  0  0  0  0
 16 15  1  0  0  0  0
 17 16  1  0  0  0  0
 18 17  1  0  0  0  0
 19 17  1  0  0  0  0
 20 19  1  0  0  0  0
 22 20  1  0  0  0  0
 22 21  1  0  0  0  0
 24 23  1  0  0  0  0
 24 25  1  0  0  0  0
 26  5  1  0  0  0  0
 27 26  1  0  0  0  0
 28 27  1  0  0  0  0
 29 28  1  0  0  0  0
 30 29  1  0  0  0  0
 31 30  1  0  0  0  0
 32 31  1  0  0  0  0
 33 32  1  0  0  0  0
 34 38  1  0  0  0  0
 34 40  1  0  0  0  0
 35 41  1  6  0  0  0
 35 34  1  0  0  0  0
 35 38  1  0  0  0  0
 36 40  2  0  0  0  0
 38 33  1  6  0  0  0
 39 41  1  0  0  0  0
 39 35  1  0  0  0  0
 40 37  1  0  0  0  0
M  END
>  <MODEL>
8

>  <REMARK>
 VINA RESULT:      -6.0      2.062      9.168
  Name = 
  20 active torsions:
  status: ('A' for Active; 'I' for Inactive)
    1  A    between atoms: C_1  and  C_22
    2  A    between atoms: C_1  and  O_28
    3  A    between atoms: C_4  and  C_12
    4  A    between atoms: C_4  and  C_22
    5  A    between atoms: C_5  and  C_12
    6  A    between atoms: C_5  and  C_25
    7  A    between atoms: C_6  and  C_30
    8  A    between atoms: C_7  and  C_14
    9  A    between atoms: C_7  and  C_40
   10  A    between atoms: C_9  and  C_30
   11  A    between atoms: C_10  and  C_18
   12  A    between atoms: C_11  and  N_34
   13  A    between atoms: C_11  and  C_40
   14  A    between atoms: C_14  and  C_17
   15  A    between atoms: O_16  and  C_25
   16  A    between atoms: O_16  and  C_27
   17  A    between atoms: C_20  and  O_28
   18  A    between atoms: C_26  and  C_35
   19  A    between atoms: C_26  and  C_39
   20  A    between atoms: N_34  and  C_39
                            x       y       z     vdW  Elec       q    Type
                         _______ _______ _______ _____ _____    ______ ____

>  <TORSDO>
F 20

$$$$
=
 OpenBabel10222420343D

 41 44  0  0  1  0  0  0  0  0999 V2000
  191.6520  175.4820  137.9680 C   0  0  0  0  0  0  0  0  0  0  0  0
  188.5170  175.5170  137.4280 C   0  0  0  0  0  0  0  0  0  0  0  0
  188.9830  174.2310  136.8780 C   0  0  0  0  0  3  0  0  0  0  0  0
  190.7170  176.3510  138.3400 C   0  0  0  0  0  2  0  0  0  0  0  0
  189.2550  176.4050  138.1310 C   0  0  0  0  0  0  0  0  0  0  0  0
  190.1940  173.6960  136.7950 C   0  0  0  0  0  3  0  0  0  0  0  0
  191.4130  174.2730  137.2510 N   0  0  0  0  0  0  0  0  0  0  0  0
  186.5510  176.1940  135.9060 C   0  0  2  0  0  3  0  0  0  0  0  0
  186.6590  177.1880  137.0380 C   0  0  2  0  0  3  0  0  0  0  0  0
  187.0190  175.7310  137.2970 C   0  0  2  0  0  3  0  0  0  0  0  0
  187.6030  176.4230  135.0150 O   0  0  0  0  0  1  0  0  0  0  0  0
  185.2750  177.4630  137.5940 C   0  0  0  0  0  2  0  0  0  0  0  0
  185.1960  178.8820  138.1370 C   0  0  0  0  0  2  0  0  0  0  0  0
  183.3770  180.1760  138.9930 O   0  0  0  0  0  1  0  0  0  0  0  0
  184.1160  179.0090  139.2050 C   0  0  2  0  0  3  0  0  0  0  0  0
  184.7080  179.0110  140.6130 C   0  0  0  0  0  2  0  0  0  0  0  0
  183.9840  178.0950  141.4860 N   0  0  0  0  0  0  0  0  0  0  0  0
  182.6790  178.1630  141.1310 O   0  0  0  0  0  1  0  0  0  0  0  0
  184.0750  178.6280  142.8360 C   0  0  0  0  0  2  0  0  0  0  0  0
  185.4160  178.2670  143.4630 C   0  0  0  0  0  2  0  0  0  0  0  0
  184.0180  178.8600  145.4460 C   0  0  0  0  0  1  0  0  0  0  0  0
  185.4160  178.5290  144.9610 C   0  0  0  0  0  2  0  0  0  0  0  0
  193.0520  175.7780  138.3750 C   0  0  0  0  0  2  0  0  0  0  0  0
  194.0210  175.2230  137.3470 C   0  0  0  0  0  2  0  0  0  0  0  0
  194.9630  174.4170  137.9830 O   0  0  0  0  0  1  0  0  0  0  0  0
  188.5740  177.4850  138.7190 O   0  0  0  0  0  0  0  0  0  0  0  0
  189.1870  178.4390  139.5820 C   0  0  0  0  0  2  0  0  0  0  0  0
  188.7040  178.2530  141.0150 C   0  0  0  0  0  2  0  0  0  0  0  0
  189.4610  177.1360  141.7260 C   0  0  0  0  0  2  0  0  0  0  0  0
  190.6070  177.6870  142.5600 C   0  0  0  0  0  2  0  0  0  0  0  0
  190.0690  178.3990  143.7860 C   0  0  0  0  0  2  0  0  0  0  0  0
  188.9670  177.5700  144.4120 C   0  0  0  0  0  2  0  0  0  0  0  0
  188.7090  178.0430  145.7000 O   0  0  0  0  0  0  0  0  0  0  0  0
  190.0720  176.8010  147.0900 N   0  0  0  0  0  0  0  0  0  0  0  0
  188.8180  177.0410  147.9230 C   0  0  2  0  0  0  0  0  0  0  0  0
  192.2870  176.6650  148.0920 O   0  0  0  0  0  1  0  0  0  0  0  0
  191.9930  176.4600  145.8280 O   0  0  0  0  0  0  0  0  0  0  0  0
  188.7320  176.8910  146.5140 C   0  0  1  0  0  3  0  0  0  0  0  0
  189.1800  178.2760  148.5440 O   0  0  0  0  0  0  0  0  0  0  0  0
  191.4790  176.6340  146.9630 C   0  0  0  0  0  0  0  0  0  0  0  0
  187.8980  178.2410  148.0800 C   0  0  0  0  0  2  0  0  0  0  0  0
  1  4  1  0  0  0  0
  1 23  1  0  0  0  0
  2  5  2  0  0  0  0
  3  2  1  0  0  0  0
  5  4  1  0  0  0  0
  5 26  1  0  0  0  0
  6  3  2  0  0  0  0
  6  7  1  0  0  0  0
  7  1  2  0  0  0  0
  8 11  1  6  0  0  0
  8  9  1  0  0  0  0
  8 10  1  0  0  0  0
  9 10  1  0  0  0  0
  9 12  1  1  0  0  0
 10  2  1  6  0  0  0
 12 13  1  0  0  0  0
 13 15  1  0  0  0  0
 15 14  1  6  0  0  0
 15 16  1  0  0  0  0
 16 17  1  0  0  0  0
 17 19  1  0  0  0  0
 18 17  1  0  0  0  0
 19 20  1  0  0  0  0
 20 22  1  0  0  0  0
 22 21  1  0  0  0  0
 24 25  1  0  0  0  0
 24 23  1  0  0  0  0
 26 27  1  0  0  0  0
 27 28  1  0  0  0  0
 28 29  1  0  0  0  0
 29 30  1  0  0  0  0
 30 31  1  0  0  0  0
 31 32  1  0  0  0  0
 32 33  1  0  0  0  0
 34 35  1  0  0  0  0
 35 41  1  1  0  0  0
 35 39  1  0  0  0  0
 37 40  2  0  0  0  0
 38 33  1  6  0  0  0
 38 34  1  0  0  0  0
 38 35  1  0  0  0  0
 40 34  1  0  0  0  0
 40 36  1  0  0  0  0
 41 39  1  0  0  0  0
M  END
>  <MODEL>
9

>  <REMARK>
 VINA RESULT:      -6.0      2.515      8.368
  Name = 
  20 active torsions:
  status: ('A' for Active; 'I' for Inactive)
    1  A    between atoms: C_1  and  C_22
    2  A    between atoms: C_1  and  O_28
    3  A    between atoms: C_4  and  C_12
    4  A    between atoms: C_4  and  C_22
    5  A    between atoms: C_5  and  C_12
    6  A    between atoms: C_5  and  C_25
    7  A    between atoms: C_6  and  C_30
    8  A    between atoms: C_7  and  C_14
    9  A    between atoms: C_7  and  C_40
   10  A    between atoms: C_9  and  C_30
   11  A    between atoms: C_10  and  C_18
   12  A    between atoms: C_11  and  N_34
   13  A    between atoms: C_11  and  C_40
   14  A    between atoms: C_14  and  C_17
   15  A    between atoms: O_16  and  C_25
   16  A    between atoms: O_16  and  C_27
   17  A    between atoms: C_20  and  O_28
   18  A    between atoms: C_26  and  C_35
   19  A    between atoms: C_26  and  C_39
   20  A    between atoms: N_34  and  C_39
                            x       y       z     vdW  Elec       q    Type
                         _______ _______ _______ _____ _____    ______ ____

>  <TORSDO>
F 20

$$$$
