=
 OpenBabel10222421033D

 38 42  0  0  1  0  0  0  0  0999 V2000
  180.2000  171.9130  138.1740 C   0  0  0  0  0  3  0  0  0  0  0  0
  183.2540  177.5350  137.8970 N   0  0  0  0  0  0  0  0  0  0  0  0
  180.0850  173.0340  138.8110 N   0  0  0  0  0  0  0  0  0  0  0  0
  180.3360  172.1240  136.7370 C   0  0  0  0  0  2  0  0  0  0  0  0
  179.9920  177.9590  141.8710 C   0  0  0  0  0  0  0  0  0  0  0  0
  180.2450  173.4290  136.5670 C   0  0  2  0  0  3  0  0  0  0  0  0
  182.5760  176.3670  139.9290 C   0  0  0  0  0  2  0  0  0  0  0  0
  180.7670  174.1110  135.4360 N   0  0  0  0  0  0  0  0  0  0  0  0
  182.8120  176.7500  136.9610 C   0  0  0  0  0  3  0  0  0  0  0  0
  179.9530  176.9280  141.0810 C   0  0  0  0  0  0  0  0  0  0  0  0
  181.3080  179.5600  140.4460 C   0  0  0  0  0  2  0  0  0  0  0  0
  180.0180  175.9630  140.2130 C   0  0  0  0  0  3  0  0  0  0  0  0
  180.0460  174.1310  137.8540 C   0  0  2  0  0  3  0  0  0  0  0  0
  181.7340  175.7360  136.9890 C   0  0  0  0  0  0  0  0  0  0  0  0
  181.4460  175.2030  135.6260 C   0  0  0  0  0  3  0  0  0  0  0  0
  182.8140  177.7430  139.2710 C   0  0  2  0  0  0  0  0  0  0  0  0
  181.3060  175.6170  139.5100 C   0  0  1  0  0  3  0  0  0  0  0  0
  181.5340  178.6140  139.2470 C   0  0  0  0  0  2  0  0  0  0  0  0
  181.1260  175.1770  138.0790 C   0  0  0  0  0  0  0  0  0  0  0  0
  181.1950  178.8500  141.7980 C   0  0  0  0  0  2  0  0  0  0  0  0
  184.1350  178.3890  141.2730 C   0  0  0  0  0  0  0  0  0  0  0  0
  183.9500  178.4940  139.9770 C   0  0  0  0  0  0  0  0  0  0  0  0
  184.3250  178.2840  142.5630 C   0  0  0  0  0  3  0  0  0  0  0  0
  185.6400  177.9800  143.1460 C   0  0  0  0  0  0  0  0  0  0  0  0
  186.7870  177.8360  142.3500 C   0  0  0  0  0  3  0  0  0  0  0  0
  185.7410  177.8220  144.5330 C   0  0  0  0  0  3  0  0  0  0  0  0
  186.9750  177.5290  145.1230 C   0  0  0  0  0  3  0  0  0  0  0  0
  188.0200  177.5430  142.9380 C   0  0  0  0  0  3  0  0  0  0  0  0
  188.1160  177.3850  144.3240 C   0  0  0  0  0  0  0  0  0  0  0  0
  189.4360  177.0940  144.9540 C   0  0  0  0  0  2  0  0  0  0  0  0
  191.7470  176.8280  144.4020 O   0  0  0  0  0  1  0  0  0  0  0  0
  190.8050  178.9920  144.1500 C   0  0  0  0  0  1  0  0  0  0  0  0
  190.5790  177.5000  144.0370 C   0  0  2  0  0  3  0  0  0  0  0  0
  184.4600  180.5130  138.8130 O   0  0  0  0  0  0  0  0  0  0  0  0
  186.1560  178.9880  138.9170 O   0  0  0  0  0  1  0  0  0  0  0  0
  184.8570  179.3840  139.2100 C   0  0  0  0  0  0  0  0  0  0  0  0
  179.0400  179.1270  143.8190 C   0  0  0  0  0  1  0  0  0  0  0  0
  178.9310  178.2080  142.7430 O   0  0  0  0  0  0  0  0  0  0  0  0
  1  3  2  0  0  0  0
  2 16  1  0  0  0  0
  4  1  1  0  0  0  0
  5 38  1  0  0  0  0
  6  4  1  1  0  0  0
  6 13  1  0  0  0  0
  8 15  2  0  0  0  0
  8  6  1  0  0  0  0
  9 14  1  0  0  0  0
  9  2  2  0  0  0  0
 10  5  2  0  0  0  0
 11 20  1  0  0  0  0
 12 10  2  0  0  0  0
 13 19  1  1  0  0  0
 13  3  1  0  0  0  0
 14 19  2  0  0  0  0
 15 14  1  0  0  0  0
 16  7  1  0  0  0  0
 16 22  1  1  0  0  0
 17  7  1  6  0  0  0
 17 12  1  0  0  0  0
 18 16  1  0  0  0  0
 18 11  1  0  0  0  0
 19 17  1  0  0  0  0
 20  5  1  0  0  0  0
 21 23  2  0  0  0  0
 22 21  2  0  0  0  0
 23 24  1  0  0  0  0
 24 26  1  0  0  0  0
 25 28  1  0  0  0  0
 25 24  2  0  0  0  0
 26 27  2  0  0  0  0
 28 29  2  0  0  0  0
 29 30  1  0  0  0  0
 29 27  1  0  0  0  0
 33 32  1  1  0  0  0
 33 31  1  0  0  0  0
 33 30  1  0  0  0  0
 34 36  2  0  0  0  0
 35 36  1  0  0  0  0
 36 22  1  0  0  0  0
 38 37  1  0  0  0  0
M  END
>  <MODEL>
1

>  <REMARK>
 VINA RESULT:      -8.4      0.000      0.000
  Name = 
  6 active torsions:
  status: ('A' for Active; 'I' for Inactive)
    1  A    between atoms: C_3  and  C_36
    2  A    between atoms: C_11  and  O_38
    3  A    between atoms: C_12  and  C_24
    4  A    between atoms: C_12  and  C_30
    5  A    between atoms: C_21  and  C_25
    6  A    between atoms: C_25  and  C_32
                            x       y       z     vdW  Elec       q    Type
                         _______ _______ _______ _____ _____    ______ ____

>  <TORSDO>
F 6

$$$$
=
 OpenBabel10222421033D

 38 42  0  0  1  0  0  0  0  0999 V2000
  181.5420  183.5570  135.3220 C   0  0  0  0  0  3  0  0  0  0  0  0
  179.8720  180.8450  140.8770 N   0  0  0  0  0  0  0  0  0  0  0  0
  181.1620  182.3680  135.6680 N   0  0  0  0  0  0  0  0  0  0  0  0
  180.7060  184.5850  135.9330 C   0  0  0  0  0  2  0  0  0  0  0  0
  179.8850  176.9970  137.4420 C   0  0  0  0  0  0  0  0  0  0  0  0
  179.7880  183.9270  136.6150 C   0  0  2  0  0  3  0  0  0  0  0  0
  181.2800  179.8430  139.1560 C   0  0  0  0  0  2  0  0  0  0  0  0
  179.0700  184.4860  137.7050 N   0  0  0  0  0  0  0  0  0  0  0  0
  179.5590  181.9910  140.3530 C   0  0  0  0  0  3  0  0  0  0  0  0
  180.0360  178.2310  137.0640 C   0  0  0  0  0  0  0  0  0  0  0  0
  178.9310  177.3510  139.7420 C   0  0  0  0  0  2  0  0  0  0  0  0
  180.1650  179.5030  136.8260 C   0  0  0  0  0  3  0  0  0  0  0  0
  179.9650  182.4640  136.4900 C   0  0  2  0  0  3  0  0  0  0  0  0
  179.5370  182.4240  138.9380 C   0  0  0  0  0  0  0  0  0  0  0  0
  178.9310  183.7790  138.7870 C   0  0  0  0  0  3  0  0  0  0  0  0
  180.2470  179.5740  140.2700 C   0  0  2  0  0  0  0  0  0  0  0  0
  180.7430  180.4440  137.8520 C   0  0  1  0  0  3  0  0  0  0  0  0
  178.9640  178.8940  139.7310 C   0  0  0  0  0  2  0  0  0  0  0  0
  180.1080  181.8120  137.8570 C   0  0  0  0  0  0  0  0  0  0  0  0
  180.0290  176.6910  138.9020 C   0  0  0  0  0  2  0  0  0  0  0  0
  182.1290  178.3790  141.3660 C   0  0  0  0  0  0  0  0  0  0  0  0
  180.8620  178.7260  141.3910 C   0  0  0  0  0  0  0  0  0  0  0  0
  183.3900  178.0350  141.3470 C   0  0  0  0  0  3  0  0  0  0  0  0
  184.2790  178.2280  142.5010 C   0  0  0  0  0  0  0  0  0  0  0  0
  185.6530  177.9530  142.4320 C   0  0  0  0  0  3  0  0  0  0  0  0
  183.7300  178.6920  143.7030 C   0  0  0  0  0  3  0  0  0  0  0  0
  184.5440  178.8850  144.8240 C   0  0  0  0  0  3  0  0  0  0  0  0
  186.4680  178.1450  143.5520 C   0  0  0  0  0  3  0  0  0  0  0  0
  185.9140  178.6070  144.7500 C   0  0  0  0  0  0  0  0  0  0  0  0
  186.7870  178.8320  145.9390 C   0  0  0  0  0  2  0  0  0  0  0  0
  187.4350  177.6410  147.9070 O   0  0  0  0  0  1  0  0  0  0  0  0
  188.5670  177.1150  145.8890 C   0  0  0  0  0  1  0  0  0  0  0  0
  187.2550  177.5120  146.5290 C   0  0  2  0  0  3  0  0  0  0  0  0
  180.0850  177.0530  142.9040 O   0  0  0  0  0  0  0  0  0  0  0  0
  179.1700  179.1260  143.1820 O   0  0  0  0  0  1  0  0  0  0  0  0
  180.0270  178.2530  142.5230 C   0  0  0  0  0  0  0  0  0  0  0  0
  180.2490  174.7530  136.4930 C   0  0  0  0  0  1  0  0  0  0  0  0
  179.5920  176.0120  136.4980 O   0  0  0  0  0  0  0  0  0  0  0  0
  1  3  2  0  0  0  0
  1  4  1  0  0  0  0
  5 20  1  0  0  0  0
  6  4  1  1  0  0  0
  6  8  1  0  0  0  0
  7 16  1  0  0  0  0
  8 15  2  0  0  0  0
  9  2  2  0  0  0  0
 10  5  2  0  0  0  0
 12 10  2  0  0  0  0
 13  3  1  6  0  0  0
 13  6  1  0  0  0  0
 13 19  1  0  0  0  0
 14  9  1  0  0  0  0
 15 14  1  0  0  0  0
 16  2  1  0  0  0  0
 16 22  1  1  0  0  0
 17 12  1  1  0  0  0
 17 19  1  0  0  0  0
 17  7  1  0  0  0  0
 18 11  1  0  0  0  0
 18 16  1  0  0  0  0
 19 14  2  0  0  0  0
 20 11  1  0  0  0  0
 21 22  2  0  0  0  0
 22 36  1  0  0  0  0
 23 21  2  0  0  0  0
 23 24  1  0  0  0  0
 24 26  1  0  0  0  0
 25 24  2  0  0  0  0
 25 28  1  0  0  0  0
 26 27  2  0  0  0  0
 28 29  2  0  0  0  0
 29 27  1  0  0  0  0
 29 30  1  0  0  0  0
 30 33  1  0  0  0  0
 33 32  1  6  0  0  0
 33 31  1  0  0  0  0
 36 34  2  0  0  0  0
 36 35  1  0  0  0  0
 37 38  1  0  0  0  0
 38  5  1  0  0  0  0
M  END
>  <MODEL>
2

>  <REMARK>
 VINA RESULT:      -6.4      3.542      6.278
  Name = 
  6 active torsions:
  status: ('A' for Active; 'I' for Inactive)
    1  A    between atoms: C_3  and  C_36
    2  A    between atoms: C_11  and  O_38
    3  A    between atoms: C_12  and  C_24
    4  A    between atoms: C_12  and  C_30
    5  A    between atoms: C_21  and  C_25
    6  A    between atoms: C_25  and  C_32
                            x       y       z     vdW  Elec       q    Type
                         _______ _______ _______ _____ _____    ______ ____

>  <TORSDO>
F 6

$$$$
=
 OpenBabel10222421033D

 38 42  0  0  1  0  0  0  0  0999 V2000
  186.8030  177.0270  144.9070 C   0  0  0  0  0  3  0  0  0  0  0  0
  181.5030  178.5150  141.6360 N   0  0  0  0  0  0  0  0  0  0  0  0
  186.5720  177.4330  143.6990 N   0  0  0  0  0  0  0  0  0  0  0  0
  186.0370  177.7930  145.8850 C   0  0  0  0  0  2  0  0  0  0  0  0
  185.3410  178.8170  138.2040 C   0  0  0  0  0  0  0  0  0  0  0  0
  185.3840  178.6990  145.1830 C   0  0  2  0  0  3  0  0  0  0  0  0
  183.3980  177.2330  140.7930 C   0  0  0  0  0  2  0  0  0  0  0  0
  184.2010  179.3400  145.6370 N   0  0  0  0  0  0  0  0  0  0  0  0
  181.8780  178.8110  142.8440 C   0  0  0  0  0  3  0  0  0  0  0  0
  185.5870  178.6400  139.4680 C   0  0  0  0  0  0  0  0  0  0  0  0
  182.9680  179.6400  138.3250 C   0  0  0  0  0  2  0  0  0  0  0  0
  185.6880  178.4750  140.7530 C   0  0  0  0  0  3  0  0  0  0  0  0
  185.6810  178.5830  143.7380 C   0  0  2  0  0  3  0  0  0  0  0  0
  183.2330  178.8890  143.4350 C   0  0  0  0  0  0  0  0  0  0  0  0
  183.1990  179.4510  144.8160 C   0  0  0  0  0  3  0  0  0  0  0  0
  182.2670  178.2190  140.4320 C   0  0  2  0  0  0  0  0  0  0  0  0
  184.5960  177.8120  141.5540 C   0  0  1  0  0  3  0  0  0  0  0  0
  182.8080  179.5510  139.8570 C   0  0  0  0  0  2  0  0  0  0  0  0
  184.4050  178.3950  142.9320 C   0  0  0  0  0  0  0  0  0  0  0  0
  183.9340  178.6110  137.7300 C   0  0  0  0  0  2  0  0  0  0  0  0
  181.6890  176.7260  138.5320 C   0  0  0  0  0  0  0  0  0  0  0  0
  181.2830  177.5790  139.4440 C   0  0  0  0  0  0  0  0  0  0  0  0
  182.0900  175.8730  137.6250 C   0  0  0  0  0  3  0  0  0  0  0  0
  181.4360  174.5730  137.4200 C   0  0  0  0  0  0  0  0  0  0  0  0
  182.1620  173.4290  137.0530 C   0  0  0  0  0  3  0  0  0  0  0  0
  180.0490  174.4830  137.5900 C   0  0  0  0  0  3  0  0  0  0  0  0
  179.3920  173.2630  137.4010 C   0  0  0  0  0  3  0  0  0  0  0  0
  181.5060  172.2100  136.8620 C   0  0  0  0  0  3  0  0  0  0  0  0
  180.1200  172.1250  137.0320 C   0  0  0  0  0  0  0  0  0  0  0  0
  179.4230  170.8190  136.8510 C   0  0  0  0  0  2  0  0  0  0  0  0
  180.4100  169.8410  134.9050 O   0  0  0  0  0  1  0  0  0  0  0  0
  179.0560  171.7650  134.5940 C   0  0  0  0  0  1  0  0  0  0  0  0
  179.2650  170.4870  135.3750 C   0  0  2  0  0  3  0  0  0  0  0  0
  178.9870  177.0980  139.8810 O   0  0  0  0  0  1  0  0  0  0  0  0
  179.4130  179.1910  139.0740 O   0  0  0  0  0  0  0  0  0  0  0  0
  179.8420  177.9340  139.4800 C   0  0  0  0  0  0  0  0  0  0  0  0
  187.3350  178.2630  136.8670 C   0  0  0  0  0  1  0  0  0  0  0  0
  186.3720  179.1930  137.3420 O   0  0  0  0  0  0  0  0  0  0  0  0
  1  4  1  0  0  0  0
  2  9  2  0  0  0  0
  3 13  1  0  0  0  0
  3  1  2  0  0  0  0
  5 10  2  0  0  0  0
  6  8  1  0  0  0  0
  6  4  1  6  0  0  0
  7 17  1  0  0  0  0
  9 14  1  0  0  0  0
 10 12  2  0  0  0  0
 11 18  1  0  0  0  0
 13 19  1  6  0  0  0
 13  6  1  0  0  0  0
 14 15  1  0  0  0  0
 15  8  2  0  0  0  0
 16 22  1  6  0  0  0
 16  7  1  0  0  0  0
 16  2  1  0  0  0  0
 17 12  1  6  0  0  0
 17 19  1  0  0  0  0
 18 16  1  0  0  0  0
 19 14  2  0  0  0  0
 20  5  1  0  0  0  0
 20 11  1  0  0  0  0
 21 22  2  0  0  0  0
 22 36  1  0  0  0  0
 23 21  2  0  0  0  0
 24 26  1  0  0  0  0
 24 23  1  0  0  0  0
 25 24  2  0  0  0  0
 27 26  2  0  0  0  0
 28 29  2  0  0  0  0
 28 25  1  0  0  0  0
 29 27  1  0  0  0  0
 30 29  1  0  0  0  0
 31 33  1  0  0  0  0
 33 32  1  6  0  0  0
 33 30  1  0  0  0  0
 35 36  2  0  0  0  0
 36 34  1  0  0  0  0
 37 38  1  0  0  0  0
 38  5  1  0  0  0  0
M  END
>  <MODEL>
3

>  <REMARK>
 VINA RESULT:      -5.5      3.098      9.092
  Name = 
  6 active torsions:
  status: ('A' for Active; 'I' for Inactive)
    1  A    between atoms: C_3  and  C_36
    2  A    between atoms: C_11  and  O_38
    3  A    between atoms: C_12  and  C_24
    4  A    between atoms: C_12  and  C_30
    5  A    between atoms: C_21  and  C_25
    6  A    between atoms: C_25  and  C_32
                            x       y       z     vdW  Elec       q    Type
                         _______ _______ _______ _____ _____    ______ ____

>  <TORSDO>
F 6

$$$$
=
 OpenBabel10222421033D

 38 42  0  0  1  0  0  0  0  0999 V2000
  180.0580  172.1410  138.3110 C   0  0  0  0  0  3  0  0  0  0  0  0
  184.2380  176.6370  136.4880 N   0  0  0  0  0  0  0  0  0  0  0  0
  180.2310  173.3890  138.6140 N   0  0  0  0  0  0  0  0  0  0  0  0
  180.1440  171.9220  136.8710 C   0  0  0  0  0  2  0  0  0  0  0  0
  181.4090  178.8420  140.1950 C   0  0  0  0  0  0  0  0  0  0  0  0
  180.3290  173.1190  136.3480 C   0  0  2  0  0  3  0  0  0  0  0  0
  183.4540  176.2430  138.7640 C   0  0  0  0  0  2  0  0  0  0  0  0
  180.9130  173.3350  135.0720 N   0  0  0  0  0  0  0  0  0  0  0  0
  183.5770  175.7510  135.8060 C   0  0  0  0  0  3  0  0  0  0  0  0
  181.0960  177.6730  139.7210 C   0  0  0  0  0  0  0  0  0  0  0  0
  182.9480  179.6590  138.3810 C   0  0  0  0  0  2  0  0  0  0  0  0
  180.8930  176.5220  139.1520 C   0  0  0  0  0  3  0  0  0  0  0  0
  180.3700  174.1670  137.3910 C   0  0  2  0  0  3  0  0  0  0  0  0
  182.3090  175.0540  136.1140 C   0  0  0  0  0  0  0  0  0  0  0  0
  181.8240  174.2540  134.9510 C   0  0  0  0  0  3  0  0  0  0  0  0
  183.9440  177.3000  137.7520 C   0  0  2  0  0  0  0  0  0  0  0  0
  182.0280  175.7170  138.5710 C   0  0  1  0  0  3  0  0  0  0  0  0
  182.8850  178.4000  137.4900 C   0  0  0  0  0  2  0  0  0  0  0  0
  181.6640  174.9610  137.3170 C   0  0  0  0  0  0  0  0  0  0  0  0
  182.7700  179.3830  139.8770 C   0  0  0  0  0  2  0  0  0  0  0  0
  185.4650  178.2200  139.4860 C   0  0  0  0  0  0  0  0  0  0  0  0
  185.2590  177.9350  138.2210 C   0  0  0  0  0  0  0  0  0  0  0  0
  185.6760  178.5010  140.7460 C   0  0  0  0  0  3  0  0  0  0  0  0
  186.8970  178.0900  141.4530 C   0  0  0  0  0  0  0  0  0  0  0  0
  186.8640  177.6210  142.7750 C   0  0  0  0  0  3  0  0  0  0  0  0
  188.1250  178.1810  140.7860 C   0  0  0  0  0  3  0  0  0  0  0  0
  189.3080  177.8030  141.4280 C   0  0  0  0  0  3  0  0  0  0  0  0
  188.0460  177.2420  143.4190 C   0  0  0  0  0  3  0  0  0  0  0  0
  189.2700  177.3360  142.7480 C   0  0  0  0  0  0  0  0  0  0  0  0
  190.5290  176.9120  143.4260 C   0  0  0  0  0  2  0  0  0  0  0  0
  191.6080  178.7250  144.5510 O   0  0  0  0  0  1  0  0  0  0  0  0
  191.2840  176.7170  145.7740 C   0  0  0  0  0  1  0  0  0  0  0  0
  190.7220  177.6620  144.7350 C   0  0  2  0  0  3  0  0  0  0  0  0
  187.0450  177.3610  136.7460 O   0  0  0  0  0  0  0  0  0  0  0  0
  186.5470  179.5860  136.8620 O   0  0  0  0  0  1  0  0  0  0  0  0
  186.3260  178.2690  137.2440 C   0  0  0  0  0  0  0  0  0  0  0  0
  180.4880  179.4930  142.3850 C   0  0  0  0  0  1  0  0  0  0  0  0
  180.4860  179.5500  140.9660 O   0  0  0  0  0  0  0  0  0  0  0  0
  1  3  2  0  0  0  0
  2 16  1  0  0  0  0
  4  1  1  0  0  0  0
  5 38  1  0  0  0  0
  6  4  1  1  0  0  0
  6 13  1  0  0  0  0
  8  6  1  0  0  0  0
  9 14  1  0  0  0  0
  9  2  2  0  0  0  0
 10  5  2  0  0  0  0
 11 20  1  0  0  0  0
 12 10  2  0  0  0  0
 13 19  1  1  0  0  0
 13  3  1  0  0  0  0
 14 19  2  0  0  0  0
 15  8  2  0  0  0  0
 15 14  1  0  0  0  0
 16 22  1  1  0  0  0
 16  7  1  0  0  0  0
 17  7  1  6  0  0  0
 17 12  1  0  0  0  0
 18 16  1  0  0  0  0
 18 11  1  0  0  0  0
 19 17  1  0  0  0  0
 20  5  1  0  0  0  0
 21 23  2  0  0  0  0
 22 21  2  0  0  0  0
 23 24  1  0  0  0  0
 24 25  1  0  0  0  0
 25 28  2  0  0  0  0
 26 27  1  0  0  0  0
 26 24  2  0  0  0  0
 27 29  2  0  0  0  0
 29 28  1  0  0  0  0
 29 30  1  0  0  0  0
 30 33  1  0  0  0  0
 31 33  1  0  0  0  0
 33 32  1  1  0  0  0
 34 36  2  0  0  0  0
 35 36  1  0  0  0  0
 36 22  1  0  0  0  0
 38 37  1  0  0  0  0
M  END
>  <MODEL>
4

>  <REMARK>
 VINA RESULT:      -5.4      1.506      2.133
  Name = 
  6 active torsions:
  status: ('A' for Active; 'I' for Inactive)
    1  A    between atoms: C_3  and  C_36
    2  A    between atoms: C_11  and  O_38
    3  A    between atoms: C_12  and  C_24
    4  A    between atoms: C_12  and  C_30
    5  A    between atoms: C_21  and  C_25
    6  A    between atoms: C_25  and  C_32
                            x       y       z     vdW  Elec       q    Type
                         _______ _______ _______ _____ _____    ______ ____

>  <TORSDO>
F 6

$$$$
