=
 OpenBabel10222418183D

 34 35  0  0  1  0  0  0  0  0999 V2000
  186.2170  177.7180  135.8370 C   0  0  0  0  0  0  0  0  0  0  0  0
  185.6910  173.8160  137.2230 C   0  0  0  0  0  2  0  0  0  0  0  0
  185.9740  171.9370  135.6260 C   0  0  0  0  0  3  0  0  0  0  0  0
  184.6450  172.2020  134.9940 C   0  0  0  0  0  1  0  0  0  0  0  0
  189.2830  177.4330  135.0790 O   0  0  0  0  0  0  0  0  0  0  0  0
  188.9270  172.5610  136.2210 C   0  0  0  0  0  2  0  0  0  0  0  0
  188.4480  174.6950  135.2930 O   0  0  0  0  0  0  0  0  0  0  0  0
  192.6900  174.4700  137.3920 C   0  0  0  0  0  0  0  0  0  0  0  0
  185.9870  177.5690  134.6480 O   0  0  0  0  0  0  0  0  0  0  0  0
  191.4530  176.4990  137.8540 C   0  0  0  0  0  3  0  0  0  0  0  0
  183.9290  175.6840  135.6010 O   0  0  0  0  0  1  0  0  0  0  0  0
  192.6370  175.7650  137.9190 C   0  0  0  0  0  3  0  0  0  0  0  0
  186.4590  172.6700  136.6380 C   0  0  0  0  0  0  0  0  0  0  0  0
  187.4720  178.4060  136.2710 C   0  0  0  0  0  2  0  0  0  0  0  0
  191.5560  173.9240  136.7910 C   0  0  0  0  0  3  0  0  0  0  0  0
  187.7970  172.3300  137.2210 C   0  0  0  0  0  2  0  0  0  0  0  0
  190.3620  174.6550  136.7000 C   0  0  0  0  0  0  0  0  0  0  0  0
  188.6580  177.4970  136.1720 C   0  0  0  0  0  0  0  0  0  0  0  0
  189.2030  174.0210  136.0410 C   0  0  0  0  0  0  0  0  0  0  0  0
  185.9200  174.9650  136.4630 O   0  0  0  0  0  0  0  0  0  0  0  0
  190.3110  175.9620  137.2460 C   0  0  0  0  0  0  0  0  0  0  0  0
  185.2370  177.2400  136.8710 C   0  0  0  0  0  2  0  0  0  0  0  0
  184.8110  175.7840  136.6790 C   0  0  1  0  0  3  0  0  0  0  0  0
  189.0880  176.7120  137.3010 N   0  0  0  0  0  0  0  0  0  0  0  0
  188.4750  176.9390  138.6080 C   0  0  0  0  0  2  0  0  0  0  0  0
  189.0070  179.2060  139.2050 O   0  0  0  0  0  1  0  0  0  0  0  0
  189.3340  177.8700  139.4530 C   0  0  1  0  0  3  0  0  0  0  0  0
  189.1960  177.5520  140.9420 C   0  0  0  0  0  2  0  0  0  0  0  0
  190.4090  176.8830  141.5030 C   0  0  0  0  0  0  0  0  0  0  0  0
  191.6970  177.4530  141.2970 N   0  0  0  0  0  1  0  0  0  0  0  0
  190.2920  175.8280  142.1780 O   0  0  0  0  0  0  0  0  0  0  0  0
  193.8910  173.6970  137.4540 N   0  0  0  0  0  2  0  0  0  0  0  0
  195.0180  174.1220  138.1750 N   0  0  0  0  0  2  0  0  0  0  0  0
  195.3450  173.1210  139.0280 O   0  0  0  0  0  1  0  0  0  0  0  0
  1 14  1  0  0  0  0
  1 22  1  0  0  0  0
  3 13  2  0  0  0  0
  4  3  1  0  0  0  0
  5 18  2  0  0  0  0
  6 16  1  0  0  0  0
  7 19  2  0  0  0  0
  8 32  1  0  0  0  0
  8 12  1  0  0  0  0
  9  1  2  0  0  0  0
 10 12  2  0  0  0  0
 13 16  1  0  0  0  0
 13  2  1  0  0  0  0
 15  8  2  0  0  0  0
 17 15  1  0  0  0  0
 17 21  2  0  0  0  0
 18 14  1  0  0  0  0
 18 24  1  0  0  0  0
 19  6  1  0  0  0  0
 19 17  1  0  0  0  0
 20 23  1  0  0  0  0
 20  2  1  0  0  0  0
 21 24  1  0  0  0  0
 21 10  1  0  0  0  0
 23 11  1  6  0  0  0
 23 22  1  0  0  0  0
 24 25  1  0  0  0  0
 25 27  1  0  0  0  0
 27 26  1  1  0  0  0
 27 28  1  0  0  0  0
 28 29  1  0  0  0  0
 29 31  2  0  0  0  0
 30 29  1  0  0  0  0
 32 33  1  0  0  0  0
 33 34  1  0  0  0  0
M  END
>  <MODEL>
1

>  <REMARK>
 VINA RESULT:      -6.6      0.000      0.000
  Name = 
  6 active torsions:
  status: ('A' for Active; 'I' for Inactive)
    1  A    between atoms: C_8  and  N_11
    2  A    between atoms: C_9  and  C_23
    3  A    between atoms: C_9  and  N_34
    4  A    between atoms: C_10  and  C_15
    5  A    between atoms: N_11  and  N_21
    6  A    between atoms: C_15  and  C_23
                            x       y       z     vdW  Elec       q    Type
                         _______ _______ _______ _____ _____    ______ ____

>  <TORSDO>
F 6

$$$$
=
 OpenBabel10222418183D

 34 35  0  0  1  0  0  0  0  0999 V2000
  188.7400  177.3880  134.8470 C   0  0  0  0  0  0  0  0  0  0  0  0
  190.6360  175.4950  138.0480 C   0  0  0  0  0  2  0  0  0  0  0  0
  192.2710  176.7870  139.3960 C   0  0  0  0  0  3  0  0  0  0  0  0
  193.3170  176.6780  138.3340 C   0  0  0  0  0  1  0  0  0  0  0  0
  187.2010  179.5660  136.5620 O   0  0  0  0  0  0  0  0  0  0  0  0
  189.6470  177.8570  140.5950 C   0  0  0  0  0  2  0  0  0  0  0  0
  189.2080  178.6470  138.3970 O   0  0  0  0  0  0  0  0  0  0  0  0
  185.4780  178.9960  141.3000 C   0  0  0  0  0  0  0  0  0  0  0  0
  189.5480  178.2670  134.5940 O   0  0  0  0  0  0  0  0  0  0  0  0
  184.9430  178.2020  139.0760 C   0  0  0  0  0  3  0  0  0  0  0  0
  191.5410  176.1910  135.2330 O   0  0  0  0  0  1  0  0  0  0  0  0
  184.5300  178.6660  140.3240 C   0  0  0  0  0  3  0  0  0  0  0  0
  191.0470  176.2550  139.2710 C   0  0  0  0  0  0  0  0  0  0  0  0
  187.3000  177.7370  135.0490 C   0  0  0  0  0  2  0  0  0  0  0  0
  186.8370  178.8680  141.0110 C   0  0  0  0  0  3  0  0  0  0  0  0
  190.0600  176.4020  140.3900 C   0  0  0  0  0  2  0  0  0  0  0  0
  187.2700  178.4190  139.7550 C   0  0  0  0  0  0  0  0  0  0  0  0
  187.0630  178.3230  136.4070 C   0  0  0  0  0  0  0  0  0  0  0  0
  188.7230  178.3170  139.5120 C   0  0  0  0  0  0  0  0  0  0  0  0
  190.1960  176.3900  137.0700 O   0  0  0  0  0  0  0  0  0  0  0  0
  186.3050  178.0760  138.7740 C   0  0  0  0  0  0  0  0  0  0  0  0
  189.1750  175.9520  134.9310 C   0  0  0  0  0  2  0  0  0  0  0  0
  190.3770  175.7320  135.8520 C   0  0  1  0  0  3  0  0  0  0  0  0
  186.6780  177.4900  137.5170 N   0  0  0  0  0  0  0  0  0  0  0  0
  186.3370  176.0890  137.2800 C   0  0  0  0  0  2  0  0  0  0  0  0
  184.8200  175.5320  135.5010 O   0  0  0  0  0  1  0  0  0  0  0  0
  184.8890  175.9530  136.8320 C   0  0  1  0  0  3  0  0  0  0  0  0
  184.1150  174.9960  137.7390 C   0  0  0  0  0  2  0  0  0  0  0  0
  184.3980  173.5600  137.4350 C   0  0  0  0  0  0  0  0  0  0  0  0
  185.5660  172.9380  137.9560 N   0  0  0  0  0  1  0  0  0  0  0  0
  183.5900  172.8930  136.7390 O   0  0  0  0  0  0  0  0  0  0  0  0
  185.0770  179.4670  142.5880 N   0  0  0  0  0  2  0  0  0  0  0  0
  184.3260  178.6790  143.4730 N   0  0  0  0  0  2  0  0  0  0  0  0
  184.0510  179.4470  144.5550 O   0  0  0  0  0  1  0  0  0  0  0  0
  1 22  1  0  0  0  0
  1 14  1  0  0  0  0
  2 13  1  0  0  0  0
  4  3  1  0  0  0  0
  7 19  2  0  0  0  0
  8 32  1  0  0  0  0
  9  1  2  0  0  0  0
 10 12  1  0  0  0  0
 12  8  2  0  0  0  0
 13  3  2  0  0  0  0
 13 16  1  0  0  0  0
 14 18  1  0  0  0  0
 15  8  1  0  0  0  0
 16  6  1  0  0  0  0
 17 15  2  0  0  0  0
 18  5  2  0  0  0  0
 18 24  1  0  0  0  0
 19 17  1  0  0  0  0
 19  6  1  0  0  0  0
 20  2  1  0  0  0  0
 21 10  2  0  0  0  0
 21 17  1  0  0  0  0
 22 23  1  0  0  0  0
 23 11  1  6  0  0  0
 23 20  1  0  0  0  0
 24 21  1  0  0  0  0
 25 24  1  0  0  0  0
 27 26  1  6  0  0  0
 27 25  1  0  0  0  0
 27 28  1  0  0  0  0
 29 28  1  0  0  0  0
 29 30  1  0  0  0  0
 31 29  2  0  0  0  0
 32 33  1  0  0  0  0
 33 34  1  0  0  0  0
M  END
>  <MODEL>
2

>  <REMARK>
 VINA RESULT:      -5.7      3.239      7.149
  Name = 
  6 active torsions:
  status: ('A' for Active; 'I' for Inactive)
    1  A    between atoms: C_8  and  N_11
    2  A    between atoms: C_9  and  C_23
    3  A    between atoms: C_9  and  N_34
    4  A    between atoms: C_10  and  C_15
    5  A    between atoms: N_11  and  N_21
    6  A    between atoms: C_15  and  C_23
                            x       y       z     vdW  Elec       q    Type
                         _______ _______ _______ _____ _____    ______ ____

>  <TORSDO>
F 6

$$$$
=
 OpenBabel10222418183D

 34 35  0  0  1  0  0  0  0  0999 V2000
  181.3360  179.3040  138.6900 C   0  0  0  0  0  0  0  0  0  0  0  0
  182.3680  175.4250  137.5440 C   0  0  0  0  0  2  0  0  0  0  0  0
  183.3790  175.0750  135.3050 C   0  0  0  0  0  3  0  0  0  0  0  0
  182.0600  175.2380  134.6220 C   0  0  0  0  0  1  0  0  0  0  0  0
  184.2760  180.4930  138.6650 O   0  0  0  0  0  0  0  0  0  0  0  0
  185.8470  176.0940  136.8350 C   0  0  0  0  0  2  0  0  0  0  0  0
  184.5780  178.0800  137.1400 O   0  0  0  0  0  0  0  0  0  0  0  0
  188.5490  177.9720  139.7240 C   0  0  0  0  0  0  0  0  0  0  0  0
  181.1950  179.8320  137.5990 O   0  0  0  0  0  0  0  0  0  0  0  0
  186.6120  178.8170  140.9040 C   0  0  0  0  0  3  0  0  0  0  0  0
  180.0310  177.2320  136.8380 O   0  0  0  0  0  1  0  0  0  0  0  0
  187.9880  178.6000  140.8410 C   0  0  0  0  0  3  0  0  0  0  0  0
  183.5290  175.1640  136.6340 C   0  0  0  0  0  0  0  0  0  0  0  0
  182.2180  179.9430  139.7160 C   0  0  0  0  0  2  0  0  0  0  0  0
  187.7250  177.5760  138.6690 C   0  0  0  0  0  3  0  0  0  0  0  0
  184.8880  174.9770  137.2380 C   0  0  0  0  0  2  0  0  0  0  0  0
  186.3420  177.8020  138.7080 C   0  0  0  0  0  0  0  0  0  0  0  0
  183.6660  179.6950  139.4260 C   0  0  0  0  0  0  0  0  0  0  0  0
  185.5300  177.3680  137.5540 C   0  0  0  0  0  0  0  0  0  0  0  0
  182.1360  176.8010  137.6170 O   0  0  0  0  0  0  0  0  0  0  0  0
  185.7770  178.4290  139.8480 C   0  0  0  0  0  0  0  0  0  0  0  0
  180.6120  178.0300  139.0220 C   0  0  0  0  0  2  0  0  0  0  0  0
  180.7920  176.9350  137.9700 C   0  0  1  0  0  3  0  0  0  0  0  0
  184.3580  178.5730  140.0070 N   0  0  0  0  0  0  0  0  0  0  0  0
  183.6920  177.7720  141.0320 C   0  0  0  0  0  2  0  0  0  0  0  0
  182.0720  178.4850  142.6570 O   0  0  0  0  0  1  0  0  0  0  0  0
  183.4100  178.6070  142.2730 C   0  0  1  0  0  3  0  0  0  0  0  0
  184.3360  178.2200  143.4250 C   0  0  0  0  0  2  0  0  0  0  0  0
  184.4040  179.2690  144.4870 C   0  0  0  0  0  0  0  0  0  0  0  0
  183.8960  179.0000  145.7880 N   0  0  0  0  0  1  0  0  0  0  0  0
  184.9340  180.3830  144.2390 O   0  0  0  0  0  0  0  0  0  0  0  0
  189.9570  177.7340  139.6410 N   0  0  0  0  0  2  0  0  0  0  0  0
  190.5200  176.4770  139.9100 N   0  0  0  0  0  2  0  0  0  0  0  0
  190.3270  176.2290  141.2270 O   0  0  0  0  0  1  0  0  0  0  0  0
  1 22  1  0  0  0  0
  1 14  1  0  0  0  0
  2 20  1  0  0  0  0
  3 13  2  0  0  0  0
  4  3  1  0  0  0  0
  5 18  2  0  0  0  0
  6 16  1  0  0  0  0
  6 19  1  0  0  0  0
  7 19  2  0  0  0  0
  8 12  1  0  0  0  0
  9  1  2  0  0  0  0
 12 10  2  0  0  0  0
 13 16  1  0  0  0  0
 13  2  1  0  0  0  0
 15 17  1  0  0  0  0
 15  8  2  0  0  0  0
 17 21  2  0  0  0  0
 18 14  1  0  0  0  0
 18 24  1  0  0  0  0
 19 17  1  0  0  0  0
 20 23  1  0  0  0  0
 21 24  1  0  0  0  0
 21 10  1  0  0  0  0
 23 11  1  6  0  0  0
 23 22  1  0  0  0  0
 24 25  1  0  0  0  0
 25 27  1  0  0  0  0
 27 26  1  1  0  0  0
 27 28  1  0  0  0  0
 28 29  1  0  0  0  0
 29 30  1  0  0  0  0
 31 29  2  0  0  0  0
 32  8  1  0  0  0  0
 32 33  1  0  0  0  0
 33 34  1  0  0  0  0
M  END
>  <MODEL>
3

>  <REMARK>
 VINA RESULT:      -5.6      4.229      5.782
  Name = 
  6 active torsions:
  status: ('A' for Active; 'I' for Inactive)
    1  A    between atoms: C_8  and  N_11
    2  A    between atoms: C_9  and  C_23
    3  A    between atoms: C_9  and  N_34
    4  A    between atoms: C_10  and  C_15
    5  A    between atoms: N_11  and  N_21
    6  A    between atoms: C_15  and  C_23
                            x       y       z     vdW  Elec       q    Type
                         _______ _______ _______ _____ _____    ______ ____

>  <TORSDO>
F 6

$$$$
=
 OpenBabel10222418183D

 34 35  0  0  1  0  0  0  0  0999 V2000
  181.2470  176.4600  135.7570 C   0  0  0  0  0  0  0  0  0  0  0  0
  182.5240  172.9180  137.5580 C   0  0  0  0  0  2  0  0  0  0  0  0
  183.6980  171.2310  136.1670 C   0  0  0  0  0  3  0  0  0  0  0  0
  182.4220  170.7880  135.5280 C   0  0  0  0  0  1  0  0  0  0  0  0
  184.1260  177.5470  134.9930 O   0  0  0  0  0  0  0  0  0  0  0  0
  186.0090  173.2040  136.6530 C   0  0  0  0  0  2  0  0  0  0  0  0
  184.6370  174.7700  135.5090 O   0  0  0  0  0  0  0  0  0  0  0  0
  188.4260  176.7400  137.5640 C   0  0  0  0  0  0  0  0  0  0  0  0
  181.1570  176.1030  134.5940 O   0  0  0  0  0  0  0  0  0  0  0  0
  186.3770  178.0050  137.8230 C   0  0  0  0  0  3  0  0  0  0  0  0
  180.1630  173.5880  135.7690 O   0  0  0  0  0  1  0  0  0  0  0  0
  187.7630  177.9100  137.9500 C   0  0  0  0  0  3  0  0  0  0  0  0
  183.7540  172.2030  137.0880 C   0  0  0  0  0  0  0  0  0  0  0  0
  182.0280  177.6900  136.0980 C   0  0  0  0  0  2  0  0  0  0  0  0
  187.6930  175.6750  137.0390 C   0  0  0  0  0  3  0  0  0  0  0  0
  185.0750  172.5790  137.6870 C   0  0  0  0  0  2  0  0  0  0  0  0
  186.3010  175.7600  136.8870 C   0  0  0  0  0  0  0  0  0  0  0  0
  183.5020  177.4260  136.0810 C   0  0  0  0  0  0  0  0  0  0  0  0
  185.5890  174.6000  136.3150 C   0  0  0  0  0  0  0  0  0  0  0  0
  182.2270  173.9600  136.6770 O   0  0  0  0  0  0  0  0  0  0  0  0
  185.6340  176.9430  137.2910 C   0  0  0  0  0  0  0  0  0  0  0  0
  180.5590  175.6910  136.8490 C   0  0  0  0  0  2  0  0  0  0  0  0
  180.8580  174.1920  136.8200 C   0  0  1  0  0  3  0  0  0  0  0  0
  184.2020  177.0460  137.2820 N   0  0  0  0  0  0  0  0  0  0  0  0
  183.5050  177.0950  138.5650 C   0  0  0  0  0  2  0  0  0  0  0  0
  183.1870  179.4630  138.8240 O   0  0  0  0  0  1  0  0  0  0  0  0
  183.8730  178.3570  139.3330 C   0  0  1  0  0  3  0  0  0  0  0  0
  183.5990  178.1970  140.8280 C   0  0  0  0  0  2  0  0  0  0  0  0
  184.7930  178.5110  141.6700 C   0  0  0  0  0  0  0  0  0  0  0  0
  185.7870  179.4080  141.1900 N   0  0  0  0  0  1  0  0  0  0  0  0
  184.9070  178.0020  142.8150 O   0  0  0  0  0  0  0  0  0  0  0  0
  189.8440  176.6190  137.6920 N   0  0  0  0  0  2  0  0  0  0  0  0
  190.4470  176.0460  138.8220 N   0  0  0  0  0  2  0  0  0  0  0  0
  191.0020  174.8750  138.4250 O   0  0  0  0  0  1  0  0  0  0  0  0
  1 14  1  0  0  0  0
  1 22  1  0  0  0  0
  3 13  2  0  0  0  0
  4  3  1  0  0  0  0
  5 18  2  0  0  0  0
  6 16  1  0  0  0  0
  7 19  2  0  0  0  0
  8 32  1  0  0  0  0
  8 12  1  0  0  0  0
  9  1  2  0  0  0  0
 10 12  2  0  0  0  0
 13  2  1  0  0  0  0
 13 16  1  0  0  0  0
 15  8  2  0  0  0  0
 17 15  1  0  0  0  0
 17 21  2  0  0  0  0
 18 14  1  0  0  0  0
 18 24  1  0  0  0  0
 19  6  1  0  0  0  0
 19 17  1  0  0  0  0
 20 23  1  0  0  0  0
 20  2  1  0  0  0  0
 21 10  1  0  0  0  0
 23 11  1  6  0  0  0
 23 22  1  0  0  0  0
 24 21  1  0  0  0  0
 24 25  1  0  0  0  0
 25 27  1  0  0  0  0
 27 26  1  6  0  0  0
 27 28  1  0  0  0  0
 28 29  1  0  0  0  0
 29 31  2  0  0  0  0
 30 29  1  0  0  0  0
 32 33  1  0  0  0  0
 34 33  1  0  0  0  0
M  END
>  <MODEL>
4

>  <REMARK>
 VINA RESULT:      -5.4      3.153      4.697
  Name = 
  6 active torsions:
  status: ('A' for Active; 'I' for Inactive)
    1  A    between atoms: C_8  and  N_11
    2  A    between atoms: C_9  and  C_23
    3  A    between atoms: C_9  and  N_34
    4  A    between atoms: C_10  and  C_15
    5  A    between atoms: N_11  and  N_21
    6  A    between atoms: C_15  and  C_23
                            x       y       z     vdW  Elec       q    Type
                         _______ _______ _______ _____ _____    ______ ____

>  <TORSDO>
F 6

$$$$
=
 OpenBabel10222418183D

 34 35  0  0  1  0  0  0  0  0999 V2000
  190.0160  175.9570  135.0080 C   0  0  0  0  0  0  0  0  0  0  0  0
  190.8540  175.6290  139.0840 C   0  0  0  0  0  2  0  0  0  0  0  0
  191.6830  177.6310  140.2930 C   0  0  0  0  0  3  0  0  0  0  0  0
  193.0490  177.4900  139.7040 C   0  0  0  0  0  1  0  0  0  0  0  0
  187.6670  178.0690  135.2800 O   0  0  0  0  0  0  0  0  0  0  0  0
  188.6800  178.2950  140.1880 C   0  0  0  0  0  2  0  0  0  0  0  0
  188.9700  178.2700  137.8300 O   0  0  0  0  0  0  0  0  0  0  0  0
  184.4270  178.4820  139.1620 C   0  0  0  0  0  0  0  0  0  0  0  0
  190.7280  176.9010  134.7060 O   0  0  0  0  0  0  0  0  0  0  0  0
  184.8600  176.9650  137.3250 C   0  0  0  0  0  3  0  0  0  0  0  0
  192.6190  175.6840  136.6130 O   0  0  0  0  0  1  0  0  0  0  0  0
  183.9590  177.6510  138.1380 C   0  0  0  0  0  3  0  0  0  0  0  0
  190.6770  176.7920  140.0120 C   0  0  0  0  0  0  0  0  0  0  0  0
  188.5680  175.9680  134.6330 C   0  0  0  0  0  2  0  0  0  0  0  0
  185.8010  178.6280  139.3560 C   0  0  0  0  0  3  0  0  0  0  0  0
  189.3390  177.0000  140.6550 C   0  0  0  0  0  2  0  0  0  0  0  0
  186.7220  177.9590  138.5370 C   0  0  0  0  0  0  0  0  0  0  0  0
  187.7710  176.8430  135.5510 C   0  0  0  0  0  0  0  0  0  0  0  0
  188.1620  178.1670  138.7900 C   0  0  0  0  0  0  0  0  0  0  0  0
  190.6810  176.0570  137.7650 O   0  0  0  0  0  0  0  0  0  0  0  0
  186.2410  177.1110  137.5080 C   0  0  0  0  0  0  0  0  0  0  0  0
  190.5860  174.7690  135.7310 C   0  0  0  0  0  2  0  0  0  0  0  0
  191.3850  175.1430  136.9800 C   0  0  1  0  0  3  0  0  0  0  0  0
  187.1270  176.3010  136.7190 N   0  0  0  0  0  0  0  0  0  0  0  0
  187.0960  174.8530  136.9160 C   0  0  0  0  0  2  0  0  0  0  0  0
  185.8800  173.7520  135.1590 O   0  0  0  0  0  1  0  0  0  0  0  0
  185.7680  174.2720  136.4510 C   0  0  1  0  0  3  0  0  0  0  0  0
  185.2620  173.2010  137.4180 C   0  0  0  0  0  2  0  0  0  0  0  0
  183.8350  172.8310  137.1740 C   0  0  0  0  0  0  0  0  0  0  0  0
  182.8810  173.8390  136.8630 N   0  0  0  0  0  1  0  0  0  0  0  0
  183.4810  171.6250  137.2180 O   0  0  0  0  0  0  0  0  0  0  0  0
  183.5200  179.1890  140.0120 N   0  0  0  0  0  2  0  0  0  0  0  0
  183.0690  178.6590  141.2300 N   0  0  0  0  0  2  0  0  0  0  0  0
  181.7220  178.8000  141.2500 O   0  0  0  0  0  1  0  0  0  0  0  0
  1 22  1  0  0  0  0
  2 13  1  0  0  0  0
  4  3  1  0  0  0  0
  5 18  2  0  0  0  0
  6 16  1  0  0  0  0
  7 19  2  0  0  0  0
  8 15  1  0  0  0  0
  8 32  1  0  0  0  0
  9  1  2  0  0  0  0
 10 21  2  0  0  0  0
 10 12  1  0  0  0  0
 12  8  2  0  0  0  0
 13  3  2  0  0  0  0
 13 16  1  0  0  0  0
 14  1  1  0  0  0  0
 14 18  1  0  0  0  0
 17 19  1  0  0  0  0
 17 15  2  0  0  0  0
 18 24  1  0  0  0  0
 19  6  1  0  0  0  0
 20  2  1  0  0  0  0
 21 17  1  0  0  0  0
 22 23  1  0  0  0  0
 23 11  1  6  0  0  0
 23 20  1  0  0  0  0
 24 25  1  0  0  0  0
 24 21  1  0  0  0  0
 27 26  1  6  0  0  0
 27 25  1  0  0  0  0
 27 28  1  0  0  0  0
 29 31  2  0  0  0  0
 29 28  1  0  0  0  0
 30 29  1  0  0  0  0
 32 33  1  0  0  0  0
 33 34  1  0  0  0  0
M  END
>  <MODEL>
5

>  <REMARK>
 VINA RESULT:      -5.2      3.069      7.554
  Name = 
  6 active torsions:
  status: ('A' for Active; 'I' for Inactive)
    1  A    between atoms: C_8  and  N_11
    2  A    between atoms: C_9  and  C_23
    3  A    between atoms: C_9  and  N_34
    4  A    between atoms: C_10  and  C_15
    5  A    between atoms: N_11  and  N_21
    6  A    between atoms: C_15  and  C_23
                            x       y       z     vdW  Elec       q    Type
                         _______ _______ _______ _____ _____    ______ ____

>  <TORSDO>
F 6

$$$$
=
 OpenBabel10222418183D

 34 35  0  0  1  0  0  0  0  0999 V2000
  180.0090  174.7350  136.3840 C   0  0  0  0  0  0  0  0  0  0  0  0
  182.9730  171.9500  137.3180 C   0  0  0  0  0  2  0  0  0  0  0  0
  184.5940  171.3000  135.5540 C   0  0  0  0  0  3  0  0  0  0  0  0
  183.5870  170.4340  134.8700 C   0  0  0  0  0  1  0  0  0  0  0  0
  181.9560  177.1680  135.7980 O   0  0  0  0  0  0  0  0  0  0  0  0
  185.8010  174.0020  136.3990 C   0  0  0  0  0  2  0  0  0  0  0  0
  183.7320  174.9170  135.6700 O   0  0  0  0  0  0  0  0  0  0  0  0
  186.4450  178.0260  138.0010 C   0  0  0  0  0  0  0  0  0  0  0  0
  179.9400  174.5960  135.1730 O   0  0  0  0  0  0  0  0  0  0  0  0
  184.0980  178.1070  138.5920 C   0  0  0  0  0  3  0  0  0  0  0  0
  180.3560  171.7430  135.7910 O   0  0  0  0  0  1  0  0  0  0  0  0
  185.3800  178.6540  138.6560 C   0  0  0  0  0  3  0  0  0  0  0  0
  184.3210  171.9970  136.6660 C   0  0  0  0  0  0  0  0  0  0  0  0
  180.1840  176.1020  136.9660 C   0  0  0  0  0  2  0  0  0  0  0  0
  186.2140  176.8580  137.2740 C   0  0  0  0  0  3  0  0  0  0  0  0
  185.3930  172.8350  137.2950 C   0  0  0  0  0  2  0  0  0  0  0  0
  184.9290  176.3030  137.1850 C   0  0  0  0  0  0  0  0  0  0  0  0
  181.6010  176.5710  136.8490 C   0  0  0  0  0  0  0  0  0  0  0  0
  184.7530  175.0710  136.3910 C   0  0  0  0  0  0  0  0  0  0  0  0
  182.1250  172.8700  136.6980 O   0  0  0  0  0  0  0  0  0  0  0  0
  183.8560  176.9370  137.8600 C   0  0  0  0  0  0  0  0  0  0  0  0
  179.8910  173.5480  137.2980 C   0  0  0  0  0  2  0  0  0  0  0  0
  180.8310  172.4000  136.9280 C   0  0  1  0  0  3  0  0  0  0  0  0
  182.5450  176.3530  137.9150 N   0  0  0  0  0  0  0  0  0  0  0  0
  182.0740  175.8340  139.1970 C   0  0  0  0  0  2  0  0  0  0  0  0
  180.0140  175.8440  140.4350 O   0  0  0  0  0  1  0  0  0  0  0  0
  180.8970  176.6500  139.7120 C   0  0  1  0  0  3  0  0  0  0  0  0
  181.3700  177.8270  140.5650 C   0  0  0  0  0  2  0  0  0  0  0  0
  180.7990  179.1320  140.1120 C   0  0  0  0  0  0  0  0  0  0  0  0
  180.1990  180.0130  141.0550 N   0  0  0  0  0  1  0  0  0  0  0  0
  180.8710  179.4650  138.9010 O   0  0  0  0  0  0  0  0  0  0  0  0
  187.7670  178.5660  138.0580 N   0  0  0  0  0  2  0  0  0  0  0  0
  188.4720  178.6910  139.2650 N   0  0  0  0  0  2  0  0  0  0  0  0
  188.7530  177.4370  139.6940 O   0  0  0  0  0  1  0  0  0  0  0  0
  1 14  1  0  0  0  0
  1 22  1  0  0  0  0
  3 13  2  0  0  0  0
  4  3  1  0  0  0  0
  5 18  2  0  0  0  0
  6 16  1  0  0  0  0
  7 19  2  0  0  0  0
  8 32  1  0  0  0  0
  8 12  1  0  0  0  0
  9  1  2  0  0  0  0
 10 12  2  0  0  0  0
 13 16  1  0  0  0  0
 13  2  1  0  0  0  0
 15  8  2  0  0  0  0
 17 15  1  0  0  0  0
 17 21  2  0  0  0  0
 18 14  1  0  0  0  0
 18 24  1  0  0  0  0
 19  6  1  0  0  0  0
 19 17  1  0  0  0  0
 20 23  1  0  0  0  0
 20  2  1  0  0  0  0
 21 24  1  0  0  0  0
 21 10  1  0  0  0  0
 23 11  1  6  0  0  0
 23 22  1  0  0  0  0
 24 25  1  0  0  0  0
 25 27  1  0  0  0  0
 27 26  1  1  0  0  0
 27 28  1  0  0  0  0
 29 28  1  0  0  0  0
 29 30  1  0  0  0  0
 31 29  2  0  0  0  0
 32 33  1  0  0  0  0
 33 34  1  0  0  0  0
M  END
>  <MODEL>
6

>  <REMARK>
 VINA RESULT:      -5.1      4.160      6.851
  Name = 
  6 active torsions:
  status: ('A' for Active; 'I' for Inactive)
    1  A    between atoms: C_8  and  N_11
    2  A    between atoms: C_9  and  C_23
    3  A    between atoms: C_9  and  N_34
    4  A    between atoms: C_10  and  C_15
    5  A    between atoms: N_11  and  N_21
    6  A    between atoms: C_15  and  C_23
                            x       y       z     vdW  Elec       q    Type
                         _______ _______ _______ _____ _____    ______ ____

>  <TORSDO>
F 6

$$$$
=
 OpenBabel10222418183D

 34 35  0  0  1  0  0  0  0  0999 V2000
  183.0870  177.3510  136.0680 C   0  0  0  0  0  0  0  0  0  0  0  0
  186.8460  176.0660  137.3500 C   0  0  0  0  0  2  0  0  0  0  0  0
  188.7200  177.6930  137.3620 C   0  0  0  0  0  3  0  0  0  0  0  0
  188.8750  177.6100  135.8780 C   0  0  0  0  0  1  0  0  0  0  0  0
  182.6170  179.4810  138.3700 O   0  0  0  0  0  0  0  0  0  0  0  0
  187.2840  178.5350  139.9500 C   0  0  0  0  0  2  0  0  0  0  0  0
  185.4470  179.0260  138.5240 O   0  0  0  0  0  0  0  0  0  0  0  0
  184.3470  179.1940  143.1310 C   0  0  0  0  0  0  0  0  0  0  0  0
  183.4000  178.2960  135.3620 O   0  0  0  0  0  0  0  0  0  0  0  0
  182.6850  178.1080  141.7450 C   0  0  0  0  0  3  0  0  0  0  0  0
  185.6680  176.5740  134.5970 O   0  0  0  0  0  1  0  0  0  0  0  0
  183.0700  178.6440  142.9730 C   0  0  0  0  0  3  0  0  0  0  0  0
  187.7950  176.9980  138.0390 C   0  0  0  0  0  0  0  0  0  0  0  0
  182.0540  177.5310  137.1350 C   0  0  0  0  0  2  0  0  0  0  0  0
  185.2270  179.2130  142.0480 C   0  0  0  0  0  3  0  0  0  0  0  0
  187.7140  177.1330  139.5300 C   0  0  0  0  0  2  0  0  0  0  0  0
  184.8500  178.6940  140.8010 C   0  0  0  0  0  0  0  0  0  0  0  0
  182.6220  178.2210  138.3370 C   0  0  0  0  0  0  0  0  0  0  0  0
  185.8260  178.7560  139.6940 C   0  0  0  0  0  0  0  0  0  0  0  0
  185.7510  176.7900  136.8710 O   0  0  0  0  0  0  0  0  0  0  0  0
  183.5590  178.1280  140.6510 C   0  0  0  0  0  0  0  0  0  0  0  0
  183.7110  176.0010  135.8580 C   0  0  0  0  0  2  0  0  0  0  0  0
  185.2390  176.0360  135.8130 C   0  0  1  0  0  3  0  0  0  0  0  0
  183.1580  177.4670  139.4410 N   0  0  0  0  0  0  0  0  0  0  0  0
  182.9830  176.0170  139.4720 C   0  0  0  0  0  2  0  0  0  0  0  0
  181.5760  174.5050  138.2430 O   0  0  0  0  0  1  0  0  0  0  0  0
  181.5670  175.6330  139.0670 C   0  0  1  0  0  3  0  0  0  0  0  0
  180.6840  175.3950  140.2920 C   0  0  0  0  0  2  0  0  0  0  0  0
  179.7180  176.5090  140.5310 C   0  0  0  0  0  0  0  0  0  0  0  0
  179.2310  177.2780  139.4380 N   0  0  0  0  0  1  0  0  0  0  0  0
  179.3130  176.7530  141.6970 O   0  0  0  0  0  0  0  0  0  0  0  0
  184.7650  179.7430  144.3830 N   0  0  0  0  0  2  0  0  0  0  0  0
  185.4060  178.9690  145.3630 N   0  0  0  0  0  2  0  0  0  0  0  0
  184.5360  178.8320  146.3930 O   0  0  0  0  0  1  0  0  0  0  0  0
  1 14  1  0  0  0  0
  2 13  1  0  0  0  0
  3 13  2  0  0  0  0
  4  3  1  0  0  0  0
  7 19  2  0  0  0  0
  8 32  1  0  0  0  0
  9  1  2  0  0  0  0
 10 12  2  0  0  0  0
 12  8  1  0  0  0  0
 13 16  1  0  0  0  0
 14 18  1  0  0  0  0
 15  8  2  0  0  0  0
 16  6  1  0  0  0  0
 17 15  1  0  0  0  0
 18  5  2  0  0  0  0
 18 24  1  0  0  0  0
 19  6  1  0  0  0  0
 19 17  1  0  0  0  0
 20  2  1  0  0  0  0
 21 17  2  0  0  0  0
 21 10  1  0  0  0  0
 22  1  1  0  0  0  0
 23 11  1  6  0  0  0
 23 22  1  0  0  0  0
 23 20  1  0  0  0  0
 24 25  1  0  0  0  0
 24 21  1  0  0  0  0
 27 26  1  1  0  0  0
 27 25  1  0  0  0  0
 27 28  1  0  0  0  0
 28 29  1  0  0  0  0
 29 31  2  0  0  0  0
 30 29  1  0  0  0  0
 32 33  1  0  0  0  0
 33 34  1  0  0  0  0
M  END
>  <MODEL>
7

>  <REMARK>
 VINA RESULT:      -4.7      4.882      8.125
  Name = 
  6 active torsions:
  status: ('A' for Active; 'I' for Inactive)
    1  A    between atoms: C_8  and  N_11
    2  A    between atoms: C_9  and  C_23
    3  A    between atoms: C_9  and  N_34
    4  A    between atoms: C_10  and  C_15
    5  A    between atoms: N_11  and  N_21
    6  A    between atoms: C_15  and  C_23
                            x       y       z     vdW  Elec       q    Type
                         _______ _______ _______ _____ _____    ______ ____

>  <TORSDO>
F 6

$$$$
=
 OpenBabel10222418183D

 34 35  0  0  1  0  0  0  0  0999 V2000
  179.1800  176.5770  140.7430 C   0  0  0  0  0  0  0  0  0  0  0  0
  182.0270  179.4000  141.9060 C   0  0  0  0  0  2  0  0  0  0  0  0
  184.0950  178.6110  143.0300 C   0  0  0  0  0  3  0  0  0  0  0  0
  183.3730  178.3800  144.3180 C   0  0  0  0  0  1  0  0  0  0  0  0
  181.0030  175.0530  138.6440 O   0  0  0  0  0  0  0  0  0  0  0  0
  184.8150  177.9680  140.1080 C   0  0  0  0  0  2  0  0  0  0  0  0
  182.9340  176.5170  140.1830 O   0  0  0  0  0  0  0  0  0  0  0  0
  184.6890  177.0950  135.8190 C   0  0  0  0  0  0  0  0  0  0  0  0
  179.4370  175.6660  141.5140 O   0  0  0  0  0  0  0  0  0  0  0  0
  182.2710  177.1370  135.9370 C   0  0  0  0  0  3  0  0  0  0  0  0
  179.9160  177.8460  143.4400 O   0  0  0  0  0  1  0  0  0  0  0  0
  183.4430  177.0930  135.1830 C   0  0  0  0  0  3  0  0  0  0  0  0
  183.4890  179.0700  141.9260 C   0  0  0  0  0  0  0  0  0  0  0  0
  179.0860  176.3050  139.2760 C   0  0  0  0  0  2  0  0  0  0  0  0
  184.7510  177.1300  137.2120 C   0  0  0  0  0  3  0  0  0  0  0  0
  184.2900  179.2830  140.6780 C   0  0  0  0  0  2  0  0  0  0  0  0
  183.5820  177.1570  137.9880 C   0  0  0  0  0  0  0  0  0  0  0  0
  180.4420  176.1810  138.6520 C   0  0  0  0  0  0  0  0  0  0  0  0
  183.7190  177.1830  139.4580 C   0  0  0  0  0  0  0  0  0  0  0  0
  181.2930  178.2370  141.6590 O   0  0  0  0  0  0  0  0  0  0  0  0
  182.3230  177.1660  137.3370 C   0  0  0  0  0  0  0  0  0  0  0  0
  178.9320  177.9670  141.2580 C   0  0  0  0  0  2  0  0  0  0  0  0
  180.0270  178.4730  142.1980 C   0  0  1  0  0  3  0  0  0  0  0  0
  181.0960  177.3220  138.0650 N   0  0  0  0  0  0  0  0  0  0  0  0
  180.3560  178.5730  137.9120 C   0  0  0  0  0  2  0  0  0  0  0  0
  182.0620  180.2670  137.9520 O   0  0  0  0  0  1  0  0  0  0  0  0
  181.0250  179.6960  138.6940 C   0  0  1  0  0  3  0  0  0  0  0  0
  180.0110  180.7620  139.1090 C   0  0  0  0  0  2  0  0  0  0  0  0
  179.7310  181.7450  138.0200 C   0  0  0  0  0  0  0  0  0  0  0  0
  180.3420  183.0300  138.0440 N   0  0  0  0  0  1  0  0  0  0  0  0
  178.9740  181.4300  137.0660 O   0  0  0  0  0  0  0  0  0  0  0  0
  185.9030  177.0570  135.0640 N   0  0  0  0  0  2  0  0  0  0  0  0
  187.1650  177.0310  135.6780 N   0  0  0  0  0  2  0  0  0  0  0  0
  187.6390  178.3000  135.6670 O   0  0  0  0  0  1  0  0  0  0  0  0
  1 22  1  0  0  0  0
  1  9  2  0  0  0  0
  2 13  1  0  0  0  0
  3  4  1  0  0  0  0
  5 18  2  0  0  0  0
  6 16  1  0  0  0  0
  8 15  1  0  0  0  0
 10 21  2  0  0  0  0
 12  8  2  0  0  0  0
 12 10  1  0  0  0  0
 13  3  2  0  0  0  0
 14  1  1  0  0  0  0
 15 17  2  0  0  0  0
 16 13  1  0  0  0  0
 17 19  1  0  0  0  0
 18 14  1  0  0  0  0
 19  6  1  0  0  0  0
 19  7  2  0  0  0  0
 20  2  1  0  0  0  0
 20 23  1  0  0  0  0
 21 17  1  0  0  0  0
 21 24  1  0  0  0  0
 22 23  1  0  0  0  0
 23 11  1  1  0  0  0
 24 18  1  0  0  0  0
 25 24  1  0  0  0  0
 25 27  1  0  0  0  0
 27 26  1  6  0  0  0
 27 28  1  0  0  0  0
 29 30  1  0  0  0  0
 29 28  1  0  0  0  0
 31 29  2  0  0  0  0
 32 33  1  0  0  0  0
 32  8  1  0  0  0  0
 34 33  1  0  0  0  0
M  END
>  <MODEL>
8

>  <REMARK>
 VINA RESULT:      -4.5      5.747      9.141
  Name = 
  6 active torsions:
  status: ('A' for Active; 'I' for Inactive)
    1  A    between atoms: C_8  and  N_11
    2  A    between atoms: C_9  and  C_23
    3  A    between atoms: C_9  and  N_34
    4  A    between atoms: C_10  and  C_15
    5  A    between atoms: N_11  and  N_21
    6  A    between atoms: C_15  and  C_23
                            x       y       z     vdW  Elec       q    Type
                         _______ _______ _______ _____ _____    ______ ____

>  <TORSDO>
F 6

$$$$
=
 OpenBabel10222418183D

 34 35  0  0  1  0  0  0  0  0999 V2000
  187.4610  178.4060  137.8880 C   0  0  0  0  0  0  0  0  0  0  0  0
  188.2150  176.7540  141.6470 C   0  0  0  0  0  2  0  0  0  0  0  0
  188.8020  178.2740  143.5190 C   0  0  0  0  0  3  0  0  0  0  0  0
  190.1910  178.4650  143.0020 C   0  0  0  0  0  1  0  0  0  0  0  0
  184.9030  180.0820  138.7250 O   0  0  0  0  0  0  0  0  0  0  0  0
  185.7510  178.6720  143.4640 C   0  0  0  0  0  2  0  0  0  0  0  0
  186.1070  179.4940  141.2640 O   0  0  0  0  0  0  0  0  0  0  0  0
  181.5310  178.8370  142.3070 C   0  0  0  0  0  0  0  0  0  0  0  0
  188.0810  179.4540  137.9730 O   0  0  0  0  0  0  0  0  0  0  0  0
  182.1670  178.0980  140.0910 C   0  0  0  0  0  3  0  0  0  0  0  0
  190.0330  177.8170  139.4580 O   0  0  0  0  0  1  0  0  0  0  0  0
  181.1790  178.3780  141.0330 C   0  0  0  0  0  3  0  0  0  0  0  0
  187.8950  177.5010  142.9050 C   0  0  0  0  0  0  0  0  0  0  0  0
  186.0300  178.4230  137.4520 C   0  0  0  0  0  2  0  0  0  0  0  0
  182.8780  179.0240  142.6230 C   0  0  0  0  0  3  0  0  0  0  0  0
  186.5260  177.3570  143.4970 C   0  0  0  0  0  2  0  0  0  0  0  0
  183.8840  178.7650  141.6820 C   0  0  0  0  0  0  0  0  0  0  0  0
  185.1230  178.8520  138.5640 C   0  0  0  0  0  0  0  0  0  0  0  0
  185.2880  178.9940  142.0780 C   0  0  0  0  0  0  0  0  0  0  0  0
  188.0360  177.5980  140.5480 O   0  0  0  0  0  0  0  0  0  0  0  0
  183.5210  178.2890  140.3970 C   0  0  0  0  0  0  0  0  0  0  0  0
  188.1290  177.0950  138.1930 C   0  0  0  0  0  2  0  0  0  0  0  0
  188.8510  177.0780  139.5410 C   0  0  1  0  0  3  0  0  0  0  0  0
  184.5060  177.8830  139.4330 N   0  0  0  0  0  0  0  0  0  0  0  0
  184.6170  176.4610  139.1180 C   0  0  0  0  0  2  0  0  0  0  0  0
  184.5380  175.6200  136.8670 O   0  0  0  0  0  1  0  0  0  0  0  0
  183.7520  176.1030  137.9170 C   0  0  1  0  0  3  0  0  0  0  0  0
  182.6750  175.0860  138.2930 C   0  0  0  0  0  2  0  0  0  0  0  0
  181.3130  175.4910  137.8320 C   0  0  0  0  0  0  0  0  0  0  0  0
  181.1570  176.2050  136.6110 N   0  0  0  0  0  1  0  0  0  0  0  0
  180.3000  175.1800  138.5100 O   0  0  0  0  0  0  0  0  0  0  0  0
  180.5340  179.1240  143.2900 N   0  0  0  0  0  2  0  0  0  0  0  0
  179.3830  178.3360  143.4400 N   0  0  0  0  0  2  0  0  0  0  0  0
  179.6790  177.3640  144.3360 O   0  0  0  0  0  1  0  0  0  0  0  0
  1  9  2  0  0  0  0
  1 22  1  0  0  0  0
  2 13  1  0  0  0  0
  4  3  1  0  0  0  0
  6 16  1  0  0  0  0
  7 19  2  0  0  0  0
  8 15  1  0  0  0  0
  8 32  1  0  0  0  0
 10 21  2  0  0  0  0
 10 12  1  0  0  0  0
 12  8  2  0  0  0  0
 13 16  1  0  0  0  0
 13  3  2  0  0  0  0
 14  1  1  0  0  0  0
 14 18  1  0  0  0  0
 17 19  1  0  0  0  0
 17 15  2  0  0  0  0
 18  5  2  0  0  0  0
 18 24  1  0  0  0  0
 19  6  1  0  0  0  0
 20  2  1  0  0  0  0
 21 17  1  0  0  0  0
 22 23  1  0  0  0  0
 23 11  1  6  0  0  0
 23 20  1  0  0  0  0
 24 21  1  0  0  0  0
 25 24  1  0  0  0  0
 27 26  1  6  0  0  0
 27 28  1  0  0  0  0
 27 25  1  0  0  0  0
 29 28  1  0  0  0  0
 29 31  2  0  0  0  0
 30 29  1  0  0  0  0
 32 33  1  0  0  0  0
 33 34  1  0  0  0  0
M  END
>  <MODEL>
9

>  <REMARK>
 VINA RESULT:      -4.5      4.859      9.224
  Name = 
  6 active torsions:
  status: ('A' for Active; 'I' for Inactive)
    1  A    between atoms: C_8  and  N_11
    2  A    between atoms: C_9  and  C_23
    3  A    between atoms: C_9  and  N_34
    4  A    between atoms: C_10  and  C_15
    5  A    between atoms: N_11  and  N_21
    6  A    between atoms: C_15  and  C_23
                            x       y       z     vdW  Elec       q    Type
                         _______ _______ _______ _____ _____    ______ ____

>  <TORSDO>
F 6

$$$$
