=
 OpenBabel10222420573D

 66 69  0  0  1  0  0  0  0  0999 V2000
  188.1780  177.5340  139.3280 C   0  0  0  0  0  3  0  0  0  0  0  0
  185.2170  179.5530  139.6750 C   0  0  0  0  0  2  0  0  0  0  0  0
  186.9470  177.9260  139.1780 C   0  0  0  0  0  0  0  0  0  0  0  0
  183.6110  178.0090  137.8120 C   0  0  0  0  0  0  0  0  0  0  0  0
  183.7110  179.6330  139.6460 C   0  0  0  0  0  3  0  0  0  0  0  0
  184.9060  177.7000  137.9420 C   0  0  0  0  0  3  0  0  0  0  0  0
  185.7100  178.3040  139.0100 C   0  0  0  0  0  0  0  0  0  0  0  0
  182.9510  178.9420  138.7780 C   0  0  0  0  0  0  0  0  0  0  0  0
  188.6440  176.3880  138.6180 N   0  0  0  0  0  2  0  0  0  0  0  0
  188.8890  176.3970  137.1790 C   0  0  2  0  0  3  0  0  0  0  0  0
  186.1640  174.4440  134.7650 Cl  0  0  0  0  0  0  0  0  0  0  0  0
  187.5830  176.0750  136.4120 C   0  0  0  0  0  2  0  0  0  0  0  0
  190.0920  175.5040  136.7770 C   0  0  2  0  0  3  0  0  0  0  0  0
  189.6780  174.0790  136.5390 C   0  0  0  0  0  3  0  0  0  0  0  0
  187.7540  175.0070  135.3250 C   0  0  1  0  0  3  0  0  0  0  0  0
  188.5590  173.8450  135.8420 C   0  0  0  0  0  3  0  0  0  0  0  0
  192.2500  176.9060  137.6390 O   0  0  0  0  0  0  0  0  0  0  0  0
  190.9820  175.6080  139.3060 O   0  0  0  0  0  0  0  0  0  0  0  0
  191.4950  175.6210  137.8890 S   0  0  0  0  0  0  0  0  0  0  0  0
  192.5330  174.2490  137.6410 N   0  0  0  0  0  2  0  0  0  0  0  0
  193.7460  174.7230  137.0010 C   0  0  0  0  0  2  0  0  0  0  0  0
  194.8850  173.4240  138.6450 O   0  0  0  0  0  1  0  0  0  0  0  0
  194.9280  174.4040  137.8510 C   0  0  0  0  0  0  0  0  0  0  0  0
  196.0660  175.2000  137.7870 O   0  0  0  0  0  0  0  0  0  0  0  0
  181.5130  179.0680  138.8350 N   0  0  0  0  0  0  0  0  0  0  0  0
  181.8770  179.3800  141.2420 C   0  0  0  0  0  2  0  0  0  0  0  0
  180.8500  179.2090  140.1430 C   0  0  2  0  0  3  0  0  0  0  0  0
  179.9800  178.0020  140.4800 C   0  0  0  0  0  2  0  0  0  0  0  0
  180.0150  177.7230  142.2770 S   0  0  0  0  0  0  0  0  0  0  0  0
  181.1670  179.1110  142.5480 C   0  0  1  0  0  3  0  0  0  0  0  0
  183.1300  179.5810  143.8890 N   0  0  0  0  0  0  0  0  0  0  0  0
  182.1800  178.7610  143.5870 C   0  0  0  0  0  3  0  0  0  0  0  0
  185.1610  178.3670  144.5710 C   0  0  0  0  0  0  0  0  0  0  0  0
  184.0620  179.2260  144.8690 N   0  0  0  0  0  2  0  0  0  0  0  0
  185.3430  177.9510  143.3930 O   0  0  0  0  0  0  0  0  0  0  0  0
  186.0860  177.9450  145.6640 C   0  0  0  0  0  2  0  0  0  0  0  0
  187.5020  178.4130  145.3730 C   0  0  0  0  0  2  0  0  0  0  0  0
  188.1180  177.5900  144.2430 C   0  0  2  0  0  3  0  0  0  0  0  0
  189.4160  176.8530  144.5740 C   0  0  2  0  0  0  0  0  0  0  0  0
  189.4680  178.1290  143.7320 C   0  0  2  0  0  3  0  0  0  0  0  0
  190.7020  175.7440  142.8950 O   0  0  0  0  0  1  0  0  0  0  0  0
  189.5980  175.6000  143.7310 C   0  0  0  0  0  2  0  0  0  0  0  0
  189.9070  179.2340  144.4710 O   0  0  0  0  0  0  0  0  0  0  0  0
  192.1890  178.8270  143.9240 C   0  0  0  0  0  1  0  0  0  0  0  0
  190.9910  179.7370  143.7440 C   0  0  0  0  0  2  0  0  0  0  0  0
  190.0850  176.8370  145.9830 C   0  0  1  0  0  3  0  0  0  0  0  0
  188.0890  178.2680  148.8560 O   0  0  0  0  0  1  0  0  0  0  0  0
  189.0110  178.1370  147.8690 N   0  0  0  0  0  2  0  0  0  0  0  0
  188.2130  176.0380  147.2560 O   0  0  0  0  0  0  0  0  0  0  0  0
  189.0540  176.9590  147.0680 C   0  0  0  0  0  0  0  0  0  0  0  0
  190.9100  175.7300  146.2240 O   0  0  0  0  0  0  0  0  0  0  0  0
  192.1120  176.2670  146.6960 C   0  0  0  0  0  2  0  0  0  0  0  0
  193.1430  176.5990  148.8610 N   0  0  0  0  0  1  0  0  0  0  0  0
  192.4710  175.6250  148.0250 C   0  0  0  0  0  2  0  0  0  0  0  0
  180.3260  179.7580  136.9390 O   0  0  0  0  0  1  0  0  0  0  0  0
  180.7110  178.6440  137.6830 C   0  0  0  0  0  2  0  0  0  0  0  0
  182.8930  177.4850  136.6090 C   0  0  0  0  0  2  0  0  0  0  0  0
  182.5770  175.2770  135.6000 C   0  0  0  0  0  3  0  0  0  0  0  0
  182.8030  175.9960  136.6930 C   0  0  0  0  0  3  0  0  0  0  0  0
  182.4710  173.7920  135.6960 C   0  0  0  0  0  2  0  0  0  0  0  0
  181.3280  173.3980  136.6180 C   0  0  1  0  0  3  0  0  0  0  0  0
  179.8490  174.3750  137.9410 C   0  0  0  0  0  1  0  0  0  0  0  0
  180.3890  174.4330  136.6610 O   0  0  0  0  0  0  0  0  0  0  0  0
  180.6620  172.1290  136.0980 C   0  0  0  0  0  2  0  0  0  0  0  0
  181.1540  170.1220  135.3190 C   0  0  0  0  0  1  0  0  0  0  0  0
  181.4930  171.0290  136.3240 O   0  0  0  0  0  0  0  0  0  0  0  0
  3  1  2  0  0  0  0
  4  6  2  0  0  0  0
  4  8  1  0  0  0  0
  5  2  1  0  0  0  0
  6  7  1  0  0  0  0
  7  3  2  0  0  0  0
  7  2  1  0  0  0  0
  8 25  1  0  0  0  0
  8  5  2  0  0  0  0
  9  1  1  0  0  0  0
 10  9  1  1  0  0  0
 12 10  1  0  0  0  0
 13 10  1  0  0  0  0
 13 19  1  1  0  0  0
 14 13  1  0  0  0  0
 15 11  1  1  0  0  0
 15 16  1  0  0  0  0
 15 12  1  0  0  0  0
 16 14  2  0  0  0  0
 17 19  2  0  0  0  0
 19 18  2  0  0  0  0
 20 19  1  0  0  0  0
 21 20  1  0  0  0  0
 21 23  1  0  0  0  0
 23 22  1  0  0  0  0
 24 23  2  0  0  0  0
 26 30  1  0  0  0  0
 27 25  1  6  0  0  0
 27 28  1  0  0  0  0
 27 26  1  0  0  0  0
 28 29  1  0  0  0  0
 29 30  1  0  0  0  0
 30 32  1  1  0  0  0
 31 34  1  0  0  0  0
 32 31  2  0  0  0  0
 33 34  1  0  0  0  0
 33 36  1  0  0  0  0
 35 33  2  0  0  0  0
 37 36  1  0  0  0  0
 38 39  1  0  0  0  0
 38 37  1  1  0  0  0
 39 42  1  6  0  0  0
 39 46  1  0  0  0  0
 40 38  1  0  0  0  0
 40 43  1  1  0  0  0
 40 39  1  0  0  0  0
 41 42  1  0  0  0  0
 45 44  1  0  0  0  0
 45 43  1  0  0  0  0
 46 51  1  1  0  0  0
 46 50  1  0  0  0  0
 48 47  1  0  0  0  0
 50 49  2  0  0  0  0
 50 48  1  0  0  0  0
 51 52  1  0  0  0  0
 52 54  1  0  0  0  0
 54 53  1  0  0  0  0
 55 56  1  0  0  0  0
 56 25  1  0  0  0  0
 57 59  1  0  0  0  0
 57  4  1  0  0  0  0
 58 60  1  0  0  0  0
 58 59  2  0  0  0  0
 61 60  1  6  0  0  0
 61 63  1  0  0  0  0
 63 62  1  0  0  0  0
 64 66  1  0  0  0  0
 64 61  1  0  0  0  0
 65 66  1  0  0  0  0
M  END
>  <MODEL>
1

>  <REMARK>
 VINA RESULT:      -4.9      0.000      0.000
  Name = 
  29 active torsions:
  status: ('A' for Active; 'I' for Inactive)
    1  A    between atoms: C_1  and  C_18
    2  A    between atoms: C_1  and  C_55
    3  A    between atoms: C_6  and  C_26
    4  A    between atoms: C_6  and  C_47
    5  A    between atoms: C_7  and  N_17
    6  A    between atoms: C_10  and  N_17
    7  A    between atoms: O_12  and  C_53
    8  A    between atoms: O_12  and  C_66
    9  A    between atoms: N_13  and  N_21
   10  A    between atoms: O_14  and  C_15
   11  A    between atoms: O_14  and  C_62
   12  A    between atoms: C_15  and  C_60
   13  A    between atoms: N_16  and  C_33
   14  A    between atoms: N_16  and  C_50
   15  A    between atoms: N_16  and  C_56
   16  A    between atoms: C_19  and  C_26
   17  A    between atoms: C_23  and  C_65
   18  A    between atoms: C_28  and  C_39
   19  A    between atoms: C_29  and  S_31
   20  A    between atoms: S_31  and  N_43
   21  A    between atoms: C_34  and  C_41
   22  A    between atoms: O_37  and  C_58
   23  A    between atoms: C_39  and  C_58
   24  A    between atoms: C_41  and  N_43
   25  A    between atoms: C_46  and  O_51
   26  A    between atoms: C_46  and  C_58
   27  A    between atoms: C_49  and  C_61
   28  A    between atoms: C_49  and  C_62
   29  A    between atoms: C_62  and  C_64
                            x       y       z     vdW  Elec       q    Type
                         _______ _______ _______ _____ _____    ______ ____

>  <TORSDO>
F 29

$$$$
=
 OpenBabel10222420573D

 66 69  0  0  1  0  0  0  0  0999 V2000
  189.6680  177.5730  136.9220 C   0  0  0  0  0  3  0  0  0  0  0  0
  186.5750  178.1700  138.6650 C   0  0  0  0  0  2  0  0  0  0  0  0
  188.3890  177.6310  137.1460 C   0  0  0  0  0  0  0  0  0  0  0  0
  184.8610  177.5470  136.4050 C   0  0  0  0  0  0  0  0  0  0  0  0
  185.1120  177.8410  138.8260 C   0  0  0  0  0  3  0  0  0  0  0  0
  186.1830  177.5830  136.2080 C   0  0  0  0  0  3  0  0  0  0  0  0
  187.1020  177.6870  137.3470 C   0  0  0  0  0  0  0  0  0  0  0  0
  184.2970  177.5700  137.7910 C   0  0  0  0  0  0  0  0  0  0  0  0
  190.1410  177.1890  135.6320 N   0  0  0  0  0  2  0  0  0  0  0  0
  190.2180  175.7960  135.2030 C   0  0  2  0  0  3  0  0  0  0  0  0
  186.7320  173.5790  135.2710 Cl  0  0  0  0  0  0  0  0  0  0  0  0
  188.8100  175.2740  134.8260 C   0  0  0  0  0  2  0  0  0  0  0  0
  190.9680  174.9010  136.2240 C   0  0  2  0  0  3  0  0  0  0  0  0
  190.0460  174.3600  137.2800 C   0  0  0  0  0  3  0  0  0  0  0  0
  188.4680  173.9160  135.4500 C   0  0  1  0  0  3  0  0  0  0  0  0
  188.8510  173.8880  136.9060 C   0  0  0  0  0  3  0  0  0  0  0  0
  193.1950  176.4100  135.8640 O   0  0  0  0  0  0  0  0  0  0  0  0
  191.9900  176.6310  138.0020 O   0  0  0  0  0  0  0  0  0  0  0  0
  192.4300  175.6640  136.9320 S   0  0  0  0  0  0  0  0  0  0  0  0
  193.4250  174.4310  137.6460 N   0  0  0  0  0  2  0  0  0  0  0  0
  194.5900  174.2590  136.7970 C   0  0  0  0  0  2  0  0  0  0  0  0
  195.3590  172.2280  137.7840 O   0  0  0  0  0  1  0  0  0  0  0  0
  194.9690  172.8180  136.7400 C   0  0  0  0  0  0  0  0  0  0  0  0
  194.9140  172.1320  135.5310 O   0  0  0  0  0  0  0  0  0  0  0  0
  182.9110  177.2480  138.0420 N   0  0  0  0  0  0  0  0  0  0  0  0
  183.0660  178.3260  140.2410 C   0  0  0  0  0  2  0  0  0  0  0  0
  182.1680  177.9990  139.0670 C   0  0  2  0  0  3  0  0  0  0  0  0
  180.9610  177.2250  139.5860 C   0  0  0  0  0  2  0  0  0  0  0  0
  180.7070  177.6190  141.3430 S   0  0  0  0  0  0  0  0  0  0  0  0
  182.1630  178.7160  141.3870 C   0  0  1  0  0  3  0  0  0  0  0  0
  184.1290  178.9600  142.7840 N   0  0  0  0  0  0  0  0  0  0  0  0
  182.9090  178.5520  142.6700 C   0  0  0  0  0  3  0  0  0  0  0  0
  185.8650  177.8570  144.1360 C   0  0  0  0  0  0  0  0  0  0  0  0
  184.8000  178.7960  143.9990 N   0  0  0  0  0  2  0  0  0  0  0  0
  186.2590  177.1900  143.1400 O   0  0  0  0  0  0  0  0  0  0  0  0
  186.5010  177.6520  145.4720 C   0  0  0  0  0  2  0  0  0  0  0  0
  187.9230  177.1410  145.3110 C   0  0  0  0  0  2  0  0  0  0  0  0
  188.9220  178.2900  145.4300 C   0  0  2  0  0  3  0  0  0  0  0  0
  190.1570  178.2090  144.5310 C   0  0  2  0  0  0  0  0  0  0  0  0
  190.2860  177.8840  146.0210 C   0  0  2  0  0  3  0  0  0  0  0  0
  192.0840  179.4970  143.9570 O   0  0  0  0  0  1  0  0  0  0  0  0
  190.7140  179.5830  144.1920 C   0  0  0  0  0  2  0  0  0  0  0  0
  190.3670  176.5060  146.2570 O   0  0  0  0  0  0  0  0  0  0  0  0
  191.9780  176.1070  147.9650 C   0  0  0  0  0  1  0  0  0  0  0  0
  190.5260  176.3940  147.6420 C   0  0  0  0  0  2  0  0  0  0  0  0
  190.4060  177.0870  143.4770 C   0  0  1  0  0  3  0  0  0  0  0  0
  188.2760  178.6890  140.7960 O   0  0  0  0  0  1  0  0  0  0  0  0
  188.7380  178.2990  142.0110 N   0  0  0  0  0  2  0  0  0  0  0  0
  190.5590  177.1870  141.0830 O   0  0  0  0  0  0  0  0  0  0  0  0
  189.9180  177.5080  142.1200 C   0  0  0  0  0  0  0  0  0  0  0  0
  191.7340  176.6470  143.3970 O   0  0  0  0  0  0  0  0  0  0  0  0
  191.6570  175.2510  143.4040 C   0  0  0  0  0  2  0  0  0  0  0  0
  192.5600  173.3550  144.6070 N   0  0  0  0  0  1  0  0  0  0  0  0
  192.1050  174.7220  144.7560 C   0  0  0  0  0  2  0  0  0  0  0  0
  181.5700  175.4100  138.5950 O   0  0  0  0  0  1  0  0  0  0  0  0
  182.3870  175.9510  137.6030 C   0  0  0  0  0  2  0  0  0  0  0  0
  183.9810  177.6060  135.1970 C   0  0  0  0  0  2  0  0  0  0  0  0
  183.3790  175.2350  135.3020 C   0  0  0  0  0  3  0  0  0  0  0  0
  183.8730  176.2420  134.5940 C   0  0  0  0  0  3  0  0  0  0  0  0
  183.2910  173.8730  134.6970 C   0  0  0  0  0  2  0  0  0  0  0  0
  182.2690  173.0260  135.4390 C   0  0  1  0  0  3  0  0  0  0  0  0
  180.2420  172.1970  135.1330 C   0  0  0  0  0  1  0  0  0  0  0  0
  180.9830  173.3660  135.0080 O   0  0  0  0  0  0  0  0  0  0  0  0
  182.5250  171.5490  135.1580 C   0  0  0  0  0  2  0  0  0  0  0  0
  183.8390  171.5680  136.9320 C   0  0  0  0  0  1  0  0  0  0  0  0
  183.8070  171.1990  135.5870 O   0  0  0  0  0  0  0  0  0  0  0  0
  1  3  2  0  0  0  0
  2  5  1  0  0  0  0
  3  7  2  0  0  0  0
  4  8  1  0  0  0  0
  6  4  2  0  0  0  0
  6  7  1  0  0  0  0
  7  2  1  0  0  0  0
  8 25  1  0  0  0  0
  8  5  2  0  0  0  0
  9  1  1  0  0  0  0
 10  9  1  1  0  0  0
 10 13  1  0  0  0  0
 12 10  1  0  0  0  0
 12 15  1  0  0  0  0
 13 19  1  1  0  0  0
 13 14  1  0  0  0  0
 15 11  1  1  0  0  0
 15 16  1  0  0  0  0
 16 14  2  0  0  0  0
 17 19  2  0  0  0  0
 19 20  1  0  0  0  0
 19 18  2  0  0  0  0
 21 20  1  0  0  0  0
 23 21  1  0  0  0  0
 23 22  1  0  0  0  0
 24 23  2  0  0  0  0
 26 30  1  0  0  0  0
 27 25  1  6  0  0  0
 27 28  1  0  0  0  0
 27 26  1  0  0  0  0
 28 29  1  0  0  0  0
 29 30  1  0  0  0  0
 30 32  1  1  0  0  0
 31 34  1  0  0  0  0
 32 31  2  0  0  0  0
 33 36  1  0  0  0  0
 34 33  1  0  0  0  0
 35 33  2  0  0  0  0
 37 36  1  0  0  0  0
 38 37  1  6  0  0  0
 38 40  1  0  0  0  0
 39 42  1  6  0  0  0
 39 38  1  0  0  0  0
 39 40  1  0  0  0  0
 40 43  1  6  0  0  0
 41 42  1  0  0  0  0
 43 45  1  0  0  0  0
 45 44  1  0  0  0  0
 46 50  1  6  0  0  0
 46 39  1  0  0  0  0
 47 48  1  0  0  0  0
 48 50  1  0  0  0  0
 49 50  2  0  0  0  0
 51 52  1  0  0  0  0
 51 46  1  0  0  0  0
 52 54  1  0  0  0  0
 53 54  1  0  0  0  0
 56 25  1  0  0  0  0
 56 55  1  0  0  0  0
 57  4  1  0  0  0  0
 59 57  1  0  0  0  0
 59 58  2  0  0  0  0
 60 58  1  0  0  0  0
 61 60  1  6  0  0  0
 63 62  1  0  0  0  0
 63 61  1  0  0  0  0
 64 61  1  0  0  0  0
 64 66  1  0  0  0  0
 66 65  1  0  0  0  0
M  END
>  <MODEL>
2

>  <REMARK>
 VINA RESULT:      -4.4      1.947      2.932
  Name = 
  29 active torsions:
  status: ('A' for Active; 'I' for Inactive)
    1  A    between atoms: C_1  and  C_18
    2  A    between atoms: C_1  and  C_55
    3  A    between atoms: C_6  and  C_26
    4  A    between atoms: C_6  and  C_47
    5  A    between atoms: C_7  and  N_17
    6  A    between atoms: C_10  and  N_17
    7  A    between atoms: O_12  and  C_53
    8  A    between atoms: O_12  and  C_66
    9  A    between atoms: N_13  and  N_21
   10  A    between atoms: O_14  and  C_15
   11  A    between atoms: O_14  and  C_62
   12  A    between atoms: C_15  and  C_60
   13  A    between atoms: N_16  and  C_33
   14  A    between atoms: N_16  and  C_50
   15  A    between atoms: N_16  and  C_56
   16  A    between atoms: C_19  and  C_26
   17  A    between atoms: C_23  and  C_65
   18  A    between atoms: C_28  and  C_39
   19  A    between atoms: C_29  and  S_31
   20  A    between atoms: S_31  and  N_43
   21  A    between atoms: C_34  and  C_41
   22  A    between atoms: O_37  and  C_58
   23  A    between atoms: C_39  and  C_58
   24  A    between atoms: C_41  and  N_43
   25  A    between atoms: C_46  and  O_51
   26  A    between atoms: C_46  and  C_58
   27  A    between atoms: C_49  and  C_61
   28  A    between atoms: C_49  and  C_62
   29  A    between atoms: C_62  and  C_64
                            x       y       z     vdW  Elec       q    Type
                         _______ _______ _______ _____ _____    ______ ____

>  <TORSDO>
F 29

$$$$
=
 OpenBabel10222420573D

 66 69  0  0  1  0  0  0  0  0999 V2000
  187.4360  177.8080  138.8180 C   0  0  0  0  0  3  0  0  0  0  0  0
  184.6140  180.0400  138.9200 C   0  0  0  0  0  2  0  0  0  0  0  0
  186.2230  178.2440  138.6510 C   0  0  0  0  0  0  0  0  0  0  0  0
  182.8280  178.2960  137.4350 C   0  0  0  0  0  0  0  0  0  0  0  0
  183.1150  180.2090  138.9400 C   0  0  0  0  0  3  0  0  0  0  0  0
  184.1090  177.9330  137.5640 C   0  0  0  0  0  3  0  0  0  0  0  0
  185.0010  178.6640  138.4700 C   0  0  0  0  0  0  0  0  0  0  0  0
  182.2730  179.4260  138.2440 C   0  0  0  0  0  0  0  0  0  0  0  0
  187.8000  176.5260  138.3060 N   0  0  0  0  0  2  0  0  0  0  0  0
  187.5070  176.1110  136.9380 C   0  0  2  0  0  3  0  0  0  0  0  0
  184.2930  173.5800  136.3560 Cl  0  0  0  0  0  0  0  0  0  0  0  0
  186.0490  175.5990  136.8350 C   0  0  0  0  0  2  0  0  0  0  0  0
  188.5620  175.1200  136.3810 C   0  0  2  0  0  3  0  0  0  0  0  0
  188.2280  173.6940  136.7190 C   0  0  0  0  0  3  0  0  0  0  0  0
  185.9170  174.2580  136.1040 C   0  0  1  0  0  3  0  0  0  0  0  0
  186.9610  173.2840  136.5830 C   0  0  0  0  0  3  0  0  0  0  0  0
  190.5130  176.9990  136.5470 O   0  0  0  0  0  0  0  0  0  0  0  0
  190.4590  175.2440  138.2750 O   0  0  0  0  0  0  0  0  0  0  0  0
  190.2550  175.5340  136.8100 S   0  0  0  0  0  0  0  0  0  0  0  0
  191.3360  174.5470  135.8730 N   0  0  0  0  0  2  0  0  0  0  0  0
  192.2580  173.9070  136.7940 C   0  0  0  0  0  2  0  0  0  0  0  0
  194.5470  173.3300  136.4510 O   0  0  0  0  0  1  0  0  0  0  0  0
  193.6630  174.2290  136.4130 C   0  0  0  0  0  0  0  0  0  0  0  0
  194.0020  175.5250  136.0390 O   0  0  0  0  0  0  0  0  0  0  0  0
  180.8490  179.6510  138.3380 N   0  0  0  0  0  0  0  0  0  0  0  0
  181.0980  179.5540  140.7780 C   0  0  0  0  0  2  0  0  0  0  0  0
  180.1550  179.3740  139.6070 C   0  0  2  0  0  3  0  0  0  0  0  0
  179.5900  177.9580  139.6570 C   0  0  0  0  0  2  0  0  0  0  0  0
  179.6660  177.3440  141.3670 S   0  0  0  0  0  0  0  0  0  0  0  0
  180.4550  178.8760  141.9640 C   0  0  1  0  0  3  0  0  0  0  0  0
  182.6660  179.1360  142.9210 N   0  0  0  0  0  0  0  0  0  0  0  0
  181.5080  178.5680  142.9760 C   0  0  0  0  0  3  0  0  0  0  0  0
  184.8930  178.2720  143.5200 C   0  0  0  0  0  0  0  0  0  0  0  0
  183.6320  178.8300  143.8860 N   0  0  0  0  0  2  0  0  0  0  0  0
  185.1820  178.0940  142.3040 O   0  0  0  0  0  0  0  0  0  0  0  0
  185.8640  177.8810  144.5850 C   0  0  0  0  0  2  0  0  0  0  0  0
  187.2650  178.3440  144.2230 C   0  0  0  0  0  2  0  0  0  0  0  0
  188.0020  177.2600  143.4400 C   0  0  2  0  0  3  0  0  0  0  0  0
  189.1870  176.6010  144.1490 C   0  0  2  0  0  0  0  0  0  0  0  0
  189.4460  177.6330  143.0500 C   0  0  2  0  0  3  0  0  0  0  0  0
  189.9620  175.1920  142.3840 O   0  0  0  0  0  1  0  0  0  0  0  0
  189.4250  175.1770  143.6690 C   0  0  0  0  0  2  0  0  0  0  0  0
  189.8260  178.8760  143.5700 O   0  0  0  0  0  0  0  0  0  0  0  0
  192.1120  179.3210  144.0690 C   0  0  0  0  0  1  0  0  0  0  0  0
  191.0700  179.1370  142.9860 C   0  0  0  0  0  2  0  0  0  0  0  0
  189.6220  176.9150  145.6130 C   0  0  1  0  0  3  0  0  0  0  0  0
  192.7690  175.8100  147.3920 O   0  0  0  0  0  1  0  0  0  0  0  0
  191.4820  176.1700  147.1590 N   0  0  0  0  0  2  0  0  0  0  0  0
  191.8640  176.4640  144.8820 O   0  0  0  0  0  0  0  0  0  0  0  0
  191.0510  176.5170  145.8450 C   0  0  0  0  0  0  0  0  0  0  0  0
  189.4210  178.2440  146.0080 O   0  0  0  0  0  0  0  0  0  0  0  0
  189.0970  178.1760  147.3660 C   0  0  0  0  0  2  0  0  0  0  0  0
  186.7790  178.8700  147.2770 N   0  0  0  0  0  1  0  0  0  0  0  0
  187.6500  177.7390  147.5240 C   0  0  0  0  0  2  0  0  0  0  0  0
  180.5610  180.7490  136.2900 O   0  0  0  0  0  1  0  0  0  0  0  0
  180.0550  179.7400  137.1090 C   0  0  0  0  0  2  0  0  0  0  0  0
  182.0200  177.6150  136.3770 C   0  0  0  0  0  2  0  0  0  0  0  0
  181.0120  175.6750  137.4800 C   0  0  0  0  0  3  0  0  0  0  0  0
  181.9500  176.1510  136.6700 C   0  0  0  0  0  3  0  0  0  0  0  0
  180.9600  174.2140  137.7800 C   0  0  0  0  0  2  0  0  0  0  0  0
  179.5270  173.7730  138.0340 C   0  0  1  0  0  3  0  0  0  0  0  0
  179.9980  172.9440  136.0390 C   0  0  0  0  0  1  0  0  0  0  0  0
  178.9400  173.3820  136.8270 O   0  0  0  0  0  0  0  0  0  0  0  0
  179.5150  172.6000  139.0090 C   0  0  0  0  0  2  0  0  0  0  0  0
  179.7790  173.9840  140.7090 C   0  0  0  0  0  1  0  0  0  0  0  0
  178.9310  172.9910  140.2160 O   0  0  0  0  0  0  0  0  0  0  0  0
  2  5  1  0  0  0  0
  3  1  2  0  0  0  0
  4  6  2  0  0  0  0
  4  8  1  0  0  0  0
  6  7  1  0  0  0  0
  7  3  2  0  0  0  0
  7  2  1  0  0  0  0
  8 25  1  0  0  0  0
  8  5  2  0  0  0  0
  9  1  1  0  0  0  0
 10  9  1  1  0  0  0
 12 10  1  0  0  0  0
 13 14  1  0  0  0  0
 13 19  1  1  0  0  0
 13 10  1  0  0  0  0
 15 11  1  1  0  0  0
 15 16  1  0  0  0  0
 15 12  1  0  0  0  0
 16 14  2  0  0  0  0
 17 19  2  0  0  0  0
 19 18  2  0  0  0  0
 20 21  1  0  0  0  0
 20 19  1  0  0  0  0
 23 22  1  0  0  0  0
 23 21  1  0  0  0  0
 24 23  2  0  0  0  0
 26 30  1  0  0  0  0
 27 25  1  6  0  0  0
 27 28  1  0  0  0  0
 27 26  1  0  0  0  0
 28 29  1  0  0  0  0
 29 30  1  0  0  0  0
 30 32  1  1  0  0  0
 31 32  2  0  0  0  0
 31 34  1  0  0  0  0
 33 34  1  0  0  0  0
 33 36  1  0  0  0  0
 35 33  2  0  0  0  0
 37 36  1  0  0  0  0
 38 39  1  0  0  0  0
 38 37  1  1  0  0  0
 39 42  1  6  0  0  0
 39 46  1  0  0  0  0
 40 38  1  0  0  0  0
 40 43  1  1  0  0  0
 40 39  1  0  0  0  0
 41 42  1  0  0  0  0
 45 43  1  0  0  0  0
 45 44  1  0  0  0  0
 46 50  1  6  0  0  0
 46 51  1  0  0  0  0
 48 47  1  0  0  0  0
 49 50  2  0  0  0  0
 50 48  1  0  0  0  0
 51 52  1  0  0  0  0
 52 54  1  0  0  0  0
 53 54  1  0  0  0  0
 55 56  1  0  0  0  0
 56 25  1  0  0  0  0
 57 59  1  0  0  0  0
 57  4  1  0  0  0  0
 58 60  1  0  0  0  0
 59 58  2  0  0  0  0
 61 60  1  6  0  0  0
 61 64  1  0  0  0  0
 62 63  1  0  0  0  0
 63 61  1  0  0  0  0
 64 66  1  0  0  0  0
 66 65  1  0  0  0  0
M  END
>  <MODEL>
3

>  <REMARK>
 VINA RESULT:      -4.4      1.550      2.341
  Name = 
  29 active torsions:
  status: ('A' for Active; 'I' for Inactive)
    1  A    between atoms: C_1  and  C_18
    2  A    between atoms: C_1  and  C_55
    3  A    between atoms: C_6  and  C_26
    4  A    between atoms: C_6  and  C_47
    5  A    between atoms: C_7  and  N_17
    6  A    between atoms: C_10  and  N_17
    7  A    between atoms: O_12  and  C_53
    8  A    between atoms: O_12  and  C_66
    9  A    between atoms: N_13  and  N_21
   10  A    between atoms: O_14  and  C_15
   11  A    between atoms: O_14  and  C_62
   12  A    between atoms: C_15  and  C_60
   13  A    between atoms: N_16  and  C_33
   14  A    between atoms: N_16  and  C_50
   15  A    between atoms: N_16  and  C_56
   16  A    between atoms: C_19  and  C_26
   17  A    between atoms: C_23  and  C_65
   18  A    between atoms: C_28  and  C_39
   19  A    between atoms: C_29  and  S_31
   20  A    between atoms: S_31  and  N_43
   21  A    between atoms: C_34  and  C_41
   22  A    between atoms: O_37  and  C_58
   23  A    between atoms: C_39  and  C_58
   24  A    between atoms: C_41  and  N_43
   25  A    between atoms: C_46  and  O_51
   26  A    between atoms: C_46  and  C_58
   27  A    between atoms: C_49  and  C_61
   28  A    between atoms: C_49  and  C_62
   29  A    between atoms: C_62  and  C_64
                            x       y       z     vdW  Elec       q    Type
                         _______ _______ _______ _____ _____    ______ ____

>  <TORSDO>
F 29

$$$$
=
 OpenBabel10222420573D

 66 69  0  0  1  0  0  0  0  0999 V2000
  184.4480  178.3630  134.7330 C   0  0  0  0  0  3  0  0  0  0  0  0
  187.7690  176.9800  134.8560 C   0  0  0  0  0  2  0  0  0  0  0  0
  185.4060  177.5200  134.9770 C   0  0  0  0  0  0  0  0  0  0  0  0
  187.0270  174.6130  136.3670 C   0  0  0  0  0  0  0  0  0  0  0  0
  188.6430  175.7520  134.9180 C   0  0  0  0  0  3  0  0  0  0  0  0
  186.0970  175.5520  136.1600 C   0  0  0  0  0  3  0  0  0  0  0  0
  186.3540  176.6620  135.2360 C   0  0  0  0  0  0  0  0  0  0  0  0
  188.3270  174.6550  135.6280 C   0  0  0  0  0  0  0  0  0  0  0  0
  183.1240  178.0720  135.1790 N   0  0  0  0  0  2  0  0  0  0  0  0
  182.7480  178.0730  136.5900 C   0  0  2  0  0  3  0  0  0  0  0  0
  182.1460  174.4130  138.4090 Cl  0  0  0  0  0  0  0  0  0  0  0  0
  183.0380  176.6890  137.2210 C   0  0  0  0  0  2  0  0  0  0  0  0
  181.2990  178.5780  136.8170 C   0  0  2  0  0  3  0  0  0  0  0  0
  180.2940  177.4660  136.7120 C   0  0  0  0  0  3  0  0  0  0  0  0
  181.8700  176.1300  138.0430 C   0  0  1  0  0  3  0  0  0  0  0  0
  180.5700  176.2960  137.3020 C   0  0  0  0  0  3  0  0  0  0  0  0
  181.7940  180.1140  134.6340 O   0  0  0  0  0  0  0  0  0  0  0  0
  179.4440  179.7830  135.2980 O   0  0  0  0  0  0  0  0  0  0  0  0
  180.8480  179.9910  135.8060 S   0  0  0  0  0  0  0  0  0  0  0  0
  180.8990  181.4280  136.7820 N   0  0  0  0  0  2  0  0  0  0  0  0
  181.4810  182.4870  135.9780 C   0  0  0  0  0  2  0  0  0  0  0  0
  180.6300  184.7010  135.7300 O   0  0  0  0  0  1  0  0  0  0  0  0
  180.4260  183.4650  135.5860 C   0  0  0  0  0  0  0  0  0  0  0  0
  179.2100  183.0120  135.0850 O   0  0  0  0  0  0  0  0  0  0  0  0
  189.2180  173.5170  135.6160 N   0  0  0  0  0  0  0  0  0  0  0  0
  190.5240  174.5120  137.4410 C   0  0  0  0  0  2  0  0  0  0  0  0
  190.5640  173.6470  136.1990 C   0  0  2  0  0  3  0  0  0  0  0  0
  191.5600  174.2590  135.2190 C   0  0  0  0  0  2  0  0  0  0  0  0
  192.7640  175.2650  136.1390 S   0  0  0  0  0  0  0  0  0  0  0  0
  191.9470  174.9220  137.7340 C   0  0  1  0  0  3  0  0  0  0  0  0
  191.2150  176.1920  139.6640 N   0  0  0  0  0  0  0  0  0  0  0  0
  191.9320  176.1440  138.5910 C   0  0  0  0  0  3  0  0  0  0  0  0
  192.2370  177.5710  141.4300 C   0  0  0  0  0  0  0  0  0  0  0  0
  191.2240  177.3490  140.4500 N   0  0  0  0  0  2  0  0  0  0  0  0
  193.1800  176.7440  141.5690 O   0  0  0  0  0  0  0  0  0  0  0  0
  192.1640  178.7780  142.3050 C   0  0  0  0  0  2  0  0  0  0  0  0
  191.5710  178.4200  143.6580 C   0  0  0  0  0  2  0  0  0  0  0  0
  190.8730  177.0620  143.5940 C   0  0  2  0  0  3  0  0  0  0  0  0
  189.3440  177.0850  143.6250 C   0  0  2  0  0  0  0  0  0  0  0  0
  190.1180  176.6790  144.8810 C   0  0  2  0  0  3  0  0  0  0  0  0
  189.7410  175.0110  142.5110 O   0  0  0  0  0  1  0  0  0  0  0  0
  188.7360  175.8880  142.9120 C   0  0  0  0  0  2  0  0  0  0  0  0
  190.1530  177.7030  145.8360 O   0  0  0  0  0  0  0  0  0  0  0  0
  191.6210  176.5180  147.2900 C   0  0  0  0  0  1  0  0  0  0  0  0
  190.2160  177.0370  147.0650 C   0  0  0  0  0  2  0  0  0  0  0  0
  188.4840  178.3860  143.6430 C   0  0  1  0  0  3  0  0  0  0  0  0
  187.1140  178.4670  140.1200 O   0  0  0  0  0  1  0  0  0  0  0  0
  187.9810  178.4550  141.1640 N   0  0  0  0  0  2  0  0  0  0  0  0
  186.2640  178.3250  142.7290 O   0  0  0  0  0  0  0  0  0  0  0  0
  187.5030  178.3950  142.5050 C   0  0  0  0  0  0  0  0  0  0  0  0
  187.8200  178.6300  144.8520 O   0  0  0  0  0  0  0  0  0  0  0  0
  186.7330  177.7510  144.8560 C   0  0  0  0  0  2  0  0  0  0  0  0
  185.4860  178.5720  146.7610 N   0  0  0  0  0  1  0  0  0  0  0  0
  186.3040  177.4750  146.2870 C   0  0  0  0  0  2  0  0  0  0  0  0
  188.1180  171.4780  135.2820 O   0  0  0  0  0  1  0  0  0  0  0  0
  188.9590  172.4150  134.6840 C   0  0  0  0  0  2  0  0  0  0  0  0
  186.7630  173.6050  137.4400 C   0  0  0  0  0  2  0  0  0  0  0  0
  184.6010  172.9340  136.5070 C   0  0  0  0  0  3  0  0  0  0  0  0
  185.2910  173.3720  137.5530 C   0  0  0  0  0  3  0  0  0  0  0  0
  183.1290  172.7200  136.6250 C   0  0  0  0  0  2  0  0  0  0  0  0
  182.6580  171.6910  135.6100 C   0  0  1  0  0  3  0  0  0  0  0  0
  183.9030  169.8750  135.8240 C   0  0  0  0  0  1  0  0  0  0  0  0
  182.6780  170.4200  136.1920 O   0  0  0  0  0  0  0  0  0  0  0  0
  181.2380  172.0220  135.1620 C   0  0  0  0  0  2  0  0  0  0  0  0
  179.0720  171.8170  135.5370 C   0  0  0  0  0  1  0  0  0  0  0  0
  180.3200  171.5210  136.0870 O   0  0  0  0  0  0  0  0  0  0  0  0
  1  3  2  0  0  0  0
  1  9  1  0  0  0  0
  2  5  1  0  0  0  0
  2  7  1  0  0  0  0
  3  7  2  0  0  0  0
  4 57  1  0  0  0  0
  5  8  2  0  0  0  0
  6  4  2  0  0  0  0
  7  6  1  0  0  0  0
  8  4  1  0  0  0  0
 10  9  1  6  0  0  0
 10 13  1  0  0  0  0
 10 12  1  0  0  0  0
 12 15  1  0  0  0  0
 13 19  1  6  0  0  0
 14 13  1  0  0  0  0
 14 16  2  0  0  0  0
 15 11  1  6  0  0  0
 16 15  1  0  0  0  0
 17 19  2  0  0  0  0
 18 19  2  0  0  0  0
 19 20  1  0  0  0  0
 21 20  1  0  0  0  0
 23 22  1  0  0  0  0
 23 21  1  0  0  0  0
 24 23  2  0  0  0  0
 25  8  1  0  0  0  0
 26 30  1  0  0  0  0
 27 25  1  6  0  0  0
 27 26  1  0  0  0  0
 28 29  1  0  0  0  0
 28 27  1  0  0  0  0
 29 30  1  0  0  0  0
 30 32  1  1  0  0  0
 31 34  1  0  0  0  0
 32 31  2  0  0  0  0
 33 35  2  0  0  0  0
 33 36  1  0  0  0  0
 34 33  1  0  0  0  0
 36 37  1  0  0  0  0
 38 39  1  0  0  0  0
 38 37  1  1  0  0  0
 38 40  1  0  0  0  0
 39 42  1  6  0  0  0
 39 46  1  0  0  0  0
 39 40  1  0  0  0  0
 40 43  1  1  0  0  0
 41 42  1  0  0  0  0
 43 45  1  0  0  0  0
 45 44  1  0  0  0  0
 46 50  1  6  0  0  0
 46 51  1  0  0  0  0
 47 48  1  0  0  0  0
 48 50  1  0  0  0  0
 50 49  2  0  0  0  0
 51 52  1  0  0  0  0
 52 54  1  0  0  0  0
 54 53  1  0  0  0  0
 56 55  1  0  0  0  0
 56 25  1  0  0  0  0
 57 59  1  0  0  0  0
 58 60  1  0  0  0  0
 58 59  2  0  0  0  0
 61 64  1  1  0  0  0
 61 63  1  0  0  0  0
 61 60  1  0  0  0  0
 62 63  1  0  0  0  0
 64 66  1  0  0  0  0
 65 66  1  0  0  0  0
M  END
>  <MODEL>
4

>  <REMARK>
 VINA RESULT:      -3.0      2.948      8.440
  Name = 
  29 active torsions:
  status: ('A' for Active; 'I' for Inactive)
    1  A    between atoms: C_1  and  C_18
    2  A    between atoms: C_1  and  C_55
    3  A    between atoms: C_6  and  C_26
    4  A    between atoms: C_6  and  C_47
    5  A    between atoms: C_7  and  N_17
    6  A    between atoms: C_10  and  N_17
    7  A    between atoms: O_12  and  C_53
    8  A    between atoms: O_12  and  C_66
    9  A    between atoms: N_13  and  N_21
   10  A    between atoms: O_14  and  C_15
   11  A    between atoms: O_14  and  C_62
   12  A    between atoms: C_15  and  C_60
   13  A    between atoms: N_16  and  C_33
   14  A    between atoms: N_16  and  C_50
   15  A    between atoms: N_16  and  C_56
   16  A    between atoms: C_19  and  C_26
   17  A    between atoms: C_23  and  C_65
   18  A    between atoms: C_28  and  C_39
   19  A    between atoms: C_29  and  S_31
   20  A    between atoms: S_31  and  N_43
   21  A    between atoms: C_34  and  C_41
   22  A    between atoms: O_37  and  C_58
   23  A    between atoms: C_39  and  C_58
   24  A    between atoms: C_41  and  N_43
   25  A    between atoms: C_46  and  O_51
   26  A    between atoms: C_46  and  C_58
   27  A    between atoms: C_49  and  C_61
   28  A    between atoms: C_49  and  C_62
   29  A    between atoms: C_62  and  C_64
                            x       y       z     vdW  Elec       q    Type
                         _______ _______ _______ _____ _____    ______ ____

>  <TORSDO>
F 29

$$$$
=
 OpenBabel10222420573D

 66 69  0  0  1  0  0  0  0  0999 V2000
  191.9800  176.9370  138.2740 C   0  0  0  0  0  3  0  0  0  0  0  0
  189.0840  178.0390  140.1060 C   0  0  0  0  0  2  0  0  0  0  0  0
  190.7650  177.3360  138.5030 C   0  0  0  0  0  0  0  0  0  0  0  0
  187.4440  178.5310  137.7600 C   0  0  0  0  0  0  0  0  0  0  0  0
  187.5820  178.1530  140.1780 C   0  0  0  0  0  3  0  0  0  0  0  0
  188.7270  178.1990  137.5800 C   0  0  0  0  0  3  0  0  0  0  0  0
  189.5420  177.7400  138.7100 C   0  0  0  0  0  0  0  0  0  0  0  0
  186.8070  178.4010  139.1070 C   0  0  0  0  0  0  0  0  0  0  0  0
  192.4150  176.7390  136.9290 N   0  0  0  0  0  2  0  0  0  0  0  0
  191.8230  175.7380  136.0470 C   0  0  2  0  0  3  0  0  0  0  0  0
  188.1470  174.1840  137.1160 Cl  0  0  0  0  0  0  0  0  0  0  0  0
  190.3000  175.6320  136.3050 C   0  0  0  0  0  2  0  0  0  0  0  0
  192.5680  174.3800  136.1090 C   0  0  2  0  0  3  0  0  0  0  0  0
  192.0400  173.4980  137.2050 C   0  0  0  0  0  3  0  0  0  0  0  0
  189.8010  174.1910  136.4650 C   0  0  1  0  0  3  0  0  0  0  0  0
  190.7140  173.4090  137.3720 C   0  0  0  0  0  3  0  0  0  0  0  0
  194.8180  175.6160  135.2280 O   0  0  0  0  0  0  0  0  0  0  0  0
  194.7600  174.8720  137.5760 O   0  0  0  0  0  0  0  0  0  0  0  0
  194.3560  174.5250  136.1660 S   0  0  0  0  0  0  0  0  0  0  0  0
  195.0650  173.0020  135.7230 N   0  0  0  0  0  2  0  0  0  0  0  0
  196.0770  172.6820  136.7130 C   0  0  0  0  0  2  0  0  0  0  0  0
  195.0330  171.8070  138.6710 O   0  0  0  0  0  1  0  0  0  0  0  0
  195.6080  171.5610  137.5760 C   0  0  0  0  0  0  0  0  0  0  0  0
  195.8260  170.2440  137.1830 O   0  0  0  0  0  0  0  0  0  0  0  0
  185.3730  178.4770  139.2680 N   0  0  0  0  0  0  0  0  0  0  0  0
  185.8300  178.9790  141.6270 C   0  0  0  0  0  2  0  0  0  0  0  0
  184.8140  179.0430  140.5070 C   0  0  2  0  0  3  0  0  0  0  0  0
  183.5550  178.3090  140.9580 C   0  0  0  0  0  2  0  0  0  0  0  0
  183.4840  178.3020  142.7750 S   0  0  0  0  0  0  0  0  0  0  0  0
  185.0730  179.1860  142.9170 C   0  0  1  0  0  3  0  0  0  0  0  0
  185.3160  178.0090  145.0220 N   0  0  0  0  0  0  0  0  0  0  0  0
  185.8810  178.6400  144.0470 C   0  0  0  0  0  3  0  0  0  0  0  0
  186.5320  178.3420  147.1370 C   0  0  0  0  0  0  0  0  0  0  0  0
  186.1000  177.5060  146.0640 N   0  0  0  0  0  2  0  0  0  0  0  0
  186.1660  179.5490  147.1910 O   0  0  0  0  0  0  0  0  0  0  0  0
  187.4370  177.7870  148.1870 C   0  0  0  0  0  2  0  0  0  0  0  0
  188.6730  177.1710  147.5520 C   0  0  0  0  0  2  0  0  0  0  0  0
  189.6270  178.2610  147.0680 C   0  0  2  0  0  3  0  0  0  0  0  0
  190.6610  177.8390  146.0220 C   0  0  2  0  0  0  0  0  0  0  0  0
  191.0970  178.0410  147.4750 C   0  0  2  0  0  3  0  0  0  0  0  0
  191.3250  178.5380  143.8370 O   0  0  0  0  0  1  0  0  0  0  0  0
  191.0820  178.9960  145.1300 C   0  0  0  0  0  2  0  0  0  0  0  0
  191.2800  176.8260  148.1470 O   0  0  0  0  0  0  0  0  0  0  0  0
  192.8720  177.1700  149.8850 C   0  0  0  0  0  1  0  0  0  0  0  0
  192.6470  176.7850  148.4370 C   0  0  0  0  0  2  0  0  0  0  0  0
  190.7420  176.4170  145.3890 C   0  0  1  0  0  3  0  0  0  0  0  0
  189.8520  175.9250  141.7470 O   0  0  0  0  0  1  0  0  0  0  0  0
  190.5650  175.9950  142.9000 N   0  0  0  0  0  2  0  0  0  0  0  0
  188.6890  176.5660  144.1530 O   0  0  0  0  0  0  0  0  0  0  0  0
  189.9300  176.3440  144.1270 C   0  0  0  0  0  0  0  0  0  0  0  0
  192.0450  175.9580  145.1500 O   0  0  0  0  0  0  0  0  0  0  0  0
  192.0500  174.6310  145.5890 C   0  0  0  0  0  2  0  0  0  0  0  0
  192.1220  172.3670  144.7340 N   0  0  0  0  0  1  0  0  0  0  0  0
  192.5500  173.7270  144.4740 C   0  0  0  0  0  2  0  0  0  0  0  0
  183.5110  178.4180  137.8500 O   0  0  0  0  0  1  0  0  0  0  0  0
  184.5130  177.6390  138.4270 C   0  0  0  0  0  2  0  0  0  0  0  0
  186.7200  179.1430  136.6030 C   0  0  0  0  0  2  0  0  0  0  0  0
  185.8650  176.9280  136.0080 C   0  0  0  0  0  3  0  0  0  0  0  0
  186.3860  178.0800  135.6070 C   0  0  0  0  0  3  0  0  0  0  0  0
  185.5500  175.8660  135.0080 C   0  0  0  0  0  2  0  0  0  0  0  0
  184.6850  174.7840  135.6350 C   0  0  1  0  0  3  0  0  0  0  0  0
  182.6930  175.0590  134.7140 C   0  0  0  0  0  1  0  0  0  0  0  0
  183.4080  175.2960  135.8820 O   0  0  0  0  0  0  0  0  0  0  0  0
  184.5800  173.5950  134.6860 C   0  0  0  0  0  2  0  0  0  0  0  0
  185.1230  172.6790  136.6200 C   0  0  0  0  0  1  0  0  0  0  0  0
  185.2210  172.4850  135.2410 O   0  0  0  0  0  0  0  0  0  0  0  0
  1  3  2  0  0  0  0
  2  5  1  0  0  0  0
  3  7  2  0  0  0  0
  4  8  1  0  0  0  0
  6  4  2  0  0  0  0
  6  7  1  0  0  0  0
  7  2  1  0  0  0  0
  8 25  1  0  0  0  0
  8  5  2  0  0  0  0
  9  1  1  0  0  0  0
 10 13  1  0  0  0  0
 10 12  1  0  0  0  0
 10  9  1  1  0  0  0
 12 15  1  0  0  0  0
 13 19  1  1  0  0  0
 13 14  1  0  0  0  0
 14 16  2  0  0  0  0
 15 11  1  1  0  0  0
 15 16  1  0  0  0  0
 17 19  2  0  0  0  0
 19 18  2  0  0  0  0
 20 19  1  0  0  0  0
 20 21  1  0  0  0  0
 21 23  1  0  0  0  0
 23 22  1  0  0  0  0
 24 23  2  0  0  0  0
 26 30  1  0  0  0  0
 27 25  1  6  0  0  0
 27 28  1  0  0  0  0
 27 26  1  0  0  0  0
 28 29  1  0  0  0  0
 29 30  1  0  0  0  0
 30 32  1  1  0  0  0
 31 34  1  0  0  0  0
 32 31  2  0  0  0  0
 33 35  2  0  0  0  0
 33 36  1  0  0  0  0
 34 33  1  0  0  0  0
 37 36  1  0  0  0  0
 38 40  1  0  0  0  0
 38 37  1  1  0  0  0
 39 42  1  6  0  0  0
 39 38  1  0  0  0  0
 39 40  1  0  0  0  0
 40 43  1  1  0  0  0
 41 42  1  0  0  0  0
 43 45  1  0  0  0  0
 45 44  1  0  0  0  0
 46 50  1  6  0  0  0
 46 39  1  0  0  0  0
 47 48  1  0  0  0  0
 48 50  1  0  0  0  0
 50 49  2  0  0  0  0
 51 46  1  0  0  0  0
 51 52  1  0  0  0  0
 54 53  1  0  0  0  0
 54 52  1  0  0  0  0
 55 56  1  0  0  0  0
 56 25  1  0  0  0  0
 57  4  1  0  0  0  0
 59 58  2  0  0  0  0
 59 57  1  0  0  0  0
 60 61  1  0  0  0  0
 60 58  1  0  0  0  0
 61 64  1  6  0  0  0
 61 63  1  0  0  0  0
 62 63  1  0  0  0  0
 64 66  1  0  0  0  0
 66 65  1  0  0  0  0
M  END
>  <MODEL>
5

>  <REMARK>
 VINA RESULT:      -2.9      2.577      3.852
  Name = 
  29 active torsions:
  status: ('A' for Active; 'I' for Inactive)
    1  A    between atoms: C_1  and  C_18
    2  A    between atoms: C_1  and  C_55
    3  A    between atoms: C_6  and  C_26
    4  A    between atoms: C_6  and  C_47
    5  A    between atoms: C_7  and  N_17
    6  A    between atoms: C_10  and  N_17
    7  A    between atoms: O_12  and  C_53
    8  A    between atoms: O_12  and  C_66
    9  A    between atoms: N_13  and  N_21
   10  A    between atoms: O_14  and  C_15
   11  A    between atoms: O_14  and  C_62
   12  A    between atoms: C_15  and  C_60
   13  A    between atoms: N_16  and  C_33
   14  A    between atoms: N_16  and  C_50
   15  A    between atoms: N_16  and  C_56
   16  A    between atoms: C_19  and  C_26
   17  A    between atoms: C_23  and  C_65
   18  A    between atoms: C_28  and  C_39
   19  A    between atoms: C_29  and  S_31
   20  A    between atoms: S_31  and  N_43
   21  A    between atoms: C_34  and  C_41
   22  A    between atoms: O_37  and  C_58
   23  A    between atoms: C_39  and  C_58
   24  A    between atoms: C_41  and  N_43
   25  A    between atoms: C_46  and  O_51
   26  A    between atoms: C_46  and  C_58
   27  A    between atoms: C_49  and  C_61
   28  A    between atoms: C_49  and  C_62
   29  A    between atoms: C_62  and  C_64
                            x       y       z     vdW  Elec       q    Type
                         _______ _______ _______ _____ _____    ______ ____

>  <TORSDO>
F 29

$$$$
=
 OpenBabel10222420573D

 66 69  0  0  1  0  0  0  0  0999 V2000
  185.0920  178.4060  135.4750 C   0  0  0  0  0  3  0  0  0  0  0  0
  188.5510  177.5410  134.9800 C   0  0  0  0  0  2  0  0  0  0  0  0
  186.2030  177.7360  135.5590 C   0  0  0  0  0  0  0  0  0  0  0  0
  188.5110  175.2280  136.7360 C   0  0  0  0  0  0  0  0  0  0  0  0
  189.6070  176.4650  134.9250 C   0  0  0  0  0  3  0  0  0  0  0  0
  187.4210  176.0000  136.6770 C   0  0  0  0  0  3  0  0  0  0  0  0
  187.3090  177.0520  135.6610 C   0  0  0  0  0  0  0  0  0  0  0  0
  189.6170  175.3970  135.7430 C   0  0  0  0  0  0  0  0  0  0  0  0
  183.9460  177.9630  136.2000 N   0  0  0  0  0  2  0  0  0  0  0  0
  183.9460  176.7490  137.0110 C   0  0  2  0  0  3  0  0  0  0  0  0
  181.8090  173.5080  135.5970 Cl  0  0  0  0  0  0  0  0  0  0  0  0
  183.5410  175.5300  136.1470 C   0  0  0  0  0  2  0  0  0  0  0  0
  183.1130  176.9050  138.3100 C   0  0  2  0  0  3  0  0  0  0  0  0
  181.6640  176.5710  138.0920 C   0  0  0  0  0  3  0  0  0  0  0  0
  182.4670  174.6460  136.7930 C   0  0  1  0  0  3  0  0  0  0  0  0
  181.3580  175.4880  137.3670 C   0  0  0  0  0  3  0  0  0  0  0  0
  184.7870  178.8600  139.1710 O   0  0  0  0  0  0  0  0  0  0  0  0
  182.5600  179.5300  138.3560 O   0  0  0  0  0  0  0  0  0  0  0  0
  183.3230  178.4860  139.1310 S   0  0  0  0  0  0  0  0  0  0  0  0
  182.6790  178.3810  140.7420 N   0  0  0  0  0  2  0  0  0  0  0  0
  181.3650  178.9990  140.7320 C   0  0  0  0  0  2  0  0  0  0  0  0
  180.6060  177.8160  142.6600 O   0  0  0  0  0  1  0  0  0  0  0  0
  180.3920  178.1340  141.4580 C   0  0  0  0  0  0  0  0  0  0  0  0
  179.2600  177.6600  140.8030 O   0  0  0  0  0  0  0  0  0  0  0  0
  190.6600  174.4070  135.6060 N   0  0  0  0  0  0  0  0  0  0  0  0
  191.9730  175.0760  137.5700 C   0  0  0  0  0  2  0  0  0  0  0  0
  192.0140  174.7080  136.1010 C   0  0  2  0  0  3  0  0  0  0  0  0
  192.6630  175.8570  135.3360 C   0  0  0  0  0  2  0  0  0  0  0  0
  193.7290  176.8020  136.4670 S   0  0  0  0  0  0  0  0  0  0  0  0
  193.2870  175.7480  137.8880 C   0  0  1  0  0  3  0  0  0  0  0  0
  191.9620  177.0120  139.4770 N   0  0  0  0  0  0  0  0  0  0  0  0
  193.1230  176.5700  139.1240 C   0  0  0  0  0  3  0  0  0  0  0  0
  191.7010  177.1610  141.9200 C   0  0  0  0  0  0  0  0  0  0  0  0
  191.8400  177.7770  140.6410 N   0  0  0  0  0  2  0  0  0  0  0  0
  191.7400  175.9040  142.0300 O   0  0  0  0  0  0  0  0  0  0  0  0
  191.4890  178.0110  143.1300 C   0  0  0  0  0  2  0  0  0  0  0  0
  190.0090  178.2970  143.3250 C   0  0  0  0  0  2  0  0  0  0  0  0
  189.2660  177.0260  143.7290 C   0  0  2  0  0  3  0  0  0  0  0  0
  187.7410  177.0710  143.6210 C   0  0  2  0  0  0  0  0  0  0  0  0
  188.4020  177.1750  144.9970 C   0  0  2  0  0  3  0  0  0  0  0  0
  188.1470  174.7860  143.0560 O   0  0  0  0  0  1  0  0  0  0  0  0
  187.1410  175.6950  143.3740 C   0  0  0  0  0  2  0  0  0  0  0  0
  188.4060  178.4880  145.4840 O   0  0  0  0  0  0  0  0  0  0  0  0
  189.3890  177.0910  147.1450 C   0  0  0  0  0  1  0  0  0  0  0  0
  189.3370  178.4730  146.5280 C   0  0  0  0  0  2  0  0  0  0  0  0
  186.9330  178.2840  143.0650 C   0  0  1  0  0  3  0  0  0  0  0  0
  188.7700  178.1160  139.7650 O   0  0  0  0  0  1  0  0  0  0  0  0
  188.3480  177.8170  141.0200 N   0  0  0  0  0  2  0  0  0  0  0  0
  186.8900  179.6300  141.0780 O   0  0  0  0  0  0  0  0  0  0  0  0
  187.3820  178.6350  141.6750 C   0  0  0  0  0  0  0  0  0  0  0  0
  185.5420  178.1210  143.0960 O   0  0  0  0  0  0  0  0  0  0  0  0
  185.1870  178.2710  144.4400 C   0  0  0  0  0  2  0  0  0  0  0  0
  184.2390  180.4230  143.8670 N   0  0  0  0  0  1  0  0  0  0  0  0
  183.9700  179.1740  144.5480 C   0  0  0  0  0  2  0  0  0  0  0  0
  191.0260  172.1390  135.1500 O   0  0  0  0  0  1  0  0  0  0  0  0
  190.4930  173.3200  134.6360 C   0  0  0  0  0  2  0  0  0  0  0  0
  188.6300  174.2870  137.8930 C   0  0  0  0  0  2  0  0  0  0  0  0
  187.3250  172.6360  136.6410 C   0  0  0  0  0  3  0  0  0  0  0  0
  187.5640  173.2440  137.7960 C   0  0  0  0  0  3  0  0  0  0  0  0
  186.2470  171.6080  136.5510 C   0  0  0  0  0  2  0  0  0  0  0  0
  186.3880  170.8010  135.2700 C   0  0  1  0  0  3  0  0  0  0  0  0
  188.4350  170.0980  134.8150 C   0  0  0  0  0  1  0  0  0  0  0  0
  187.2710  169.7390  135.4850 O   0  0  0  0  0  0  0  0  0  0  0  0
  185.0270  170.2530  134.8550 C   0  0  0  0  0  2  0  0  0  0  0  0
  183.2130  170.2190  136.1140 C   0  0  0  0  0  1  0  0  0  0  0  0
  184.0120  171.0740  135.3530 O   0  0  0  0  0  0  0  0  0  0  0  0
  1  3  2  0  0  0  0
  1  9  1  0  0  0  0
  2  7  1  0  0  0  0
  3  7  2  0  0  0  0
  4 57  1  0  0  0  0
  5  2  1  0  0  0  0
  5  8  2  0  0  0  0
  6  4  2  0  0  0  0
  7  6  1  0  0  0  0
  8  4  1  0  0  0  0
 10  9  1  6  0  0  0
 10 13  1  0  0  0  0
 12 15  1  0  0  0  0
 12 10  1  0  0  0  0
 13 19  1  6  0  0  0
 14 13  1  0  0  0  0
 15 11  1  6  0  0  0
 15 16  1  0  0  0  0
 16 14  2  0  0  0  0
 18 19  2  0  0  0  0
 19 17  2  0  0  0  0
 19 20  1  0  0  0  0
 21 20  1  0  0  0  0
 21 23  1  0  0  0  0
 23 22  1  0  0  0  0
 24 23  2  0  0  0  0
 25  8  1  0  0  0  0
 26 30  1  0  0  0  0
 27 25  1  6  0  0  0
 27 26  1  0  0  0  0
 28 27  1  0  0  0  0
 28 29  1  0  0  0  0
 29 30  1  0  0  0  0
 30 32  1  1  0  0  0
 31 34  1  0  0  0  0
 32 31  2  0  0  0  0
 33 35  2  0  0  0  0
 33 36  1  0  0  0  0
 34 33  1  0  0  0  0
 36 37  1  0  0  0  0
 38 37  1  6  0  0  0
 38 40  1  0  0  0  0
 39 42  1  6  0  0  0
 39 38  1  0  0  0  0
 39 40  1  0  0  0  0
 40 43  1  6  0  0  0
 41 42  1  0  0  0  0
 43 45  1  0  0  0  0
 45 44  1  0  0  0  0
 46 50  1  6  0  0  0
 46 51  1  0  0  0  0
 46 39  1  0  0  0  0
 47 48  1  0  0  0  0
 48 50  1  0  0  0  0
 49 50  2  0  0  0  0
 51 52  1  0  0  0  0
 52 54  1  0  0  0  0
 53 54  1  0  0  0  0
 56 55  1  0  0  0  0
 56 25  1  0  0  0  0
 58 59  2  0  0  0  0
 59 57  1  0  0  0  0
 60 58  1  0  0  0  0
 61 64  1  1  0  0  0
 61 63  1  0  0  0  0
 61 60  1  0  0  0  0
 62 63  1  0  0  0  0
 64 66  1  0  0  0  0
 66 65  1  0  0  0  0
M  END
>  <MODEL>
6

>  <REMARK>
 VINA RESULT:      -2.7      2.776      8.400
  Name = 
  29 active torsions:
  status: ('A' for Active; 'I' for Inactive)
    1  A    between atoms: C_1  and  C_18
    2  A    between atoms: C_1  and  C_55
    3  A    between atoms: C_6  and  C_26
    4  A    between atoms: C_6  and  C_47
    5  A    between atoms: C_7  and  N_17
    6  A    between atoms: C_10  and  N_17
    7  A    between atoms: O_12  and  C_53
    8  A    between atoms: O_12  and  C_66
    9  A    between atoms: N_13  and  N_21
   10  A    between atoms: O_14  and  C_15
   11  A    between atoms: O_14  and  C_62
   12  A    between atoms: C_15  and  C_60
   13  A    between atoms: N_16  and  C_33
   14  A    between atoms: N_16  and  C_50
   15  A    between atoms: N_16  and  C_56
   16  A    between atoms: C_19  and  C_26
   17  A    between atoms: C_23  and  C_65
   18  A    between atoms: C_28  and  C_39
   19  A    between atoms: C_29  and  S_31
   20  A    between atoms: S_31  and  N_43
   21  A    between atoms: C_34  and  C_41
   22  A    between atoms: O_37  and  C_58
   23  A    between atoms: C_39  and  C_58
   24  A    between atoms: C_41  and  N_43
   25  A    between atoms: C_46  and  O_51
   26  A    between atoms: C_46  and  C_58
   27  A    between atoms: C_49  and  C_61
   28  A    between atoms: C_49  and  C_62
   29  A    between atoms: C_62  and  C_64
                            x       y       z     vdW  Elec       q    Type
                         _______ _______ _______ _____ _____    ______ ____

>  <TORSDO>
F 29

$$$$
=
 OpenBabel10222420573D

 66 69  0  0  1  0  0  0  0  0999 V2000
  191.8280  177.0610  143.0240 C   0  0  0  0  0  3  0  0  0  0  0  0
  192.0780  178.0780  139.5790 C   0  0  0  0  0  2  0  0  0  0  0  0
  191.6360  177.0610  141.7380 C   0  0  0  0  0  0  0  0  0  0  0  0
  190.5610  175.8400  138.5200 C   0  0  0  0  0  0  0  0  0  0  0  0
  191.4630  178.0970  138.2020 C   0  0  0  0  0  3  0  0  0  0  0  0
  190.8570  175.8460  139.8240 C   0  0  0  0  0  3  0  0  0  0  0  0
  191.4360  177.0400  140.4490 C   0  0  0  0  0  0  0  0  0  0  0  0
  190.7750  177.0630  137.6860 C   0  0  0  0  0  0  0  0  0  0  0  0
  191.2730  176.0130  143.8180 N   0  0  0  0  0  2  0  0  0  0  0  0
  189.8470  175.9150  144.1110 C   0  0  2  0  0  3  0  0  0  0  0  0
  187.2260  177.6970  141.4600 Cl  0  0  0  0  0  0  0  0  0  0  0  0
  189.0190  176.1810  142.8290 C   0  0  0  0  0  2  0  0  0  0  0  0
  189.4290  176.7880  145.3220 C   0  0  2  0  0  3  0  0  0  0  0  0
  189.0880  178.1930  144.9120 C   0  0  0  0  0  3  0  0  0  0  0  0
  187.8720  177.1790  143.0320 C   0  0  1  0  0  3  0  0  0  0  0  0
  188.3410  178.3770  143.8150 C   0  0  0  0  0  3  0  0  0  0  0  0
  190.7840  175.3300  147.1670 O   0  0  0  0  0  0  0  0  0  0  0  0
  191.9100  177.3000  146.2080 O   0  0  0  0  0  0  0  0  0  0  0  0
  190.5910  176.7500  146.6890 S   0  0  0  0  0  0  0  0  0  0  0  0
  189.9880  177.7490  147.9770 N   0  0  0  0  0  2  0  0  0  0  0  0
  188.8150  177.0960  148.5280 C   0  0  0  0  0  2  0  0  0  0  0  0
  187.1340  178.5300  149.4290 O   0  0  0  0  0  1  0  0  0  0  0  0
  187.6290  177.9900  148.4010 C   0  0  0  0  0  0  0  0  0  0  0  0
  187.0540  178.2100  147.1540 O   0  0  0  0  0  0  0  0  0  0  0  0
  190.2060  177.1770  136.3620 N   0  0  0  0  0  0  0  0  0  0  0  0
  187.8930  177.7100  136.9870 C   0  0  0  0  0  2  0  0  0  0  0  0
  189.0820  178.1010  136.1350 C   0  0  2  0  0  3  0  0  0  0  0  0
  188.6420  178.1230  134.6750 C   0  0  0  0  0  2  0  0  0  0  0  0
  186.8450  178.3930  134.5960 S   0  0  0  0  0  0  0  0  0  0  0  0
  186.6920  178.4240  136.4130 C   0  0  1  0  0  3  0  0  0  0  0  0
  185.5090  176.5150  137.3250 N   0  0  0  0  0  0  0  0  0  0  0  0
  185.4530  177.7150  136.8500 C   0  0  0  0  0  3  0  0  0  0  0  0
  183.4000  175.3680  136.7770 C   0  0  0  0  0  0  0  0  0  0  0  0
  184.3310  175.8780  137.7300 N   0  0  0  0  0  2  0  0  0  0  0  0
  183.6500  175.4360  135.5420 O   0  0  0  0  0  0  0  0  0  0  0  0
  182.1160  174.7690  137.2480 C   0  0  0  0  0  2  0  0  0  0  0  0
  181.7140  175.3610  138.5890 C   0  0  0  0  0  2  0  0  0  0  0  0
  180.3640  176.0670  138.4800 C   0  0  2  0  0  3  0  0  0  0  0  0
  180.1160  177.2080  139.4690 C   0  0  2  0  0  0  0  0  0  0  0  0
  179.4390  175.8540  139.6940 C   0  0  2  0  0  3  0  0  0  0  0  0
  179.7340  178.9150  137.8430 O   0  0  0  0  0  1  0  0  0  0  0  0
  179.1520  178.2470  138.9180 C   0  0  0  0  0  2  0  0  0  0  0  0
  180.0630  175.1130  140.7050 O   0  0  0  0  0  0  0  0  0  0  0  0
  179.3800  173.4570  142.2760 C   0  0  0  0  0  1  0  0  0  0  0  0
  179.2580  173.9790  140.8590 C   0  0  0  0  0  2  0  0  0  0  0  0
  181.1650  177.7210  140.5010 C   0  0  1  0  0  3  0  0  0  0  0  0
  184.5120  179.3950  139.9630 O   0  0  0  0  0  1  0  0  0  0  0  0
  183.4070  178.8920  140.5700 N   0  0  0  0  0  2  0  0  0  0  0  0
  182.5050  178.1530  138.5560 O   0  0  0  0  0  0  0  0  0  0  0  0
  182.3790  178.2670  139.8060 C   0  0  0  0  0  0  0  0  0  0  0  0
  180.6720  178.6600  141.4170 O   0  0  0  0  0  0  0  0  0  0  0  0
  179.6240  178.0110  142.0760 C   0  0  0  0  0  2  0  0  0  0  0  0
  180.2260  177.3140  144.3140 N   0  0  0  0  0  1  0  0  0  0  0  0
  179.6330  178.3900  143.5470 C   0  0  0  0  0  2  0  0  0  0  0  0
  191.7520  176.2030  134.8980 O   0  0  0  0  0  1  0  0  0  0  0  0
  190.4490  176.1120  135.3850 C   0  0  0  0  0  2  0  0  0  0  0  0
  190.1270  174.5420  137.9160 C   0  0  0  0  0  2  0  0  0  0  0  0
  192.4610  174.4320  137.1830 C   0  0  0  0  0  3  0  0  0  0  0  0
  191.3280  173.7910  137.4380 C   0  0  0  0  0  3  0  0  0  0  0  0
  193.6490  173.6760  136.6900 C   0  0  0  0  0  2  0  0  0  0  0  0
  194.9340  174.3310  137.1710 C   0  0  1  0  0  3  0  0  0  0  0  0
  195.7540  173.5930  139.0880 C   0  0  0  0  0  1  0  0  0  0  0  0
  194.8680  174.5220  138.5550 O   0  0  0  0  0  0  0  0  0  0  0  0
  196.1230  173.4360  136.8390 C   0  0  0  0  0  2  0  0  0  0  0  0
  197.6900  173.0570  135.3300 C   0  0  0  0  0  1  0  0  0  0  0  0
  196.3580  173.4500  135.4620 O   0  0  0  0  0  0  0  0  0  0  0  0
  1  9  1  0  0  0  0
  2  7  1  0  0  0  0
  3  1  2  0  0  0  0
  4  6  2  0  0  0  0
  5  2  1  0  0  0  0
  6  7  1  0  0  0  0
  7  3  2  0  0  0  0
  8  5  2  0  0  0  0
  8  4  1  0  0  0  0
 10  9  1  6  0  0  0
 10 13  1  0  0  0  0
 12 15  1  0  0  0  0
 12 10  1  0  0  0  0
 13 19  1  1  0  0  0
 14 13  1  0  0  0  0
 15 11  1  6  0  0  0
 15 16  1  0  0  0  0
 16 14  2  0  0  0  0
 18 19  2  0  0  0  0
 19 17  2  0  0  0  0
 19 20  1  0  0  0  0
 20 21  1  0  0  0  0
 23 21  1  0  0  0  0
 23 22  1  0  0  0  0
 24 23  2  0  0  0  0
 25  8  1  0  0  0  0
 27 25  1  6  0  0  0
 27 26  1  0  0  0  0
 28 27  1  0  0  0  0
 29 28  1  0  0  0  0
 29 30  1  0  0  0  0
 30 32  1  6  0  0  0
 30 26  1  0  0  0  0
 31 34  1  0  0  0  0
 32 31  2  0  0  0  0
 33 36  1  0  0  0  0
 33 34  1  0  0  0  0
 35 33  2  0  0  0  0
 36 37  1  0  0  0  0
 38 37  1  1  0  0  0
 38 39  1  0  0  0  0
 38 40  1  0  0  0  0
 39 42  1  6  0  0  0
 39 40  1  0  0  0  0
 39 46  1  0  0  0  0
 40 43  1  1  0  0  0
 41 42  1  0  0  0  0
 43 45  1  0  0  0  0
 45 44  1  0  0  0  0
 46 50  1  6  0  0  0
 46 51  1  0  0  0  0
 47 48  1  0  0  0  0
 49 50  2  0  0  0  0
 50 48  1  0  0  0  0
 51 52  1  0  0  0  0
 52 54  1  0  0  0  0
 54 53  1  0  0  0  0
 55 56  1  0  0  0  0
 56 25  1  0  0  0  0
 57  4  1  0  0  0  0
 58 59  2  0  0  0  0
 59 57  1  0  0  0  0
 60 58  1  0  0  0  0
 61 60  1  1  0  0  0
 61 63  1  0  0  0  0
 63 62  1  0  0  0  0
 64 61  1  0  0  0  0
 65 66  1  0  0  0  0
 66 64  1  0  0  0  0
M  END
>  <MODEL>
7

>  <REMARK>
 VINA RESULT:      -2.5      3.014     10.521
  Name = 
  29 active torsions:
  status: ('A' for Active; 'I' for Inactive)
    1  A    between atoms: C_1  and  C_18
    2  A    between atoms: C_1  and  C_55
    3  A    between atoms: C_6  and  C_26
    4  A    between atoms: C_6  and  C_47
    5  A    between atoms: C_7  and  N_17
    6  A    between atoms: C_10  and  N_17
    7  A    between atoms: O_12  and  C_53
    8  A    between atoms: O_12  and  C_66
    9  A    between atoms: N_13  and  N_21
   10  A    between atoms: O_14  and  C_15
   11  A    between atoms: O_14  and  C_62
   12  A    between atoms: C_15  and  C_60
   13  A    between atoms: N_16  and  C_33
   14  A    between atoms: N_16  and  C_50
   15  A    between atoms: N_16  and  C_56
   16  A    between atoms: C_19  and  C_26
   17  A    between atoms: C_23  and  C_65
   18  A    between atoms: C_28  and  C_39
   19  A    between atoms: C_29  and  S_31
   20  A    between atoms: S_31  and  N_43
   21  A    between atoms: C_34  and  C_41
   22  A    between atoms: O_37  and  C_58
   23  A    between atoms: C_39  and  C_58
   24  A    between atoms: C_41  and  N_43
   25  A    between atoms: C_46  and  O_51
   26  A    between atoms: C_46  and  C_58
   27  A    between atoms: C_49  and  C_61
   28  A    between atoms: C_49  and  C_62
   29  A    between atoms: C_62  and  C_64
                            x       y       z     vdW  Elec       q    Type
                         _______ _______ _______ _____ _____    ______ ____

>  <TORSDO>
F 29

$$$$
=
 OpenBabel10222420573D

 66 69  0  0  1  0  0  0  0  0999 V2000
  186.7410  178.0730  137.2310 C   0  0  0  0  0  3  0  0  0  0  0  0
  183.7490  179.8110  138.2260 C   0  0  0  0  0  2  0  0  0  0  0  0
  185.5790  178.2820  137.7730 C   0  0  0  0  0  0  0  0  0  0  0  0
  182.4520  177.4850  139.3840 C   0  0  0  0  0  0  0  0  0  0  0  0
  182.5960  179.9240  139.1910 C   0  0  0  0  0  3  0  0  0  0  0  0
  183.6120  177.3110  138.7410 C   0  0  0  0  0  3  0  0  0  0  0  0
  184.4090  178.4680  138.3200 C   0  0  0  0  0  0  0  0  0  0  0  0
  181.9680  178.8590  139.7220 C   0  0  0  0  0  0  0  0  0  0  0  0
  187.3090  176.7650  137.2630 N   0  0  0  0  0  2  0  0  0  0  0  0
  187.4940  175.9560  136.0620 C   0  0  2  0  0  3  0  0  0  0  0  0
  185.8320  172.1730  136.0310 Cl  0  0  0  0  0  0  0  0  0  0  0  0
  186.4400  174.8220  136.0130 C   0  0  0  0  0  2  0  0  0  0  0  0
  188.9560  175.4630  135.8990 C   0  0  2  0  0  3  0  0  0  0  0  0
  189.1950  174.1660  136.6200 C   0  0  0  0  0  3  0  0  0  0  0  0
  187.0330  173.4420  135.7040 C   0  0  1  0  0  3  0  0  0  0  0  0
  188.2730  173.2000  136.5230 C   0  0  0  0  0  3  0  0  0  0  0  0
  191.0770  176.9590  135.1050 O   0  0  0  0  0  0  0  0  0  0  0  0
  189.4890  177.9690  136.6960 O   0  0  0  0  0  0  0  0  0  0  0  0
  190.1950  176.6960  136.3040 S   0  0  0  0  0  0  0  0  0  0  0  0
  191.1440  176.1300  137.6450 N   0  0  0  0  0  2  0  0  0  0  0  0
  191.8240  174.9190  137.2240 C   0  0  0  0  0  2  0  0  0  0  0  0
  193.9330  175.8600  137.8220 O   0  0  0  0  0  1  0  0  0  0  0  0
  193.2650  175.2060  136.9740 C   0  0  0  0  0  0  0  0  0  0  0  0
  193.8670  174.7740  135.7970 O   0  0  0  0  0  0  0  0  0  0  0  0
  180.8820  179.0640  140.6530 N   0  0  0  0  0  0  0  0  0  0  0  0
  182.6410  179.3970  142.3320 C   0  0  0  0  0  2  0  0  0  0  0  0
  181.1740  179.5710  142.0040 C   0  0  2  0  0  3  0  0  0  0  0  0
  180.3540  178.8580  143.0750 C   0  0  0  0  0  2  0  0  0  0  0  0
  181.3370  178.7380  144.6000 S   0  0  0  0  0  0  0  0  0  0  0  0
  182.7760  179.5500  143.8280 C   0  0  1  0  0  3  0  0  0  0  0  0
  184.1550  178.3930  145.4510 N   0  0  0  0  0  0  0  0  0  0  0  0
  184.0470  178.9030  144.2690 C   0  0  0  0  0  3  0  0  0  0  0  0
  186.3330  177.4030  144.8690 C   0  0  0  0  0  0  0  0  0  0  0  0
  185.3570  177.7900  145.8350 N   0  0  0  0  0  2  0  0  0  0  0  0
  186.1500  177.6490  143.6440 O   0  0  0  0  0  0  0  0  0  0  0  0
  187.5650  176.6860  145.3120 C   0  0  0  0  0  2  0  0  0  0  0  0
  188.6960  176.9110  144.3220 C   0  0  0  0  0  2  0  0  0  0  0  0
  189.5500  178.1050  144.7450 C   0  0  2  0  0  3  0  0  0  0  0  0
  190.9630  177.7860  145.2350 C   0  0  2  0  0  0  0  0  0  0  0  0
  189.8760  178.1460  146.2500 C   0  0  2  0  0  3  0  0  0  0  0  0
  191.3310  179.8980  144.1840 O   0  0  0  0  0  1  0  0  0  0  0  0
  191.9290  178.9360  144.9950 C   0  0  0  0  0  2  0  0  0  0  0  0
  189.3880  177.0210  146.9250 O   0  0  0  0  0  0  0  0  0  0  0  0
  188.0220  178.5860  148.0900 C   0  0  0  0  0  1  0  0  0  0  0  0
  189.0610  177.4890  148.2020 C   0  0  0  0  0  2  0  0  0  0  0  0
  191.5860  176.3570  145.2550 C   0  0  1  0  0  3  0  0  0  0  0  0
  192.3220  176.3960  141.5470 O   0  0  0  0  0  1  0  0  0  0  0  0
  192.0790  176.8130  142.8160 N   0  0  0  0  0  2  0  0  0  0  0  0
  191.9070  174.6340  143.6140 O   0  0  0  0  0  0  0  0  0  0  0  0
  191.8550  175.8690  143.8600 C   0  0  0  0  0  0  0  0  0  0  0  0
  192.7410  176.2350  146.0380 O   0  0  0  0  0  0  0  0  0  0  0  0
  192.2860  176.2210  147.3600 C   0  0  0  0  0  2  0  0  0  0  0  0
  193.3920  176.9200  149.3970 N   0  0  0  0  0  1  0  0  0  0  0  0
  193.4540  175.9760  148.3000 C   0  0  0  0  0  2  0  0  0  0  0  0
  179.2080  178.5810  139.0890 O   0  0  0  0  0  1  0  0  0  0  0  0
  179.6000  178.3960  140.4140 C   0  0  0  0  0  2  0  0  0  0  0  0
  181.6140  176.2720  139.6380 C   0  0  0  0  0  2  0  0  0  0  0  0
  181.9730  174.4750  138.0140 C   0  0  0  0  0  3  0  0  0  0  0  0
  181.3250  175.5860  138.3420 C   0  0  0  0  0  3  0  0  0  0  0  0
  181.6890  173.8070  136.7100 C   0  0  0  0  0  2  0  0  0  0  0  0
  180.1910  173.6540  136.5050 C   0  0  1  0  0  3  0  0  0  0  0  0
  180.4780  175.6400  135.5750 C   0  0  0  0  0  1  0  0  0  0  0  0
  179.7860  174.4430  135.4250 O   0  0  0  0  0  0  0  0  0  0  0  0
  179.8570  172.1930  136.2200 C   0  0  0  0  0  2  0  0  0  0  0  0
  181.2400  170.6610  135.4350 C   0  0  0  0  0  1  0  0  0  0  0  0
  180.4990  171.7790  135.0500 O   0  0  0  0  0  0  0  0  0  0  0  0
  1  9  1  0  0  0  0
  1  3  2  0  0  0  0
  2  7  1  0  0  0  0
  2  5  1  0  0  0  0
  3  7  2  0  0  0  0
  4 57  1  0  0  0  0
  4  8  1  0  0  0  0
  5  8  2  0  0  0  0
  6  4  2  0  0  0  0
  7  6  1  0  0  0  0
  8 25  1  0  0  0  0
 10  9  1  1  0  0  0
 12 10  1  0  0  0  0
 13 10  1  0  0  0  0
 13 19  1  1  0  0  0
 13 14  1  0  0  0  0
 15 12  1  0  0  0  0
 15 11  1  1  0  0  0
 15 16  1  0  0  0  0
 16 14  2  0  0  0  0
 17 19  2  0  0  0  0
 19 18  2  0  0  0  0
 19 20  1  0  0  0  0
 21 20  1  0  0  0  0
 23 21  1  0  0  0  0
 23 22  1  0  0  0  0
 24 23  2  0  0  0  0
 26 30  1  0  0  0  0
 27 25  1  6  0  0  0
 27 26  1  0  0  0  0
 27 28  1  0  0  0  0
 28 29  1  0  0  0  0
 30 32  1  1  0  0  0
 30 29  1  0  0  0  0
 31 34  1  0  0  0  0
 32 31  2  0  0  0  0
 33 36  1  0  0  0  0
 33 34  1  0  0  0  0
 35 33  2  0  0  0  0
 37 36  1  0  0  0  0
 38 37  1  1  0  0  0
 38 39  1  0  0  0  0
 38 40  1  0  0  0  0
 39 42  1  6  0  0  0
 39 46  1  0  0  0  0
 39 40  1  0  0  0  0
 40 43  1  1  0  0  0
 41 42  1  0  0  0  0
 43 45  1  0  0  0  0
 44 45  1  0  0  0  0
 46 50  1  6  0  0  0
 46 51  1  0  0  0  0
 47 48  1  0  0  0  0
 48 50  1  0  0  0  0
 49 50  2  0  0  0  0
 51 52  1  0  0  0  0
 52 54  1  0  0  0  0
 54 53  1  0  0  0  0
 55 56  1  0  0  0  0
 56 25  1  0  0  0  0
 58 59  2  0  0  0  0
 59 57  1  0  0  0  0
 60 58  1  0  0  0  0
 61 64  1  6  0  0  0
 61 60  1  0  0  0  0
 63 62  1  0  0  0  0
 63 61  1  0  0  0  0
 66 65  1  0  0  0  0
 66 64  1  0  0  0  0
M  END
>  <MODEL>
8

>  <REMARK>
 VINA RESULT:      -2.5      1.777      2.789
  Name = 
  29 active torsions:
  status: ('A' for Active; 'I' for Inactive)
    1  A    between atoms: C_1  and  C_18
    2  A    between atoms: C_1  and  C_55
    3  A    between atoms: C_6  and  C_26
    4  A    between atoms: C_6  and  C_47
    5  A    between atoms: C_7  and  N_17
    6  A    between atoms: C_10  and  N_17
    7  A    between atoms: O_12  and  C_53
    8  A    between atoms: O_12  and  C_66
    9  A    between atoms: N_13  and  N_21
   10  A    between atoms: O_14  and  C_15
   11  A    between atoms: O_14  and  C_62
   12  A    between atoms: C_15  and  C_60
   13  A    between atoms: N_16  and  C_33
   14  A    between atoms: N_16  and  C_50
   15  A    between atoms: N_16  and  C_56
   16  A    between atoms: C_19  and  C_26
   17  A    between atoms: C_23  and  C_65
   18  A    between atoms: C_28  and  C_39
   19  A    between atoms: C_29  and  S_31
   20  A    between atoms: S_31  and  N_43
   21  A    between atoms: C_34  and  C_41
   22  A    between atoms: O_37  and  C_58
   23  A    between atoms: C_39  and  C_58
   24  A    between atoms: C_41  and  N_43
   25  A    between atoms: C_46  and  O_51
   26  A    between atoms: C_46  and  C_58
   27  A    between atoms: C_49  and  C_61
   28  A    between atoms: C_49  and  C_62
   29  A    between atoms: C_62  and  C_64
                            x       y       z     vdW  Elec       q    Type
                         _______ _______ _______ _____ _____    ______ ____

>  <TORSDO>
F 29

$$$$
=
 OpenBabel10222420573D

 66 69  0  0  1  0  0  0  0  0999 V2000
  184.8660  178.8040  135.5700 C   0  0  0  0  0  3  0  0  0  0  0  0
  188.2250  177.5610  135.2070 C   0  0  0  0  0  2  0  0  0  0  0  0
  185.8810  177.9970  135.6590 C   0  0  0  0  0  0  0  0  0  0  0  0
  187.7870  175.1320  136.7380 C   0  0  0  0  0  0  0  0  0  0  0  0
  189.1460  176.3700  135.1170 C   0  0  0  0  0  3  0  0  0  0  0  0
  186.8020  176.0350  136.6840 C   0  0  0  0  0  3  0  0  0  0  0  0
  186.8880  177.1750  135.7640 C   0  0  0  0  0  0  0  0  0  0  0  0
  188.9720  175.2450  135.8320 C   0  0  0  0  0  0  0  0  0  0  0  0
  183.6270  178.4480  136.1820 N   0  0  0  0  0  2  0  0  0  0  0  0
  183.5460  177.5760  137.3500 C   0  0  2  0  0  3  0  0  0  0  0  0
  181.6210  173.9480  136.8950 Cl  0  0  0  0  0  0  0  0  0  0  0  0
  183.2560  176.1200  136.9100 C   0  0  0  0  0  2  0  0  0  0  0  0
  182.5660  178.1150  138.4250 C   0  0  2  0  0  3  0  0  0  0  0  0
  181.1560  177.6580  138.1810 C   0  0  0  0  0  3  0  0  0  0  0  0
  182.1240  175.4510  137.7000 C   0  0  1  0  0  3  0  0  0  0  0  0
  180.9480  176.3810  137.8350 C   0  0  0  0  0  3  0  0  0  0  0  0
  181.8390  180.2840  139.8850 O   0  0  0  0  0  0  0  0  0  0  0  0
  184.1060  180.2560  138.9200 O   0  0  0  0  0  0  0  0  0  0  0  0
  182.6640  179.8880  138.6820 S   0  0  0  0  0  0  0  0  0  0  0  0
  182.0910  180.7020  137.2580 N   0  0  0  0  0  2  0  0  0  0  0  0
  181.4710  181.9450  137.6790 C   0  0  0  0  0  2  0  0  0  0  0  0
  179.5120  182.9070  136.7160 O   0  0  0  0  0  1  0  0  0  0  0  0
  180.7080  182.5420  136.5460 C   0  0  0  0  0  0  0  0  0  0  0  0
  181.3060  182.6740  135.2970 O   0  0  0  0  0  0  0  0  0  0  0  0
  189.8970  174.1470  135.6680 N   0  0  0  0  0  0  0  0  0  0  0  0
  191.1940  174.8690  137.6240 C   0  0  0  0  0  2  0  0  0  0  0  0
  191.2490  174.2480  136.2440 C   0  0  2  0  0  3  0  0  0  0  0  0
  192.1830  175.0860  135.3770 C   0  0  0  0  0  2  0  0  0  0  0  0
  193.3530  175.9770  136.4450 S   0  0  0  0  0  0  0  0  0  0  0  0
  192.5990  175.3030  137.9640 C   0  0  1  0  0  3  0  0  0  0  0  0
  191.4060  176.7490  139.5010 N   0  0  0  0  0  0  0  0  0  0  0  0
  192.5390  176.3460  139.0300 C   0  0  0  0  0  3  0  0  0  0  0  0
  192.0360  177.5180  141.7530 C   0  0  0  0  0  0  0  0  0  0  0  0
  191.3820  177.7240  140.5020 N   0  0  0  0  0  2  0  0  0  0  0  0
  192.6990  176.4640  141.9590 O   0  0  0  0  0  0  0  0  0  0  0  0
  191.9170  178.5480  142.8270 C   0  0  0  0  0  2  0  0  0  0  0  0
  190.5520  178.4680  143.4920 C   0  0  0  0  0  2  0  0  0  0  0  0
  190.1030  177.0130  143.6190 C   0  0  2  0  0  3  0  0  0  0  0  0
  188.6130  176.7860  143.8760 C   0  0  2  0  0  0  0  0  0  0  0  0
  189.6080  176.6260  145.0270 C   0  0  2  0  0  3  0  0  0  0  0  0
  189.2230  174.6050  143.1180 O   0  0  0  0  0  1  0  0  0  0  0  0
  188.1340  175.4450  143.3390 C   0  0  0  0  0  2  0  0  0  0  0  0
  189.5910  177.7220  145.8980 O   0  0  0  0  0  0  0  0  0  0  0  0
  189.4250  178.2520  148.2140 C   0  0  0  0  0  1  0  0  0  0  0  0
  189.3600  177.1660  147.1600 C   0  0  0  0  0  2  0  0  0  0  0  0
  187.5470  177.9220  143.9380 C   0  0  1  0  0  3  0  0  0  0  0  0
  185.4540  179.3600  141.1370 O   0  0  0  0  0  1  0  0  0  0  0  0
  185.8640  178.9850  142.3740 N   0  0  0  0  0  2  0  0  0  0  0  0
  187.8670  178.1190  141.5660 O   0  0  0  0  0  0  0  0  0  0  0  0
  187.1170  178.3300  142.5570 C   0  0  0  0  0  0  0  0  0  0  0  0
  186.4250  177.6270  144.7240 O   0  0  0  0  0  0  0  0  0  0  0  0
  186.5580  178.4270  145.8630 C   0  0  0  0  0  2  0  0  0  0  0  0
  184.1780  178.4840  145.4230 N   0  0  0  0  0  1  0  0  0  0  0  0
  185.2500  179.1520  146.1330 C   0  0  0  0  0  2  0  0  0  0  0  0
  190.2160  171.9340  134.9730 O   0  0  0  0  0  1  0  0  0  0  0  0
  189.6550  173.1580  134.6140 C   0  0  0  0  0  2  0  0  0  0  0  0
  187.7110  174.0900  137.8080 C   0  0  0  0  0  2  0  0  0  0  0  0
  185.8060  172.9410  136.7850 C   0  0  0  0  0  3  0  0  0  0  0  0
  186.3280  173.5260  137.8560 C   0  0  0  0  0  3  0  0  0  0  0  0
  184.4180  172.3960  136.8370 C   0  0  0  0  0  2  0  0  0  0  0  0
  184.3890  170.9660  136.3220 C   0  0  1  0  0  3  0  0  0  0  0  0
  182.6610  171.1820  134.9590 C   0  0  0  0  0  1  0  0  0  0  0  0
  184.0340  170.9660  134.9700 O   0  0  0  0  0  0  0  0  0  0  0  0
  185.7670  170.3330  136.4850 C   0  0  0  0  0  2  0  0  0  0  0  0
  187.7700  169.9980  135.6180 C   0  0  0  0  0  1  0  0  0  0  0  0
  186.6100  170.7580  135.4560 O   0  0  0  0  0  0  0  0  0  0  0  0
  1  3  2  0  0  0  0
  1  9  1  0  0  0  0
  2  7  1  0  0  0  0
  3  7  2  0  0  0  0
  4 57  1  0  0  0  0
  5  2  1  0  0  0  0
  5  8  2  0  0  0  0
  6  4  2  0  0  0  0
  7  6  1  0  0  0  0
  8  4  1  0  0  0  0
 10  9  1  6  0  0  0
 10 13  1  0  0  0  0
 12 10  1  0  0  0  0
 12 15  1  0  0  0  0
 13 19  1  6  0  0  0
 14 13  1  0  0  0  0
 15 11  1  6  0  0  0
 15 16  1  0  0  0  0
 16 14  2  0  0  0  0
 19 18  2  0  0  0  0
 19 17  2  0  0  0  0
 20 21  1  0  0  0  0
 20 19  1  0  0  0  0
 23 22  1  0  0  0  0
 23 21  1  0  0  0  0
 24 23  2  0  0  0  0
 25  8  1  0  0  0  0
 26 30  1  0  0  0  0
 27 25  1  6  0  0  0
 27 26  1  0  0  0  0
 28 27  1  0  0  0  0
 28 29  1  0  0  0  0
 29 30  1  0  0  0  0
 30 32  1  1  0  0  0
 31 34  1  0  0  0  0
 32 31  2  0  0  0  0
 33 35  2  0  0  0  0
 33 36  1  0  0  0  0
 34 33  1  0  0  0  0
 36 37  1  0  0  0  0
 38 37  1  1  0  0  0
 38 39  1  0  0  0  0
 38 40  1  0  0  0  0
 39 42  1  6  0  0  0
 39 46  1  0  0  0  0
 39 40  1  0  0  0  0
 40 43  1  1  0  0  0
 41 42  1  0  0  0  0
 43 45  1  0  0  0  0
 45 44  1  0  0  0  0
 46 50  1  6  0  0  0
 46 51  1  0  0  0  0
 47 48  1  0  0  0  0
 48 50  1  0  0  0  0
 49 50  2  0  0  0  0
 51 52  1  0  0  0  0
 52 54  1  0  0  0  0
 53 54  1  0  0  0  0
 56 55  1  0  0  0  0
 56 25  1  0  0  0  0
 57 59  1  0  0  0  0
 58 60  1  0  0  0  0
 58 59  2  0  0  0  0
 61 64  1  6  0  0  0
 61 60  1  0  0  0  0
 62 63  1  0  0  0  0
 63 61  1  0  0  0  0
 66 65  1  0  0  0  0
 66 64  1  0  0  0  0
M  END
>  <MODEL>
9

>  <REMARK>
 VINA RESULT:      -2.4      2.896      8.309
  Name = 
  29 active torsions:
  status: ('A' for Active; 'I' for Inactive)
    1  A    between atoms: C_1  and  C_18
    2  A    between atoms: C_1  and  C_55
    3  A    between atoms: C_6  and  C_26
    4  A    between atoms: C_6  and  C_47
    5  A    between atoms: C_7  and  N_17
    6  A    between atoms: C_10  and  N_17
    7  A    between atoms: O_12  and  C_53
    8  A    between atoms: O_12  and  C_66
    9  A    between atoms: N_13  and  N_21
   10  A    between atoms: O_14  and  C_15
   11  A    between atoms: O_14  and  C_62
   12  A    between atoms: C_15  and  C_60
   13  A    between atoms: N_16  and  C_33
   14  A    between atoms: N_16  and  C_50
   15  A    between atoms: N_16  and  C_56
   16  A    between atoms: C_19  and  C_26
   17  A    between atoms: C_23  and  C_65
   18  A    between atoms: C_28  and  C_39
   19  A    between atoms: C_29  and  S_31
   20  A    between atoms: S_31  and  N_43
   21  A    between atoms: C_34  and  C_41
   22  A    between atoms: O_37  and  C_58
   23  A    between atoms: C_39  and  C_58
   24  A    between atoms: C_41  and  N_43
   25  A    between atoms: C_46  and  O_51
   26  A    between atoms: C_46  and  C_58
   27  A    between atoms: C_49  and  C_61
   28  A    between atoms: C_49  and  C_62
   29  A    between atoms: C_62  and  C_64
                            x       y       z     vdW  Elec       q    Type
                         _______ _______ _______ _____ _____    ______ ____

>  <TORSDO>
F 29

$$$$
