=
 OpenBabel10222416413D

 30 31  0  0  1  0  0  0  0  0999 V2000
  186.1980  178.7140  140.3610 C   0  0  0  0  0  3  0  0  0  0  0  0
  190.4930  177.2910  139.9540 C   0  0  1  0  0  3  0  0  0  0  0  0
  188.6120  178.3340  138.4960 C   0  0  0  0  0  3  0  0  0  0  0  0
  187.2110  178.6720  141.2280 C   0  0  0  0  0  3  0  0  0  0  0  0
  186.2080  177.9900  139.0510 C   0  0  2  0  0  3  0  0  0  0  0  0
  189.1060  177.8410  139.7960 C   0  0  0  0  0  0  0  0  0  0  0  0
  191.5880  176.8310  142.0780 O   0  0  0  0  0  0  0  0  0  0  0  0
  189.3480  177.5860  142.0530 N   0  0  0  0  0  0  0  0  0  0  0  0
  190.5650  177.1900  141.4380 C   0  0  0  0  0  0  0  0  0  0  0  0
  188.5030  177.9960  140.9870 C   0  0  0  0  0  0  0  0  0  0  0  0
  187.3250  178.4450  138.1660 C   0  0  0  0  0  3  0  0  0  0  0  0
  191.2260  175.7040  138.1210 C   0  0  0  0  0  0  0  0  0  0  0  0
  190.5580  175.9630  139.3570 N   0  0  0  0  0  2  0  0  0  0  0  0
  191.2890  174.3680  137.6270 N   0  0  0  0  0  2  0  0  0  0  0  0
  191.7570  176.6480  137.4730 O   0  0  0  0  0  0  0  0  0  0  0  0
  193.2360  173.2870  136.6750 C   0  0  0  0  0  1  0  0  0  0  0  0
  191.9560  174.0390  136.3800 C   0  0  0  0  0  2  0  0  0  0  0  0
  184.9880  178.1800  138.4010 O   0  0  0  0  0  0  0  0  0  0  0  0
  184.4030  179.2700  139.0490 C   0  0  0  0  0  1  0  0  0  0  0  0
  189.1160  177.8560  143.4730 C   0  0  2  0  0  3  0  0  0  0  0  0
  190.3410  177.7290  145.5520 O   0  0  0  0  0  1  0  0  0  0  0  0
  190.4370  178.0900  144.2070 C   0  0  2  0  0  3  0  0  0  0  0  0
  190.8640  179.5410  144.0950 C   0  0  0  0  0  1  0  0  0  0  0  0
  188.2640  176.7660  144.1200 C   0  0  0  0  0  2  0  0  0  0  0  0
  186.8720  177.2930  144.4060 C   0  0  0  0  0  2  0  0  0  0  0  0
  186.8710  177.9830  145.6840 N   0  0  0  0  0  2  0  0  0  0  0  0
  185.7150  178.8660  145.6950 C   0  0  2  0  0  3  0  0  0  0  0  0
  184.9530  178.6200  146.8390 O   0  0  0  0  0  1  0  0  0  0  0  0
  183.6460  179.0010  144.9310 C   0  0  0  0  0  1  0  0  0  0  0  0
  184.9380  178.6280  144.5600 O   0  0  0  0  0  0  0  0  0  0  0  0
  1  4  2  0  0  0  0
  2 13  1  6  0  0  0
  2  9  1  0  0  0  0
  3  6  1  0  0  0  0
  5 18  1  6  0  0  0
  5  1  1  0  0  0  0
  6  2  1  0  0  0  0
  6 10  2  0  0  0  0
  8 20  1  0  0  0  0
  9  8  1  0  0  0  0
  9  7  2  0  0  0  0
 10  4  1  0  0  0  0
 10  8  1  0  0  0  0
 11  3  2  0  0  0  0
 11  5  1  0  0  0  0
 12 13  1  0  0  0  0
 14 12  1  0  0  0  0
 15 12  2  0  0  0  0
 17 16  1  0  0  0  0
 17 14  1  0  0  0  0
 18 19  1  0  0  0  0
 20 24  1  1  0  0  0
 20 22  1  0  0  0  0
 22 23  1  1  0  0  0
 22 21  1  0  0  0  0
 24 25  1  0  0  0  0
 25 26  1  0  0  0  0
 26 27  1  0  0  0  0
 27 28  1  1  0  0  0
 30 29  1  0  0  0  0
 30 27  1  0  0  0  0
M  END
>  <MODEL>
1

>  <REMARK>
 VINA RESULT:      -6.8      0.000      0.000
  Name = 
  10 active torsions:
  status: ('A' for Active; 'I' for Inactive)
    1  A    between atoms: C_3  and  N_20
    2  A    between atoms: C_3  and  C_25
    3  A    between atoms: C_3  and  C_26
    4  A    between atoms: C_4  and  N_22
    5  A    between atoms: C_4  and  C_26
    6  A    between atoms: O_5  and  C_15
    7  A    between atoms: C_8  and  N_9
    8  A    between atoms: C_10  and  O_18
    9  A    between atoms: C_10  and  N_22
   10  A    between atoms: N_16  and  C_27
                            x       y       z     vdW  Elec       q    Type
                         _______ _______ _______ _____ _____    ______ ____

>  <TORSDO>
F 10

$$$$
=
 OpenBabel10222416413D

 30 31  0  0  1  0  0  0  0  0999 V2000
  191.0300  176.6910  141.1030 C   0  0  0  0  0  3  0  0  0  0  0  0
  187.0380  178.8540  141.2760 C   0  0  1  0  0  3  0  0  0  0  0  0
  189.2310  178.6410  142.6560 C   0  0  0  0  0  3  0  0  0  0  0  0
  190.2080  177.1260  140.1470 C   0  0  0  0  0  3  0  0  0  0  0  0
  190.6330  176.5840  142.5430 C   0  0  2  0  0  3  0  0  0  0  0  0
  188.4180  178.2960  141.4740 C   0  0  0  0  0  0  0  0  0  0  0  0
  185.7500  178.7190  139.2170 O   0  0  0  0  0  0  0  0  0  0  0  0
  187.8620  177.6650  139.3490 N   0  0  0  0  0  0  0  0  0  0  0  0
  186.7820  178.4230  139.8740 C   0  0  0  0  0  0  0  0  0  0  0  0
  188.8440  177.6460  140.3780 C   0  0  0  0  0  0  0  0  0  0  0  0
  190.2460  177.9110  143.1180 C   0  0  0  0  0  3  0  0  0  0  0  0
  185.1680  178.9000  142.9840 C   0  0  0  0  0  0  0  0  0  0  0  0
  186.1130  178.1870  142.1840 N   0  0  0  0  0  2  0  0  0  0  0  0
  184.2620  178.1720  143.8100 N   0  0  0  0  0  2  0  0  0  0  0  0
  185.1350  180.1610  142.9600 O   0  0  0  0  0  0  0  0  0  0  0  0
  181.9310  178.8160  143.9510 C   0  0  0  0  0  1  0  0  0  0  0  0
  183.2760  178.8380  144.6440 C   0  0  0  0  0  2  0  0  0  0  0  0
  191.6850  176.0420  143.2810 O   0  0  0  0  0  0  0  0  0  0  0  0
  191.4590  176.4660  144.5920 C   0  0  0  0  0  1  0  0  0  0  0  0
  188.0880  177.2860  137.9540 C   0  0  2  0  0  3  0  0  0  0  0  0
  187.7970  178.1020  135.6980 O   0  0  0  0  0  1  0  0  0  0  0  0
  187.9410  178.4970  137.0300 C   0  0  2  0  0  3  0  0  0  0  0  0
  189.1340  179.4230  137.1640 C   0  0  0  0  0  1  0  0  0  0  0  0
  187.2000  176.1140  137.5410 C   0  0  0  0  0  2  0  0  0  0  0  0
  188.0510  174.9780  137.0090 C   0  0  0  0  0  2  0  0  0  0  0  0
  189.4290  175.4210  136.8930 N   0  0  0  0  0  2  0  0  0  0  0  0
  190.2730  174.2470  137.0540 C   0  0  2  0  0  3  0  0  0  0  0  0
  189.4780  173.1410  137.3610 O   0  0  0  0  0  1  0  0  0  0  0  0
  192.2130  175.2030  137.5020 C   0  0  0  0  0  1  0  0  0  0  0  0
  191.1830  174.4680  138.0880 O   0  0  0  0  0  0  0  0  0  0  0  0
  1  5  1  0  0  0  0
  2  6  1  0  0  0  0
  2 13  1  1  0  0  0
  3 11  2  0  0  0  0
  4 10  1  0  0  0  0
  4  1  2  0  0  0  0
  5 11  1  0  0  0  0
  5 18  1  1  0  0  0
  6  3  1  0  0  0  0
  7  9  2  0  0  0  0
  8  9  1  0  0  0  0
  8 10  1  0  0  0  0
  9  2  1  0  0  0  0
 10  6  2  0  0  0  0
 12 14  1  0  0  0  0
 13 12  1  0  0  0  0
 14 17  1  0  0  0  0
 15 12  2  0  0  0  0
 16 17  1  0  0  0  0
 18 19  1  0  0  0  0
 20 24  1  6  0  0  0
 20  8  1  0  0  0  0
 21 22  1  0  0  0  0
 22 23  1  6  0  0  0
 22 20  1  0  0  0  0
 25 24  1  0  0  0  0
 26 25  1  0  0  0  0
 26 27  1  0  0  0  0
 27 28  1  1  0  0  0
 27 30  1  0  0  0  0
 29 30  1  0  0  0  0
M  END
>  <MODEL>
2

>  <REMARK>
 VINA RESULT:      -6.3      2.100      8.145
  Name = 
  10 active torsions:
  status: ('A' for Active; 'I' for Inactive)
    1  A    between atoms: C_3  and  N_20
    2  A    between atoms: C_3  and  C_25
    3  A    between atoms: C_3  and  C_26
    4  A    between atoms: C_4  and  N_22
    5  A    between atoms: C_4  and  C_26
    6  A    between atoms: O_5  and  C_15
    7  A    between atoms: C_8  and  N_9
    8  A    between atoms: C_10  and  O_18
    9  A    between atoms: C_10  and  N_22
   10  A    between atoms: N_16  and  C_27
                            x       y       z     vdW  Elec       q    Type
                         _______ _______ _______ _____ _____    ______ ____

>  <TORSDO>
F 10

$$$$
=
 OpenBabel10222416413D

 30 31  0  0  1  0  0  0  0  0999 V2000
  187.6530  177.8290  144.7060 C   0  0  0  0  0  3  0  0  0  0  0  0
  184.7940  179.0250  141.3830 C   0  0  1  0  0  3  0  0  0  0  0  0
  185.0020  179.1990  143.9680 C   0  0  0  0  0  3  0  0  0  0  0  0
  187.8540  178.1440  143.4250 C   0  0  0  0  0  3  0  0  0  0  0  0
  186.3020  177.5230  145.2750 C   0  0  2  0  0  3  0  0  0  0  0  0
  185.5410  178.7760  142.6610 C   0  0  0  0  0  0  0  0  0  0  0  0
  185.7150  178.7690  139.1460 O   0  0  0  0  0  0  0  0  0  0  0  0
  187.0320  178.2060  141.0270 N   0  0  0  0  0  0  0  0  0  0  0  0
  185.8440  178.6600  140.3930 C   0  0  0  0  0  0  0  0  0  0  0  0
  186.7840  178.3260  142.4220 C   0  0  0  0  0  0  0  0  0  0  0  0
  185.3620  178.6800  145.1420 C   0  0  0  0  0  3  0  0  0  0  0  0
  182.5040  178.3780  140.5150 C   0  0  0  0  0  0  0  0  0  0  0  0
  183.6720  178.1000  141.2900 N   0  0  0  0  0  2  0  0  0  0  0  0
  181.4710  177.3980  140.4340 N   0  0  0  0  0  2  0  0  0  0  0  0
  182.3890  179.4770  139.9080 O   0  0  0  0  0  0  0  0  0  0  0  0
  179.1470  178.0670  140.5810 C   0  0  0  0  0  1  0  0  0  0  0  0
  180.2620  177.6190  139.6600 C   0  0  0  0  0  2  0  0  0  0  0  0
  186.4280  177.1730  146.6190 O   0  0  0  0  0  0  0  0  0  0  0  0
  187.5590  177.8610  147.0630 C   0  0  0  0  0  1  0  0  0  0  0  0
  188.3440  177.9980  140.4130 C   0  0  2  0  0  3  0  0  0  0  0  0
  188.3430  176.6810  138.3870 O   0  0  0  0  0  1  0  0  0  0  0  0
  188.2350  177.9800  138.8870 C   0  0  2  0  0  3  0  0  0  0  0  0
  189.3010  178.8600  138.2620 C   0  0  0  0  0  1  0  0  0  0  0  0
  189.0350  176.7560  140.9730 C   0  0  0  0  0  2  0  0  0  0  0  0
  190.4910  177.0570  141.2680 C   0  0  0  0  0  2  0  0  0  0  0  0
  190.8920  176.3570  142.4750 N   0  0  0  0  0  2  0  0  0  0  0  0
  191.6830  177.2860  143.2680 C   0  0  2  0  0  3  0  0  0  0  0  0
  191.4610  177.0450  144.6250 O   0  0  0  0  0  1  0  0  0  0  0  0
  191.3790  179.2770  144.1750 C   0  0  0  0  0  1  0  0  0  0  0  0
  191.3070  178.5940  142.9610 O   0  0  0  0  0  0  0  0  0  0  0  0
  1  5  1  0  0  0  0
  2 13  1  1  0  0  0
  2  6  1  0  0  0  0
  3 11  2  0  0  0  0
  4  1  2  0  0  0  0
  5 18  1  1  0  0  0
  6  3  1  0  0  0  0
  7  9  2  0  0  0  0
  8 10  1  0  0  0  0
  9  8  1  0  0  0  0
  9  2  1  0  0  0  0
 10  6  2  0  0  0  0
 10  4  1  0  0  0  0
 11  5  1  0  0  0  0
 12 13  1  0  0  0  0
 14 12  1  0  0  0  0
 15 12  2  0  0  0  0
 17 14  1  0  0  0  0
 17 16  1  0  0  0  0
 18 19  1  0  0  0  0
 20 24  1  1  0  0  0
 20  8  1  0  0  0  0
 21 22  1  0  0  0  0
 22 23  1  6  0  0  0
 22 20  1  0  0  0  0
 24 25  1  0  0  0  0
 25 26  1  0  0  0  0
 26 27  1  0  0  0  0
 27 28  1  1  0  0  0
 30 27  1  0  0  0  0
 30 29  1  0  0  0  0
M  END
>  <MODEL>
3

>  <REMARK>
 VINA RESULT:      -6.2      2.716      7.317
  Name = 
  10 active torsions:
  status: ('A' for Active; 'I' for Inactive)
    1  A    between atoms: C_3  and  N_20
    2  A    between atoms: C_3  and  C_25
    3  A    between atoms: C_3  and  C_26
    4  A    between atoms: C_4  and  N_22
    5  A    between atoms: C_4  and  C_26
    6  A    between atoms: O_5  and  C_15
    7  A    between atoms: C_8  and  N_9
    8  A    between atoms: C_10  and  O_18
    9  A    between atoms: C_10  and  N_22
   10  A    between atoms: N_16  and  C_27
                            x       y       z     vdW  Elec       q    Type
                         _______ _______ _______ _____ _____    ______ ____

>  <TORSDO>
F 10

$$$$
=
 OpenBabel10222416413D

 30 31  0  0  1  0  0  0  0  0999 V2000
  185.2160  178.5760  143.4090 C   0  0  0  0  0  3  0  0  0  0  0  0
  188.0510  178.2310  139.8760 C   0  0  1  0  0  3  0  0  0  0  0  0
  185.6450  179.0590  140.4040 C   0  0  0  0  0  3  0  0  0  0  0  0
  186.5460  178.6150  143.3250 C   0  0  0  0  0  3  0  0  0  0  0  0
  184.3350  178.1020  142.2950 C   0  0  2  0  0  3  0  0  0  0  0  0
  186.9290  178.4780  140.8410 C   0  0  0  0  0  0  0  0  0  0  0  0
  190.3380  177.6760  140.4940 O   0  0  0  0  0  0  0  0  0  0  0  0
  188.6930  177.9080  142.1760 N   0  0  0  0  0  0  0  0  0  0  0  0
  189.1460  177.9010  140.8290 C   0  0  0  0  0  0  0  0  0  0  0  0
  187.3260  178.2930  142.1110 C   0  0  0  0  0  0  0  0  0  0  0  0
  184.4920  178.9360  141.0620 C   0  0  0  0  0  3  0  0  0  0  0  0
  187.4070  177.1730  137.6660 C   0  0  0  0  0  0  0  0  0  0  0  0
  187.7350  177.0700  139.0530 N   0  0  0  0  0  2  0  0  0  0  0  0
  187.1590  175.9840  136.9180 N   0  0  0  0  0  2  0  0  0  0  0  0
  187.3380  178.3020  137.1090 O   0  0  0  0  0  0  0  0  0  0  0  0
  187.9330  175.3680  134.7060 C   0  0  0  0  0  1  0  0  0  0  0  0
  186.8250  176.0220  135.5050 C   0  0  0  0  0  2  0  0  0  0  0  0
  183.0030  178.1220  142.7090 O   0  0  0  0  0  0  0  0  0  0  0  0
  182.9820  178.9900  143.8020 C   0  0  0  0  0  1  0  0  0  0  0  0
  189.5110  177.8780  143.3890 C   0  0  2  0  0  3  0  0  0  0  0  0
  191.8200  177.1810  143.2430 O   0  0  0  0  0  1  0  0  0  0  0  0
  190.9580  178.2670  143.0820 C   0  0  2  0  0  3  0  0  0  0  0  0
  191.4060  179.4130  143.9680 C   0  0  0  0  0  1  0  0  0  0  0  0
  189.3980  176.5360  144.1090 C   0  0  0  0  0  2  0  0  0  0  0  0
  189.5260  176.7340  145.6060 C   0  0  0  0  0  2  0  0  0  0  0  0
  188.7390  177.8870  146.0080 N   0  0  0  0  0  2  0  0  0  0  0  0
  187.6070  177.3890  146.7740 C   0  0  2  0  0  3  0  0  0  0  0  0
  186.6720  178.4120  146.9420 O   0  0  0  0  0  1  0  0  0  0  0  0
  188.2490  178.1220  148.7560 C   0  0  0  0  0  1  0  0  0  0  0  0
  188.0480  176.9520  148.0230 O   0  0  0  0  0  0  0  0  0  0  0  0
  2 13  1  6  0  0  0
  2  9  1  0  0  0  0
  2  6  1  0  0  0  0
  3  6  1  0  0  0  0
  3 11  2  0  0  0  0
  4  1  2  0  0  0  0
  5 18  1  1  0  0  0
  5  1  1  0  0  0  0
  6 10  2  0  0  0  0
  7  9  2  0  0  0  0
  8 20  1  0  0  0  0
  9  8  1  0  0  0  0
 10  8  1  0  0  0  0
 10  4  1  0  0  0  0
 11  5  1  0  0  0  0
 12 13  1  0  0  0  0
 14 12  1  0  0  0  0
 15 12  2  0  0  0  0
 16 17  1  0  0  0  0
 17 14  1  0  0  0  0
 18 19  1  0  0  0  0
 20 24  1  6  0  0  0
 22 21  1  0  0  0  0
 22 20  1  0  0  0  0
 22 23  1  1  0  0  0
 24 25  1  0  0  0  0
 25 26  1  0  0  0  0
 26 27  1  0  0  0  0
 27 28  1  1  0  0  0
 27 30  1  0  0  0  0
 30 29  1  0  0  0  0
M  END
>  <MODEL>
4

>  <REMARK>
 VINA RESULT:      -6.1      2.442      3.468
  Name = 
  10 active torsions:
  status: ('A' for Active; 'I' for Inactive)
    1  A    between atoms: C_3  and  N_20
    2  A    between atoms: C_3  and  C_25
    3  A    between atoms: C_3  and  C_26
    4  A    between atoms: C_4  and  N_22
    5  A    between atoms: C_4  and  C_26
    6  A    between atoms: O_5  and  C_15
    7  A    between atoms: C_8  and  N_9
    8  A    between atoms: C_10  and  O_18
    9  A    between atoms: C_10  and  N_22
   10  A    between atoms: N_16  and  C_27
                            x       y       z     vdW  Elec       q    Type
                         _______ _______ _______ _____ _____    ______ ____

>  <TORSDO>
F 10

$$$$
=
 OpenBabel10222416413D

 30 31  0  0  1  0  0  0  0  0999 V2000
  191.8700  176.6640  142.5880 C   0  0  0  0  0  3  0  0  0  0  0  0
  187.9810  178.7560  141.5210 C   0  0  1  0  0  3  0  0  0  0  0  0
  189.6480  178.5780  143.5070 C   0  0  0  0  0  3  0  0  0  0  0  0
  191.3740  177.0870  141.4240 C   0  0  0  0  0  3  0  0  0  0  0  0
  191.0520  176.5470  143.8370 C   0  0  2  0  0  3  0  0  0  0  0  0
  189.2430  178.2220  142.1340 C   0  0  0  0  0  0  0  0  0  0  0  0
  187.3890  178.6030  139.1660 O   0  0  0  0  0  0  0  0  0  0  0  0
  189.3770  177.5870  139.9430 N   0  0  0  0  0  0  0  0  0  0  0  0
  188.1740  178.3240  140.1090 C   0  0  0  0  0  0  0  0  0  0  0  0
  189.9960  177.5820  141.2230 C   0  0  0  0  0  0  0  0  0  0  0  0
  190.4850  177.8650  144.2610 C   0  0  0  0  0  3  0  0  0  0  0  0
  185.6120  178.7430  142.4170 C   0  0  0  0  0  0  0  0  0  0  0  0
  186.8330  178.0720  142.1030 N   0  0  0  0  0  2  0  0  0  0  0  0
  184.5170  177.9920  142.9370 N   0  0  0  0  0  2  0  0  0  0  0  0
  185.5020  179.9860  142.2340 O   0  0  0  0  0  0  0  0  0  0  0  0
  183.2180  178.9370  144.7510 C   0  0  0  0  0  1  0  0  0  0  0  0
  183.2480  178.6150  143.2720 C   0  0  0  0  0  2  0  0  0  0  0  0
  191.8370  176.0220  144.8640 O   0  0  0  0  0  0  0  0  0  0  0  0
  191.5040  176.7770  145.9900 C   0  0  0  0  0  1  0  0  0  0  0  0
  190.0260  177.2140  138.6860 C   0  0  2  0  0  3  0  0  0  0  0  0
  188.9350  175.5220  137.3490 O   0  0  0  0  0  1  0  0  0  0  0  0
  188.9870  176.8930  137.6100 C   0  0  2  0  0  3  0  0  0  0  0  0
  189.2870  177.6480  136.3300 C   0  0  0  0  0  1  0  0  0  0  0  0
  191.0370  176.0880  138.8880 C   0  0  0  0  0  2  0  0  0  0  0  0
  192.2560  176.3190  138.0160 C   0  0  0  0  0  2  0  0  0  0  0  0
  192.8590  175.0400  137.6840 N   0  0  0  0  0  2  0  0  0  0  0  0
  194.1420  175.3200  137.0570 C   0  0  2  0  0  3  0  0  0  0  0  0
  195.1590  175.1980  138.0040 O   0  0  0  0  0  1  0  0  0  0  0  0
  194.9840  176.5690  135.4410 C   0  0  0  0  0  1  0  0  0  0  0  0
  194.1350  176.6190  136.5470 O   0  0  0  0  0  0  0  0  0  0  0  0
  1  5  1  0  0  0  0
  2 13  1  1  0  0  0
  2  6  1  0  0  0  0
  3 11  2  0  0  0  0
  4  1  2  0  0  0  0
  5 11  1  0  0  0  0
  5 18  1  1  0  0  0
  6  3  1  0  0  0  0
  7  9  2  0  0  0  0
  8  9  1  0  0  0  0
  8 10  1  0  0  0  0
  9  2  1  0  0  0  0
 10  4  1  0  0  0  0
 10  6  2  0  0  0  0
 12 14  1  0  0  0  0
 13 12  1  0  0  0  0
 14 17  1  0  0  0  0
 15 12  2  0  0  0  0
 17 16  1  0  0  0  0
 18 19  1  0  0  0  0
 20 24  1  1  0  0  0
 20  8  1  0  0  0  0
 21 22  1  0  0  0  0
 22 23  1  6  0  0  0
 22 20  1  0  0  0  0
 25 24  1  0  0  0  0
 26 25  1  0  0  0  0
 27 26  1  0  0  0  0
 27 28  1  1  0  0  0
 29 30  1  0  0  0  0
 30 27  1  0  0  0  0
M  END
>  <MODEL>
5

>  <REMARK>
 VINA RESULT:      -6.1      2.269      8.536
  Name = 
  10 active torsions:
  status: ('A' for Active; 'I' for Inactive)
    1  A    between atoms: C_3  and  N_20
    2  A    between atoms: C_3  and  C_25
    3  A    between atoms: C_3  and  C_26
    4  A    between atoms: C_4  and  N_22
    5  A    between atoms: C_4  and  C_26
    6  A    between atoms: O_5  and  C_15
    7  A    between atoms: C_8  and  N_9
    8  A    between atoms: C_10  and  O_18
    9  A    between atoms: C_10  and  N_22
   10  A    between atoms: N_16  and  C_27
                            x       y       z     vdW  Elec       q    Type
                         _______ _______ _______ _____ _____    ______ ____

>  <TORSDO>
F 10

$$$$
=
 OpenBabel10222416413D

 30 31  0  0  1  0  0  0  0  0999 V2000
  187.9110  177.8220  143.8640 C   0  0  0  0  0  3  0  0  0  0  0  0
  184.6430  178.9790  140.9280 C   0  0  1  0  0  3  0  0  0  0  0  0
  185.1020  179.0110  143.4870 C   0  0  0  0  0  3  0  0  0  0  0  0
  187.9550  178.2300  142.5950 C   0  0  0  0  0  3  0  0  0  0  0  0
  186.6540  177.3710  144.5400 C   0  0  2  0  0  3  0  0  0  0  0  0
  185.5340  178.7140  142.1070 C   0  0  0  0  0  0  0  0  0  0  0  0
  185.3440  178.9370  138.5990 O   0  0  0  0  0  0  0  0  0  0  0  0
  186.8870  178.3710  140.2990 N   0  0  0  0  0  0  0  0  0  0  0  0
  185.6100  178.7630  139.8170 C   0  0  0  0  0  0  0  0  0  0  0  0
  186.7760  178.3840  141.7160 C   0  0  0  0  0  0  0  0  0  0  0  0
  185.6200  178.4520  144.5810 C   0  0  0  0  0  3  0  0  0  0  0  0
  182.2900  178.2360  140.3510 C   0  0  0  0  0  0  0  0  0  0  0  0
  183.5900  177.9710  140.8820 N   0  0  0  0  0  2  0  0  0  0  0  0
  181.3310  177.1820  140.2950 N   0  0  0  0  0  2  0  0  0  0  0  0
  181.9940  179.3900  139.9370 O   0  0  0  0  0  0  0  0  0  0  0  0
  178.9970  176.6110  140.5960 C   0  0  0  0  0  1  0  0  0  0  0  0
  179.9950  177.3870  139.7640 C   0  0  0  0  0  2  0  0  0  0  0  0
  186.9440  176.9510  145.8380 O   0  0  0  0  0  0  0  0  0  0  0  0
  188.0560  177.7050  146.2170 C   0  0  0  0  0  1  0  0  0  0  0  0
  188.1410  178.3100  139.5460 C   0  0  2  0  0  3  0  0  0  0  0  0
  187.8050  176.9480  137.5780 O   0  0  0  0  0  1  0  0  0  0  0  0
  187.8720  178.2640  138.0410 C   0  0  2  0  0  3  0  0  0  0  0  0
  188.9420  179.0220  137.2800 C   0  0  0  0  0  1  0  0  0  0  0  0
  189.0270  177.1620  140.0250 C   0  0  0  0  0  2  0  0  0  0  0  0
  190.4770  177.6010  140.0590 C   0  0  0  0  0  2  0  0  0  0  0  0
  191.3300  176.4760  139.7210 N   0  0  0  0  0  2  0  0  0  0  0  0
  191.0080  176.0870  138.3560 C   0  0  2  0  0  3  0  0  0  0  0  0
  191.0770  174.6970  138.2400 O   0  0  0  0  0  1  0  0  0  0  0  0
  193.1170  175.9910  137.7070 C   0  0  0  0  0  1  0  0  0  0  0  0
  191.9210  176.6720  137.4790 O   0  0  0  0  0  0  0  0  0  0  0  0
  1  5  1  0  0  0  0
  2 13  1  6  0  0  0
  2  6  1  0  0  0  0
  3 11  2  0  0  0  0
  4  1  2  0  0  0  0
  5 11  1  0  0  0  0
  5 18  1  1  0  0  0
  6  3  1  0  0  0  0
  7  9  2  0  0  0  0
  8 10  1  0  0  0  0
  9  8  1  0  0  0  0
  9  2  1  0  0  0  0
 10  6  2  0  0  0  0
 10  4  1  0  0  0  0
 12 13  1  0  0  0  0
 14 12  1  0  0  0  0
 15 12  2  0  0  0  0
 17 14  1  0  0  0  0
 17 16  1  0  0  0  0
 18 19  1  0  0  0  0
 20 24  1  1  0  0  0
 20  8  1  0  0  0  0
 21 22  1  0  0  0  0
 22 23  1  6  0  0  0
 22 20  1  0  0  0  0
 24 25  1  0  0  0  0
 26 25  1  0  0  0  0
 27 28  1  1  0  0  0
 27 26  1  0  0  0  0
 30 29  1  0  0  0  0
 30 27  1  0  0  0  0
M  END
>  <MODEL>
6

>  <REMARK>
 VINA RESULT:      -5.8      2.832      8.038
  Name = 
  10 active torsions:
  status: ('A' for Active; 'I' for Inactive)
    1  A    between atoms: C_3  and  N_20
    2  A    between atoms: C_3  and  C_25
    3  A    between atoms: C_3  and  C_26
    4  A    between atoms: C_4  and  N_22
    5  A    between atoms: C_4  and  C_26
    6  A    between atoms: O_5  and  C_15
    7  A    between atoms: C_8  and  N_9
    8  A    between atoms: C_10  and  O_18
    9  A    between atoms: C_10  and  N_22
   10  A    between atoms: N_16  and  C_27
                            x       y       z     vdW  Elec       q    Type
                         _______ _______ _______ _____ _____    ______ ____

>  <TORSDO>
F 10

$$$$
=
 OpenBabel10222416413D

 30 31  0  0  1  0  0  0  0  0999 V2000
  187.4010  177.8580  145.0210 C   0  0  0  0  0  3  0  0  0  0  0  0
  186.5030  179.0350  140.7250 C   0  0  1  0  0  3  0  0  0  0  0  0
  185.5360  179.3840  143.1130 C   0  0  0  0  0  3  0  0  0  0  0  0
  188.1920  178.0570  143.9660 C   0  0  0  0  0  3  0  0  0  0  0  0
  185.9150  177.7090  144.9170 C   0  0  2  0  0  3  0  0  0  0  0  0
  186.5590  178.8200  142.2100 C   0  0  0  0  0  0  0  0  0  0  0  0
  188.3020  178.5350  139.1660 O   0  0  0  0  0  0  0  0  0  0  0  0
  188.5560  178.0080  141.4570 N   0  0  0  0  0  0  0  0  0  0  0  0
  187.8410  178.5100  140.3370 C   0  0  0  0  0  0  0  0  0  0  0  0
  187.7190  178.2520  142.5790 C   0  0  0  0  0  0  0  0  0  0  0  0
  185.2680  178.9270  144.3360 C   0  0  0  0  0  3  0  0  0  0  0  0
  184.4810  178.7040  139.2360 C   0  0  0  0  0  0  0  0  0  0  0  0
  185.4510  178.2010  140.1560 N   0  0  0  0  0  2  0  0  0  0  0  0
  183.5140  177.8130  138.6840 N   0  0  0  0  0  2  0  0  0  0  0  0
  184.4790  179.9240  138.9150 O   0  0  0  0  0  0  0  0  0  0  0  0
  182.8080  177.7010  136.3690 C   0  0  0  0  0  1  0  0  0  0  0  0
  182.5040  178.2620  137.7420 C   0  0  0  0  0  2  0  0  0  0  0  0
  185.3800  177.4520  146.1800 O   0  0  0  0  0  0  0  0  0  0  0  0
  185.9220  178.4390  147.0050 C   0  0  0  0  0  1  0  0  0  0  0  0
  189.9730  177.6460  141.5170 C   0  0  2  0  0  3  0  0  0  0  0  0
  190.1900  175.9900  139.7700 O   0  0  0  0  0  1  0  0  0  0  0  0
  190.5080  177.3020  140.1260 C   0  0  2  0  0  3  0  0  0  0  0  0
  192.0100  177.5010  140.0630 C   0  0  0  0  0  1  0  0  0  0  0  0
  190.2250  176.5390  142.5390 C   0  0  0  0  0  2  0  0  0  0  0  0
  191.3570  176.9340  143.4660 C   0  0  0  0  0  2  0  0  0  0  0  0
  191.6750  175.8190  144.3410 N   0  0  0  0  0  2  0  0  0  0  0  0
  191.8120  176.3540  145.6870 C   0  0  2  0  0  3  0  0  0  0  0  0
  192.1770  175.3280  146.5600 O   0  0  0  0  0  1  0  0  0  0  0  0
  190.6040  176.7870  147.4850 C   0  0  0  0  0  1  0  0  0  0  0  0
  190.5940  176.8990  146.0950 O   0  0  0  0  0  0  0  0  0  0  0  0
  2 13  1  6  0  0  0
  2  6  1  0  0  0  0
  3 11  2  0  0  0  0
  4  1  2  0  0  0  0
  5  1  1  0  0  0  0
  5 18  1  1  0  0  0
  6 10  2  0  0  0  0
  6  3  1  0  0  0  0
  7  9  2  0  0  0  0
  8 20  1  0  0  0  0
  8 10  1  0  0  0  0
  9  2  1  0  0  0  0
  9  8  1  0  0  0  0
 10  4  1  0  0  0  0
 11  5  1  0  0  0  0
 12 13  1  0  0  0  0
 14 12  1  0  0  0  0
 15 12  2  0  0  0  0
 16 17  1  0  0  0  0
 17 14  1  0  0  0  0
 18 19  1  0  0  0  0
 20 24  1  1  0  0  0
 21 22  1  0  0  0  0
 22 23  1  1  0  0  0
 22 20  1  0  0  0  0
 24 25  1  0  0  0  0
 25 26  1  0  0  0  0
 26 27  1  0  0  0  0
 27 30  1  0  0  0  0
 27 28  1  1  0  0  0
 30 29  1  0  0  0  0
M  END
>  <MODEL>
7

>  <REMARK>
 VINA RESULT:      -5.7      2.564      6.175
  Name = 
  10 active torsions:
  status: ('A' for Active; 'I' for Inactive)
    1  A    between atoms: C_3  and  N_20
    2  A    between atoms: C_3  and  C_25
    3  A    between atoms: C_3  and  C_26
    4  A    between atoms: C_4  and  N_22
    5  A    between atoms: C_4  and  C_26
    6  A    between atoms: O_5  and  C_15
    7  A    between atoms: C_8  and  N_9
    8  A    between atoms: C_10  and  O_18
    9  A    between atoms: C_10  and  N_22
   10  A    between atoms: N_16  and  C_27
                            x       y       z     vdW  Elec       q    Type
                         _______ _______ _______ _____ _____    ______ ____

>  <TORSDO>
F 10

$$$$
=
 OpenBabel10222416413D

 30 31  0  0  1  0  0  0  0  0999 V2000
  188.9600  177.9070  138.7780 C   0  0  0  0  0  3  0  0  0  0  0  0
  184.6000  178.7200  139.7650 C   0  0  1  0  0  3  0  0  0  0  0  0
  186.0630  177.9670  137.7530 C   0  0  0  0  0  3  0  0  0  0  0  0
  188.2660  177.7970  139.9120 C   0  0  0  0  0  3  0  0  0  0  0  0
  188.4550  178.6380  137.5730 C   0  0  2  0  0  3  0  0  0  0  0  0
  185.9310  178.3710  139.1660 C   0  0  0  0  0  0  0  0  0  0  0  0
  184.1590  178.9980  142.1420 O   0  0  0  0  0  0  0  0  0  0  0  0
  186.3620  178.5640  141.4010 N   0  0  0  0  0  0  0  0  0  0  0  0
  184.9740  178.7930  141.2050 C   0  0  0  0  0  0  0  0  0  0  0  0
  186.8860  178.2880  140.1090 C   0  0  0  0  0  0  0  0  0  0  0  0
  187.1890  178.0400  137.0440 C   0  0  0  0  0  3  0  0  0  0  0  0
  182.8490  180.3110  138.8610 C   0  0  0  0  0  0  0  0  0  0  0  0
  184.1840  180.0320  139.2870 N   0  0  0  0  0  2  0  0  0  0  0  0
  182.5080  181.6340  138.4540 N   0  0  0  0  0  2  0  0  0  0  0  0
  181.9800  179.3960  138.8450 O   0  0  0  0  0  0  0  0  0  0  0  0
  181.1380  183.4330  137.5850 C   0  0  0  0  0  1  0  0  0  0  0  0
  181.1680  181.9820  138.0140 C   0  0  0  0  0  2  0  0  0  0  0  0
  189.4310  178.6270  136.5760 O   0  0  0  0  0  0  0  0  0  0  0  0
  189.0980  177.5440  135.7610 C   0  0  0  0  0  1  0  0  0  0  0  0
  187.0520  178.3130  142.6680 C   0  0  2  0  0  3  0  0  0  0  0  0
  188.2580  176.2330  142.9090 O   0  0  0  0  0  1  0  0  0  0  0  0
  188.3530  177.5430  142.4360 C   0  0  2  0  0  3  0  0  0  0  0  0
  189.5190  178.2460  143.1040 C   0  0  0  0  0  1  0  0  0  0  0  0
  186.1330  177.6330  143.6810 C   0  0  0  0  0  2  0  0  0  0  0  0
  186.0760  178.4450  144.9600 C   0  0  0  0  0  2  0  0  0  0  0  0
  186.9790  177.8650  145.9390 N   0  0  0  0  0  2  0  0  0  0  0  0
  186.4920  178.2530  147.2540 C   0  0  2  0  0  3  0  0  0  0  0  0
  185.6830  179.3840  147.1360 O   0  0  0  0  0  1  0  0  0  0  0  0
  188.5410  177.5920  147.7470 C   0  0  0  0  0  1  0  0  0  0  0  0
  187.5760  178.5410  148.0840 O   0  0  0  0  0  0  0  0  0  0  0  0
  1  4  2  0  0  0  0
  2 13  1  6  0  0  0
  2  9  1  0  0  0  0
  3  6  1  0  0  0  0
  4 10  1  0  0  0  0
  5 18  1  6  0  0  0
  5  1  1  0  0  0  0
  6  2  1  0  0  0  0
  6 10  2  0  0  0  0
  8 20  1  0  0  0  0
  9  8  1  0  0  0  0
  9  7  2  0  0  0  0
 10  8  1  0  0  0  0
 11  5  1  0  0  0  0
 11  3  2  0  0  0  0
 12 13  1  0  0  0  0
 14 12  1  0  0  0  0
 15 12  2  0  0  0  0
 16 17  1  0  0  0  0
 17 14  1  0  0  0  0
 19 18  1  0  0  0  0
 20 24  1  1  0  0  0
 22 20  1  0  0  0  0
 22 21  1  0  0  0  0
 22 23  1  1  0  0  0
 24 25  1  0  0  0  0
 25 26  1  0  0  0  0
 26 27  1  0  0  0  0
 27 28  1  6  0  0  0
 27 30  1  0  0  0  0
 29 30  1  0  0  0  0
M  END
>  <MODEL>
8

>  <REMARK>
 VINA RESULT:      -5.6      3.000      6.214
  Name = 
  10 active torsions:
  status: ('A' for Active; 'I' for Inactive)
    1  A    between atoms: C_3  and  N_20
    2  A    between atoms: C_3  and  C_25
    3  A    between atoms: C_3  and  C_26
    4  A    between atoms: C_4  and  N_22
    5  A    between atoms: C_4  and  C_26
    6  A    between atoms: O_5  and  C_15
    7  A    between atoms: C_8  and  N_9
    8  A    between atoms: C_10  and  O_18
    9  A    between atoms: C_10  and  N_22
   10  A    between atoms: N_16  and  C_27
                            x       y       z     vdW  Elec       q    Type
                         _______ _______ _______ _____ _____    ______ ____

>  <TORSDO>
F 10

$$$$
=
 OpenBabel10222416413D

 30 31  0  0  1  0  0  0  0  0999 V2000
  191.3090  175.3110  136.3220 C   0  0  0  0  0  3  0  0  0  0  0  0
  190.5840  177.4180  140.2820 C   0  0  1  0  0  3  0  0  0  0  0  0
  192.5590  176.7700  138.7210 C   0  0  0  0  0  3  0  0  0  0  0  0
  190.2760  176.0210  136.7800 C   0  0  0  0  0  3  0  0  0  0  0  0
  192.4110  174.8030  137.2000 C   0  0  2  0  0  3  0  0  0  0  0  0
  191.1150  176.7980  139.0220 C   0  0  0  0  0  0  0  0  0  0  0  0
  188.2430  177.9090  140.7270 O   0  0  0  0  0  0  0  0  0  0  0  0
  188.8510  176.8170  138.7200 N   0  0  0  0  0  0  0  0  0  0  0  0
  189.1260  177.4150  139.9790 C   0  0  0  0  0  0  0  0  0  0  0  0
  190.1200  176.4820  138.1760 C   0  0  0  0  0  0  0  0  0  0  0  0
  193.1440  175.9160  137.8800 C   0  0  0  0  0  3  0  0  0  0  0  0
  191.1530  177.0320  142.7200 C   0  0  0  0  0  0  0  0  0  0  0  0
  190.8650  176.5390  141.4100 N   0  0  0  0  0  2  0  0  0  0  0  0
  191.3680  176.1050  143.7820 N   0  0  0  0  0  2  0  0  0  0  0  0
  191.2160  178.2730  142.9340 O   0  0  0  0  0  0  0  0  0  0  0  0
  190.3860  177.0170  145.8010 C   0  0  0  0  0  1  0  0  0  0  0  0
  191.6610  176.5430  145.1360 C   0  0  0  0  0  2  0  0  0  0  0  0
  193.3050  174.0490  136.4400 O   0  0  0  0  0  0  0  0  0  0  0  0
  194.2230  173.5450  137.3630 C   0  0  0  0  0  1  0  0  0  0  0  0
  187.5900  176.8500  137.9770 C   0  0  2  0  0  3  0  0  0  0  0  0
  187.1350  176.3830  135.6500 O   0  0  0  0  0  1  0  0  0  0  0  0
  187.5990  175.8240  136.8420 C   0  0  2  0  0  3  0  0  0  0  0  0
  186.7580  174.6160  137.2040 C   0  0  0  0  0  1  0  0  0  0  0  0
  187.2600  178.2620  137.4970 C   0  0  0  0  0  2  0  0  0  0  0  0
  185.8340  178.6180  137.8680 C   0  0  0  0  0  2  0  0  0  0  0  0
  185.5090  178.0290  139.1550 N   0  0  0  0  0  2  0  0  0  0  0  0
  184.7170  179.0050  139.8870 C   0  0  2  0  0  3  0  0  0  0  0  0
  184.4990  180.1250  139.0830 O   0  0  0  0  0  1  0  0  0  0  0  0
  184.9090  178.5510  142.0410 C   0  0  0  0  0  1  0  0  0  0  0  0
  185.4040  179.3880  141.0400 O   0  0  0  0  0  0  0  0  0  0  0  0
  1  4  2  0  0  0  0
  1  5  1  0  0  0  0
  2 13  1  1  0  0  0
  3  6  1  0  0  0  0
  4 10  1  0  0  0  0
  5 18  1  6  0  0  0
  5 11  1  0  0  0  0
  6  2  1  0  0  0  0
  8  9  1  0  0  0  0
  9  2  1  0  0  0  0
  9  7  2  0  0  0  0
 10  8  1  0  0  0  0
 10  6  2  0  0  0  0
 11  3  2  0  0  0  0
 12 15  2  0  0  0  0
 12 14  1  0  0  0  0
 13 12  1  0  0  0  0
 14 17  1  0  0  0  0
 17 16  1  0  0  0  0
 18 19  1  0  0  0  0
 20 24  1  6  0  0  0
 20  8  1  0  0  0  0
 21 22  1  0  0  0  0
 22 23  1  1  0  0  0
 22 20  1  0  0  0  0
 24 25  1  0  0  0  0
 25 26  1  0  0  0  0
 26 27  1  0  0  0  0
 27 28  1  6  0  0  0
 27 30  1  0  0  0  0
 30 29  1  0  0  0  0
M  END
>  <MODEL>
9

>  <REMARK>
 VINA RESULT:      -5.6      2.611      6.631
  Name = 
  10 active torsions:
  status: ('A' for Active; 'I' for Inactive)
    1  A    between atoms: C_3  and  N_20
    2  A    between atoms: C_3  and  C_25
    3  A    between atoms: C_3  and  C_26
    4  A    between atoms: C_4  and  N_22
    5  A    between atoms: C_4  and  C_26
    6  A    between atoms: O_5  and  C_15
    7  A    between atoms: C_8  and  N_9
    8  A    between atoms: C_10  and  O_18
    9  A    between atoms: C_10  and  N_22
   10  A    between atoms: N_16  and  C_27
                            x       y       z     vdW  Elec       q    Type
                         _______ _______ _______ _____ _____    ______ ____

>  <TORSDO>
F 10

$$$$
