=
 OpenBabel10222420023D

 54 62  0  0  1  0  0  0  0  0999 V2000
  187.6620  177.6730  148.8370 N   0  0  0  0  0  1  0  0  0  0  0  0
  186.3190  178.2200  146.7010 C   0  0  0  0  0  3  0  0  0  0  0  0
  187.9700  177.6970  142.7790 C   0  0  0  0  0  0  0  0  0  0  0  0
  190.0240  176.8730  141.8800 C   0  0  2  0  0  3  0  0  0  0  0  0
  189.8860  176.9560  146.9620 C   0  0  0  0  0  1  0  0  0  0  0  0
  188.6970  177.4110  141.6010 N   0  0  0  0  0  2  0  0  0  0  0  0
  188.6770  177.4610  143.9810 N   0  0  0  0  0  0  0  0  0  0  0  0
  188.0270  177.6650  145.2360 C   0  0  0  0  0  0  0  0  0  0  0  0
  188.5340  177.4570  146.5790 C   0  0  0  0  0  0  0  0  0  0  0  0
  186.7790  178.0930  145.2820 C   0  0  0  0  0  0  0  0  0  0  0  0
  186.0340  178.3610  144.0670 N   0  0  0  0  0  0  0  0  0  0  0  0
  187.5590  177.7730  147.4200 C   0  0  2  0  0  3  0  0  0  0  0  0
  186.6980  178.1420  142.7930 C   0  0  0  0  0  0  0  0  0  0  0  0
  190.3260  176.9100  143.7060 S   0  0  0  0  0  0  0  0  0  0  0  0
  185.9800  178.3810  141.5010 C   0  0  0  0  0  1  0  0  0  0  0  0
  184.6630  178.8030  144.0580 C   0  0  0  0  0  3  0  0  0  0  0  0
  183.7090  178.2510  143.3160 C   0  0  0  0  0  3  0  0  0  0  0  0
  182.3180  178.7800  143.3560 C   0  0  0  0  0  2  0  0  0  0  0  0
  182.0040  179.5310  142.0690 C   0  0  0  0  0  2  0  0  0  0  0  0
  182.2270  178.6520  139.6590 C   0  0  1  0  0  0  0  0  0  0  0  0
  180.9310  179.1870  139.8490 O   0  0  0  0  0  0  0  0  0  0  0  0
  181.5320  178.5800  140.9730 C   0  0  2  0  0  0  0  0  0  0  0  0
  183.2190  175.3140  136.8130 C   0  0  0  0  0  2  0  0  0  0  0  0
  183.7430  176.5240  137.3150 O   0  0  0  0  0  0  0  0  0  0  0  0
  181.7080  175.1180  137.0530 C   0  0  1  0  0  3  0  0  0  0  0  0
  182.1870  177.5190  138.7390 N   0  0  0  0  0  0  0  0  0  0  0  0
  180.9080  176.3840  136.9810 C   0  0  0  0  0  3  0  0  0  0  0  0
  181.1860  174.1530  136.1010 N   0  0  0  0  0  1  0  0  0  0  0  0
  183.3520  176.6410  138.6570 C   0  0  0  0  0  2  0  0  0  0  0  0
  181.1170  177.4390  137.7790 C   0  0  0  0  0  3  0  0  0  0  0  0
  183.1400  179.6820  139.3770 O   0  0  0  0  0  0  0  0  0  0  0  0
  182.4820  180.5640  138.5140 C   0  0  0  0  0  1  0  0  0  0  0  0
  181.0050  177.3200  141.3070 O   0  0  0  0  0  0  0  0  0  0  0  0
  179.6140  177.4610  141.4050 C   0  0  0  0  0  2  0  0  0  0  0  0
  179.5840  175.2980  140.2370 C   0  0  0  0  0  2  0  0  0  0  0  0
  178.9340  176.4050  140.5940 C   0  0  0  0  0  3  0  0  0  0  0  0
  191.0660  177.7010  141.1510 C   0  0  0  0  0  2  0  0  0  0  0  0
  192.1550  176.8500  140.7130 N   0  0  0  0  0  2  0  0  0  0  0  0
  192.5990  177.3630  139.4290 C   0  0  0  0  0  2  0  0  0  0  0  0
  192.2360  176.3790  138.3320 C   0  0  0  0  0  2  0  0  0  0  0  0
  190.7290  176.2380  138.2180 C   0  0  1  0  0  3  0  0  0  0  0  0
  188.7330  176.9170  136.9060 C   0  0  1  0  0  0  0  0  0  0  0  0
  190.2090  177.1600  137.1280 C   0  0  1  0  0  3  0  0  0  0  0  0
  189.2070  178.1360  137.7040 C   0  0  2  0  0  3  0  0  0  0  0  0
  186.8220  177.8750  135.8020 C   0  0  0  0  0  2  0  0  0  0  0  0
  186.7630  178.2810  137.2650 C   0  0  0  0  0  2  0  0  0  0  0  0
  188.2460  177.4230  135.5650 C   0  0  0  0  0  2  0  0  0  0  0  0
  187.8570  177.5080  137.9860 C   0  0  1  0  0  3  0  0  0  0  0  0
  190.3910  174.8620  137.8940 N   0  0  0  0  0  2  0  0  0  0  0  0
  191.5840  174.2200  137.5380 N   0  0  0  0  0  2  0  0  0  0  0  0
  191.3310  173.5130  136.2880 C   0  0  2  0  0  3  0  0  0  0  0  0
  192.5610  172.7530  135.7850 C   0  0  1  0  0  3  0  0  0  0  0  0
  192.1930  174.0940  135.1870 C   0  0  0  0  0  2  0  0  0  0  0  0
  193.7110  172.9120  136.6650 N   0  0  0  0  0  1  0  0  0  0  0  0
  2 12  1  0  0  0  0
  3 13  2  0  0  0  0
  3  7  1  0  0  0  0
  4 37  1  6  0  0  0
  4 14  1  0  0  0  0
  6  4  1  0  0  0  0
  6  3  1  0  0  0  0
  7  8  1  0  0  0  0
  8 10  1  0  0  0  0
  8  9  2  0  0  0  0
  9  5  1  0  0  0  0
  9 12  1  0  0  0  0
 10  2  2  0  0  0  0
 11 10  1  0  0  0  0
 12  1  1  6  0  0  0
 13 11  1  0  0  0  0
 14  7  1  0  0  0  0
 15 13  1  0  0  0  0
 16 11  1  0  0  0  0
 17 18  1  0  0  0  0
 17 16  2  0  0  0  0
 19 18  1  0  0  0  0
 20 31  1  6  0  0  0
 20 21  1  0  0  0  0
 20 22  1  0  0  0  0
 21 22  1  0  0  0  0
 22 33  1  0  0  0  0
 22 19  1  1  0  0  0
 23 25  1  0  0  0  0
 23 24  1  0  0  0  0
 24 29  1  0  0  0  0
 25 28  1  6  0  0  0
 26 20  1  0  0  0  0
 27 25  1  0  0  0  0
 27 30  2  0  0  0  0
 29 26  1  0  0  0  0
 30 26  1  0  0  0  0
 32 31  1  0  0  0  0
 33 34  1  0  0  0  0
 35 36  2  0  0  0  0
 36 34  1  0  0  0  0
 38 37  1  0  0  0  0
 39 38  1  0  0  0  0
 40 39  1  0  0  0  0
 41 40  1  6  0  0  0
 42 47  1  6  0  0  0
 42 43  1  0  0  0  0
 42 44  1  0  0  0  0
 42 48  1  0  0  0  0
 43 44  1  0  0  0  0
 43 41  1  1  0  0  0
 44 48  1  0  0  0  0
 45 46  1  0  0  0  0
 46 48  1  0  0  0  0
 47 45  1  0  0  0  0
 49 41  1  0  0  0  0
 50 49  1  0  0  0  0
 51 50  1  0  0  0  0
 52 51  1  0  0  0  0
 52 54  1  0  0  0  0
 53 52  1  0  0  0  0
 53 51  1  0  0  0  0
M  END
>  <MODEL>
1

>  <REMARK>
 VINA RESULT:      -6.9      0.000      0.000
  Name = 
  18 active torsions:
  status: ('A' for Active; 'I' for Inactive)
    1  A    between atoms: C_3  and  N_17
    2  A    between atoms: C_3  and  O_33
    3  A    between atoms: C_5  and  O_36
    4  A    between atoms: C_5  and  C_47
    5  A    between atoms: C_7  and  C_46
    6  A    between atoms: C_7  and  C_48
    7  A    between atoms: C_9  and  C_48
    8  A    between atoms: C_10  and  N_32
    9  A    between atoms: C_12  and  C_22
   10  A    between atoms: C_12  and  N_26
   11  A    between atoms: C_15  and  N_40
   12  A    between atoms: C_16  and  C_25
   13  A    between atoms: C_16  and  C_44
   14  A    between atoms: N_26  and  C_46
   15  A    between atoms: N_32  and  N_38
   16  A    between atoms: O_36  and  C_45
   17  A    between atoms: N_38  and  C_48
   18  A    between atoms: C_44  and  C_45
                            x       y       z     vdW  Elec       q    Type
                         _______ _______ _______ _____ _____    ______ ____

>  <TORSDO>
F 18

$$$$
=
 OpenBabel10222420023D

 54 62  0  0  1  0  0  0  0  0999 V2000
  189.8350  176.8570  146.7980 N   0  0  0  0  0  1  0  0  0  0  0  0
  190.1420  177.1620  144.2530 C   0  0  0  0  0  3  0  0  0  0  0  0
  186.9060  178.3330  141.6950 C   0  0  0  0  0  0  0  0  0  0  0  0
  184.6120  178.9270  141.9970 C   0  0  2  0  0  3  0  0  0  0  0  0
  186.9690  177.5680  146.2920 C   0  0  0  0  0  1  0  0  0  0  0  0
  185.7180  178.7600  141.0590 N   0  0  0  0  0  2  0  0  0  0  0  0
  186.7820  178.1030  143.0850 N   0  0  0  0  0  0  0  0  0  0  0  0
  187.9290  177.7180  143.8440 C   0  0  0  0  0  0  0  0  0  0  0  0
  188.0490  177.4660  145.2670 C   0  0  0  0  0  0  0  0  0  0  0  0
  189.0980  177.5550  143.2530 C   0  0  0  0  0  0  0  0  0  0  0  0
  189.2530  177.7650  141.8260 N   0  0  0  0  0  0  0  0  0  0  0  0
  189.3130  177.1480  145.5050 C   0  0  2  0  0  3  0  0  0  0  0  0
  188.0840  178.1650  141.0620 C   0  0  0  0  0  0  0  0  0  0  0  0
  185.1440  178.3610  143.6760 S   0  0  0  0  0  0  0  0  0  0  0  0
  188.1780  178.4180  139.5890 C   0  0  0  0  0  1  0  0  0  0  0  0
  190.5090  177.6270  141.1350 C   0  0  0  0  0  3  0  0  0  0  0  0
  190.6960  176.8360  140.0840 C   0  0  0  0  0  3  0  0  0  0  0  0
  192.0340  176.7410  139.4370 C   0  0  0  0  0  2  0  0  0  0  0  0
  191.8860  176.7620  137.9220 C   0  0  0  0  0  2  0  0  0  0  0  0
  193.5540  175.0920  136.8900 C   0  0  1  0  0  0  0  0  0  0  0  0
  192.5290  175.3740  135.9560 O   0  0  0  0  0  0  0  0  0  0  0  0
  192.1590  175.3870  137.3190 C   0  0  2  0  0  0  0  0  0  0  0  0
  193.9600  170.7130  135.9540 C   0  0  0  0  0  2  0  0  0  0  0  0
  192.9830  171.7170  136.1120 O   0  0  0  0  0  0  0  0  0  0  0  0
  195.3480  171.0670  136.5260 C   0  0  1  0  0  3  0  0  0  0  0  0
  194.0090  173.7110  136.7530 N   0  0  0  0  0  0  0  0  0  0  0  0
  195.3000  171.8960  137.7750 C   0  0  0  0  0  3  0  0  0  0  0  0
  196.0970  169.8490  136.7730 N   0  0  0  0  0  1  0  0  0  0  0  0
  193.5170  172.9200  135.6270 C   0  0  0  0  0  2  0  0  0  0  0  0
  194.7250  173.1030  137.8430 C   0  0  0  0  0  3  0  0  0  0  0  0
  194.5300  176.1020  136.8570 O   0  0  0  0  0  0  0  0  0  0  0  0
  194.9420  176.2050  135.5240 C   0  0  0  0  0  1  0  0  0  0  0  0
  191.4080  174.2710  137.7300 O   0  0  0  0  0  0  0  0  0  0  0  0
  190.1050  174.4420  137.2410 C   0  0  0  0  0  2  0  0  0  0  0  0
  189.6900  172.8180  135.4430 C   0  0  0  0  0  2  0  0  0  0  0  0
  189.5760  173.1400  136.7300 C   0  0  0  0  0  3  0  0  0  0  0  0
  183.4190  178.1220  141.5170 C   0  0  0  0  0  2  0  0  0  0  0  0
  182.4210  179.0080  140.9490 N   0  0  0  0  0  2  0  0  0  0  0  0
  181.1610  178.2870  140.9650 C   0  0  0  0  0  2  0  0  0  0  0  0
  181.1340  177.2790  139.8310 C   0  0  0  0  0  2  0  0  0  0  0  0
  181.2790  177.9770  138.4910 C   0  0  1  0  0  3  0  0  0  0  0  0
  183.2000  177.6410  136.9530 C   0  0  1  0  0  0  0  0  0  0  0  0
  181.9220  177.0340  137.4890 C   0  0  1  0  0  3  0  0  0  0  0  0
  183.2510  176.5370  138.0160 C   0  0  2  0  0  3  0  0  0  0  0  0
  185.1580  177.0630  135.6790 C   0  0  0  0  0  2  0  0  0  0  0  0
  185.5330  177.0170  137.1510 C   0  0  0  0  0  2  0  0  0  0  0  0
  183.6460  177.0220  135.6460 C   0  0  0  0  0  2  0  0  0  0  0  0
  184.3510  177.5750  137.9290 C   0  0  1  0  0  3  0  0  0  0  0  0
  179.9700  178.3830  138.0070 N   0  0  0  0  0  2  0  0  0  0  0  0
  180.1780  179.4080  137.0760 N   0  0  0  0  0  2  0  0  0  0  0  0
  179.9770  180.6690  137.7790 C   0  0  2  0  0  3  0  0  0  0  0  0
  180.2500  181.8860  136.8910 C   0  0  1  0  0  3  0  0  0  0  0  0
  181.2910  181.4140  137.8830 C   0  0  0  0  0  2  0  0  0  0  0  0
  180.6570  181.5110  135.5430 N   0  0  0  0  0  1  0  0  0  0  0  0
  2 12  1  0  0  0  0
  3  7  1  0  0  0  0
  4 37  1  6  0  0  0
  4 14  1  0  0  0  0
  6  3  1  0  0  0  0
  6  4  1  0  0  0  0
  7 14  1  0  0  0  0
  7  8  1  0  0  0  0
  8  9  2  0  0  0  0
  9 12  1  0  0  0  0
  9  5  1  0  0  0  0
 10  8  1  0  0  0  0
 10  2  2  0  0  0  0
 11 10  1  0  0  0  0
 12  1  1  1  0  0  0
 13  3  2  0  0  0  0
 13 11  1  0  0  0  0
 15 13  1  0  0  0  0
 16 11  1  0  0  0  0
 17 16  2  0  0  0  0
 18 17  1  0  0  0  0
 19 18  1  0  0  0  0
 20 31  1  1  0  0  0
 20 22  1  0  0  0  0
 21 20  1  0  0  0  0
 21 22  1  0  0  0  0
 22 33  1  0  0  0  0
 22 19  1  1  0  0  0
 23 24  1  0  0  0  0
 23 25  1  0  0  0  0
 25 28  1  1  0  0  0
 25 27  1  0  0  0  0
 26 20  1  0  0  0  0
 26 30  1  0  0  0  0
 27 30  2  0  0  0  0
 29 24  1  0  0  0  0
 29 26  1  0  0  0  0
 32 31  1  0  0  0  0
 34 33  1  0  0  0  0
 35 36  2  0  0  0  0
 36 34  1  0  0  0  0
 38 39  1  0  0  0  0
 38 37  1  0  0  0  0
 40 39  1  0  0  0  0
 41 40  1  1  0  0  0
 42 47  1  6  0  0  0
 42 43  1  0  0  0  0
 42 48  1  0  0  0  0
 42 44  1  0  0  0  0
 43 44  1  0  0  0  0
 43 41  1  1  0  0  0
 45 46  1  0  0  0  0
 46 48  1  0  0  0  0
 47 45  1  0  0  0  0
 48 44  1  0  0  0  0
 49 41  1  0  0  0  0
 50 51  1  0  0  0  0
 50 49  1  0  0  0  0
 51 53  1  0  0  0  0
 52 51  1  0  0  0  0
 52 53  1  0  0  0  0
 54 52  1  0  0  0  0
M  END
>  <MODEL>
2

>  <REMARK>
 VINA RESULT:      -6.7      3.465      9.671
  Name = 
  18 active torsions:
  status: ('A' for Active; 'I' for Inactive)
    1  A    between atoms: C_3  and  N_17
    2  A    between atoms: C_3  and  O_33
    3  A    between atoms: C_5  and  O_36
    4  A    between atoms: C_5  and  C_47
    5  A    between atoms: C_7  and  C_46
    6  A    between atoms: C_7  and  C_48
    7  A    between atoms: C_9  and  C_48
    8  A    between atoms: C_10  and  N_32
    9  A    between atoms: C_12  and  C_22
   10  A    between atoms: C_12  and  N_26
   11  A    between atoms: C_15  and  N_40
   12  A    between atoms: C_16  and  C_25
   13  A    between atoms: C_16  and  C_44
   14  A    between atoms: N_26  and  C_46
   15  A    between atoms: N_32  and  N_38
   16  A    between atoms: O_36  and  C_45
   17  A    between atoms: N_38  and  C_48
   18  A    between atoms: C_44  and  C_45
                            x       y       z     vdW  Elec       q    Type
                         _______ _______ _______ _____ _____    ______ ____

>  <TORSDO>
F 18

$$$$
=
 OpenBabel10222420023D

 54 62  0  0  1  0  0  0  0  0999 V2000
  189.1750  177.2190  146.6100 N   0  0  0  0  0  1  0  0  0  0  0  0
  188.6550  177.4490  144.0920 C   0  0  0  0  0  3  0  0  0  0  0  0
  184.7910  178.6410  142.6640 C   0  0  0  0  0  0  0  0  0  0  0  0
  182.7250  179.3050  143.6640 C   0  0  2  0  0  3  0  0  0  0  0  0
  186.3100  177.9930  147.0230 C   0  0  0  0  0  1  0  0  0  0  0  0
  183.4690  179.0830  142.4280 N   0  0  0  0  0  2  0  0  0  0  0  0
  185.1150  178.4510  144.0280 N   0  0  0  0  0  0  0  0  0  0  0  0
  186.4380  178.0540  144.3920 C   0  0  0  0  0  0  0  0  0  0  0  0
  187.0020  177.8360  145.7100 C   0  0  0  0  0  0  0  0  0  0  0  0
  187.3530  177.8440  143.4650 C   0  0  0  0  0  0  0  0  0  0  0  0
  187.0460  178.0130  142.0580 N   0  0  0  0  0  0  0  0  0  0  0  0
  188.2710  177.4900  145.5430 C   0  0  2  0  0  3  0  0  0  0  0  0
  185.7010  178.4250  141.6950 C   0  0  0  0  0  0  0  0  0  0  0  0
  183.7580  178.7680  145.1030 S   0  0  0  0  0  0  0  0  0  0  0  0
  185.3230  178.6370  140.2610 C   0  0  0  0  0  1  0  0  0  0  0  0
  188.0120  177.8230  141.0070 C   0  0  0  0  0  3  0  0  0  0  0  0
  188.2450  178.7070  140.0420 C   0  0  0  0  0  3  0  0  0  0  0  0
  189.2530  178.4250  138.9840 C   0  0  0  0  0  2  0  0  0  0  0  0
  189.1470  176.9750  138.5310 C   0  0  0  0  0  2  0  0  0  0  0  0
  190.9070  175.6770  137.1710 C   0  0  1  0  0  0  0  0  0  0  0  0
  190.5230  174.9120  138.2980 O   0  0  0  0  0  0  0  0  0  0  0  0
  190.5210  176.3150  138.4590 C   0  0  2  0  0  0  0  0  0  0  0  0
  195.2840  174.6500  137.2640 C   0  0  0  0  0  2  0  0  0  0  0  0
  194.2160  174.9890  138.1200 O   0  0  0  0  0  0  0  0  0  0  0  0
  195.0420  174.9660  135.7730 C   0  0  1  0  0  3  0  0  0  0  0  0
  192.3140  175.4500  136.8510 N   0  0  0  0  0  0  0  0  0  0  0  0
  194.2380  176.2090  135.5360 C   0  0  0  0  0  3  0  0  0  0  0  0
  196.3150  175.0650  135.0840 N   0  0  0  0  0  1  0  0  0  0  0  0
  193.0450  174.4250  137.5940 C   0  0  0  0  0  2  0  0  0  0  0  0
  192.9940  176.3880  135.9990 C   0  0  0  0  0  3  0  0  0  0  0  0
  189.9740  175.5150  136.1340 O   0  0  0  0  0  0  0  0  0  0  0  0
  189.9060  174.1410  135.8790 C   0  0  0  0  0  1  0  0  0  0  0  0
  191.5880  176.8140  139.2270 O   0  0  0  0  0  0  0  0  0  0  0  0
  191.2840  176.5730  140.5740 C   0  0  0  0  0  2  0  0  0  0  0  0
  191.6720  177.8110  142.6630 C   0  0  0  0  0  2  0  0  0  0  0  0
  192.1040  177.4640  141.4510 C   0  0  0  0  0  3  0  0  0  0  0  0
  181.4270  178.5200  143.6170 C   0  0  0  0  0  2  0  0  0  0  0  0
  180.3080  179.4010  143.8900 N   0  0  0  0  0  2  0  0  0  0  0  0
  180.1150  180.2150  142.7040 C   0  0  0  0  0  2  0  0  0  0  0  0
  179.8320  179.3220  141.5100 C   0  0  0  0  0  2  0  0  0  0  0  0
  180.5770  179.8160  140.2840 C   0  0  1  0  0  3  0  0  0  0  0  0
  181.7730  178.0980  138.9460 C   0  0  1  0  0  0  0  0  0  0  0  0
  180.4490  178.7980  139.1620 C   0  0  1  0  0  3  0  0  0  0  0  0
  180.6390  177.3980  139.7040 C   0  0  2  0  0  3  0  0  0  0  0  0
  182.7260  176.2060  137.8070 C   0  0  0  0  0  2  0  0  0  0  0  0
  182.4980  175.8070  139.2550 C   0  0  0  0  0  2  0  0  0  0  0  0
  181.8760  177.4380  137.5870 C   0  0  0  0  0  2  0  0  0  0  0  0
  182.0870  177.0670  140.0030 C   0  0  1  0  0  3  0  0  0  0  0  0
  180.0210  181.0870  139.8530 N   0  0  0  0  0  2  0  0  0  0  0  0
  180.0960  181.1140  138.4550 N   0  0  0  0  0  2  0  0  0  0  0  0
  179.8590  182.4910  138.0410 C   0  0  2  0  0  3  0  0  0  0  0  0
  180.1280  182.7120  136.5510 C   0  0  1  0  0  3  0  0  0  0  0  0
  181.1570  183.1210  137.5820 C   0  0  0  0  0  2  0  0  0  0  0  0
  180.5690  181.4960  135.8800 N   0  0  0  0  0  1  0  0  0  0  0  0
  2 12  1  0  0  0  0
  3  7  1  0  0  0  0
  4 37  1  6  0  0  0
  4 14  1  0  0  0  0
  6  3  1  0  0  0  0
  6  4  1  0  0  0  0
  7  8  1  0  0  0  0
  7 14  1  0  0  0  0
  8  9  2  0  0  0  0
  9  5  1  0  0  0  0
 10  2  2  0  0  0  0
 10  8  1  0  0  0  0
 11 10  1  0  0  0  0
 12  9  1  0  0  0  0
 12  1  1  1  0  0  0
 13 11  1  0  0  0  0
 13  3  2  0  0  0  0
 15 13  1  0  0  0  0
 16 11  1  0  0  0  0
 17 16  2  0  0  0  0
 18 17  1  0  0  0  0
 19 18  1  0  0  0  0
 20 31  1  6  0  0  0
 20 21  1  0  0  0  0
 20 22  1  0  0  0  0
 21 22  1  0  0  0  0
 22 19  1  1  0  0  0
 22 33  1  0  0  0  0
 23 24  1  0  0  0  0
 25 28  1  6  0  0  0
 25 23  1  0  0  0  0
 26 20  1  0  0  0  0
 26 29  1  0  0  0  0
 27 25  1  0  0  0  0
 27 30  2  0  0  0  0
 29 24  1  0  0  0  0
 30 26  1  0  0  0  0
 32 31  1  0  0  0  0
 33 34  1  0  0  0  0
 34 36  1  0  0  0  0
 36 35  2  0  0  0  0
 37 38  1  0  0  0  0
 39 38  1  0  0  0  0
 40 39  1  0  0  0  0
 41 40  1  1  0  0  0
 42 47  1  6  0  0  0
 42 43  1  0  0  0  0
 42 44  1  0  0  0  0
 42 48  1  0  0  0  0
 43 44  1  0  0  0  0
 43 41  1  1  0  0  0
 44 48  1  0  0  0  0
 45 46  1  0  0  0  0
 46 48  1  0  0  0  0
 47 45  1  0  0  0  0
 49 41  1  0  0  0  0
 50 49  1  0  0  0  0
 51 50  1  0  0  0  0
 52 53  1  0  0  0  0
 52 51  1  0  0  0  0
 53 51  1  0  0  0  0
 54 52  1  0  0  0  0
M  END
>  <MODEL>
3

>  <REMARK>
 VINA RESULT:      -6.7      3.392      9.650
  Name = 
  18 active torsions:
  status: ('A' for Active; 'I' for Inactive)
    1  A    between atoms: C_3  and  N_17
    2  A    between atoms: C_3  and  O_33
    3  A    between atoms: C_5  and  O_36
    4  A    between atoms: C_5  and  C_47
    5  A    between atoms: C_7  and  C_46
    6  A    between atoms: C_7  and  C_48
    7  A    between atoms: C_9  and  C_48
    8  A    between atoms: C_10  and  N_32
    9  A    between atoms: C_12  and  C_22
   10  A    between atoms: C_12  and  N_26
   11  A    between atoms: C_15  and  N_40
   12  A    between atoms: C_16  and  C_25
   13  A    between atoms: C_16  and  C_44
   14  A    between atoms: N_26  and  C_46
   15  A    between atoms: N_32  and  N_38
   16  A    between atoms: O_36  and  C_45
   17  A    between atoms: N_38  and  C_48
   18  A    between atoms: C_44  and  C_45
                            x       y       z     vdW  Elec       q    Type
                         _______ _______ _______ _____ _____    ______ ____

>  <TORSDO>
F 18

$$$$
=
 OpenBabel10222420023D

 54 62  0  0  1  0  0  0  0  0999 V2000
  190.0340  176.7560  146.2240 N   0  0  0  0  0  1  0  0  0  0  0  0
  190.3480  177.0800  143.6820 C   0  0  0  0  0  3  0  0  0  0  0  0
  187.1540  178.4020  141.1440 C   0  0  0  0  0  0  0  0  0  0  0  0
  184.8850  179.0770  141.4570 C   0  0  2  0  0  3  0  0  0  0  0  0
  187.1950  177.5780  145.7310 C   0  0  0  0  0  1  0  0  0  0  0  0
  185.9820  178.8800  140.5160 N   0  0  0  0  0  2  0  0  0  0  0  0
  187.0240  178.1600  142.5320 N   0  0  0  0  0  0  0  0  0  0  0  0
  188.1570  177.7230  143.2830 C   0  0  0  0  0  0  0  0  0  0  0  0
  188.2690  177.4500  144.7030 C   0  0  0  0  0  0  0  0  0  0  0  0
  189.3180  177.5230  142.6890 C   0  0  0  0  0  0  0  0  0  0  0  0
  189.4790  177.7450  141.2640 N   0  0  0  0  0  0  0  0  0  0  0  0
  189.5210  177.0820  144.9360 C   0  0  2  0  0  3  0  0  0  0  0  0
  188.3240  178.1980  140.5070 C   0  0  0  0  0  0  0  0  0  0  0  0
  185.3980  178.4710  143.1290 S   0  0  0  0  0  0  0  0  0  0  0  0
  188.4260  178.4650  139.0370 C   0  0  0  0  0  1  0  0  0  0  0  0
  190.7280  177.5690  140.5700 C   0  0  0  0  0  3  0  0  0  0  0  0
  190.9200  176.6820  139.5980 C   0  0  0  0  0  3  0  0  0  0  0  0
  192.2500  176.5550  138.9420 C   0  0  0  0  0  2  0  0  0  0  0  0
  192.0890  176.5390  137.4280 C   0  0  0  0  0  2  0  0  0  0  0  0
  194.1850  175.5200  136.3330 C   0  0  1  0  0  0  0  0  0  0  0  0
  193.0960  175.4360  135.4350 O   0  0  0  0  0  0  0  0  0  0  0  0
  192.7880  175.3320  136.8090 C   0  0  2  0  0  0  0  0  0  0  0  0
  196.0210  171.5410  135.3230 C   0  0  0  0  0  2  0  0  0  0  0  0
  194.7660  172.1610  135.4960 O   0  0  0  0  0  0  0  0  0  0  0  0
  197.2140  172.3270  135.9050 C   0  0  1  0  0  3  0  0  0  0  0  0
  195.0730  174.3710  136.1740 N   0  0  0  0  0  0  0  0  0  0  0  0
  196.8980  173.0710  137.1680 C   0  0  0  0  0  3  0  0  0  0  0  0
  198.3260  171.4220  136.1330 N   0  0  0  0  0  1  0  0  0  0  0  0
  194.8680  173.4810  135.0330 C   0  0  0  0  0  2  0  0  0  0  0  0
  195.9540  174.0170  137.2550 C   0  0  0  0  0  3  0  0  0  0  0  0
  194.7650  176.7990  136.2740 O   0  0  0  0  0  0  0  0  0  0  0  0
  195.1480  176.9940  134.9440 C   0  0  0  0  0  1  0  0  0  0  0  0
  192.4680  174.0310  137.2370 O   0  0  0  0  0  0  0  0  0  0  0  0
  191.4060  173.5780  136.4410 C   0  0  0  0  0  2  0  0  0  0  0  0
  189.0310  173.0360  136.7740 C   0  0  0  0  0  2  0  0  0  0  0  0
  190.1230  173.6690  137.2020 C   0  0  0  0  0  3  0  0  0  0  0  0
  183.6620  178.3220  140.9690 C   0  0  0  0  0  2  0  0  0  0  0  0
  183.1070  178.9810  139.8030 N   0  0  0  0  0  2  0  0  0  0  0  0
  182.8360  177.9440  138.8230 C   0  0  0  0  0  2  0  0  0  0  0  0
  184.1260  177.5410  138.1350 C   0  0  0  0  0  2  0  0  0  0  0  0
  183.8530  176.5260  137.0390 C   0  0  1  0  0  3  0  0  0  0  0  0
  186.0560  177.3270  136.2150 C   0  0  1  0  0  0  0  0  0  0  0  0
  184.6720  176.8700  135.8070 C   0  0  1  0  0  3  0  0  0  0  0  0
  185.8360  175.9110  135.6690 C   0  0  2  0  0  3  0  0  0  0  0  0
  188.2270  177.7850  135.2870 C   0  0  0  0  0  2  0  0  0  0  0  0
  188.2660  176.3910  135.8910 C   0  0  0  0  0  2  0  0  0  0  0  0
  186.7600  178.1190  135.1340 C   0  0  0  0  0  2  0  0  0  0  0  0
  186.9600  176.1960  136.6450 C   0  0  1  0  0  3  0  0  0  0  0  0
  184.2100  175.1970  137.5050 N   0  0  0  0  0  2  0  0  0  0  0  0
  183.0130  174.5310  137.8000 N   0  0  0  0  0  2  0  0  0  0  0  0
  182.4140  174.1490  136.5270 C   0  0  2  0  0  3  0  0  0  0  0  0
  180.9360  173.7740  136.6640 C   0  0  1  0  0  3  0  0  0  0  0  0
  181.9940  172.6950  136.5740 C   0  0  0  0  0  2  0  0  0  0  0  0
  180.4610  173.8760  138.0380 N   0  0  0  0  0  1  0  0  0  0  0  0
  2 12  1  0  0  0  0
  3  7  1  0  0  0  0
  4 37  1  6  0  0  0
  4 14  1  0  0  0  0
  6  3  1  0  0  0  0
  6  4  1  0  0  0  0
  7 14  1  0  0  0  0
  7  8  1  0  0  0  0
  8  9  2  0  0  0  0
  9 12  1  0  0  0  0
  9  5  1  0  0  0  0
 10  8  1  0  0  0  0
 10  2  2  0  0  0  0
 11 10  1  0  0  0  0
 12  1  1  1  0  0  0
 13  3  2  0  0  0  0
 13 11  1  0  0  0  0
 15 13  1  0  0  0  0
 16 11  1  0  0  0  0
 17 16  2  0  0  0  0
 18 17  1  0  0  0  0
 19 18  1  0  0  0  0
 20 31  1  1  0  0  0
 20 22  1  0  0  0  0
 21 20  1  0  0  0  0
 21 22  1  0  0  0  0
 22 33  1  0  0  0  0
 22 19  1  1  0  0  0
 23 24  1  0  0  0  0
 23 25  1  0  0  0  0
 25 28  1  1  0  0  0
 25 27  1  0  0  0  0
 26 20  1  0  0  0  0
 26 30  1  0  0  0  0
 27 30  2  0  0  0  0
 29 24  1  0  0  0  0
 29 26  1  0  0  0  0
 32 31  1  0  0  0  0
 34 36  1  0  0  0  0
 34 33  1  0  0  0  0
 35 36  2  0  0  0  0
 38 37  1  0  0  0  0
 39 38  1  0  0  0  0
 40 39  1  0  0  0  0
 41 49  1  0  0  0  0
 41 40  1  1  0  0  0
 42 47  1  6  0  0  0
 42 48  1  0  0  0  0
 43 42  1  0  0  0  0
 43 41  1  1  0  0  0
 44 43  1  0  0  0  0
 44 42  1  0  0  0  0
 44 48  1  0  0  0  0
 45 46  1  0  0  0  0
 46 48  1  0  0  0  0
 47 45  1  0  0  0  0
 49 50  1  0  0  0  0
 51 53  1  0  0  0  0
 51 52  1  0  0  0  0
 51 50  1  0  0  0  0
 52 54  1  0  0  0  0
 53 52  1  0  0  0  0
M  END
>  <MODEL>
4

>  <REMARK>
 VINA RESULT:      -6.6      3.821      9.388
  Name = 
  18 active torsions:
  status: ('A' for Active; 'I' for Inactive)
    1  A    between atoms: C_3  and  N_17
    2  A    between atoms: C_3  and  O_33
    3  A    between atoms: C_5  and  O_36
    4  A    between atoms: C_5  and  C_47
    5  A    between atoms: C_7  and  C_46
    6  A    between atoms: C_7  and  C_48
    7  A    between atoms: C_9  and  C_48
    8  A    between atoms: C_10  and  N_32
    9  A    between atoms: C_12  and  C_22
   10  A    between atoms: C_12  and  N_26
   11  A    between atoms: C_15  and  N_40
   12  A    between atoms: C_16  and  C_25
   13  A    between atoms: C_16  and  C_44
   14  A    between atoms: N_26  and  C_46
   15  A    between atoms: N_32  and  N_38
   16  A    between atoms: O_36  and  C_45
   17  A    between atoms: N_38  and  C_48
   18  A    between atoms: C_44  and  C_45
                            x       y       z     vdW  Elec       q    Type
                         _______ _______ _______ _____ _____    ______ ____

>  <TORSDO>
F 18

$$$$
=
 OpenBabel10222420023D

 54 62  0  0  1  0  0  0  0  0999 V2000
  190.0900  176.7560  147.2390 N   0  0  0  0  0  1  0  0  0  0  0  0
  189.7240  177.1080  144.7080 C   0  0  0  0  0  3  0  0  0  0  0  0
  186.0180  178.5730  143.1260 C   0  0  0  0  0  0  0  0  0  0  0  0
  183.9410  179.3190  144.0400 C   0  0  2  0  0  3  0  0  0  0  0  0
  187.2550  177.6810  147.5300 C   0  0  0  0  0  1  0  0  0  0  0  0
  184.7380  179.1000  142.8380 N   0  0  0  0  0  2  0  0  0  0  0  0
  186.2550  178.3150  144.4960 N   0  0  0  0  0  0  0  0  0  0  0  0
  187.5310  177.8300  144.9150 C   0  0  0  0  0  0  0  0  0  0  0  0
  188.0090  177.5320  146.2510 C   0  0  0  0  0  0  0  0  0  0  0  0
  188.4830  177.6000  144.0290 C   0  0  0  0  0  0  0  0  0  0  0  0
  188.2640  177.8370  142.6150 N   0  0  0  0  0  0  0  0  0  0  0  0
  189.2640  177.1190  146.1370 C   0  0  2  0  0  3  0  0  0  0  0  0
  186.9670  178.3400  142.1980 C   0  0  0  0  0  0  0  0  0  0  0  0
  184.8600  178.6720  145.5090 S   0  0  0  0  0  0  0  0  0  0  0  0
  186.6810  178.6250  140.7560 C   0  0  0  0  0  1  0  0  0  0  0  0
  189.2750  177.6300  141.6110 C   0  0  0  0  0  3  0  0  0  0  0  0
  189.0330  177.1210  140.4070 C   0  0  0  0  0  3  0  0  0  0  0  0
  190.1400  176.9260  139.4310 C   0  0  0  0  0  2  0  0  0  0  0  0
  189.7780  177.5560  138.0930 C   0  0  0  0  0  2  0  0  0  0  0  0
  189.4480  175.5540  136.5060 C   0  0  1  0  0  0  0  0  0  0  0  0
  188.9590  176.7300  135.8910 O   0  0  0  0  0  0  0  0  0  0  0  0
  188.8360  176.6580  137.2950 C   0  0  2  0  0  0  0  0  0  0  0  0
  186.2640  172.7850  134.9530 C   0  0  0  0  0  2  0  0  0  0  0  0
  186.4430  174.1060  135.4140 O   0  0  0  0  0  0  0  0  0  0  0  0
  187.4120  171.8170  135.3060 C   0  0  1  0  0  3  0  0  0  0  0  0
  188.6490  174.3970  136.1120 N   0  0  0  0  0  0  0  0  0  0  0  0
  188.0440  172.0810  136.6400 C   0  0  0  0  0  3  0  0  0  0  0  0
  186.9280  170.4490  135.2540 N   0  0  0  0  0  1  0  0  0  0  0  0
  187.7110  174.5390  135.0000 C   0  0  0  0  0  2  0  0  0  0  0  0
  188.6310  173.2390  136.9660 C   0  0  0  0  0  3  0  0  0  0  0  0
  190.8410  175.4650  136.3440 O   0  0  0  0  0  0  0  0  0  0  0  0
  191.1160  175.9400  135.0580 C   0  0  0  0  0  1  0  0  0  0  0  0
  187.5290  176.4160  137.7540 O   0  0  0  0  0  0  0  0  0  0  0  0
  186.7400  177.5080  137.3630 C   0  0  0  0  0  2  0  0  0  0  0  0
  184.3590  177.8450  137.8740 C   0  0  0  0  0  2  0  0  0  0  0  0
  185.3030  177.1020  137.2970 C   0  0  0  0  0  3  0  0  0  0  0  0
  182.6050  178.6130  143.8930 C   0  0  0  0  0  2  0  0  0  0  0  0
  181.5890  179.5610  143.4800 N   0  0  0  0  0  2  0  0  0  0  0  0
  180.7200  178.8640  142.5470 C   0  0  0  0  0  2  0  0  0  0  0  0
  181.3440  178.8710  141.1640 C   0  0  0  0  0  2  0  0  0  0  0  0
  180.3380  179.3310  140.1260 C   0  0  1  0  0  3  0  0  0  0  0  0
  180.3340  180.5960  137.9870 C   0  0  1  0  0  0  0  0  0  0  0  0
  181.0310  179.5160  138.7860 C   0  0  1  0  0  3  0  0  0  0  0  0
  181.6550  180.8930  138.7070 C   0  0  2  0  0  3  0  0  0  0  0  0
  180.6270  181.9590  136.0270 C   0  0  0  0  0  2  0  0  0  0  0  0
  181.0190  182.7940  137.2340 C   0  0  0  0  0  2  0  0  0  0  0  0
  180.6390  180.5240  136.5060 C   0  0  0  0  0  2  0  0  0  0  0  0
  180.6410  181.9930  138.4710 C   0  0  1  0  0  3  0  0  0  0  0  0
  179.2830  178.3400  139.9950 N   0  0  0  0  0  2  0  0  0  0  0  0
  179.7940  177.3010  139.2060 N   0  0  0  0  0  2  0  0  0  0  0  0
  179.1150  176.0790  139.6190 C   0  0  2  0  0  3  0  0  0  0  0  0
  179.9930  174.8360  139.4550 C   0  0  1  0  0  3  0  0  0  0  0  0
  178.9330  175.1640  138.4260 C   0  0  0  0  0  2  0  0  0  0  0  0
  181.3090  175.1510  138.9160 N   0  0  0  0  0  1  0  0  0  0  0  0
  2 12  1  0  0  0  0
  3  7  1  0  0  0  0
  4 37  1  6  0  0  0
  4 14  1  0  0  0  0
  6  3  1  0  0  0  0
  6  4  1  0  0  0  0
  7  8  1  0  0  0  0
  7 14  1  0  0  0  0
  8  9  2  0  0  0  0
  9  5  1  0  0  0  0
 10  2  2  0  0  0  0
 10  8  1  0  0  0  0
 11 10  1  0  0  0  0
 12  9  1  0  0  0  0
 12  1  1  1  0  0  0
 13 11  1  0  0  0  0
 13  3  2  0  0  0  0
 15 13  1  0  0  0  0
 16 11  1  0  0  0  0
 17 16  2  0  0  0  0
 18 17  1  0  0  0  0
 19 18  1  0  0  0  0
 20 31  1  1  0  0  0
 20 22  1  0  0  0  0
 21 20  1  0  0  0  0
 21 22  1  0  0  0  0
 22 33  1  0  0  0  0
 22 19  1  1  0  0  0
 23 25  1  0  0  0  0
 23 24  1  0  0  0  0
 25 28  1  1  0  0  0
 25 27  1  0  0  0  0
 26 20  1  0  0  0  0
 26 30  1  0  0  0  0
 27 30  2  0  0  0  0
 29 24  1  0  0  0  0
 29 26  1  0  0  0  0
 32 31  1  0  0  0  0
 34 33  1  0  0  0  0
 36 34  1  0  0  0  0
 36 35  2  0  0  0  0
 38 37  1  0  0  0  0
 39 38  1  0  0  0  0
 40 39  1  0  0  0  0
 41 40  1  1  0  0  0
 42 47  1  6  0  0  0
 42 48  1  0  0  0  0
 42 44  1  0  0  0  0
 42 43  1  0  0  0  0
 43 41  1  1  0  0  0
 44 43  1  0  0  0  0
 45 47  1  0  0  0  0
 45 46  1  0  0  0  0
 46 48  1  0  0  0  0
 48 44  1  0  0  0  0
 49 41  1  0  0  0  0
 50 51  1  0  0  0  0
 50 49  1  0  0  0  0
 52 51  1  0  0  0  0
 53 52  1  0  0  0  0
 53 51  1  0  0  0  0
 54 52  1  0  0  0  0
M  END
>  <MODEL>
5

>  <REMARK>
 VINA RESULT:      -6.6      2.744      8.038
  Name = 
  18 active torsions:
  status: ('A' for Active; 'I' for Inactive)
    1  A    between atoms: C_3  and  N_17
    2  A    between atoms: C_3  and  O_33
    3  A    between atoms: C_5  and  O_36
    4  A    between atoms: C_5  and  C_47
    5  A    between atoms: C_7  and  C_46
    6  A    between atoms: C_7  and  C_48
    7  A    between atoms: C_9  and  C_48
    8  A    between atoms: C_10  and  N_32
    9  A    between atoms: C_12  and  C_22
   10  A    between atoms: C_12  and  N_26
   11  A    between atoms: C_15  and  N_40
   12  A    between atoms: C_16  and  C_25
   13  A    between atoms: C_16  and  C_44
   14  A    between atoms: N_26  and  C_46
   15  A    between atoms: N_32  and  N_38
   16  A    between atoms: O_36  and  C_45
   17  A    between atoms: N_38  and  C_48
   18  A    between atoms: C_44  and  C_45
                            x       y       z     vdW  Elec       q    Type
                         _______ _______ _______ _____ _____    ______ ____

>  <TORSDO>
F 18

$$$$
=
 OpenBabel10222420023D

 54 62  0  0  1  0  0  0  0  0999 V2000
  187.6000  177.4870  147.7480 N   0  0  0  0  0  1  0  0  0  0  0  0
  186.6360  178.1310  145.4420 C   0  0  0  0  0  3  0  0  0  0  0  0
  188.9100  177.7250  141.8290 C   0  0  0  0  0  0  0  0  0  0  0  0
  191.0780  176.9040  141.2530 C   0  0  2  0  0  3  0  0  0  0  0  0
  190.0980  176.8050  146.2410 C   0  0  0  0  0  1  0  0  0  0  0  0
  189.8200  177.4710  140.7780 N   0  0  0  0  0  2  0  0  0  0  0  0
  189.4060  177.4350  143.1220 N   0  0  0  0  0  0  0  0  0  0  0  0
  188.5580  177.6040  144.2590 C   0  0  0  0  0  0  0  0  0  0  0  0
  188.8330  177.3400  145.6590 C   0  0  0  0  0  0  0  0  0  0  0  0
  187.3240  178.0490  144.1140 C   0  0  0  0  0  0  0  0  0  0  0  0
  186.7940  178.3720  142.8030 N   0  0  0  0  0  0  0  0  0  0  0  0
  187.7350  177.6400  146.3380 C   0  0  2  0  0  3  0  0  0  0  0  0
  187.6580  178.1890  141.6500 C   0  0  0  0  0  0  0  0  0  0  0  0
  191.0730  176.8700  143.1030 S   0  0  0  0  0  0  0  0  0  0  0  0
  187.1670  178.4850  140.2670 C   0  0  0  0  0  1  0  0  0  0  0  0
  185.4480  178.8340  142.5840 C   0  0  0  0  0  3  0  0  0  0  0  0
  184.5000  178.1120  141.9960 C   0  0  0  0  0  3  0  0  0  0  0  0
  183.1350  178.6730  141.7960 C   0  0  0  0  0  2  0  0  0  0  0  0
  182.3220  177.7640  140.8850 C   0  0  0  0  0  2  0  0  0  0  0  0
  180.8430  179.4140  139.5730 C   0  0  1  0  0  0  0  0  0  0  0  0
  180.7340  178.1250  139.0010 O   0  0  0  0  0  0  0  0  0  0  0  0
  181.9830  178.4580  139.5690 C   0  0  2  0  0  0  0  0  0  0  0  0
  180.4120  181.6950  135.7210 C   0  0  0  0  0  2  0  0  0  0  0  0
  180.7700  180.4220  136.2110 O   0  0  0  0  0  0  0  0  0  0  0  0
  180.4070  182.8160  136.7810 C   0  0  1  0  0  3  0  0  0  0  0  0
  180.7390  180.4450  138.5430 N   0  0  0  0  0  0  0  0  0  0  0  0
  181.4710  182.6720  137.8270 C   0  0  0  0  0  3  0  0  0  0  0  0
  180.5330  184.1050  136.1260 N   0  0  0  0  0  1  0  0  0  0  0  0
  179.9730  180.1510  137.3330 C   0  0  0  0  0  2  0  0  0  0  0  0
  181.5770  181.6110  138.6370 C   0  0  0  0  0  3  0  0  0  0  0  0
  179.9930  179.5240  140.6870 O   0  0  0  0  0  0  0  0  0  0  0  0
  179.6460  180.8760  140.7820 C   0  0  0  0  0  1  0  0  0  0  0  0
  182.9950  178.7320  138.6310 O   0  0  0  0  0  0  0  0  0  0  0  0
  183.3700  177.5110  138.0510 C   0  0  0  0  0  2  0  0  0  0  0  0
  185.3650  176.6480  136.9030 C   0  0  0  0  0  2  0  0  0  0  0  0
  184.8390  177.5080  137.7730 C   0  0  0  0  0  3  0  0  0  0  0  0
  192.2340  177.7410  140.7390 C   0  0  0  0  0  2  0  0  0  0  0  0
  193.0560  176.9520  139.8430 N   0  0  0  0  0  2  0  0  0  0  0  0
  192.2860  176.7580  138.6270 C   0  0  0  0  0  2  0  0  0  0  0  0
  193.1540  176.0980  137.5720 C   0  0  0  0  0  2  0  0  0  0  0  0
  192.9790  174.5900  137.6020 C   0  0  1  0  0  3  0  0  0  0  0  0
  191.1980  173.5220  136.2390 C   0  0  1  0  0  0  0  0  0  0  0  0
  192.6000  174.0900  136.2180 C   0  0  1  0  0  3  0  0  0  0  0  0
  191.4620  174.9160  135.6580 C   0  0  2  0  0  3  0  0  0  0  0  0
  189.4520  172.7900  134.7560 C   0  0  0  0  0  2  0  0  0  0  0  0
  189.1230  174.2070  135.1930 C   0  0  0  0  0  2  0  0  0  0  0  0
  190.9180  172.5980  135.0730 C   0  0  0  0  0  2  0  0  0  0  0  0
  190.1220  174.5800  136.2790 C   0  0  1  0  0  3  0  0  0  0  0  0
  194.2200  173.9630  138.0230 N   0  0  0  0  0  2  0  0  0  0  0  0
  195.2540  174.8590  137.7240 N   0  0  0  0  0  2  0  0  0  0  0  0
  195.9490  174.3330  136.5550 C   0  0  2  0  0  3  0  0  0  0  0  0
  197.4610  174.5630  136.6190 C   0  0  1  0  0  3  0  0  0  0  0  0
  196.5850  175.4700  135.7820 C   0  0  0  0  0  2  0  0  0  0  0  0
  197.8670  175.2610  137.8310 N   0  0  0  0  0  1  0  0  0  0  0  0
  2 12  1  0  0  0  0
  3  7  1  0  0  0  0
  4 37  1  1  0  0  0
  4 14  1  0  0  0  0
  6  4  1  0  0  0  0
  6  3  1  0  0  0  0
  7  8  1  0  0  0  0
  8  9  2  0  0  0  0
  9  5  1  0  0  0  0
  9 12  1  0  0  0  0
 10  8  1  0  0  0  0
 10  2  2  0  0  0  0
 11 10  1  0  0  0  0
 12  1  1  6  0  0  0
 13  3  2  0  0  0  0
 13 11  1  0  0  0  0
 14  7  1  0  0  0  0
 15 13  1  0  0  0  0
 16 11  1  0  0  0  0
 17 16  2  0  0  0  0
 18 17  1  0  0  0  0
 19 18  1  0  0  0  0
 20 31  1  1  0  0  0
 21 22  1  0  0  0  0
 21 20  1  0  0  0  0
 22 20  1  0  0  0  0
 22 19  1  1  0  0  0
 23 24  1  0  0  0  0
 23 25  1  0  0  0  0
 24 29  1  0  0  0  0
 25 28  1  6  0  0  0
 25 27  1  0  0  0  0
 26 30  1  0  0  0  0
 26 20  1  0  0  0  0
 27 30  2  0  0  0  0
 29 26  1  0  0  0  0
 31 32  1  0  0  0  0
 33 22  1  0  0  0  0
 34 33  1  0  0  0  0
 35 36  2  0  0  0  0
 36 34  1  0  0  0  0
 38 37  1  0  0  0  0
 39 38  1  0  0  0  0
 40 39  1  0  0  0  0
 41 40  1  6  0  0  0
 41 49  1  0  0  0  0
 42 47  1  6  0  0  0
 42 48  1  0  0  0  0
 43 42  1  0  0  0  0
 43 41  1  1  0  0  0
 44 43  1  0  0  0  0
 44 42  1  0  0  0  0
 44 48  1  0  0  0  0
 45 47  1  0  0  0  0
 45 46  1  0  0  0  0
 46 48  1  0  0  0  0
 50 49  1  0  0  0  0
 51 52  1  0  0  0  0
 51 50  1  0  0  0  0
 52 54  1  0  0  0  0
 53 51  1  0  0  0  0
 53 52  1  0  0  0  0
M  END
>  <MODEL>
6

>  <REMARK>
 VINA RESULT:      -6.4      2.364      3.915
  Name = 
  18 active torsions:
  status: ('A' for Active; 'I' for Inactive)
    1  A    between atoms: C_3  and  N_17
    2  A    between atoms: C_3  and  O_33
    3  A    between atoms: C_5  and  O_36
    4  A    between atoms: C_5  and  C_47
    5  A    between atoms: C_7  and  C_46
    6  A    between atoms: C_7  and  C_48
    7  A    between atoms: C_9  and  C_48
    8  A    between atoms: C_10  and  N_32
    9  A    between atoms: C_12  and  C_22
   10  A    between atoms: C_12  and  N_26
   11  A    between atoms: C_15  and  N_40
   12  A    between atoms: C_16  and  C_25
   13  A    between atoms: C_16  and  C_44
   14  A    between atoms: N_26  and  C_46
   15  A    between atoms: N_32  and  N_38
   16  A    between atoms: O_36  and  C_45
   17  A    between atoms: N_38  and  C_48
   18  A    between atoms: C_44  and  C_45
                            x       y       z     vdW  Elec       q    Type
                         _______ _______ _______ _____ _____    ______ ____

>  <TORSDO>
F 18

$$$$
=
 OpenBabel10222420023D

 54 62  0  0  1  0  0  0  0  0999 V2000
  186.3910  178.4860  138.2020 N   0  0  0  0  0  1  0  0  0  0  0  0
  184.0080  178.4360  139.1920 C   0  0  0  0  0  3  0  0  0  0  0  0
  183.2730  178.9550  143.3850 C   0  0  0  0  0  0  0  0  0  0  0  0
  184.6060  179.4030  145.3150 C   0  0  2  0  0  3  0  0  0  0  0  0
  187.2950  178.8830  141.0310 C   0  0  0  0  0  1  0  0  0  0  0  0
  183.2670  179.1880  144.7790 N   0  0  0  0  0  2  0  0  0  0  0  0
  184.5590  178.9240  142.7970 N   0  0  0  0  0  0  0  0  0  0  0  0
  184.6880  178.7470  141.3860 C   0  0  0  0  0  0  0  0  0  0  0  0
  185.8860  178.7190  140.5680 C   0  0  0  0  0  0  0  0  0  0  0  0
  183.6170  178.5920  140.6300 C   0  0  1  0  0  3  0  0  0  0  0  0
  182.2860  178.6010  141.2050 N   0  0  0  0  0  0  0  0  0  0  0  0
  185.5010  178.5410  139.3120 C   0  0  0  0  0  0  0  0  0  0  0  0
  182.1620  178.7910  142.6400 C   0  0  0  0  0  0  0  0  0  0  0  0
  185.8520  179.1350  143.9730 S   0  0  0  0  0  0  0  0  0  0  0  0
  180.8160  178.8300  143.2960 C   0  0  0  0  0  1  0  0  0  0  0  0
  181.0840  178.4640  140.4250 C   0  0  0  0  0  3  0  0  0  0  0  0
  180.6710  177.3190  139.8910 C   0  0  0  0  0  3  0  0  0  0  0  0
  179.4200  177.2670  139.0840 C   0  0  0  0  0  2  0  0  0  0  0  0
  179.7550  177.1920  137.6010 C   0  0  0  0  0  2  0  0  0  0  0  0
  181.4550  175.7550  136.3050 C   0  0  1  0  0  0  0  0  0  0  0  0
  180.1450  175.4510  135.8640 O   0  0  0  0  0  0  0  0  0  0  0  0
  180.2840  175.8120  137.2220 C   0  0  2  0  0  0  0  0  0  0  0  0
  184.7080  172.7010  136.8640 C   0  0  0  0  0  2  0  0  0  0  0  0
  184.4710  174.0870  136.9720 O   0  0  0  0  0  0  0  0  0  0  0  0
  183.6550  171.9290  136.0430 C   0  0  1  0  0  3  0  0  0  0  0  0
  182.3020  174.5660  136.2600 N   0  0  0  0  0  0  0  0  0  0  0  0
  183.0980  172.7000  134.8840 C   0  0  0  0  0  3  0  0  0  0  0  0
  184.2270  170.6800  135.5730 N   0  0  0  0  0  1  0  0  0  0  0  0
  183.1510  174.2670  137.4110 C   0  0  0  0  0  2  0  0  0  0  0  0
  182.4570  173.8690  135.0110 C   0  0  0  0  0  3  0  0  0  0  0  0
  181.9270  176.9110  135.6600 O   0  0  0  0  0  0  0  0  0  0  0  0
  183.1720  177.1950  136.2300 C   0  0  0  0  0  1  0  0  0  0  0  0
  180.1750  174.7380  138.1240 O   0  0  0  0  0  0  0  0  0  0  0  0
  178.9310  174.1300  137.9010 C   0  0  0  0  0  2  0  0  0  0  0  0
  179.8810  172.0250  137.0590 C   0  0  0  0  0  2  0  0  0  0  0  0
  179.0780  172.6420  137.9230 C   0  0  0  0  0  3  0  0  0  0  0  0
  184.8480  178.4430  146.4650 C   0  0  0  0  0  2  0  0  0  0  0  0
  185.9540  177.5600  146.1480 N   0  0  0  0  0  2  0  0  0  0  0  0
  186.9470  177.7380  147.1920 C   0  0  0  0  0  2  0  0  0  0  0  0
  187.8880  176.5480  147.2110 C   0  0  0  0  0  2  0  0  0  0  0  0
  189.2800  176.9600  146.7660 C   0  0  1  0  0  3  0  0  0  0  0  0
  190.3070  177.4580  144.5600 C   0  0  1  0  0  0  0  0  0  0  0  0
  189.1860  177.8120  145.5120 C   0  0  1  0  0  3  0  0  0  0  0  0
  188.8850  176.9420  144.3110 C   0  0  2  0  0  3  0  0  0  0  0  0
  191.0150  177.8060  142.2870 C   0  0  0  0  0  2  0  0  0  0  0  0
  190.3460  176.4430  142.3610 C   0  0  0  0  0  2  0  0  0  0  0  0
  190.5760  178.5390  143.5360 C   0  0  0  0  0  2  0  0  0  0  0  0
  190.0860  176.1540  143.8310 C   0  0  1  0  0  3  0  0  0  0  0  0
  189.9250  177.7200  147.8230 N   0  0  0  0  0  2  0  0  0  0  0  0
  191.2960  177.4420  147.7490 N   0  0  0  0  0  2  0  0  0  0  0  0
  191.4330  175.9930  147.6540 C   0  0  2  0  0  3  0  0  0  0  0  0
  192.7020  175.4780  148.3370 C   0  0  1  0  0  3  0  0  0  0  0  0
  192.6580  175.6460  146.8340 C   0  0  0  0  0  2  0  0  0  0  0  0
  193.4940  176.5520  148.9240 N   0  0  0  0  0  1  0  0  0  0  0  0
  1 12  1  0  0  0  0
  2 12  2  0  0  0  0
  3  6  1  0  0  0  0
  4 37  1  1  0  0  0
  6  4  1  0  0  0  0
  7  3  1  0  0  0  0
  7 14  1  0  0  0  0
  8  7  1  0  0  0  0
  9  5  1  0  0  0  0
  9  8  2  0  0  0  0
 10  2  1  6  0  0  0
 10 11  1  0  0  0  0
 10  8  1  0  0  0  0
 11 13  1  0  0  0  0
 12  9  1  0  0  0  0
 13 15  1  0  0  0  0
 13  3  2  0  0  0  0
 14  4  1  0  0  0  0
 16 11  1  0  0  0  0
 17 16  2  0  0  0  0
 18 17  1  0  0  0  0
 19 18  1  0  0  0  0
 20 31  1  6  0  0  0
 20 22  1  0  0  0  0
 21 20  1  0  0  0  0
 21 22  1  0  0  0  0
 22 19  1  1  0  0  0
 22 33  1  0  0  0  0
 23 24  1  0  0  0  0
 24 29  1  0  0  0  0
 25 28  1  6  0  0  0
 25 23  1  0  0  0  0
 26 20  1  0  0  0  0
 26 29  1  0  0  0  0
 27 30  2  0  0  0  0
 27 25  1  0  0  0  0
 30 26  1  0  0  0  0
 31 32  1  0  0  0  0
 34 36  1  0  0  0  0
 34 33  1  0  0  0  0
 35 36  2  0  0  0  0
 38 37  1  0  0  0  0
 38 39  1  0  0  0  0
 39 40  1  0  0  0  0
 41 40  1  1  0  0  0
 41 49  1  0  0  0  0
 42 47  1  6  0  0  0
 42 43  1  0  0  0  0
 43 41  1  1  0  0  0
 44 42  1  0  0  0  0
 44 43  1  0  0  0  0
 45 46  1  0  0  0  0
 45 47  1  0  0  0  0
 46 48  1  0  0  0  0
 48 44  1  0  0  0  0
 48 42  1  0  0  0  0
 50 49  1  0  0  0  0
 51 50  1  0  0  0  0
 51 52  1  0  0  0  0
 52 54  1  0  0  0  0
 53 51  1  0  0  0  0
 53 52  1  0  0  0  0
M  END
>  <MODEL>
7

>  <REMARK>
 VINA RESULT:      -6.3      3.671      7.034
  Name = 
  18 active torsions:
  status: ('A' for Active; 'I' for Inactive)
    1  A    between atoms: C_3  and  N_17
    2  A    between atoms: C_3  and  O_33
    3  A    between atoms: C_5  and  O_36
    4  A    between atoms: C_5  and  C_47
    5  A    between atoms: C_7  and  C_46
    6  A    between atoms: C_7  and  C_48
    7  A    between atoms: C_9  and  C_48
    8  A    between atoms: C_10  and  N_32
    9  A    between atoms: C_12  and  C_22
   10  A    between atoms: C_12  and  N_26
   11  A    between atoms: C_15  and  N_40
   12  A    between atoms: C_16  and  C_25
   13  A    between atoms: C_16  and  C_44
   14  A    between atoms: N_26  and  C_46
   15  A    between atoms: N_32  and  N_38
   16  A    between atoms: O_36  and  C_45
   17  A    between atoms: N_38  and  C_48
   18  A    between atoms: C_44  and  C_45
                            x       y       z     vdW  Elec       q    Type
                         _______ _______ _______ _____ _____    ______ ____

>  <TORSDO>
F 18

$$$$
=
 OpenBabel10222420023D

 54 62  0  0  1  0  0  0  0  0999 V2000
  188.1850  177.3180  148.1470 N   0  0  0  0  0  1  0  0  0  0  0  0
  186.9010  178.0550  146.0320 C   0  0  0  0  0  3  0  0  0  0  0  0
  188.5700  177.6600  142.1020 C   0  0  0  0  0  0  0  0  0  0  0  0
  190.5880  176.7760  141.1790 C   0  0  2  0  0  3  0  0  0  0  0  0
  190.3900  176.5850  146.2560 C   0  0  0  0  0  1  0  0  0  0  0  0
  189.2960  177.4000  140.9170 N   0  0  0  0  0  2  0  0  0  0  0  0
  189.2480  177.3190  143.2960 N   0  0  0  0  0  0  0  0  0  0  0  0
  188.5950  177.4890  144.5540 C   0  0  0  0  0  0  0  0  0  0  0  0
  189.0720  177.1800  145.8880 C   0  0  0  0  0  0  0  0  0  0  0  0
  187.3710  177.9820  144.6120 C   0  0  0  0  0  0  0  0  0  0  0  0
  186.6570  178.3570  143.4060 N   0  0  0  0  0  0  0  0  0  0  0  0
  188.1060  177.5020  146.7360 C   0  0  2  0  0  3  0  0  0  0  0  0
  187.3250  178.1730  142.1290 C   0  0  0  0  0  0  0  0  0  0  0  0
  190.8680  176.6950  143.0060 S   0  0  0  0  0  0  0  0  0  0  0  0
  186.6370  178.5220  140.8450 C   0  0  0  0  0  1  0  0  0  0  0  0
  185.3130  178.8730  143.4090 C   0  0  0  0  0  3  0  0  0  0  0  0
  184.2710  178.2310  143.9270 C   0  0  0  0  0  3  0  0  0  0  0  0
  182.9090  178.8310  143.8750 C   0  0  0  0  0  2  0  0  0  0  0  0
  182.7360  179.6280  142.5890 C   0  0  0  0  0  2  0  0  0  0  0  0
  182.1690  178.4800  140.3550 C   0  0  1  0  0  0  0  0  0  0  0  0
  181.4220  179.6760  140.4750 O   0  0  0  0  0  0  0  0  0  0  0  0
  181.6990  178.9840  141.6740 C   0  0  2  0  0  0  0  0  0  0  0  0
  178.9340  175.9470  138.5280 C   0  0  0  0  0  2  0  0  0  0  0  0
  179.1480  176.8730  139.5690 O   0  0  0  0  0  0  0  0  0  0  0  0
  180.2190  175.3360  137.9330 C   0  0  1  0  0  3  0  0  0  0  0  0
  181.4030  177.4650  139.6350 N   0  0  0  0  0  0  0  0  0  0  0  0
  181.3130  175.1180  138.9350 C   0  0  0  0  0  3  0  0  0  0  0  0
  179.9010  174.0830  137.2720 N   0  0  0  0  0  1  0  0  0  0  0  0
  180.0820  177.8190  139.1210 C   0  0  0  0  0  2  0  0  0  0  0  0
  181.8580  176.1010  139.6630 C   0  0  0  0  0  3  0  0  0  0  0  0
  183.4640  178.7630  139.8910 O   0  0  0  0  0  0  0  0  0  0  0  0
  183.3170  179.7020  138.8650 C   0  0  0  0  0  1  0  0  0  0  0  0
  180.5980  178.3010  142.2210 O   0  0  0  0  0  0  0  0  0  0  0  0
  179.5150  179.1930  142.2300 C   0  0  0  0  0  2  0  0  0  0  0  0
  179.2080  178.9550  144.6580 C   0  0  0  0  0  2  0  0  0  0  0  0
  179.3310  179.7580  143.6020 C   0  0  0  0  0  3  0  0  0  0  0  0
  191.6830  177.5840  140.5070 C   0  0  0  0  0  2  0  0  0  0  0  0
  191.9830  177.0230  139.2040 N   0  0  0  0  0  2  0  0  0  0  0  0
  190.9790  176.0060  138.9430 C   0  0  0  0  0  2  0  0  0  0  0  0
  191.2680  175.3320  137.6150 C   0  0  0  0  0  2  0  0  0  0  0  0
  190.1420  175.5890  136.6300 C   0  0  1  0  0  3  0  0  0  0  0  0
  188.6120  173.8690  135.6950 C   0  0  1  0  0  0  0  0  0  0  0  0
  188.9760  174.6610  136.9310 C   0  0  1  0  0  3  0  0  0  0  0  0
  189.4170  173.2170  136.8250 C   0  0  2  0  0  3  0  0  0  0  0  0
  187.2910  171.9820  135.0010 C   0  0  0  0  0  2  0  0  0  0  0  0
  188.7270  171.5110  135.1530 C   0  0  0  0  0  2  0  0  0  0  0  0
  187.2140  173.2930  135.7530 C   0  0  0  0  0  2  0  0  0  0  0  0
  189.5790  172.7480  135.3940 C   0  0  1  0  0  3  0  0  0  0  0  0
  189.7040  176.9700  136.7370 N   0  0  0  0  0  2  0  0  0  0  0  0
  188.4770  177.0640  136.0680 N   0  0  0  0  0  2  0  0  0  0  0  0
  187.9170  178.3720  136.3850 C   0  0  2  0  0  3  0  0  0  0  0  0
  186.5720  178.2750  137.1090 C   0  0  1  0  0  3  0  0  0  0  0  0
  186.6230  178.5740  135.6260 C   0  0  0  0  0  2  0  0  0  0  0  0
  186.1480  176.8960  137.3120 N   0  0  0  0  0  1  0  0  0  0  0  0
  2 12  1  0  0  0  0
  3 13  2  0  0  0  0
  3  7  1  0  0  0  0
  4 37  1  6  0  0  0
  4 14  1  0  0  0  0
  6  4  1  0  0  0  0
  6  3  1  0  0  0  0
  7  8  1  0  0  0  0
  8 10  1  0  0  0  0
  8  9  2  0  0  0  0
  9  5  1  0  0  0  0
  9 12  1  0  0  0  0
 10  2  2  0  0  0  0
 11 16  1  0  0  0  0
 11 10  1  0  0  0  0
 12  1  1  6  0  0  0
 13 11  1  0  0  0  0
 14  7  1  0  0  0  0
 15 13  1  0  0  0  0
 16 17  2  0  0  0  0
 18 17  1  0  0  0  0
 19 18  1  0  0  0  0
 20 31  1  6  0  0  0
 20 21  1  0  0  0  0
 20 22  1  0  0  0  0
 21 22  1  0  0  0  0
 22 33  1  0  0  0  0
 22 19  1  1  0  0  0
 23 24  1  0  0  0  0
 25 28  1  1  0  0  0
 25 23  1  0  0  0  0
 25 27  1  0  0  0  0
 26 30  1  0  0  0  0
 26 20  1  0  0  0  0
 27 30  2  0  0  0  0
 29 24  1  0  0  0  0
 29 26  1  0  0  0  0
 32 31  1  0  0  0  0
 33 34  1  0  0  0  0
 34 36  1  0  0  0  0
 36 35  2  0  0  0  0
 38 37  1  0  0  0  0
 39 38  1  0  0  0  0
 40 39  1  0  0  0  0
 41 49  1  0  0  0  0
 41 40  1  1  0  0  0
 42 47  1  6  0  0  0
 42 44  1  0  0  0  0
 42 43  1  0  0  0  0
 43 41  1  6  0  0  0
 44 43  1  0  0  0  0
 45 46  1  0  0  0  0
 45 47  1  0  0  0  0
 46 48  1  0  0  0  0
 48 42  1  0  0  0  0
 48 44  1  0  0  0  0
 50 51  1  0  0  0  0
 50 49  1  0  0  0  0
 51 52  1  0  0  0  0
 52 54  1  0  0  0  0
 53 51  1  0  0  0  0
 53 52  1  0  0  0  0
M  END
>  <MODEL>
8

>  <REMARK>
 VINA RESULT:      -6.2      1.879      3.363
  Name = 
  18 active torsions:
  status: ('A' for Active; 'I' for Inactive)
    1  A    between atoms: C_3  and  N_17
    2  A    between atoms: C_3  and  O_33
    3  A    between atoms: C_5  and  O_36
    4  A    between atoms: C_5  and  C_47
    5  A    between atoms: C_7  and  C_46
    6  A    between atoms: C_7  and  C_48
    7  A    between atoms: C_9  and  C_48
    8  A    between atoms: C_10  and  N_32
    9  A    between atoms: C_12  and  C_22
   10  A    between atoms: C_12  and  N_26
   11  A    between atoms: C_15  and  N_40
   12  A    between atoms: C_16  and  C_25
   13  A    between atoms: C_16  and  C_44
   14  A    between atoms: N_26  and  C_46
   15  A    between atoms: N_32  and  N_38
   16  A    between atoms: O_36  and  C_45
   17  A    between atoms: N_38  and  C_48
   18  A    between atoms: C_44  and  C_45
                            x       y       z     vdW  Elec       q    Type
                         _______ _______ _______ _____ _____    ______ ____

>  <TORSDO>
F 18

$$$$
=
 OpenBabel10222420023D

 54 62  0  0  1  0  0  0  0  0999 V2000
  185.5280  178.2450  146.7220 N   0  0  0  0  0  1  0  0  0  0  0  0
  185.2220  178.5640  144.1790 C   0  0  0  0  0  3  0  0  0  0  0  0
  188.3620  177.7220  141.3840 C   0  0  0  0  0  0  0  0  0  0  0  0
  190.5880  176.8660  141.5140 C   0  0  2  0  0  3  0  0  0  0  0  0
  188.3220  177.4100  146.0340 C   0  0  0  0  0  1  0  0  0  0  0  0
  189.5120  177.3460  140.6530 N   0  0  0  0  0  2  0  0  0  0  0  0
  188.4920  177.6130  142.7880 N   0  0  0  0  0  0  0  0  0  0  0  0
  187.3770  177.9170  143.6280 C   0  0  0  0  0  0  0  0  0  0  0  0
  187.2670  177.8430  145.0720 C   0  0  0  0  0  0  0  0  0  0  0  0
  186.2350  178.3190  143.1040 C   0  0  0  0  0  0  0  0  0  0  0  0
  186.0760  178.4580  141.6690 N   0  0  0  0  0  0  0  0  0  0  0  0
  186.0350  178.2130  145.3910 C   0  0  2  0  0  3  0  0  0  0  0  0
  187.2110  178.1380  140.8200 C   0  0  0  0  0  0  0  0  0  0  0  0
  190.0930  177.0760  143.2850 S   0  0  0  0  0  0  0  0  0  0  0  0
  187.1090  178.2420  139.3290 C   0  0  0  0  0  1  0  0  0  0  0  0
  184.8450  178.8660  141.0430 C   0  0  0  0  0  3  0  0  0  0  0  0
  183.7670  178.0950  140.9500 C   0  0  0  0  0  3  0  0  0  0  0  0
  182.5370  178.5910  140.2720 C   0  0  0  0  0  2  0  0  0  0  0  0
  182.7720  178.6960  138.7710 C   0  0  0  0  0  2  0  0  0  0  0  0
  183.5330  176.8090  137.1930 C   0  0  1  0  0  0  0  0  0  0  0  0
  182.3790  177.4330  136.6610 O   0  0  0  0  0  0  0  0  0  0  0  0
  182.4710  177.3750  138.0690 C   0  0  2  0  0  0  0  0  0  0  0  0
  182.5100  172.6390  135.8570 C   0  0  0  0  0  2  0  0  0  0  0  0
  181.9000  173.8440  136.2640 O   0  0  0  0  0  0  0  0  0  0  0  0
  184.0100  172.5260  136.2020 C   0  0  1  0  0  3  0  0  0  0  0  0
  183.5430  175.3850  136.8690 N   0  0  0  0  0  0  0  0  0  0  0  0
  184.3880  173.1730  137.5010 C   0  0  0  0  0  3  0  0  0  0  0  0
  184.4020  171.1290  136.2150 N   0  0  0  0  0  1  0  0  0  0  0  0
  182.6830  174.9060  135.7890 C   0  0  0  0  0  2  0  0  0  0  0  0
  184.2040  174.4720  137.7640 C   0  0  0  0  0  3  0  0  0  0  0  0
  184.6790  177.5540  136.8690 O   0  0  0  0  0  0  0  0  0  0  0  0
  185.4300  176.7580  135.9980 C   0  0  0  0  0  1  0  0  0  0  0  0
  181.6210  176.4300  138.6710 O   0  0  0  0  0  0  0  0  0  0  0  0
  180.3180  176.6970  138.2250 C   0  0  0  0  0  2  0  0  0  0  0  0
  179.6070  176.1800  140.5210 C   0  0  0  0  0  2  0  0  0  0  0  0
  179.4020  176.8610  139.3950 C   0  0  0  0  0  3  0  0  0  0  0  0
  191.8550  177.6470  141.2190 C   0  0  0  0  0  2  0  0  0  0  0  0
  192.8710  176.7590  140.6880 N   0  0  0  0  0  2  0  0  0  0  0  0
  193.1620  177.2120  139.3400 C   0  0  0  0  0  2  0  0  0  0  0  0
  192.2990  176.4560  138.3480 C   0  0  0  0  0  2  0  0  0  0  0  0
  193.1580  175.7970  137.2850 C   0  0  1  0  0  3  0  0  0  0  0  0
  194.1310  173.6450  136.5140 C   0  0  1  0  0  0  0  0  0  0  0  0
  193.3030  174.3150  137.5890 C   0  0  1  0  0  3  0  0  0  0  0  0
  194.7520  173.9800  137.8760 C   0  0  2  0  0  3  0  0  0  0  0  0
  195.2770  171.5820  136.0460 C   0  0  0  0  0  2  0  0  0  0  0  0
  196.3110  172.5860  136.5290 C   0  0  0  0  0  2  0  0  0  0  0  0
  193.9380  172.1440  136.4690 C   0  0  0  0  0  2  0  0  0  0  0  0
  195.6100  173.9330  136.6280 C   0  0  1  0  0  3  0  0  0  0  0  0
  192.5390  175.9670  135.9810 N   0  0  0  0  0  2  0  0  0  0  0  0
  191.1680  175.7280  136.1450 N   0  0  0  0  0  2  0  0  0  0  0  0
  190.5110  176.1560  134.9160 C   0  0  2  0  0  3  0  0  0  0  0  0
  189.5120  177.2920  135.1500 C   0  0  1  0  0  3  0  0  0  0  0  0
  189.0270  175.8660  134.9990 C   0  0  0  0  0  2  0  0  0  0  0  0
  189.4350  177.6860  136.5500 N   0  0  0  0  0  1  0  0  0  0  0  0
  2 12  1  0  0  0  0
  3  7  1  0  0  0  0
  4 37  1  1  0  0  0
  4 14  1  0  0  0  0
  6  3  1  0  0  0  0
  6  4  1  0  0  0  0
  7 14  1  0  0  0  0
  7  8  1  0  0  0  0
  8  9  2  0  0  0  0
  9 12  1  0  0  0  0
  9  5  1  0  0  0  0
 10  8  1  0  0  0  0
 10  2  2  0  0  0  0
 11 10  1  0  0  0  0
 12  1  1  6  0  0  0
 13  3  2  0  0  0  0
 13 11  1  0  0  0  0
 15 13  1  0  0  0  0
 16 11  1  0  0  0  0
 17 16  2  0  0  0  0
 18 17  1  0  0  0  0
 19 18  1  0  0  0  0
 20 31  1  6  0  0  0
 20 22  1  0  0  0  0
 21 20  1  0  0  0  0
 21 22  1  0  0  0  0
 22 33  1  0  0  0  0
 22 19  1  1  0  0  0
 23 25  1  0  0  0  0
 23 24  1  0  0  0  0
 25 28  1  1  0  0  0
 25 27  1  0  0  0  0
 26 20  1  0  0  0  0
 26 30  1  0  0  0  0
 27 30  2  0  0  0  0
 29 24  1  0  0  0  0
 29 26  1  0  0  0  0
 32 31  1  0  0  0  0
 34 33  1  0  0  0  0
 34 36  1  0  0  0  0
 36 35  2  0  0  0  0
 38 37  1  0  0  0  0
 39 38  1  0  0  0  0
 40 39  1  0  0  0  0
 41 40  1  1  0  0  0
 42 47  1  6  0  0  0
 42 48  1  0  0  0  0
 42 43  1  0  0  0  0
 42 44  1  0  0  0  0
 43 41  1  6  0  0  0
 43 44  1  0  0  0  0
 45 47  1  0  0  0  0
 45 46  1  0  0  0  0
 46 48  1  0  0  0  0
 48 44  1  0  0  0  0
 49 50  1  0  0  0  0
 49 41  1  0  0  0  0
 51 53  1  0  0  0  0
 51 52  1  0  0  0  0
 51 50  1  0  0  0  0
 52 54  1  0  0  0  0
 53 52  1  0  0  0  0
M  END
>  <MODEL>
9

>  <REMARK>
 VINA RESULT:      -6.2      2.009      4.101
  Name = 
  18 active torsions:
  status: ('A' for Active; 'I' for Inactive)
    1  A    between atoms: C_3  and  N_17
    2  A    between atoms: C_3  and  O_33
    3  A    between atoms: C_5  and  O_36
    4  A    between atoms: C_5  and  C_47
    5  A    between atoms: C_7  and  C_46
    6  A    between atoms: C_7  and  C_48
    7  A    between atoms: C_9  and  C_48
    8  A    between atoms: C_10  and  N_32
    9  A    between atoms: C_12  and  C_22
   10  A    between atoms: C_12  and  N_26
   11  A    between atoms: C_15  and  N_40
   12  A    between atoms: C_16  and  C_25
   13  A    between atoms: C_16  and  C_44
   14  A    between atoms: N_26  and  C_46
   15  A    between atoms: N_32  and  N_38
   16  A    between atoms: O_36  and  C_45
   17  A    between atoms: N_38  and  C_48
   18  A    between atoms: C_44  and  C_45
                            x       y       z     vdW  Elec       q    Type
                         _______ _______ _______ _____ _____    ______ ____

>  <TORSDO>
F 18

$$$$
