=
 OpenBabel10222420303D

 63 68  0  0  1  0  0  0  0  0999 V2000
  190.4200  175.1110  137.5110 C   0  0  2  0  0  3  0  0  0  0  0  0
  188.1610  176.1260  137.8330 C   0  0  0  0  0  3  0  0  0  0  0  0
  189.0540  175.5360  137.0180 C   0  0  0  0  0  0  0  0  0  0  0  0
  193.0760  176.9740  139.2810 C   0  0  0  0  0  2  0  0  0  0  0  0
  191.9150  177.4460  139.9250 O   0  0  0  0  0  0  0  0  0  0  0  0
  189.5220  177.4160  139.4900 C   0  0  1  0  0  3  0  0  0  0  0  0
  190.8560  176.6740  139.4190 C   0  0  1  0  0  3  0  0  0  0  0  0
  188.3840  176.4230  139.2850 C   0  0  0  0  0  2  0  0  0  0  0  0
  192.6810  176.0970  138.1100 C   0  0  0  0  0  2  0  0  0  0  0  0
  191.2070  176.3320  137.9940 C   0  0  1  0  0  3  0  0  0  0  0  0
  190.6970  173.1320  136.5510 C   0  0  0  0  0  1  0  0  0  0  0  0
  191.1160  174.4620  136.4840 O   0  0  0  0  0  0  0  0  0  0  0  0
  188.7290  175.2990  135.6760 O   0  0  0  0  0  0  0  0  0  0  0  0
  187.4860  174.7390  135.2660 C   0  0  0  0  0  2  0  0  0  0  0  0
  187.4900  173.2420  135.5250 C   0  0  0  0  0  2  0  0  0  0  0  0
  186.6570  172.5930  134.6120 O   0  0  0  0  0  0  0  0  0  0  0  0
  186.0220  171.6050  135.3590 C   0  0  0  0  0  2  0  0  0  0  0  0
  184.6190  172.0530  135.7330 C   0  0  0  0  0  2  0  0  0  0  0  0
  183.6080  171.1450  135.0590 C   0  0  0  0  0  2  0  0  0  0  0  0
  182.2100  171.4240  135.5850 C   0  0  0  0  0  2  0  0  0  0  0  0
  182.2970  172.2860  136.8350 C   0  0  1  0  0  3  0  0  0  0  0  0
  182.7920  173.6940  136.4800 C   0  0  0  0  0  2  0  0  0  0  0  0
  179.3710  174.4740  137.9000 C   0  0  0  0  0  2  0  0  0  0  0  0
  181.2730  175.6410  135.9520 C   0  0  0  0  0  2  0  0  0  0  0  0
  179.3960  175.9910  137.7340 C   0  0  0  0  0  2  0  0  0  0  0  0
  181.7780  174.7000  137.0470 C   0  0  1  0  0  3  0  0  0  0  0  0
  179.9640  176.3820  136.3560 C   0  0  1  0  0  3  0  0  0  0  0  0
  180.1740  171.6270  137.7930 O   0  0  0  0  0  0  0  0  0  0  0  0
  180.6720  173.9100  137.5530 N   0  0  0  0  0  0  0  0  0  0  0  0
  180.9550  172.5350  137.4040 C   0  0  0  0  0  0  0  0  0  0  0  0
  181.4670  178.2600  136.0540 C   0  0  0  0  0  2  0  0  0  0  0  0
  179.2390  178.2900  135.1160 C   0  0  0  0  0  2  0  0  0  0  0  0
  179.0870  179.8180  135.1430 C   0  0  0  0  0  2  0  0  0  0  0  0
  180.0620  177.8440  136.2420 N   0  0  1  0  0  0  0  0  0  0  0  0
  180.3450  180.5330  135.6660 C   0  0  2  0  0  3  0  0  0  0  0  0
  181.6100  179.6840  135.4840 C   0  0  0  0  0  2  0  0  0  0  0  0
  180.1700  181.0270  137.1050 C   0  0  2  0  0  0  0  0  0  0  0  0
  180.0940  183.0260  138.2740 O   0  0  0  0  0  1  0  0  0  0  0  0
  181.3370  181.1460  137.9760 C   0  0  0  0  0  2  0  0  0  0  0  0
  178.9420  180.8350  137.7610 O   0  0  0  0  0  1  0  0  0  0  0  0
  180.7890  182.3580  137.3220 N   0  0  0  0  0  0  0  0  0  0  0  0
  189.3400  178.0890  140.8350 C   0  0  0  0  0  2  0  0  0  0  0  0
  189.1670  177.0270  141.9030 C   0  0  0  0  0  2  0  0  0  0  0  0
  187.1270  177.3030  143.3540 N   0  0  0  0  0  2  0  0  0  0  0  0
  189.1320  178.3790  143.8800 O   0  0  0  0  0  0  0  0  0  0  0  0
  188.5080  177.5890  143.1180 C   0  0  0  0  0  0  0  0  0  0  0  0
  186.3290  178.0590  144.3150 C   0  0  1  0  0  3  0  0  0  0  0  0
  184.9170  178.2960  143.7540 C   0  0  1  0  0  3  0  0  0  0  0  0
  183.9090  178.7050  144.8370 C   0  0  0  0  0  2  0  0  0  0  0  0
  182.6780  179.3740  144.2480 C   0  0  0  0  0  2  0  0  0  0  0  0
  181.5150  178.4030  144.2760 C   0  0  0  0  0  2  0  0  0  0  0  0
  180.5760  179.8730  142.5230 C   0  0  0  0  0  1  0  0  0  0  0  0
  180.2670  179.1070  143.7930 C   0  0  0  0  0  2  0  0  0  0  0  0
  184.9320  179.3250  142.6260 C   0  0  0  0  0  2  0  0  0  0  0  0
  184.5340  178.6900  141.3020 C   0  0  0  0  0  2  0  0  0  0  0  0
  185.0520  179.4250  140.2330 O   0  0  0  0  0  0  0  0  0  0  0  0
  184.6660  178.3480  138.1450 C   0  0  0  0  0  1  0  0  0  0  0  0
  184.1110  179.2650  139.2180 C   0  0  0  0  0  2  0  0  0  0  0  0
  186.2580  177.3220  145.5710 N   0  0  0  0  0  2  0  0  0  0  0  0
  186.6820  178.2280  146.6300 C   0  0  0  0  0  2  0  0  0  0  0  0
  188.2200  178.4460  148.4560 O   0  0  0  0  0  1  0  0  0  0  0  0
  187.6330  177.5260  147.5850 C   0  0  0  0  0  3  0  0  0  0  0  0
  188.6280  176.8660  146.8620 O   0  0  0  0  0  1  0  0  0  0  0  0
  1 12  1  6  0  0  0
  1 10  1  0  0  0  0
  2  8  1  0  0  0  0
  3  1  1  0  0  0  0
  3  2  2  0  0  0  0
  4  5  1  0  0  0  0
  6 42  1  1  0  0  0
  7  6  1  0  0  0  0
  7  5  1  6  0  0  0
  8  6  1  0  0  0  0
  9  4  1  0  0  0  0
 10  9  1  1  0  0  0
 10  7  1  0  0  0  0
 12 11  1  0  0  0  0
 13  3  1  0  0  0  0
 14 15  1  0  0  0  0
 14 13  1  0  0  0  0
 16 17  1  0  0  0  0
 16 15  1  0  0  0  0
 17 18  1  0  0  0  0
 19 20  1  0  0  0  0
 19 18  1  0  0  0  0
 21 20  1  6  0  0  0
 21 30  1  0  0  0  0
 22 21  1  0  0  0  0
 22 26  1  0  0  0  0
 25 23  1  0  0  0  0
 26 24  1  6  0  0  0
 26 29  1  0  0  0  0
 27 24  1  1  0  0  0
 27 25  1  0  0  0  0
 29 23  1  0  0  0  0
 30 29  1  0  0  0  0
 30 28  2  0  0  0  0
 31 34  1  0  0  0  0
 32 33  1  0  0  0  0
 34 32  1  6  0  0  0
 34 27  1  0  0  0  0
 35 33  1  1  0  0  0
 35 37  1  0  0  0  0
 36 35  1  0  0  0  0
 36 31  1  0  0  0  0
 37 41  1  0  0  0  0
 37 40  1  1  0  0  0
 37 39  1  0  0  0  0
 41 39  1  0  0  0  0
 41 38  1  0  0  0  0
 42 43  1  0  0  0  0
 43 46  1  0  0  0  0
 46 44  1  0  0  0  0
 46 45  2  0  0  0  0
 47 44  1  6  0  0  0
 47 59  1  0  0  0  0
 48 54  1  6  0  0  0
 48 47  1  0  0  0  0
 48 49  1  0  0  0  0
 50 51  1  0  0  0  0
 50 49  1  0  0  0  0
 52 53  1  0  0  0  0
 53 51  1  0  0  0  0
 55 54  1  0  0  0  0
 56 55  1  0  0  0  0
 57 58  1  0  0  0  0
 58 56  1  0  0  0  0
 59 60  1  0  0  0  0
 60 62  1  0  0  0  0
 62 61  1  0  0  0  0
 63 62  1  0  0  0  0
M  END
>  <MODEL>
1

>  <REMARK>
 VINA RESULT:      -5.4      0.000      0.000
  Name = 
  28 active torsions:
  status: ('A' for Active; 'I' for Inactive)
    1  A    between atoms: C_1  and  C_34
    2  A    between atoms: C_2  and  C_7
    3  A    between atoms: C_2  and  O_25
    4  A    between atoms: C_4  and  C_37
    5  A    between atoms: C_7  and  O_54
    6  A    between atoms: N_9  and  C_38
    7  A    between atoms: C_10  and  O_50
    8  A    between atoms: N_14  and  C_29
    9  A    between atoms: N_14  and  C_57
   10  A    between atoms: N_15  and  C_57
   11  A    between atoms: C_20  and  C_33
   12  A    between atoms: C_20  and  C_55
   13  A    between atoms: C_21  and  C_57
   14  A    between atoms: C_21  and  C_58
   15  A    between atoms: C_21  and  C_62
   16  A    between atoms: C_22  and  C_41
   17  A    between atoms: C_22  and  C_61
   18  A    between atoms: O_25  and  C_26
   19  A    between atoms: C_28  and  C_29
   20  A    between atoms: C_32  and  O_36
   21  A    between atoms: C_32  and  C_62
   22  A    between atoms: C_33  and  C_58
   23  A    between atoms: C_34  and  C_56
   24  A    between atoms: C_35  and  O_54
   25  A    between atoms: C_35  and  C_59
   26  A    between atoms: O_36  and  C_60
   27  A    between atoms: C_44  and  C_61
   28  A    between atoms: C_56  and  C_59
                            x       y       z     vdW  Elec       q    Type
                         _______ _______ _______ _____ _____    ______ ____

>  <TORSDO>
F 28

$$$$
=
 OpenBabel10222420303D

 63 68  0  0  1  0  0  0  0  0999 V2000
  182.8350  177.5510  140.0210 C   0  0  2  0  0  3  0  0  0  0  0  0
  180.9150  178.4550  141.3370 C   0  0  0  0  0  3  0  0  0  0  0  0
  181.4150  178.0560  140.1540 C   0  0  0  0  0  0  0  0  0  0  0  0
  186.0670  179.0290  141.0340 C   0  0  0  0  0  2  0  0  0  0  0  0
  185.2480  179.3460  142.1350 O   0  0  0  0  0  0  0  0  0  0  0  0
  182.8620  179.3850  142.6040 C   0  0  1  0  0  3  0  0  0  0  0  0
  184.0290  178.6870  141.9080 C   0  0  1  0  0  3  0  0  0  0  0  0
  181.6620  178.4460  142.6360 C   0  0  0  0  0  2  0  0  0  0  0  0
  185.2210  178.4110  139.9390 C   0  0  0  0  0  2  0  0  0  0  0  0
  183.8230  178.6520  140.4160 C   0  0  1  0  0  3  0  0  0  0  0  0
  183.0670  175.7410  138.7620 C   0  0  0  0  0  1  0  0  0  0  0  0
  183.0730  177.1360  138.7060 O   0  0  0  0  0  0  0  0  0  0  0  0
  180.6160  178.1000  139.0040 O   0  0  0  0  0  0  0  0  0  0  0  0
  180.8450  177.2720  137.8680 C   0  0  0  0  0  2  0  0  0  0  0  0
  179.5150  176.8670  137.2540 C   0  0  0  0  0  2  0  0  0  0  0  0
  179.0330  175.7110  137.8680 O   0  0  0  0  0  0  0  0  0  0  0  0
  178.9470  174.7790  136.8370 C   0  0  0  0  0  2  0  0  0  0  0  0
  179.2840  173.3910  137.3580 C   0  0  0  0  0  2  0  0  0  0  0  0
  180.7840  173.2820  137.5570 C   0  0  0  0  0  2  0  0  0  0  0  0
  181.2860  171.9300  137.0800 C   0  0  0  0  0  2  0  0  0  0  0  0
  182.0510  172.1000  135.7770 C   0  0  1  0  0  3  0  0  0  0  0  0
  182.8170  173.4300  135.7750 C   0  0  0  0  0  2  0  0  0  0  0  0
  185.6700  170.9600  135.4780 C   0  0  0  0  0  2  0  0  0  0  0  0
  185.2110  173.6900  136.5340 C   0  0  0  0  0  2  0  0  0  0  0  0
  186.8270  171.9530  135.4410 C   0  0  0  0  0  2  0  0  0  0  0  0
  184.2870  173.1190  135.4560 C   0  0  1  0  0  3  0  0  0  0  0  0
  186.6350  173.0600  136.4970 C   0  0  1  0  0  3  0  0  0  0  0  0
  182.9320  169.8490  135.6600 O   0  0  0  0  0  0  0  0  0  0  0  0
  184.3960  171.6730  135.4430 N   0  0  0  0  0  0  0  0  0  0  0  0
  183.1270  171.0930  135.6560 C   0  0  0  0  0  0  0  0  0  0  0  0
  188.3740  173.9740  135.0770 C   0  0  0  0  0  2  0  0  0  0  0  0
  187.1460  175.3900  136.6050 C   0  0  0  0  0  2  0  0  0  0  0  0
  188.2720  176.4180  136.7920 C   0  0  0  0  0  2  0  0  0  0  0  0
  187.7110  174.0550  136.3950 N   0  0  1  0  0  0  0  0  0  0  0  0
  189.5160  176.1000  135.9450 C   0  0  2  0  0  3  0  0  0  0  0  0
  189.1770  175.2390  134.7210 C   0  0  0  0  0  2  0  0  0  0  0  0
  190.6480  175.5050  136.7870 C   0  0  2  0  0  0  0  0  0  0  0  0
  192.3760  176.2200  138.1560 O   0  0  0  0  0  1  0  0  0  0  0  0
  191.9380  175.2160  136.1640 C   0  0  0  0  0  2  0  0  0  0  0  0
  190.3400  174.7390  137.9240 O   0  0  0  0  0  1  0  0  0  0  0  0
  191.7760  176.4540  136.9630 N   0  0  0  0  0  0  0  0  0  0  0  0
  183.2190  179.7620  144.0280 C   0  0  0  0  0  2  0  0  0  0  0  0
  183.3140  178.5030  144.8670 C   0  0  0  0  0  2  0  0  0  0  0  0
  185.8200  178.2590  144.8630 N   0  0  0  0  0  2  0  0  0  0  0  0
  184.6340  178.4600  146.8650 O   0  0  0  0  0  0  0  0  0  0  0  0
  184.6100  178.4420  145.6020 C   0  0  0  0  0  0  0  0  0  0  0  0
  187.0720  177.8660  145.5040 C   0  0  1  0  0  3  0  0  0  0  0  0
  188.2000  177.8070  144.4600 C   0  0  1  0  0  3  0  0  0  0  0  0
  189.5880  178.0480  145.0720 C   0  0  0  0  0  2  0  0  0  0  0  0
  190.3000  176.7470  145.4010 C   0  0  0  0  0  2  0  0  0  0  0  0
  190.9350  176.8540  146.7730 C   0  0  0  0  0  2  0  0  0  0  0  0
  192.7930  175.7220  147.9480 C   0  0  0  0  0  1  0  0  0  0  0  0
  191.5190  175.5120  147.1570 C   0  0  0  0  0  2  0  0  0  0  0  0
  188.1800  176.4870  143.6930 C   0  0  0  0  0  2  0  0  0  0  0  0
  188.7220  176.6670  142.2830 C   0  0  0  0  0  2  0  0  0  0  0  0
  189.8950  175.9260  142.1120 O   0  0  0  0  0  0  0  0  0  0  0  0
  191.5270  177.6110  141.7150 C   0  0  0  0  0  1  0  0  0  0  0  0
  190.5820  176.5970  141.1030 C   0  0  0  0  0  2  0  0  0  0  0  0
  187.4010  178.8250  146.5510 N   0  0  0  0  0  2  0  0  0  0  0  0
  186.9670  178.2500  147.8170 C   0  0  0  0  0  2  0  0  0  0  0  0
  187.7930  177.7760  150.0170 O   0  0  0  0  0  1  0  0  0  0  0  0
  188.1660  177.8800  148.6760 C   0  0  0  0  0  3  0  0  0  0  0  0
  189.1610  178.8480  148.5410 O   0  0  0  0  0  1  0  0  0  0  0  0
  1 12  1  6  0  0  0
  1  3  1  0  0  0  0
  1 10  1  0  0  0  0
  2  8  1  0  0  0  0
  3  2  2  0  0  0  0
  4  5  1  0  0  0  0
  6  8  1  0  0  0  0
  6 42  1  1  0  0  0
  7  5  1  6  0  0  0
  7  6  1  0  0  0  0
  9  4  1  0  0  0  0
 10  9  1  6  0  0  0
 10  7  1  0  0  0  0
 12 11  1  0  0  0  0
 13  3  1  0  0  0  0
 14 13  1  0  0  0  0
 15 16  1  0  0  0  0
 15 14  1  0  0  0  0
 17 18  1  0  0  0  0
 17 16  1  0  0  0  0
 18 19  1  0  0  0  0
 20 19  1  0  0  0  0
 21 20  1  1  0  0  0
 22 21  1  0  0  0  0
 25 23  1  0  0  0  0
 26 22  1  1  0  0  0
 26 24  1  0  0  0  0
 27 25  1  6  0  0  0
 27 24  1  0  0  0  0
 29 26  1  0  0  0  0
 29 23  1  0  0  0  0
 29 30  1  0  0  0  0
 30 28  2  0  0  0  0
 30 21  1  0  0  0  0
 32 33  1  0  0  0  0
 34 31  1  6  0  0  0
 34 27  1  0  0  0  0
 34 32  1  0  0  0  0
 35 36  1  6  0  0  0
 35 37  1  0  0  0  0
 35 33  1  0  0  0  0
 36 31  1  0  0  0  0
 37 41  1  0  0  0  0
 37 40  1  1  0  0  0
 39 37  1  0  0  0  0
 39 41  1  0  0  0  0
 41 38  1  0  0  0  0
 42 43  1  0  0  0  0
 43 46  1  0  0  0  0
 44 46  1  0  0  0  0
 46 45  2  0  0  0  0
 47 44  1  6  0  0  0
 47 59  1  0  0  0  0
 48 54  1  1  0  0  0
 48 49  1  0  0  0  0
 48 47  1  0  0  0  0
 49 50  1  0  0  0  0
 50 51  1  0  0  0  0
 51 53  1  0  0  0  0
 53 52  1  0  0  0  0
 55 54  1  0  0  0  0
 56 55  1  0  0  0  0
 58 57  1  0  0  0  0
 58 56  1  0  0  0  0
 59 60  1  0  0  0  0
 60 62  1  0  0  0  0
 62 61  1  0  0  0  0
 63 62  1  0  0  0  0
M  END
>  <MODEL>
2

>  <REMARK>
 VINA RESULT:      -5.2      2.739      7.653
  Name = 
  28 active torsions:
  status: ('A' for Active; 'I' for Inactive)
    1  A    between atoms: C_1  and  C_34
    2  A    between atoms: C_2  and  C_7
    3  A    between atoms: C_2  and  O_25
    4  A    between atoms: C_4  and  C_37
    5  A    between atoms: C_7  and  O_54
    6  A    between atoms: N_9  and  C_38
    7  A    between atoms: C_10  and  O_50
    8  A    between atoms: N_14  and  C_29
    9  A    between atoms: N_14  and  C_57
   10  A    between atoms: N_15  and  C_57
   11  A    between atoms: C_20  and  C_33
   12  A    between atoms: C_20  and  C_55
   13  A    between atoms: C_21  and  C_57
   14  A    between atoms: C_21  and  C_58
   15  A    between atoms: C_21  and  C_62
   16  A    between atoms: C_22  and  C_41
   17  A    between atoms: C_22  and  C_61
   18  A    between atoms: O_25  and  C_26
   19  A    between atoms: C_28  and  C_29
   20  A    between atoms: C_32  and  O_36
   21  A    between atoms: C_32  and  C_62
   22  A    between atoms: C_33  and  C_58
   23  A    between atoms: C_34  and  C_56
   24  A    between atoms: C_35  and  O_54
   25  A    between atoms: C_35  and  C_59
   26  A    between atoms: O_36  and  C_60
   27  A    between atoms: C_44  and  C_61
   28  A    between atoms: C_56  and  C_59
                            x       y       z     vdW  Elec       q    Type
                         _______ _______ _______ _____ _____    ______ ____

>  <TORSDO>
F 28

$$$$
=
 OpenBabel10222420303D

 63 68  0  0  1  0  0  0  0  0999 V2000
  182.4480  173.3260  135.9250 C   0  0  2  0  0  3  0  0  0  0  0  0
  183.9410  175.2130  136.5930 C   0  0  0  0  0  3  0  0  0  0  0  0
  182.8180  174.7920  135.9840 C   0  0  0  0  0  0  0  0  0  0  0  0
  184.3360  170.3680  134.7660 C   0  0  0  0  0  2  0  0  0  0  0  0
  185.3290  171.0910  135.4540 O   0  0  0  0  0  0  0  0  0  0  0  0
  185.5940  173.3580  136.2970 C   0  0  1  0  0  3  0  0  0  0  0  0
  184.6640  172.1670  136.0650 C   0  0  1  0  0  3  0  0  0  0  0  0
  184.9370  174.3250  137.2750 C   0  0  0  0  0  2  0  0  0  0  0  0
  183.0700  171.1970  134.6900 C   0  0  0  0  0  2  0  0  0  0  0  0
  183.5210  172.5450  135.1610 C   0  0  1  0  0  3  0  0  0  0  0  0
  180.2730  173.2180  136.3440 C   0  0  0  0  0  1  0  0  0  0  0  0
  181.2030  173.1740  135.3030 O   0  0  0  0  0  0  0  0  0  0  0  0
  181.9540  175.7200  135.3870 O   0  0  0  0  0  0  0  0  0  0  0  0
  182.2090  177.1200  135.3730 C   0  0  0  0  0  2  0  0  0  0  0  0
  181.1140  177.8320  134.5960 C   0  0  0  0  0  2  0  0  0  0  0  0
  180.2790  178.5300  135.4700 O   0  0  0  0  0  0  0  0  0  0  0  0
  181.0260  178.6580  136.6380 C   0  0  0  0  0  2  0  0  0  0  0  0
  180.1450  179.1620  137.7690 C   0  0  0  0  0  2  0  0  0  0  0  0
  180.7350  180.4420  138.3300 C   0  0  0  0  0  2  0  0  0  0  0  0
  182.0910  180.1710  138.9590 C   0  0  0  0  0  2  0  0  0  0  0  0
  182.0200  178.9080  139.8030 C   0  0  1  0  0  3  0  0  0  0  0  0
  183.4160  178.2930  139.9650 C   0  0  0  0  0  2  0  0  0  0  0  0
  182.5440  179.0510  143.5700 C   0  0  0  0  0  2  0  0  0  0  0  0
  184.9710  178.7910  141.8910 C   0  0  0  0  0  2  0  0  0  0  0  0
  183.8260  178.5430  144.2250 C   0  0  0  0  0  2  0  0  0  0  0  0
  183.6700  178.1060  141.4690 C   0  0  1  0  0  3  0  0  0  0  0  0
  185.0660  179.0000  143.4320 C   0  0  1  0  0  3  0  0  0  0  0  0
  180.5460  179.7830  141.5130 O   0  0  0  0  0  0  0  0  0  0  0  0
  182.5520  178.7360  142.1440 N   0  0  0  0  0  0  0  0  0  0  0  0
  181.6270  179.2200  141.1940 C   0  0  0  0  0  0  0  0  0  0  0  0
  186.1940  176.9630  144.1050 C   0  0  0  0  0  2  0  0  0  0  0  0
  187.4380  178.8350  143.2120 C   0  0  0  0  0  2  0  0  0  0  0  0
  188.7450  178.5110  143.9510 C   0  0  0  0  0  2  0  0  0  0  0  0
  186.2860  178.4350  144.0230 N   0  0  1  0  0  0  0  0  0  0  0  0
  188.6510  177.2270  144.7940 C   0  0  2  0  0  3  0  0  0  0  0  0
  187.5620  176.2770  144.2780 C   0  0  0  0  0  2  0  0  0  0  0  0
  188.5080  177.5300  146.2880 C   0  0  2  0  0  0  0  0  0  0  0  0
  189.7290  178.4980  148.0040 O   0  0  0  0  0  1  0  0  0  0  0  0
  188.8870  176.5170  147.2710 C   0  0  0  0  0  2  0  0  0  0  0  0
  187.5510  178.4640  146.7200 O   0  0  0  0  0  1  0  0  0  0  0  0
  189.8230  177.6270  146.9700 N   0  0  0  0  0  0  0  0  0  0  0  0
  186.9210  172.9120  136.8770 C   0  0  0  0  0  2  0  0  0  0  0  0
  187.9440  172.8170  135.7620 C   0  0  0  0  0  2  0  0  0  0  0  0
  189.3340  174.6490  136.7890 N   0  0  0  0  0  2  0  0  0  0  0  0
  190.3270  172.7000  135.9700 O   0  0  0  0  0  0  0  0  0  0  0  0
  189.2680  173.3480  136.2000 C   0  0  0  0  0  0  0  0  0  0  0  0
  190.5940  175.3710  136.9420 C   0  0  1  0  0  3  0  0  0  0  0  0
  190.3170  176.8320  137.3340 C   0  0  1  0  0  3  0  0  0  0  0  0
  189.4840  177.5800  136.2830 C   0  0  0  0  0  2  0  0  0  0  0  0
  188.6160  178.6610  136.9060 C   0  0  0  0  0  2  0  0  0  0  0  0
  187.2530  178.6550  136.2450 C   0  0  0  0  0  2  0  0  0  0  0  0
  186.6430  178.0900  138.5740 C   0  0  0  0  0  1  0  0  0  0  0  0
  186.2790  177.8930  137.1170 C   0  0  0  0  0  2  0  0  0  0  0  0
  189.6510  176.9240  138.7040 C   0  0  0  0  0  2  0  0  0  0  0  0
  190.6470  176.6380  139.8170 C   0  0  0  0  0  2  0  0  0  0  0  0
  191.2870  177.8150  140.2150 O   0  0  0  0  0  0  0  0  0  0  0  0
  191.8770  177.8660  142.5210 C   0  0  0  0  0  1  0  0  0  0  0  0
  192.2480  177.3910  141.1300 C   0  0  0  0  0  2  0  0  0  0  0  0
  191.4050  174.7180  137.9630 N   0  0  0  0  0  2  0  0  0  0  0  0
  192.7570  174.6050  137.4340 C   0  0  0  0  0  2  0  0  0  0  0  0
  194.0430  176.5290  136.8080 O   0  0  0  0  0  1  0  0  0  0  0  0
  193.6130  175.7710  137.9000 C   0  0  0  0  0  3  0  0  0  0  0  0
  194.7200  175.2950  138.6040 O   0  0  0  0  0  1  0  0  0  0  0  0
  1 12  1  6  0  0  0
  1  3  1  0  0  0  0
  2  8  1  0  0  0  0
  3  2  2  0  0  0  0
  4  5  1  0  0  0  0
  6 42  1  1  0  0  0
  6  8  1  0  0  0  0
  7  5  1  6  0  0  0
  7  6  1  0  0  0  0
  9  4  1  0  0  0  0
 10  9  1  1  0  0  0
 10  1  1  0  0  0  0
 10  7  1  0  0  0  0
 12 11  1  0  0  0  0
 13  3  1  0  0  0  0
 14 13  1  0  0  0  0
 15 14  1  0  0  0  0
 15 16  1  0  0  0  0
 16 17  1  0  0  0  0
 17 18  1  0  0  0  0
 18 19  1  0  0  0  0
 19 20  1  0  0  0  0
 21 20  1  6  0  0  0
 21 22  1  0  0  0  0
 21 30  1  0  0  0  0
 23 25  1  0  0  0  0
 26 22  1  6  0  0  0
 26 24  1  0  0  0  0
 26 29  1  0  0  0  0
 27 24  1  6  0  0  0
 27 34  1  0  0  0  0
 27 25  1  0  0  0  0
 29 23  1  0  0  0  0
 30 28  2  0  0  0  0
 30 29  1  0  0  0  0
 31 36  1  0  0  0  0
 32 33  1  0  0  0  0
 34 32  1  6  0  0  0
 34 31  1  0  0  0  0
 35 33  1  6  0  0  0
 35 37  1  0  0  0  0
 36 35  1  0  0  0  0
 37 40  1  1  0  0  0
 37 41  1  0  0  0  0
 37 39  1  0  0  0  0
 41 39  1  0  0  0  0
 41 38  1  0  0  0  0
 43 46  1  0  0  0  0
 43 42  1  0  0  0  0
 45 46  2  0  0  0  0
 46 44  1  0  0  0  0
 47 44  1  1  0  0  0
 47 48  1  0  0  0  0
 47 59  1  0  0  0  0
 48 49  1  6  0  0  0
 48 54  1  0  0  0  0
 49 50  1  0  0  0  0
 51 50  1  0  0  0  0
 51 53  1  0  0  0  0
 53 52  1  0  0  0  0
 54 55  1  0  0  0  0
 55 56  1  0  0  0  0
 56 58  1  0  0  0  0
 58 57  1  0  0  0  0
 60 62  1  0  0  0  0
 60 59  1  0  0  0  0
 61 62  1  0  0  0  0
 62 63  1  0  0  0  0
M  END
>  <MODEL>
3

>  <REMARK>
 VINA RESULT:      -5.1      2.446      9.401
  Name = 
  28 active torsions:
  status: ('A' for Active; 'I' for Inactive)
    1  A    between atoms: C_1  and  C_34
    2  A    between atoms: C_2  and  C_7
    3  A    between atoms: C_2  and  O_25
    4  A    between atoms: C_4  and  C_37
    5  A    between atoms: C_7  and  O_54
    6  A    between atoms: N_9  and  C_38
    7  A    between atoms: C_10  and  O_50
    8  A    between atoms: N_14  and  C_29
    9  A    between atoms: N_14  and  C_57
   10  A    between atoms: N_15  and  C_57
   11  A    between atoms: C_20  and  C_33
   12  A    between atoms: C_20  and  C_55
   13  A    between atoms: C_21  and  C_57
   14  A    between atoms: C_21  and  C_58
   15  A    between atoms: C_21  and  C_62
   16  A    between atoms: C_22  and  C_41
   17  A    between atoms: C_22  and  C_61
   18  A    between atoms: O_25  and  C_26
   19  A    between atoms: C_28  and  C_29
   20  A    between atoms: C_32  and  O_36
   21  A    between atoms: C_32  and  C_62
   22  A    between atoms: C_33  and  C_58
   23  A    between atoms: C_34  and  C_56
   24  A    between atoms: C_35  and  O_54
   25  A    between atoms: C_35  and  C_59
   26  A    between atoms: O_36  and  C_60
   27  A    between atoms: C_44  and  C_61
   28  A    between atoms: C_56  and  C_59
                            x       y       z     vdW  Elec       q    Type
                         _______ _______ _______ _____ _____    ______ ____

>  <TORSDO>
F 28

$$$$
=
 OpenBabel10222420303D

 63 68  0  0  1  0  0  0  0  0999 V2000
  182.2120  173.8360  135.9150 C   0  0  2  0  0  3  0  0  0  0  0  0
  183.5550  175.6500  136.9830 C   0  0  0  0  0  3  0  0  0  0  0  0
  182.5460  175.2890  136.1700 C   0  0  0  0  0  0  0  0  0  0  0  0
  184.3020  171.0040  134.7870 C   0  0  0  0  0  2  0  0  0  0  0  0
  185.1650  171.6580  135.6870 O   0  0  0  0  0  0  0  0  0  0  0  0
  185.2620  173.8330  136.7730 C   0  0  1  0  0  3  0  0  0  0  0  0
  184.3980  172.6700  136.2880 C   0  0  1  0  0  3  0  0  0  0  0  0
  184.4470  174.7010  137.7240 C   0  0  0  0  0  2  0  0  0  0  0  0
  183.0500  171.8360  134.5950 C   0  0  0  0  0  2  0  0  0  0  0  0
  183.4020  173.1320  135.2560 C   0  0  1  0  0  3  0  0  0  0  0  0
  180.2510  172.8190  135.7320 C   0  0  0  0  0  1  0  0  0  0  0  0
  181.0810  173.7440  135.0950 O   0  0  0  0  0  0  0  0  0  0  0  0
  181.7710  176.2700  135.5370 O   0  0  0  0  0  0  0  0  0  0  0  0
  182.0660  177.6610  135.6120 C   0  0  0  0  0  2  0  0  0  0  0  0
  181.0400  178.4450  134.8110 C   0  0  0  0  0  2  0  0  0  0  0  0
  180.1100  179.0360  135.6670 O   0  0  0  0  0  0  0  0  0  0  0  0
  180.7380  179.0480  136.9100 C   0  0  0  0  0  2  0  0  0  0  0  0
  179.7600  179.4950  137.9840 C   0  0  0  0  0  2  0  0  0  0  0  0
  180.3350  180.6940  138.7160 C   0  0  0  0  0  2  0  0  0  0  0  0
  181.7980  180.4590  139.0520 C   0  0  0  0  0  2  0  0  0  0  0  0
  181.9670  179.0760  139.6600 C   0  0  1  0  0  3  0  0  0  0  0  0
  183.4030  178.5740  139.4570 C   0  0  0  0  0  2  0  0  0  0  0  0
  183.1990  178.6570  143.2360 C   0  0  0  0  0  2  0  0  0  0  0  0
  185.2670  178.8960  141.1290 C   0  0  0  0  0  2  0  0  0  0  0  0
  184.6110  178.1710  143.5500 C   0  0  0  0  0  2  0  0  0  0  0  0
  183.9540  178.1720  140.8340 C   0  0  1  0  0  3  0  0  0  0  0  0
  185.6450  178.8620  142.6400 C   0  0  1  0  0  3  0  0  0  0  0  0
  180.8010  179.5230  141.7340 O   0  0  0  0  0  0  0  0  0  0  0  0
  182.9500  178.5780  141.8000 N   0  0  0  0  0  0  0  0  0  0  0  0
  181.8320  179.1210  141.1320 C   0  0  0  0  0  0  0  0  0  0  0  0
  186.9180  177.1240  143.7520 C   0  0  0  0  0  2  0  0  0  0  0  0
  187.6230  178.0050  141.6130 C   0  0  0  0  0  2  0  0  0  0  0  0
  189.1180  177.7170  141.8200 C   0  0  0  0  0  2  0  0  0  0  0  0
  186.9890  178.3250  142.8930 N   0  0  1  0  0  0  0  0  0  0  0  0
  189.4110  177.0180  143.1590 C   0  0  2  0  0  3  0  0  0  0  0  0
  188.1890  176.2580  143.6920 C   0  0  0  0  0  2  0  0  0  0  0  0
  190.0020  177.9810  144.1920 C   0  0  2  0  0  0  0  0  0  0  0  0
  191.1460  179.9950  144.2570 O   0  0  0  0  0  1  0  0  0  0  0  0
  191.3630  177.7720  144.6800 C   0  0  0  0  0  2  0  0  0  0  0  0
  189.1460  178.6750  145.0650 O   0  0  0  0  0  1  0  0  0  0  0  0
  191.1130  178.7920  143.6340 N   0  0  0  0  0  0  0  0  0  0  0  0
  186.4910  173.3330  137.5070 C   0  0  0  0  0  2  0  0  0  0  0  0
  187.2500  172.3750  136.6110 C   0  0  0  0  0  2  0  0  0  0  0  0
  189.1080  174.0580  136.8450 N   0  0  0  0  0  2  0  0  0  0  0  0
  189.5510  171.8600  136.1910 O   0  0  0  0  0  0  0  0  0  0  0  0
  188.7010  172.7170  136.5640 C   0  0  0  0  0  0  0  0  0  0  0  0
  190.4400  174.5550  136.5090 C   0  0  1  0  0  3  0  0  0  0  0  0
  190.3320  175.9390  135.8500 C   0  0  1  0  0  3  0  0  0  0  0  0
  191.2230  176.0760  134.6070 C   0  0  0  0  0  2  0  0  0  0  0  0
  192.6850  176.2760  134.9710 C   0  0  0  0  0  2  0  0  0  0  0  0
  193.3920  174.9350  134.9700 C   0  0  0  0  0  2  0  0  0  0  0  0
  194.7070  174.2180  136.9380 C   0  0  0  0  0  1  0  0  0  0  0  0
  194.7180  175.0710  135.6860 C   0  0  0  0  0  2  0  0  0  0  0  0
  188.8850  176.2820  135.5060 C   0  0  0  0  0  2  0  0  0  0  0  0
  188.3500  177.3760  136.4170 C   0  0  0  0  0  2  0  0  0  0  0  0
  187.2150  177.9670  135.8570 O   0  0  0  0  0  0  0  0  0  0  0  0
  187.1670  178.1150  138.2320 C   0  0  0  0  0  1  0  0  0  0  0  0
  186.3720  178.1920  136.9440 C   0  0  0  0  0  2  0  0  0  0  0  0
  191.2470  174.6310  137.7200 N   0  0  0  0  0  2  0  0  0  0  0  0
  190.9840  175.9250  138.3350 C   0  0  0  0  0  2  0  0  0  0  0  0
  191.7700  177.3880  140.0650 O   0  0  0  0  0  1  0  0  0  0  0  0
  192.1490  176.3450  139.2170 C   0  0  0  0  0  3  0  0  0  0  0  0
  193.2210  176.7540  138.4230 O   0  0  0  0  0  1  0  0  0  0  0  0
  1 12  1  6  0  0  0
  1  3  1  0  0  0  0
  2  8  1  0  0  0  0
  3  2  2  0  0  0  0
  4  5  1  0  0  0  0
  6 42  1  1  0  0  0
  6  8  1  0  0  0  0
  7  5  1  6  0  0  0
  7  6  1  0  0  0  0
  9  4  1  0  0  0  0
 10  9  1  1  0  0  0
 10  1  1  0  0  0  0
 10  7  1  0  0  0  0
 12 11  1  0  0  0  0
 13 14  1  0  0  0  0
 13  3  1  0  0  0  0
 15 14  1  0  0  0  0
 15 16  1  0  0  0  0
 16 17  1  0  0  0  0
 17 18  1  0  0  0  0
 18 19  1  0  0  0  0
 19 20  1  0  0  0  0
 21 20  1  1  0  0  0
 21 30  1  0  0  0  0
 22 21  1  0  0  0  0
 23 25  1  0  0  0  0
 26 22  1  6  0  0  0
 26 24  1  0  0  0  0
 26 29  1  0  0  0  0
 27 24  1  6  0  0  0
 27 34  1  0  0  0  0
 27 25  1  0  0  0  0
 29 23  1  0  0  0  0
 30 28  2  0  0  0  0
 30 29  1  0  0  0  0
 32 33  1  0  0  0  0
 34 32  1  6  0  0  0
 34 31  1  0  0  0  0
 35 33  1  6  0  0  0
 35 36  1  0  0  0  0
 35 37  1  0  0  0  0
 36 31  1  0  0  0  0
 37 39  1  0  0  0  0
 37 40  1  1  0  0  0
 41 37  1  0  0  0  0
 41 38  1  0  0  0  0
 41 39  1  0  0  0  0
 43 42  1  0  0  0  0
 45 46  2  0  0  0  0
 46 43  1  0  0  0  0
 46 44  1  0  0  0  0
 47 44  1  1  0  0  0
 47 59  1  0  0  0  0
 48 49  1  6  0  0  0
 48 47  1  0  0  0  0
 49 50  1  0  0  0  0
 51 50  1  0  0  0  0
 51 53  1  0  0  0  0
 53 52  1  0  0  0  0
 54 48  1  0  0  0  0
 54 55  1  0  0  0  0
 56 55  1  0  0  0  0
 56 58  1  0  0  0  0
 58 57  1  0  0  0  0
 59 60  1  0  0  0  0
 60 62  1  0  0  0  0
 62 61  1  0  0  0  0
 63 62  1  0  0  0  0
M  END
>  <MODEL>
4

>  <REMARK>
 VINA RESULT:      -4.7      2.571      9.663
  Name = 
  28 active torsions:
  status: ('A' for Active; 'I' for Inactive)
    1  A    between atoms: C_1  and  C_34
    2  A    between atoms: C_2  and  C_7
    3  A    between atoms: C_2  and  O_25
    4  A    between atoms: C_4  and  C_37
    5  A    between atoms: C_7  and  O_54
    6  A    between atoms: N_9  and  C_38
    7  A    between atoms: C_10  and  O_50
    8  A    between atoms: N_14  and  C_29
    9  A    between atoms: N_14  and  C_57
   10  A    between atoms: N_15  and  C_57
   11  A    between atoms: C_20  and  C_33
   12  A    between atoms: C_20  and  C_55
   13  A    between atoms: C_21  and  C_57
   14  A    between atoms: C_21  and  C_58
   15  A    between atoms: C_21  and  C_62
   16  A    between atoms: C_22  and  C_41
   17  A    between atoms: C_22  and  C_61
   18  A    between atoms: O_25  and  C_26
   19  A    between atoms: C_28  and  C_29
   20  A    between atoms: C_32  and  O_36
   21  A    between atoms: C_32  and  C_62
   22  A    between atoms: C_33  and  C_58
   23  A    between atoms: C_34  and  C_56
   24  A    between atoms: C_35  and  O_54
   25  A    between atoms: C_35  and  C_59
   26  A    between atoms: O_36  and  C_60
   27  A    between atoms: C_44  and  C_61
   28  A    between atoms: C_56  and  C_59
                            x       y       z     vdW  Elec       q    Type
                         _______ _______ _______ _____ _____    ______ ____

>  <TORSDO>
F 28

$$$$
=
 OpenBabel10222420303D

 63 68  0  0  1  0  0  0  0  0999 V2000
  182.4010  173.3440  135.9010 C   0  0  2  0  0  3  0  0  0  0  0  0
  183.9680  175.1210  136.6880 C   0  0  0  0  0  3  0  0  0  0  0  0
  182.8510  174.7830  136.0190 C   0  0  0  0  0  0  0  0  0  0  0  0
  184.1650  170.3120  134.7390 C   0  0  0  0  0  2  0  0  0  0  0  0
  185.1670  170.9570  135.4910 O   0  0  0  0  0  0  0  0  0  0  0  0
  185.5230  173.1810  136.4100 C   0  0  1  0  0  3  0  0  0  0  0  0
  184.5380  172.0530  136.1040 C   0  0  1  0  0  3  0  0  0  0  0  0
  184.8800  174.1590  137.3860 C   0  0  0  0  0  2  0  0  0  0  0  0
  182.9540  171.2160  134.6330 C   0  0  0  0  0  2  0  0  0  0  0  0
  183.4600  172.5210  135.1620 C   0  0  1  0  0  3  0  0  0  0  0  0
  180.2400  172.9450  136.2000 C   0  0  0  0  0  1  0  0  0  0  0  0
  181.1780  173.2810  135.2220 O   0  0  0  0  0  0  0  0  0  0  0  0
  182.0700  175.7750  135.4120 O   0  0  0  0  0  0  0  0  0  0  0  0
  182.3780  177.1630  135.4920 C   0  0  0  0  0  2  0  0  0  0  0  0
  181.4190  177.9510  134.6160 C   0  0  0  0  0  2  0  0  0  0  0  0
  180.5520  178.7040  135.4080 O   0  0  0  0  0  0  0  0  0  0  0  0
  181.1870  178.7820  136.6440 C   0  0  0  0  0  2  0  0  0  0  0  0
  180.2210  179.3000  137.6970 C   0  0  0  0  0  2  0  0  0  0  0  0
  180.7540  180.5990  138.2700 C   0  0  0  0  0  2  0  0  0  0  0  0
  182.0870  180.3680  138.9600 C   0  0  0  0  0  2  0  0  0  0  0  0
  182.0380  179.0660  139.7430 C   0  0  1  0  0  3  0  0  0  0  0  0
  183.4260  178.4150  139.7870 C   0  0  0  0  0  2  0  0  0  0  0  0
  182.7970  179.0070  143.4730 C   0  0  0  0  0  2  0  0  0  0  0  0
  185.1090  178.7820  141.6340 C   0  0  0  0  0  2  0  0  0  0  0  0
  184.1040  178.4400  144.0200 C   0  0  0  0  0  2  0  0  0  0  0  0
  183.7690  178.1470  141.2610 C   0  0  1  0  0  3  0  0  0  0  0  0
  185.3030  178.9110  143.1740 C   0  0  1  0  0  3  0  0  0  0  0  0
  180.6940  179.8830  141.5840 O   0  0  0  0  0  0  0  0  0  0  0  0
  182.7090  178.7640  142.0360 N   0  0  0  0  0  0  0  0  0  0  0  0
  181.7390  179.3140  141.1700 C   0  0  0  0  0  0  0  0  0  0  0  0
  186.5510  178.2220  145.1350 C   0  0  0  0  0  2  0  0  0  0  0  0
  186.6660  176.9530  143.0800 C   0  0  0  0  0  2  0  0  0  0  0  0
  188.0750  176.3940  143.3300 C   0  0  0  0  0  2  0  0  0  0  0  0
  186.5440  178.2920  143.6590 N   0  0  1  0  0  0  0  0  0  0  0  0
  188.6610  176.8380  144.6810 C   0  0  2  0  0  3  0  0  0  0  0  0
  187.5670  177.2080  145.6920 C   0  0  0  0  0  2  0  0  0  0  0  0
  189.7100  177.9410  144.5190 C   0  0  2  0  0  0  0  0  0  0  0  0
  192.0040  178.2190  144.6990 O   0  0  0  0  0  1  0  0  0  0  0  0
  190.0250  178.8120  145.6490 C   0  0  0  0  0  2  0  0  0  0  0  0
  189.9510  178.4890  143.2470 O   0  0  0  0  0  1  0  0  0  0  0  0
  190.9290  177.6820  145.3260 N   0  0  0  0  0  0  0  0  0  0  0  0
  186.7960  172.6420  137.0330 C   0  0  0  0  0  2  0  0  0  0  0  0
  187.5890  171.8960  135.9790 C   0  0  0  0  0  2  0  0  0  0  0  0
  189.3740  173.6060  136.4600 N   0  0  0  0  0  2  0  0  0  0  0  0
  189.9150  171.5280  135.5410 O   0  0  0  0  0  0  0  0  0  0  0  0
  189.0260  172.2970  136.0030 C   0  0  0  0  0  0  0  0  0  0  0  0
  190.6900  174.1920  136.2150 C   0  0  1  0  0  3  0  0  0  0  0  0
  190.9260  175.3690  137.1750 C   0  0  1  0  0  3  0  0  0  0  0  0
  192.3200  175.9930  137.0160 C   0  0  0  0  0  2  0  0  0  0  0  0
  193.2610  175.5840  138.1370 C   0  0  0  0  0  2  0  0  0  0  0  0
  194.5180  174.9810  137.5440 C   0  0  0  0  0  2  0  0  0  0  0  0
  195.5750  172.9140  138.3950 C   0  0  0  0  0  1  0  0  0  0  0  0
  195.3590  174.3900  138.6540 C   0  0  0  0  0  2  0  0  0  0  0  0
  189.8460  176.4370  137.0230 C   0  0  0  0  0  2  0  0  0  0  0  0
  189.1460  176.3190  135.6780 C   0  0  0  0  0  2  0  0  0  0  0  0
  187.9070  176.9640  135.7130 O   0  0  0  0  0  0  0  0  0  0  0  0
  186.7180  178.1320  137.4130 C   0  0  0  0  0  1  0  0  0  0  0  0
  187.5250  176.9010  137.0520 C   0  0  0  0  0  2  0  0  0  0  0  0
  191.7150  173.1720  136.4020 N   0  0  0  0  0  2  0  0  0  0  0  0
  192.5080  173.1280  135.1800 C   0  0  0  0  0  2  0  0  0  0  0  0
  194.7440  172.4900  134.5960 O   0  0  0  0  0  1  0  0  0  0  0  0
  193.6050  172.0820  135.2930 C   0  0  0  0  0  3  0  0  0  0  0  0
  193.1530  170.8650  134.7790 O   0  0  0  0  0  1  0  0  0  0  0  0
  1 12  1  6  0  0  0
  1  3  1  0  0  0  0
  2  8  1  0  0  0  0
  3  2  2  0  0  0  0
  4  5  1  0  0  0  0
  6 42  1  1  0  0  0
  6  8  1  0  0  0  0
  7  5  1  6  0  0  0
  7  6  1  0  0  0  0
  9  4  1  0  0  0  0
 10  9  1  1  0  0  0
 10  1  1  0  0  0  0
 10  7  1  0  0  0  0
 12 11  1  0  0  0  0
 13 14  1  0  0  0  0
 13  3  1  0  0  0  0
 15 16  1  0  0  0  0
 15 14  1  0  0  0  0
 16 17  1  0  0  0  0
 17 18  1  0  0  0  0
 18 19  1  0  0  0  0
 19 20  1  0  0  0  0
 21 20  1  6  0  0  0
 21 22  1  0  0  0  0
 21 30  1  0  0  0  0
 23 25  1  0  0  0  0
 26 22  1  6  0  0  0
 26 24  1  0  0  0  0
 26 29  1  0  0  0  0
 27 24  1  6  0  0  0
 27 34  1  0  0  0  0
 27 25  1  0  0  0  0
 29 23  1  0  0  0  0
 30 28  2  0  0  0  0
 30 29  1  0  0  0  0
 31 36  1  0  0  0  0
 32 33  1  0  0  0  0
 34 32  1  6  0  0  0
 34 31  1  0  0  0  0
 35 33  1  6  0  0  0
 35 36  1  0  0  0  0
 37 40  1  6  0  0  0
 37 35  1  0  0  0  0
 37 41  1  0  0  0  0
 37 39  1  0  0  0  0
 38 41  1  0  0  0  0
 41 39  1  0  0  0  0
 43 46  1  0  0  0  0
 43 42  1  0  0  0  0
 45 46  2  0  0  0  0
 46 44  1  0  0  0  0
 47 59  1  1  0  0  0
 47 44  1  0  0  0  0
 47 48  1  0  0  0  0
 48 49  1  6  0  0  0
 49 50  1  0  0  0  0
 51 50  1  0  0  0  0
 51 53  1  0  0  0  0
 52 53  1  0  0  0  0
 54 48  1  0  0  0  0
 55 56  1  0  0  0  0
 55 54  1  0  0  0  0
 56 58  1  0  0  0  0
 58 57  1  0  0  0  0
 60 62  1  0  0  0  0
 60 59  1  0  0  0  0
 61 62  1  0  0  0  0
 63 62  1  0  0  0  0
M  END
>  <MODEL>
5

>  <REMARK>
 VINA RESULT:      -4.3      2.749     10.224
  Name = 
  28 active torsions:
  status: ('A' for Active; 'I' for Inactive)
    1  A    between atoms: C_1  and  C_34
    2  A    between atoms: C_2  and  C_7
    3  A    between atoms: C_2  and  O_25
    4  A    between atoms: C_4  and  C_37
    5  A    between atoms: C_7  and  O_54
    6  A    between atoms: N_9  and  C_38
    7  A    between atoms: C_10  and  O_50
    8  A    between atoms: N_14  and  C_29
    9  A    between atoms: N_14  and  C_57
   10  A    between atoms: N_15  and  C_57
   11  A    between atoms: C_20  and  C_33
   12  A    between atoms: C_20  and  C_55
   13  A    between atoms: C_21  and  C_57
   14  A    between atoms: C_21  and  C_58
   15  A    between atoms: C_21  and  C_62
   16  A    between atoms: C_22  and  C_41
   17  A    between atoms: C_22  and  C_61
   18  A    between atoms: O_25  and  C_26
   19  A    between atoms: C_28  and  C_29
   20  A    between atoms: C_32  and  O_36
   21  A    between atoms: C_32  and  C_62
   22  A    between atoms: C_33  and  C_58
   23  A    between atoms: C_34  and  C_56
   24  A    between atoms: C_35  and  O_54
   25  A    between atoms: C_35  and  C_59
   26  A    between atoms: O_36  and  C_60
   27  A    between atoms: C_44  and  C_61
   28  A    between atoms: C_56  and  C_59
                            x       y       z     vdW  Elec       q    Type
                         _______ _______ _______ _____ _____    ______ ____

>  <TORSDO>
F 28

$$$$
=
 OpenBabel10222420303D

 63 68  0  0  1  0  0  0  0  0999 V2000
  189.0500  177.3280  146.3970 C   0  0  2  0  0  3  0  0  0  0  0  0
  187.9640  176.9330  144.1830 C   0  0  0  0  0  3  0  0  0  0  0  0
  189.0890  177.0990  144.9020 C   0  0  0  0  0  0  0  0  0  0  0  0
  187.2230  179.7960  148.4520 C   0  0  0  0  0  2  0  0  0  0  0  0
  186.2490  179.4380  147.5000 O   0  0  0  0  0  0  0  0  0  0  0  0
  186.2200  178.2950  145.3530 C   0  0  1  0  0  3  0  0  0  0  0  0
  186.8070  178.3820  146.7610 C   0  0  1  0  0  3  0  0  0  0  0  0
  186.5740  176.9440  144.7430 C   0  0  0  0  0  2  0  0  0  0  0  0
  188.5450  179.1520  148.0880 C   0  0  0  0  0  2  0  0  0  0  0  0
  188.2940  178.6210  146.7110 C   0  0  1  0  0  3  0  0  0  0  0  0
  190.5600  176.1640  147.5300 C   0  0  0  0  0  1  0  0  0  0  0  0
  190.3540  177.3940  146.9030 O   0  0  0  0  0  0  0  0  0  0  0  0
  190.3380  177.0600  144.2680 O   0  0  0  0  0  0  0  0  0  0  0  0
  190.4950  177.1580  142.8560 C   0  0  0  0  0  2  0  0  0  0  0  0
  190.3700  175.7790  142.2310 C   0  0  0  0  0  2  0  0  0  0  0  0
  190.1420  175.8920  140.8590 O   0  0  0  0  0  0  0  0  0  0  0  0
  190.3890  177.2320  140.5730 C   0  0  0  0  0  2  0  0  0  0  0  0
  191.1090  177.3580  139.2400 C   0  0  0  0  0  2  0  0  0  0  0  0
  190.5630  176.3210  138.2770 C   0  0  0  0  0  2  0  0  0  0  0  0
  191.6550  175.3440  137.8740 C   0  0  0  0  0  2  0  0  0  0  0  0
  191.2670  174.6510  136.5780 C   0  0  1  0  0  3  0  0  0  0  0  0
  190.3380  173.4630  136.8630 C   0  0  0  0  0  2  0  0  0  0  0  0
  188.0920  175.6290  134.7210 C   0  0  0  0  0  2  0  0  0  0  0  0
  187.8170  173.6000  136.8620 C   0  0  0  0  0  2  0  0  0  0  0  0
  186.8530  174.7380  134.7180 C   0  0  0  0  0  2  0  0  0  0  0  0
  189.0790  173.6380  136.0000 C   0  0  1  0  0  3  0  0  0  0  0  0
  186.5730  174.1840  136.1280 C   0  0  1  0  0  3  0  0  0  0  0  0
  190.8070  176.6550  135.3010 O   0  0  0  0  0  0  0  0  0  0  0  0
  189.2000  174.9430  135.3780 N   0  0  0  0  0  0  0  0  0  0  0  0
  190.4330  175.5320  135.7320 C   0  0  0  0  0  0  0  0  0  0  0  0
  185.3500  172.5720  134.7920 C   0  0  0  0  0  2  0  0  0  0  0  0
  185.5690  172.2910  137.1830 C   0  0  0  0  0  2  0  0  0  0  0  0
  184.2630  171.5010  137.3590 C   0  0  0  0  0  2  0  0  0  0  0  0
  185.4290  173.2610  136.0960 N   0  0  1  0  0  0  0  0  0  0  0  0
  183.5340  171.2490  136.0280 C   0  0  2  0  0  3  0  0  0  0  0  0
  184.4910  171.2950  134.8290 C   0  0  0  0  0  2  0  0  0  0  0  0
  182.3250  172.1710  135.8520 C   0  0  2  0  0  0  0  0  0  0  0  0
  180.1800  172.0990  134.9750 O   0  0  0  0  0  1  0  0  0  0  0  0
  182.2340  173.0270  134.6710 C   0  0  0  0  0  2  0  0  0  0  0  0
  181.6250  172.6240  136.9830 O   0  0  0  0  0  1  0  0  0  0  0  0
  181.4660  171.7600  134.7130 N   0  0  0  0  0  0  0  0  0  0  0  0
  184.7110  178.4340  145.3790 C   0  0  0  0  0  2  0  0  0  0  0  0
  184.2910  179.4820  144.3670 C   0  0  0  0  0  2  0  0  0  0  0  0
  183.1100  178.9000  142.2200 N   0  0  0  0  0  2  0  0  0  0  0  0
  185.3760  178.4190  142.5150 O   0  0  0  0  0  0  0  0  0  0  0  0
  184.3200  178.9320  142.9800 C   0  0  0  0  0  0  0  0  0  0  0  0
  182.9740  178.0980  141.0070 C   0  0  1  0  0  3  0  0  0  0  0  0
  181.5000  178.0510  140.5720 C   0  0  1  0  0  3  0  0  0  0  0  0
  181.1060  176.7010  139.9550 C   0  0  0  0  0  2  0  0  0  0  0  0
  179.6180  176.4240  140.0890 C   0  0  0  0  0  2  0  0  0  0  0  0
  179.3680  175.6190  141.3490 C   0  0  0  0  0  2  0  0  0  0  0  0
  179.1460  173.2710  142.0950 C   0  0  0  0  0  1  0  0  0  0  0  0
  179.8640  174.2040  141.1410 C   0  0  0  0  0  2  0  0  0  0  0  0
  180.5660  178.3980  141.7290 C   0  0  0  0  0  2  0  0  0  0  0  0
  180.0800  179.8360  141.6270 C   0  0  0  0  0  2  0  0  0  0  0  0
  179.5170  180.0740  140.3710 O   0  0  0  0  0  0  0  0  0  0  0  0
  180.9650  181.5950  139.2520 C   0  0  0  0  0  1  0  0  0  0  0  0
  179.7490  181.4280  140.1410 C   0  0  0  0  0  2  0  0  0  0  0  0
  183.7950  178.6750  139.9500 N   0  0  0  0  0  2  0  0  0  0  0  0
  184.7290  177.6450  139.5160 C   0  0  0  0  0  2  0  0  0  0  0  0
  186.2540  177.4750  137.6740 O   0  0  0  0  0  1  0  0  0  0  0  0
  185.9000  178.2640  138.7700 C   0  0  0  0  0  3  0  0  0  0  0  0
  186.9930  178.3920  139.6270 O   0  0  0  0  0  1  0  0  0  0  0  0
  1 10  1  0  0  0  0
  1 12  1  6  0  0  0
  2  8  1  0  0  0  0
  2  3  2  0  0  0  0
  3  1  1  0  0  0  0
  5  4  1  0  0  0  0
  6 42  1  1  0  0  0
  6  7  1  0  0  0  0
  7  5  1  1  0  0  0
  8  6  1  0  0  0  0
  9  4  1  0  0  0  0
 10  7  1  0  0  0  0
 10  9  1  1  0  0  0
 12 11  1  0  0  0  0
 13  3  1  0  0  0  0
 14 13  1  0  0  0  0
 15 14  1  0  0  0  0
 16 15  1  0  0  0  0
 17 16  1  0  0  0  0
 18 17  1  0  0  0  0
 19 18  1  0  0  0  0
 20 19  1  0  0  0  0
 21 22  1  0  0  0  0
 21 20  1  1  0  0  0
 23 29  1  0  0  0  0
 25 23  1  0  0  0  0
 26 24  1  1  0  0  0
 26 22  1  0  0  0  0
 27 25  1  6  0  0  0
 27 24  1  0  0  0  0
 28 30  2  0  0  0  0
 29 30  1  0  0  0  0
 29 26  1  0  0  0  0
 30 21  1  0  0  0  0
 31 36  1  0  0  0  0
 32 33  1  0  0  0  0
 34 31  1  6  0  0  0
 34 27  1  0  0  0  0
 34 32  1  0  0  0  0
 35 36  1  6  0  0  0
 35 33  1  0  0  0  0
 37 35  1  0  0  0  0
 37 40  1  1  0  0  0
 39 41  1  0  0  0  0
 39 37  1  0  0  0  0
 41 38  1  0  0  0  0
 41 37  1  0  0  0  0
 43 42  1  0  0  0  0
 44 46  1  0  0  0  0
 45 46  2  0  0  0  0
 46 43  1  0  0  0  0
 47 59  1  6  0  0  0
 47 44  1  0  0  0  0
 48 49  1  1  0  0  0
 48 47  1  0  0  0  0
 48 54  1  0  0  0  0
 49 50  1  0  0  0  0
 50 51  1  0  0  0  0
 53 51  1  0  0  0  0
 53 52  1  0  0  0  0
 55 54  1  0  0  0  0
 56 55  1  0  0  0  0
 57 58  1  0  0  0  0
 58 56  1  0  0  0  0
 60 59  1  0  0  0  0
 61 62  1  0  0  0  0
 62 60  1  0  0  0  0
 62 63  1  0  0  0  0
M  END
>  <MODEL>
6

>  <REMARK>
 VINA RESULT:      -3.9      2.647      8.162
  Name = 
  28 active torsions:
  status: ('A' for Active; 'I' for Inactive)
    1  A    between atoms: C_1  and  C_34
    2  A    between atoms: C_2  and  C_7
    3  A    between atoms: C_2  and  O_25
    4  A    between atoms: C_4  and  C_37
    5  A    between atoms: C_7  and  O_54
    6  A    between atoms: N_9  and  C_38
    7  A    between atoms: C_10  and  O_50
    8  A    between atoms: N_14  and  C_29
    9  A    between atoms: N_14  and  C_57
   10  A    between atoms: N_15  and  C_57
   11  A    between atoms: C_20  and  C_33
   12  A    between atoms: C_20  and  C_55
   13  A    between atoms: C_21  and  C_57
   14  A    between atoms: C_21  and  C_58
   15  A    between atoms: C_21  and  C_62
   16  A    between atoms: C_22  and  C_41
   17  A    between atoms: C_22  and  C_61
   18  A    between atoms: O_25  and  C_26
   19  A    between atoms: C_28  and  C_29
   20  A    between atoms: C_32  and  O_36
   21  A    between atoms: C_32  and  C_62
   22  A    between atoms: C_33  and  C_58
   23  A    between atoms: C_34  and  C_56
   24  A    between atoms: C_35  and  O_54
   25  A    between atoms: C_35  and  C_59
   26  A    between atoms: O_36  and  C_60
   27  A    between atoms: C_44  and  C_61
   28  A    between atoms: C_56  and  C_59
                            x       y       z     vdW  Elec       q    Type
                         _______ _______ _______ _____ _____    ______ ____

>  <TORSDO>
F 28

$$$$
=
 OpenBabel10222420303D

 63 68  0  0  1  0  0  0  0  0999 V2000
  189.0500  177.3280  146.3970 C   0  0  2  0  0  3  0  0  0  0  0  0
  187.9640  176.9330  144.1830 C   0  0  0  0  0  3  0  0  0  0  0  0
  189.0890  177.0990  144.9020 C   0  0  0  0  0  0  0  0  0  0  0  0
  187.2230  179.7960  148.4520 C   0  0  0  0  0  2  0  0  0  0  0  0
  186.2490  179.4380  147.5000 O   0  0  0  0  0  0  0  0  0  0  0  0
  186.2200  178.2950  145.3530 C   0  0  1  0  0  3  0  0  0  0  0  0
  186.8070  178.3820  146.7610 C   0  0  1  0  0  3  0  0  0  0  0  0
  186.5740  176.9440  144.7430 C   0  0  0  0  0  2  0  0  0  0  0  0
  188.5450  179.1520  148.0880 C   0  0  0  0  0  2  0  0  0  0  0  0
  188.2940  178.6210  146.7110 C   0  0  1  0  0  3  0  0  0  0  0  0
  190.6850  176.0750  147.2180 C   0  0  0  0  0  1  0  0  0  0  0  0
  190.3540  177.3940  146.9030 O   0  0  0  0  0  0  0  0  0  0  0  0
  190.3380  177.0600  144.2680 O   0  0  0  0  0  0  0  0  0  0  0  0
  190.4950  177.1580  142.8560 C   0  0  0  0  0  2  0  0  0  0  0  0
  190.3700  175.7790  142.2310 C   0  0  0  0  0  2  0  0  0  0  0  0
  190.1000  175.8930  140.8670 O   0  0  0  0  0  0  0  0  0  0  0  0
  190.3220  177.2360  140.5770 C   0  0  0  0  0  2  0  0  0  0  0  0
  191.0010  177.3750  139.2250 C   0  0  0  0  0  2  0  0  0  0  0  0
  190.4000  176.3710  138.2580 C   0  0  0  0  0  2  0  0  0  0  0  0
  191.4550  175.3790  137.8000 C   0  0  0  0  0  2  0  0  0  0  0  0
  191.0100  174.7230  136.5030 C   0  0  1  0  0  3  0  0  0  0  0  0
  190.0800  173.5380  136.7940 C   0  0  0  0  0  2  0  0  0  0  0  0
  187.7750  175.7790  134.7960 C   0  0  0  0  0  2  0  0  0  0  0  0
  187.5620  173.6990  136.8950 C   0  0  0  0  0  2  0  0  0  0  0  0
  186.5280  174.9010  134.8200 C   0  0  0  0  0  2  0  0  0  0  0  0
  188.7910  173.7470  135.9850 C   0  0  1  0  0  3  0  0  0  0  0  0
  186.2970  174.3140  136.2260 C   0  0  1  0  0  3  0  0  0  0  0  0
  190.5220  176.7640  135.2950 O   0  0  0  0  0  0  0  0  0  0  0  0
  188.9020  175.0660  135.3920 N   0  0  0  0  0  0  0  0  0  0  0  0
  190.1540  175.6340  135.7120 C   0  0  0  0  0  0  0  0  0  0  0  0
  185.2330  172.4590  135.0830 C   0  0  0  0  0  2  0  0  0  0  0  0
  185.0950  172.6810  137.4870 C   0  0  0  0  0  2  0  0  0  0  0  0
  183.7550  171.9430  137.6270 C   0  0  0  0  0  2  0  0  0  0  0  0
  185.1430  173.4040  136.2150 N   0  0  1  0  0  0  0  0  0  0  0  0
  183.2190  171.4200  136.2840 C   0  0  2  0  0  3  0  0  0  0  0  0
  184.3390  171.2160  135.2550 C   0  0  0  0  0  2  0  0  0  0  0  0
  182.0760  172.2840  135.7440 C   0  0  2  0  0  0  0  0  0  0  0  0
  180.0950  173.2320  136.4870 O   0  0  0  0  0  1  0  0  0  0  0  0
  180.9350  171.6480  135.0890 C   0  0  0  0  0  2  0  0  0  0  0  0
  182.3290  173.6130  135.3640 O   0  0  0  0  0  1  0  0  0  0  0  0
  180.8140  172.0830  136.5010 N   0  0  0  0  0  0  0  0  0  0  0  0
  184.7110  178.4340  145.3790 C   0  0  0  0  0  2  0  0  0  0  0  0
  184.3010  179.5750  144.4680 C   0  0  0  0  0  2  0  0  0  0  0  0
  183.7140  179.1030  142.0650 N   0  0  0  0  0  2  0  0  0  0  0  0
  185.9410  179.1940  142.7640 O   0  0  0  0  0  0  0  0  0  0  0  0
  184.7190  179.3160  143.0590 C   0  0  0  0  0  0  0  0  0  0  0  0
  184.0220  178.5290  140.7580 C   0  0  1  0  0  3  0  0  0  0  0  0
  182.7690  178.5510  139.8670 C   0  0  1  0  0  3  0  0  0  0  0  0
  182.5620  177.2360  139.1010 C   0  0  0  0  0  2  0  0  0  0  0  0
  182.6610  177.4300  137.5970 C   0  0  0  0  0  2  0  0  0  0  0  0
  181.5430  176.6660  136.9170 C   0  0  0  0  0  2  0  0  0  0  0  0
  182.2980  177.5220  134.7230 C   0  0  0  0  0  1  0  0  0  0  0  0
  181.1200  177.4090  135.6690 C   0  0  0  0  0  2  0  0  0  0  0  0
  181.5190  178.8970  140.6730 C   0  0  0  0  0  2  0  0  0  0  0  0
  180.3200  178.0910  140.1960 C   0  0  0  0  0  2  0  0  0  0  0  0
  179.3440  178.0300  141.1940 O   0  0  0  0  0  0  0  0  0  0  0  0
  180.4120  177.7120  143.2980 C   0  0  0  0  0  1  0  0  0  0  0  0
  179.9100  178.7080  142.2710 C   0  0  0  0  0  2  0  0  0  0  0  0
  185.0980  179.2910  140.1360 N   0  0  0  0  0  2  0  0  0  0  0  0
  186.1340  178.3430  139.7520 C   0  0  0  0  0  2  0  0  0  0  0  0
  187.6900  178.1290  137.9410 O   0  0  0  0  0  1  0  0  0  0  0  0
  186.3480  178.3640  138.2470 C   0  0  0  0  0  3  0  0  0  0  0  0
  185.9590  179.6010  137.7320 O   0  0  0  0  0  1  0  0  0  0  0  0
  1 10  1  0  0  0  0
  1 12  1  6  0  0  0
  2  8  1  0  0  0  0
  2  3  2  0  0  0  0
  3  1  1  0  0  0  0
  5  4  1  0  0  0  0
  6 42  1  1  0  0  0
  6  7  1  0  0  0  0
  7  5  1  1  0  0  0
  8  6  1  0  0  0  0
  9  4  1  0  0  0  0
 10  7  1  0  0  0  0
 10  9  1  1  0  0  0
 12 11  1  0  0  0  0
 13  3  1  0  0  0  0
 14 13  1  0  0  0  0
 15 14  1  0  0  0  0
 16 15  1  0  0  0  0
 17 16  1  0  0  0  0
 18 17  1  0  0  0  0
 19 18  1  0  0  0  0
 20 19  1  0  0  0  0
 21 22  1  0  0  0  0
 21 20  1  1  0  0  0
 23 25  1  0  0  0  0
 23 29  1  0  0  0  0
 26 22  1  1  0  0  0
 26 24  1  0  0  0  0
 27 25  1  6  0  0  0
 27 24  1  0  0  0  0
 28 30  2  0  0  0  0
 29 30  1  0  0  0  0
 29 26  1  0  0  0  0
 30 21  1  0  0  0  0
 31 36  1  0  0  0  0
 32 33  1  0  0  0  0
 34 31  1  6  0  0  0
 34 27  1  0  0  0  0
 34 32  1  0  0  0  0
 35 36  1  6  0  0  0
 35 33  1  0  0  0  0
 37 40  1  6  0  0  0
 37 35  1  0  0  0  0
 37 41  1  0  0  0  0
 38 41  1  0  0  0  0
 39 37  1  0  0  0  0
 39 41  1  0  0  0  0
 43 42  1  0  0  0  0
 44 46  1  0  0  0  0
 45 46  2  0  0  0  0
 46 43  1  0  0  0  0
 47 59  1  6  0  0  0
 47 44  1  0  0  0  0
 48 49  1  1  0  0  0
 48 54  1  0  0  0  0
 48 47  1  0  0  0  0
 50 49  1  0  0  0  0
 51 50  1  0  0  0  0
 52 53  1  0  0  0  0
 53 51  1  0  0  0  0
 55 54  1  0  0  0  0
 55 56  1  0  0  0  0
 56 58  1  0  0  0  0
 58 57  1  0  0  0  0
 60 59  1  0  0  0  0
 61 62  1  0  0  0  0
 62 60  1  0  0  0  0
 63 62  1  0  0  0  0
M  END
>  <MODEL>
7

>  <REMARK>
 VINA RESULT:      -3.9      2.466      8.184
  Name = 
  28 active torsions:
  status: ('A' for Active; 'I' for Inactive)
    1  A    between atoms: C_1  and  C_34
    2  A    between atoms: C_2  and  C_7
    3  A    between atoms: C_2  and  O_25
    4  A    between atoms: C_4  and  C_37
    5  A    between atoms: C_7  and  O_54
    6  A    between atoms: N_9  and  C_38
    7  A    between atoms: C_10  and  O_50
    8  A    between atoms: N_14  and  C_29
    9  A    between atoms: N_14  and  C_57
   10  A    between atoms: N_15  and  C_57
   11  A    between atoms: C_20  and  C_33
   12  A    between atoms: C_20  and  C_55
   13  A    between atoms: C_21  and  C_57
   14  A    between atoms: C_21  and  C_58
   15  A    between atoms: C_21  and  C_62
   16  A    between atoms: C_22  and  C_41
   17  A    between atoms: C_22  and  C_61
   18  A    between atoms: O_25  and  C_26
   19  A    between atoms: C_28  and  C_29
   20  A    between atoms: C_32  and  O_36
   21  A    between atoms: C_32  and  C_62
   22  A    between atoms: C_33  and  C_58
   23  A    between atoms: C_34  and  C_56
   24  A    between atoms: C_35  and  O_54
   25  A    between atoms: C_35  and  C_59
   26  A    between atoms: O_36  and  C_60
   27  A    between atoms: C_44  and  C_61
   28  A    between atoms: C_56  and  C_59
                            x       y       z     vdW  Elec       q    Type
                         _______ _______ _______ _____ _____    ______ ____

>  <TORSDO>
F 28

$$$$
=
 OpenBabel10222420303D

 63 68  0  0  1  0  0  0  0  0999 V2000
  188.7430  177.2620  145.8930 C   0  0  2  0  0  3  0  0  0  0  0  0
  187.6110  177.1080  143.6720 C   0  0  0  0  0  3  0  0  0  0  0  0
  188.7440  177.2670  144.3800 C   0  0  0  0  0  0  0  0  0  0  0  0
  186.7830  179.2060  148.3490 C   0  0  0  0  0  2  0  0  0  0  0  0
  185.8090  178.9070  147.3770 O   0  0  0  0  0  0  0  0  0  0  0  0
  185.8000  178.1060  145.0800 C   0  0  1  0  0  3  0  0  0  0  0  0
  186.4300  178.0330  146.4700 C   0  0  1  0  0  3  0  0  0  0  0  0
  186.2480  176.9020  144.2600 C   0  0  0  0  0  2  0  0  0  0  0  0
  188.1430  178.7530  147.8570 C   0  0  0  0  0  2  0  0  0  0  0  0
  187.8860  178.4160  146.4210 C   0  0  1  0  0  3  0  0  0  0  0  0
  190.2920  176.1770  147.0500 C   0  0  0  0  0  1  0  0  0  0  0  0
  190.0540  177.3730  146.3710 O   0  0  0  0  0  0  0  0  0  0  0  0
  189.9660  177.4430  143.7170 O   0  0  0  0  0  0  0  0  0  0  0  0
  190.0760  178.0700  142.4440 C   0  0  0  0  0  2  0  0  0  0  0  0
  188.8480  177.7490  141.6090 C   0  0  0  0  0  2  0  0  0  0  0  0
  189.2300  177.2460  140.3650 O   0  0  0  0  0  0  0  0  0  0  0  0
  190.5880  177.5370  140.2730 C   0  0  0  0  0  2  0  0  0  0  0  0
  191.2740  176.5450  139.3470 C   0  0  0  0  0  2  0  0  0  0  0  0
  190.3060  176.1280  138.2560 C   0  0  0  0  0  2  0  0  0  0  0  0
  191.0480  175.8790  136.9540 C   0  0  0  0  0  2  0  0  0  0  0  0
  190.2110  176.3740  135.7860 C   0  0  1  0  0  3  0  0  0  0  0  0
  189.3160  175.2460  135.2530 C   0  0  0  0  0  2  0  0  0  0  0  0
  186.7140  177.7680  136.3480 C   0  0  0  0  0  2  0  0  0  0  0  0
  186.9460  174.8330  136.0190 C   0  0  0  0  0  2  0  0  0  0  0  0
  185.4620  176.9810  135.9700 C   0  0  0  0  0  2  0  0  0  0  0  0
  187.8710  175.7670  135.2370 C   0  0  1  0  0  3  0  0  0  0  0  0
  185.5920  175.5050  136.3940 C   0  0  1  0  0  3  0  0  0  0  0  0
  189.5540  178.4850  136.7710 O   0  0  0  0  0  0  0  0  0  0  0  0
  187.9070  177.0640  135.8850 N   0  0  0  0  0  0  0  0  0  0  0  0
  189.2360  177.3960  136.2250 C   0  0  0  0  0  0  0  0  0  0  0  0
  183.3530  175.6490  135.4770 C   0  0  0  0  0  2  0  0  0  0  0  0
  184.8240  173.8240  134.8820 C   0  0  0  0  0  2  0  0  0  0  0  0
  183.7010  172.8160  134.5950 C   0  0  0  0  0  2  0  0  0  0  0  0
  184.4190  174.7410  135.9490 N   0  0  1  0  0  0  0  0  0  0  0  0
  182.2980  173.4230  134.7630 C   0  0  2  0  0  3  0  0  0  0  0  0
  182.3040  174.9480  134.5930 C   0  0  0  0  0  2  0  0  0  0  0  0
  181.6320  172.9790  136.0690 C   0  0  2  0  0  0  0  0  0  0  0  0
  180.3110  171.2480  136.8620 O   0  0  0  0  0  1  0  0  0  0  0  0
  180.3000  173.4760  136.4070 C   0  0  0  0  0  2  0  0  0  0  0  0
  182.4300  172.5950  137.1600 O   0  0  0  0  0  1  0  0  0  0  0  0
  180.4460  172.1180  135.8310 N   0  0  0  0  0  0  0  0  0  0  0  0
  184.2860  178.0970  145.1640 C   0  0  0  0  0  2  0  0  0  0  0  0
  183.7410  179.3140  144.4430 C   0  0  0  0  0  2  0  0  0  0  0  0
  182.1970  179.5890  142.4730 N   0  0  0  0  0  2  0  0  0  0  0  0
  184.0050  178.1120  142.3890 O   0  0  0  0  0  0  0  0  0  0  0  0
  183.3620  178.9830  143.0390 C   0  0  0  0  0  0  0  0  0  0  0  0
  181.5750  179.0870  141.2500 C   0  0  1  0  0  3  0  0  0  0  0  0
  180.0970  179.5070  141.2040 C   0  0  1  0  0  3  0  0  0  0  0  0
  179.5960  179.7590  139.7740 C   0  0  0  0  0  2  0  0  0  0  0  0
  179.2240  181.2150  139.5480 C   0  0  0  0  0  2  0  0  0  0  0  0
  180.4270  181.9650  139.0130 C   0  0  0  0  0  2  0  0  0  0  0  0
  179.4050  183.2300  137.1500 C   0  0  0  0  0  1  0  0  0  0  0  0
  180.3160  182.0750  137.5080 C   0  0  0  0  0  2  0  0  0  0  0  0
  179.2060  178.4860  141.9060 C   0  0  0  0  0  2  0  0  0  0  0  0
  179.9810  177.2200  142.2390 C   0  0  0  0  0  2  0  0  0  0  0  0
  179.3250  176.0960  141.7290 O   0  0  0  0  0  0  0  0  0  0  0  0
  179.8940  175.4670  139.5060 C   0  0  0  0  0  1  0  0  0  0  0  0
  179.1000  176.4070  140.3900 C   0  0  0  0  0  2  0  0  0  0  0  0
  182.2880  179.6140  140.0930 N   0  0  0  0  0  2  0  0  0  0  0  0
  183.0020  178.5020  139.4810 C   0  0  0  0  0  2  0  0  0  0  0  0
  185.3970  178.3970  139.4900 O   0  0  0  0  0  1  0  0  0  0  0  0
  184.3000  178.9810  138.8520 C   0  0  0  0  0  3  0  0  0  0  0  0
  184.3880  180.3700  138.9480 O   0  0  0  0  0  1  0  0  0  0  0  0
  1 12  1  1  0  0  0
  1 10  1  0  0  0  0
  2  8  1  0  0  0  0
  2  3  2  0  0  0  0
  3  1  1  0  0  0  0
  5  4  1  0  0  0  0
  6 42  1  1  0  0  0
  6  7  1  0  0  0  0
  7  5  1  1  0  0  0
  8  6  1  0  0  0  0
  9  4  1  0  0  0  0
 10  7  1  0  0  0  0
 10  9  1  1  0  0  0
 12 11  1  0  0  0  0
 13  3  1  0  0  0  0
 14 13  1  0  0  0  0
 15 14  1  0  0  0  0
 16 15  1  0  0  0  0
 17 16  1  0  0  0  0
 18 17  1  0  0  0  0
 19 18  1  0  0  0  0
 20 19  1  0  0  0  0
 21 30  1  0  0  0  0
 21 20  1  1  0  0  0
 22 21  1  0  0  0  0
 24 27  1  0  0  0  0
 25 23  1  0  0  0  0
 26 22  1  1  0  0  0
 26 29  1  0  0  0  0
 26 24  1  0  0  0  0
 27 25  1  6  0  0  0
 29 30  1  0  0  0  0
 29 23  1  0  0  0  0
 30 28  2  0  0  0  0
 31 34  1  0  0  0  0
 33 35  1  0  0  0  0
 33 32  1  0  0  0  0
 34 32  1  6  0  0  0
 34 27  1  0  0  0  0
 35 36  1  1  0  0  0
 35 37  1  0  0  0  0
 36 31  1  0  0  0  0
 37 39  1  0  0  0  0
 37 40  1  1  0  0  0
 41 37  1  0  0  0  0
 41 39  1  0  0  0  0
 41 38  1  0  0  0  0
 43 42  1  0  0  0  0
 44 46  1  0  0  0  0
 45 46  2  0  0  0  0
 46 43  1  0  0  0  0
 47 59  1  6  0  0  0
 47 44  1  0  0  0  0
 48 49  1  6  0  0  0
 48 47  1  0  0  0  0
 48 54  1  0  0  0  0
 50 49  1  0  0  0  0
 51 50  1  0  0  0  0
 52 53  1  0  0  0  0
 53 51  1  0  0  0  0
 54 55  1  0  0  0  0
 56 55  1  0  0  0  0
 57 58  1  0  0  0  0
 58 56  1  0  0  0  0
 60 59  1  0  0  0  0
 62 63  1  0  0  0  0
 62 60  1  0  0  0  0
 62 61  1  0  0  0  0
M  END
>  <MODEL>
8

>  <REMARK>
 VINA RESULT:      -3.7      2.576      7.885
  Name = 
  28 active torsions:
  status: ('A' for Active; 'I' for Inactive)
    1  A    between atoms: C_1  and  C_34
    2  A    between atoms: C_2  and  C_7
    3  A    between atoms: C_2  and  O_25
    4  A    between atoms: C_4  and  C_37
    5  A    between atoms: C_7  and  O_54
    6  A    between atoms: N_9  and  C_38
    7  A    between atoms: C_10  and  O_50
    8  A    between atoms: N_14  and  C_29
    9  A    between atoms: N_14  and  C_57
   10  A    between atoms: N_15  and  C_57
   11  A    between atoms: C_20  and  C_33
   12  A    between atoms: C_20  and  C_55
   13  A    between atoms: C_21  and  C_57
   14  A    between atoms: C_21  and  C_58
   15  A    between atoms: C_21  and  C_62
   16  A    between atoms: C_22  and  C_41
   17  A    between atoms: C_22  and  C_61
   18  A    between atoms: O_25  and  C_26
   19  A    between atoms: C_28  and  C_29
   20  A    between atoms: C_32  and  O_36
   21  A    between atoms: C_32  and  C_62
   22  A    between atoms: C_33  and  C_58
   23  A    between atoms: C_34  and  C_56
   24  A    between atoms: C_35  and  O_54
   25  A    between atoms: C_35  and  C_59
   26  A    between atoms: O_36  and  C_60
   27  A    between atoms: C_44  and  C_61
   28  A    between atoms: C_56  and  C_59
                            x       y       z     vdW  Elec       q    Type
                         _______ _______ _______ _____ _____    ______ ____

>  <TORSDO>
F 28

$$$$
=
 OpenBabel10222420303D

 63 68  0  0  1  0  0  0  0  0999 V2000
  189.0510  177.3300  146.3980 C   0  0  2  0  0  3  0  0  0  0  0  0
  187.9740  176.7760  144.2140 C   0  0  0  0  0  3  0  0  0  0  0  0
  189.0920  177.0430  144.9130 C   0  0  0  0  0  0  0  0  0  0  0  0
  187.0850  179.7580  148.3710 C   0  0  0  0  0  2  0  0  0  0  0  0
  186.1290  179.3000  147.4450 O   0  0  0  0  0  0  0  0  0  0  0  0
  186.1560  178.0710  145.3460 C   0  0  1  0  0  3  0  0  0  0  0  0
  186.7480  178.2520  146.7430 C   0  0  1  0  0  3  0  0  0  0  0  0
  186.5910  176.7200  144.7880 C   0  0  0  0  0  2  0  0  0  0  0  0
  188.4430  179.1860  148.0190 C   0  0  0  0  0  2  0  0  0  0  0  0
  188.2150  178.5840  146.6670 C   0  0  1  0  0  3  0  0  0  0  0  0
  190.8030  176.2100  147.1680 C   0  0  0  0  0  1  0  0  0  0  0  0
  190.3520  177.5010  146.8860 O   0  0  0  0  0  0  0  0  0  0  0  0
  190.3360  177.0580  144.2680 O   0  0  0  0  0  0  0  0  0  0  0  0
  190.4770  177.2020  142.8580 C   0  0  0  0  0  2  0  0  0  0  0  0
  190.3960  175.8390  142.1940 C   0  0  0  0  0  2  0  0  0  0  0  0
  190.2200  175.9830  140.8180 O   0  0  0  0  0  0  0  0  0  0  0  0
  190.5430  177.3130  140.5630 C   0  0  0  0  0  2  0  0  0  0  0  0
  191.3190  177.4220  139.2600 C   0  0  0  0  0  2  0  0  0  0  0  0
  190.6190  176.6040  138.1910 C   0  0  0  0  0  2  0  0  0  0  0  0
  191.5890  175.6260  137.5510 C   0  0  0  0  0  2  0  0  0  0  0  0
  190.9940  175.0870  136.2610 C   0  0  1  0  0  3  0  0  0  0  0  0
  190.0290  173.9310  136.5580 C   0  0  0  0  0  2  0  0  0  0  0  0
  187.6850  176.4210  134.9350 C   0  0  0  0  0  2  0  0  0  0  0  0
  187.5430  174.2110  136.9020 C   0  0  0  0  0  2  0  0  0  0  0  0
  186.3970  175.6070  135.0160 C   0  0  0  0  0  2  0  0  0  0  0  0
  188.6860  174.2610  135.8880 C   0  0  1  0  0  3  0  0  0  0  0  0
  186.2600  174.9330  136.3950 C   0  0  1  0  0  3  0  0  0  0  0  0
  190.5160  177.2300  135.2410 O   0  0  0  0  0  0  0  0  0  0  0  0
  188.8180  175.6120  135.3750 N   0  0  0  0  0  0  0  0  0  0  0  0
  190.1230  176.0930  135.6150 C   0  0  0  0  0  0  0  0  0  0  0  0
  184.5120  173.8970  135.0720 C   0  0  0  0  0  2  0  0  0  0  0  0
  185.4070  172.7950  137.0300 C   0  0  0  0  0  2  0  0  0  0  0  0
  184.1330  171.9980  137.3470 C   0  0  0  0  0  2  0  0  0  0  0  0
  185.0600  174.0850  136.4310 N   0  0  1  0  0  0  0  0  0  0  0  0
  183.0130  172.2310  136.3190 C   0  0  2  0  0  3  0  0  0  0  0  0
  183.5610  172.6910  134.9620 C   0  0  0  0  0  2  0  0  0  0  0  0
  181.9220  173.1610  136.8580 C   0  0  2  0  0  0  0  0  0  0  0  0
  179.6160  173.3830  136.7850 O   0  0  0  0  0  1  0  0  0  0  0  0
  181.5540  174.3570  136.1040 C   0  0  0  0  0  2  0  0  0  0  0  0
  181.6770  173.2170  138.2410 O   0  0  0  0  0  1  0  0  0  0  0  0
  180.7030  173.1480  136.0100 N   0  0  0  0  0  0  0  0  0  0  0  0
  184.6420  178.1130  145.3820 C   0  0  0  0  0  2  0  0  0  0  0  0
  184.1530  179.2250  144.4750 C   0  0  0  0  0  2  0  0  0  0  0  0
  183.3250  178.5390  142.1970 N   0  0  0  0  0  2  0  0  0  0  0  0
  185.6020  178.8700  142.6010 O   0  0  0  0  0  0  0  0  0  0  0  0
  184.4190  178.9060  143.0420 C   0  0  0  0  0  0  0  0  0  0  0  0
  183.5250  177.9040  140.8970 C   0  0  1  0  0  3  0  0  0  0  0  0
  182.2230  177.2260  140.4400 C   0  0  1  0  0  3  0  0  0  0  0  0
  180.9780  178.0790  140.7220 C   0  0  0  0  0  2  0  0  0  0  0  0
  181.1300  178.9110  141.9850 C   0  0  0  0  0  2  0  0  0  0  0  0
  180.0350  179.9570  142.0330 C   0  0  0  0  0  2  0  0  0  0  0  0
  179.9990  179.5230  144.4680 C   0  0  0  0  0  1  0  0  0  0  0  0
  179.1450  179.6920  143.2280 C   0  0  0  0  0  2  0  0  0  0  0  0
  182.2820  176.8450  138.9630 C   0  0  0  0  0  2  0  0  0  0  0  0
  181.9130  178.0270  138.0790 C   0  0  0  0  0  2  0  0  0  0  0  0
  181.6680  177.6010  136.7710 O   0  0  0  0  0  0  0  0  0  0  0  0
  180.2430  179.2630  135.8350 C   0  0  0  0  0  1  0  0  0  0  0  0
  181.6660  178.7760  136.0210 C   0  0  0  0  0  2  0  0  0  0  0  0
  183.9400  178.9100  139.9270 N   0  0  0  0  0  2  0  0  0  0  0  0
  185.3580  178.7020  139.6680 C   0  0  0  0  0  2  0  0  0  0  0  0
  184.9510  177.5990  137.5780 O   0  0  0  0  0  1  0  0  0  0  0  0
  185.6290  178.6660  138.1720 C   0  0  0  0  0  3  0  0  0  0  0  0
  186.9990  178.5370  137.9430 O   0  0  0  0  0  1  0  0  0  0  0  0
  1 10  1  0  0  0  0
  1 12  1  6  0  0  0
  2  8  1  0  0  0  0
  2  3  2  0  0  0  0
  3  1  1  0  0  0  0
  5  4  1  0  0  0  0
  6 42  1  1  0  0  0
  6  7  1  0  0  0  0
  7  5  1  6  0  0  0
  8  6  1  0  0  0  0
  9  4  1  0  0  0  0
 10  7  1  0  0  0  0
 10  9  1  1  0  0  0
 12 11  1  0  0  0  0
 13  3  1  0  0  0  0
 14 13  1  0  0  0  0
 15 14  1  0  0  0  0
 16 15  1  0  0  0  0
 17 16  1  0  0  0  0
 18 17  1  0  0  0  0
 19 18  1  0  0  0  0
 20 19  1  0  0  0  0
 21 22  1  0  0  0  0
 21 20  1  1  0  0  0
 23 25  1  0  0  0  0
 23 29  1  0  0  0  0
 26 22  1  1  0  0  0
 26 24  1  0  0  0  0
 27 25  1  6  0  0  0
 27 34  1  0  0  0  0
 27 24  1  0  0  0  0
 28 30  2  0  0  0  0
 29 30  1  0  0  0  0
 29 26  1  0  0  0  0
 30 21  1  0  0  0  0
 32 33  1  0  0  0  0
 34 31  1  6  0  0  0
 34 32  1  0  0  0  0
 35 36  1  6  0  0  0
 35 37  1  0  0  0  0
 35 33  1  0  0  0  0
 36 31  1  0  0  0  0
 37 40  1  1  0  0  0
 39 37  1  0  0  0  0
 41 39  1  0  0  0  0
 41 38  1  0  0  0  0
 41 37  1  0  0  0  0
 43 42  1  0  0  0  0
 44 46  1  0  0  0  0
 45 46  2  0  0  0  0
 46 43  1  0  0  0  0
 47 59  1  6  0  0  0
 47 44  1  0  0  0  0
 48 54  1  6  0  0  0
 48 49  1  0  0  0  0
 48 47  1  0  0  0  0
 49 50  1  0  0  0  0
 50 51  1  0  0  0  0
 51 53  1  0  0  0  0
 53 52  1  0  0  0  0
 55 54  1  0  0  0  0
 56 55  1  0  0  0  0
 57 58  1  0  0  0  0
 58 56  1  0  0  0  0
 60 59  1  0  0  0  0
 61 62  1  0  0  0  0
 62 60  1  0  0  0  0
 63 62  1  0  0  0  0
M  END
>  <MODEL>
9

>  <REMARK>
 VINA RESULT:      -3.3      2.345      7.805
  Name = 
  28 active torsions:
  status: ('A' for Active; 'I' for Inactive)
    1  A    between atoms: C_1  and  C_34
    2  A    between atoms: C_2  and  C_7
    3  A    between atoms: C_2  and  O_25
    4  A    between atoms: C_4  and  C_37
    5  A    between atoms: C_7  and  O_54
    6  A    between atoms: N_9  and  C_38
    7  A    between atoms: C_10  and  O_50
    8  A    between atoms: N_14  and  C_29
    9  A    between atoms: N_14  and  C_57
   10  A    between atoms: N_15  and  C_57
   11  A    between atoms: C_20  and  C_33
   12  A    between atoms: C_20  and  C_55
   13  A    between atoms: C_21  and  C_57
   14  A    between atoms: C_21  and  C_58
   15  A    between atoms: C_21  and  C_62
   16  A    between atoms: C_22  and  C_41
   17  A    between atoms: C_22  and  C_61
   18  A    between atoms: O_25  and  C_26
   19  A    between atoms: C_28  and  C_29
   20  A    between atoms: C_32  and  O_36
   21  A    between atoms: C_32  and  C_62
   22  A    between atoms: C_33  and  C_58
   23  A    between atoms: C_34  and  C_56
   24  A    between atoms: C_35  and  O_54
   25  A    between atoms: C_35  and  C_59
   26  A    between atoms: O_36  and  C_60
   27  A    between atoms: C_44  and  C_61
   28  A    between atoms: C_56  and  C_59
                            x       y       z     vdW  Elec       q    Type
                         _______ _______ _______ _____ _____    ______ ____

>  <TORSDO>
F 28

$$$$
