=
 OpenBabel10222415503D

 47 49  0  0  1  0  0  0  0  0999 V2000
  187.9140  178.0340  141.8920 C   0  0  2  0  0  3  0  0  0  0  0  0
  188.5880  176.6790  142.1380 C   0  0  0  0  0  2  0  0  0  0  0  0
  189.4890  176.6940  143.3800 C   0  0  1  0  0  3  0  0  0  0  0  0
  190.9600  176.9580  142.9800 C   0  0  1  0  0  3  0  0  0  0  0  0
  191.4160  178.3930  143.2040 C   0  0  0  0  0  1  0  0  0  0  0  0
  191.5780  174.8590  143.9080 O   0  0  0  0  0  0  0  0  0  0  0  0
  191.8980  176.0190  143.6840 C   0  0  0  0  0  3  0  0  0  0  0  0
  188.9130  177.7320  144.3460 C   0  0  0  0  0  2  0  0  0  0  0  0
  185.1610  178.4400  146.2800 C   0  0  0  0  0  0  0  0  0  0  0  0
  190.8500  177.5650  146.6260 O   0  0  0  0  0  0  0  0  0  0  0  0
  187.2220  177.7430  146.1860 C   0  0  0  0  0  0  0  0  0  0  0  0
  189.6150  177.6200  146.8680 C   0  0  0  0  0  0  0  0  0  0  0  0
  186.8900  178.0890  147.4670 C   0  0  0  0  0  0  0  0  0  0  0  0
  187.8710  178.0830  148.5620 C   0  0  0  0  0  3  0  0  0  0  0  0
  189.1630  177.8700  148.2680 C   0  0  0  0  0  3  0  0  0  0  0  0
  188.5940  177.2910  145.7830 C   0  0  2  0  0  3  0  0  0  0  0  0
  186.1190  177.9600  145.3950 C   0  0  0  0  0  3  0  0  0  0  0  0
  185.6280  178.5480  147.5450 N   0  0  0  0  0  2  0  0  0  0  0  0
  183.8670  179.0430  145.8180 C   0  0  0  0  0  2  0  0  0  0  0  0
  183.6430  178.8010  144.3310 C   0  0  0  0  0  1  0  0  0  0  0  0
  186.3960  177.9660  142.0980 C   0  0  0  0  0  2  0  0  0  0  0  0
  185.6450  179.1180  141.4520 C   0  0  0  0  0  2  0  0  0  0  0  0
  184.5700  178.6530  140.5140 C   0  0  0  0  0  0  0  0  0  0  0  0
  183.6050  178.0590  140.9720 O   0  0  0  0  0  0  0  0  0  0  0  0
  184.5890  179.0440  139.0590 C   0  0  2  0  0  3  0  0  0  0  0  0
  184.0590  180.3280  138.9140 O   0  0  0  0  0  1  0  0  0  0  0  0
  183.8280  178.0320  138.1870 C   0  0  2  0  0  3  0  0  0  0  0  0
  184.9460  175.6330  135.5290 C   0  0  0  0  0  3  0  0  0  0  0  0
  186.3350  175.6770  135.6480 C   0  0  0  0  0  3  0  0  0  0  0  0
  184.1620  176.4070  136.3220 N   0  0  0  0  0  0  0  0  0  0  0  0
  186.0890  177.3210  137.4030 C   0  0  0  0  0  3  0  0  0  0  0  0
  186.9060  176.5250  136.5970 C   0  0  0  0  0  3  0  0  0  0  0  0
  184.7020  177.2540  137.2480 C   0  0  0  0  0  0  0  0  0  0  0  0
  182.6920  178.6040  137.5220 O   0  0  0  0  0  0  0  0  0  0  0  0
  180.3920  178.4150  136.7170 N   0  0  0  0  0  1  0  0  0  0  0  0
  181.3630  178.2160  137.7380 C   0  0  0  0  0  0  0  0  0  0  0  0
  181.0130  177.6910  138.8310 O   0  0  0  0  0  0  0  0  0  0  0  0
  188.3200  178.6150  140.5420 C   0  0  0  0  0  2  0  0  0  0  0  0
  189.0240  177.6050  139.6870 C   0  0  0  0  0  3  0  0  0  0  0  0
  189.7010  177.9790  138.6000 C   0  0  0  0  0  3  0  0  0  0  0  0
  190.4550  176.9790  137.7800 C   0  0  0  0  0  2  0  0  0  0  0  0
  191.3630  176.1410  138.6680 C   0  0  0  0  0  2  0  0  0  0  0  0
  192.7320  175.9730  138.0170 C   0  0  0  0  0  2  0  0  0  0  0  0
  192.9850  174.5730  137.7040 N   0  0  0  0  0  2  0  0  0  0  0  0
  194.4030  174.4360  137.3970 C   0  0  0  0  0  2  0  0  0  0  0  0
  195.1470  173.8450  138.5810 C   0  0  0  0  0  2  0  0  0  0  0  0
  196.0590  174.8320  139.1370 N   0  0  0  0  0  1  0  0  0  0  0  0
  1 38  1  6  0  0  0
  1 21  1  0  0  0  0
  1  2  1  0  0  0  0
  3  2  1  6  0  0  0
  3  8  1  0  0  0  0
  4  5  1  1  0  0  0
  4  3  1  0  0  0  0
  4  7  1  0  0  0  0
  7  6  2  0  0  0  0
  9 18  1  0  0  0  0
 10 12  2  0  0  0  0
 11 13  2  0  0  0  0
 12 15  1  0  0  0  0
 13 18  1  0  0  0  0
 13 14  1  0  0  0  0
 15 14  2  0  0  0  0
 16  8  1  6  0  0  0
 16 11  1  0  0  0  0
 16 12  1  0  0  0  0
 17 11  1  0  0  0  0
 17  9  2  0  0  0  0
 19  9  1  0  0  0  0
 20 19  1  0  0  0  0
 22 21  1  0  0  0  0
 23 24  2  0  0  0  0
 23 22  1  0  0  0  0
 25 26  1  1  0  0  0
 25 23  1  0  0  0  0
 27 34  1  6  0  0  0
 27 25  1  0  0  0  0
 28 29  2  0  0  0  0
 28 30  1  0  0  0  0
 29 32  1  0  0  0  0
 30 33  2  0  0  0  0
 32 31  2  0  0  0  0
 33 31  1  0  0  0  0
 33 27  1  0  0  0  0
 34 36  1  0  0  0  0
 35 36  1  0  0  0  0
 36 37  2  0  0  0  0
 39 38  1  0  0  0  0
 40 39  2  0  0  0  0
 41 40  1  0  0  0  0
 41 42  1  0  0  0  0
 43 42  1  0  0  0  0
 44 43  1  0  0  0  0
 45 44  1  0  0  0  0
 45 46  1  0  0  0  0
 46 47  1  0  0  0  0
M  END
>  <MODEL>
1

>  <REMARK>
 VINA RESULT:      -7.2      0.000      0.000
  Name = 
  23 active torsions:
  status: ('A' for Active; 'I' for Inactive)
    1  A    between atoms: C_1  and  C_4
    2  A    between atoms: C_2  and  C_12
    3  A    between atoms: C_2  and  O_22
    4  A    between atoms: C_2  and  C_41
    5  A    between atoms: N_3  and  C_19
    6  A    between atoms: N_3  and  C_33
    7  A    between atoms: C_5  and  C_6
    8  A    between atoms: C_6  and  C_30
    9  A    between atoms: C_8  and  C_25
   10  A    between atoms: C_8  and  C_34
   11  A    between atoms: C_10  and  C_19
   12  A    between atoms: C_10  and  C_47
   13  A    between atoms: C_12  and  C_36
   14  A    between atoms: C_16  and  C_33
   15  A    between atoms: C_17  and  C_30
   16  A    between atoms: C_17  and  C_31
   17  A    between atoms: O_22  and  C_26
   18  A    between atoms: C_25  and  C_35
   19  A    between atoms: C_25  and  C_40
   20  A    between atoms: C_30  and  C_35
   21  A    between atoms: C_31  and  C_36
   22  A    between atoms: C_40  and  C_45
   23  A    between atoms: C_42  and  C_47
                            x       y       z     vdW  Elec       q    Type
                         _______ _______ _______ _____ _____    ______ ____

>  <TORSDO>
F 23

$$$$
=
 OpenBabel10222415503D

 47 49  0  0  1  0  0  0  0  0999 V2000
  187.7890  178.0570  141.9070 C   0  0  2  0  0  3  0  0  0  0  0  0
  188.4530  176.7060  142.1990 C   0  0  0  0  0  2  0  0  0  0  0  0
  189.3950  176.7700  143.4090 C   0  0  1  0  0  3  0  0  0  0  0  0
  190.8480  177.0410  142.9520 C   0  0  1  0  0  3  0  0  0  0  0  0
  191.3840  178.4040  143.3680 C   0  0  0  0  0  1  0  0  0  0  0  0
  191.7700  175.5910  144.5930 O   0  0  0  0  0  0  0  0  0  0  0  0
  191.7830  175.9670  143.4290 C   0  0  0  0  0  3  0  0  0  0  0  0
  188.8370  177.8280  144.3630 C   0  0  0  0  0  2  0  0  0  0  0  0
  184.9310  178.5920  145.9390 C   0  0  0  0  0  0  0  0  0  0  0  0
  190.5430  177.5970  146.8150 O   0  0  0  0  0  0  0  0  0  0  0  0
  186.9780  177.8540  146.0340 C   0  0  0  0  0  0  0  0  0  0  0  0
  189.2920  177.6750  146.9400 C   0  0  0  0  0  0  0  0  0  0  0  0
  186.5310  178.1940  147.2810 C   0  0  0  0  0  0  0  0  0  0  0  0
  187.4030  178.1560  148.4640 C   0  0  0  0  0  3  0  0  0  0  0  0
  188.7130  177.9200  148.2930 C   0  0  0  0  0  3  0  0  0  0  0  0
  188.3730  177.3780  145.7580 C   0  0  2  0  0  3  0  0  0  0  0  0
  185.9600  178.1020  145.1440 C   0  0  0  0  0  3  0  0  0  0  0  0
  185.2770  178.6770  147.2440 N   0  0  0  0  0  2  0  0  0  0  0  0
  183.6990  179.2260  145.3640 C   0  0  0  0  0  2  0  0  0  0  0  0
  183.3510  178.6280  144.0070 C   0  0  0  0  0  1  0  0  0  0  0  0
  186.2620  177.9420  141.8300 C   0  0  0  0  0  2  0  0  0  0  0  0
  185.5780  179.2300  141.4020 C   0  0  0  0  0  2  0  0  0  0  0  0
  184.7290  179.0530  140.1780 C   0  0  0  0  0  0  0  0  0  0  0  0
  184.9900  179.7090  139.1800 O   0  0  0  0  0  0  0  0  0  0  0  0
  183.6760  177.9770  140.1140 C   0  0  2  0  0  3  0  0  0  0  0  0
  183.7350  177.3400  138.8740 O   0  0  0  0  0  1  0  0  0  0  0  0
  182.2700  178.5400  140.3790 C   0  0  2  0  0  3  0  0  0  0  0  0
  178.9670  176.8210  140.8370 C   0  0  0  0  0  3  0  0  0  0  0  0
  179.2240  175.5420  140.3470 C   0  0  0  0  0  3  0  0  0  0  0  0
  179.9350  177.7730  140.8150 N   0  0  0  0  0  0  0  0  0  0  0  0
  181.4750  176.2410  139.8180 C   0  0  0  0  0  3  0  0  0  0  0  0
  180.4890  175.2510  139.8390 C   0  0  0  0  0  3  0  0  0  0  0  0
  181.1770  177.5140  140.3100 C   0  0  0  0  0  0  0  0  0  0  0  0
  181.9730  179.7040  139.5940 O   0  0  0  0  0  0  0  0  0  0  0  0
  179.9540  180.2170  138.3160 N   0  0  0  0  0  1  0  0  0  0  0  0
  181.2740  179.6890  138.3790 C   0  0  0  0  0  0  0  0  0  0  0  0
  181.8000  179.2110  137.3380 O   0  0  0  0  0  0  0  0  0  0  0  0
  188.4120  178.7250  140.6870 C   0  0  0  0  0  2  0  0  0  0  0  0
  188.5090  177.7860  139.5220 C   0  0  0  0  0  3  0  0  0  0  0  0
  188.3860  178.2300  138.2710 C   0  0  0  0  0  3  0  0  0  0  0  0
  188.5450  177.3040  137.1050 C   0  0  0  0  0  2  0  0  0  0  0  0
  188.7170  175.8700  137.5850 C   0  0  0  0  0  2  0  0  0  0  0  0
  190.1010  175.3500  137.2160 C   0  0  0  0  0  2  0  0  0  0  0  0
  190.9800  175.3530  138.3780 N   0  0  0  0  0  2  0  0  0  0  0  0
  191.9330  176.4430  138.2100 C   0  0  0  0  0  2  0  0  0  0  0  0
  192.2220  177.1060  139.5450 C   0  0  0  0  0  2  0  0  0  0  0  0
  193.6580  177.2230  139.7410 N   0  0  0  0  0  1  0  0  0  0  0  0
  1 38  1  6  0  0  0
  1  2  1  0  0  0  0
  3  2  1  6  0  0  0
  3  8  1  0  0  0  0
  4  5  1  1  0  0  0
  4  3  1  0  0  0  0
  4  7  1  0  0  0  0
  7  6  2  0  0  0  0
  9 18  1  0  0  0  0
 10 12  2  0  0  0  0
 11 13  2  0  0  0  0
 12 15  1  0  0  0  0
 13 14  1  0  0  0  0
 15 14  2  0  0  0  0
 16  8  1  6  0  0  0
 16 11  1  0  0  0  0
 16 12  1  0  0  0  0
 17  9  2  0  0  0  0
 17 11  1  0  0  0  0
 18 13  1  0  0  0  0
 19  9  1  0  0  0  0
 20 19  1  0  0  0  0
 21  1  1  0  0  0  0
 22 21  1  0  0  0  0
 23 22  1  0  0  0  0
 24 23  2  0  0  0  0
 25 26  1  6  0  0  0
 25 23  1  0  0  0  0
 25 27  1  0  0  0  0
 27 34  1  6  0  0  0
 29 28  2  0  0  0  0
 30 28  1  0  0  0  0
 31 32  2  0  0  0  0
 31 33  1  0  0  0  0
 32 29  1  0  0  0  0
 33 27  1  0  0  0  0
 33 30  2  0  0  0  0
 35 36  1  0  0  0  0
 36 34  1  0  0  0  0
 37 36  2  0  0  0  0
 39 38  1  0  0  0  0
 40 39  2  0  0  0  0
 41 42  1  0  0  0  0
 41 40  1  0  0  0  0
 43 42  1  0  0  0  0
 43 44  1  0  0  0  0
 45 44  1  0  0  0  0
 45 46  1  0  0  0  0
 46 47  1  0  0  0  0
M  END
>  <MODEL>
2

>  <REMARK>
 VINA RESULT:      -6.9      1.871      2.928
  Name = 
  23 active torsions:
  status: ('A' for Active; 'I' for Inactive)
    1  A    between atoms: C_1  and  C_4
    2  A    between atoms: C_2  and  C_12
    3  A    between atoms: C_2  and  O_22
    4  A    between atoms: C_2  and  C_41
    5  A    between atoms: N_3  and  C_19
    6  A    between atoms: N_3  and  C_33
    7  A    between atoms: C_5  and  C_6
    8  A    between atoms: C_6  and  C_30
    9  A    between atoms: C_8  and  C_25
   10  A    between atoms: C_8  and  C_34
   11  A    between atoms: C_10  and  C_19
   12  A    between atoms: C_10  and  C_47
   13  A    between atoms: C_12  and  C_36
   14  A    between atoms: C_16  and  C_33
   15  A    between atoms: C_17  and  C_30
   16  A    between atoms: C_17  and  C_31
   17  A    between atoms: O_22  and  C_26
   18  A    between atoms: C_25  and  C_35
   19  A    between atoms: C_25  and  C_40
   20  A    between atoms: C_30  and  C_35
   21  A    between atoms: C_31  and  C_36
   22  A    between atoms: C_40  and  C_45
   23  A    between atoms: C_42  and  C_47
                            x       y       z     vdW  Elec       q    Type
                         _______ _______ _______ _____ _____    ______ ____

>  <TORSDO>
F 23

$$$$
=
 OpenBabel10222415503D

 47 49  0  0  1  0  0  0  0  0999 V2000
  186.5640  178.3220  142.0520 C   0  0  2  0  0  3  0  0  0  0  0  0
  187.8600  179.0380  142.4530 C   0  0  0  0  0  2  0  0  0  0  0  0
  189.0950  178.4290  141.7760 C   0  0  1  0  0  3  0  0  0  0  0  0
  189.9560  177.6620  142.8070 C   0  0  1  0  0  3  0  0  0  0  0  0
  189.9600  178.2840  144.1970 C   0  0  0  0  0  1  0  0  0  0  0  0
  190.3620  175.3200  142.7800 O   0  0  0  0  0  0  0  0  0  0  0  0
  189.5430  176.2210  142.9040 C   0  0  0  0  0  3  0  0  0  0  0  0
  188.5970  177.5630  140.6170 C   0  0  0  0  0  2  0  0  0  0  0  0
  186.2180  177.5260  137.0590 C   0  0  0  0  0  0  0  0  0  0  0  0
  191.3390  176.8730  139.6270 O   0  0  0  0  0  0  0  0  0  0  0  0
  188.0820  177.6870  138.1740 C   0  0  0  0  0  0  0  0  0  0  0  0
  190.4210  177.0930  138.7950 C   0  0  0  0  0  0  0  0  0  0  0  0
  188.3190  177.2370  136.9050 C   0  0  0  0  0  0  0  0  0  0  0  0
  189.6560  176.8220  136.4560 C   0  0  0  0  0  3  0  0  0  0  0  0
  190.6450  176.7460  137.3610 C   0  0  0  0  0  3  0  0  0  0  0  0
  189.1550  177.8370  139.2120 C   0  0  2  0  0  3  0  0  0  0  0  0
  186.7270  177.8830  138.3010 C   0  0  0  0  0  2  0  0  0  0  0  0
  187.1780  177.1050  136.2040 N   0  0  0  0  0  0  0  0  0  0  0  0
  184.7500  177.3500  136.8090 C   0  0  0  0  0  2  0  0  0  0  0  0
  184.4900  176.2450  135.7930 C   0  0  0  0  0  1  0  0  0  0  0  0
  185.5330  179.2890  141.4590 C   0  0  0  0  0  2  0  0  0  0  0  0
  184.2910  178.5960  140.9250 C   0  0  0  0  0  2  0  0  0  0  0  0
  183.6220  179.3750  139.8300 C   0  0  0  0  0  0  0  0  0  0  0  0
  184.2800  180.1880  139.1980 O   0  0  0  0  0  0  0  0  0  0  0  0
  182.2130  179.0540  139.4020 C   0  0  2  0  0  3  0  0  0  0  0  0
  181.4950  180.2390  139.2330 O   0  0  0  0  0  1  0  0  0  0  0  0
  181.5120  178.1230  140.4050 C   0  0  2  0  0  3  0  0  0  0  0  0
  179.5490  174.9680  139.8910 C   0  0  0  0  0  3  0  0  0  0  0  0
  180.1740  174.4030  138.7800 C   0  0  0  0  0  3  0  0  0  0  0  0
  179.9650  176.1640  140.3800 N   0  0  0  0  0  0  0  0  0  0  0  0
  181.6510  176.3130  138.6910 C   0  0  0  0  0  3  0  0  0  0  0  0
  181.2360  175.0810  138.1810 C   0  0  0  0  0  3  0  0  0  0  0  0
  180.9940  176.8510  139.8000 C   0  0  0  0  0  0  0  0  0  0  0  0
  180.5180  178.7930  141.1950 O   0  0  0  0  0  0  0  0  0  0  0  0
  181.7200  178.9490  143.3170 N   0  0  0  0  0  1  0  0  0  0  0  0
  180.7770  179.4760  142.3900 C   0  0  0  0  0  0  0  0  0  0  0  0
  180.1820  180.5550  142.6580 O   0  0  0  0  0  0  0  0  0  0  0  0
  186.0210  177.4820  143.2020 C   0  0  0  0  0  2  0  0  0  0  0  0
  185.8280  178.2940  144.4470 C   0  0  0  0  0  3  0  0  0  0  0  0
  185.9430  177.7380  145.6540 C   0  0  0  0  0  3  0  0  0  0  0  0
  185.8120  178.5620  146.8970 C   0  0  0  0  0  2  0  0  0  0  0  0
  187.1220  178.5720  147.6690 C   0  0  0  0  0  2  0  0  0  0  0  0
  188.0580  177.4910  147.1400 C   0  0  0  0  0  2  0  0  0  0  0  0
  189.3280  177.5140  147.8540 N   0  0  0  0  0  2  0  0  0  0  0  0
  190.1180  176.3810  147.3910 C   0  0  0  0  0  2  0  0  0  0  0  0
  191.5980  176.7160  147.4230 C   0  0  0  0  0  2  0  0  0  0  0  0
  192.3770  175.5680  146.9870 N   0  0  0  0  0  1  0  0  0  0  0  0
  1 21  1  1  0  0  0
  1  2  1  0  0  0  0
  1 38  1  0  0  0  0
  3  8  1  6  0  0  0
  3  2  1  0  0  0  0
  3  4  1  0  0  0  0
  4  7  1  0  0  0  0
  4  5  1  1  0  0  0
  6  7  2  0  0  0  0
  9 17  1  0  0  0  0
 11 17  1  0  0  0  0
 11 16  1  0  0  0  0
 12 16  1  0  0  0  0
 12 10  2  0  0  0  0
 13 11  2  0  0  0  0
 14 13  1  0  0  0  0
 14 15  2  0  0  0  0
 15 12  1  0  0  0  0
 16  8  1  1  0  0  0
 18 13  1  0  0  0  0
 18  9  2  0  0  0  0
 19  9  1  0  0  0  0
 20 19  1  0  0  0  0
 22 21  1  0  0  0  0
 23 22  1  0  0  0  0
 24 23  2  0  0  0  0
 25 26  1  1  0  0  0
 25 23  1  0  0  0  0
 25 27  1  0  0  0  0
 27 34  1  6  0  0  0
 28 30  1  0  0  0  0
 29 28  2  0  0  0  0
 31 33  1  0  0  0  0
 32 31  2  0  0  0  0
 32 29  1  0  0  0  0
 33 30  2  0  0  0  0
 33 27  1  0  0  0  0
 34 36  1  0  0  0  0
 36 37  2  0  0  0  0
 36 35  1  0  0  0  0
 38 39  1  0  0  0  0
 39 40  2  0  0  0  0
 40 41  1  0  0  0  0
 41 42  1  0  0  0  0
 43 42  1  0  0  0  0
 43 44  1  0  0  0  0
 45 46  1  0  0  0  0
 45 44  1  0  0  0  0
 47 46  1  0  0  0  0
M  END
>  <MODEL>
3

>  <REMARK>
 VINA RESULT:      -6.7      2.604      7.000
  Name = 
  23 active torsions:
  status: ('A' for Active; 'I' for Inactive)
    1  A    between atoms: C_1  and  C_4
    2  A    between atoms: C_2  and  C_12
    3  A    between atoms: C_2  and  O_22
    4  A    between atoms: C_2  and  C_41
    5  A    between atoms: N_3  and  C_19
    6  A    between atoms: N_3  and  C_33
    7  A    between atoms: C_5  and  C_6
    8  A    between atoms: C_6  and  C_30
    9  A    between atoms: C_8  and  C_25
   10  A    between atoms: C_8  and  C_34
   11  A    between atoms: C_10  and  C_19
   12  A    between atoms: C_10  and  C_47
   13  A    between atoms: C_12  and  C_36
   14  A    between atoms: C_16  and  C_33
   15  A    between atoms: C_17  and  C_30
   16  A    between atoms: C_17  and  C_31
   17  A    between atoms: O_22  and  C_26
   18  A    between atoms: C_25  and  C_35
   19  A    between atoms: C_25  and  C_40
   20  A    between atoms: C_30  and  C_35
   21  A    between atoms: C_31  and  C_36
   22  A    between atoms: C_40  and  C_45
   23  A    between atoms: C_42  and  C_47
                            x       y       z     vdW  Elec       q    Type
                         _______ _______ _______ _____ _____    ______ ____

>  <TORSDO>
F 23

$$$$
=
 OpenBabel10222415503D

 47 49  0  0  1  0  0  0  0  0999 V2000
  185.2840  178.3520  142.3090 C   0  0  2  0  0  3  0  0  0  0  0  0
  186.3750  179.2600  141.7270 C   0  0  0  0  0  2  0  0  0  0  0  0
  187.7620  178.6040  141.7700 C   0  0  1  0  0  3  0  0  0  0  0  0
  187.9980  177.9250  143.1400 C   0  0  1  0  0  3  0  0  0  0  0  0
  187.8890  176.4070  143.1070 C   0  0  0  0  0  1  0  0  0  0  0  0
  190.1080  177.4740  144.1360 O   0  0  0  0  0  0  0  0  0  0  0  0
  189.3240  178.3190  143.7270 C   0  0  0  0  0  3  0  0  0  0  0  0
  187.8490  177.6470  140.5800 C   0  0  0  0  0  2  0  0  0  0  0  0
  187.4040  177.7140  136.3230 C   0  0  0  0  0  0  0  0  0  0  0  0
  190.6460  176.6480  140.9710 O   0  0  0  0  0  0  0  0  0  0  0  0
  188.5430  177.7290  138.1800 C   0  0  0  0  0  0  0  0  0  0  0  0
  190.2480  176.9270  139.8090 C   0  0  0  0  0  0  0  0  0  0  0  0
  189.2920  177.2100  137.1610 C   0  0  0  0  0  0  0  0  0  0  0  0
  190.6320  176.6460  137.3810 C   0  0  0  0  0  3  0  0  0  0  0  0
  191.0740  176.5050  138.6400 C   0  0  0  0  0  3  0  0  0  0  0  0
  189.0210  177.8100  139.5990 C   0  0  2  0  0  3  0  0  0  0  0  0
  187.3130  178.0660  137.6650 C   0  0  0  0  0  2  0  0  0  0  0  0
  188.6000  177.1670  136.0080 N   0  0  0  0  0  0  0  0  0  0  0  0
  186.2100  177.6780  135.4160 C   0  0  0  0  0  2  0  0  0  0  0  0
  185.4250  176.3830  135.5870 C   0  0  0  0  0  1  0  0  0  0  0  0
  184.2950  177.8820  141.2350 C   0  0  0  0  0  2  0  0  0  0  0  0
  184.3330  178.7200  139.9680 C   0  0  0  0  0  2  0  0  0  0  0  0
  183.2170  178.3880  139.0220 C   0  0  0  0  0  0  0  0  0  0  0  0
  183.4720  178.2550  137.8340 O   0  0  0  0  0  0  0  0  0  0  0  0
  181.8390  178.0610  139.5360 C   0  0  2  0  0  3  0  0  0  0  0  0
  181.1610  177.2860  138.5930 O   0  0  0  0  0  1  0  0  0  0  0  0
  181.0440  179.3330  139.8780 C   0  0  2  0  0  3  0  0  0  0  0  0
  179.4750  180.5050  143.0780 C   0  0  0  0  0  3  0  0  0  0  0  0
  179.5530  179.3710  143.8840 C   0  0  0  0  0  3  0  0  0  0  0  0
  179.9260  180.4710  141.7980 N   0  0  0  0  0  0  0  0  0  0  0  0
  180.5610  178.1790  142.0390 C   0  0  0  0  0  3  0  0  0  0  0  0
  180.1050  178.2020  143.3590 C   0  0  0  0  0  3  0  0  0  0  0  0
  180.4580  179.3340  141.2600 C   0  0  0  0  0  0  0  0  0  0  0  0
  180.0750  179.6770  138.8770 O   0  0  0  0  0  0  0  0  0  0  0  0
  181.0860  180.5650  136.8370 N   0  0  0  0  0  1  0  0  0  0  0  0
  180.2190  180.7220  137.9550 C   0  0  0  0  0  0  0  0  0  0  0  0
  179.5890  181.8050  138.1030 O   0  0  0  0  0  0  0  0  0  0  0  0
  184.6130  179.0000  143.5140 C   0  0  0  0  0  2  0  0  0  0  0  0
  185.0940  178.4130  144.8060 C   0  0  0  0  0  3  0  0  0  0  0  0
  185.6100  179.1870  145.7620 C   0  0  0  0  0  3  0  0  0  0  0  0
  186.0340  178.6090  147.0760 C   0  0  0  0  0  2  0  0  0  0  0  0
  187.2130  177.6670  146.8880 C   0  0  0  0  0  2  0  0  0  0  0  0
  188.1610  177.7590  148.0780 C   0  0  0  0  0  2  0  0  0  0  0  0
  189.5450  177.8330  147.6300 N   0  0  0  0  0  2  0  0  0  0  0  0
  190.0390  176.4700  147.4850 C   0  0  0  0  0  2  0  0  0  0  0  0
  191.4950  176.4760  147.0540 C   0  0  0  0  0  2  0  0  0  0  0  0
  192.3540  176.6540  148.2140 N   0  0  0  0  0  1  0  0  0  0  0  0
  1 21  1  6  0  0  0
  1 38  1  0  0  0  0
  2  3  1  0  0  0  0
  2  1  1  0  0  0  0
  3  8  1  6  0  0  0
  3  4  1  0  0  0  0
  4  5  1  6  0  0  0
  4  7  1  0  0  0  0
  7  6  2  0  0  0  0
  9 17  1  0  0  0  0
 11 16  1  0  0  0  0
 12 10  2  0  0  0  0
 13 14  1  0  0  0  0
 13 11  2  0  0  0  0
 14 15  2  0  0  0  0
 15 12  1  0  0  0  0
 16 12  1  0  0  0  0
 16  8  1  1  0  0  0
 17 11  1  0  0  0  0
 18  9  2  0  0  0  0
 18 13  1  0  0  0  0
 19 20  1  0  0  0  0
 19  9  1  0  0  0  0
 22 21  1  0  0  0  0
 23 25  1  0  0  0  0
 23 22  1  0  0  0  0
 24 23  2  0  0  0  0
 25 26  1  6  0  0  0
 25 27  1  0  0  0  0
 27 34  1  6  0  0  0
 27 33  1  0  0  0  0
 28 29  1  0  0  0  0
 30 28  2  0  0  0  0
 31 32  1  0  0  0  0
 32 29  2  0  0  0  0
 33 30  1  0  0  0  0
 33 31  2  0  0  0  0
 35 36  1  0  0  0  0
 36 37  2  0  0  0  0
 36 34  1  0  0  0  0
 38 39  1  0  0  0  0
 39 40  2  0  0  0  0
 40 41  1  0  0  0  0
 42 41  1  0  0  0  0
 42 43  1  0  0  0  0
 44 43  1  0  0  0  0
 45 44  1  0  0  0  0
 46 45  1  0  0  0  0
 46 47  1  0  0  0  0
M  END
>  <MODEL>
4

>  <REMARK>
 VINA RESULT:      -6.4      2.537      7.467
  Name = 
  23 active torsions:
  status: ('A' for Active; 'I' for Inactive)
    1  A    between atoms: C_1  and  C_4
    2  A    between atoms: C_2  and  C_12
    3  A    between atoms: C_2  and  O_22
    4  A    between atoms: C_2  and  C_41
    5  A    between atoms: N_3  and  C_19
    6  A    between atoms: N_3  and  C_33
    7  A    between atoms: C_5  and  C_6
    8  A    between atoms: C_6  and  C_30
    9  A    between atoms: C_8  and  C_25
   10  A    between atoms: C_8  and  C_34
   11  A    between atoms: C_10  and  C_19
   12  A    between atoms: C_10  and  C_47
   13  A    between atoms: C_12  and  C_36
   14  A    between atoms: C_16  and  C_33
   15  A    between atoms: C_17  and  C_30
   16  A    between atoms: C_17  and  C_31
   17  A    between atoms: O_22  and  C_26
   18  A    between atoms: C_25  and  C_35
   19  A    between atoms: C_25  and  C_40
   20  A    between atoms: C_30  and  C_35
   21  A    between atoms: C_31  and  C_36
   22  A    between atoms: C_40  and  C_45
   23  A    between atoms: C_42  and  C_47
                            x       y       z     vdW  Elec       q    Type
                         _______ _______ _______ _____ _____    ______ ____

>  <TORSDO>
F 23

$$$$
=
 OpenBabel10222415503D

 47 49  0  0  1  0  0  0  0  0999 V2000
  187.4310  177.9060  141.0160 C   0  0  2  0  0  3  0  0  0  0  0  0
  186.3990  178.9410  141.4820 C   0  0  0  0  0  2  0  0  0  0  0  0
  184.9820  178.3580  141.5580 C   0  0  1  0  0  3  0  0  0  0  0  0
  184.4130  178.5010  142.9900 C   0  0  1  0  0  3  0  0  0  0  0  0
  185.2740  179.3470  143.9180 C   0  0  0  0  0  1  0  0  0  0  0  0
  182.0550  178.3230  143.2180 O   0  0  0  0  0  0  0  0  0  0  0  0
  183.0130  179.0430  142.9730 C   0  0  0  0  0  3  0  0  0  0  0  0
  184.1450  179.0570  140.4850 C   0  0  0  0  0  2  0  0  0  0  0  0
  185.2140  177.2920  136.7350 C   0  0  0  0  0  0  0  0  0  0  0  0
  181.1750  179.3910  140.2750 O   0  0  0  0  0  0  0  0  0  0  0  0
  183.8430  177.7870  138.3540 C   0  0  0  0  0  0  0  0  0  0  0  0
  181.7880  178.7520  139.3800 C   0  0  0  0  0  0  0  0  0  0  0  0
  183.1600  177.6150  137.1820 C   0  0  0  0  0  0  0  0  0  0  0  0
  181.7150  177.8640  137.0710 C   0  0  0  0  0  3  0  0  0  0  0  0
  181.0740  178.4130  138.1150 C   0  0  0  0  0  3  0  0  0  0  0  0
  183.1890  178.2030  139.6380 C   0  0  2  0  0  3  0  0  0  0  0  0
  185.1780  177.5820  138.0930 C   0  0  0  0  0  2  0  0  0  0  0  0
  183.9900  177.3330  136.1610 N   0  0  0  0  0  0  0  0  0  0  0  0
  186.4940  177.2350  135.9560 C   0  0  0  0  0  2  0  0  0  0  0  0
  186.7750  175.8250  135.4540 C   0  0  0  0  0  1  0  0  0  0  0  0
  188.1990  177.2910  142.1910 C   0  0  0  0  0  2  0  0  0  0  0  0
  189.7060  177.4480  142.0790 C   0  0  0  0  0  2  0  0  0  0  0  0
  190.4320  176.9380  143.2890 C   0  0  0  0  0  0  0  0  0  0  0  0
  190.9100  175.8130  143.2580 O   0  0  0  0  0  0  0  0  0  0  0  0
  190.7120  177.8410  144.4620 C   0  0  2  0  0  3  0  0  0  0  0  0
  191.9980  178.3720  144.3460 O   0  0  0  0  0  1  0  0  0  0  0  0
  190.5380  177.1050  145.8010 C   0  0  2  0  0  3  0  0  0  0  0  0
  188.3400  178.1390  148.6590 C   0  0  0  0  0  3  0  0  0  0  0  0
  187.0750  178.1630  148.0730 C   0  0  0  0  0  3  0  0  0  0  0  0
  189.4350  177.8290  147.9200 N   0  0  0  0  0  0  0  0  0  0  0  0
  188.0860  177.5480  145.9660 C   0  0  0  0  0  3  0  0  0  0  0  0
  186.9510  177.8600  146.7170 C   0  0  0  0  0  3  0  0  0  0  0  0
  189.3370  177.5420  146.5880 C   0  0  0  0  0  0  0  0  0  0  0  0
  191.7330  177.0930  146.5960 O   0  0  0  0  0  0  0  0  0  0  0  0
  192.4680  174.7900  146.2370 N   0  0  0  0  0  1  0  0  0  0  0  0
  192.3590  175.9350  147.0760 C   0  0  0  0  0  0  0  0  0  0  0  0
  192.8280  175.8920  148.2450 O   0  0  0  0  0  0  0  0  0  0  0  0
  188.3350  178.4790  139.9300 C   0  0  0  0  0  2  0  0  0  0  0  0
  188.6930  177.4510  138.8990 C   0  0  0  0  0  3  0  0  0  0  0  0
  189.6530  177.6830  138.0030 C   0  0  0  0  0  3  0  0  0  0  0  0
  190.0530  176.6340  137.0130 C   0  0  0  0  0  2  0  0  0  0  0  0
  190.1370  175.2730  137.6860 C   0  0  0  0  0  2  0  0  0  0  0  0
  191.4320  174.5670  137.2980 C   0  0  0  0  0  2  0  0  0  0  0  0
  192.4430  175.5340  136.8910 N   0  0  0  0  0  2  0  0  0  0  0  0
  193.5160  175.4950  137.8760 C   0  0  0  0  0  2  0  0  0  0  0  0
  194.6690  174.6470  137.3710 C   0  0  0  0  0  2  0  0  0  0  0  0
  195.8280  174.8200  138.2340 N   0  0  0  0  0  1  0  0  0  0  0  0
  1 38  1  6  0  0  0
  1  2  1  0  0  0  0
  1 21  1  0  0  0  0
  2  3  1  0  0  0  0
  3  8  1  6  0  0  0
  3  4  1  0  0  0  0
  4  5  1  1  0  0  0
  7  4  1  0  0  0  0
  7  6  2  0  0  0  0
  9 17  1  0  0  0  0
 11 16  1  0  0  0  0
 12 16  1  0  0  0  0
 12 10  2  0  0  0  0
 13 11  2  0  0  0  0
 14 13  1  0  0  0  0
 14 15  2  0  0  0  0
 15 12  1  0  0  0  0
 16  8  1  6  0  0  0
 17 11  1  0  0  0  0
 18  9  2  0  0  0  0
 18 13  1  0  0  0  0
 19  9  1  0  0  0  0
 20 19  1  0  0  0  0
 22 21  1  0  0  0  0
 22 23  1  0  0  0  0
 23 25  1  0  0  0  0
 24 23  2  0  0  0  0
 25 26  1  6  0  0  0
 25 27  1  0  0  0  0
 27 33  1  0  0  0  0
 27 34  1  1  0  0  0
 29 28  1  0  0  0  0
 30 28  2  0  0  0  0
 31 33  2  0  0  0  0
 31 32  1  0  0  0  0
 32 29  2  0  0  0  0
 33 30  1  0  0  0  0
 34 36  1  0  0  0  0
 35 36  1  0  0  0  0
 36 37  2  0  0  0  0
 39 38  1  0  0  0  0
 40 39  2  0  0  0  0
 41 42  1  0  0  0  0
 41 40  1  0  0  0  0
 43 42  1  0  0  0  0
 44 43  1  0  0  0  0
 44 45  1  0  0  0  0
 46 45  1  0  0  0  0
 46 47  1  0  0  0  0
M  END
>  <MODEL>
5

>  <REMARK>
 VINA RESULT:      -6.3      1.876      8.966
  Name = 
  23 active torsions:
  status: ('A' for Active; 'I' for Inactive)
    1  A    between atoms: C_1  and  C_4
    2  A    between atoms: C_2  and  C_12
    3  A    between atoms: C_2  and  O_22
    4  A    between atoms: C_2  and  C_41
    5  A    between atoms: N_3  and  C_19
    6  A    between atoms: N_3  and  C_33
    7  A    between atoms: C_5  and  C_6
    8  A    between atoms: C_6  and  C_30
    9  A    between atoms: C_8  and  C_25
   10  A    between atoms: C_8  and  C_34
   11  A    between atoms: C_10  and  C_19
   12  A    between atoms: C_10  and  C_47
   13  A    between atoms: C_12  and  C_36
   14  A    between atoms: C_16  and  C_33
   15  A    between atoms: C_17  and  C_30
   16  A    between atoms: C_17  and  C_31
   17  A    between atoms: O_22  and  C_26
   18  A    between atoms: C_25  and  C_35
   19  A    between atoms: C_25  and  C_40
   20  A    between atoms: C_30  and  C_35
   21  A    between atoms: C_31  and  C_36
   22  A    between atoms: C_40  and  C_45
   23  A    between atoms: C_42  and  C_47
                            x       y       z     vdW  Elec       q    Type
                         _______ _______ _______ _____ _____    ______ ____

>  <TORSDO>
F 23

$$$$
=
 OpenBabel10222415503D

 47 49  0  0  1  0  0  0  0  0999 V2000
  185.5470  178.4810  142.2980 C   0  0  2  0  0  3  0  0  0  0  0  0
  186.6970  179.2630  141.6500 C   0  0  0  0  0  2  0  0  0  0  0  0
  188.0400  178.5310  141.7680 C   0  0  1  0  0  3  0  0  0  0  0  0
  188.1660  177.8490  143.1510 C   0  0  1  0  0  3  0  0  0  0  0  0
  188.0300  176.3330  143.1100 C   0  0  0  0  0  1  0  0  0  0  0  0
  190.3670  178.7420  143.2080 O   0  0  0  0  0  0  0  0  0  0  0  0
  189.4530  178.2180  143.8310 C   0  0  0  0  0  3  0  0  0  0  0  0
  188.1330  177.5620  140.5880 C   0  0  0  0  0  2  0  0  0  0  0  0
  187.8490  177.9230  136.3330 C   0  0  0  0  0  0  0  0  0  0  0  0
  190.8070  176.2750  140.9990 O   0  0  0  0  0  0  0  0  0  0  0  0
  188.9170  177.7180  138.2200 C   0  0  0  0  0  0  0  0  0  0  0  0
  190.4790  176.6590  139.8460 C   0  0  0  0  0  0  0  0  0  0  0  0
  189.6490  177.1890  137.1930 C   0  0  0  0  0  0  0  0  0  0  0  0
  190.9210  176.4850  137.4170 C   0  0  0  0  0  3  0  0  0  0  0  0
  191.3020  176.2290  138.6780 C   0  0  0  0  0  3  0  0  0  0  0  0
  189.3490  177.6680  139.6550 C   0  0  2  0  0  3  0  0  0  0  0  0
  187.7440  178.2020  137.6900 C   0  0  0  0  0  2  0  0  0  0  0  0
  188.9980  177.2810  136.0200 N   0  0  0  0  0  0  0  0  0  0  0  0
  186.6900  178.0560  135.3900 C   0  0  0  0  0  2  0  0  0  0  0  0
  186.4740  176.7750  134.5940 C   0  0  0  0  0  1  0  0  0  0  0  0
  184.6100  177.8670  141.2520 C   0  0  0  0  0  2  0  0  0  0  0  0
  183.2150  178.4710  141.2600 C   0  0  0  0  0  2  0  0  0  0  0  0
  182.3250  177.8810  140.2060 C   0  0  0  0  0  0  0  0  0  0  0  0
  182.3020  176.6670  140.0650 O   0  0  0  0  0  0  0  0  0  0  0  0
  181.3540  178.7440  139.4410 C   0  0  2  0  0  3  0  0  0  0  0  0
  180.1150  178.1050  139.3730 O   0  0  0  0  0  1  0  0  0  0  0  0
  181.8790  179.0810  138.0350 C   0  0  2  0  0  3  0  0  0  0  0  0
  180.7380  182.6480  137.8170 C   0  0  0  0  0  3  0  0  0  0  0  0
  180.2420  182.7260  136.5160 C   0  0  0  0  0  3  0  0  0  0  0  0
  181.2810  181.4930  138.2780 N   0  0  0  0  0  0  0  0  0  0  0  0
  180.8730  180.4180  136.1810 C   0  0  0  0  0  3  0  0  0  0  0  0
  180.3070  181.5990  135.6970 C   0  0  0  0  0  3  0  0  0  0  0  0
  181.3670  180.3820  137.4880 C   0  0  0  0  0  0  0  0  0  0  0  0
  181.7240  178.0010  137.1030 O   0  0  0  0  0  0  0  0  0  0  0  0
  183.7480  176.6330  137.0430 N   0  0  0  0  0  1  0  0  0  0  0  0
  182.7710  177.4220  136.3730 C   0  0  0  0  0  0  0  0  0  0  0  0
  182.8610  177.5930  135.1270 O   0  0  0  0  0  0  0  0  0  0  0  0
  184.8260  179.3240  143.3430 C   0  0  0  0  0  2  0  0  0  0  0  0
  184.8040  178.6550  144.6840 C   0  0  0  0  0  3  0  0  0  0  0  0
  185.6390  179.0320  145.6530 C   0  0  0  0  0  3  0  0  0  0  0  0
  185.5750  178.4060  147.0120 C   0  0  0  0  0  2  0  0  0  0  0  0
  186.9410  178.4420  147.6790 C   0  0  0  0  0  2  0  0  0  0  0  0
  187.9030  177.4950  146.9680 C   0  0  0  0  0  2  0  0  0  0  0  0
  189.2850  177.8500  147.2610 N   0  0  0  0  0  2  0  0  0  0  0  0
  190.0420  176.6120  147.3910 C   0  0  0  0  0  2  0  0  0  0  0  0
  191.3710  176.7240  146.6660 C   0  0  0  0  0  2  0  0  0  0  0  0
  192.2690  175.6690  147.1090 N   0  0  0  0  0  1  0  0  0  0  0  0
  1 21  1  6  0  0  0
  1 38  1  0  0  0  0
  2  3  1  0  0  0  0
  2  1  1  0  0  0  0
  3  8  1  6  0  0  0
  3  4  1  0  0  0  0
  4  5  1  6  0  0  0
  4  7  1  0  0  0  0
  6  7  2  0  0  0  0
  9 17  1  0  0  0  0
 11 16  1  0  0  0  0
 12 10  2  0  0  0  0
 13 14  1  0  0  0  0
 13 11  2  0  0  0  0
 14 15  2  0  0  0  0
 15 12  1  0  0  0  0
 16 12  1  0  0  0  0
 16  8  1  1  0  0  0
 17 11  1  0  0  0  0
 18  9  2  0  0  0  0
 18 13  1  0  0  0  0
 19  9  1  0  0  0  0
 20 19  1  0  0  0  0
 21 22  1  0  0  0  0
 23 22  1  0  0  0  0
 24 23  2  0  0  0  0
 25 26  1  6  0  0  0
 25 23  1  0  0  0  0
 27 34  1  6  0  0  0
 27 25  1  0  0  0  0
 28 30  1  0  0  0  0
 29 28  2  0  0  0  0
 31 33  1  0  0  0  0
 32 31  2  0  0  0  0
 32 29  1  0  0  0  0
 33 27  1  0  0  0  0
 33 30  2  0  0  0  0
 36 35  1  0  0  0  0
 36 34  1  0  0  0  0
 37 36  2  0  0  0  0
 38 39  1  0  0  0  0
 39 40  2  0  0  0  0
 40 41  1  0  0  0  0
 41 42  1  0  0  0  0
 43 44  1  0  0  0  0
 43 42  1  0  0  0  0
 44 45  1  0  0  0  0
 46 47  1  0  0  0  0
 46 45  1  0  0  0  0
M  END
>  <MODEL>
6

>  <REMARK>
 VINA RESULT:      -6.2      2.428      7.221
  Name = 
  23 active torsions:
  status: ('A' for Active; 'I' for Inactive)
    1  A    between atoms: C_1  and  C_4
    2  A    between atoms: C_2  and  C_12
    3  A    between atoms: C_2  and  O_22
    4  A    between atoms: C_2  and  C_41
    5  A    between atoms: N_3  and  C_19
    6  A    between atoms: N_3  and  C_33
    7  A    between atoms: C_5  and  C_6
    8  A    between atoms: C_6  and  C_30
    9  A    between atoms: C_8  and  C_25
   10  A    between atoms: C_8  and  C_34
   11  A    between atoms: C_10  and  C_19
   12  A    between atoms: C_10  and  C_47
   13  A    between atoms: C_12  and  C_36
   14  A    between atoms: C_16  and  C_33
   15  A    between atoms: C_17  and  C_30
   16  A    between atoms: C_17  and  C_31
   17  A    between atoms: O_22  and  C_26
   18  A    between atoms: C_25  and  C_35
   19  A    between atoms: C_25  and  C_40
   20  A    between atoms: C_30  and  C_35
   21  A    between atoms: C_31  and  C_36
   22  A    between atoms: C_40  and  C_45
   23  A    between atoms: C_42  and  C_47
                            x       y       z     vdW  Elec       q    Type
                         _______ _______ _______ _____ _____    ______ ____

>  <TORSDO>
F 23

$$$$
=
 OpenBabel10222415503D

 47 49  0  0  1  0  0  0  0  0999 V2000
  189.6510  177.2050  140.1690 C   0  0  2  0  0  3  0  0  0  0  0  0
  190.5060  177.9030  141.2340 C   0  0  0  0  0  2  0  0  0  0  0  0
  190.2840  177.3180  142.6350 C   0  0  1  0  0  3  0  0  0  0  0  0
  191.6330  177.1550  143.3750 C   0  0  1  0  0  3  0  0  0  0  0  0
  192.0110  178.3460  144.2450 C   0  0  0  0  0  1  0  0  0  0  0  0
  191.9260  175.9390  145.3950 O   0  0  0  0  0  0  0  0  0  0  0  0
  191.6580  175.9020  144.2020 C   0  0  0  0  0  3  0  0  0  0  0  0
  189.2880  178.2290  143.3550 C   0  0  0  0  0  2  0  0  0  0  0  0
  185.1620  178.4180  142.2320 C   0  0  0  0  0  0  0  0  0  0  0  0
  189.1840  177.8770  146.3280 O   0  0  0  0  0  0  0  0  0  0  0  0
  186.8200  177.8760  143.5360 C   0  0  0  0  0  0  0  0  0  0  0  0
  188.1170  177.8170  145.6630 C   0  0  0  0  0  0  0  0  0  0  0  0
  185.6680  178.0210  144.2590 C   0  0  0  0  0  0  0  0  0  0  0  0
  185.6450  177.9290  145.7260 C   0  0  0  0  0  3  0  0  0  0  0  0
  186.8110  177.8430  146.3850 C   0  0  0  0  0  3  0  0  0  0  0  0
  188.1520  177.5740  144.1560 C   0  0  2  0  0  3  0  0  0  0  0  0
  186.5200  178.1270  142.2180 C   0  0  0  0  0  3  0  0  0  0  0  0
  184.6340  178.3810  143.4770 N   0  0  0  0  0  2  0  0  0  0  0  0
  184.4470  178.9920  141.0450 C   0  0  0  0  0  2  0  0  0  0  0  0
  182.9740  178.6060  141.0460 C   0  0  0  0  0  1  0  0  0  0  0  0
  190.4940  176.3090  139.2540 C   0  0  0  0  0  2  0  0  0  0  0  0
  191.2710  177.0800  138.2000 C   0  0  0  0  0  2  0  0  0  0  0  0
  192.7350  176.7510  138.2060 C   0  0  0  0  0  0  0  0  0  0  0  0
  193.3870  176.9880  139.2130 O   0  0  0  0  0  0  0  0  0  0  0  0
  193.3640  175.9970  137.0640 C   0  0  2  0  0  3  0  0  0  0  0  0
  192.6910  176.2990  135.8780 O   0  0  0  0  0  1  0  0  0  0  0  0
  193.3750  174.4810  137.3200 C   0  0  2  0  0  3  0  0  0  0  0  0
  197.0750  174.1980  137.8720 C   0  0  0  0  0  3  0  0  0  0  0  0
  197.3110  172.8430  137.6410 C   0  0  0  0  0  3  0  0  0  0  0  0
  195.8160  174.7000  137.7950 N   0  0  0  0  0  0  0  0  0  0  0  0
  194.9450  172.5400  137.2530 C   0  0  0  0  0  3  0  0  0  0  0  0
  196.2360  172.0130  137.3250 C   0  0  0  0  0  3  0  0  0  0  0  0
  194.7480  173.9010  137.5000 C   0  0  0  0  0  0  0  0  0  0  0  0
  192.5950  173.7430  136.3680 O   0  0  0  0  0  0  0  0  0  0  0  0
  190.5170  172.8770  135.4180 N   0  0  0  0  0  1  0  0  0  0  0  0
  191.2260  173.4730  136.4980 C   0  0  0  0  0  0  0  0  0  0  0  0
  190.6110  173.7530  137.5630 O   0  0  0  0  0  0  0  0  0  0  0  0
  188.7850  178.2060  139.4130 C   0  0  0  0  0  2  0  0  0  0  0  0
  187.7800  177.5250  138.5340 C   0  0  0  0  0  3  0  0  0  0  0  0
  186.8810  178.2300  137.8450 C   0  0  0  0  0  3  0  0  0  0  0  0
  185.9180  177.5550  136.9200 C   0  0  0  0  0  2  0  0  0  0  0  0
  184.5590  177.4040  137.5850 C   0  0  0  0  0  2  0  0  0  0  0  0
  184.0080  176.0010  137.3540 C   0  0  0  0  0  2  0  0  0  0  0  0
  184.7420  175.3280  136.2910 N   0  0  0  0  0  2  0  0  0  0  0  0
  184.2130  173.9760  136.1730 C   0  0  0  0  0  2  0  0  0  0  0  0
  184.4330  173.2050  137.4620 C   0  0  0  0  0  2  0  0  0  0  0  0
  185.8530  172.9620  137.6580 N   0  0  0  0  0  1  0  0  0  0  0  0
  1 21  1  6  0  0  0
  1  2  1  0  0  0  0
  3  2  1  6  0  0  0
  3  8  1  0  0  0  0
  3  4  1  0  0  0  0
  4  7  1  0  0  0  0
  4  5  1  1  0  0  0
  7  6  2  0  0  0  0
  9 18  1  0  0  0  0
 11 16  1  0  0  0  0
 11 13  2  0  0  0  0
 12 10  2  0  0  0  0
 12 15  1  0  0  0  0
 13 14  1  0  0  0  0
 14 15  2  0  0  0  0
 16  8  1  6  0  0  0
 16 12  1  0  0  0  0
 17  9  2  0  0  0  0
 17 11  1  0  0  0  0
 18 13  1  0  0  0  0
 19 20  1  0  0  0  0
 19  9  1  0  0  0  0
 22 23  1  0  0  0  0
 22 21  1  0  0  0  0
 23 24  2  0  0  0  0
 25 26  1  6  0  0  0
 25 27  1  0  0  0  0
 25 23  1  0  0  0  0
 27 34  1  6  0  0  0
 27 33  1  0  0  0  0
 29 28  2  0  0  0  0
 30 28  1  0  0  0  0
 31 32  2  0  0  0  0
 31 33  1  0  0  0  0
 32 29  1  0  0  0  0
 33 30  2  0  0  0  0
 34 36  1  0  0  0  0
 35 36  1  0  0  0  0
 36 37  2  0  0  0  0
 38  1  1  0  0  0  0
 39 38  1  0  0  0  0
 40 39  2  0  0  0  0
 41 42  1  0  0  0  0
 41 40  1  0  0  0  0
 43 42  1  0  0  0  0
 44 43  1  0  0  0  0
 45 44  1  0  0  0  0
 45 46  1  0  0  0  0
 46 47  1  0  0  0  0
M  END
>  <MODEL>
7

>  <REMARK>
 VINA RESULT:      -6.1      3.210      7.287
  Name = 
  23 active torsions:
  status: ('A' for Active; 'I' for Inactive)
    1  A    between atoms: C_1  and  C_4
    2  A    between atoms: C_2  and  C_12
    3  A    between atoms: C_2  and  O_22
    4  A    between atoms: C_2  and  C_41
    5  A    between atoms: N_3  and  C_19
    6  A    between atoms: N_3  and  C_33
    7  A    between atoms: C_5  and  C_6
    8  A    between atoms: C_6  and  C_30
    9  A    between atoms: C_8  and  C_25
   10  A    between atoms: C_8  and  C_34
   11  A    between atoms: C_10  and  C_19
   12  A    between atoms: C_10  and  C_47
   13  A    between atoms: C_12  and  C_36
   14  A    between atoms: C_16  and  C_33
   15  A    between atoms: C_17  and  C_30
   16  A    between atoms: C_17  and  C_31
   17  A    between atoms: O_22  and  C_26
   18  A    between atoms: C_25  and  C_35
   19  A    between atoms: C_25  and  C_40
   20  A    between atoms: C_30  and  C_35
   21  A    between atoms: C_31  and  C_36
   22  A    between atoms: C_40  and  C_45
   23  A    between atoms: C_42  and  C_47
                            x       y       z     vdW  Elec       q    Type
                         _______ _______ _______ _____ _____    ______ ____

>  <TORSDO>
F 23

$$$$
=
 OpenBabel10222415503D

 47 49  0  0  1  0  0  0  0  0999 V2000
  188.3500  178.4720  140.1240 C   0  0  2  0  0  3  0  0  0  0  0  0
  189.1730  178.8160  141.3720 C   0  0  0  0  0  2  0  0  0  0  0  0
  189.2170  177.6580  142.3780 C   0  0  1  0  0  3  0  0  0  0  0  0
  190.4170  176.7280  142.0820 C   0  0  1  0  0  3  0  0  0  0  0  0
  191.7470  177.4560  141.9410 C   0  0  0  0  0  1  0  0  0  0  0  0
  191.5580  175.5390  143.7940 O   0  0  0  0  0  0  0  0  0  0  0  0
  190.5440  175.6480  143.1180 C   0  0  0  0  0  3  0  0  0  0  0  0
  189.2410  178.2740  143.7780 C   0  0  0  0  0  2  0  0  0  0  0  0
  185.1650  178.6300  145.0360 C   0  0  0  0  0  0  0  0  0  0  0  0
  190.6580  177.3730  146.2590 O   0  0  0  0  0  0  0  0  0  0  0  0
  187.2020  177.8700  145.1670 C   0  0  0  0  0  0  0  0  0  0  0  0
  189.4000  177.4280  146.2540 C   0  0  0  0  0  0  0  0  0  0  0  0
  186.6080  177.8670  146.3990 C   0  0  0  0  0  0  0  0  0  0  0  0
  187.3390  177.5020  147.6220 C   0  0  0  0  0  3  0  0  0  0  0  0
  188.6640  177.3060  147.5460 C   0  0  0  0  0  3  0  0  0  0  0  0
  188.6290  177.4710  144.9370 C   0  0  2  0  0  3  0  0  0  0  0  0
  186.2880  178.3600  144.2640 C   0  0  0  0  0  3  0  0  0  0  0  0
  185.3560  178.3570  146.3470 N   0  0  0  0  0  2  0  0  0  0  0  0
  183.9950  179.4090  144.5130 C   0  0  0  0  0  2  0  0  0  0  0  0
  183.2810  178.6550  143.3990 C   0  0  0  0  0  1  0  0  0  0  0  0
  186.8430  178.5000  140.4040 C   0  0  0  0  0  2  0  0  0  0  0  0
  185.9930  178.2480  139.1700 C   0  0  0  0  0  2  0  0  0  0  0  0
  184.6590  178.9320  139.2390 C   0  0  0  0  0  0  0  0  0  0  0  0
  184.6210  180.1270  139.4890 O   0  0  0  0  0  0  0  0  0  0  0  0
  183.3970  178.2060  138.8500 C   0  0  2  0  0  3  0  0  0  0  0  0
  183.4550  177.8600  137.4980 O   0  0  0  0  0  1  0  0  0  0  0  0
  182.1430  179.0440  139.1500 C   0  0  2  0  0  3  0  0  0  0  0  0
  179.5390  176.4840  140.0100 C   0  0  0  0  0  3  0  0  0  0  0  0
  178.9530  177.0240  141.1540 C   0  0  0  0  0  3  0  0  0  0  0  0
  180.5710  177.1220  139.3990 N   0  0  0  0  0  0  0  0  0  0  0  0
  180.5030  178.8730  141.0250 C   0  0  0  0  0  3  0  0  0  0  0  0
  179.4380  178.2300  141.6590 C   0  0  0  0  0  3  0  0  0  0  0  0
  181.0700  178.2970  139.8860 C   0  0  0  0  0  0  0  0  0  0  0  0
  181.6350  179.7290  137.9960 O   0  0  0  0  0  0  0  0  0  0  0  0
  182.1880  182.0820  138.3570 N   0  0  0  0  0  1  0  0  0  0  0  0
  181.2550  181.0780  137.9730 C   0  0  0  0  0  0  0  0  0  0  0  0
  180.0940  181.4160  137.6170 O   0  0  0  0  0  0  0  0  0  0  0  0
  188.8290  177.1720  139.4900 C   0  0  0  0  0  2  0  0  0  0  0  0
  190.0650  177.3720  138.6660 C   0  0  0  0  0  3  0  0  0  0  0  0
  190.7580  176.3300  138.2040 C   0  0  0  0  0  3  0  0  0  0  0  0
  191.9570  176.5290  137.3300 C   0  0  0  0  0  2  0  0  0  0  0  0
  193.2320  176.4800  138.1580 C   0  0  0  0  0  2  0  0  0  0  0  0
  193.9230  175.1310  137.9880 C   0  0  0  0  0  2  0  0  0  0  0  0
  195.1850  175.2840  137.2770 N   0  0  0  0  0  2  0  0  0  0  0  0
  196.1120  174.2890  137.8000 C   0  0  0  0  0  2  0  0  0  0  0  0
  197.3600  174.2220  136.9380 C   0  0  0  0  0  2  0  0  0  0  0  0
  197.9560  175.5430  136.8230 N   0  0  0  0  0  1  0  0  0  0  0  0
  1 38  1  1  0  0  0
  1 21  1  0  0  0  0
  1  2  1  0  0  0  0
  3  2  1  6  0  0  0
  3  8  1  0  0  0  0
  4  5  1  1  0  0  0
  4  3  1  0  0  0  0
  4  7  1  0  0  0  0
  7  6  2  0  0  0  0
  9 18  1  0  0  0  0
 11 13  2  0  0  0  0
 12 10  2  0  0  0  0
 12 15  1  0  0  0  0
 13 14  1  0  0  0  0
 15 14  2  0  0  0  0
 16  8  1  6  0  0  0
 16 11  1  0  0  0  0
 16 12  1  0  0  0  0
 17  9  2  0  0  0  0
 17 11  1  0  0  0  0
 18 13  1  0  0  0  0
 19  9  1  0  0  0  0
 20 19  1  0  0  0  0
 22 23  1  0  0  0  0
 22 21  1  0  0  0  0
 23 24  2  0  0  0  0
 25 26  1  6  0  0  0
 25 27  1  0  0  0  0
 25 23  1  0  0  0  0
 27 34  1  6  0  0  0
 27 33  1  0  0  0  0
 28 29  1  0  0  0  0
 29 32  2  0  0  0  0
 30 33  1  0  0  0  0
 30 28  2  0  0  0  0
 31 32  1  0  0  0  0
 33 31  2  0  0  0  0
 36 34  1  0  0  0  0
 36 35  1  0  0  0  0
 37 36  2  0  0  0  0
 39 38  1  0  0  0  0
 40 39  2  0  0  0  0
 41 42  1  0  0  0  0
 41 40  1  0  0  0  0
 43 42  1  0  0  0  0
 44 45  1  0  0  0  0
 44 43  1  0  0  0  0
 46 45  1  0  0  0  0
 47 46  1  0  0  0  0
M  END
>  <MODEL>
8

>  <REMARK>
 VINA RESULT:      -6.0      1.946      3.157
  Name = 
  23 active torsions:
  status: ('A' for Active; 'I' for Inactive)
    1  A    between atoms: C_1  and  C_4
    2  A    between atoms: C_2  and  C_12
    3  A    between atoms: C_2  and  O_22
    4  A    between atoms: C_2  and  C_41
    5  A    between atoms: N_3  and  C_19
    6  A    between atoms: N_3  and  C_33
    7  A    between atoms: C_5  and  C_6
    8  A    between atoms: C_6  and  C_30
    9  A    between atoms: C_8  and  C_25
   10  A    between atoms: C_8  and  C_34
   11  A    between atoms: C_10  and  C_19
   12  A    between atoms: C_10  and  C_47
   13  A    between atoms: C_12  and  C_36
   14  A    between atoms: C_16  and  C_33
   15  A    between atoms: C_17  and  C_30
   16  A    between atoms: C_17  and  C_31
   17  A    between atoms: O_22  and  C_26
   18  A    between atoms: C_25  and  C_35
   19  A    between atoms: C_25  and  C_40
   20  A    between atoms: C_30  and  C_35
   21  A    between atoms: C_31  and  C_36
   22  A    between atoms: C_40  and  C_45
   23  A    between atoms: C_42  and  C_47
                            x       y       z     vdW  Elec       q    Type
                         _______ _______ _______ _____ _____    ______ ____

>  <TORSDO>
F 23

$$$$
=
 OpenBabel10222415503D

 47 49  0  0  1  0  0  0  0  0999 V2000
  188.5710  178.1660  140.0030 C   0  0  2  0  0  3  0  0  0  0  0  0
  188.3510  178.5840  141.4620 C   0  0  0  0  0  2  0  0  0  0  0  0
  188.6470  177.4430  142.4450 C   0  0  1  0  0  3  0  0  0  0  0  0
  189.7580  177.8580  143.4380 C   0  0  1  0  0  3  0  0  0  0  0  0
  190.0860  176.7980  144.4810 C   0  0  0  0  0  1  0  0  0  0  0  0
  191.8970  177.4460  142.4880 O   0  0  0  0  0  0  0  0  0  0  0  0
  191.0140  178.2610  142.7200 C   0  0  0  0  0  3  0  0  0  0  0  0
  187.3240  177.0680  143.1160 C   0  0  0  0  0  2  0  0  0  0  0  0
  186.8850  178.2090  147.2180 C   0  0  0  0  0  0  0  0  0  0  0  0
  184.7170  177.8810  141.8850 O   0  0  0  0  0  0  0  0  0  0  0  0
  186.4260  178.3080  145.0910 C   0  0  0  0  0  0  0  0  0  0  0  0
  184.9700  178.2190  143.0710 C   0  0  0  0  0  0  0  0  0  0  0  0
  185.3470  178.7000  145.8340 C   0  0  0  0  0  0  0  0  0  0  0  0
  184.0470  179.0160  145.2250 C   0  0  0  0  0  3  0  0  0  0  0  0
  183.8730  178.7750  143.9160 C   0  0  0  0  0  3  0  0  0  0  0  0
  186.4040  178.2010  143.5950 C   0  0  2  0  0  3  0  0  0  0  0  0
  187.4390  177.9850  145.9630 C   0  0  0  0  0  3  0  0  0  0  0  0
  185.5990  178.6220  147.1540 N   0  0  0  0  0  2  0  0  0  0  0  0
  187.5500  177.7570  148.4850 C   0  0  0  0  0  2  0  0  0  0  0  0
  188.9810  178.2700  148.5730 C   0  0  0  0  0  1  0  0  0  0  0  0
  187.2470  177.9810  139.2520 C   0  0  0  0  0  2  0  0  0  0  0  0
  187.3830  178.1120  137.7440 C   0  0  0  0  0  2  0  0  0  0  0  0
  187.2350  176.7980  137.0350 C   0  0  0  0  0  0  0  0  0  0  0  0
  188.0670  175.9240  137.2320 O   0  0  0  0  0  0  0  0  0  0  0  0
  186.0030  176.4920  136.2220 C   0  0  2  0  0  3  0  0  0  0  0  0
  185.6260  177.6260  135.5010 O   0  0  0  0  0  1  0  0  0  0  0  0
  184.8480  175.9910  137.1050 C   0  0  2  0  0  3  0  0  0  0  0  0
  182.9470  173.2230  135.4340 C   0  0  0  0  0  3  0  0  0  0  0  0
  183.2900  172.1130  136.2060 C   0  0  0  0  0  3  0  0  0  0  0  0
  183.4710  174.4430  135.7130 N   0  0  0  0  0  0  0  0  0  0  0  0
  184.7120  173.5360  137.5440 C   0  0  0  0  0  3  0  0  0  0  0  0
  184.1750  172.2760  137.2710 C   0  0  0  0  0  3  0  0  0  0  0  0
  184.3500  174.6220  136.7430 C   0  0  0  0  0  0  0  0  0  0  0  0
  183.7810  176.9420  137.2280 O   0  0  0  0  0  0  0  0  0  0  0  0
  183.0310  176.3170  139.4690 N   0  0  0  0  0  1  0  0  0  0  0  0
  182.7620  176.8760  138.1880 C   0  0  0  0  0  0  0  0  0  0  0  0
  181.6050  177.3070  137.9310 O   0  0  0  0  0  0  0  0  0  0  0  0
  189.4990  176.9600  139.9090 C   0  0  0  0  0  2  0  0  0  0  0  0
  190.7450  177.2710  139.1350 C   0  0  0  0  0  3  0  0  0  0  0  0
  191.5890  176.3030  138.7760 C   0  0  0  0  0  3  0  0  0  0  0  0
  192.8020  176.6050  137.9510 C   0  0  0  0  0  2  0  0  0  0  0  0
  193.5420  175.3220  137.6050 C   0  0  0  0  0  2  0  0  0  0  0  0
  193.3860  175.0040  136.1220 C   0  0  0  0  0  2  0  0  0  0  0  0
  194.2440  173.8900  135.7410 N   0  0  0  0  0  2  0  0  0  0  0  0
  194.9870  173.4770  136.9240 C   0  0  0  0  0  2  0  0  0  0  0  0
  195.5510  172.0800  136.7370 C   0  0  0  0  0  2  0  0  0  0  0  0
  195.8290  171.4790  138.0310 N   0  0  0  0  0  1  0  0  0  0  0  0
  1 21  1  1  0  0  0
  1  2  1  0  0  0  0
  3  2  1  6  0  0  0
  3  8  1  0  0  0  0
  3  4  1  0  0  0  0
  4  5  1  1  0  0  0
  6  7  2  0  0  0  0
  7  4  1  0  0  0  0
  9 19  1  0  0  0  0
 10 12  2  0  0  0  0
 11 13  2  0  0  0  0
 11 17  1  0  0  0  0
 12 16  1  0  0  0  0
 12 15  1  0  0  0  0
 13 18  1  0  0  0  0
 14 13  1  0  0  0  0
 15 14  2  0  0  0  0
 16  8  1  1  0  0  0
 16 11  1  0  0  0  0
 17  9  2  0  0  0  0
 18  9  1  0  0  0  0
 19 20  1  0  0  0  0
 22 21  1  0  0  0  0
 23 24  2  0  0  0  0
 23 22  1  0  0  0  0
 25 26  1  1  0  0  0
 25 23  1  0  0  0  0
 25 27  1  0  0  0  0
 27 34  1  6  0  0  0
 28 30  2  0  0  0  0
 28 29  1  0  0  0  0
 29 32  2  0  0  0  0
 30 33  1  0  0  0  0
 32 31  1  0  0  0  0
 33 27  1  0  0  0  0
 33 31  2  0  0  0  0
 34 36  1  0  0  0  0
 36 35  1  0  0  0  0
 37 36  2  0  0  0  0
 38  1  1  0  0  0  0
 39 38  1  0  0  0  0
 40 39  2  0  0  0  0
 41 40  1  0  0  0  0
 42 41  1  0  0  0  0
 43 42  1  0  0  0  0
 44 43  1  0  0  0  0
 44 45  1  0  0  0  0
 46 45  1  0  0  0  0
 46 47  1  0  0  0  0
M  END
>  <MODEL>
9

>  <REMARK>
 VINA RESULT:      -6.0      2.032      3.595
  Name = 
  23 active torsions:
  status: ('A' for Active; 'I' for Inactive)
    1  A    between atoms: C_1  and  C_4
    2  A    between atoms: C_2  and  C_12
    3  A    between atoms: C_2  and  O_22
    4  A    between atoms: C_2  and  C_41
    5  A    between atoms: N_3  and  C_19
    6  A    between atoms: N_3  and  C_33
    7  A    between atoms: C_5  and  C_6
    8  A    between atoms: C_6  and  C_30
    9  A    between atoms: C_8  and  C_25
   10  A    between atoms: C_8  and  C_34
   11  A    between atoms: C_10  and  C_19
   12  A    between atoms: C_10  and  C_47
   13  A    between atoms: C_12  and  C_36
   14  A    between atoms: C_16  and  C_33
   15  A    between atoms: C_17  and  C_30
   16  A    between atoms: C_17  and  C_31
   17  A    between atoms: O_22  and  C_26
   18  A    between atoms: C_25  and  C_35
   19  A    between atoms: C_25  and  C_40
   20  A    between atoms: C_30  and  C_35
   21  A    between atoms: C_31  and  C_36
   22  A    between atoms: C_40  and  C_45
   23  A    between atoms: C_42  and  C_47
                            x       y       z     vdW  Elec       q    Type
                         _______ _______ _______ _____ _____    ______ ____

>  <TORSDO>
F 23

$$$$
