=
 OpenBabel10222419103D

 50 57  0  0  1  0  0  0  0  0999 V2000
  190.6880  175.6430  143.0380 C   0  0  0  0  0  2  0  0  0  0  0  0
  191.3340  176.7860  142.2570 C   0  0  0  0  0  2  0  0  0  0  0  0
  188.7390  176.5360  140.5390 O   0  0  0  0  0  0  0  0  0  0  0  0
  189.5420  178.3530  142.8760 C   0  0  0  0  0  2  0  0  0  0  0  0
  189.6290  177.4290  140.5810 C   0  0  0  0  0  0  0  0  0  0  0  0
  190.2940  177.7040  141.8120 N   0  0  0  0  0  0  0  0  0  0  0  0
  188.9800  177.3280  143.8380 C   0  0  0  0  0  0  0  0  0  0  0  0
  189.5520  176.1120  143.9180 C   0  0  0  0  0  3  0  0  0  0  0  0
  186.4910  177.9180  144.2240 C   0  0  0  0  0  0  0  0  0  0  0  0
  188.0200  177.8790  146.0840 C   0  0  0  0  0  0  0  0  0  0  0  0
  185.7580  178.4890  146.4720 N   0  0  0  0  0  0  0  0  0  0  0  0
  189.1270  177.7560  146.7780 O   0  0  0  0  0  0  0  0  0  0  0  0
  187.5070  178.3730  148.1920 C   0  0  0  0  0  3  0  0  0  0  0  0
  187.8210  177.6930  144.7060 C   0  0  0  0  0  0  0  0  0  0  0  0
  185.4880  178.3330  145.1460 C   0  0  0  0  0  3  0  0  0  0  0  0
  187.0140  178.2520  146.9150 C   0  0  0  0  0  0  0  0  0  0  0  0
  188.8590  178.0400  148.0410 C   0  0  0  0  0  3  0  0  0  0  0  0
  186.5180  178.9440  141.8760 C   0  0  0  0  0  2  0  0  0  0  0  0
  185.0660  178.6250  142.1920 C   0  0  1  0  0  0  0  0  0  0  0  0
  186.1620  177.7290  142.7480 C   0  0  2  0  0  3  0  0  0  0  0  0
  184.4420  179.4760  143.1150 O   0  0  0  0  0  1  0  0  0  0  0  0
  184.2330  178.0160  141.0660 C   0  0  0  0  0  2  0  0  0  0  0  0
  180.2620  179.0720  139.2930 C   0  0  0  0  0  0  0  0  0  0  0  0
  180.3940  179.5800  136.8830 C   0  0  0  0  0  1  0  0  0  0  0  0
  182.2710  178.5600  138.1450 C   0  0  0  0  0  2  0  0  0  0  0  0
  181.3480  179.3160  140.2660 C   0  0  0  0  0  2  0  0  0  0  0  0
  184.6940  179.9000  139.6750 O   0  0  0  0  0  0  0  0  0  0  0  0
  179.0840  179.3040  139.5230 O   0  0  0  0  0  0  0  0  0  0  0  0
  180.7570  178.5890  137.9720 C   0  0  1  0  0  3  0  0  0  0  0  0
  182.5410  179.0420  139.4910 N   0  0  0  0  0  0  0  0  0  0  0  0
  183.8490  179.0450  140.0540 C   0  0  0  0  0  0  0  0  0  0  0  0
  190.0500  178.1430  139.3330 C   0  0  1  0  0  3  0  0  0  0  0  0
  190.5370  177.1780  138.3670 N   0  0  0  0  0  1  0  0  0  0  0  0
  188.8990  178.9250  138.7190 C   0  0  0  0  0  2  0  0  0  0  0  0
  188.9510  178.8840  137.1980 C   0  0  0  0  0  2  0  0  0  0  0  0
  187.5810  178.5670  136.6250 C   0  0  0  0  0  2  0  0  0  0  0  0
  186.8690  177.5710  137.5290 C   0  0  0  0  0  2  0  0  0  0  0  0
  187.3080  176.2570  137.2870 O   0  0  0  0  0  0  0  0  0  0  0  0
  184.0180  175.8130  135.9920 C   0  0  0  0  0  2  0  0  0  0  0  0
  187.1780  174.9590  134.8180 O   0  0  0  0  0  1  0  0  0  0  0  0
  184.0550  173.1040  136.8080 C   0  0  2  0  0  3  0  0  0  0  0  0
  184.0810  173.4140  135.4290 O   0  0  0  0  0  0  0  0  0  0  0  0
  184.7020  174.6770  135.2220 C   0  0  2  0  0  3  0  0  0  0  0  0
  186.4830  173.9210  136.9870 C   0  0  1  0  0  0  0  0  0  0  0  0
  185.4590  172.8390  137.3670 C   0  0  0  0  0  2  0  0  0  0  0  0
  183.1810  171.8860  137.0470 C   0  0  0  0  0  1  0  0  0  0  0  0
  184.7860  175.9600  137.3010 C   0  0  0  0  0  2  0  0  0  0  0  0
  186.1460  174.6600  135.7070 C   0  0  1  0  0  0  0  0  0  0  0  0
  186.1890  175.4310  137.0210 C   0  0  1  0  0  0  0  0  0  0  0  0
  187.8290  173.5580  137.0660 O   0  0  0  0  0  1  0  0  0  0  0  0
  1  8  1  0  0  0  0
  2  1  1  0  0  0  0
  3  5  2  0  0  0  0
  4  7  1  0  0  0  0
  5  6  1  0  0  0  0
  6  2  1  0  0  0  0
  6  4  1  0  0  0  0
  7  8  2  0  0  0  0
  7 14  1  0  0  0  0
  9 14  2  0  0  0  0
  9 15  1  0  0  0  0
 10 12  1  0  0  0  0
 10 16  2  0  0  0  0
 11 16  1  0  0  0  0
 12 17  1  0  0  0  0
 14 10  1  0  0  0  0
 15 11  2  0  0  0  0
 16 13  1  0  0  0  0
 17 13  2  0  0  0  0
 18 19  1  0  0  0  0
 18 20  1  0  0  0  0
 19 20  1  0  0  0  0
 19 21  1  1  0  0  0
 20  9  1  1  0  0  0
 22 19  1  0  0  0  0
 23 28  2  0  0  0  0
 23 26  1  0  0  0  0
 25 30  1  0  0  0  0
 27 31  2  0  0  0  0
 29 24  1  6  0  0  0
 29 25  1  0  0  0  0
 29 23  1  0  0  0  0
 30 31  1  0  0  0  0
 30 26  1  0  0  0  0
 31 22  1  0  0  0  0
 32 33  1  6  0  0  0
 32  5  1  0  0  0  0
 34 32  1  0  0  0  0
 35 34  1  0  0  0  0
 36 35  1  0  0  0  0
 36 37  1  0  0  0  0
 38 37  1  0  0  0  0
 39 47  1  0  0  0  0
 41 46  1  6  0  0  0
 41 45  1  0  0  0  0
 42 41  1  0  0  0  0
 43 42  1  0  0  0  0
 43 48  1  0  0  0  0
 43 39  1  1  0  0  0
 44 49  1  0  0  0  0
 44 50  1  1  0  0  0
 44 45  1  0  0  0  0
 48 40  1  6  0  0  0
 48 44  1  0  0  0  0
 48 49  1  0  0  0  0
 49 38  1  1  0  0  0
 49 47  1  0  0  0  0
M  END
>  <MODEL>
1

>  <REMARK>
 VINA RESULT:      -9.0      0.000      0.000
  Name = 
  11 active torsions:
  status: ('A' for Active; 'I' for Inactive)
    1  A    between atoms: C_1  and  C_25
    2  A    between atoms: C_3  and  C_43
    3  A    between atoms: C_3  and  C_44
    4  A    between atoms: C_9  and  C_33
    5  A    between atoms: C_12  and  C_28
    6  A    between atoms: C_12  and  C_34
    7  A    between atoms: C_24  and  C_49
    8  A    between atoms: C_28  and  C_43
    9  A    between atoms: C_33  and  C_48
   10  A    between atoms: C_34  and  O_36
   11  A    between atoms: O_36  and  C_40
                            x       y       z     vdW  Elec       q    Type
                         _______ _______ _______ _____ _____    ______ ____

>  <TORSDO>
F 11

$$$$
=
 OpenBabel10222419103D

 50 57  0  0  1  0  0  0  0  0999 V2000
  184.2070  179.3630  144.4690 C   0  0  0  0  0  2  0  0  0  0  0  0
  183.7780  178.4650  143.3100 C   0  0  0  0  0  2  0  0  0  0  0  0
  186.0300  180.0170  141.8050 O   0  0  0  0  0  0  0  0  0  0  0  0
  185.9530  177.3180  143.2620 C   0  0  0  0  0  2  0  0  0  0  0  0
  185.3930  178.9690  141.5050 C   0  0  0  0  0  0  0  0  0  0  0  0
  184.9540  178.0910  142.5380 N   0  0  0  0  0  0  0  0  0  0  0  0
  186.3510  178.0220  144.5410 C   0  0  0  0  0  0  0  0  0  0  0  0
  185.5130  178.9210  145.0910 C   0  0  0  0  0  3  0  0  0  0  0  0
  188.7680  177.0980  144.5100 C   0  0  0  0  0  0  0  0  0  0  0  0
  187.8120  177.8980  146.5710 C   0  0  0  0  0  0  0  0  0  0  0  0
  190.0100  176.9980  146.5990 N   0  0  0  0  0  0  0  0  0  0  0  0
  186.9560  178.3980  147.4300 O   0  0  0  0  0  0  0  0  0  0  0  0
  188.8150  177.8750  148.5570 C   0  0  0  0  0  3  0  0  0  0  0  0
  187.6510  177.6830  145.1930 C   0  0  0  0  0  0  0  0  0  0  0  0
  189.9270  176.7560  145.2610 C   0  0  0  0  0  3  0  0  0  0  0  0
  188.9560  177.5710  147.2240 C   0  0  0  0  0  0  0  0  0  0  0  0
  187.5200  178.4030  148.6250 C   0  0  0  0  0  3  0  0  0  0  0  0
  189.8750  175.9910  142.4820 C   0  0  0  0  0  2  0  0  0  0  0  0
  189.8060  177.4790  142.1780 C   0  0  1  0  0  0  0  0  0  0  0  0
  188.7050  176.8380  143.0100 C   0  0  2  0  0  3  0  0  0  0  0  0
  190.7130  178.2860  142.8800 O   0  0  0  0  0  1  0  0  0  0  0  0
  189.4060  177.8750  140.7600 C   0  0  0  0  0  2  0  0  0  0  0  0
  189.1750  177.2620  136.3330 C   0  0  0  0  0  0  0  0  0  0  0  0
  190.4860  175.3180  135.5650 C   0  0  0  0  0  1  0  0  0  0  0  0
  190.0150  175.7590  137.9610 C   0  0  0  0  0  2  0  0  0  0  0  0
  189.5140  178.0970  137.5050 C   0  0  0  0  0  2  0  0  0  0  0  0
  191.6530  177.3970  140.1150 O   0  0  0  0  0  0  0  0  0  0  0  0
  188.7780  177.7180  135.2700 O   0  0  0  0  0  0  0  0  0  0  0  0
  189.4430  175.8110  136.5490 C   0  0  1  0  0  3  0  0  0  0  0  0
  190.0690  177.1340  138.4340 N   0  0  0  0  0  0  0  0  0  0  0  0
  190.4450  177.4700  139.7660 C   0  0  0  0  0  0  0  0  0  0  0  0
  185.0240  178.6860  140.0810 C   0  0  1  0  0  3  0  0  0  0  0  0
  184.4240  179.8690  139.4940 N   0  0  0  0  0  1  0  0  0  0  0  0
  186.2380  178.2830  139.2570 C   0  0  0  0  0  2  0  0  0  0  0  0
  185.9030  178.2210  137.7730 C   0  0  0  0  0  2  0  0  0  0  0  0
  185.1770  176.9280  137.4420 C   0  0  0  0  0  2  0  0  0  0  0  0
  183.9090  177.2430  136.6610 C   0  0  0  0  0  2  0  0  0  0  0  0
  182.8110  176.5170  137.1570 O   0  0  0  0  0  0  0  0  0  0  0  0
  180.2810  179.0250  137.2590 C   0  0  0  0  0  2  0  0  0  0  0  0
  180.2730  175.6030  137.8780 O   0  0  0  0  0  1  0  0  0  0  0  0
  180.4640  179.1050  140.0820 C   0  0  2  0  0  3  0  0  0  0  0  0
  179.3000  178.5790  139.4760 O   0  0  0  0  0  0  0  0  0  0  0  0
  179.6190  178.0190  138.2070 C   0  0  2  0  0  3  0  0  0  0  0  0
  181.7360  176.9940  139.3580 C   0  0  1  0  0  0  0  0  0  0  0  0
  181.4550  178.0040  140.4830 C   0  0  0  0  0  2  0  0  0  0  0  0
  180.0870  179.9130  141.3100 C   0  0  0  0  0  1  0  0  0  0  0  0
  181.7850  178.8260  137.4140 C   0  0  0  0  0  2  0  0  0  0  0  0
  180.6090  176.8720  138.3500 C   0  0  1  0  0  0  0  0  0  0  0  0
  181.9670  177.3870  137.8890 C   0  0  1  0  0  0  0  0  0  0  0  0
  182.2520  175.7570  139.7480 O   0  0  0  0  0  1  0  0  0  0  0  0
  1  8  1  0  0  0  0
  2  1  1  0  0  0  0
  4  7  1  0  0  0  0
  5  3  2  0  0  0  0
  5  6  1  0  0  0  0
  6  4  1  0  0  0  0
  6  2  1  0  0  0  0
  7  8  2  0  0  0  0
  7 14  1  0  0  0  0
  9 14  2  0  0  0  0
  9 15  1  0  0  0  0
 10 16  2  0  0  0  0
 10 12  1  0  0  0  0
 11 16  1  0  0  0  0
 12 17  1  0  0  0  0
 13 17  2  0  0  0  0
 14 10  1  0  0  0  0
 15 11  2  0  0  0  0
 16 13  1  0  0  0  0
 18 20  1  0  0  0  0
 19 18  1  0  0  0  0
 19 21  1  1  0  0  0
 19 20  1  0  0  0  0
 20  9  1  1  0  0  0
 22 19  1  0  0  0  0
 23 29  1  0  0  0  0
 23 26  1  0  0  0  0
 25 30  1  0  0  0  0
 26 30  1  0  0  0  0
 28 23  2  0  0  0  0
 29 24  1  6  0  0  0
 29 25  1  0  0  0  0
 30 31  1  0  0  0  0
 31 27  2  0  0  0  0
 31 22  1  0  0  0  0
 32 33  1  6  0  0  0
 32  5  1  0  0  0  0
 34 32  1  0  0  0  0
 35 34  1  0  0  0  0
 36 35  1  0  0  0  0
 37 38  1  0  0  0  0
 37 36  1  0  0  0  0
 39 47  1  0  0  0  0
 41 45  1  0  0  0  0
 41 46  1  1  0  0  0
 42 41  1  0  0  0  0
 43 39  1  6  0  0  0
 43 48  1  0  0  0  0
 43 42  1  0  0  0  0
 44 50  1  1  0  0  0
 44 45  1  0  0  0  0
 47 49  1  0  0  0  0
 48 40  1  6  0  0  0
 48 44  1  0  0  0  0
 49 38  1  6  0  0  0
 49 48  1  0  0  0  0
 49 44  1  0  0  0  0
M  END
>  <MODEL>
2

>  <REMARK>
 VINA RESULT:      -9.0      2.202      6.051
  Name = 
  11 active torsions:
  status: ('A' for Active; 'I' for Inactive)
    1  A    between atoms: C_1  and  C_25
    2  A    between atoms: C_3  and  C_43
    3  A    between atoms: C_3  and  C_44
    4  A    between atoms: C_9  and  C_33
    5  A    between atoms: C_12  and  C_28
    6  A    between atoms: C_12  and  C_34
    7  A    between atoms: C_24  and  C_49
    8  A    between atoms: C_28  and  C_43
    9  A    between atoms: C_33  and  C_48
   10  A    between atoms: C_34  and  O_36
   11  A    between atoms: O_36  and  C_40
                            x       y       z     vdW  Elec       q    Type
                         _______ _______ _______ _____ _____    ______ ____

>  <TORSDO>
F 11

$$$$
=
 OpenBabel10222419103D

 50 57  0  0  1  0  0  0  0  0999 V2000
  190.2970  175.6270  142.8290 C   0  0  0  0  0  2  0  0  0  0  0  0
  190.9870  176.7730  142.0910 C   0  0  0  0  0  2  0  0  0  0  0  0
  188.3550  176.7410  140.4130 O   0  0  0  0  0  0  0  0  0  0  0  0
  189.2890  178.3960  142.8210 C   0  0  0  0  0  2  0  0  0  0  0  0
  189.2900  177.5840  140.4830 C   0  0  0  0  0  0  0  0  0  0  0  0
  189.9880  177.7640  141.7120 N   0  0  0  0  0  0  0  0  0  0  0  0
  188.6910  177.3550  143.7420 C   0  0  0  0  0  0  0  0  0  0  0  0
  189.2010  176.1090  143.7520 C   0  0  0  0  0  3  0  0  0  0  0  0
  186.2260  177.9860  144.2110 C   0  0  0  0  0  0  0  0  0  0  0  0
  187.8130  177.9060  146.0210 C   0  0  0  0  0  0  0  0  0  0  0  0
  185.5760  178.5540  146.4850 N   0  0  0  0  0  0  0  0  0  0  0  0
  188.9390  177.7590  146.6790 O   0  0  0  0  0  0  0  0  0  0  0  0
  187.3770  178.3940  148.1470 C   0  0  0  0  0  3  0  0  0  0  0  0
  187.5670  177.7340  144.6490 C   0  0  0  0  0  0  0  0  0  0  0  0
  185.2610  178.4120  145.1670 C   0  0  0  0  0  3  0  0  0  0  0  0
  186.8410  178.2910  146.8860 C   0  0  0  0  0  0  0  0  0  0  0  0
  188.7160  178.0390  147.9510 C   0  0  0  0  0  3  0  0  0  0  0  0
  186.1360  179.0530  141.8840 C   0  0  0  0  0  2  0  0  0  0  0  0
  184.7060  178.6860  142.2470 C   0  0  1  0  0  0  0  0  0  0  0  0
  185.8470  177.8130  142.7460 C   0  0  2  0  0  3  0  0  0  0  0  0
  184.0930  179.5030  143.2090 O   0  0  0  0  0  1  0  0  0  0  0  0
  183.8490  178.0730  141.1430 C   0  0  0  0  0  2  0  0  0  0  0  0
  183.2260  176.5990  136.9640 C   0  0  0  0  0  0  0  0  0  0  0  0
  185.0640  177.2260  135.4420 C   0  0  0  0  0  1  0  0  0  0  0  0
  185.2120  177.4850  137.9050 C   0  0  0  0  0  2  0  0  0  0  0  0
  182.7900  177.3940  138.1310 C   0  0  0  0  0  2  0  0  0  0  0  0
  184.4570  179.9270  139.7690 O   0  0  0  0  0  0  0  0  0  0  0  0
  182.4520  176.0510  136.1910 O   0  0  0  0  0  0  0  0  0  0  0  0
  184.7050  176.5970  136.7740 C   0  0  1  0  0  3  0  0  0  0  0  0
  184.0340  177.9500  138.6230 N   0  0  0  0  0  0  0  0  0  0  0  0
  184.1210  178.7150  139.8210 C   0  0  0  0  0  0  0  0  0  0  0  0
  189.7270  178.3370  139.2630 C   0  0  1  0  0  3  0  0  0  0  0  0
  190.8780  177.6790  138.6770 N   0  0  0  0  0  1  0  0  0  0  0  0
  188.6160  178.4170  138.2260 C   0  0  0  0  0  2  0  0  0  0  0  0
  189.1820  178.5650  136.8200 C   0  0  0  0  0  2  0  0  0  0  0  0
  188.7480  177.4020  135.9440 C   0  0  0  0  0  2  0  0  0  0  0  0
  189.9630  176.8130  135.2420 C   0  0  0  0  0  2  0  0  0  0  0  0
  189.9240  175.4070  135.2470 O   0  0  0  0  0  0  0  0  0  0  0  0
  193.1750  175.9060  136.6190 C   0  0  0  0  0  2  0  0  0  0  0  0
  190.2560  174.4810  137.8600 O   0  0  0  0  0  1  0  0  0  0  0  0
  193.7980  173.1860  136.1480 C   0  0  2  0  0  3  0  0  0  0  0  0
  193.6480  173.6450  137.4770 O   0  0  0  0  0  0  0  0  0  0  0  0
  192.7430  174.7420  137.5180 C   0  0  2  0  0  3  0  0  0  0  0  0
  191.2560  173.3840  135.8450 C   0  0  1  0  0  0  0  0  0  0  0  0
  192.5170  172.5350  135.6130 C   0  0  0  0  0  2  0  0  0  0  0  0
  194.9400  172.1880  136.0720 C   0  0  0  0  0  1  0  0  0  0  0  0
  192.4450  175.7110  135.2950 C   0  0  0  0  0  2  0  0  0  0  0  0
  191.3630  174.3290  137.0250 C   0  0  1  0  0  0  0  0  0  0  0  0
  191.1930  174.9050  135.6250 C   0  0  1  0  0  0  0  0  0  0  0  0
  190.0350  172.7080  135.8000 O   0  0  0  0  0  1  0  0  0  0  0  0
  1  8  1  0  0  0  0
  2  1  1  0  0  0  0
  3  5  2  0  0  0  0
  4  7  1  0  0  0  0
  5  6  1  0  0  0  0
  6  2  1  0  0  0  0
  6  4  1  0  0  0  0
  7  8  2  0  0  0  0
  7 14  1  0  0  0  0
  9 14  2  0  0  0  0
  9 15  1  0  0  0  0
 10 12  1  0  0  0  0
 10 16  2  0  0  0  0
 11 16  1  0  0  0  0
 12 17  1  0  0  0  0
 14 10  1  0  0  0  0
 15 11  2  0  0  0  0
 16 13  1  0  0  0  0
 17 13  2  0  0  0  0
 18 19  1  0  0  0  0
 18 20  1  0  0  0  0
 19 20  1  0  0  0  0
 19 21  1  1  0  0  0
 20  9  1  1  0  0  0
 22 19  1  0  0  0  0
 23 26  1  0  0  0  0
 25 30  1  0  0  0  0
 26 30  1  0  0  0  0
 27 31  2  0  0  0  0
 28 23  2  0  0  0  0
 29 24  1  6  0  0  0
 29 23  1  0  0  0  0
 29 25  1  0  0  0  0
 30 31  1  0  0  0  0
 31 22  1  0  0  0  0
 32 33  1  6  0  0  0
 32  5  1  0  0  0  0
 34 32  1  0  0  0  0
 35 34  1  0  0  0  0
 36 35  1  0  0  0  0
 37 38  1  0  0  0  0
 37 36  1  0  0  0  0
 41 46  1  1  0  0  0
 41 42  1  0  0  0  0
 42 43  1  0  0  0  0
 43 39  1  6  0  0  0
 44 50  1  6  0  0  0
 44 48  1  0  0  0  0
 45 44  1  0  0  0  0
 45 41  1  0  0  0  0
 47 49  1  0  0  0  0
 47 39  1  0  0  0  0
 48 43  1  0  0  0  0
 48 40  1  1  0  0  0
 49 38  1  6  0  0  0
 49 44  1  0  0  0  0
 49 48  1  0  0  0  0
M  END
>  <MODEL>
3

>  <REMARK>
 VINA RESULT:      -8.6      2.816      4.171
  Name = 
  11 active torsions:
  status: ('A' for Active; 'I' for Inactive)
    1  A    between atoms: C_1  and  C_25
    2  A    between atoms: C_3  and  C_43
    3  A    between atoms: C_3  and  C_44
    4  A    between atoms: C_9  and  C_33
    5  A    between atoms: C_12  and  C_28
    6  A    between atoms: C_12  and  C_34
    7  A    between atoms: C_24  and  C_49
    8  A    between atoms: C_28  and  C_43
    9  A    between atoms: C_33  and  C_48
   10  A    between atoms: C_34  and  O_36
   11  A    between atoms: O_36  and  C_40
                            x       y       z     vdW  Elec       q    Type
                         _______ _______ _______ _____ _____    ______ ____

>  <TORSDO>
F 11

$$$$
=
 OpenBabel10222419103D

 50 57  0  0  1  0  0  0  0  0999 V2000
  191.3000  176.0200  143.5170 C   0  0  0  0  0  2  0  0  0  0  0  0
  191.6710  177.1510  142.5590 C   0  0  0  0  0  2  0  0  0  0  0  0
  189.1010  176.1890  141.0710 O   0  0  0  0  0  0  0  0  0  0  0  0
  189.6360  178.4170  143.1100 C   0  0  0  0  0  2  0  0  0  0  0  0
  189.7980  177.2320  140.9430 C   0  0  0  0  0  0  0  0  0  0  0  0
  190.4510  177.7880  142.0820 N   0  0  0  0  0  0  0  0  0  0  0  0
  189.3310  177.4410  144.2250 C   0  0  0  0  0  0  0  0  0  0  0  0
  190.1350  176.3770  144.4110 C   0  0  0  0  0  3  0  0  0  0  0  0
  186.8100  177.8130  144.6710 C   0  0  0  0  0  0  0  0  0  0  0  0
  188.3760  177.8650  146.5010 C   0  0  0  0  0  0  0  0  0  0  0  0
  186.0790  178.2760  146.9440 N   0  0  0  0  0  0  0  0  0  0  0  0
  189.5020  177.8220  147.1710 O   0  0  0  0  0  0  0  0  0  0  0  0
  187.8670  178.2730  148.6270 C   0  0  0  0  0  3  0  0  0  0  0  0
  188.1640  177.6910  145.1230 C   0  0  0  0  0  0  0  0  0  0  0  0
  185.7960  178.1240  145.6200 C   0  0  0  0  0  3  0  0  0  0  0  0
  187.3590  178.1360  147.3580 C   0  0  0  0  0  0  0  0  0  0  0  0
  189.2380  178.0580  148.4440 C   0  0  0  0  0  3  0  0  0  0  0  0
  186.6790  178.8910  142.3500 C   0  0  0  0  0  2  0  0  0  0  0  0
  185.2740  178.4180  142.6870 C   0  0  1  0  0  0  0  0  0  0  0  0
  186.4680  177.6260  143.1980 C   0  0  2  0  0  3  0  0  0  0  0  0
  184.5880  179.1790  143.6450 O   0  0  0  0  0  1  0  0  0  0  0  0
  184.4820  177.7540  141.5640 C   0  0  0  0  0  2  0  0  0  0  0  0
  180.0720  178.3470  142.0450 C   0  0  0  0  0  0  0  0  0  0  0  0
  178.9310  178.8230  139.9100 C   0  0  0  0  0  1  0  0  0  0  0  0
  181.2790  178.0320  140.0310 C   0  0  0  0  0  2  0  0  0  0  0  0
  181.4680  178.7240  142.3570 C   0  0  0  0  0  2  0  0  0  0  0  0
  183.9920  179.6500  140.2000 O   0  0  0  0  0  0  0  0  0  0  0  0
  179.1490  178.4570  142.8390 O   0  0  0  0  0  0  0  0  0  0  0  0
  179.8870  177.8960  140.6360 C   0  0  1  0  0  3  0  0  0  0  0  0
  182.1350  178.5640  141.0810 N   0  0  0  0  0  0  0  0  0  0  0  0
  183.5410  178.7180  140.9170 C   0  0  0  0  0  0  0  0  0  0  0  0
  190.0130  177.8420  139.5910 C   0  0  1  0  0  3  0  0  0  0  0  0
  190.5680  176.8460  138.6950 N   0  0  0  0  0  1  0  0  0  0  0  0
  188.7140  178.3740  139.0030 C   0  0  0  0  0  2  0  0  0  0  0  0
  188.1760  177.4460  137.9230 C   0  0  0  0  0  2  0  0  0  0  0  0
  187.9830  178.2000  136.6180 C   0  0  0  0  0  2  0  0  0  0  0  0
  187.1810  177.3420  135.6500 C   0  0  0  0  0  2  0  0  0  0  0  0
  185.8020  177.4310  135.9110 O   0  0  0  0  0  0  0  0  0  0  0  0
  185.9880  174.0350  136.9740 C   0  0  0  0  0  2  0  0  0  0  0  0
  184.1740  176.7850  138.0850 O   0  0  0  0  0  1  0  0  0  0  0  0
  183.5400  173.4840  135.6650 C   0  0  2  0  0  3  0  0  0  0  0  0
  183.5910  173.4680  137.0780 O   0  0  0  0  0  0  0  0  0  0  0  0
  184.6010  174.3570  137.5420 C   0  0  2  0  0  3  0  0  0  0  0  0
  183.7350  176.0440  135.7350 C   0  0  1  0  0  0  0  0  0  0  0  0
  183.0300  174.8240  135.1200 C   0  0  0  0  0  2  0  0  0  0  0  0
  182.6430  172.3650  135.1690 C   0  0  0  0  0  1  0  0  0  0  0  0
  186.1600  174.9220  135.7460 C   0  0  0  0  0  2  0  0  0  0  0  0
  184.3040  175.7890  137.1170 C   0  0  1  0  0  0  0  0  0  0  0  0
  185.2530  176.1270  135.9740 C   0  0  1  0  0  0  0  0  0  0  0  0
  183.0630  177.2640  135.6410 O   0  0  0  0  0  1  0  0  0  0  0  0
  1  8  1  0  0  0  0
  2  1  1  0  0  0  0
  4  7  1  0  0  0  0
  5  3  2  0  0  0  0
  5  6  1  0  0  0  0
  6  2  1  0  0  0  0
  6  4  1  0  0  0  0
  7  8  2  0  0  0  0
  7 14  1  0  0  0  0
  9 14  2  0  0  0  0
  9 15  1  0  0  0  0
 10 12  1  0  0  0  0
 10 16  2  0  0  0  0
 11 16  1  0  0  0  0
 12 17  1  0  0  0  0
 14 10  1  0  0  0  0
 15 11  2  0  0  0  0
 16 13  1  0  0  0  0
 17 13  2  0  0  0  0
 18 19  1  0  0  0  0
 18 20  1  0  0  0  0
 19 20  1  0  0  0  0
 19 21  1  1  0  0  0
 20  9  1  1  0  0  0
 22 19  1  0  0  0  0
 23 26  1  0  0  0  0
 23 28  2  0  0  0  0
 25 29  1  0  0  0  0
 25 30  1  0  0  0  0
 27 31  2  0  0  0  0
 29 24  1  6  0  0  0
 29 23  1  0  0  0  0
 30 26  1  0  0  0  0
 31 30  1  0  0  0  0
 31 22  1  0  0  0  0
 32 33  1  6  0  0  0
 32  5  1  0  0  0  0
 34 32  1  0  0  0  0
 35 34  1  0  0  0  0
 36 35  1  0  0  0  0
 37 38  1  0  0  0  0
 37 36  1  0  0  0  0
 41 46  1  1  0  0  0
 41 42  1  0  0  0  0
 42 43  1  0  0  0  0
 43 39  1  6  0  0  0
 44 50  1  6  0  0  0
 44 49  1  0  0  0  0
 44 48  1  0  0  0  0
 45 41  1  0  0  0  0
 45 44  1  0  0  0  0
 47 49  1  0  0  0  0
 47 39  1  0  0  0  0
 48 43  1  0  0  0  0
 48 40  1  1  0  0  0
 49 38  1  6  0  0  0
 49 48  1  0  0  0  0
M  END
>  <MODEL>
4

>  <REMARK>
 VINA RESULT:      -8.5      1.432      2.010
  Name = 
  11 active torsions:
  status: ('A' for Active; 'I' for Inactive)
    1  A    between atoms: C_1  and  C_25
    2  A    between atoms: C_3  and  C_43
    3  A    between atoms: C_3  and  C_44
    4  A    between atoms: C_9  and  C_33
    5  A    between atoms: C_12  and  C_28
    6  A    between atoms: C_12  and  C_34
    7  A    between atoms: C_24  and  C_49
    8  A    between atoms: C_28  and  C_43
    9  A    between atoms: C_33  and  C_48
   10  A    between atoms: C_34  and  O_36
   11  A    between atoms: O_36  and  C_40
                            x       y       z     vdW  Elec       q    Type
                         _______ _______ _______ _____ _____    ______ ____

>  <TORSDO>
F 11

$$$$
=
 OpenBabel10222419103D

 50 57  0  0  1  0  0  0  0  0999 V2000
  184.1150  179.7270  144.4630 C   0  0  0  0  0  2  0  0  0  0  0  0
  183.4660  178.7380  143.4960 C   0  0  0  0  0  2  0  0  0  0  0  0
  185.6960  179.7780  141.5750 O   0  0  0  0  0  0  0  0  0  0  0  0
  185.4860  177.3360  143.4190 C   0  0  0  0  0  2  0  0  0  0  0  0
  184.9210  178.7870  141.4940 C   0  0  0  0  0  0  0  0  0  0  0  0
  184.5040  178.1190  142.6820 N   0  0  0  0  0  0  0  0  0  0  0  0
  186.0950  178.1540  144.5360 C   0  0  0  0  0  0  0  0  0  0  0  0
  185.4250  179.2160  145.0200 C   0  0  0  0  0  3  0  0  0  0  0  0
  188.4730  177.1530  144.3500 C   0  0  0  0  0  0  0  0  0  0  0  0
  187.6510  177.9110  146.4830 C   0  0  0  0  0  0  0  0  0  0  0  0
  189.8150  176.9380  146.3680 N   0  0  0  0  0  0  0  0  0  0  0  0
  186.8570  178.4080  147.4010 O   0  0  0  0  0  0  0  0  0  0  0  0
  188.7510  177.7850  148.4130 C   0  0  0  0  0  3  0  0  0  0  0  0
  187.4140  177.7490  145.1080 C   0  0  0  0  0  0  0  0  0  0  0  0
  189.6560  176.7450  145.0280 C   0  0  0  0  0  3  0  0  0  0  0  0
  188.8140  177.5230  147.0650 C   0  0  0  0  0  0  0  0  0  0  0  0
  187.4810  178.3530  148.5650 C   0  0  0  0  0  3  0  0  0  0  0  0
  189.6150  176.4620  142.1630 C   0  0  0  0  0  2  0  0  0  0  0  0
  189.1320  177.8900  141.9660 C   0  0  1  0  0  0  0  0  0  0  0  0
  188.3260  176.9470  142.8470 C   0  0  2  0  0  3  0  0  0  0  0  0
  189.8660  178.8790  142.6370 O   0  0  0  0  0  1  0  0  0  0  0  0
  188.4990  178.2250  140.6180 C   0  0  0  0  0  2  0  0  0  0  0  0
  187.5770  177.4020  136.3170 C   0  0  0  0  0  0  0  0  0  0  0  0
  188.8280  175.4730  135.4220 C   0  0  0  0  0  1  0  0  0  0  0  0
  188.7340  176.0050  137.8430 C   0  0  0  0  0  2  0  0  0  0  0  0
  188.0670  178.3010  137.3840 C   0  0  0  0  0  2  0  0  0  0  0  0
  190.6300  177.7970  139.6330 O   0  0  0  0  0  0  0  0  0  0  0  0
  186.9940  177.7950  135.3160 O   0  0  0  0  0  0  0  0  0  0  0  0
  187.9380  175.9730  136.5430 C   0  0  1  0  0  3  0  0  0  0  0  0
  188.8060  177.4020  138.2470 N   0  0  0  0  0  0  0  0  0  0  0  0
  189.3790  177.8110  139.4840 C   0  0  0  0  0  0  0  0  0  0  0  0
  184.3700  178.3580  140.1680 C   0  0  1  0  0  3  0  0  0  0  0  0
  183.4230  177.2780  140.3660 N   0  0  0  0  0  1  0  0  0  0  0  0
  183.6750  179.5070  139.4530 C   0  0  0  0  0  2  0  0  0  0  0  0
  182.1620  179.3350  139.4710 C   0  0  0  0  0  2  0  0  0  0  0  0
  181.6170  179.2470  138.0560 C   0  0  0  0  0  2  0  0  0  0  0  0
  180.7680  177.9910  137.9150 C   0  0  0  0  0  2  0  0  0  0  0  0
  181.0430  177.3220  136.7090 O   0  0  0  0  0  0  0  0  0  0  0  0
  181.1020  173.8770  137.6210 C   0  0  0  0  0  2  0  0  0  0  0  0
  181.5350  175.5530  134.6050 O   0  0  0  0  0  1  0  0  0  0  0  0
  183.9310  173.9000  137.5520 C   0  0  2  0  0  3  0  0  0  0  0  0
  183.2180  173.1740  136.5700 O   0  0  0  0  0  0  0  0  0  0  0  0
  181.9460  173.7720  136.3460 C   0  0  2  0  0  3  0  0  0  0  0  0
  183.1850  176.0770  136.4120 C   0  0  1  0  0  0  0  0  0  0  0  0
  184.3400  175.2930  137.0570 C   0  0  0  0  0  2  0  0  0  0  0  0
  185.1710  173.1290  137.9660 C   0  0  0  0  0  1  0  0  0  0  0  0
  181.3500  175.2740  138.1790 C   0  0  0  0  0  2  0  0  0  0  0  0
  182.0970  175.1970  135.8310 C   0  0  1  0  0  0  0  0  0  0  0  0
  181.7590  176.1320  136.9860 C   0  0  1  0  0  0  0  0  0  0  0  0
  183.5440  177.1280  135.5650 O   0  0  0  0  0  1  0  0  0  0  0  0
  1  8  1  0  0  0  0
  2  1  1  0  0  0  0
  4  7  1  0  0  0  0
  5  3  2  0  0  0  0
  5  6  1  0  0  0  0
  6  4  1  0  0  0  0
  6  2  1  0  0  0  0
  7  8  2  0  0  0  0
  7 14  1  0  0  0  0
  9 15  2  0  0  0  0
  9 14  1  0  0  0  0
 10 16  1  0  0  0  0
 10 12  1  0  0  0  0
 11 16  2  0  0  0  0
 12 17  1  0  0  0  0
 13 17  2  0  0  0  0
 14 10  2  0  0  0  0
 15 11  1  0  0  0  0
 16 13  1  0  0  0  0
 18 20  1  0  0  0  0
 19 18  1  0  0  0  0
 19 21  1  1  0  0  0
 19 20  1  0  0  0  0
 20  9  1  1  0  0  0
 22 19  1  0  0  0  0
 23 29  1  0  0  0  0
 23 26  1  0  0  0  0
 25 30  1  0  0  0  0
 26 30  1  0  0  0  0
 28 23  2  0  0  0  0
 29 24  1  6  0  0  0
 29 25  1  0  0  0  0
 30 31  1  0  0  0  0
 31 27  2  0  0  0  0
 31 22  1  0  0  0  0
 32 33  1  1  0  0  0
 32  5  1  0  0  0  0
 34 35  1  0  0  0  0
 34 32  1  0  0  0  0
 36 35  1  0  0  0  0
 37 36  1  0  0  0  0
 38 37  1  0  0  0  0
 39 47  1  0  0  0  0
 41 46  1  6  0  0  0
 42 41  1  0  0  0  0
 43 42  1  0  0  0  0
 43 39  1  1  0  0  0
 44 50  1  6  0  0  0
 44 49  1  0  0  0  0
 44 45  1  0  0  0  0
 45 41  1  0  0  0  0
 48 40  1  6  0  0  0
 48 43  1  0  0  0  0
 48 44  1  0  0  0  0
 48 49  1  0  0  0  0
 49 38  1  6  0  0  0
 49 47  1  0  0  0  0
M  END
>  <MODEL>
5

>  <REMARK>
 VINA RESULT:      -8.4      2.023      5.258
  Name = 
  11 active torsions:
  status: ('A' for Active; 'I' for Inactive)
    1  A    between atoms: C_1  and  C_25
    2  A    between atoms: C_3  and  C_43
    3  A    between atoms: C_3  and  C_44
    4  A    between atoms: C_9  and  C_33
    5  A    between atoms: C_12  and  C_28
    6  A    between atoms: C_12  and  C_34
    7  A    between atoms: C_24  and  C_49
    8  A    between atoms: C_28  and  C_43
    9  A    between atoms: C_33  and  C_48
   10  A    between atoms: C_34  and  O_36
   11  A    between atoms: O_36  and  C_40
                            x       y       z     vdW  Elec       q    Type
                         _______ _______ _______ _____ _____    ______ ____

>  <TORSDO>
F 11

$$$$
=
 OpenBabel10222419103D

 50 57  0  0  1  0  0  0  0  0999 V2000
  184.0190  179.4950  144.4320 C   0  0  0  0  0  2  0  0  0  0  0  0
  183.5570  178.5800  143.2990 C   0  0  0  0  0  2  0  0  0  0  0  0
  185.8220  180.0530  141.7330 O   0  0  0  0  0  0  0  0  0  0  0  0
  185.7090  177.3900  143.2510 C   0  0  0  0  0  2  0  0  0  0  0  0
  185.1610  179.0120  141.4640 C   0  0  0  0  0  0  0  0  0  0  0  0
  184.7170  178.1660  142.5210 N   0  0  0  0  0  0  0  0  0  0  0  0
  186.1360  178.1130  144.5100 C   0  0  0  0  0  0  0  0  0  0  0  0
  185.3230  179.0410  145.0480 C   0  0  0  0  0  3  0  0  0  0  0  0
  188.5360  177.1480  144.4690 C   0  0  0  0  0  0  0  0  0  0  0  0
  187.6160  177.9980  146.5260 C   0  0  0  0  0  0  0  0  0  0  0  0
  189.7980  177.0610  146.5470 N   0  0  0  0  0  0  0  0  0  0  0  0
  186.7770  178.5260  147.3850 O   0  0  0  0  0  0  0  0  0  0  0  0
  188.6390  177.9900  148.5020 C   0  0  0  0  0  3  0  0  0  0  0  0
  187.4370  177.7630  145.1530 C   0  0  0  0  0  0  0  0  0  0  0  0
  189.6980  176.7980  145.2140 C   0  0  0  0  0  3  0  0  0  0  0  0
  188.7600  177.6610  147.1730 C   0  0  0  0  0  0  0  0  0  0  0  0
  187.3540  178.5410  148.5740 C   0  0  0  0  0  3  0  0  0  0  0  0
  189.5890  175.9670  142.4540 C   0  0  0  0  0  2  0  0  0  0  0  0
  189.5710  177.4500  142.1240 C   0  0  1  0  0  0  0  0  0  0  0  0
  188.4540  176.8640  142.9740 C   0  0  2  0  0  3  0  0  0  0  0  0
  190.5120  178.2370  142.8060 O   0  0  0  0  0  1  0  0  0  0  0  0
  189.1750  177.8370  140.7020 C   0  0  0  0  0  2  0  0  0  0  0  0
  189.1160  177.4560  136.2440 C   0  0  0  0  0  0  0  0  0  0  0  0
  190.5070  175.5900  135.4230 C   0  0  0  0  0  1  0  0  0  0  0  0
  189.9400  175.8900  137.8190 C   0  0  0  0  0  2  0  0  0  0  0  0
  189.3910  178.2350  137.4690 C   0  0  0  0  0  2  0  0  0  0  0  0
  191.4560  177.4520  140.1150 O   0  0  0  0  0  0  0  0  0  0  0  0
  188.7450  177.9570  135.1920 O   0  0  0  0  0  0  0  0  0  0  0  0
  189.4170  176.0020  136.3930 C   0  0  1  0  0  3  0  0  0  0  0  0
  189.9400  177.2390  138.3660 N   0  0  0  0  0  0  0  0  0  0  0  0
  190.2600  177.5120  139.7270 C   0  0  0  0  0  0  0  0  0  0  0  0
  184.7690  178.7050  140.0510 C   0  0  1  0  0  3  0  0  0  0  0  0
  184.4990  179.9420  139.3450 N   0  0  0  0  0  1  0  0  0  0  0  0
  185.8640  177.9430  139.3190 C   0  0  0  0  0  2  0  0  0  0  0  0
  185.6960  178.0480  137.8090 C   0  0  0  0  0  2  0  0  0  0  0  0
  185.9950  176.7150  137.1440 C   0  0  0  0  0  2  0  0  0  0  0  0
  184.7680  175.8190  137.2280 C   0  0  0  0  0  2  0  0  0  0  0  0
  183.6080  176.5010  136.8170 O   0  0  0  0  0  0  0  0  0  0  0  0
  181.7420  176.8130  139.8370 C   0  0  0  0  0  2  0  0  0  0  0  0
  181.2050  177.9030  136.5790 O   0  0  0  0  0  1  0  0  0  0  0  0
  180.0020  174.7510  138.9820 C   0  0  2  0  0  3  0  0  0  0  0  0
  179.5190  176.0780  139.0650 O   0  0  0  0  0  0  0  0  0  0  0  0
  180.5820  177.0000  138.8530 C   0  0  2  0  0  3  0  0  0  0  0  0
  181.3580  175.4260  136.9090 C   0  0  1  0  0  0  0  0  0  0  0  0
  180.4350  174.3820  137.5580 C   0  0  0  0  0  2  0  0  0  0  0  0
  178.9310  173.7830  139.4500 C   0  0  0  0  0  1  0  0  0  0  0  0
  182.7520  175.9120  139.1350 C   0  0  0  0  0  2  0  0  0  0  0  0
  181.1850  176.8260  137.4650 C   0  0  1  0  0  0  0  0  0  0  0  0
  182.5220  176.1160  137.6400 C   0  0  1  0  0  0  0  0  0  0  0  0
  181.4400  175.4030  135.5150 O   0  0  0  0  0  1  0  0  0  0  0  0
  1  8  1  0  0  0  0
  2  1  1  0  0  0  0
  4  7  1  0  0  0  0
  5  3  2  0  0  0  0
  5  6  1  0  0  0  0
  6  4  1  0  0  0  0
  6  2  1  0  0  0  0
  7  8  2  0  0  0  0
  7 14  1  0  0  0  0
  9 14  2  0  0  0  0
  9 15  1  0  0  0  0
 10 16  2  0  0  0  0
 10 12  1  0  0  0  0
 11 16  1  0  0  0  0
 12 17  1  0  0  0  0
 13 17  2  0  0  0  0
 14 10  1  0  0  0  0
 15 11  2  0  0  0  0
 16 13  1  0  0  0  0
 18 20  1  0  0  0  0
 19 18  1  0  0  0  0
 19 21  1  1  0  0  0
 19 20  1  0  0  0  0
 20  9  1  1  0  0  0
 22 19  1  0  0  0  0
 23 29  1  0  0  0  0
 23 26  1  0  0  0  0
 25 30  1  0  0  0  0
 26 30  1  0  0  0  0
 28 23  2  0  0  0  0
 29 24  1  6  0  0  0
 29 25  1  0  0  0  0
 30 31  1  0  0  0  0
 31 27  2  0  0  0  0
 31 22  1  0  0  0  0
 32 33  1  6  0  0  0
 32  5  1  0  0  0  0
 34 32  1  0  0  0  0
 35 34  1  0  0  0  0
 36 37  1  0  0  0  0
 36 35  1  0  0  0  0
 38 37  1  0  0  0  0
 41 42  1  0  0  0  0
 41 46  1  6  0  0  0
 43 42  1  0  0  0  0
 43 39  1  1  0  0  0
 44 50  1  6  0  0  0
 44 48  1  0  0  0  0
 44 45  1  0  0  0  0
 44 49  1  0  0  0  0
 45 41  1  0  0  0  0
 47 39  1  0  0  0  0
 48 40  1  6  0  0  0
 48 49  1  0  0  0  0
 48 43  1  0  0  0  0
 49 38  1  6  0  0  0
 49 47  1  0  0  0  0
M  END
>  <MODEL>
6

>  <REMARK>
 VINA RESULT:      -8.4      2.378      5.664
  Name = 
  11 active torsions:
  status: ('A' for Active; 'I' for Inactive)
    1  A    between atoms: C_1  and  C_25
    2  A    between atoms: C_3  and  C_43
    3  A    between atoms: C_3  and  C_44
    4  A    between atoms: C_9  and  C_33
    5  A    between atoms: C_12  and  C_28
    6  A    between atoms: C_12  and  C_34
    7  A    between atoms: C_24  and  C_49
    8  A    between atoms: C_28  and  C_43
    9  A    between atoms: C_33  and  C_48
   10  A    between atoms: C_34  and  O_36
   11  A    between atoms: O_36  and  C_40
                            x       y       z     vdW  Elec       q    Type
                         _______ _______ _______ _____ _____    ______ ____

>  <TORSDO>
F 11

$$$$
=
 OpenBabel10222419103D

 50 57  0  0  1  0  0  0  0  0999 V2000
  184.0850  178.9810  144.9040 C   0  0  0  0  0  2  0  0  0  0  0  0
  183.7580  178.3030  143.5740 C   0  0  0  0  0  2  0  0  0  0  0  0
  185.7810  180.4080  142.4680 O   0  0  0  0  0  0  0  0  0  0  0  0
  186.0600  177.4740  143.3180 C   0  0  0  0  0  2  0  0  0  0  0  0
  185.2780  179.3780  141.9420 C   0  0  0  0  0  0  0  0  0  0  0  0
  184.9640  178.2520  142.7580 N   0  0  0  0  0  0  0  0  0  0  0  0
  186.3810  177.9340  144.7230 C   0  0  0  0  0  0  0  0  0  0  0  0
  185.4430  178.5830  145.4370 C   0  0  0  0  0  3  0  0  0  0  0  0
  188.8120  177.0630  144.5720 C   0  0  0  0  0  0  0  0  0  0  0  0
  187.9480  177.8610  146.6740 C   0  0  0  0  0  0  0  0  0  0  0  0
  190.1640  177.0100  146.5940 N   0  0  0  0  0  0  0  0  0  0  0  0
  187.1270  178.3500  147.5720 O   0  0  0  0  0  0  0  0  0  0  0  0
  189.0540  177.8790  148.6040 C   0  0  0  0  0  3  0  0  0  0  0  0
  187.7210  177.6300  145.3080 C   0  0  0  0  0  0  0  0  0  0  0  0
  190.0170  176.7530  145.2640 C   0  0  0  0  0  3  0  0  0  0  0  0
  189.1320  177.5650  147.2690 C   0  0  0  0  0  0  0  0  0  0  0  0
  187.7540  178.3790  148.7360 C   0  0  0  0  0  3  0  0  0  0  0  0
  189.8920  176.0640  142.4740 C   0  0  0  0  0  2  0  0  0  0  0  0
  189.6470  177.5340  142.1760 C   0  0  1  0  0  0  0  0  0  0  0  0
  188.6770  176.7880  143.0800 C   0  0  2  0  0  3  0  0  0  0  0  0
  190.5100  178.4370  142.8150 O   0  0  0  0  0  1  0  0  0  0  0  0
  189.1130  177.8770  140.7880 C   0  0  0  0  0  2  0  0  0  0  0  0
  188.6350  177.3990  136.3640 C   0  0  0  0  0  0  0  0  0  0  0  0
  189.9430  175.5130  135.4570 C   0  0  0  0  0  1  0  0  0  0  0  0
  189.6040  175.8660  137.8900 C   0  0  0  0  0  2  0  0  0  0  0  0
  189.0240  178.2040  137.5410 C   0  0  0  0  0  2  0  0  0  0  0  0
  191.3290  177.4750  139.9980 O   0  0  0  0  0  0  0  0  0  0  0  0
  188.1660  177.8780  135.3410 O   0  0  0  0  0  0  0  0  0  0  0  0
  188.9480  175.9480  136.5160 C   0  0  1  0  0  3  0  0  0  0  0  0
  189.6550  177.2270  138.4050 N   0  0  0  0  0  0  0  0  0  0  0  0
  190.1020  177.5290  139.7220 C   0  0  0  0  0  0  0  0  0  0  0  0
  184.9310  179.3600  140.4850 C   0  0  1  0  0  3  0  0  0  0  0  0
  185.8580  178.4970  139.7790 N   0  0  0  0  0  1  0  0  0  0  0  0
  183.5120  178.8630  140.2520 C   0  0  0  0  0  2  0  0  0  0  0  0
  182.9550  179.3760  138.9320 C   0  0  0  0  0  2  0  0  0  0  0  0
  181.5840  178.7820  138.6620 C   0  0  0  0  0  2  0  0  0  0  0  0
  181.5240  178.2700  137.2300 C   0  0  0  0  0  2  0  0  0  0  0  0
  181.3980  176.8700  137.1930 O   0  0  0  0  0  0  0  0  0  0  0  0
  184.8890  177.1380  136.5280 C   0  0  0  0  0  2  0  0  0  0  0  0
  183.0550  175.6280  139.0670 O   0  0  0  0  0  1  0  0  0  0  0  0
  184.9130  174.4830  135.5470 C   0  0  2  0  0  3  0  0  0  0  0  0
  185.5700  174.7810  136.7630 O   0  0  0  0  0  0  0  0  0  0  0  0
  184.9380  175.8820  137.4050 C   0  0  2  0  0  3  0  0  0  0  0  0
  182.6620  174.7640  136.7520 C   0  0  1  0  0  0  0  0  0  0  0  0
  183.5030  173.9250  135.7740 C   0  0  0  0  0  2  0  0  0  0  0  0
  185.7290  173.4810  134.7520 C   0  0  0  0  0  1  0  0  0  0  0  0
  183.5300  177.1180  135.8360 C   0  0  0  0  0  2  0  0  0  0  0  0
  183.4890  175.5580  137.7440 C   0  0  1  0  0  0  0  0  0  0  0  0
  182.6150  176.3010  136.7430 C   0  0  1  0  0  0  0  0  0  0  0  0
  181.5730  174.1220  137.3440 O   0  0  0  0  0  1  0  0  0  0  0  0
  1  8  1  0  0  0  0
  2  1  1  0  0  0  0
  4  7  1  0  0  0  0
  5  3  2  0  0  0  0
  5  6  1  0  0  0  0
  6  4  1  0  0  0  0
  6  2  1  0  0  0  0
  7 14  1  0  0  0  0
  7  8  2  0  0  0  0
  9 15  2  0  0  0  0
  9 14  1  0  0  0  0
 10 16  1  0  0  0  0
 10 12  1  0  0  0  0
 11 16  2  0  0  0  0
 12 17  1  0  0  0  0
 13 17  2  0  0  0  0
 14 10  2  0  0  0  0
 15 11  1  0  0  0  0
 16 13  1  0  0  0  0
 18 20  1  0  0  0  0
 19 18  1  0  0  0  0
 19 21  1  1  0  0  0
 19 20  1  0  0  0  0
 20  9  1  1  0  0  0
 22 19  1  0  0  0  0
 23 29  1  0  0  0  0
 23 26  1  0  0  0  0
 25 30  1  0  0  0  0
 26 30  1  0  0  0  0
 28 23  2  0  0  0  0
 29 24  1  6  0  0  0
 29 25  1  0  0  0  0
 30 31  1  0  0  0  0
 31 27  2  0  0  0  0
 31 22  1  0  0  0  0
 32 33  1  6  0  0  0
 32  5  1  0  0  0  0
 34 32  1  0  0  0  0
 35 34  1  0  0  0  0
 36 35  1  0  0  0  0
 37 36  1  0  0  0  0
 38 37  1  0  0  0  0
 41 46  1  1  0  0  0
 41 45  1  0  0  0  0
 41 42  1  0  0  0  0
 42 43  1  0  0  0  0
 43 39  1  6  0  0  0
 43 48  1  0  0  0  0
 44 50  1  1  0  0  0
 44 48  1  0  0  0  0
 45 44  1  0  0  0  0
 47 39  1  0  0  0  0
 47 49  1  0  0  0  0
 48 40  1  1  0  0  0
 49 44  1  0  0  0  0
 49 38  1  1  0  0  0
 49 48  1  0  0  0  0
M  END
>  <MODEL>
7

>  <REMARK>
 VINA RESULT:      -8.4      2.043      5.407
  Name = 
  11 active torsions:
  status: ('A' for Active; 'I' for Inactive)
    1  A    between atoms: C_1  and  C_25
    2  A    between atoms: C_3  and  C_43
    3  A    between atoms: C_3  and  C_44
    4  A    between atoms: C_9  and  C_33
    5  A    between atoms: C_12  and  C_28
    6  A    between atoms: C_12  and  C_34
    7  A    between atoms: C_24  and  C_49
    8  A    between atoms: C_28  and  C_43
    9  A    between atoms: C_33  and  C_48
   10  A    between atoms: C_34  and  O_36
   11  A    between atoms: O_36  and  C_40
                            x       y       z     vdW  Elec       q    Type
                         _______ _______ _______ _____ _____    ______ ____

>  <TORSDO>
F 11

$$$$
=
 OpenBabel10222419103D

 50 57  0  0  1  0  0  0  0  0999 V2000
  184.2080  179.5130  144.3210 C   0  0  0  0  0  2  0  0  0  0  0  0
  183.7450  178.5790  143.2040 C   0  0  0  0  0  2  0  0  0  0  0  0
  186.0570  179.9710  141.6340 O   0  0  0  0  0  0  0  0  0  0  0  0
  185.8760  177.3490  143.2160 C   0  0  0  0  0  2  0  0  0  0  0  0
  185.3820  178.9360  141.3820 C   0  0  0  0  0  0  0  0  0  0  0  0
  184.9080  178.1250  142.4530 N   0  0  0  0  0  0  0  0  0  0  0  0
  186.2980  178.0960  144.4620 C   0  0  0  0  0  0  0  0  0  0  0  0
  185.4940  179.0510  144.9660 C   0  0  0  0  0  3  0  0  0  0  0  0
  188.7080  177.1540  144.4630 C   0  0  0  0  0  0  0  0  0  0  0  0
  187.7210  177.9360  146.5160 C   0  0  0  0  0  0  0  0  0  0  0  0
  189.9110  177.0190  146.5720 N   0  0  0  0  0  0  0  0  0  0  0  0
  186.8530  178.4320  147.3650 O   0  0  0  0  0  0  0  0  0  0  0  0
  188.6880  177.8810  148.5190 C   0  0  0  0  0  3  0  0  0  0  0  0
  187.5840  177.7390  145.1320 C   0  0  0  0  0  0  0  0  0  0  0  0
  189.8510  176.7930  145.2300 C   0  0  0  0  0  3  0  0  0  0  0  0
  188.8500  177.5910  147.1860 C   0  0  0  0  0  0  0  0  0  0  0  0
  187.3960  178.4180  148.5700 C   0  0  0  0  0  3  0  0  0  0  0  0
  189.7400  175.9240  142.4670 C   0  0  0  0  0  2  0  0  0  0  0  0
  189.8770  177.4100  142.1770 C   0  0  1  0  0  0  0  0  0  0  0  0
  188.6710  176.9130  142.9590 C   0  0  2  0  0  3  0  0  0  0  0  0
  190.8540  178.0880  142.9210 O   0  0  0  0  0  1  0  0  0  0  0  0
  189.5880  177.8630  140.7480 C   0  0  0  0  0  2  0  0  0  0  0  0
  189.5740  176.9930  136.3590 C   0  0  0  0  0  0  0  0  0  0  0  0
  191.0380  175.1020  135.7520 C   0  0  0  0  0  1  0  0  0  0  0  0
  190.4430  175.6410  138.1000 C   0  0  0  0  0  2  0  0  0  0  0  0
  189.8120  177.9120  137.4920 C   0  0  0  0  0  2  0  0  0  0  0  0
  191.8850  177.5010  140.2150 O   0  0  0  0  0  0  0  0  0  0  0  0
  189.1920  177.3620  135.2570 O   0  0  0  0  0  0  0  0  0  0  0  0
  189.9260  175.5770  136.6680 C   0  0  1  0  0  3  0  0  0  0  0  0
  190.3900  177.0410  138.4950 N   0  0  0  0  0  0  0  0  0  0  0  0
  190.6900  177.4740  139.8180 C   0  0  0  0  0  0  0  0  0  0  0  0
  185.0040  178.6010  139.9710 C   0  0  1  0  0  3  0  0  0  0  0  0
  184.5230  179.7950  139.3030 N   0  0  0  0  0  1  0  0  0  0  0  0
  186.1840  178.0360  139.1940 C   0  0  0  0  0  2  0  0  0  0  0  0
  186.4580  178.8500  137.9370 C   0  0  0  0  0  2  0  0  0  0  0  0
  186.1980  178.0170  136.6930 C   0  0  0  0  0  2  0  0  0  0  0  0
  185.8270  176.5980  137.1010 C   0  0  0  0  0  2  0  0  0  0  0  0
  184.7400  176.1190  136.3480 O   0  0  0  0  0  0  0  0  0  0  0  0
  186.0420  173.0090  137.5020 C   0  0  0  0  0  2  0  0  0  0  0  0
  182.9850  174.6140  137.9140 O   0  0  0  0  0  1  0  0  0  0  0  0
  184.5740  171.6450  135.5030 C   0  0  2  0  0  3  0  0  0  0  0  0
  184.2080  171.4920  136.8610 O   0  0  0  0  0  0  0  0  0  0  0  0
  184.5520  172.6610  137.5960 C   0  0  2  0  0  3  0  0  0  0  0  0
  183.6220  174.0290  135.5660 C   0  0  1  0  0  0  0  0  0  0  0  0
  183.7250  172.7050  134.7910 C   0  0  0  0  0  2  0  0  0  0  0  0
  184.4350  170.3180  134.7790 C   0  0  0  0  0  1  0  0  0  0  0  0
  186.1700  174.0200  136.3690 C   0  0  0  0  0  2  0  0  0  0  0  0
  183.8090  173.8780  137.0630 C   0  0  1  0  0  0  0  0  0  0  0  0
  184.8110  174.7060  136.2690 C   0  0  1  0  0  0  0  0  0  0  0  0
  182.5530  174.8620  135.2340 O   0  0  0  0  0  1  0  0  0  0  0  0
  1  8  1  0  0  0  0
  2  1  1  0  0  0  0
  4  7  1  0  0  0  0
  5  3  2  0  0  0  0
  5  6  1  0  0  0  0
  6  2  1  0  0  0  0
  6  4  1  0  0  0  0
  7  8  2  0  0  0  0
  7 14  1  0  0  0  0
  9 14  2  0  0  0  0
  9 15  1  0  0  0  0
 10 16  2  0  0  0  0
 10 12  1  0  0  0  0
 11 16  1  0  0  0  0
 12 17  1  0  0  0  0
 13 17  2  0  0  0  0
 14 10  1  0  0  0  0
 15 11  2  0  0  0  0
 16 13  1  0  0  0  0
 18 20  1  0  0  0  0
 19 18  1  0  0  0  0
 19 21  1  1  0  0  0
 19 20  1  0  0  0  0
 20  9  1  1  0  0  0
 22 19  1  0  0  0  0
 23 29  1  0  0  0  0
 23 26  1  0  0  0  0
 25 30  1  0  0  0  0
 26 30  1  0  0  0  0
 28 23  2  0  0  0  0
 29 24  1  6  0  0  0
 29 25  1  0  0  0  0
 30 31  1  0  0  0  0
 31 27  2  0  0  0  0
 31 22  1  0  0  0  0
 32 33  1  6  0  0  0
 32  5  1  0  0  0  0
 34 32  1  0  0  0  0
 35 34  1  0  0  0  0
 36 37  1  0  0  0  0
 36 35  1  0  0  0  0
 38 37  1  0  0  0  0
 41 46  1  6  0  0  0
 41 42  1  0  0  0  0
 42 43  1  0  0  0  0
 43 39  1  6  0  0  0
 44 50  1  6  0  0  0
 44 49  1  0  0  0  0
 44 48  1  0  0  0  0
 45 41  1  0  0  0  0
 45 44  1  0  0  0  0
 47 39  1  0  0  0  0
 48 43  1  0  0  0  0
 48 40  1  1  0  0  0
 49 38  1  1  0  0  0
 49 47  1  0  0  0  0
 49 48  1  0  0  0  0
M  END
>  <MODEL>
8

>  <REMARK>
 VINA RESULT:      -8.3      2.360      5.377
  Name = 
  11 active torsions:
  status: ('A' for Active; 'I' for Inactive)
    1  A    between atoms: C_1  and  C_25
    2  A    between atoms: C_3  and  C_43
    3  A    between atoms: C_3  and  C_44
    4  A    between atoms: C_9  and  C_33
    5  A    between atoms: C_12  and  C_28
    6  A    between atoms: C_12  and  C_34
    7  A    between atoms: C_24  and  C_49
    8  A    between atoms: C_28  and  C_43
    9  A    between atoms: C_33  and  C_48
   10  A    between atoms: C_34  and  O_36
   11  A    between atoms: O_36  and  C_40
                            x       y       z     vdW  Elec       q    Type
                         _______ _______ _______ _____ _____    ______ ____

>  <TORSDO>
F 11

$$$$
=
 OpenBabel10222419103D

 50 57  0  0  1  0  0  0  0  0999 V2000
  191.3480  175.9420  143.9600 C   0  0  0  0  0  2  0  0  0  0  0  0
  191.8470  177.0050  142.9820 C   0  0  0  0  0  2  0  0  0  0  0  0
  189.4630  175.9590  141.2590 O   0  0  0  0  0  0  0  0  0  0  0  0
  189.7770  178.3160  143.1970 C   0  0  0  0  0  2  0  0  0  0  0  0
  190.1850  176.9870  141.1480 C   0  0  0  0  0  0  0  0  0  0  0  0
  190.7030  177.6140  142.3180 N   0  0  0  0  0  0  0  0  0  0  0  0
  189.3270  177.4180  144.3280 C   0  0  0  0  0  0  0  0  0  0  0  0
  190.0880  176.3650  144.6810 C   0  0  0  0  0  3  0  0  0  0  0  0
  186.7840  177.8800  144.4320 C   0  0  0  0  0  0  0  0  0  0  0  0
  188.1020  177.9510  146.4460 C   0  0  0  0  0  0  0  0  0  0  0  0
  185.7830  178.4460  146.5760 N   0  0  0  0  0  0  0  0  0  0  0  0
  189.1320  177.8990  147.2580 O   0  0  0  0  0  0  0  0  0  0  0  0
  187.3390  178.4500  148.4750 C   0  0  0  0  0  3  0  0  0  0  0  0
  188.0640  177.7340  145.0590 C   0  0  0  0  0  0  0  0  0  0  0  0
  185.6670  178.2550  145.2320 C   0  0  0  0  0  3  0  0  0  0  0  0
  186.9940  178.2830  147.1560 C   0  0  0  0  0  0  0  0  0  0  0  0
  188.7140  178.1870  148.4780 C   0  0  0  0  0  3  0  0  0  0  0  0
  187.0700  178.8490  142.0770 C   0  0  0  0  0  2  0  0  0  0  0  0
  185.5940  178.5200  142.2330 C   0  0  1  0  0  0  0  0  0  0  0  0
  186.6270  177.6510  142.9340 C   0  0  2  0  0  3  0  0  0  0  0  0
  184.8610  179.3870  143.0570 O   0  0  0  0  0  1  0  0  0  0  0  0
  184.9010  177.8740  141.0360 C   0  0  0  0  0  2  0  0  0  0  0  0
  185.5990  176.7110  136.7720 C   0  0  0  0  0  0  0  0  0  0  0  0
  187.1830  178.2090  135.6170 C   0  0  0  0  0  1  0  0  0  0  0  0
  186.8420  178.2520  138.0740 C   0  0  0  0  0  2  0  0  0  0  0  0
  184.6950  177.1230  137.8660 C   0  0  0  0  0  2  0  0  0  0  0  0
  184.8380  179.9420  139.8460 O   0  0  0  0  0  0  0  0  0  0  0  0
  185.2620  175.9700  135.8590 O   0  0  0  0  0  0  0  0  0  0  0  0
  186.9420  177.3550  136.8460 C   0  0  1  0  0  3  0  0  0  0  0  0
  185.4880  178.0990  138.5860 N   0  0  0  0  0  0  0  0  0  0  0  0
  185.0580  178.7020  139.8020 C   0  0  0  0  0  0  0  0  0  0  0  0
  190.5690  177.5030  139.7950 C   0  0  1  0  0  3  0  0  0  0  0  0
  192.0090  177.6660  139.7330 N   0  0  0  0  0  1  0  0  0  0  0  0
  190.1260  176.5590  138.6880 C   0  0  0  0  0  2  0  0  0  0  0  0
  191.1790  176.4570  137.5930 C   0  0  0  0  0  2  0  0  0  0  0  0
  191.6220  175.0160  137.4100 C   0  0  0  0  0  2  0  0  0  0  0  0
  193.0490  174.9860  136.8820 C   0  0  0  0  0  2  0  0  0  0  0  0
  193.9710  174.7450  137.9160 O   0  0  0  0  0  0  0  0  0  0  0  0
  196.9750  175.3400  136.0930 C   0  0  0  0  0  2  0  0  0  0  0  0
  196.2840  174.9030  139.4730 O   0  0  0  0  0  1  0  0  0  0  0  0
  197.6600  172.6040  136.3150 C   0  0  2  0  0  3  0  0  0  0  0  0
  198.4170  173.5690  137.0190 O   0  0  0  0  0  0  0  0  0  0  0  0
  197.6050  174.6950  137.3320 C   0  0  2  0  0  3  0  0  0  0  0  0
  195.7330  172.9790  137.9710 C   0  0  1  0  0  0  0  0  0  0  0  0
  196.5840  171.9580  137.1970 C   0  0  0  0  0  2  0  0  0  0  0  0
  198.5790  171.5250  135.7710 C   0  0  0  0  0  1  0  0  0  0  0  0
  195.5860  174.7260  135.9560 C   0  0  0  0  0  2  0  0  0  0  0  0
  196.4400  174.2950  138.2280 C   0  0  1  0  0  0  0  0  0  0  0  0
  195.1880  174.2810  137.3600 C   0  0  1  0  0  0  0  0  0  0  0  0
  195.0550  172.4990  139.0930 O   0  0  0  0  0  1  0  0  0  0  0  0
  1  8  1  0  0  0  0
  2  1  1  0  0  0  0
  4  7  1  0  0  0  0
  5  3  2  0  0  0  0
  5  6  1  0  0  0  0
  6  2  1  0  0  0  0
  6  4  1  0  0  0  0
  7  8  2  0  0  0  0
  7 14  1  0  0  0  0
  9 14  2  0  0  0  0
  9 15  1  0  0  0  0
 10 16  2  0  0  0  0
 10 12  1  0  0  0  0
 11 16  1  0  0  0  0
 12 17  1  0  0  0  0
 13 17  2  0  0  0  0
 14 10  1  0  0  0  0
 15 11  2  0  0  0  0
 16 13  1  0  0  0  0
 18 19  1  0  0  0  0
 18 20  1  0  0  0  0
 19 20  1  0  0  0  0
 19 21  1  1  0  0  0
 20  9  1  1  0  0  0
 22 19  1  0  0  0  0
 23 29  1  0  0  0  0
 23 26  1  0  0  0  0
 25 30  1  0  0  0  0
 26 30  1  0  0  0  0
 28 23  2  0  0  0  0
 29 24  1  6  0  0  0
 29 25  1  0  0  0  0
 30 31  1  0  0  0  0
 31 27  2  0  0  0  0
 31 22  1  0  0  0  0
 32 33  1  1  0  0  0
 32  5  1  0  0  0  0
 34 32  1  0  0  0  0
 35 34  1  0  0  0  0
 36 35  1  0  0  0  0
 37 36  1  0  0  0  0
 37 38  1  0  0  0  0
 41 46  1  1  0  0  0
 41 42  1  0  0  0  0
 41 45  1  0  0  0  0
 42 43  1  0  0  0  0
 43 39  1  6  0  0  0
 43 48  1  0  0  0  0
 44 48  1  0  0  0  0
 44 50  1  1  0  0  0
 45 44  1  0  0  0  0
 47 39  1  0  0  0  0
 47 49  1  0  0  0  0
 48 40  1  1  0  0  0
 49 38  1  1  0  0  0
 49 44  1  0  0  0  0
 49 48  1  0  0  0  0
M  END
>  <MODEL>
9

>  <REMARK>
 VINA RESULT:      -8.3      4.431      6.424
  Name = 
  11 active torsions:
  status: ('A' for Active; 'I' for Inactive)
    1  A    between atoms: C_1  and  C_25
    2  A    between atoms: C_3  and  C_43
    3  A    between atoms: C_3  and  C_44
    4  A    between atoms: C_9  and  C_33
    5  A    between atoms: C_12  and  C_28
    6  A    between atoms: C_12  and  C_34
    7  A    between atoms: C_24  and  C_49
    8  A    between atoms: C_28  and  C_43
    9  A    between atoms: C_33  and  C_48
   10  A    between atoms: C_34  and  O_36
   11  A    between atoms: O_36  and  C_40
                            x       y       z     vdW  Elec       q    Type
                         _______ _______ _______ _____ _____    ______ ____

>  <TORSDO>
F 11

$$$$
