=
 OpenBabel10222418443D

 41 45  0  0  1  0  0  0  0  0999 V2000
  190.6280  176.0750  138.1140 C   0  0  1  0  0  3  0  0  0  0  0  0
  187.5680  177.9480  138.1000 C   0  0  0  0  0  0  0  0  0  0  0  0
  189.2490  176.2600  135.9550 N   0  0  0  0  0  2  0  0  0  0  0  0
  187.0340  177.3160  135.9230 C   0  0  2  0  0  3  0  0  0  0  0  0
  189.7100  176.6010  137.3060 C   0  0  2  0  0  0  0  0  0  0  0  0
  186.5490  177.7420  137.2900 C   0  0  0  0  0  0  0  0  0  0  0  0
  186.0320  178.6020  139.9610 C   0  0  0  0  0  0  0  0  0  0  0  0
  184.9400  178.4380  139.0320 N   0  0  0  0  0  0  0  0  0  0  0  0
  188.5700  177.4870  136.0210 C   0  0  1  0  0  0  0  0  0  0  0  0
  185.8080  179.0530  141.1180 O   0  0  0  0  0  0  0  0  0  0  0  0
  191.3900  174.8740  137.6760 C   0  0  0  0  0  1  0  0  0  0  0  0
  188.4590  178.3060  140.2920 N   0  0  0  0  0  0  0  0  0  0  0  0
  185.1200  177.7290  137.7520 C   0  0  0  0  0  2  0  0  0  0  0  0
  187.4150  178.2890  139.5150 C   0  0  0  0  0  0  0  0  0  0  0  0
  188.7590  177.7250  137.3850 N   0  0  0  0  0  0  0  0  0  0  0  0
  186.5300  178.1830  134.9540 O   0  0  0  0  0  1  0  0  0  0  0  0
  191.3450  177.2640  140.3610 C   0  0  0  0  0  3  0  0  0  0  0  0
  191.0010  176.7170  139.3430 C   0  0  0  0  0  0  0  0  0  0  0  0
  183.5950  178.8400  139.4400 C   0  0  2  0  0  3  0  0  0  0  0  0
  182.5830  177.7600  139.0850 C   0  0  0  0  0  1  0  0  0  0  0  0
  183.2130  180.1710  138.8090 C   0  0  0  0  0  2  0  0  0  0  0  0
  181.7820  180.2150  138.5720 N   0  0  0  0  0  2  0  0  0  0  0  0
  181.1330  181.4480  138.4330 N   0  0  0  0  0  0  0  0  0  0  0  0
  180.7000  180.9540  136.0940 C   0  0  0  0  0  1  0  0  0  0  0  0
  180.6210  181.8340  137.3060 C   0  0  0  0  0  0  0  0  0  0  0  0
  179.9950  183.0840  137.2530 O   0  0  0  0  0  0  0  0  0  0  0  0
  179.8530  185.8680  137.1470 O   0  0  0  0  0  1  0  0  0  0  0  0
  182.2920  184.6320  137.5150 O   0  0  0  0  0  1  0  0  0  0  0  0
  180.7930  184.5210  136.7420 P   0  0  0  0  0  0  0  0  0  0  0  0
  181.0040  184.4840  135.2460 O   0  0  0  0  0  0  0  0  0  0  0  0
  188.4660  178.5740  141.7270 C   0  0  0  0  0  2  0  0  0  0  0  0
  189.0920  176.7600  144.7910 N   0  0  0  0  0  0  0  0  0  0  0  0
  187.2220  177.1630  143.3430 C   0  0  0  0  0  2  0  0  0  0  0  0
  189.6160  177.2650  143.5250 C   0  0  0  0  0  2  0  0  0  0  0  0
  188.4810  177.2730  142.5200 C   0  0  2  0  0  3  0  0  0  0  0  0
  187.6900  177.1670  144.7810 C   0  0  0  0  0  2  0  0  0  0  0  0
  189.0880  177.1570  147.2220 C   0  0  0  0  0  1  0  0  0  0  0  0
  189.7830  177.4420  145.8940 C   0  0  1  0  0  3  0  0  0  0  0  0
  191.2300  176.9580  146.0030 C   0  0  0  0  0  2  0  0  0  0  0  0
  191.4700  176.2190  147.3090 C   0  0  0  0  0  2  0  0  0  0  0  0
  192.2900  176.9780  148.1450 O   0  0  0  0  0  1  0  0  0  0  0  0
  1 11  1  6  0  0  0
  1 18  1  0  0  0  0
  2 14  1  0  0  0  0
  3  5  1  0  0  0  0
  4 16  1  6  0  0  0
  4  9  1  0  0  0  0
  4  6  1  0  0  0  0
  5 15  1  0  0  0  0
  5  1  1  6  0  0  0
  6 13  1  0  0  0  0
  6  2  2  0  0  0  0
  7 10  2  0  0  0  0
  8 19  1  0  0  0  0
  8  7  1  0  0  0  0
  9  3  1  6  0  0  0
  9  5  1  0  0  0  0
  9 15  1  0  0  0  0
 12 31  1  0  0  0  0
 13  8  1  0  0  0  0
 14  7  1  0  0  0  0
 14 12  2  0  0  0  0
 15  2  1  0  0  0  0
 18 17  3  0  0  0  0
 19 20  1  6  0  0  0
 21 19  1  0  0  0  0
 22 21  1  0  0  0  0
 23 22  1  0  0  0  0
 24 25  1  0  0  0  0
 25 23  2  0  0  0  0
 26 25  1  0  0  0  0
 29 27  1  0  0  0  0
 29 26  1  0  0  0  0
 29 28  1  0  0  0  0
 30 29  2  0  0  0  0
 32 38  1  0  0  0  0
 33 36  1  0  0  0  0
 34 32  1  0  0  0  0
 35 31  1  1  0  0  0
 35 33  1  0  0  0  0
 35 34  1  0  0  0  0
 36 32  1  0  0  0  0
 38 39  1  0  0  0  0
 38 37  1  1  0  0  0
 39 40  1  0  0  0  0
 40 41  1  0  0  0  0
M  END
>  <MODEL>
1

>  <REMARK>
 VINA RESULT:      -8.2      0.000      0.000
  Name = 
  12 active torsions:
  status: ('A' for Active; 'I' for Inactive)
    1  A    between atoms: N_1  and  C_31
    2  A    between atoms: C_3  and  C_8
    3  A    between atoms: C_6  and  N_32
    4  A    between atoms: C_6  and  C_38
    5  A    between atoms: N_7  and  N_21
    6  A    between atoms: C_10  and  N_17
    7  A    between atoms: C_10  and  C_39
    8  A    between atoms: C_12  and  C_24
    9  A    between atoms: C_12  and  C_31
   10  A    between atoms: O_18  and  P_19
   11  A    between atoms: O_18  and  C_23
   12  A    between atoms: N_21  and  C_39
                            x       y       z     vdW  Elec       q    Type
                         _______ _______ _______ _____ _____    ______ ____

>  <TORSDO>
F 12

$$$$
=
 OpenBabel10222418443D

 41 45  0  0  1  0  0  0  0  0999 V2000
  180.8830  179.3070  142.0980 C   0  0  1  0  0  3  0  0  0  0  0  0
  183.5870  177.9720  140.1540 C   0  0  0  0  0  0  0  0  0  0  0  0
  180.4370  178.3890  139.7410 N   0  0  0  0  0  2  0  0  0  0  0  0
  182.2610  177.6820  138.2620 C   0  0  2  0  0  3  0  0  0  0  0  0
  181.1550  178.6000  141.0030 C   0  0  2  0  0  0  0  0  0  0  0  0
  183.6370  177.9330  138.8380 C   0  0  0  0  0  0  0  0  0  0  0  0
  186.0550  178.3470  140.2940 C   0  0  0  0  0  0  0  0  0  0  0  0
  186.0900  178.2290  138.8550 N   0  0  0  0  0  0  0  0  0  0  0  0
  181.3980  177.3920  139.5130 C   0  0  1  0  0  0  0  0  0  0  0  0
  187.1330  178.4560  140.9400 O   0  0  0  0  0  0  0  0  0  0  0  0
  179.6340  180.1140  142.1600 C   0  0  0  0  0  1  0  0  0  0  0  0
  184.5850  178.4720  142.2710 N   0  0  0  0  0  0  0  0  0  0  0  0
  184.8580  178.3050  138.0480 C   0  0  0  0  0  2  0  0  0  0  0  0
  184.7460  178.2800  140.9940 C   0  0  0  0  0  0  0  0  0  0  0  0
  182.2610  177.7320  140.5590 N   0  0  0  0  0  0  0  0  0  0  0  0
  182.2920  176.5520  137.4450 O   0  0  0  0  0  1  0  0  0  0  0  0
  182.3630  179.0930  144.2750 C   0  0  0  0  0  3  0  0  0  0  0  0
  181.6970  179.2060  143.2770 C   0  0  0  0  0  0  0  0  0  0  0  0
  187.3850  178.1960  138.1780 C   0  0  2  0  0  3  0  0  0  0  0  0
  187.2970  178.8820  136.8230 C   0  0  0  0  0  1  0  0  0  0  0  0
  187.8820  176.7650  138.0310 C   0  0  0  0  0  2  0  0  0  0  0  0
  189.3230  176.7210  138.1910 N   0  0  0  0  0  2  0  0  0  0  0  0
  189.9070  177.1320  139.3960 N   0  0  0  0  0  0  0  0  0  0  0  0
  192.0990  176.5360  138.5350 C   0  0  0  0  0  1  0  0  0  0  0  0
  191.1850  177.0610  139.6030 C   0  0  0  0  0  0  0  0  0  0  0  0
  191.6840  177.4860  140.8380 O   0  0  0  0  0  0  0  0  0  0  0  0
  192.0140  177.2990  143.6010 O   0  0  0  0  0  1  0  0  0  0  0  0
  189.6600  178.2970  142.5650 O   0  0  0  0  0  1  0  0  0  0  0  0
  190.8990  177.1700  142.3360 P   0  0  0  0  0  0  0  0  0  0  0  0
  190.3110  175.7780  142.3210 O   0  0  0  0  0  0  0  0  0  0  0  0
  185.6240  178.8360  143.2290 C   0  0  0  0  0  2  0  0  0  0  0  0
  187.1370  177.5880  146.2660 N   0  0  0  0  0  0  0  0  0  0  0  0
  185.0420  178.5650  145.6240 C   0  0  0  0  0  2  0  0  0  0  0  0
  187.0430  177.5120  144.8110 C   0  0  0  0  0  2  0  0  0  0  0  0
  185.6260  177.8790  144.4150 C   0  0  2  0  0  3  0  0  0  0  0  0
  186.1700  178.6190  146.6300 C   0  0  0  0  0  2  0  0  0  0  0  0
  188.6390  178.1140  148.1450 C   0  0  0  0  0  1  0  0  0  0  0  0
  188.4860  178.0430  146.6290 C   0  0  1  0  0  3  0  0  0  0  0  0
  189.5430  177.0770  146.0910 C   0  0  0  0  0  2  0  0  0  0  0  0
  190.5160  176.6560  147.1790 C   0  0  0  0  0  2  0  0  0  0  0  0
  191.8250  176.9260  146.7810 O   0  0  0  0  0  1  0  0  0  0  0  0
  1 11  1  1  0  0  0
  1 18  1  0  0  0  0
  2 15  1  0  0  0  0
  2 14  1  0  0  0  0
  3  5  1  0  0  0  0
  4 16  1  6  0  0  0
  4  6  1  0  0  0  0
  4  9  1  0  0  0  0
  5  1  1  1  0  0  0
  6  2  2  0  0  0  0
  7 10  2  0  0  0  0
  7 14  1  0  0  0  0
  8  7  1  0  0  0  0
  9  3  1  1  0  0  0
  9 15  1  0  0  0  0
  9  5  1  0  0  0  0
 12 31  1  0  0  0  0
 13  6  1  0  0  0  0
 13  8  1  0  0  0  0
 14 12  2  0  0  0  0
 15  5  1  0  0  0  0
 18 17  3  0  0  0  0
 19 20  1  6  0  0  0
 19  8  1  0  0  0  0
 21 19  1  0  0  0  0
 21 22  1  0  0  0  0
 22 23  1  0  0  0  0
 23 25  2  0  0  0  0
 24 25  1  0  0  0  0
 25 26  1  0  0  0  0
 26 29  1  0  0  0  0
 29 28  1  0  0  0  0
 29 27  1  0  0  0  0
 30 29  2  0  0  0  0
 32 38  1  0  0  0  0
 32 36  1  0  0  0  0
 33 36  1  0  0  0  0
 34 32  1  0  0  0  0
 35 31  1  6  0  0  0
 35 34  1  0  0  0  0
 35 33  1  0  0  0  0
 38 37  1  1  0  0  0
 39 38  1  0  0  0  0
 39 40  1  0  0  0  0
 41 40  1  0  0  0  0
M  END
>  <MODEL>
2

>  <REMARK>
 VINA RESULT:      -8.1      3.921      7.821
  Name = 
  12 active torsions:
  status: ('A' for Active; 'I' for Inactive)
    1  A    between atoms: N_1  and  C_31
    2  A    between atoms: C_3  and  C_8
    3  A    between atoms: C_6  and  N_32
    4  A    between atoms: C_6  and  C_38
    5  A    between atoms: N_7  and  N_21
    6  A    between atoms: C_10  and  N_17
    7  A    between atoms: C_10  and  C_39
    8  A    between atoms: C_12  and  C_24
    9  A    between atoms: C_12  and  C_31
   10  A    between atoms: O_18  and  P_19
   11  A    between atoms: O_18  and  C_23
   12  A    between atoms: N_21  and  C_39
                            x       y       z     vdW  Elec       q    Type
                         _______ _______ _______ _____ _____    ______ ____

>  <TORSDO>
F 12

$$$$
=
 OpenBabel10222418443D

 41 45  0  0  1  0  0  0  0  0999 V2000
  181.3420  179.0440  141.7290 C   0  0  1  0  0  3  0  0  0  0  0  0
  184.5250  177.9530  140.4830 C   0  0  0  0  0  0  0  0  0  0  0  0
  181.5290  178.0830  139.3540 N   0  0  0  0  0  2  0  0  0  0  0  0
  183.6980  177.5410  138.3450 C   0  0  2  0  0  3  0  0  0  0  0  0
  181.9180  178.3610  140.7410 C   0  0  2  0  0  0  0  0  0  0  0  0
  184.8780  177.9160  139.2140 C   0  0  0  0  0  0  0  0  0  0  0  0
  186.8530  178.5500  141.1730 C   0  0  0  0  0  0  0  0  0  0  0  0
  187.2270  178.4320  139.7830 N   0  0  0  0  0  0  0  0  0  0  0  0
  182.6000  177.1770  139.3740 C   0  0  1  0  0  0  0  0  0  0  0  0
  187.7410  178.7570  142.0440 O   0  0  0  0  0  0  0  0  0  0  0  0
  180.0470  179.7350  141.4860 C   0  0  0  0  0  1  0  0  0  0  0  0
  184.9650  178.5460  142.7590 N   0  0  0  0  0  0  0  0  0  0  0  0
  186.2110  178.3940  138.7150 C   0  0  0  0  0  2  0  0  0  0  0  0
  185.4290  178.3670  141.5570 C   0  0  0  0  0  0  0  0  0  0  0  0
  183.1680  177.5960  140.5800 N   0  0  0  0  0  0  0  0  0  0  0  0
  184.0140  176.4160  137.5830 O   0  0  0  0  0  1  0  0  0  0  0  0
  182.3190  179.0330  144.1830 C   0  0  0  0  0  3  0  0  0  0  0  0
  181.8700  179.0200  143.0640 C   0  0  0  0  0  0  0  0  0  0  0  0
  188.6400  178.5140  139.4190 C   0  0  2  0  0  3  0  0  0  0  0  0
  188.7960  178.6940  137.9170 C   0  0  0  0  0  1  0  0  0  0  0  0
  189.3940  177.2820  139.8990 C   0  0  0  0  0  2  0  0  0  0  0  0
  189.6850  176.4100  138.7760 N   0  0  0  0  0  2  0  0  0  0  0  0
  190.8670  175.6600  138.7590 N   0  0  0  0  0  0  0  0  0  0  0  0
  190.7380  175.5140  136.3380 C   0  0  0  0  0  1  0  0  0  0  0  0
  191.3900  175.2210  137.6560 C   0  0  0  0  0  0  0  0  0  0  0  0
  192.5690  174.4740  137.7300 O   0  0  0  0  0  0  0  0  0  0  0  0
  194.6910  174.3040  135.9270 O   0  0  0  0  0  0  0  0  0  0  0  0
  193.9760  176.7530  136.9770 O   0  0  0  0  0  1  0  0  0  0  0  0
  194.1150  175.1010  137.3030 P   0  0  0  0  0  0  0  0  0  0  0  0
  195.0820  174.8970  138.4470 O   0  0  0  0  0  1  0  0  0  0  0  0
  185.7210  179.0050  143.9210 C   0  0  0  0  0  2  0  0  0  0  0  0
  187.3870  177.4260  146.7130 N   0  0  0  0  0  0  0  0  0  0  0  0
  185.2650  178.4650  146.2980 C   0  0  0  0  0  2  0  0  0  0  0  0
  187.2160  177.5130  145.2660 C   0  0  0  0  0  2  0  0  0  0  0  0
  185.7820  177.9210  144.9900 C   0  0  2  0  0  3  0  0  0  0  0  0
  186.4460  178.4080  147.2410 C   0  0  0  0  0  2  0  0  0  0  0  0
  188.8280  178.3190  148.4990 C   0  0  0  0  0  1  0  0  0  0  0  0
  188.7550  177.8400  147.0530 C   0  0  1  0  0  3  0  0  0  0  0  0
  189.7270  176.6690  146.8930 C   0  0  0  0  0  2  0  0  0  0  0  0
  190.9500  177.0690  146.0860 C   0  0  0  0  0  2  0  0  0  0  0  0
  192.1070  176.5900  146.7010 O   0  0  0  0  0  1  0  0  0  0  0  0
  1 11  1  1  0  0  0
  1 18  1  0  0  0  0
  2 15  1  0  0  0  0
  2 14  1  0  0  0  0
  3  5  1  0  0  0  0
  4 16  1  6  0  0  0
  4  6  1  0  0  0  0
  4  9  1  0  0  0  0
  5  1  1  1  0  0  0
  6  2  2  0  0  0  0
  7 14  1  0  0  0  0
  7 10  2  0  0  0  0
  8  7  1  0  0  0  0
  9  3  1  6  0  0  0
  9 15  1  0  0  0  0
  9  5  1  0  0  0  0
 12 31  1  0  0  0  0
 13  6  1  0  0  0  0
 13  8  1  0  0  0  0
 14 12  2  0  0  0  0
 15  5  1  0  0  0  0
 18 17  3  0  0  0  0
 19 20  1  6  0  0  0
 19  8  1  0  0  0  0
 19 21  1  0  0  0  0
 22 21  1  0  0  0  0
 23 22  1  0  0  0  0
 24 25  1  0  0  0  0
 25 26  1  0  0  0  0
 25 23  2  0  0  0  0
 27 29  2  0  0  0  0
 28 29  1  0  0  0  0
 29 26  1  0  0  0  0
 29 30  1  0  0  0  0
 32 38  1  0  0  0  0
 32 36  1  0  0  0  0
 33 36  1  0  0  0  0
 34 32  1  0  0  0  0
 35 31  1  6  0  0  0
 35 34  1  0  0  0  0
 35 33  1  0  0  0  0
 38 37  1  1  0  0  0
 39 38  1  0  0  0  0
 40 41  1  0  0  0  0
 40 39  1  0  0  0  0
M  END
>  <MODEL>
3

>  <REMARK>
 VINA RESULT:      -7.9      4.343      8.344
  Name = 
  12 active torsions:
  status: ('A' for Active; 'I' for Inactive)
    1  A    between atoms: N_1  and  C_31
    2  A    between atoms: C_3  and  C_8
    3  A    between atoms: C_6  and  N_32
    4  A    between atoms: C_6  and  C_38
    5  A    between atoms: N_7  and  N_21
    6  A    between atoms: C_10  and  N_17
    7  A    between atoms: C_10  and  C_39
    8  A    between atoms: C_12  and  C_24
    9  A    between atoms: C_12  and  C_31
   10  A    between atoms: O_18  and  P_19
   11  A    between atoms: O_18  and  C_23
   12  A    between atoms: N_21  and  C_39
                            x       y       z     vdW  Elec       q    Type
                         _______ _______ _______ _____ _____    ______ ____

>  <TORSDO>
F 12

$$$$
=
 OpenBabel10222418443D

 41 45  0  0  1  0  0  0  0  0999 V2000
  186.9360  177.7930  145.4140 C   0  0  1  0  0  3  0  0  0  0  0  0
  188.5510  178.0680  142.2210 C   0  0  0  0  0  0  0  0  0  0  0  0
  189.4170  177.1740  145.1740 N   0  0  0  0  0  2  0  0  0  0  0  0
  190.5270  177.1050  142.9880 C   0  0  2  0  0  3  0  0  0  0  0  0
  188.1300  177.7840  144.8240 C   0  0  2  0  0  0  0  0  0  0  0  0
  189.5930  177.3630  141.8280 C   0  0  0  0  0  0  0  0  0  0  0  0
  187.6160  178.0890  139.9030 C   0  0  0  0  0  0  0  0  0  0  0  0
  188.8030  177.3790  139.4870 N   0  0  0  0  0  0  0  0  0  0  0  0
  189.9250  177.9600  144.1290 C   0  0  1  0  0  0  0  0  0  0  0  0
  186.7800  178.4730  139.0390 O   0  0  0  0  0  0  0  0  0  0  0  0
  186.7370  177.0400  146.6820 C   0  0  0  0  0  1  0  0  0  0  0  0
  186.3590  178.9510  141.8420 N   0  0  0  0  0  0  0  0  0  0  0  0
  189.6970  176.7380  140.4670 C   0  0  0  0  0  2  0  0  0  0  0  0
  187.4300  178.4050  141.3430 C   0  0  0  0  0  0  0  0  0  0  0  0
  188.6980  178.3580  143.5900 N   0  0  0  0  0  0  0  0  0  0  0  0
  191.8030  177.5750  142.6770 O   0  0  0  0  0  1  0  0  0  0  0  0
  184.9800  179.3430  144.5490 C   0  0  0  0  0  3  0  0  0  0  0  0
  185.8670  178.6230  144.9310 C   0  0  0  0  0  0  0  0  0  0  0  0
  189.0310  177.1560  138.0600 C   0  0  2  0  0  3  0  0  0  0  0  0
  188.2940  175.9120  137.5890 C   0  0  0  0  0  1  0  0  0  0  0  0
  190.5200  177.0510  137.7620 C   0  0  0  0  0  2  0  0  0  0  0  0
  190.8190  175.7550  137.1800 N   0  0  0  0  0  2  0  0  0  0  0  0
  191.7570  174.9130  137.7880 N   0  0  0  0  0  0  0  0  0  0  0  0
  193.3710  175.4650  136.0580 C   0  0  0  0  0  1  0  0  0  0  0  0
  192.9490  174.7440  137.3040 C   0  0  0  0  0  0  0  0  0  0  0  0
  193.8220  173.8790  137.9710 O   0  0  0  0  0  0  0  0  0  0  0  0
  196.1840  175.0650  137.0800 O   0  0  0  0  0  0  0  0  0  0  0  0
  195.4110  175.3570  139.7120 O   0  0  0  0  0  1  0  0  0  0  0  0
  195.4360  174.3030  138.3910 P   0  0  0  0  0  0  0  0  0  0  0  0
  196.2110  173.0580  138.7610 O   0  0  0  0  0  1  0  0  0  0  0  0
  185.1430  179.2980  141.1130 C   0  0  0  0  0  2  0  0  0  0  0  0
  181.6890  178.2410  141.2750 N   0  0  0  0  0  0  0  0  0  0  0  0
  183.5960  177.7920  139.8910 C   0  0  0  0  0  2  0  0  0  0  0  0
  182.8720  178.7100  141.9910 C   0  0  0  0  0  2  0  0  0  0  0  0
  184.0950  178.1990  141.2540 C   0  0  2  0  0  3  0  0  0  0  0  0
  182.1270  178.1520  139.8860 C   0  0  0  0  0  2  0  0  0  0  0  0
  179.3000  178.7070  140.8990 C   0  0  0  0  0  1  0  0  0  0  0  0
  180.6370  179.2610  141.3830 C   0  0  1  0  0  3  0  0  0  0  0  0
  180.4670  179.7060  142.8360 C   0  0  0  0  0  2  0  0  0  0  0  0
  179.1950  179.1400  143.4450 C   0  0  0  0  0  2  0  0  0  0  0  0
  179.4990  178.0540  144.2650 O   0  0  0  0  0  1  0  0  0  0  0  0
  1 11  1  1  0  0  0
  2 15  1  0  0  0  0
  4 16  1  6  0  0  0
  4  9  1  0  0  0  0
  5  3  1  0  0  0  0
  5  1  1  1  0  0  0
  6  2  2  0  0  0  0
  6  4  1  0  0  0  0
  7 14  1  0  0  0  0
  8  7  1  0  0  0  0
  8 13  1  0  0  0  0
  9  5  1  0  0  0  0
  9  3  1  1  0  0  0
 10  7  2  0  0  0  0
 13  6  1  0  0  0  0
 14 12  2  0  0  0  0
 14  2  1  0  0  0  0
 15  9  1  0  0  0  0
 15  5  1  0  0  0  0
 17 18  3  0  0  0  0
 18  1  1  0  0  0  0
 19 20  1  1  0  0  0
 19  8  1  0  0  0  0
 21 19  1  0  0  0  0
 22 21  1  0  0  0  0
 22 23  1  0  0  0  0
 24 25  1  0  0  0  0
 25 23  2  0  0  0  0
 25 26  1  0  0  0  0
 26 29  1  0  0  0  0
 27 29  2  0  0  0  0
 29 30  1  0  0  0  0
 29 28  1  0  0  0  0
 31 12  1  0  0  0  0
 32 38  1  0  0  0  0
 32 34  1  0  0  0  0
 33 35  1  0  0  0  0
 35 31  1  6  0  0  0
 35 34  1  0  0  0  0
 36 33  1  0  0  0  0
 36 32  1  0  0  0  0
 38 37  1  1  0  0  0
 38 39  1  0  0  0  0
 39 40  1  0  0  0  0
 40 41  1  0  0  0  0
M  END
>  <MODEL>
4

>  <REMARK>
 VINA RESULT:      -7.7      4.895     10.111
  Name = 
  12 active torsions:
  status: ('A' for Active; 'I' for Inactive)
    1  A    between atoms: N_1  and  C_31
    2  A    between atoms: C_3  and  C_8
    3  A    between atoms: C_6  and  N_32
    4  A    between atoms: C_6  and  C_38
    5  A    between atoms: N_7  and  N_21
    6  A    between atoms: C_10  and  N_17
    7  A    between atoms: C_10  and  C_39
    8  A    between atoms: C_12  and  C_24
    9  A    between atoms: C_12  and  C_31
   10  A    between atoms: O_18  and  P_19
   11  A    between atoms: O_18  and  C_23
   12  A    between atoms: N_21  and  C_39
                            x       y       z     vdW  Elec       q    Type
                         _______ _______ _______ _____ _____    ______ ____

>  <TORSDO>
F 12

$$$$
=
 OpenBabel10222418443D

 41 45  0  0  1  0  0  0  0  0999 V2000
  189.0920  177.2420  139.2620 C   0  0  1  0  0  3  0  0  0  0  0  0
  185.8160  178.1080  138.0830 C   0  0  0  0  0  0  0  0  0  0  0  0
  188.4370  176.7600  136.8250 N   0  0  0  0  0  2  0  0  0  0  0  0
  186.1480  177.1000  136.0110 C   0  0  2  0  0  3  0  0  0  0  0  0
  188.3630  177.3750  138.1550 C   0  0  2  0  0  0  0  0  0  0  0  0
  185.1780  177.5170  137.0920 C   0  0  0  0  0  0  0  0  0  0  0  0
  183.6730  178.4880  139.3140 C   0  0  0  0  0  0  0  0  0  0  0  0
  182.9940  177.9010  138.1830 N   0  0  0  0  0  0  0  0  0  0  0  0
  187.4860  177.7290  136.4690 C   0  0  1  0  0  0  0  0  0  0  0  0
  183.0010  178.9820  140.2600 O   0  0  0  0  0  0  0  0  0  0  0  0
  190.2270  176.2790  139.2820 C   0  0  0  0  0  1  0  0  0  0  0  0
  185.8750  178.9660  140.3160 N   0  0  0  0  0  0  0  0  0  0  0  0
  183.7280  177.1340  137.1590 C   0  0  0  0  0  2  0  0  0  0  0  0
  185.1580  178.5500  139.3130 C   0  0  0  0  0  0  0  0  0  0  0  0
  187.1840  178.1680  137.7610 N   0  0  0  0  0  0  0  0  0  0  0  0
  185.7630  177.6600  134.7920 O   0  0  0  0  0  1  0  0  0  0  0  0
  188.7640  178.8130  141.3600 C   0  0  0  0  0  3  0  0  0  0  0  0
  188.8990  178.1040  140.3950 C   0  0  0  0  0  0  0  0  0  0  0  0
  181.5330  177.9290  138.1400 C   0  0  2  0  0  3  0  0  0  0  0  0
  180.9530  176.7180  138.8550 C   0  0  0  0  0  1  0  0  0  0  0  0
  181.0360  178.0000  136.7030 C   0  0  0  0  0  2  0  0  0  0  0  0
  180.2340  179.1960  136.5140 N   0  0  0  0  0  2  0  0  0  0  0  0
  180.8500  180.4530  136.4770 N   0  0  0  0  0  0  0  0  0  0  0  0
  179.0880  181.2710  135.0180 C   0  0  0  0  0  1  0  0  0  0  0  0
  180.3590  181.4420  135.7960 C   0  0  0  0  0  0  0  0  0  0  0  0
  181.0410  182.6620  135.8090 O   0  0  0  0  0  0  0  0  0  0  0  0
  182.1440  184.6490  137.4270 O   0  0  0  0  0  1  0  0  0  0  0  0
  179.7260  185.0860  136.1750 O   0  0  0  0  0  0  0  0  0  0  0  0
  180.7000  183.9270  136.9260 P   0  0  0  0  0  0  0  0  0  0  0  0
  179.9720  183.3650  138.1260 O   0  0  0  0  0  1  0  0  0  0  0  0
  185.3760  179.3870  141.6220 C   0  0  0  0  0  2  0  0  0  0  0  0
  186.2780  177.5010  144.5710 N   0  0  0  0  0  0  0  0  0  0  0  0
  184.3140  178.5750  143.7100 C   0  0  0  0  0  2  0  0  0  0  0  0
  186.5020  177.7540  143.1510 C   0  0  0  0  0  2  0  0  0  0  0  0
  185.1830  178.1870  142.5410 C   0  0  2  0  0  3  0  0  0  0  0  0
  185.1960  178.4130  144.9280 C   0  0  0  0  0  2  0  0  0  0  0  0
  187.3220  177.5760  146.8010 C   0  0  0  0  0  1  0  0  0  0  0  0
  187.4890  177.8770  145.3150 C   0  0  1  0  0  3  0  0  0  0  0  0
  188.6980  177.0900  144.8050 C   0  0  0  0  0  2  0  0  0  0  0  0
  189.9850  177.8800  144.9750 C   0  0  0  0  0  2  0  0  0  0  0  0
  190.7690  177.3090  145.9770 O   0  0  0  0  0  1  0  0  0  0  0  0
  1 11  1  6  0  0  0
  1 18  1  0  0  0  0
  2 14  1  0  0  0  0
  3  5  1  0  0  0  0
  4 16  1  6  0  0  0
  4  9  1  0  0  0  0
  4  6  1  0  0  0  0
  5  1  1  1  0  0  0
  6 13  1  0  0  0  0
  6  2  2  0  0  0  0
  7 10  2  0  0  0  0
  8  7  1  0  0  0  0
  9  3  1  6  0  0  0
  9 15  1  0  0  0  0
  9  5  1  0  0  0  0
 12 31  1  0  0  0  0
 13  8  1  0  0  0  0
 14  7  1  0  0  0  0
 14 12  2  0  0  0  0
 15  2  1  0  0  0  0
 15  5  1  0  0  0  0
 18 17  3  0  0  0  0
 19  8  1  0  0  0  0
 19 20  1  6  0  0  0
 21 19  1  0  0  0  0
 22 21  1  0  0  0  0
 23 22  1  0  0  0  0
 24 25  1  0  0  0  0
 25 26  1  0  0  0  0
 25 23  2  0  0  0  0
 26 29  1  0  0  0  0
 28 29  2  0  0  0  0
 29 27  1  0  0  0  0
 29 30  1  0  0  0  0
 32 36  1  0  0  0  0
 32 38  1  0  0  0  0
 33 36  1  0  0  0  0
 34 32  1  0  0  0  0
 35 31  1  6  0  0  0
 35 34  1  0  0  0  0
 35 33  1  0  0  0  0
 38 37  1  1  0  0  0
 39 40  1  0  0  0  0
 39 38  1  0  0  0  0
 40 41  1  0  0  0  0
M  END
>  <MODEL>
5

>  <REMARK>
 VINA RESULT:      -7.3      1.740      2.446
  Name = 
  12 active torsions:
  status: ('A' for Active; 'I' for Inactive)
    1  A    between atoms: N_1  and  C_31
    2  A    between atoms: C_3  and  C_8
    3  A    between atoms: C_6  and  N_32
    4  A    between atoms: C_6  and  C_38
    5  A    between atoms: N_7  and  N_21
    6  A    between atoms: C_10  and  N_17
    7  A    between atoms: C_10  and  C_39
    8  A    between atoms: C_12  and  C_24
    9  A    between atoms: C_12  and  C_31
   10  A    between atoms: O_18  and  P_19
   11  A    between atoms: O_18  and  C_23
   12  A    between atoms: N_21  and  C_39
                            x       y       z     vdW  Elec       q    Type
                         _______ _______ _______ _____ _____    ______ ____

>  <TORSDO>
F 12

$$$$
=
 OpenBabel10222418443D

 41 45  0  0  1  0  0  0  0  0999 V2000
  181.1750  179.2180  142.1390 C   0  0  1  0  0  3  0  0  0  0  0  0
  183.8420  177.9440  140.1040 C   0  0  0  0  0  0  0  0  0  0  0  0
  180.6750  178.3230  139.7840 N   0  0  0  0  0  2  0  0  0  0  0  0
  182.4680  177.6600  138.2450 C   0  0  2  0  0  3  0  0  0  0  0  0
  181.4260  178.5270  141.0280 C   0  0  2  0  0  0  0  0  0  0  0  0
  183.8550  177.9220  138.7860 C   0  0  0  0  0  0  0  0  0  0  0  0
  186.3070  178.3520  140.1800 C   0  0  0  0  0  0  0  0  0  0  0  0
  186.3040  178.2520  138.7400 N   0  0  0  0  0  0  0  0  0  0  0  0
  181.6440  177.3420  139.5170 C   0  0  1  0  0  0  0  0  0  0  0  0
  187.4010  178.4670  140.7970 O   0  0  0  0  0  0  0  0  0  0  0  0
  179.9180  180.0060  142.2470 C   0  0  0  0  0  1  0  0  0  0  0  0
  184.8910  178.4310  142.1980 N   0  0  0  0  0  0  0  0  0  0  0  0
  185.0490  178.3210  137.9680 C   0  0  0  0  0  2  0  0  0  0  0  0
  185.0190  178.2580  140.9150 C   0  0  0  0  0  0  0  0  0  0  0  0
  182.5310  177.6810  140.5420 N   0  0  0  0  0  0  0  0  0  0  0  0
  182.4910  176.5410  137.4130 O   0  0  0  0  0  1  0  0  0  0  0  0
  182.7170  178.9970  144.2730 C   0  0  0  0  0  3  0  0  0  0  0  0
  182.0230  179.1120  143.2940 C   0  0  0  0  0  0  0  0  0  0  0  0
  187.5790  178.2450  138.0270 C   0  0  2  0  0  3  0  0  0  0  0  0
  187.3840  178.6670  136.5780 C   0  0  0  0  0  1  0  0  0  0  0  0
  188.2380  176.8760  138.1090 C   0  0  0  0  0  2  0  0  0  0  0  0
  187.6930  176.0010  137.0870 N   0  0  0  0  0  2  0  0  0  0  0  0
  186.6750  175.0960  137.4100 N   0  0  0  0  0  0  0  0  0  0  0  0
  188.0710  173.2580  136.6510 C   0  0  0  0  0  1  0  0  0  0  0  0
  186.8020  173.8190  137.2220 C   0  0  0  0  0  0  0  0  0  0  0  0
  185.7340  172.9850  137.5660 O   0  0  0  0  0  0  0  0  0  0  0  0
  183.4250  171.4580  137.2210 O   0  0  0  0  0  1  0  0  0  0  0  0
  183.7520  173.7920  135.7880 O   0  0  0  0  0  1  0  0  0  0  0  0
  184.5480  172.4510  136.4380 P   0  0  0  0  0  0  0  0  0  0  0  0
  185.2150  171.6780  135.3240 O   0  0  0  0  0  0  0  0  0  0  0  0
  185.9520  178.7970  143.1330 C   0  0  0  0  0  2  0  0  0  0  0  0
  188.1340  177.1240  145.4800 N   0  0  0  0  0  0  0  0  0  0  0  0
  185.9520  178.1190  145.5180 C   0  0  0  0  0  2  0  0  0  0  0  0
  187.6980  177.2830  144.0950 C   0  0  0  0  0  2  0  0  0  0  0  0
  186.2300  177.6600  144.1090 C   0  0  2  0  0  3  0  0  0  0  0  0
  187.2860  178.0490  146.2260 C   0  0  0  0  0  2  0  0  0  0  0  0
  190.1420  177.0930  146.9050 C   0  0  0  0  0  1  0  0  0  0  0  0
  189.5330  177.5610  145.5870 C   0  0  1  0  0  3  0  0  0  0  0  0
  190.3680  176.9780  144.4460 C   0  0  0  0  0  2  0  0  0  0  0  0
  191.4140  177.9670  143.9610 C   0  0  0  0  0  2  0  0  0  0  0  0
  191.9650  177.5300  142.7570 O   0  0  0  0  0  1  0  0  0  0  0  0
  1 11  1  1  0  0  0
  1 18  1  0  0  0  0
  2 15  1  0  0  0  0
  2 14  1  0  0  0  0
  3  5  1  0  0  0  0
  4 16  1  6  0  0  0
  4  6  1  0  0  0  0
  4  9  1  0  0  0  0
  5  1  1  1  0  0  0
  6  2  2  0  0  0  0
  7 10  2  0  0  0  0
  7 14  1  0  0  0  0
  8  7  1  0  0  0  0
  9  3  1  1  0  0  0
  9 15  1  0  0  0  0
  9  5  1  0  0  0  0
 12 31  1  0  0  0  0
 13  8  1  0  0  0  0
 13  6  1  0  0  0  0
 14 12  2  0  0  0  0
 15  5  1  0  0  0  0
 18 17  3  0  0  0  0
 19 20  1  6  0  0  0
 19 21  1  0  0  0  0
 19  8  1  0  0  0  0
 22 23  1  0  0  0  0
 22 21  1  0  0  0  0
 24 25  1  0  0  0  0
 25 23  2  0  0  0  0
 25 26  1  0  0  0  0
 28 29  1  0  0  0  0
 29 27  1  0  0  0  0
 29 26  1  0  0  0  0
 30 29  2  0  0  0  0
 32 38  1  0  0  0  0
 32 36  1  0  0  0  0
 33 36  1  0  0  0  0
 34 35  1  0  0  0  0
 34 32  1  0  0  0  0
 35 31  1  6  0  0  0
 35 33  1  0  0  0  0
 38 37  1  1  0  0  0
 39 38  1  0  0  0  0
 40 39  1  0  0  0  0
 41 40  1  0  0  0  0
M  END
>  <MODEL>
6

>  <REMARK>
 VINA RESULT:      -7.3      3.998      7.347
  Name = 
  12 active torsions:
  status: ('A' for Active; 'I' for Inactive)
    1  A    between atoms: N_1  and  C_31
    2  A    between atoms: C_3  and  C_8
    3  A    between atoms: C_6  and  N_32
    4  A    between atoms: C_6  and  C_38
    5  A    between atoms: N_7  and  N_21
    6  A    between atoms: C_10  and  N_17
    7  A    between atoms: C_10  and  C_39
    8  A    between atoms: C_12  and  C_24
    9  A    between atoms: C_12  and  C_31
   10  A    between atoms: O_18  and  P_19
   11  A    between atoms: O_18  and  C_23
   12  A    between atoms: N_21  and  C_39
                            x       y       z     vdW  Elec       q    Type
                         _______ _______ _______ _____ _____    ______ ____

>  <TORSDO>
F 12

$$$$
=
 OpenBabel10222418443D

 41 45  0  0  1  0  0  0  0  0999 V2000
  190.9800  178.1540  143.4490 C   0  0  1  0  0  3  0  0  0  0  0  0
  187.5220  177.8570  142.5390 C   0  0  0  0  0  0  0  0  0  0  0  0
  189.1840  177.9690  145.2770 N   0  0  0  0  0  2  0  0  0  0  0  0
  186.7900  178.0040  144.7450 C   0  0  2  0  0  3  0  0  0  0  0  0
  189.7750  177.8660  143.9370 C   0  0  2  0  0  0  0  0  0  0  0  0
  186.5000  178.2380  143.2790 C   0  0  0  0  0  0  0  0  0  0  0  0
  186.3140  178.4870  140.4430 C   0  0  0  0  0  0  0  0  0  0  0  0
  185.1840  178.8300  141.2740 N   0  0  0  0  0  0  0  0  0  0  0  0
  188.1280  177.2270  144.7240 C   0  0  1  0  0  0  0  0  0  0  0  0
  186.2030  178.5280  139.1870 O   0  0  0  0  0  0  0  0  0  0  0  0
  192.0170  178.7310  144.3470 C   0  0  0  0  0  1  0  0  0  0  0  0
  188.6810  177.7950  140.4460 N   0  0  0  0  0  0  0  0  0  0  0  0
  185.3240  178.9940  142.7320 C   0  0  0  0  0  2  0  0  0  0  0  0
  187.5740  178.0350  141.0870 C   0  0  0  0  0  0  0  0  0  0  0  0
  188.5160  177.3320  143.3850 N   0  0  0  0  0  0  0  0  0  0  0  0
  185.7930  177.2000  145.2980 O   0  0  0  0  0  1  0  0  0  0  0  0
  191.6680  177.5280  140.9770 C   0  0  0  0  0  3  0  0  0  0  0  0
  191.3510  177.7950  142.1090 C   0  0  0  0  0  0  0  0  0  0  0  0
  183.9150  179.1800  140.6360 C   0  0  2  0  0  3  0  0  0  0  0  0
  183.0150  177.9580  140.5320 C   0  0  0  0  0  1  0  0  0  0  0  0
  184.1520  179.7970  139.2650 C   0  0  0  0  0  2  0  0  0  0  0  0
  182.8840  179.9990  138.5870 N   0  0  0  0  0  2  0  0  0  0  0  0
  182.2570  181.2510  138.6330 N   0  0  0  0  0  0  0  0  0  0  0  0
  180.4710  180.4040  137.2210 C   0  0  0  0  0  1  0  0  0  0  0  0
  181.1430  181.4860  138.0130 C   0  0  0  0  0  0  0  0  0  0  0  0
  180.5870  182.7660  138.1060 O   0  0  0  0  0  0  0  0  0  0  0  0
  182.6080  184.6220  137.6010 O   0  0  0  0  0  1  0  0  0  0  0  0
  181.1490  183.5790  135.5050 O   0  0  0  0  0  0  0  0  0  0  0  0
  181.0790  184.0860  137.1160 P   0  0  0  0  0  0  0  0  0  0  0  0
  180.0830  185.2160  137.2410 O   0  0  0  0  0  1  0  0  0  0  0  0
  188.9100  177.9730  139.0150 C   0  0  0  0  0  2  0  0  0  0  0  0
  188.8060  175.5550  136.3300 N   0  0  0  0  0  0  0  0  0  0  0  0
  190.4500  176.9740  137.3480 C   0  0  0  0  0  2  0  0  0  0  0  0
  188.2690  176.0000  137.6130 C   0  0  0  0  0  2  0  0  0  0  0  0
  189.3910  176.6750  138.3780 C   0  0  2  0  0  3  0  0  0  0  0  0
  189.8580  176.5210  136.0320 C   0  0  0  0  0  2  0  0  0  0  0  0
  187.1990  174.2870  134.9600 C   0  0  0  0  0  1  0  0  0  0  0  0
  187.7500  175.6650  135.3130 C   0  0  1  0  0  3  0  0  0  0  0  0
  186.5920  176.5200  135.8310 C   0  0  0  0  0  2  0  0  0  0  0  0
  186.5730  177.8880  135.1700 C   0  0  0  0  0  2  0  0  0  0  0  0
  187.1600  178.8340  136.0110 O   0  0  0  0  0  1  0  0  0  0  0  0
  1 11  1  1  0  0  0
  2  6  2  0  0  0  0
  2 15  1  0  0  0  0
  4 16  1  6  0  0  0
  5  1  1  1  0  0  0
  5  9  1  0  0  0  0
  5  3  1  0  0  0  0
  6  4  1  0  0  0  0
  7 14  1  0  0  0  0
  7  8  1  0  0  0  0
  8 13  1  0  0  0  0
  9  4  1  0  0  0  0
  9  3  1  1  0  0  0
 10  7  2  0  0  0  0
 12 14  2  0  0  0  0
 13  6  1  0  0  0  0
 14  2  1  0  0  0  0
 15  5  1  0  0  0  0
 15  9  1  0  0  0  0
 17 18  3  0  0  0  0
 18  1  1  0  0  0  0
 19 20  1  6  0  0  0
 19  8  1  0  0  0  0
 21 19  1  0  0  0  0
 22 23  1  0  0  0  0
 22 21  1  0  0  0  0
 24 25  1  0  0  0  0
 25 26  1  0  0  0  0
 25 23  2  0  0  0  0
 28 29  2  0  0  0  0
 29 30  1  0  0  0  0
 29 27  1  0  0  0  0
 29 26  1  0  0  0  0
 31 12  1  0  0  0  0
 32 34  1  0  0  0  0
 33 35  1  0  0  0  0
 34 35  1  0  0  0  0
 35 31  1  6  0  0  0
 36 32  1  0  0  0  0
 36 33  1  0  0  0  0
 38 37  1  1  0  0  0
 38 39  1  0  0  0  0
 38 32  1  0  0  0  0
 40 39  1  0  0  0  0
 40 41  1  0  0  0  0
M  END
>  <MODEL>
7

>  <REMARK>
 VINA RESULT:      -6.8      1.927      6.417
  Name = 
  12 active torsions:
  status: ('A' for Active; 'I' for Inactive)
    1  A    between atoms: N_1  and  C_31
    2  A    between atoms: C_3  and  C_8
    3  A    between atoms: C_6  and  N_32
    4  A    between atoms: C_6  and  C_38
    5  A    between atoms: N_7  and  N_21
    6  A    between atoms: C_10  and  N_17
    7  A    between atoms: C_10  and  C_39
    8  A    between atoms: C_12  and  C_24
    9  A    between atoms: C_12  and  C_31
   10  A    between atoms: O_18  and  P_19
   11  A    between atoms: O_18  and  C_23
   12  A    between atoms: N_21  and  C_39
                            x       y       z     vdW  Elec       q    Type
                         _______ _______ _______ _____ _____    ______ ____

>  <TORSDO>
F 12

$$$$
=
 OpenBabel10222418443D

 41 45  0  0  1  0  0  0  0  0999 V2000
  187.0440  177.7590  145.2000 C   0  0  1  0  0  3  0  0  0  0  0  0
  188.4010  178.1950  141.9080 C   0  0  0  0  0  0  0  0  0  0  0  0
  189.5240  177.2560  144.7580 N   0  0  0  0  0  2  0  0  0  0  0  0
  190.4680  177.2990  142.4950 C   0  0  2  0  0  3  0  0  0  0  0  0
  188.1900  177.8190  144.5240 C   0  0  2  0  0  0  0  0  0  0  0  0
  189.4390  177.5490  141.4160 C   0  0  0  0  0  0  0  0  0  0  0  0
  187.2940  178.2420  139.6660 C   0  0  0  0  0  0  0  0  0  0  0  0
  188.4750  177.5980  139.1410 N   0  0  0  0  0  0  0  0  0  0  0  0
  189.9180  178.0940  143.7030 C   0  0  1  0  0  0  0  0  0  0  0  0
  186.3810  178.6130  138.8790 O   0  0  0  0  0  0  0  0  0  0  0  0
  186.9730  176.9610  146.4550 C   0  0  0  0  0  1  0  0  0  0  0  0
  186.1520  178.9920  141.7200 N   0  0  0  0  0  0  0  0  0  0  0  0
  189.4670  176.9680  140.0320 C   0  0  0  0  0  2  0  0  0  0  0  0
  187.2040  178.5090  141.1260 C   0  0  0  0  0  0  0  0  0  0  0  0
  188.6390  178.4520  143.2700 N   0  0  0  0  0  0  0  0  0  0  0  0
  191.6970  177.8330  142.1050 O   0  0  0  0  0  1  0  0  0  0  0  0
  184.9750  179.2350  144.4840 C   0  0  0  0  0  3  0  0  0  0  0  0
  185.9090  178.5540  144.8250 C   0  0  0  0  0  0  0  0  0  0  0  0
  188.6050  177.4260  137.6950 C   0  0  2  0  0  3  0  0  0  0  0  0
  187.8020  176.2220  137.2260 C   0  0  0  0  0  1  0  0  0  0  0  0
  190.0670  177.2920  137.2960 C   0  0  0  0  0  2  0  0  0  0  0  0
  190.3080  175.9790  136.7260 N   0  0  0  0  0  2  0  0  0  0  0  0
  191.1210  175.0600  137.4000 N   0  0  0  0  0  0  0  0  0  0  0  0
  192.9650  175.6060  135.9160 C   0  0  0  0  0  1  0  0  0  0  0  0
  192.3550  174.8510  137.0590 C   0  0  0  0  0  0  0  0  0  0  0  0
  193.0950  173.9110  137.7820 O   0  0  0  0  0  0  0  0  0  0  0  0
  195.5020  175.2610  138.1920 O   0  0  0  0  0  1  0  0  0  0  0  0
  195.3320  172.5620  138.7390 O   0  0  0  0  0  1  0  0  0  0  0  0
  194.8110  173.7950  137.7070 P   0  0  0  0  0  0  0  0  0  0  0  0
  195.2400  173.4780  136.2930 O   0  0  0  0  0  0  0  0  0  0  0  0
  184.8710  179.3060  141.0940 C   0  0  0  0  0  2  0  0  0  0  0  0
  181.4710  178.0810  140.9900 N   0  0  0  0  0  0  0  0  0  0  0  0
  183.6220  177.3520  140.2170 C   0  0  0  0  0  2  0  0  0  0  0  0
  182.4820  178.8620  141.6970 C   0  0  0  0  0  2  0  0  0  0  0  0
  183.8340  178.2370  141.4190 C   0  0  2  0  0  3  0  0  0  0  0  0
  182.1780  177.5640  139.8220 C   0  0  0  0  0  2  0  0  0  0  0  0
  179.4490  179.2980  141.6930 C   0  0  0  0  0  1  0  0  0  0  0  0
  180.4020  178.9850  140.5440 C   0  0  1  0  0  3  0  0  0  0  0  0
  180.9890  180.3050  140.0420 C   0  0  0  0  0  2  0  0  0  0  0  0
  180.8620  180.4320  138.5330 C   0  0  0  0  0  2  0  0  0  0  0  0
  179.6060  179.9860  138.1200 O   0  0  0  0  0  1  0  0  0  0  0  0
  1 11  1  1  0  0  0
  2 15  1  0  0  0  0
  4 16  1  6  0  0  0
  4  9  1  0  0  0  0
  5  3  1  0  0  0  0
  5  1  1  1  0  0  0
  6  2  2  0  0  0  0
  6  4  1  0  0  0  0
  7 14  1  0  0  0  0
  8  7  1  0  0  0  0
  8 13  1  0  0  0  0
  9  5  1  0  0  0  0
  9  3  1  1  0  0  0
 10  7  2  0  0  0  0
 13  6  1  0  0  0  0
 14 12  2  0  0  0  0
 14  2  1  0  0  0  0
 15  9  1  0  0  0  0
 15  5  1  0  0  0  0
 17 18  3  0  0  0  0
 18  1  1  0  0  0  0
 19 20  1  1  0  0  0
 19  8  1  0  0  0  0
 21 19  1  0  0  0  0
 22 21  1  0  0  0  0
 22 23  1  0  0  0  0
 24 25  1  0  0  0  0
 25 23  2  0  0  0  0
 25 26  1  0  0  0  0
 29 26  1  0  0  0  0
 29 27  1  0  0  0  0
 29 28  1  0  0  0  0
 30 29  2  0  0  0  0
 31 12  1  0  0  0  0
 32 34  1  0  0  0  0
 33 35  1  0  0  0  0
 35 31  1  6  0  0  0
 35 34  1  0  0  0  0
 36 33  1  0  0  0  0
 36 32  1  0  0  0  0
 38 32  1  0  0  0  0
 38 37  1  1  0  0  0
 39 38  1  0  0  0  0
 40 39  1  0  0  0  0
 41 40  1  0  0  0  0
M  END
>  <MODEL>
8

>  <REMARK>
 VINA RESULT:      -6.8      4.644     10.075
  Name = 
  12 active torsions:
  status: ('A' for Active; 'I' for Inactive)
    1  A    between atoms: N_1  and  C_31
    2  A    between atoms: C_3  and  C_8
    3  A    between atoms: C_6  and  N_32
    4  A    between atoms: C_6  and  C_38
    5  A    between atoms: N_7  and  N_21
    6  A    between atoms: C_10  and  N_17
    7  A    between atoms: C_10  and  C_39
    8  A    between atoms: C_12  and  C_24
    9  A    between atoms: C_12  and  C_31
   10  A    between atoms: O_18  and  P_19
   11  A    between atoms: O_18  and  C_23
   12  A    between atoms: N_21  and  C_39
                            x       y       z     vdW  Elec       q    Type
                         _______ _______ _______ _____ _____    ______ ____

>  <TORSDO>
F 12

$$$$
=
 OpenBabel10222418443D

 41 45  0  0  1  0  0  0  0  0999 V2000
  184.3950  179.0030  139.0280 C   0  0  1  0  0  3  0  0  0  0  0  0
  187.1970  177.0510  137.9260 C   0  0  0  0  0  0  0  0  0  0  0  0
  184.2900  177.7630  136.7810 N   0  0  0  0  0  2  0  0  0  0  0  0
  186.2430  176.6080  135.8490 C   0  0  2  0  0  3  0  0  0  0  0  0
  184.7680  178.0950  138.1280 C   0  0  2  0  0  0  0  0  0  0  0  0
  187.4990  176.7860  136.6720 C   0  0  0  0  0  0  0  0  0  0  0  0
  189.6160  177.1500  138.5500 C   0  0  0  0  0  0  0  0  0  0  0  0
  189.9160  176.7890  137.1840 N   0  0  0  0  0  0  0  0  0  0  0  0
  185.1160  176.6360  136.9090 C   0  0  1  0  0  0  0  0  0  0  0  0
  190.5490  177.2370  139.3950 O   0  0  0  0  0  0  0  0  0  0  0  0
  183.2950  179.9510  138.7030 C   0  0  0  0  0  1  0  0  0  0  0  0
  187.8200  177.7760  140.1200 N   0  0  0  0  0  0  0  0  0  0  0  0
  188.8950  176.8740  136.1250 C   0  0  0  0  0  2  0  0  0  0  0  0
  188.1990  177.3560  138.9490 C   0  0  0  0  0  0  0  0  0  0  0  0
  185.7960  177.0410  138.0610 N   0  0  0  0  0  0  0  0  0  0  0  0
  186.2640  175.3610  135.2240 O   0  0  0  0  0  1  0  0  0  0  0  0
  185.3600  178.9910  141.4870 C   0  0  0  0  0  3  0  0  0  0  0  0
  184.9350  179.0050  140.3590 C   0  0  0  0  0  0  0  0  0  0  0  0
  191.2990  176.4900  136.8180 C   0  0  2  0  0  3  0  0  0  0  0  0
  191.4390  176.3730  135.3080 C   0  0  0  0  0  1  0  0  0  0  0  0
  191.7790  175.2200  137.5070 C   0  0  0  0  0  2  0  0  0  0  0  0
  193.0600  174.8130  136.9610 N   0  0  0  0  0  2  0  0  0  0  0  0
  194.2460  175.1710  137.6140 N   0  0  0  0  0  0  0  0  0  0  0  0
  195.3080  173.1470  136.7910 C   0  0  0  0  0  1  0  0  0  0  0  0
  195.3100  174.4310  137.5680 C   0  0  0  0  0  0  0  0  0  0  0  0
  196.4490  174.8590  138.2550 O   0  0  0  0  0  0  0  0  0  0  0  0
  198.2800  175.2810  136.1930 O   0  0  0  0  0  0  0  0  0  0  0  0
  199.1510  175.2220  138.8090 O   0  0  0  0  0  1  0  0  0  0  0  0
  198.0540  174.5620  137.7070 P   0  0  0  0  0  0  0  0  0  0  0  0
  198.2890  173.0730  137.5990 O   0  0  0  0  0  1  0  0  0  0  0  0
  188.6920  178.1700  141.2230 C   0  0  0  0  0  2  0  0  0  0  0  0
  190.1670  176.7230  144.1890 N   0  0  0  0  0  0  0  0  0  0  0  0
  188.0280  177.5940  143.5420 C   0  0  0  0  0  2  0  0  0  0  0  0
  190.1460  176.7980  142.7310 C   0  0  0  0  0  2  0  0  0  0  0  0
  188.7220  177.0930  142.3010 C   0  0  2  0  0  3  0  0  0  0  0  0
  189.1020  177.6280  144.6060 C   0  0  0  0  0  2  0  0  0  0  0  0
  191.5990  178.7220  144.3280 C   0  0  0  0  0  1  0  0  0  0  0  0
  191.4550  177.2420  144.6700 C   0  0  1  0  0  3  0  0  0  0  0  0
  191.5620  177.0950  146.1890 C   0  0  0  0  0  2  0  0  0  0  0  0
  192.0500  175.7100  146.5790 C   0  0  0  0  0  2  0  0  0  0  0  0
  192.2920  175.6570  147.9520 O   0  0  0  0  0  1  0  0  0  0  0  0
  1 11  1  1  0  0  0
  1 18  1  0  0  0  0
  2 15  1  0  0  0  0
  2 14  1  0  0  0  0
  3  5  1  0  0  0  0
  4 16  1  1  0  0  0
  4  6  1  0  0  0  0
  4  9  1  0  0  0  0
  5  1  1  1  0  0  0
  6  2  2  0  0  0  0
  7 14  1  0  0  0  0
  7 10  2  0  0  0  0
  8  7  1  0  0  0  0
  9  3  1  1  0  0  0
  9 15  1  0  0  0  0
  9  5  1  0  0  0  0
 12 31  1  0  0  0  0
 13  6  1  0  0  0  0
 13  8  1  0  0  0  0
 14 12  2  0  0  0  0
 15  5  1  0  0  0  0
 18 17  3  0  0  0  0
 19 20  1  6  0  0  0
 19  8  1  0  0  0  0
 19 21  1  0  0  0  0
 22 21  1  0  0  0  0
 22 23  1  0  0  0  0
 24 25  1  0  0  0  0
 25 23  2  0  0  0  0
 25 26  1  0  0  0  0
 27 29  2  0  0  0  0
 29 26  1  0  0  0  0
 29 28  1  0  0  0  0
 30 29  1  0  0  0  0
 32 36  1  0  0  0  0
 32 38  1  0  0  0  0
 33 36  1  0  0  0  0
 34 32  1  0  0  0  0
 35 31  1  6  0  0  0
 35 34  1  0  0  0  0
 35 33  1  0  0  0  0
 38 37  1  1  0  0  0
 38 39  1  0  0  0  0
 39 40  1  0  0  0  0
 40 41  1  0  0  0  0
M  END
>  <MODEL>
9

>  <REMARK>
 VINA RESULT:      -6.8      5.266      9.401
  Name = 
  12 active torsions:
  status: ('A' for Active; 'I' for Inactive)
    1  A    between atoms: N_1  and  C_31
    2  A    between atoms: C_3  and  C_8
    3  A    between atoms: C_6  and  N_32
    4  A    between atoms: C_6  and  C_38
    5  A    between atoms: N_7  and  N_21
    6  A    between atoms: C_10  and  N_17
    7  A    between atoms: C_10  and  C_39
    8  A    between atoms: C_12  and  C_24
    9  A    between atoms: C_12  and  C_31
   10  A    between atoms: O_18  and  P_19
   11  A    between atoms: O_18  and  C_23
   12  A    between atoms: N_21  and  C_39
                            x       y       z     vdW  Elec       q    Type
                         _______ _______ _______ _____ _____    ______ ____

>  <TORSDO>
F 12

$$$$
