=
 OpenBabel10222421053D

 55 59  0  0  1  0  0  0  0  0999 V2000
  192.4480  177.1330  142.0240 C   0  0  0  0  0  3  0  0  0  0  0  0
  191.9810  177.7220  140.8490 C   0  0  0  0  0  3  0  0  0  0  0  0
  188.9470  176.2330  142.1860 C   0  0  0  0  0  2  0  0  0  0  0  0
  190.3120  176.8010  141.9820 C   0  0  0  0  0  0  0  0  0  0  0  0
  187.9600  177.0760  141.4960 N   0  0  0  0  0  0  0  0  0  0  0  0
  191.4220  176.5860  142.7090 N   0  0  0  0  0  0  0  0  0  0  0  0
  187.1850  178.5760  139.8110 N   0  0  0  0  0  2  0  0  0  0  0  0
  188.2130  177.7760  140.4160 C   0  0  0  0  0  0  0  0  0  0  0  0
  189.5970  177.7760  139.7790 C   0  0  1  0  0  3  0  0  0  0  0  0
  190.6180  177.4890  140.8470 C   0  0  0  0  0  0  0  0  0  0  0  0
  189.6680  176.7250  138.6580 C   0  0  2  0  0  3  0  0  0  0  0  0
  190.0450  176.9500  135.0010 N   0  0  0  0  0  1  0  0  0  0  0  0
  191.3230  175.9900  138.5140 S   0  0  0  0  0  0  0  0  0  0  0  0
  189.7830  176.2950  136.2720 C   0  0  2  0  0  3  0  0  0  0  0  0
  189.3780  177.3260  137.3010 C   0  0  0  0  0  2  0  0  0  0  0  0
  191.0400  175.5840  136.7620 C   0  0  2  0  0  3  0  0  0  0  0  0
  190.8620  174.0800  136.6260 C   0  0  0  0  0  2  0  0  0  0  0  0
  192.1940  173.3860  136.3980 C   0  0  0  0  0  2  0  0  0  0  0  0
  193.0400  174.1840  135.5230 N   0  0  0  0  0  2  0  0  0  0  0  0
  195.2610  175.5950  135.0630 S   0  0  0  0  0  0  0  0  0  0  0  0
  194.4590  174.3030  135.6930 C   0  0  0  0  0  0  0  0  0  0  0  0
  195.1710  173.2860  136.4220 N   0  0  0  0  0  0  0  0  0  0  0  0
  195.7870  172.1770  135.7000 C   0  0  0  0  0  1  0  0  0  0  0  0
  196.1300  172.3190  138.3280 O   0  0  0  0  0  1  0  0  0  0  0  0
  195.3270  173.3680  137.8760 C   0  0  1  0  0  3  0  0  0  0  0  0
  195.9180  174.7120  138.2940 C   0  0  1  0  0  3  0  0  0  0  0  0
  195.1080  175.3060  139.2630 O   0  0  0  0  0  1  0  0  0  0  0  0
  197.1570  175.2740  140.5420 C   0  0  0  0  0  1  0  0  0  0  0  0
  197.5890  174.4730  138.9730 S   0  0  0  0  0  0  0  0  0  0  0  0
  183.4740  178.8660  139.5840 C   0  0  0  0  0  3  0  0  0  0  0  0
  185.8120  178.6880  140.2160 C   0  0  0  0  0  0  0  0  0  0  0  0
  183.0920  178.8840  140.9360 C   0  0  0  0  0  0  0  0  0  0  0  0
  184.0850  178.7910  141.9220 C   0  0  0  0  0  3  0  0  0  0  0  0
  185.4320  178.6960  141.5650 C   0  0  0  0  0  3  0  0  0  0  0  0
  184.8230  178.7730  139.2300 C   0  0  0  0  0  3  0  0  0  0  0  0
  181.0110  179.9720  140.6120 F   0  0  0  0  0  0  0  0  0  0  0  0
  181.6330  178.9440  141.3180 C   0  0  2  0  0  0  0  0  0  0  0  0
  181.5460  179.1950  142.7600 N   0  0  0  0  0  2  0  0  0  0  0  0
  180.6150  180.1550  142.9870 O   0  0  0  0  0  1  0  0  0  0  0  0
  180.9730  177.6030  140.9630 C   0  0  0  0  0  2  0  0  0  0  0  0
  180.2250  177.9000  138.7070 O   0  0  0  0  0  1  0  0  0  0  0  0
  179.7790  177.7390  140.0220 C   0  0  0  0  0  2  0  0  0  0  0  0
  191.3910  176.3400  145.1330 C   0  0  0  0  0  3  0  0  0  0  0  0
  191.5680  175.8260  143.9150 C   0  0  0  0  0  3  0  0  0  0  0  0
  191.1070  177.7240  145.3330 N   0  0  0  0  0  2  0  0  0  0  0  0
  189.8570  178.3110  144.8810 C   0  0  0  0  0  2  0  0  0  0  0  0
  186.8230  177.7010  144.5880 C   0  0  0  0  0  2  0  0  0  0  0  0
  189.0930  178.2830  147.2390 C   0  0  0  0  0  3  0  0  0  0  0  0
  187.9700  176.9930  148.8730 O   0  0  0  0  0  1  0  0  0  0  0  0
  187.8520  178.1250  148.0670 C   0  0  2  0  0  3  0  0  0  0  0  0
  188.8140  178.2170  145.9510 C   0  0  0  0  0  0  0  0  0  0  0  0
  186.7100  177.9210  147.0640 C   0  0  2  0  0  3  0  0  0  0  0  0
  187.3950  178.0030  145.7500 C   0  0  0  0  0  0  0  0  0  0  0  0
  184.6030  178.4620  146.6640 C   0  0  0  0  0  1  0  0  0  0  0  0
  185.7930  178.9670  147.1840 O   0  0  0  0  0  0  0  0  0  0  0  0
  1  6  1  0  0  0  0
  2  1  2  0  0  0  0
  4  3  1  0  0  0  0
  4  6  1  0  0  0  0
  5  3  1  0  0  0  0
  6 44  1  0  0  0  0
  7 31  1  0  0  0  0
  7  8  1  0  0  0  0
  8  5  2  0  0  0  0
  9  8  1  1  0  0  0
  9 10  1  0  0  0  0
 10  2  1  0  0  0  0
 10  4  2  0  0  0  0
 11 15  1  6  0  0  0
 11  9  1  0  0  0  0
 13 11  1  0  0  0  0
 14 12  1  6  0  0  0
 14 16  1  0  0  0  0
 14 15  1  0  0  0  0
 16 17  1  1  0  0  0
 16 13  1  0  0  0  0
 18 17  1  0  0  0  0
 19 21  1  0  0  0  0
 19 18  1  0  0  0  0
 20 21  2  0  0  0  0
 21 22  1  0  0  0  0
 22 25  1  0  0  0  0
 23 22  1  0  0  0  0
 25 26  1  0  0  0  0
 25 24  1  6  0  0  0
 26 29  1  0  0  0  0
 26 27  1  1  0  0  0
 29 28  1  0  0  0  0
 30 32  1  0  0  0  0
 31 34  2  0  0  0  0
 32 37  1  0  0  0  0
 32 33  2  0  0  0  0
 34 33  1  0  0  0  0
 35 30  2  0  0  0  0
 35 31  1  0  0  0  0
 37 36  1  6  0  0  0
 37 38  1  0  0  0  0
 38 39  1  0  0  0  0
 40 37  1  0  0  0  0
 41 42  1  0  0  0  0
 42 40  1  0  0  0  0
 43 45  1  0  0  0  0
 44 43  2  0  0  0  0
 46 45  1  0  0  0  0
 46 51  1  0  0  0  0
 47 53  2  0  0  0  0
 48 50  1  0  0  0  0
 50 49  1  1  0  0  0
 51 48  2  0  0  0  0
 52 55  1  6  0  0  0
 52 50  1  0  0  0  0
 53 51  1  0  0  0  0
 53 52  1  0  0  0  0
 54 55  1  0  0  0  0
M  END
>  <MODEL>
1

>  <REMARK>
 VINA RESULT:      -7.2      0.000      0.000
  Name = 
  19 active torsions:
  status: ('A' for Active; 'I' for Inactive)
    1  A    between atoms: N_2  and  C_46
    2  A    between atoms: N_2  and  C_48
    3  A    between atoms: C_8  and  C_39
    4  A    between atoms: C_9  and  N_33
    5  A    between atoms: C_14  and  C_24
    6  A    between atoms: C_14  and  S_37
    7  A    between atoms: C_16  and  C_18
    8  A    between atoms: C_18  and  N_38
    9  A    between atoms: C_18  and  C_47
   10  A    between atoms: C_20  and  N_32
   11  A    between atoms: C_22  and  C_26
   12  A    between atoms: C_22  and  N_32
   13  A    between atoms: C_23  and  C_46
   14  A    between atoms: C_23  and  C_53
   15  A    between atoms: C_24  and  N_52
   16  A    between atoms: N_28  and  C_43
   17  A    between atoms: C_45  and  C_47
   18  A    between atoms: C_48  and  N_52
   19  A    between atoms: C_49  and  O_51
                            x       y       z     vdW  Elec       q    Type
                         _______ _______ _______ _____ _____    ______ ____

>  <TORSDO>
F 19

$$$$
=
 OpenBabel10222421053D

 55 59  0  0  1  0  0  0  0  0999 V2000
  186.0880  177.3440  136.6400 C   0  0  0  0  0  3  0  0  0  0  0  0
  187.1500  178.2140  136.8780 C   0  0  0  0  0  3  0  0  0  0  0  0
  188.6770  174.9840  137.5470 C   0  0  0  0  0  2  0  0  0  0  0  0
  187.8000  176.1050  137.0990 C   0  0  0  0  0  0  0  0  0  0  0  0
  190.0840  175.3540  137.3390 N   0  0  0  0  0  0  0  0  0  0  0  0
  186.4980  176.0640  136.7670 N   0  0  0  0  0  0  0  0  0  0  0  0
  191.9330  176.8500  137.1560 N   0  0  0  0  0  2  0  0  0  0  0  0
  190.5390  176.5830  137.3760 C   0  0  0  0  0  0  0  0  0  0  0  0
  189.6110  177.7630  137.6370 C   0  0  1  0  0  3  0  0  0  0  0  0
  188.2260  177.3970  137.1740 C   0  0  0  0  0  0  0  0  0  0  0  0
  189.6100  178.1180  139.1340 C   0  0  2  0  0  3  0  0  0  0  0  0
  187.0040  178.0860  141.7380 N   0  0  0  0  0  1  0  0  0  0  0  0
  190.2710  176.7710  140.1580 S   0  0  0  0  0  0  0  0  0  0  0  0
  188.3040  178.3880  141.1630 C   0  0  2  0  0  3  0  0  0  0  0  0
  188.2110  178.3660  139.6540 C   0  0  0  0  0  2  0  0  0  0  0  0
  189.3250  177.3450  141.6040 C   0  0  2  0  0  3  0  0  0  0  0  0
  190.2870  177.9630  142.6080 C   0  0  0  0  0  2  0  0  0  0  0  0
  190.4380  177.0850  143.8380 C   0  0  0  0  0  2  0  0  0  0  0  0
  190.2620  177.8710  145.0500 N   0  0  0  0  0  2  0  0  0  0  0  0
  191.6370  176.3320  146.7460 S   0  0  0  0  0  0  0  0  0  0  0  0
  190.3750  177.3210  146.3690 C   0  0  0  0  0  0  0  0  0  0  0  0
  189.3810  177.6440  147.3580 N   0  0  0  0  0  0  0  0  0  0  0  0
  189.7320  178.5110  148.4780 C   0  0  0  0  0  1  0  0  0  0  0  0
  187.3410  177.2900  148.4550 O   0  0  0  0  0  1  0  0  0  0  0  0
  188.0050  177.1550  147.2350 C   0  0  1  0  0  3  0  0  0  0  0  0
  187.2520  177.8940  146.1320 C   0  0  1  0  0  3  0  0  0  0  0  0
  187.0310  177.0390  145.0510 O   0  0  0  0  0  1  0  0  0  0  0  0
  185.2220  179.2650  145.1800 C   0  0  0  0  0  1  0  0  0  0  0  0
  185.6520  178.4890  146.7620 S   0  0  0  0  0  0  0  0  0  0  0  0
  194.5010  174.2380  137.8580 C   0  0  0  0  0  3  0  0  0  0  0  0
  192.9820  175.8940  136.9370 C   0  0  0  0  0  0  0  0  0  0  0  0
  195.0250  173.9840  136.5800 C   0  0  0  0  0  0  0  0  0  0  0  0
  194.5090  174.6870  135.4830 C   0  0  0  0  0  3  0  0  0  0  0  0
  193.4980  175.6350  135.6600 C   0  0  0  0  0  3  0  0  0  0  0  0
  193.4900  175.1880  138.0330 C   0  0  0  0  0  3  0  0  0  0  0  0
  195.5780  171.8940  135.6060 F   0  0  0  0  0  0  0  0  0  0  0  0
  196.0880  172.9290  136.3860 C   0  0  2  0  0  0  0  0  0  0  0  0
  196.4800  172.4230  137.7060 N   0  0  0  0  0  2  0  0  0  0  0  0
  196.4870  171.0670  137.6760 O   0  0  0  0  0  1  0  0  0  0  0  0
  197.2920  173.5660  135.6730 C   0  0  0  0  0  2  0  0  0  0  0  0
  197.9190  175.5410  136.8730 O   0  0  0  0  0  1  0  0  0  0  0  0
  198.2910  174.2170  136.6250 C   0  0  0  0  0  2  0  0  0  0  0  0
  184.4370  174.8620  137.2620 C   0  0  0  0  0  3  0  0  0  0  0  0
  185.6340  174.9250  136.6750 C   0  0  0  0  0  3  0  0  0  0  0  0
  183.9500  175.9130  138.0950 N   0  0  0  0  0  2  0  0  0  0  0  0
  182.6310  175.8450  138.7040 C   0  0  0  0  0  2  0  0  0  0  0  0
  180.0870  176.6250  140.3090 C   0  0  0  0  0  2  0  0  0  0  0  0
  183.4510  177.7030  140.1250 C   0  0  0  0  0  3  0  0  0  0  0  0
  183.6330  178.4730  142.3540 O   0  0  0  0  0  1  0  0  0  0  0  0
  182.9770  178.6960  141.1440 C   0  0  2  0  0  3  0  0  0  0  0  0
  182.4560  176.9460  139.7020 C   0  0  0  0  0  0  0  0  0  0  0  0
  181.4770  178.4240  141.3190 C   0  0  2  0  0  3  0  0  0  0  0  0
  181.2220  177.3140  140.3660 C   0  0  0  0  0  0  0  0  0  0  0  0
  180.0220  179.9140  142.0640 C   0  0  0  0  0  1  0  0  0  0  0  0
  180.7510  179.5520  140.9330 O   0  0  0  0  0  0  0  0  0  0  0  0
  1  6  1  0  0  0  0
  1  2  2  0  0  0  0
  2 10  1  0  0  0  0
  4 10  2  0  0  0  0
  4  3  1  0  0  0  0
  5  8  2  0  0  0  0
  5  3  1  0  0  0  0
  6  4  1  0  0  0  0
  7  8  1  0  0  0  0
  8  9  1  0  0  0  0
  9 10  1  1  0  0  0
  9 11  1  0  0  0  0
 11 15  1  1  0  0  0
 11 13  1  0  0  0  0
 13 16  1  0  0  0  0
 14 16  1  0  0  0  0
 14 12  1  1  0  0  0
 15 14  1  0  0  0  0
 16 17  1  1  0  0  0
 17 18  1  0  0  0  0
 18 19  1  0  0  0  0
 19 21  1  0  0  0  0
 21 20  2  0  0  0  0
 21 22  1  0  0  0  0
 22 23  1  0  0  0  0
 25 22  1  0  0  0  0
 25 24  1  1  0  0  0
 26 27  1  6  0  0  0
 26 29  1  0  0  0  0
 26 25  1  0  0  0  0
 28 29  1  0  0  0  0
 30 35  1  0  0  0  0
 31  7  1  0  0  0  0
 31 35  2  0  0  0  0
 32 30  2  0  0  0  0
 33 34  2  0  0  0  0
 33 32  1  0  0  0  0
 34 31  1  0  0  0  0
 37 36  1  6  0  0  0
 37 32  1  0  0  0  0
 37 38  1  0  0  0  0
 39 38  1  0  0  0  0
 40 37  1  0  0  0  0
 40 42  1  0  0  0  0
 42 41  1  0  0  0  0
 43 45  1  0  0  0  0
 44  6  1  0  0  0  0
 44 43  2  0  0  0  0
 45 46  1  0  0  0  0
 46 51  1  0  0  0  0
 47 53  2  0  0  0  0
 48 50  1  0  0  0  0
 50 52  1  0  0  0  0
 50 49  1  1  0  0  0
 51 48  2  0  0  0  0
 51 53  1  0  0  0  0
 52 55  1  6  0  0  0
 53 52  1  0  0  0  0
 55 54  1  0  0  0  0
M  END
>  <MODEL>
2

>  <REMARK>
 VINA RESULT:      -7.1      3.642     10.784
  Name = 
  19 active torsions:
  status: ('A' for Active; 'I' for Inactive)
    1  A    between atoms: N_2  and  C_46
    2  A    between atoms: N_2  and  C_48
    3  A    between atoms: C_8  and  C_39
    4  A    between atoms: C_9  and  N_33
    5  A    between atoms: C_14  and  C_24
    6  A    between atoms: C_14  and  S_37
    7  A    between atoms: C_16  and  C_18
    8  A    between atoms: C_18  and  N_38
    9  A    between atoms: C_18  and  C_47
   10  A    between atoms: C_20  and  N_32
   11  A    between atoms: C_22  and  C_26
   12  A    between atoms: C_22  and  N_32
   13  A    between atoms: C_23  and  C_46
   14  A    between atoms: C_23  and  C_53
   15  A    between atoms: C_24  and  N_52
   16  A    between atoms: N_28  and  C_43
   17  A    between atoms: C_45  and  C_47
   18  A    between atoms: C_48  and  N_52
   19  A    between atoms: C_49  and  O_51
                            x       y       z     vdW  Elec       q    Type
                         _______ _______ _______ _____ _____    ______ ____

>  <TORSDO>
F 19

$$$$
=
 OpenBabel10222421053D

 55 59  0  0  1  0  0  0  0  0999 V2000
  186.4390  177.7370  136.2730 C   0  0  0  0  0  3  0  0  0  0  0  0
  187.3740  178.3460  137.1090 C   0  0  0  0  0  3  0  0  0  0  0  0
  188.9060  175.1010  136.5270 C   0  0  0  0  0  2  0  0  0  0  0  0
  188.0820  176.3440  136.4680 C   0  0  0  0  0  0  0  0  0  0  0  0
  190.3020  175.4560  136.8220 N   0  0  0  0  0  0  0  0  0  0  0  0
  186.8860  176.5240  135.8820 N   0  0  0  0  0  0  0  0  0  0  0  0
  192.0570  176.7760  137.7520 N   0  0  0  0  0  2  0  0  0  0  0  0
  190.6670  176.5060  137.5180 C   0  0  0  0  0  0  0  0  0  0  0  0
  189.6370  177.4760  138.0860 C   0  0  1  0  0  3  0  0  0  0  0  0
  188.4070  177.4330  137.2190 C   0  0  0  0  0  0  0  0  0  0  0  0
  189.2960  177.1000  139.5380 C   0  0  2  0  0  3  0  0  0  0  0  0
  191.2100  177.1720  142.6840 N   0  0  0  0  0  1  0  0  0  0  0  0
  188.3690  178.4140  140.3840 S   0  0  0  0  0  0  0  0  0  0  0  0
  190.0920  176.8410  141.8170 C   0  0  2  0  0  3  0  0  0  0  0  0
  190.5380  176.8850  140.3730 C   0  0  0  0  0  2  0  0  0  0  0  0
  188.9640  177.8480  142.0100 C   0  0  2  0  0  3  0  0  0  0  0  0
  187.8120  177.1900  142.7540 C   0  0  0  0  0  2  0  0  0  0  0  0
  186.4870  177.8480  142.4120 C   0  0  0  0  0  2  0  0  0  0  0  0
  186.1420  178.8480  143.4120 N   0  0  0  0  0  2  0  0  0  0  0  0
  183.4760  178.8060  143.5770 S   0  0  0  0  0  0  0  0  0  0  0  0
  184.9800  178.7580  144.2470 C   0  0  0  0  0  0  0  0  0  0  0  0
  185.1410  178.6210  145.6700 N   0  0  0  0  0  0  0  0  0  0  0  0
  184.0960  177.9740  146.4570 C   0  0  0  0  0  1  0  0  0  0  0  0
  186.0320  179.7320  147.5310 O   0  0  0  0  0  1  0  0  0  0  0  0
  186.3600  179.0810  146.3400 C   0  0  1  0  0  3  0  0  0  0  0  0
  187.3130  177.9200  146.6120 C   0  0  1  0  0  3  0  0  0  0  0  0
  188.4050  177.9890  145.7450 O   0  0  0  0  0  1  0  0  0  0  0  0
  189.5490  177.3670  147.8770 C   0  0  0  0  0  1  0  0  0  0  0  0
  187.9070  177.9890  148.3290 S   0  0  0  0  0  0  0  0  0  0  0  0
  194.9180  175.5210  135.7140 C   0  0  0  0  0  3  0  0  0  0  0  0
  193.1820  175.9790  137.3500 C   0  0  0  0  0  0  0  0  0  0  0  0
  195.4120  174.4730  136.5070 C   0  0  0  0  0  0  0  0  0  0  0  0
  194.7860  174.1950  137.7310 C   0  0  0  0  0  3  0  0  0  0  0  0
  193.6810  174.9400  138.1470 C   0  0  0  0  0  3  0  0  0  0  0  0
  193.8090  176.2640  136.1320 C   0  0  0  0  0  3  0  0  0  0  0  0
  197.2870  173.1960  137.1980 F   0  0  0  0  0  0  0  0  0  0  0  0
  196.6330  173.6970  136.0750 C   0  0  2  0  0  0  0  0  0  0  0  0
  197.5170  174.6050  135.3370 N   0  0  0  0  0  2  0  0  0  0  0  0
  198.6740  173.9580  135.0470 O   0  0  0  0  0  1  0  0  0  0  0  0
  196.1860  172.5320  135.1770 C   0  0  0  0  0  2  0  0  0  0  0  0
  197.2570  170.4810  135.7920 O   0  0  0  0  0  1  0  0  0  0  0  0
  196.0660  171.2030  135.9150 C   0  0  0  0  0  2  0  0  0  0  0  0
  184.9050  175.1820  135.4220 C   0  0  0  0  0  3  0  0  0  0  0  0
  186.1280  175.6000  135.0920 C   0  0  0  0  0  3  0  0  0  0  0  0
  184.2770  175.5770  136.6410 N   0  0  0  0  0  2  0  0  0  0  0  0
  183.0160  176.3000  136.6420 C   0  0  0  0  0  2  0  0  0  0  0  0
  182.2130  175.8460  139.6110 C   0  0  0  0  0  2  0  0  0  0  0  0
  183.4080  178.5330  137.6440 C   0  0  0  0  0  3  0  0  0  0  0  0
  184.5350  179.6840  139.3760 O   0  0  0  0  0  1  0  0  0  0  0  0
  183.2750  179.2760  138.9400 C   0  0  2  0  0  3  0  0  0  0  0  0
  182.9790  177.2910  137.7630 C   0  0  0  0  0  0  0  0  0  0  0  0
  182.6920  178.2660  139.9370 C   0  0  2  0  0  3  0  0  0  0  0  0
  182.5220  177.0410  139.1150 C   0  0  0  0  0  0  0  0  0  0  0  0
  181.2290  179.9070  139.6930 C   0  0  0  0  0  1  0  0  0  0  0  0
  181.4460  178.7130  140.3780 O   0  0  0  0  0  0  0  0  0  0  0  0
  1  2  2  0  0  0  0
  2 10  1  0  0  0  0
  3  5  1  0  0  0  0
  4  3  1  0  0  0  0
  4 10  2  0  0  0  0
  5  8  2  0  0  0  0
  6  1  1  0  0  0  0
  6  4  1  0  0  0  0
  8  7  1  0  0  0  0
  8  9  1  0  0  0  0
  9 10  1  6  0  0  0
  9 11  1  0  0  0  0
 11 15  1  1  0  0  0
 11 13  1  0  0  0  0
 13 16  1  0  0  0  0
 14 16  1  0  0  0  0
 14 12  1  1  0  0  0
 15 14  1  0  0  0  0
 16 17  1  6  0  0  0
 18 17  1  0  0  0  0
 18 19  1  0  0  0  0
 19 21  1  0  0  0  0
 20 21  2  0  0  0  0
 21 22  1  0  0  0  0
 22 25  1  0  0  0  0
 22 23  1  0  0  0  0
 25 26  1  0  0  0  0
 25 24  1  1  0  0  0
 26 27  1  6  0  0  0
 26 29  1  0  0  0  0
 28 29  1  0  0  0  0
 30 35  2  0  0  0  0
 30 32  1  0  0  0  0
 31  7  1  0  0  0  0
 31 34  2  0  0  0  0
 32 33  2  0  0  0  0
 33 34  1  0  0  0  0
 35 31  1  0  0  0  0
 37 32  1  0  0  0  0
 37 36  1  1  0  0  0
 38 37  1  0  0  0  0
 39 38  1  0  0  0  0
 40 42  1  0  0  0  0
 40 37  1  0  0  0  0
 41 42  1  0  0  0  0
 43 45  1  0  0  0  0
 44 43  2  0  0  0  0
 44  6  1  0  0  0  0
 45 46  1  0  0  0  0
 46 51  1  0  0  0  0
 48 51  2  0  0  0  0
 48 50  1  0  0  0  0
 50 49  1  1  0  0  0
 50 52  1  0  0  0  0
 51 53  1  0  0  0  0
 52 55  1  6  0  0  0
 53 47  2  0  0  0  0
 53 52  1  0  0  0  0
 54 55  1  0  0  0  0
M  END
>  <MODEL>
3

>  <REMARK>
 VINA RESULT:      -6.7      3.956     11.282
  Name = 
  19 active torsions:
  status: ('A' for Active; 'I' for Inactive)
    1  A    between atoms: N_2  and  C_46
    2  A    between atoms: N_2  and  C_48
    3  A    between atoms: C_8  and  C_39
    4  A    between atoms: C_9  and  N_33
    5  A    between atoms: C_14  and  C_24
    6  A    between atoms: C_14  and  S_37
    7  A    between atoms: C_16  and  C_18
    8  A    between atoms: C_18  and  N_38
    9  A    between atoms: C_18  and  C_47
   10  A    between atoms: C_20  and  N_32
   11  A    between atoms: C_22  and  C_26
   12  A    between atoms: C_22  and  N_32
   13  A    between atoms: C_23  and  C_46
   14  A    between atoms: C_23  and  C_53
   15  A    between atoms: C_24  and  N_52
   16  A    between atoms: N_28  and  C_43
   17  A    between atoms: C_45  and  C_47
   18  A    between atoms: C_48  and  N_52
   19  A    between atoms: C_49  and  O_51
                            x       y       z     vdW  Elec       q    Type
                         _______ _______ _______ _____ _____    ______ ____

>  <TORSDO>
F 19

$$$$
=
 OpenBabel10222421053D

 55 59  0  0  1  0  0  0  0  0999 V2000
  192.5270  177.2810  141.8690 C   0  0  0  0  0  3  0  0  0  0  0  0
  192.0840  177.9990  140.7600 C   0  0  0  0  0  3  0  0  0  0  0  0
  189.0620  176.2420  141.7560 C   0  0  0  0  0  2  0  0  0  0  0  0
  190.4100  176.8810  141.6880 C   0  0  0  0  0  0  0  0  0  0  0  0
  188.0700  177.1310  141.1360 N   0  0  0  0  0  0  0  0  0  0  0  0
  191.4980  176.6130  142.4310 N   0  0  0  0  0  0  0  0  0  0  0  0
  187.3020  178.8080  139.6240 N   0  0  0  0  0  2  0  0  0  0  0  0
  188.3360  177.9740  140.1670 C   0  0  0  0  0  0  0  0  0  0  0  0
  189.7440  178.1070  139.5980 C   0  0  1  0  0  3  0  0  0  0  0  0
  190.7330  177.7200  140.6660 C   0  0  0  0  0  0  0  0  0  0  0  0
  189.9040  177.2130  138.3570 C   0  0  2  0  0  3  0  0  0  0  0  0
  191.5040  173.9450  137.7830 N   0  0  0  0  0  1  0  0  0  0  0  0
  188.4080  176.2380  138.0180 S   0  0  0  0  0  0  0  0  0  0  0  0
  190.8640  175.1950  137.4080 C   0  0  2  0  0  3  0  0  0  0  0  0
  191.0110  176.1980  138.5300 C   0  0  0  0  0  2  0  0  0  0  0  0
  189.3790  174.9650  137.1510 C   0  0  2  0  0  3  0  0  0  0  0  0
  189.0970  175.0620  135.6590 C   0  0  0  0  0  2  0  0  0  0  0  0
  187.6800  175.5390  135.3960 C   0  0  0  0  0  2  0  0  0  0  0  0
  186.8290  174.4230  135.0100 N   0  0  0  0  0  2  0  0  0  0  0  0
  186.4400  172.7450  137.0520 S   0  0  0  0  0  0  0  0  0  0  0  0
  185.9000  173.7940  135.9030 C   0  0  0  0  0  0  0  0  0  0  0  0
  184.4970  174.0930  135.7870 N   0  0  0  0  0  0  0  0  0  0  0  0
  183.7110  173.4670  134.7290 C   0  0  0  0  0  1  0  0  0  0  0  0
  184.4920  176.2100  136.7900 O   0  0  0  0  0  1  0  0  0  0  0  0
  183.8320  174.9810  136.7440 C   0  0  1  0  0  3  0  0  0  0  0  0
  182.3610  175.1770  136.3840 C   0  0  1  0  0  3  0  0  0  0  0  0
  181.5520  174.6740  137.4050 O   0  0  0  0  0  1  0  0  0  0  0  0
  181.0100  176.6420  134.6720 C   0  0  0  0  0  1  0  0  0  0  0  0
  182.0070  176.9460  136.1560 S   0  0  0  0  0  0  0  0  0  0  0  0
  183.5910  178.7210  139.2630 C   0  0  0  0  0  3  0  0  0  0  0  0
  185.9100  178.8170  139.9770 C   0  0  0  0  0  0  0  0  0  0  0  0
  183.1590  178.8030  140.5970 C   0  0  0  0  0  0  0  0  0  0  0  0
  184.1190  178.8800  141.6170 C   0  0  0  0  0  3  0  0  0  0  0  0
  185.4810  178.8880  141.3100 C   0  0  0  0  0  3  0  0  0  0  0  0
  184.9550  178.7320  138.9580 C   0  0  0  0  0  3  0  0  0  0  0  0
  181.0390  179.8300  140.3340 F   0  0  0  0  0  0  0  0  0  0  0  0
  181.6870  178.7510  140.9290 C   0  0  2  0  0  0  0  0  0  0  0  0
  181.5420  178.8140  142.3870 N   0  0  0  0  0  2  0  0  0  0  0  0
  180.2640  179.1500  142.6910 O   0  0  0  0  0  1  0  0  0  0  0  0
  181.1040  177.4360  140.3860 C   0  0  0  0  0  2  0  0  0  0  0  0
  179.3190  176.4180  139.1580 O   0  0  0  0  0  1  0  0  0  0  0  0
  179.9560  177.6380  139.4020 C   0  0  0  0  0  2  0  0  0  0  0  0
  191.5140  176.0840  144.8100 C   0  0  0  0  0  3  0  0  0  0  0  0
  191.6270  175.7080  143.5350 C   0  0  0  0  0  3  0  0  0  0  0  0
  191.3230  177.4500  145.1790 N   0  0  0  0  0  2  0  0  0  0  0  0
  190.1310  178.1800  144.7800 C   0  0  0  0  0  2  0  0  0  0  0  0
  187.0820  177.7190  144.3860 C   0  0  0  0  0  2  0  0  0  0  0  0
  189.3150  178.0100  147.1140 C   0  0  0  0  0  3  0  0  0  0  0  0
  188.1060  176.6520  148.6270 O   0  0  0  0  0  1  0  0  0  0  0  0
  188.0510  177.8440  147.9050 C   0  0  2  0  0  3  0  0  0  0  0  0
  189.0620  178.0500  145.8200 C   0  0  0  0  0  0  0  0  0  0  0  0
  186.9240  177.7610  146.8680 C   0  0  2  0  0  3  0  0  0  0  0  0
  187.6400  177.9120  145.5770 C   0  0  0  0  0  0  0  0  0  0  0  0
  184.7840  178.3140  146.7730 C   0  0  0  0  0  1  0  0  0  0  0  0
  186.0470  178.8330  147.0480 O   0  0  0  0  0  0  0  0  0  0  0  0
  1  6  1  0  0  0  0
  2  1  2  0  0  0  0
  4  3  1  0  0  0  0
  4  6  1  0  0  0  0
  5  3  1  0  0  0  0
  6 44  1  0  0  0  0
  7 31  1  0  0  0  0
  7  8  1  0  0  0  0
  8  5  2  0  0  0  0
  9  8  1  1  0  0  0
  9 10  1  0  0  0  0
 10  2  1  0  0  0  0
 10  4  2  0  0  0  0
 11 15  1  1  0  0  0
 11  9  1  0  0  0  0
 13 11  1  0  0  0  0
 14 12  1  1  0  0  0
 14 15  1  0  0  0  0
 16 17  1  6  0  0  0
 16 14  1  0  0  0  0
 16 13  1  0  0  0  0
 18 17  1  0  0  0  0
 19 18  1  0  0  0  0
 19 21  1  0  0  0  0
 21 20  2  0  0  0  0
 22 21  1  0  0  0  0
 22 25  1  0  0  0  0
 23 22  1  0  0  0  0
 25 24  1  6  0  0  0
 26 25  1  0  0  0  0
 26 27  1  1  0  0  0
 28 29  1  0  0  0  0
 29 26  1  0  0  0  0
 30 32  1  0  0  0  0
 31 34  2  0  0  0  0
 32 37  1  0  0  0  0
 32 33  2  0  0  0  0
 34 33  1  0  0  0  0
 35 30  2  0  0  0  0
 35 31  1  0  0  0  0
 37 36  1  6  0  0  0
 37 38  1  0  0  0  0
 38 39  1  0  0  0  0
 40 37  1  0  0  0  0
 41 42  1  0  0  0  0
 42 40  1  0  0  0  0
 43 45  1  0  0  0  0
 44 43  2  0  0  0  0
 46 45  1  0  0  0  0
 46 51  1  0  0  0  0
 47 53  2  0  0  0  0
 48 50  1  0  0  0  0
 50 49  1  6  0  0  0
 51 48  2  0  0  0  0
 52 55  1  1  0  0  0
 52 50  1  0  0  0  0
 53 51  1  0  0  0  0
 53 52  1  0  0  0  0
 54 55  1  0  0  0  0
M  END
>  <MODEL>
4

>  <REMARK>
 VINA RESULT:      -6.7      3.351      5.664
  Name = 
  19 active torsions:
  status: ('A' for Active; 'I' for Inactive)
    1  A    between atoms: N_2  and  C_46
    2  A    between atoms: N_2  and  C_48
    3  A    between atoms: C_8  and  C_39
    4  A    between atoms: C_9  and  N_33
    5  A    between atoms: C_14  and  C_24
    6  A    between atoms: C_14  and  S_37
    7  A    between atoms: C_16  and  C_18
    8  A    between atoms: C_18  and  N_38
    9  A    between atoms: C_18  and  C_47
   10  A    between atoms: C_20  and  N_32
   11  A    between atoms: C_22  and  C_26
   12  A    between atoms: C_22  and  N_32
   13  A    between atoms: C_23  and  C_46
   14  A    between atoms: C_23  and  C_53
   15  A    between atoms: C_24  and  N_52
   16  A    between atoms: N_28  and  C_43
   17  A    between atoms: C_45  and  C_47
   18  A    between atoms: C_48  and  N_52
   19  A    between atoms: C_49  and  O_51
                            x       y       z     vdW  Elec       q    Type
                         _______ _______ _______ _____ _____    ______ ____

>  <TORSDO>
F 19

$$$$
=
 OpenBabel10222421053D

 55 59  0  0  1  0  0  0  0  0999 V2000
  192.4350  177.3540  141.8240 C   0  0  0  0  0  3  0  0  0  0  0  0
  191.9470  177.9590  140.6670 C   0  0  0  0  0  3  0  0  0  0  0  0
  188.9810  176.2780  141.9290 C   0  0  0  0  0  2  0  0  0  0  0  0
  190.3180  176.9190  141.7550 C   0  0  0  0  0  0  0  0  0  0  0  0
  187.9590  177.0940  141.2600 N   0  0  0  0  0  0  0  0  0  0  0  0
  191.4330  176.7340  142.4830 N   0  0  0  0  0  0  0  0  0  0  0  0
  187.1210  178.6120  139.6210 N   0  0  0  0  0  2  0  0  0  0  0  0
  188.1830  177.8430  140.2070 C   0  0  0  0  0  0  0  0  0  0  0  0
  189.5690  177.9330  139.5810 C   0  0  1  0  0  3  0  0  0  0  0  0
  190.5970  177.6600  140.6460 C   0  0  0  0  0  0  0  0  0  0  0  0
  189.6990  176.9260  138.4250 C   0  0  2  0  0  3  0  0  0  0  0  0
  187.2880  174.7530  136.6830 N   0  0  0  0  0  1  0  0  0  0  0  0
  189.7250  177.7440  136.8030 S   0  0  0  0  0  0  0  0  0  0  0  0
  188.6020  175.2590  137.0420 C   0  0  2  0  0  3  0  0  0  0  0  0
  188.5260  175.9720  138.3730 C   0  0  0  0  0  2  0  0  0  0  0  0
  189.0890  176.2470  135.9860 C   0  0  2  0  0  3  0  0  0  0  0  0
  190.2080  175.6150  135.1730 C   0  0  0  0  0  2  0  0  0  0  0  0
  190.7160  174.3430  135.8280 C   0  0  0  0  0  2  0  0  0  0  0  0
  192.0400  174.0060  135.3280 N   0  0  0  0  0  2  0  0  0  0  0  0
  192.0610  171.3600  134.9570 S   0  0  0  0  0  0  0  0  0  0  0  0
  192.6830  172.7500  135.5850 C   0  0  0  0  0  0  0  0  0  0  0  0
  193.8750  172.7180  136.3900 N   0  0  0  0  0  0  0  0  0  0  0  0
  194.7960  171.5920  136.2730 C   0  0  0  0  0  1  0  0  0  0  0  0
  194.8000  173.3230  138.4560 O   0  0  0  0  0  1  0  0  0  0  0  0
  194.2050  173.8220  137.2960 C   0  0  1  0  0  3  0  0  0  0  0  0
  195.1220  174.8370  136.6190 C   0  0  1  0  0  3  0  0  0  0  0  0
  195.7090  174.2670  135.4890 O   0  0  0  0  0  1  0  0  0  0  0  0
  193.2720  176.3590  137.6990 C   0  0  0  0  0  1  0  0  0  0  0  0
  194.1680  176.3040  136.1240 S   0  0  0  0  0  0  0  0  0  0  0  0
  184.1030  178.7840  141.8070 C   0  0  0  0  0  3  0  0  0  0  0  0
  185.7410  178.6410  140.0190 C   0  0  0  0  0  0  0  0  0  0  0  0
  183.0550  178.7300  140.8740 C   0  0  0  0  0  0  0  0  0  0  0  0
  183.3660  178.6430  139.5090 C   0  0  0  0  0  3  0  0  0  0  0  0
  184.6970  178.5970  139.0860 C   0  0  0  0  0  3  0  0  0  0  0  0
  185.4340  178.7360  141.3810 C   0  0  0  0  0  3  0  0  0  0  0  0
  180.9620  177.6290  141.0370 F   0  0  0  0  0  0  0  0  0  0  0  0
  181.6190  178.8220  141.3300 C   0  0  2  0  0  0  0  0  0  0  0  0
  180.9830  179.9380  140.6230 N   0  0  0  0  0  2  0  0  0  0  0  0
  179.6370  179.7660  140.6450 O   0  0  0  0  0  1  0  0  0  0  0  0
  181.5980  179.0630  142.8480 C   0  0  0  0  0  2  0  0  0  0  0  0
  179.7400  179.0950  144.3580 O   0  0  0  0  0  1  0  0  0  0  0  0
  180.5350  178.2480  143.5810 C   0  0  0  0  0  2  0  0  0  0  0  0
  191.4940  176.4280  144.8990 C   0  0  0  0  0  3  0  0  0  0  0  0
  191.6100  175.9410  143.6630 C   0  0  0  0  0  3  0  0  0  0  0  0
  191.2510  177.8130  145.1440 N   0  0  0  0  0  2  0  0  0  0  0  0
  189.9640  178.4190  144.8400 C   0  0  0  0  0  2  0  0  0  0  0  0
  186.9360  177.7880  144.5340 C   0  0  0  0  0  2  0  0  0  0  0  0
  189.2900  177.9180  147.1720 C   0  0  0  0  0  3  0  0  0  0  0  0
  188.2580  176.3080  148.5640 O   0  0  0  0  0  1  0  0  0  0  0  0
  188.0850  177.5690  147.9940 C   0  0  2  0  0  3  0  0  0  0  0  0
  188.9650  178.0910  145.9050 C   0  0  0  0  0  0  0  0  0  0  0  0
  186.9100  177.5270  147.0080 C   0  0  2  0  0  3  0  0  0  0  0  0
  187.5440  177.8800  145.7130 C   0  0  0  0  0  0  0  0  0  0  0  0
  184.8870  178.2740  146.5180 C   0  0  0  0  0  1  0  0  0  0  0  0
  185.9760  178.5040  147.3560 O   0  0  0  0  0  0  0  0  0  0  0  0
  1  6  1  0  0  0  0
  2  1  2  0  0  0  0
  4  3  1  0  0  0  0
  4  6  1  0  0  0  0
  5  3  1  0  0  0  0
  6 44  1  0  0  0  0
  7 31  1  0  0  0  0
  7  8  1  0  0  0  0
  8  5  2  0  0  0  0
  9  8  1  1  0  0  0
  9 10  1  0  0  0  0
 10  2  1  0  0  0  0
 10  4  2  0  0  0  0
 11 15  1  6  0  0  0
 11  9  1  0  0  0  0
 13 11  1  0  0  0  0
 14 12  1  6  0  0  0
 14 15  1  0  0  0  0
 16 17  1  1  0  0  0
 16 13  1  0  0  0  0
 16 14  1  0  0  0  0
 17 18  1  0  0  0  0
 19 21  1  0  0  0  0
 19 18  1  0  0  0  0
 20 21  2  0  0  0  0
 21 22  1  0  0  0  0
 22 25  1  0  0  0  0
 23 22  1  0  0  0  0
 25 24  1  1  0  0  0
 26 27  1  6  0  0  0
 26 25  1  0  0  0  0
 29 26  1  0  0  0  0
 29 28  1  0  0  0  0
 31 35  2  0  0  0  0
 32 37  1  0  0  0  0
 32 30  2  0  0  0  0
 33 32  1  0  0  0  0
 34 33  2  0  0  0  0
 34 31  1  0  0  0  0
 35 30  1  0  0  0  0
 37 36  1  6  0  0  0
 37 40  1  0  0  0  0
 38 39  1  0  0  0  0
 38 37  1  0  0  0  0
 40 42  1  0  0  0  0
 42 41  1  0  0  0  0
 43 45  1  0  0  0  0
 44 43  2  0  0  0  0
 46 45  1  0  0  0  0
 46 51  1  0  0  0  0
 47 53  2  0  0  0  0
 48 50  1  0  0  0  0
 50 49  1  6  0  0  0
 51 48  2  0  0  0  0
 52 55  1  1  0  0  0
 52 50  1  0  0  0  0
 53 51  1  0  0  0  0
 53 52  1  0  0  0  0
 54 55  1  0  0  0  0
M  END
>  <MODEL>
5

>  <REMARK>
 VINA RESULT:      -6.5      1.523      2.135
  Name = 
  19 active torsions:
  status: ('A' for Active; 'I' for Inactive)
    1  A    between atoms: N_2  and  C_46
    2  A    between atoms: N_2  and  C_48
    3  A    between atoms: C_8  and  C_39
    4  A    between atoms: C_9  and  N_33
    5  A    between atoms: C_14  and  C_24
    6  A    between atoms: C_14  and  S_37
    7  A    between atoms: C_16  and  C_18
    8  A    between atoms: C_18  and  N_38
    9  A    between atoms: C_18  and  C_47
   10  A    between atoms: C_20  and  N_32
   11  A    between atoms: C_22  and  C_26
   12  A    between atoms: C_22  and  N_32
   13  A    between atoms: C_23  and  C_46
   14  A    between atoms: C_23  and  C_53
   15  A    between atoms: C_24  and  N_52
   16  A    between atoms: N_28  and  C_43
   17  A    between atoms: C_45  and  C_47
   18  A    between atoms: C_48  and  N_52
   19  A    between atoms: C_49  and  O_51
                            x       y       z     vdW  Elec       q    Type
                         _______ _______ _______ _____ _____    ______ ____

>  <TORSDO>
F 19

$$$$
=
 OpenBabel10222421053D

 55 59  0  0  1  0  0  0  0  0999 V2000
  186.1840  175.9000  136.2090 C   0  0  0  0  0  3  0  0  0  0  0  0
  186.9880  176.8890  136.7730 C   0  0  0  0  0  3  0  0  0  0  0  0
  189.0850  173.9410  137.1250 C   0  0  0  0  0  2  0  0  0  0  0  0
  188.0500  174.9430  136.7330 C   0  0  0  0  0  0  0  0  0  0  0  0
  190.3920  174.6050  137.2280 N   0  0  0  0  0  0  0  0  0  0  0  0
  186.8440  174.7240  136.1810 N   0  0  0  0  0  0  0  0  0  0  0  0
  191.8740  176.4310  137.6270 N   0  0  0  0  0  2  0  0  0  0  0  0
  190.5570  175.8640  137.5550 C   0  0  0  0  0  0  0  0  0  0  0  0
  189.3660  176.7670  137.8540 C   0  0  1  0  0  3  0  0  0  0  0  0
  188.1690  176.2480  137.1030 C   0  0  0  0  0  0  0  0  0  0  0  0
  189.0890  176.8010  139.3670 C   0  0  2  0  0  3  0  0  0  0  0  0
  191.1830  177.5470  142.3040 N   0  0  0  0  0  1  0  0  0  0  0  0
  188.2870  178.3490  139.8810 S   0  0  0  0  0  0  0  0  0  0  0  0
  190.0000  177.0810  141.5990 C   0  0  2  0  0  3  0  0  0  0  0  0
  190.3640  176.7230  140.1760 C   0  0  0  0  0  2  0  0  0  0  0  0
  188.9430  178.1800  141.5710 C   0  0  2  0  0  3  0  0  0  0  0  0
  187.8010  177.8150  142.5080 C   0  0  0  0  0  2  0  0  0  0  0  0
  186.5520  178.6180  142.1930 C   0  0  0  0  0  2  0  0  0  0  0  0
  185.3640  177.9160  142.6560 N   0  0  0  0  0  2  0  0  0  0  0  0
  183.8410  179.3890  144.2830 S   0  0  0  0  0  0  0  0  0  0  0  0
  184.1050  178.5620  142.8830 C   0  0  0  0  0  0  0  0  0  0  0  0
  183.0800  178.4850  141.8760 N   0  0  0  0  0  0  0  0  0  0  0  0
  181.7100  178.8650  142.2090 C   0  0  0  0  0  1  0  0  0  0  0  0
  182.5760  177.0090  140.1280 O   0  0  0  0  0  1  0  0  0  0  0  0
  183.3950  178.0740  140.5060 C   0  0  1  0  0  3  0  0  0  0  0  0
  183.2410  179.2380  139.5300 C   0  0  1  0  0  3  0  0  0  0  0  0
  184.4760  179.8590  139.3340 O   0  0  0  0  0  1  0  0  0  0  0  0
  180.9930  179.4070  138.1810 C   0  0  0  0  0  1  0  0  0  0  0  0
  182.6150  178.6340  137.9330 S   0  0  0  0  0  0  0  0  0  0  0  0
  194.8580  175.0100  135.8990 C   0  0  0  0  0  3  0  0  0  0  0  0
  193.1270  175.7570  137.4300 C   0  0  0  0  0  0  0  0  0  0  0  0
  195.5930  174.4700  136.9680 C   0  0  0  0  0  0  0  0  0  0  0  0
  195.0860  174.5920  138.2700 C   0  0  0  0  0  3  0  0  0  0  0  0
  193.8640  175.2280  138.4980 C   0  0  0  0  0  3  0  0  0  0  0  0
  193.6340  175.6440  136.1310 C   0  0  0  0  0  3  0  0  0  0  0  0
  197.6850  173.8510  137.8950 F   0  0  0  0  0  0  0  0  0  0  0  0
  196.9340  173.8210  136.7230 C   0  0  2  0  0  0  0  0  0  0  0  0
  197.6190  174.5670  135.6630 N   0  0  0  0  0  2  0  0  0  0  0  0
  198.2440  175.6400  136.2090 O   0  0  0  0  0  1  0  0  0  0  0  0
  196.7060  172.3630  136.2940 C   0  0  0  0  0  2  0  0  0  0  0  0
  195.7730  171.1580  138.1420 O   0  0  0  0  0  1  0  0  0  0  0  0
  196.9490  171.3520  137.4120 C   0  0  0  0  0  2  0  0  0  0  0  0
  184.9840  173.1740  135.9090 C   0  0  0  0  0  3  0  0  0  0  0  0
  186.2710  173.4840  135.7460 C   0  0  0  0  0  3  0  0  0  0  0  0
  184.0820  174.0360  136.6020 N   0  0  0  0  0  2  0  0  0  0  0  0
  182.8880  174.5560  135.9560 C   0  0  0  0  0  2  0  0  0  0  0  0
  180.0410  175.8030  136.0010 C   0  0  0  0  0  2  0  0  0  0  0  0
  181.6020  172.8940  137.2710 C   0  0  0  0  0  3  0  0  0  0  0  0
  179.6890  171.5040  137.2540 O   0  0  0  0  0  1  0  0  0  0  0  0
  180.2340  172.6500  137.8340 C   0  0  2  0  0  3  0  0  0  0  0  0
  181.6570  174.0540  136.6450 C   0  0  0  0  0  0  0  0  0  0  0  0
  179.3990  173.8720  137.4320 C   0  0  2  0  0  3  0  0  0  0  0  0
  180.3710  174.7180  136.6950 C   0  0  0  0  0  0  0  0  0  0  0  0
  179.6020  173.8850  139.6350 C   0  0  0  0  0  1  0  0  0  0  0  0
  178.9690  174.5390  138.5810 O   0  0  0  0  0  0  0  0  0  0  0  0
  1  2  2  0  0  0  0
  2 10  1  0  0  0  0
  3  5  1  0  0  0  0
  4 10  2  0  0  0  0
  4  3  1  0  0  0  0
  5  8  2  0  0  0  0
  6  1  1  0  0  0  0
  6  4  1  0  0  0  0
  8  7  1  0  0  0  0
  8  9  1  0  0  0  0
  9 10  1  6  0  0  0
  9 11  1  0  0  0  0
 11 13  1  0  0  0  0
 11 15  1  1  0  0  0
 13 16  1  0  0  0  0
 14 12  1  1  0  0  0
 15 14  1  0  0  0  0
 16 14  1  0  0  0  0
 16 17  1  1  0  0  0
 18 17  1  0  0  0  0
 18 19  1  0  0  0  0
 19 21  1  0  0  0  0
 21 20  2  0  0  0  0
 22 23  1  0  0  0  0
 22 21  1  0  0  0  0
 25 24  1  6  0  0  0
 25 22  1  0  0  0  0
 26 27  1  6  0  0  0
 26 25  1  0  0  0  0
 29 28  1  0  0  0  0
 29 26  1  0  0  0  0
 30 35  2  0  0  0  0
 30 32  1  0  0  0  0
 31  7  1  0  0  0  0
 31 34  2  0  0  0  0
 32 33  2  0  0  0  0
 33 34  1  0  0  0  0
 35 31  1  0  0  0  0
 37 32  1  0  0  0  0
 37 36  1  1  0  0  0
 38 39  1  0  0  0  0
 38 37  1  0  0  0  0
 40 37  1  0  0  0  0
 40 42  1  0  0  0  0
 42 41  1  0  0  0  0
 43 45  1  0  0  0  0
 44 43  2  0  0  0  0
 44  6  1  0  0  0  0
 46 45  1  0  0  0  0
 46 51  1  0  0  0  0
 47 53  2  0  0  0  0
 48 50  1  0  0  0  0
 50 49  1  6  0  0  0
 51 53  1  0  0  0  0
 51 48  2  0  0  0  0
 52 50  1  0  0  0  0
 52 55  1  1  0  0  0
 53 52  1  0  0  0  0
 55 54  1  0  0  0  0
M  END
>  <MODEL>
6

>  <REMARK>
 VINA RESULT:      -6.5      4.401     11.940
  Name = 
  19 active torsions:
  status: ('A' for Active; 'I' for Inactive)
    1  A    between atoms: N_2  and  C_46
    2  A    between atoms: N_2  and  C_48
    3  A    between atoms: C_8  and  C_39
    4  A    between atoms: C_9  and  N_33
    5  A    between atoms: C_14  and  C_24
    6  A    between atoms: C_14  and  S_37
    7  A    between atoms: C_16  and  C_18
    8  A    between atoms: C_18  and  N_38
    9  A    between atoms: C_18  and  C_47
   10  A    between atoms: C_20  and  N_32
   11  A    between atoms: C_22  and  C_26
   12  A    between atoms: C_22  and  N_32
   13  A    between atoms: C_23  and  C_46
   14  A    between atoms: C_23  and  C_53
   15  A    between atoms: C_24  and  N_52
   16  A    between atoms: N_28  and  C_43
   17  A    between atoms: C_45  and  C_47
   18  A    between atoms: C_48  and  N_52
   19  A    between atoms: C_49  and  O_51
                            x       y       z     vdW  Elec       q    Type
                         _______ _______ _______ _____ _____    ______ ____

>  <TORSDO>
F 19

$$$$
=
 OpenBabel10222421053D

 55 59  0  0  1  0  0  0  0  0999 V2000
  192.1940  177.3930  141.8220 C   0  0  0  0  0  3  0  0  0  0  0  0
  191.5650  178.1580  140.8400 C   0  0  0  0  0  3  0  0  0  0  0  0
  188.7650  176.3190  142.2520 C   0  0  0  0  0  2  0  0  0  0  0  0
  190.0780  176.9760  141.9860 C   0  0  0  0  0  0  0  0  0  0  0  0
  187.6780  177.2240  141.8540 N   0  0  0  0  0  0  0  0  0  0  0  0
  191.2780  176.6870  142.5190 N   0  0  0  0  0  0  0  0  0  0  0  0
  186.6560  178.9610  140.5780 N   0  0  0  0  0  2  0  0  0  0  0  0
  187.7710  178.1150  140.8960 C   0  0  0  0  0  0  0  0  0  0  0  0
  189.0600  178.2910  140.1020 C   0  0  1  0  0  3  0  0  0  0  0  0
  190.2180  177.8670  140.9650 C   0  0  0  0  0  0  0  0  0  0  0  0
  189.0080  177.4590  138.8100 C   0  0  2  0  0  3  0  0  0  0  0  0
  186.2450  176.1590  136.7490 N   0  0  0  0  0  1  0  0  0  0  0  0
  189.2770  178.4760  137.3290 S   0  0  0  0  0  0  0  0  0  0  0  0
  187.6240  176.2990  137.1870 C   0  0  2  0  0  3  0  0  0  0  0  0
  187.6570  176.8110  138.6090 C   0  0  0  0  0  2  0  0  0  0  0  0
  188.3570  177.2940  136.2930 C   0  0  2  0  0  3  0  0  0  0  0  0
  189.3400  176.5530  135.4000 C   0  0  0  0  0  2  0  0  0  0  0  0
  190.7590  176.6670  135.9290 C   0  0  0  0  0  2  0  0  0  0  0  0
  191.6410  175.7510  135.2220 N   0  0  0  0  0  2  0  0  0  0  0  0
  194.1570  176.3850  135.8590 S   0  0  0  0  0  0  0  0  0  0  0  0
  192.9070  175.3190  135.7390 C   0  0  0  0  0  0  0  0  0  0  0  0
  193.0710  173.9510  136.1540 N   0  0  0  0  0  0  0  0  0  0  0  0
  191.9540  173.0200  136.0300 C   0  0  0  0  0  1  0  0  0  0  0  0
  194.4160  173.6210  138.0440 O   0  0  0  0  0  1  0  0  0  0  0  0
  194.3570  173.4630  136.6580 C   0  0  1  0  0  3  0  0  0  0  0  0
  194.5820  172.0020  136.2780 C   0  0  1  0  0  3  0  0  0  0  0  0
  195.3580  171.9270  135.1200 O   0  0  0  0  0  1  0  0  0  0  0  0
  197.0420  171.2360  136.7950 C   0  0  0  0  0  1  0  0  0  0  0  0
  195.4340  171.1300  137.6270 S   0  0  0  0  0  0  0  0  0  0  0  0
  182.9440  178.7290  140.8610 C   0  0  0  0  0  3  0  0  0  0  0  0
  185.3450  178.9360  141.1640 C   0  0  0  0  0  0  0  0  0  0  0  0
  182.7420  178.8530  142.2460 C   0  0  0  0  0  0  0  0  0  0  0  0
  183.8560  179.0080  143.0830 C   0  0  0  0  0  3  0  0  0  0  0  0
  185.1460  179.0510  142.5460 C   0  0  0  0  0  3  0  0  0  0  0  0
  184.2360  178.7740  140.3270 C   0  0  0  0  0  3  0  0  0  0  0  0
  181.4230  178.2830  144.1310 F   0  0  0  0  0  0  0  0  0  0  0  0
  181.3510  178.7640  142.8260 C   0  0  2  0  0  0  0  0  0  0  0  0
  180.5630  177.8510  141.9920 N   0  0  0  0  0  2  0  0  0  0  0  0
  179.6710  177.1950  142.7760 O   0  0  0  0  0  1  0  0  0  0  0  0
  180.7260  180.1680  142.8290 C   0  0  0  0  0  2  0  0  0  0  0  0
  180.0960  180.7950  140.6050 O   0  0  0  0  0  1  0  0  0  0  0  0
  179.5900  180.3320  141.8230 C   0  0  0  0  0  2  0  0  0  0  0  0
  191.3950  175.9530  144.8390 C   0  0  0  0  0  3  0  0  0  0  0  0
  191.5980  175.7330  143.5390 C   0  0  0  0  0  3  0  0  0  0  0  0
  190.9020  177.2010  145.3250 N   0  0  0  0  0  2  0  0  0  0  0  0
  190.9060  177.5140  146.7450 C   0  0  0  0  0  2  0  0  0  0  0  0
  188.2190  177.0940  145.2400 C   0  0  0  0  0  2  0  0  0  0  0  0
  189.2320  178.0990  148.4770 C   0  0  0  0  0  3  0  0  0  0  0  0
  187.3230  177.3200  149.6350 O   0  0  0  0  0  1  0  0  0  0  0  0
  187.7520  178.2380  148.6770 C   0  0  2  0  0  3  0  0  0  0  0  0
  189.5120  177.7550  147.2340 C   0  0  0  0  0  0  0  0  0  0  0  0
  187.1190  177.8960  147.3220 C   0  0  2  0  0  3  0  0  0  0  0  0
  188.2950  177.6140  146.4610 C   0  0  0  0  0  0  0  0  0  0  0  0
  185.1090  178.5940  146.7170 C   0  0  0  0  0  1  0  0  0  0  0  0
  186.4340  179.0100  146.8340 O   0  0  0  0  0  0  0  0  0  0  0  0
  1  6  1  0  0  0  0
  2 10  1  0  0  0  0
  2  1  2  0  0  0  0
  4  3  1  0  0  0  0
  4  6  1  0  0  0  0
  5  3  1  0  0  0  0
  6 44  1  0  0  0  0
  7  8  1  0  0  0  0
  7 31  1  0  0  0  0
  8  5  2  0  0  0  0
  9  8  1  1  0  0  0
  9 10  1  0  0  0  0
 10  4  2  0  0  0  0
 11 15  1  6  0  0  0
 11  9  1  0  0  0  0
 13 11  1  0  0  0  0
 14 12  1  6  0  0  0
 14 15  1  0  0  0  0
 16 17  1  6  0  0  0
 16 14  1  0  0  0  0
 16 13  1  0  0  0  0
 17 18  1  0  0  0  0
 19 21  1  0  0  0  0
 19 18  1  0  0  0  0
 21 20  2  0  0  0  0
 21 22  1  0  0  0  0
 22 25  1  0  0  0  0
 23 22  1  0  0  0  0
 25 24  1  1  0  0  0
 26 27  1  6  0  0  0
 26 25  1  0  0  0  0
 26 29  1  0  0  0  0
 28 29  1  0  0  0  0
 30 32  1  0  0  0  0
 31 34  2  0  0  0  0
 32 37  1  0  0  0  0
 32 33  2  0  0  0  0
 34 33  1  0  0  0  0
 35 30  2  0  0  0  0
 35 31  1  0  0  0  0
 37 40  1  0  0  0  0
 37 36  1  1  0  0  0
 38 39  1  0  0  0  0
 38 37  1  0  0  0  0
 41 42  1  0  0  0  0
 42 40  1  0  0  0  0
 43 45  1  0  0  0  0
 44 43  2  0  0  0  0
 45 46  1  0  0  0  0
 46 51  1  0  0  0  0
 47 53  2  0  0  0  0
 48 50  1  0  0  0  0
 50 49  1  1  0  0  0
 51 48  2  0  0  0  0
 52 55  1  6  0  0  0
 52 50  1  0  0  0  0
 53 51  1  0  0  0  0
 53 52  1  0  0  0  0
 54 55  1  0  0  0  0
M  END
>  <MODEL>
7

>  <REMARK>
 VINA RESULT:      -6.2      1.783      2.315
  Name = 
  19 active torsions:
  status: ('A' for Active; 'I' for Inactive)
    1  A    between atoms: N_2  and  C_46
    2  A    between atoms: N_2  and  C_48
    3  A    between atoms: C_8  and  C_39
    4  A    between atoms: C_9  and  N_33
    5  A    between atoms: C_14  and  C_24
    6  A    between atoms: C_14  and  S_37
    7  A    between atoms: C_16  and  C_18
    8  A    between atoms: C_18  and  N_38
    9  A    between atoms: C_18  and  C_47
   10  A    between atoms: C_20  and  N_32
   11  A    between atoms: C_22  and  C_26
   12  A    between atoms: C_22  and  N_32
   13  A    between atoms: C_23  and  C_46
   14  A    between atoms: C_23  and  C_53
   15  A    between atoms: C_24  and  N_52
   16  A    between atoms: N_28  and  C_43
   17  A    between atoms: C_45  and  C_47
   18  A    between atoms: C_48  and  N_52
   19  A    between atoms: C_49  and  O_51
                            x       y       z     vdW  Elec       q    Type
                         _______ _______ _______ _____ _____    ______ ____

>  <TORSDO>
F 19

$$$$
=
 OpenBabel10222421053D

 55 59  0  0  1  0  0  0  0  0999 V2000
  186.4190  177.0440  135.6410 C   0  0  0  0  0  3  0  0  0  0  0  0
  187.5410  177.8400  135.8640 C   0  0  0  0  0  3  0  0  0  0  0  0
  188.6830  174.6020  137.0580 C   0  0  0  0  0  2  0  0  0  0  0  0
  187.9590  175.7290  136.3990 C   0  0  0  0  0  0  0  0  0  0  0  0
  190.1320  174.8150  136.9320 N   0  0  0  0  0  0  0  0  0  0  0  0
  186.6880  175.7600  135.9600 N   0  0  0  0  0  0  0  0  0  0  0  0
  192.1280  176.1040  136.7320 N   0  0  0  0  0  2  0  0  0  0  0  0
  190.7020  175.9930  136.8580 C   0  0  0  0  0  0  0  0  0  0  0  0
  189.8790  177.2750  136.8890 C   0  0  1  0  0  3  0  0  0  0  0  0
  188.5040  176.9760  136.3530 C   0  0  0  0  0  0  0  0  0  0  0  0
  189.7970  177.8220  138.3240 C   0  0  2  0  0  3  0  0  0  0  0  0
  186.9910  178.5720  140.5890 N   0  0  0  0  0  1  0  0  0  0  0  0
  190.1040  176.5310  139.5670 S   0  0  0  0  0  0  0  0  0  0  0  0
  188.3730  178.5730  140.1420 C   0  0  2  0  0  3  0  0  0  0  0  0
  188.4240  178.3660  138.6440 C   0  0  0  0  0  2  0  0  0  0  0  0
  189.1420  177.4420  140.8160 C   0  0  2  0  0  3  0  0  0  0  0  0
  190.0980  178.0190  141.8500 C   0  0  0  0  0  2  0  0  0  0  0  0
  191.4060  177.2470  141.8810 C   0  0  0  0  0  2  0  0  0  0  0  0
  191.6540  176.7210  143.2150 N   0  0  0  0  0  2  0  0  0  0  0  0
  191.6030  179.1040  144.4210 S   0  0  0  0  0  0  0  0  0  0  0  0
  191.4120  177.4680  144.4150 C   0  0  0  0  0  0  0  0  0  0  0  0
  190.9990  176.7770  145.6070 N   0  0  0  0  0  0  0  0  0  0  0  0
  191.9760  176.0120  146.3740 C   0  0  0  0  0  1  0  0  0  0  0  0
  189.5770  177.5830  147.2860 O   0  0  0  0  0  1  0  0  0  0  0  0
  189.6180  176.8630  146.0900 C   0  0  1  0  0  3  0  0  0  0  0  0
  188.7070  177.5070  145.0480 C   0  0  1  0  0  3  0  0  0  0  0  0
  188.2920  176.5470  144.1230 O   0  0  0  0  0  1  0  0  0  0  0  0
  186.1330  177.6630  144.5430 C   0  0  0  0  0  1  0  0  0  0  0  0
  187.2470  178.2280  145.8580 S   0  0  0  0  0  0  0  0  0  0  0  0
  194.2190  173.2720  135.4990 C   0  0  0  0  0  3  0  0  0  0  0  0
  193.0910  175.0390  136.7260 C   0  0  0  0  0  0  0  0  0  0  0  0
  194.9820  172.9480  136.6330 C   0  0  0  0  0  0  0  0  0  0  0  0
  194.7960  173.6890  137.8100 C   0  0  0  0  0  3  0  0  0  0  0  0
  193.8580  174.7230  137.8560 C   0  0  0  0  0  3  0  0  0  0  0  0
  193.2800  174.3070  135.5490 C   0  0  0  0  0  3  0  0  0  0  0  0
  196.4710  171.5660  137.8550 F   0  0  0  0  0  0  0  0  0  0  0  0
  196.0240  171.8580  136.5680 C   0  0  2  0  0  0  0  0  0  0  0  0
  197.1370  172.3360  135.7420 N   0  0  0  0  0  2  0  0  0  0  0  0
  197.2280  173.6840  135.8570 O   0  0  0  0  0  1  0  0  0  0  0  0
  195.3900  170.6040  135.9450 C   0  0  0  0  0  2  0  0  0  0  0  0
  194.8070  169.6290  138.0530 O   0  0  0  0  0  1  0  0  0  0  0  0
  194.2910  169.9850  136.8040 C   0  0  0  0  0  2  0  0  0  0  0  0
  184.6270  174.6860  136.6910 C   0  0  0  0  0  3  0  0  0  0  0  0
  185.7250  174.7000  135.9330 C   0  0  0  0  0  3  0  0  0  0  0  0
  184.3610  175.7070  137.6520 N   0  0  0  0  0  2  0  0  0  0  0  0
  183.0820  175.7830  138.3390 C   0  0  0  0  0  2  0  0  0  0  0  0
  180.8170  176.8640  140.1720 C   0  0  0  0  0  2  0  0  0  0  0  0
  183.4940  178.2270  138.3040 C   0  0  0  0  0  3  0  0  0  0  0  0
  183.8610  180.1270  139.6630 O   0  0  0  0  0  1  0  0  0  0  0  0
  182.9320  179.5180  138.8210 C   0  0  2  0  0  3  0  0  0  0  0  0
  182.7530  177.2020  138.6810 C   0  0  0  0  0  0  0  0  0  0  0  0
  181.6870  179.1310  139.6290 C   0  0  2  0  0  3  0  0  0  0  0  0
  181.6340  177.6550  139.4830 C   0  0  0  0  0  0  0  0  0  0  0  0
  180.5360  181.0170  139.5070 C   0  0  0  0  0  1  0  0  0  0  0  0
  180.5560  179.7030  139.0430 O   0  0  0  0  0  0  0  0  0  0  0  0
  1  2  2  0  0  0  0
  1  6  1  0  0  0  0
  2 10  1  0  0  0  0
  4  3  1  0  0  0  0
  5  3  1  0  0  0  0
  6  4  1  0  0  0  0
  7  8  1  0  0  0  0
  8  9  1  0  0  0  0
  8  5  2  0  0  0  0
  9 10  1  1  0  0  0
  9 11  1  0  0  0  0
 10  4  2  0  0  0  0
 11 15  1  1  0  0  0
 11 13  1  0  0  0  0
 13 16  1  0  0  0  0
 14 12  1  1  0  0  0
 14 16  1  0  0  0  0
 15 14  1  0  0  0  0
 16 17  1  1  0  0  0
 17 18  1  0  0  0  0
 18 19  1  0  0  0  0
 19 21  1  0  0  0  0
 21 20  2  0  0  0  0
 21 22  1  0  0  0  0
 22 25  1  0  0  0  0
 22 23  1  0  0  0  0
 25 24  1  1  0  0  0
 26 27  1  6  0  0  0
 26 29  1  0  0  0  0
 26 25  1  0  0  0  0
 28 29  1  0  0  0  0
 30 35  2  0  0  0  0
 30 32  1  0  0  0  0
 31  7  1  0  0  0  0
 31 34  2  0  0  0  0
 32 33  2  0  0  0  0
 33 34  1  0  0  0  0
 35 31  1  0  0  0  0
 37 32  1  0  0  0  0
 37 36  1  1  0  0  0
 38 39  1  0  0  0  0
 38 37  1  0  0  0  0
 40 37  1  0  0  0  0
 40 42  1  0  0  0  0
 42 41  1  0  0  0  0
 43 45  1  0  0  0  0
 44  6  1  0  0  0  0
 44 43  2  0  0  0  0
 45 46  1  0  0  0  0
 46 51  1  0  0  0  0
 48 51  2  0  0  0  0
 48 50  1  0  0  0  0
 50 52  1  0  0  0  0
 50 49  1  1  0  0  0
 51 53  1  0  0  0  0
 52 55  1  6  0  0  0
 53 52  1  0  0  0  0
 53 47  2  0  0  0  0
 55 54  1  0  0  0  0
M  END
>  <MODEL>
8

>  <REMARK>
 VINA RESULT:      -6.0      3.592     10.472
  Name = 
  19 active torsions:
  status: ('A' for Active; 'I' for Inactive)
    1  A    between atoms: N_2  and  C_46
    2  A    between atoms: N_2  and  C_48
    3  A    between atoms: C_8  and  C_39
    4  A    between atoms: C_9  and  N_33
    5  A    between atoms: C_14  and  C_24
    6  A    between atoms: C_14  and  S_37
    7  A    between atoms: C_16  and  C_18
    8  A    between atoms: C_18  and  N_38
    9  A    between atoms: C_18  and  C_47
   10  A    between atoms: C_20  and  N_32
   11  A    between atoms: C_22  and  C_26
   12  A    between atoms: C_22  and  N_32
   13  A    between atoms: C_23  and  C_46
   14  A    between atoms: C_23  and  C_53
   15  A    between atoms: C_24  and  N_52
   16  A    between atoms: N_28  and  C_43
   17  A    between atoms: C_45  and  C_47
   18  A    between atoms: C_48  and  N_52
   19  A    between atoms: C_49  and  O_51
                            x       y       z     vdW  Elec       q    Type
                         _______ _______ _______ _____ _____    ______ ____

>  <TORSDO>
F 19

$$$$
=
 OpenBabel10222421053D

 55 59  0  0  1  0  0  0  0  0999 V2000
  189.6700  176.9040  134.5940 C   0  0  0  0  0  3  0  0  0  0  0  0
  188.7880  177.7260  135.2930 C   0  0  0  0  0  3  0  0  0  0  0  0
  189.9010  175.4510  137.9000 C   0  0  0  0  0  2  0  0  0  0  0  0
  189.7450  176.2630  136.6580 C   0  0  0  0  0  0  0  0  0  0  0  0
  189.6080  176.2900  139.0700 N   0  0  0  0  0  0  0  0  0  0  0  0
  190.2530  176.0250  135.4360 N   0  0  0  0  0  0  0  0  0  0  0  0
  188.5580  178.0730  140.2560 N   0  0  0  0  0  2  0  0  0  0  0  0
  188.7780  177.3050  139.0630 C   0  0  0  0  0  0  0  0  0  0  0  0
  188.0350  177.7110  137.7960 C   0  0  1  0  0  3  0  0  0  0  0  0
  188.8530  177.2910  136.6040 C   0  0  0  0  0  0  0  0  0  0  0  0
  186.6440  177.0570  137.7620 C   0  0  2  0  0  3  0  0  0  0  0  0
  183.6890  177.5100  135.6090 N   0  0  0  0  0  1  0  0  0  0  0  0
  186.6670  175.4410  136.9310 S   0  0  0  0  0  0  0  0  0  0  0  0
  184.4350  177.0160  136.7540 C   0  0  2  0  0  3  0  0  0  0  0  0
  185.6470  177.8900  136.9880 C   0  0  0  0  0  2  0  0  0  0  0  0
  184.9060  175.5890  136.4940 C   0  0  2  0  0  3  0  0  0  0  0  0
  184.1030  174.6210  137.3500 C   0  0  0  0  0  2  0  0  0  0  0  0
  183.2120  175.3630  138.3310 C   0  0  0  0  0  2  0  0  0  0  0  0
  181.8140  175.0250  138.1050 N   0  0  0  0  0  2  0  0  0  0  0  0
  180.6380  175.4660  135.7480 S   0  0  0  0  0  0  0  0  0  0  0  0
  180.9240  175.8360  137.3270 C   0  0  0  0  0  0  0  0  0  0  0  0
  180.2820  176.9690  137.9400 N   0  0  0  0  0  0  0  0  0  0  0  0
  179.2170  176.7560  138.9150 C   0  0  0  0  0  1  0  0  0  0  0  0
  179.6650  179.0380  137.0310 O   0  0  0  0  0  1  0  0  0  0  0  0
  180.7090  178.3360  137.6350 C   0  0  1  0  0  3  0  0  0  0  0  0
  181.1830  179.0610  138.8920 C   0  0  1  0  0  3  0  0  0  0  0  0
  182.5570  179.2940  138.8170 O   0  0  0  0  0  1  0  0  0  0  0  0
  181.6720  181.5710  138.2900 C   0  0  0  0  0  1  0  0  0  0  0  0
  180.3140  180.6500  139.0600 S   0  0  0  0  0  0  0  0  0  0  0  0
  189.3310  176.3860  143.4920 C   0  0  0  0  0  3  0  0  0  0  0  0
  189.1140  177.8420  141.5600 C   0  0  0  0  0  0  0  0  0  0  0  0
  190.1900  177.3080  144.1110 C   0  0  0  0  0  0  0  0  0  0  0  0
  190.5140  178.4940  143.4350 C   0  0  0  0  0  3  0  0  0  0  0  0
  189.9800  178.7590  142.1720 C   0  0  0  0  0  3  0  0  0  0  0  0
  188.7960  176.6550  142.2280 C   0  0  0  0  0  3  0  0  0  0  0  0
  191.7010  178.0060  145.8000 F   0  0  0  0  0  0  0  0  0  0  0  0
  190.8000  177.0010  145.4580 C   0  0  2  0  0  0  0  0  0  0  0  0
  191.4910  175.7110  145.3660 N   0  0  0  0  0  2  0  0  0  0  0  0
  192.4490  175.6520  146.3240 O   0  0  0  0  0  1  0  0  0  0  0  0
  189.6770  176.9360  146.5060 C   0  0  0  0  0  2  0  0  0  0  0  0
  187.3270  177.3070  146.2330 O   0  0  0  0  0  1  0  0  0  0  0  0
  188.5650  177.9550  146.2730 C   0  0  0  0  0  2  0  0  0  0  0  0
  192.4510  174.9830  135.2900 C   0  0  0  0  0  3  0  0  0  0  0  0
  191.1440  174.9800  135.0250 C   0  0  0  0  0  3  0  0  0  0  0  0
  193.0840  176.0780  135.9510 N   0  0  0  0  0  2  0  0  0  0  0  0
  194.5260  176.2540  135.9100 C   0  0  0  0  0  2  0  0  0  0  0  0
  197.2400  174.7940  135.5030 C   0  0  0  0  0  2  0  0  0  0  0  0
  194.7490  174.9560  138.0100 C   0  0  0  0  0  3  0  0  0  0  0  0
  196.1640  174.5280  139.8560 O   0  0  0  0  0  1  0  0  0  0  0  0
  195.6510  173.9670  138.6860 C   0  0  2  0  0  3  0  0  0  0  0  0
  195.2020  175.2680  136.8100 C   0  0  0  0  0  0  0  0  0  0  0  0
  196.7960  173.7100  137.6980 C   0  0  2  0  0  3  0  0  0  0  0  0
  196.4350  174.5580  136.5340 C   0  0  0  0  0  0  0  0  0  0  0  0
  195.7210  171.8020  138.0100 C   0  0  0  0  0  1  0  0  0  0  0  0
  196.7930  172.3660  137.3210 O   0  0  0  0  0  0  0  0  0  0  0  0
  1  2  2  0  0  0  0
  1  6  1  0  0  0  0
  2 10  1  0  0  0  0
  3  5  1  0  0  0  0
  4  3  1  0  0  0  0
  6  4  1  0  0  0  0
  7 31  1  0  0  0  0
  8  5  2  0  0  0  0
  8  7  1  0  0  0  0
  9 10  1  6  0  0  0
  9  8  1  0  0  0  0
 10  4  2  0  0  0  0
 11 15  1  6  0  0  0
 11  9  1  0  0  0  0
 13 11  1  0  0  0  0
 14 12  1  6  0  0  0
 14 15  1  0  0  0  0
 16 14  1  0  0  0  0
 16 13  1  0  0  0  0
 16 17  1  1  0  0  0
 17 18  1  0  0  0  0
 19 18  1  0  0  0  0
 20 21  2  0  0  0  0
 21 22  1  0  0  0  0
 21 19  1  0  0  0  0
 22 23  1  0  0  0  0
 25 24  1  1  0  0  0
 25 22  1  0  0  0  0
 25 26  1  0  0  0  0
 26 27  1  6  0  0  0
 26 29  1  0  0  0  0
 28 29  1  0  0  0  0
 30 32  1  0  0  0  0
 31 34  2  0  0  0  0
 31 35  1  0  0  0  0
 32 37  1  0  0  0  0
 33 32  2  0  0  0  0
 34 33  1  0  0  0  0
 35 30  2  0  0  0  0
 37 36  1  1  0  0  0
 37 40  1  0  0  0  0
 38 37  1  0  0  0  0
 38 39  1  0  0  0  0
 41 42  1  0  0  0  0
 42 40  1  0  0  0  0
 43 45  1  0  0  0  0
 44 43  2  0  0  0  0
 44  6  1  0  0  0  0
 46 45  1  0  0  0  0
 46 51  1  0  0  0  0
 47 53  2  0  0  0  0
 48 50  1  0  0  0  0
 50 49  1  1  0  0  0
 51 48  2  0  0  0  0
 52 55  1  6  0  0  0
 52 50  1  0  0  0  0
 53 51  1  0  0  0  0
 53 52  1  0  0  0  0
 55 54  1  0  0  0  0
M  END
>  <MODEL>
9

>  <REMARK>
 VINA RESULT:      -6.0      3.772     10.750
  Name = 
  19 active torsions:
  status: ('A' for Active; 'I' for Inactive)
    1  A    between atoms: N_2  and  C_46
    2  A    between atoms: N_2  and  C_48
    3  A    between atoms: C_8  and  C_39
    4  A    between atoms: C_9  and  N_33
    5  A    between atoms: C_14  and  C_24
    6  A    between atoms: C_14  and  S_37
    7  A    between atoms: C_16  and  C_18
    8  A    between atoms: C_18  and  N_38
    9  A    between atoms: C_18  and  C_47
   10  A    between atoms: C_20  and  N_32
   11  A    between atoms: C_22  and  C_26
   12  A    between atoms: C_22  and  N_32
   13  A    between atoms: C_23  and  C_46
   14  A    between atoms: C_23  and  C_53
   15  A    between atoms: C_24  and  N_52
   16  A    between atoms: N_28  and  C_43
   17  A    between atoms: C_45  and  C_47
   18  A    between atoms: C_48  and  N_52
   19  A    between atoms: C_49  and  O_51
                            x       y       z     vdW  Elec       q    Type
                         _______ _______ _______ _____ _____    ______ ____

>  <TORSDO>
F 19

$$$$
