=
 OpenBabel10222418193D

 34 39  0  0  1  0  0  0  0  0999 V2000
  187.4480  178.1820  141.7640 N   0  0  0  0  0  0  0  0  0  0  0  0
  189.0480  177.8910  139.8840 C   0  0  0  0  0  0  0  0  0  0  0  0
  190.6440  176.9350  141.0270 N   0  0  0  0  0  2  0  0  0  0  0  0
  187.2750  177.9590  143.1070 C   0  0  0  0  0  0  0  0  0  0  0  0
  188.6120  177.8050  141.1810 C   0  0  0  0  0  0  0  0  0  0  0  0
  189.5120  176.9550  143.2260 C   0  0  0  0  0  0  0  0  0  0  0  0
  190.2890  177.3550  139.8130 N   0  0  0  0  0  0  0  0  0  0  0  0
  188.3100  177.3340  143.8530 C   0  0  0  0  0  3  0  0  0  0  0  0
  189.6220  177.2080  141.8630 C   0  0  0  0  0  0  0  0  0  0  0  0
  183.6630  179.2080  143.7470 C   0  0  2  0  0  3  0  0  0  0  0  0
  184.6650  178.7640  141.6980 N   0  0  0  0  0  0  0  0  0  0  0  0
  182.6450  178.1370  140.4710 C   0  0  0  0  0  3  0  0  0  0  0  0
  184.9920  179.2330  143.0480 C   0  0  2  0  0  3  0  0  0  0  0  0
  183.5610  178.9960  145.1930 C   0  0  0  0  0  3  0  0  0  0  0  0
  186.0070  178.3550  143.7620 C   0  0  0  0  0  0  0  0  0  0  0  0
  185.8350  178.0750  145.0710 C   0  0  0  0  0  3  0  0  0  0  0  0
  183.3790  178.6780  141.6140 C   0  0  0  0  0  0  0  0  0  0  0  0
  180.5140  178.1490  141.8310 C   0  0  0  0  0  2  0  0  0  0  0  0
  184.6160  178.4690  145.8200 C   0  0  0  0  0  3  0  0  0  0  0  0
  181.3090  178.5960  143.0340 C   0  0  0  0  0  0  0  0  0  0  0  0
  182.7220  178.9430  142.8590 C   0  0  1  0  0  3  0  0  0  0  0  0
  180.7500  178.6920  144.1580 O   0  0  0  0  0  0  0  0  0  0  0  0
  181.3290  177.8910  140.5690 C   0  0  0  0  0  0  0  0  0  0  0  0
  180.0950  176.9470  138.4930 N   0  0  0  0  0  0  0  0  0  0  0  0
  180.6460  177.3680  139.4200 C   0  0  0  0  0  0  0  0  0  0  0  0
  190.5950  176.2780  143.9940 C   0  0  0  0  0  2  0  0  0  0  0  0
  191.2960  177.2780  144.8960 C   0  0  0  0  0  2  0  0  0  0  0  0
  192.2710  176.3030  146.8080 O   0  0  0  0  0  0  0  0  0  0  0  0
  190.0220  176.9120  147.1090 C   0  0  0  0  0  1  0  0  0  0  0  0
  191.2750  176.8020  146.3100 C   0  0  0  0  0  0  0  0  0  0  0  0
  188.3510  178.4350  138.7610 N   0  0  0  0  0  2  0  0  0  0  0  0
  186.0760  178.1680  137.9820 C   0  0  0  0  0  2  0  0  0  0  0  0
  186.9460  178.5000  136.7890 C   0  0  0  0  0  2  0  0  0  0  0  0
  187.4900  177.6340  137.9060 C   0  0  0  0  0  3  0  0  0  0  0  0
  1  4  1  0  0  0  0
  2  5  1  0  0  0  0
  3  9  1  0  0  0  0
  4 15  1  0  0  0  0
  4  8  2  0  0  0  0
  5  1  2  0  0  0  0
  5  9  1  0  0  0  0
  6  8  1  0  0  0  0
  6 26  1  0  0  0  0
  7  2  2  0  0  0  0
  7  3  1  0  0  0  0
  9  6  2  0  0  0  0
 10 14  1  1  0  0  0
 12 23  2  0  0  0  0
 12 17  1  0  0  0  0
 13 11  1  6  0  0  0
 13 10  1  0  0  0  0
 13 15  1  0  0  0  0
 14 19  2  0  0  0  0
 15 16  2  0  0  0  0
 16 19  1  0  0  0  0
 17 11  2  0  0  0  0
 18 20  1  0  0  0  0
 20 22  2  0  0  0  0
 21 17  1  1  0  0  0
 21 20  1  0  0  0  0
 21 10  1  0  0  0  0
 23 18  1  0  0  0  0
 24 25  3  0  0  0  0
 25 23  1  0  0  0  0
 26 27  1  0  0  0  0
 27 30  1  0  0  0  0
 30 28  2  0  0  0  0
 30 29  1  0  0  0  0
 31  2  1  0  0  0  0
 33 34  1  0  0  0  0
 33 32  1  0  0  0  0
 34 32  1  0  0  0  0
 34 31  1  0  0  0  0
M  END
>  <MODEL>
1

>  <REMARK>
 VINA RESULT:      -9.7      0.000      0.000
  Name = 
  7 active torsions:
  status: ('A' for Active; 'I' for Inactive)
    1  A    between atoms: C_7  and  N_27
    2  A    between atoms: C_8  and  C_20
    3  A    between atoms: C_12  and  C_16
    4  A    between atoms: C_12  and  C_26
    5  A    between atoms: C_16  and  C_33
    6  A    between atoms: C_19  and  C_34
    7  A    between atoms: C_24  and  N_27
                            x       y       z     vdW  Elec       q    Type
                         _______ _______ _______ _____ _____    ______ ____

>  <TORSDO>
F 7

$$$$
=
 OpenBabel10222418193D

 34 39  0  0  1  0  0  0  0  0999 V2000
  186.3520  178.4430  141.4590 N   0  0  0  0  0  0  0  0  0  0  0  0
  188.5720  178.2540  140.3570 C   0  0  0  0  0  0  0  0  0  0  0  0
  189.6910  177.5840  142.1080 N   0  0  0  0  0  2  0  0  0  0  0  0
  185.6990  178.2790  142.6550 C   0  0  0  0  0  0  0  0  0  0  0  0
  187.6810  178.1880  141.3980 C   0  0  0  0  0  0  0  0  0  0  0  0
  187.8050  177.5860  143.7070 C   0  0  0  0  0  0  0  0  0  0  0  0
  189.7910  177.8820  140.8120 N   0  0  0  0  0  0  0  0  0  0  0  0
  186.4230  177.8400  143.7950 C   0  0  0  0  0  3  0  0  0  0  0  0
  188.4060  177.7700  142.4660 C   0  0  0  0  0  0  0  0  0  0  0  0
  181.9390  178.6570  141.7940 C   0  0  2  0  0  3  0  0  0  0  0  0
  183.6090  177.7310  140.4690 N   0  0  0  0  0  0  0  0  0  0  0  0
  182.2110  176.1550  139.2280 C   0  0  0  0  0  3  0  0  0  0  0  0
  183.4060  178.7620  141.4910 C   0  0  2  0  0  3  0  0  0  0  0  0
  181.4000  179.0110  143.1090 C   0  0  0  0  0  3  0  0  0  0  0  0
  184.2440  178.5430  142.7420 C   0  0  0  0  0  0  0  0  0  0  0  0
  183.6940  178.7640  143.9540 C   0  0  0  0  0  3  0  0  0  0  0  0
  182.4470  177.2770  140.1350 C   0  0  0  0  0  0  0  0  0  0  0  0
  179.7720  176.1260  139.8940 C   0  0  0  0  0  2  0  0  0  0  0  0
  182.2540  179.0770  144.1330 C   0  0  0  0  0  3  0  0  0  0  0  0
  180.0590  177.2060  140.9100 C   0  0  0  0  0  0  0  0  0  0  0  0
  181.3880  177.8220  140.9310 C   0  0  1  0  0  3  0  0  0  0  0  0
  179.1550  177.5810  141.7020 O   0  0  0  0  0  0  0  0  0  0  0  0
  180.9830  175.6230  139.1170 C   0  0  0  0  0  0  0  0  0  0  0  0
  180.6420  173.6460  137.4740 N   0  0  0  0  0  0  0  0  0  0  0  0
  180.7940  174.5280  138.2080 C   0  0  0  0  0  0  0  0  0  0  0  0
  188.5710  177.1030  144.8910 C   0  0  0  0  0  2  0  0  0  0  0  0
  187.8340  177.4610  146.1690 C   0  0  0  0  0  2  0  0  0  0  0  0
  189.7070  176.5990  147.3110 O   0  0  0  0  0  0  0  0  0  0  0  0
  188.4790  178.1580  148.5670 C   0  0  0  0  0  1  0  0  0  0  0  0
  188.7500  177.3560  147.3420 C   0  0  0  0  0  0  0  0  0  0  0  0
  188.3100  178.6340  139.0040 N   0  0  0  0  0  2  0  0  0  0  0  0
  186.2660  178.1120  137.8200 C   0  0  0  0  0  2  0  0  0  0  0  0
  187.3110  178.5120  136.8010 C   0  0  0  0  0  2  0  0  0  0  0  0
  187.7150  177.7300  138.0340 C   0  0  0  0  0  3  0  0  0  0  0  0
  1  4  1  0  0  0  0
  2  7  2  0  0  0  0
  2  5  1  0  0  0  0
  3  9  1  0  0  0  0
  4 15  1  0  0  0  0
  4  8  2  0  0  0  0
  5  1  2  0  0  0  0
  5  9  1  0  0  0  0
  6  8  1  0  0  0  0
  6 26  1  0  0  0  0
  7  3  1  0  0  0  0
  9  6  2  0  0  0  0
 10 14  1  1  0  0  0
 12 17  1  0  0  0  0
 13 11  1  6  0  0  0
 13 10  1  0  0  0  0
 13 15  1  0  0  0  0
 14 19  2  0  0  0  0
 15 16  2  0  0  0  0
 16 19  1  0  0  0  0
 17 11  2  0  0  0  0
 18 20  1  0  0  0  0
 20 21  1  0  0  0  0
 20 22  2  0  0  0  0
 21 17  1  1  0  0  0
 21 10  1  0  0  0  0
 23 12  2  0  0  0  0
 23 18  1  0  0  0  0
 24 25  3  0  0  0  0
 25 23  1  0  0  0  0
 26 27  1  0  0  0  0
 27 30  1  0  0  0  0
 28 30  2  0  0  0  0
 30 29  1  0  0  0  0
 31  2  1  0  0  0  0
 32 34  1  0  0  0  0
 33 32  1  0  0  0  0
 33 34  1  0  0  0  0
 34 31  1  0  0  0  0
M  END
>  <MODEL>
2

>  <REMARK>
 VINA RESULT:      -9.4      1.591      2.280
  Name = 
  7 active torsions:
  status: ('A' for Active; 'I' for Inactive)
    1  A    between atoms: C_7  and  N_27
    2  A    between atoms: C_8  and  C_20
    3  A    between atoms: C_12  and  C_16
    4  A    between atoms: C_12  and  C_26
    5  A    between atoms: C_16  and  C_33
    6  A    between atoms: C_19  and  C_34
    7  A    between atoms: C_24  and  N_27
                            x       y       z     vdW  Elec       q    Type
                         _______ _______ _______ _____ _____    ______ ____

>  <TORSDO>
F 7

$$$$
=
 OpenBabel10222418193D

 34 39  0  0  1  0  0  0  0  0999 V2000
  185.5280  178.3120  140.1880 N   0  0  0  0  0  0  0  0  0  0  0  0
  185.3200  178.0460  137.7250 C   0  0  0  0  0  0  0  0  0  0  0  0
  187.4550  177.9660  137.2760 N   0  0  0  0  0  2  0  0  0  0  0  0
  186.4370  178.4080  141.2120 C   0  0  0  0  0  0  0  0  0  0  0  0
  185.9830  178.1730  138.9190 C   0  0  0  0  0  0  0  0  0  0  0  0
  188.2740  178.2120  139.5970 C   0  0  0  0  0  0  0  0  0  0  0  0
  186.2360  177.9210  136.7380 N   0  0  0  0  0  0  0  0  0  0  0  0
  187.8270  178.3530  140.9240 C   0  0  0  0  0  3  0  0  0  0  0  0
  187.3020  178.1190  138.6060 C   0  0  0  0  0  0  0  0  0  0  0  0
  185.9560  177.9600  145.0320 C   0  0  2  0  0  3  0  0  0  0  0  0
  187.5920  177.0010  143.6880 N   0  0  0  0  0  0  0  0  0  0  0  0
  189.3420  176.8070  145.3850 C   0  0  0  0  0  3  0  0  0  0  0  0
  186.2000  177.4570  143.6370 C   0  0  2  0  0  3  0  0  0  0  0  0
  184.9890  179.0260  145.3040 C   0  0  0  0  0  3  0  0  0  0  0  0
  185.9610  178.5510  142.6080 C   0  0  0  0  0  0  0  0  0  0  0  0
  185.1550  179.5870  142.9180 C   0  0  0  0  0  3  0  0  0  0  0  0
  187.9810  177.0640  144.9180 C   0  0  0  0  0  0  0  0  0  0  0  0
  188.7350  177.7200  147.6640 C   0  0  0  0  0  2  0  0  0  0  0  0
  184.5990  179.7870  144.2790 C   0  0  0  0  0  3  0  0  0  0  0  0
  187.3710  178.0850  147.1300 C   0  0  0  0  0  0  0  0  0  0  0  0
  187.0000  177.6520  145.7810 C   0  0  1  0  0  3  0  0  0  0  0  0
  186.5640  178.7260  147.8530 O   0  0  0  0  0  0  0  0  0  0  0  0
  189.6920  177.1100  146.6450 C   0  0  0  0  0  0  0  0  0  0  0  0
  192.1210  176.6120  147.4030 N   0  0  0  0  0  0  0  0  0  0  0  0
  191.0360  176.8330  147.0650 C   0  0  0  0  0  0  0  0  0  0  0  0
  189.7290  178.1300  139.2840 C   0  0  0  0  0  2  0  0  0  0  0  0
  190.3450  176.9300  139.9820 C   0  0  0  0  0  2  0  0  0  0  0  0
  192.6110  177.5020  140.2880 O   0  0  0  0  0  0  0  0  0  0  0  0
  191.3510  177.5680  142.2690 C   0  0  0  0  0  1  0  0  0  0  0  0
  191.5150  177.3530  140.8040 C   0  0  0  0  0  0  0  0  0  0  0  0
  183.9070  178.0320  137.5070 N   0  0  0  0  0  2  0  0  0  0  0  0
  182.0950  177.0380  138.7650 C   0  0  0  0  0  2  0  0  0  0  0  0
  181.6570  177.1540  137.3210 C   0  0  0  0  0  2  0  0  0  0  0  0
  183.1000  176.8320  137.6510 C   0  0  0  0  0  3  0  0  0  0  0  0
  1  4  1  0  0  0  0
  2  5  1  0  0  0  0
  3  9  1  0  0  0  0
  4 15  1  0  0  0  0
  5  1  2  0  0  0  0
  6  8  1  0  0  0  0
  7  3  1  0  0  0  0
  7  2  2  0  0  0  0
  8  4  2  0  0  0  0
  9  5  1  0  0  0  0
  9  6  2  0  0  0  0
 10 14  1  6  0  0  0
 10 21  1  0  0  0  0
 11 17  2  0  0  0  0
 12 23  2  0  0  0  0
 13 15  1  6  0  0  0
 13 11  1  0  0  0  0
 13 10  1  0  0  0  0
 15 16  2  0  0  0  0
 16 19  1  0  0  0  0
 17 12  1  0  0  0  0
 19 14  2  0  0  0  0
 20 18  1  0  0  0  0
 20 22  2  0  0  0  0
 21 17  1  6  0  0  0
 21 20  1  0  0  0  0
 23 25  1  0  0  0  0
 23 18  1  0  0  0  0
 25 24  3  0  0  0  0
 26  6  1  0  0  0  0
 26 27  1  0  0  0  0
 27 30  1  0  0  0  0
 28 30  2  0  0  0  0
 30 29  1  0  0  0  0
 31 34  1  0  0  0  0
 31  2  1  0  0  0  0
 33 34  1  0  0  0  0
 33 32  1  0  0  0  0
 34 32  1  0  0  0  0
M  END
>  <MODEL>
3

>  <REMARK>
 VINA RESULT:      -9.1      2.596      6.079
  Name = 
  7 active torsions:
  status: ('A' for Active; 'I' for Inactive)
    1  A    between atoms: C_7  and  N_27
    2  A    between atoms: C_8  and  C_20
    3  A    between atoms: C_12  and  C_16
    4  A    between atoms: C_12  and  C_26
    5  A    between atoms: C_16  and  C_33
    6  A    between atoms: C_19  and  C_34
    7  A    between atoms: C_24  and  N_27
                            x       y       z     vdW  Elec       q    Type
                         _______ _______ _______ _____ _____    ______ ____

>  <TORSDO>
F 7

$$$$
=
 OpenBabel10222418193D

 34 39  0  0  1  0  0  0  0  0999 V2000
  188.2630  177.5310  143.5640 N   0  0  0  0  0  0  0  0  0  0  0  0
  190.5840  176.6780  143.3170 C   0  0  0  0  0  0  0  0  0  0  0  0
  190.8190  177.1310  141.1940 N   0  0  0  0  0  2  0  0  0  0  0  0
  187.2270  178.1180  142.8810 C   0  0  0  0  0  0  0  0  0  0  0  0
  189.4070  177.2430  142.8980 C   0  0  0  0  0  0  0  0  0  0  0  0
  188.5740  178.1040  140.8290 C   0  0  0  0  0  0  0  0  0  0  0  0
  191.4300  176.6200  142.2620 N   0  0  0  0  0  0  0  0  0  0  0  0
  187.3770  178.4170  141.5000 C   0  0  0  0  0  3  0  0  0  0  0  0
  189.5850  177.5120  141.5800 C   0  0  0  0  0  0  0  0  0  0  0  0
  183.6000  179.2220  143.6860 C   0  0  2  0  0  3  0  0  0  0  0  0
  184.5430  178.8760  141.5900 N   0  0  0  0  0  0  0  0  0  0  0  0
  182.5030  178.2200  140.4130 C   0  0  0  0  0  3  0  0  0  0  0  0
  184.9020  179.3140  142.9420 C   0  0  2  0  0  3  0  0  0  0  0  0
  183.5570  178.9620  145.1260 C   0  0  0  0  0  3  0  0  0  0  0  0
  185.9700  178.4490  143.5920 C   0  0  0  0  0  0  0  0  0  0  0  0
  185.8540  178.1230  144.8960 C   0  0  0  0  0  3  0  0  0  0  0  0
  183.2590  178.7490  141.5470 C   0  0  0  0  0  0  0  0  0  0  0  0
  180.4220  178.1160  141.8450 C   0  0  0  0  0  2  0  0  0  0  0  0
  184.6500  178.4520  145.6990 C   0  0  0  0  0  3  0  0  0  0  0  0
  181.2440  178.5520  143.0340 C   0  0  0  0  0  0  0  0  0  0  0  0
  182.6370  178.9520  142.8210 C   0  0  1  0  0  3  0  0  0  0  0  0
  180.7230  178.5940  144.1790 O   0  0  0  0  0  0  0  0  0  0  0  0
  181.2000  177.9250  140.5480 C   0  0  0  0  0  0  0  0  0  0  0  0
  179.9240  177.0050  138.4880 N   0  0  0  0  0  0  0  0  0  0  0  0
  180.4940  177.4150  139.4070 C   0  0  0  0  0  0  0  0  0  0  0  0
  188.7520  178.4340  139.3870 C   0  0  0  0  0  2  0  0  0  0  0  0
  187.9330  177.4830  138.5310 C   0  0  0  0  0  2  0  0  0  0  0  0
  187.2310  179.0980  136.9640 O   0  0  0  0  0  0  0  0  0  0  0  0
  185.4550  177.9600  137.9960 C   0  0  0  0  0  1  0  0  0  0  0  0
  186.9000  178.2380  137.7640 C   0  0  0  0  0  0  0  0  0  0  0  0
  190.9170  176.2220  144.6300 N   0  0  0  0  0  2  0  0  0  0  0  0
  190.3040  176.9490  146.8540 C   0  0  0  0  0  2  0  0  0  0  0  0
  191.6780  176.3180  146.9270 C   0  0  0  0  0  2  0  0  0  0  0  0
  191.2780  177.1250  145.7100 C   0  0  0  0  0  3  0  0  0  0  0  0
  2 31  1  0  0  0  0
  3  9  1  0  0  0  0
  3  7  1  0  0  0  0
  4  1  2  0  0  0  0
  4 15  1  0  0  0  0
  5  2  1  0  0  0  0
  5  1  1  0  0  0  0
  6  8  2  0  0  0  0
  6  9  1  0  0  0  0
  7  2  2  0  0  0  0
  8  4  1  0  0  0  0
  9  5  2  0  0  0  0
 10 14  1  1  0  0  0
 12 23  2  0  0  0  0
 12 17  1  0  0  0  0
 13 11  1  6  0  0  0
 13 15  1  0  0  0  0
 13 10  1  0  0  0  0
 14 19  2  0  0  0  0
 15 16  2  0  0  0  0
 16 19  1  0  0  0  0
 17 11  2  0  0  0  0
 18 20  1  0  0  0  0
 20 22  2  0  0  0  0
 21 17  1  6  0  0  0
 21 20  1  0  0  0  0
 21 10  1  0  0  0  0
 23 18  1  0  0  0  0
 24 25  3  0  0  0  0
 25 23  1  0  0  0  0
 26  6  1  0  0  0  0
 27 26  1  0  0  0  0
 28 30  2  0  0  0  0
 30 29  1  0  0  0  0
 30 27  1  0  0  0  0
 31 34  1  0  0  0  0
 32 33  1  0  0  0  0
 34 32  1  0  0  0  0
 34 33  1  0  0  0  0
M  END
>  <MODEL>
4

>  <REMARK>
 VINA RESULT:      -9.1      2.157      4.874
  Name = 
  7 active torsions:
  status: ('A' for Active; 'I' for Inactive)
    1  A    between atoms: C_7  and  N_27
    2  A    between atoms: C_8  and  C_20
    3  A    between atoms: C_12  and  C_16
    4  A    between atoms: C_12  and  C_26
    5  A    between atoms: C_16  and  C_33
    6  A    between atoms: C_19  and  C_34
    7  A    between atoms: C_24  and  N_27
                            x       y       z     vdW  Elec       q    Type
                         _______ _______ _______ _____ _____    ______ ____

>  <TORSDO>
F 7

$$$$
=
 OpenBabel10222418193D

 34 39  0  0  1  0  0  0  0  0999 V2000
  187.2720  178.4670  141.2430 N   0  0  0  0  0  0  0  0  0  0  0  0
  188.6910  178.3390  139.2060 C   0  0  0  0  0  0  0  0  0  0  0  0
  187.0780  178.4570  137.7400 N   0  0  0  0  0  2  0  0  0  0  0  0
  185.9740  178.5770  141.6760 C   0  0  0  0  0  0  0  0  0  0  0  0
  187.5180  178.4310  139.9120 C   0  0  0  0  0  0  0  0  0  0  0  0
  185.2030  178.6130  139.3460 C   0  0  0  0  0  0  0  0  0  0  0  0
  188.3990  178.3570  137.8850 N   0  0  0  0  0  0  0  0  0  0  0  0
  184.9220  178.6570  140.7250 C   0  0  0  0  0  3  0  0  0  0  0  0
  186.5390  178.5030  138.9740 C   0  0  0  0  0  0  0  0  0  0  0  0
  185.9960  177.8900  145.4900 C   0  0  2  0  0  3  0  0  0  0  0  0
  187.4510  177.0400  143.8900 N   0  0  0  0  0  0  0  0  0  0  0  0
  189.4080  176.7680  145.3310 C   0  0  0  0  0  3  0  0  0  0  0  0
  186.0610  177.4770  144.0480 C   0  0  2  0  0  3  0  0  0  0  0  0
  185.0660  178.9240  145.9510 C   0  0  0  0  0  3  0  0  0  0  0  0
  185.6830  178.6270  143.1280 C   0  0  0  0  0  0  0  0  0  0  0  0
  184.9180  179.6310  143.6030 C   0  0  0  0  0  3  0  0  0  0  0  0
  187.9950  177.0330  145.0610 C   0  0  0  0  0  0  0  0  0  0  0  0
  189.0960  177.5320  147.7210 C   0  0  0  0  0  2  0  0  0  0  0  0
  184.5410  179.7400  145.0340 C   0  0  0  0  0  3  0  0  0  0  0  0
  187.6710  177.9090  147.3920 C   0  0  0  0  0  0  0  0  0  0  0  0
  187.1310  177.5530  146.0780 C   0  0  1  0  0  3  0  0  0  0  0  0
  186.9610  178.4940  148.2510 O   0  0  0  0  0  0  0  0  0  0  0  0
  189.9160  176.9990  146.5520 C   0  0  0  0  0  0  0  0  0  0  0  0
  192.4260  176.4910  146.9550 N   0  0  0  0  0  0  0  0  0  0  0  0
  191.3060  176.7180  146.7760 C   0  0  0  0  0  0  0  0  0  0  0  0
  184.1100  178.7190  138.3380 C   0  0  0  0  0  2  0  0  0  0  0  0
  182.8740  177.9890  138.8330 C   0  0  0  0  0  2  0  0  0  0  0  0
  182.6790  175.7280  139.4710 O   0  0  0  0  0  0  0  0  0  0  0  0
  183.5930  176.0220  137.3270 C   0  0  0  0  0  1  0  0  0  0  0  0
  183.0150  176.5210  138.6060 C   0  0  0  0  0  0  0  0  0  0  0  0
  190.0190  178.2480  139.7270 N   0  0  0  0  0  2  0  0  0  0  0  0
  191.8920  177.3690  140.9810 C   0  0  0  0  0  2  0  0  0  0  0  0
  190.7020  177.4570  141.9120 C   0  0  0  0  0  2  0  0  0  0  0  0
  190.5000  177.0870  140.4570 C   0  0  0  0  0  3  0  0  0  0  0  0
  1  4  1  0  0  0  0
  2 31  1  0  0  0  0
  2  5  1  0  0  0  0
  3  7  1  0  0  0  0
  3  9  1  0  0  0  0
  4 15  1  0  0  0  0
  5  1  2  0  0  0  0
  6  8  1  0  0  0  0
  7  2  2  0  0  0  0
  8  4  2  0  0  0  0
  9  6  2  0  0  0  0
  9  5  1  0  0  0  0
 10 14  1  6  0  0  0
 10 21  1  0  0  0  0
 11 13  1  0  0  0  0
 11 17  2  0  0  0  0
 12 23  2  0  0  0  0
 13 15  1  6  0  0  0
 13 10  1  0  0  0  0
 15 16  2  0  0  0  0
 16 19  1  0  0  0  0
 17 12  1  0  0  0  0
 19 14  2  0  0  0  0
 20 18  1  0  0  0  0
 20 22  2  0  0  0  0
 21 17  1  6  0  0  0
 21 20  1  0  0  0  0
 23 25  1  0  0  0  0
 23 18  1  0  0  0  0
 25 24  3  0  0  0  0
 26 27  1  0  0  0  0
 26  6  1  0  0  0  0
 29 30  1  0  0  0  0
 30 27  1  0  0  0  0
 30 28  2  0  0  0  0
 31 34  1  0  0  0  0
 32 33  1  0  0  0  0
 34 32  1  0  0  0  0
 34 33  1  0  0  0  0
M  END
>  <MODEL>
5

>  <REMARK>
 VINA RESULT:      -8.9      2.548      7.140
  Name = 
  7 active torsions:
  status: ('A' for Active; 'I' for Inactive)
    1  A    between atoms: C_7  and  N_27
    2  A    between atoms: C_8  and  C_20
    3  A    between atoms: C_12  and  C_16
    4  A    between atoms: C_12  and  C_26
    5  A    between atoms: C_16  and  C_33
    6  A    between atoms: C_19  and  C_34
    7  A    between atoms: C_24  and  N_27
                            x       y       z     vdW  Elec       q    Type
                         _______ _______ _______ _____ _____    ______ ____

>  <TORSDO>
F 7

$$$$
=
 OpenBabel10222418193D

 34 39  0  0  1  0  0  0  0  0999 V2000
  186.8730  177.8340  143.5450 N   0  0  0  0  0  0  0  0  0  0  0  0
  189.1920  177.1730  144.1490 C   0  0  0  0  0  0  0  0  0  0  0  0
  190.0950  177.5190  142.1920 N   0  0  0  0  0  2  0  0  0  0  0  0
  186.0910  178.2880  142.5120 C   0  0  0  0  0  0  0  0  0  0  0  0
  188.1900  177.6080  143.3200 C   0  0  0  0  0  0  0  0  0  0  0  0
  188.0460  178.2710  141.0280 C   0  0  0  0  0  0  0  0  0  0  0  0
  190.3440  177.1270  143.4410 N   0  0  0  0  0  0  0  0  0  0  0  0
  186.6760  178.5170  141.2380 C   0  0  0  0  0  3  0  0  0  0  0  0
  188.7820  177.8140  142.1160 C   0  0  0  0  0  0  0  0  0  0  0  0
  182.2750  178.7280  142.0000 C   0  0  2  0  0  3  0  0  0  0  0  0
  183.8190  177.8780  140.4850 N   0  0  0  0  0  0  0  0  0  0  0  0
  182.3080  176.3830  139.2760 C   0  0  0  0  0  3  0  0  0  0  0  0
  183.7120  178.8460  141.5800 C   0  0  2  0  0  3  0  0  0  0  0  0
  181.8530  179.0030  143.3750 C   0  0  0  0  0  3  0  0  0  0  0  0
  184.6510  178.5500  142.7390 C   0  0  0  0  0  0  0  0  0  0  0  0
  184.2080  178.7000  144.0040 C   0  0  0  0  0  3  0  0  0  0  0  0
  182.6290  177.4470  140.2250 C   0  0  0  0  0  0  0  0  0  0  0  0
  179.9340  176.3200  140.1450 C   0  0  0  0  0  2  0  0  0  0  0  0
  182.7920  179.0060  144.3250 C   0  0  0  0  0  3  0  0  0  0  0  0
  180.3150  177.3360  141.1960 C   0  0  0  0  0  0  0  0  0  0  0  0
  181.6460  177.9460  141.1390 C   0  0  1  0  0  3  0  0  0  0  0  0
  179.4850  177.6660  142.0820 O   0  0  0  0  0  0  0  0  0  0  0  0
  181.0710  175.8610  139.2390 C   0  0  0  0  0  0  0  0  0  0  0  0
  180.5740  173.9870  137.5190 N   0  0  0  0  0  0  0  0  0  0  0  0
  180.7970  174.8240  138.2870 C   0  0  0  0  0  0  0  0  0  0  0  0
  188.6750  178.5290  139.7020 C   0  0  0  0  0  2  0  0  0  0  0  0
  187.8800  177.8430  138.6050 C   0  0  0  0  0  2  0  0  0  0  0  0
  187.5720  179.3770  136.8420 O   0  0  0  0  0  0  0  0  0  0  0  0
  189.3190  177.8530  136.4640 C   0  0  0  0  0  1  0  0  0  0  0  0
  188.2140  178.4350  137.2770 C   0  0  0  0  0  0  0  0  0  0  0  0
  189.0930  176.8250  145.5320 N   0  0  0  0  0  2  0  0  0  0  0  0
  187.5830  177.8710  147.1060 C   0  0  0  0  0  2  0  0  0  0  0  0
  188.6470  177.1340  147.8930 C   0  0  0  0  0  2  0  0  0  0  0  0
  189.0050  177.8190  146.5890 C   0  0  0  0  0  3  0  0  0  0  0  0
  2 31  1  0  0  0  0
  3  7  1  0  0  0  0
  4 15  1  0  0  0  0
  4  1  2  0  0  0  0
  5  1  1  0  0  0  0
  5  2  1  0  0  0  0
  6  8  2  0  0  0  0
  6  9  1  0  0  0  0
  7  2  2  0  0  0  0
  8  4  1  0  0  0  0
  9  3  1  0  0  0  0
  9  5  2  0  0  0  0
 10 14  1  1  0  0  0
 12 17  1  0  0  0  0
 13 11  1  6  0  0  0
 13 10  1  0  0  0  0
 13 15  1  0  0  0  0
 14 19  2  0  0  0  0
 15 16  2  0  0  0  0
 16 19  1  0  0  0  0
 17 11  2  0  0  0  0
 18 20  1  0  0  0  0
 20 22  2  0  0  0  0
 21 17  1  1  0  0  0
 21 20  1  0  0  0  0
 21 10  1  0  0  0  0
 23 12  2  0  0  0  0
 23 18  1  0  0  0  0
 24 25  3  0  0  0  0
 25 23  1  0  0  0  0
 26  6  1  0  0  0  0
 27 26  1  0  0  0  0
 28 30  2  0  0  0  0
 29 30  1  0  0  0  0
 30 27  1  0  0  0  0
 31 34  1  0  0  0  0
 32 33  1  0  0  0  0
 34 32  1  0  0  0  0
 34 33  1  0  0  0  0
M  END
>  <MODEL>
6

>  <REMARK>
 VINA RESULT:      -8.6      2.559      5.178
  Name = 
  7 active torsions:
  status: ('A' for Active; 'I' for Inactive)
    1  A    between atoms: C_7  and  N_27
    2  A    between atoms: C_8  and  C_20
    3  A    between atoms: C_12  and  C_16
    4  A    between atoms: C_12  and  C_26
    5  A    between atoms: C_16  and  C_33
    6  A    between atoms: C_19  and  C_34
    7  A    between atoms: C_24  and  N_27
                            x       y       z     vdW  Elec       q    Type
                         _______ _______ _______ _____ _____    ______ ____

>  <TORSDO>
F 7

$$$$
=
 OpenBabel10222418193D

 34 39  0  0  1  0  0  0  0  0999 V2000
  184.9720  178.6090  141.5980 N   0  0  0  0  0  0  0  0  0  0  0  0
  184.3810  178.9860  139.2140 C   0  0  0  0  0  0  0  0  0  0  0  0
  182.2130  178.9930  139.4660 N   0  0  0  0  0  2  0  0  0  0  0  0
  184.4380  178.4310  142.8500 C   0  0  0  0  0  0  0  0  0  0  0  0
  184.1350  178.7810  140.5470 C   0  0  0  0  0  0  0  0  0  0  0  0
  182.1780  178.6140  141.9090 C   0  0  0  0  0  0  0  0  0  0  0  0
  183.1960  179.1130  138.5730 N   0  0  0  0  0  0  0  0  0  0  0  0
  183.0270  178.4380  143.0180 C   0  0  0  0  0  3  0  0  0  0  0  0
  182.7830  178.7900  140.6690 C   0  0  0  0  0  0  0  0  0  0  0  0
  187.3700  177.3510  145.1430 C   0  0  2  0  0  3  0  0  0  0  0  0
  187.1810  177.0460  142.8470 N   0  0  0  0  0  0  0  0  0  0  0  0
  189.5670  177.0810  142.3110 C   0  0  0  0  0  3  0  0  0  0  0  0
  186.3570  177.1270  144.0560 C   0  0  2  0  0  3  0  0  0  0  0  0
  187.0320  178.0810  146.3670 C   0  0  0  0  0  3  0  0  0  0  0  0
  185.3350  178.2520  144.0150 C   0  0  0  0  0  0  0  0  0  0  0  0
  185.1180  178.9900  145.1240 C   0  0  0  0  0  3  0  0  0  0  0  0
  188.4190  177.0370  143.2150 C   0  0  0  0  0  0  0  0  0  0  0  0
  191.1040  177.4820  144.2770 C   0  0  0  0  0  2  0  0  0  0  0  0
  185.9400  178.8490  146.3520 C   0  0  0  0  0  3  0  0  0  0  0  0
  189.8960  177.5500  145.1810 C   0  0  0  0  0  0  0  0  0  0  0  0
  188.5800  177.2250  144.6260 C   0  0  1  0  0  3  0  0  0  0  0  0
  190.0340  177.8530  146.3940 O   0  0  0  0  0  0  0  0  0  0  0  0
  190.8010  177.2880  142.7960 C   0  0  0  0  0  0  0  0  0  0  0  0
  192.7880  177.3370  141.1310 N   0  0  0  0  0  0  0  0  0  0  0  0
  191.9000  177.3160  141.8740 C   0  0  0  0  0  0  0  0  0  0  0  0
  180.6980  178.6460  142.0770 C   0  0  0  0  0  2  0  0  0  0  0  0
  180.2280  180.0740  142.2880 C   0  0  0  0  0  2  0  0  0  0  0  0
  178.9920  181.6680  141.0690 O   0  0  0  0  0  0  0  0  0  0  0  0
  178.9500  179.5220  140.1160 C   0  0  0  0  0  1  0  0  0  0  0  0
  179.3700  180.5110  141.1480 C   0  0  0  0  0  0  0  0  0  0  0  0
  185.6510  179.0710  138.5620 N   0  0  0  0  0  2  0  0  0  0  0  0
  186.9650  178.5160  136.6080 C   0  0  0  0  0  2  0  0  0  0  0  0
  187.7340  178.0730  137.8340 C   0  0  0  0  0  2  0  0  0  0  0  0
  186.2230  177.9680  137.8080 C   0  0  0  0  0  3  0  0  0  0  0  0
  1  4  1  0  0  0  0
  2  5  1  0  0  0  0
  3  9  1  0  0  0  0
  4  8  2  0  0  0  0
  4 15  1  0  0  0  0
  5  9  1  0  0  0  0
  5  1  2  0  0  0  0
  6 26  1  0  0  0  0
  6  8  1  0  0  0  0
  7  2  2  0  0  0  0
  7  3  1  0  0  0  0
  9  6  2  0  0  0  0
 10 14  1  6  0  0  0
 11 17  2  0  0  0  0
 12 23  2  0  0  0  0
 12 17  1  0  0  0  0
 13 11  1  6  0  0  0
 13 10  1  0  0  0  0
 15 13  1  0  0  0  0
 15 16  2  0  0  0  0
 16 19  1  0  0  0  0
 18 20  1  0  0  0  0
 19 14  2  0  0  0  0
 20 22  2  0  0  0  0
 21 17  1  6  0  0  0
 21 10  1  0  0  0  0
 21 20  1  0  0  0  0
 23 18  1  0  0  0  0
 24 25  3  0  0  0  0
 25 23  1  0  0  0  0
 26 27  1  0  0  0  0
 28 30  2  0  0  0  0
 29 30  1  0  0  0  0
 30 27  1  0  0  0  0
 31  2  1  0  0  0  0
 32 34  1  0  0  0  0
 32 33  1  0  0  0  0
 34 33  1  0  0  0  0
 34 31  1  0  0  0  0
M  END
>  <MODEL>
7

>  <REMARK>
 VINA RESULT:      -8.4      1.857      7.770
  Name = 
  7 active torsions:
  status: ('A' for Active; 'I' for Inactive)
    1  A    between atoms: C_7  and  N_27
    2  A    between atoms: C_8  and  C_20
    3  A    between atoms: C_12  and  C_16
    4  A    between atoms: C_12  and  C_26
    5  A    between atoms: C_16  and  C_33
    6  A    between atoms: C_19  and  C_34
    7  A    between atoms: C_24  and  N_27
                            x       y       z     vdW  Elec       q    Type
                         _______ _______ _______ _____ _____    ______ ____

>  <TORSDO>
F 7

$$$$
=
 OpenBabel10222418193D

 34 39  0  0  1  0  0  0  0  0999 V2000
  185.0250  178.2390  142.5970 N   0  0  0  0  0  0  0  0  0  0  0  0
  185.7520  178.4890  144.9600 C   0  0  0  0  0  0  0  0  0  0  0  0
  183.8000  178.9960  145.7960 N   0  0  0  0  0  2  0  0  0  0  0  0
  183.9330  178.3070  141.7670 C   0  0  0  0  0  0  0  0  0  0  0  0
  184.8610  178.4930  143.9170 C   0  0  0  0  0  0  0  0  0  0  0  0
  182.5170  178.8990  143.6830 C   0  0  0  0  0  0  0  0  0  0  0  0
  185.0830  178.7980  146.0960 N   0  0  0  0  0  0  0  0  0  0  0  0
  182.6610  178.6340  142.3080 C   0  0  0  0  0  3  0  0  0  0  0  0
  183.6620  178.8110  144.4680 C   0  0  0  0  0  0  0  0  0  0  0  0
  185.3500  178.0370  138.1700 C   0  0  2  0  0  3  0  0  0  0  0  0
  186.4830  178.6840  140.0940 N   0  0  0  0  0  0  0  0  0  0  0  0
  188.7120  177.9220  139.4370 C   0  0  0  0  0  3  0  0  0  0  0  0
  185.1490  178.7260  139.4900 C   0  0  2  0  0  3  0  0  0  0  0  0
  184.2630  177.3100  137.5110 C   0  0  0  0  0  3  0  0  0  0  0  0
  184.0870  178.0240  140.3210 C   0  0  0  0  0  0  0  0  0  0  0  0
  183.1590  177.2630  139.7050 C   0  0  0  0  0  3  0  0  0  0  0  0
  187.3020  178.2300  139.2040 C   0  0  0  0  0  0  0  0  0  0  0  0
  188.8370  176.7790  137.1860 C   0  0  0  0  0  2  0  0  0  0  0  0
  183.2090  176.9610  138.2530 C   0  0  0  0  0  3  0  0  0  0  0  0
  187.3540  177.0020  137.0140 C   0  0  0  0  0  0  0  0  0  0  0  0
  186.6420  177.8170  138.0010 C   0  0  1  0  0  3  0  0  0  0  0  0
  186.7550  176.5150  136.0190 O   0  0  0  0  0  0  0  0  0  0  0  0
  189.4190  177.2530  138.5120 C   0  0  0  0  0  0  0  0  0  0  0  0
  191.9180  176.7580  138.9920 N   0  0  0  0  0  0  0  0  0  0  0  0
  190.8020  176.9800  138.7780 C   0  0  0  0  0  0  0  0  0  0  0  0
  181.1840  179.2200  144.2660 C   0  0  0  0  0  2  0  0  0  0  0  0
  180.1670  178.1720  143.8490 C   0  0  0  0  0  2  0  0  0  0  0  0
  178.9310  177.9310  141.8570 O   0  0  0  0  0  0  0  0  0  0  0  0
  178.9790  180.1340  142.6690 C   0  0  0  0  0  1  0  0  0  0  0  0
  179.3230  178.6860  142.7320 C   0  0  0  0  0  0  0  0  0  0  0  0
  187.1520  178.2040  144.9130 N   0  0  0  0  0  2  0  0  0  0  0  0
  188.0590  176.6440  143.3030 C   0  0  0  0  0  2  0  0  0  0  0  0
  189.1310  176.9330  144.3330 C   0  0  0  0  0  2  0  0  0  0  0  0
  187.6770  176.8580  144.7520 C   0  0  0  0  0  3  0  0  0  0  0  0
  1  5  1  0  0  0  0
  2  7  2  0  0  0  0
  3  7  1  0  0  0  0
  4  8  1  0  0  0  0
  4  1  2  0  0  0  0
  5  9  2  0  0  0  0
  5  2  1  0  0  0  0
  6 26  1  0  0  0  0
  6  9  1  0  0  0  0
  8  6  2  0  0  0  0
  9  3  1  0  0  0  0
 10 14  1  1  0  0  0
 10 13  1  0  0  0  0
 13 11  1  1  0  0  0
 13 15  1  0  0  0  0
 14 19  2  0  0  0  0
 15  4  1  0  0  0  0
 16 15  2  0  0  0  0
 17 12  1  0  0  0  0
 17 11  2  0  0  0  0
 18 23  1  0  0  0  0
 19 16  1  0  0  0  0
 20 18  1  0  0  0  0
 21 20  1  1  0  0  0
 21 10  1  0  0  0  0
 21 17  1  0  0  0  0
 22 20  2  0  0  0  0
 23 25  1  0  0  0  0
 23 12  2  0  0  0  0
 25 24  3  0  0  0  0
 27 26  1  0  0  0  0
 28 30  2  0  0  0  0
 29 30  1  0  0  0  0
 30 27  1  0  0  0  0
 31  2  1  0  0  0  0
 32 33  1  0  0  0  0
 32 34  1  0  0  0  0
 33 34  1  0  0  0  0
 34 31  1  0  0  0  0
M  END
>  <MODEL>
8

>  <REMARK>
 VINA RESULT:      -8.4      2.889      8.042
  Name = 
  7 active torsions:
  status: ('A' for Active; 'I' for Inactive)
    1  A    between atoms: C_7  and  N_27
    2  A    between atoms: C_8  and  C_20
    3  A    between atoms: C_12  and  C_16
    4  A    between atoms: C_12  and  C_26
    5  A    between atoms: C_16  and  C_33
    6  A    between atoms: C_19  and  C_34
    7  A    between atoms: C_24  and  N_27
                            x       y       z     vdW  Elec       q    Type
                         _______ _______ _______ _____ _____    ______ ____

>  <TORSDO>
F 7

$$$$
=
 OpenBabel10222418193D

 34 39  0  0  1  0  0  0  0  0999 V2000
  188.4290  177.8060  141.8850 N   0  0  0  0  0  0  0  0  0  0  0  0
  190.8440  177.3110  141.5700 C   0  0  0  0  0  0  0  0  0  0  0  0
  191.3230  176.9330  143.6670 N   0  0  0  0  0  2  0  0  0  0  0  0
  187.4380  177.9010  142.8310 C   0  0  0  0  0  0  0  0  0  0  0  0
  189.6840  177.4830  142.2810 C   0  0  0  0  0  0  0  0  0  0  0  0
  189.0580  177.3220  144.5820 C   0  0  0  0  0  0  0  0  0  0  0  0
  191.8300  176.9760  142.4350 N   0  0  0  0  0  0  0  0  0  0  0  0
  187.7450  177.6520  144.1960 C   0  0  0  0  0  3  0  0  0  0  0  0
  190.0140  177.2420  143.5750 C   0  0  0  0  0  0  0  0  0  0  0  0
  184.3430  178.9750  140.7620 C   0  0  2  0  0  3  0  0  0  0  0  0
  186.4890  178.5450  139.9800 N   0  0  0  0  0  0  0  0  0  0  0  0
  185.8790  177.7940  137.7340 C   0  0  0  0  0  3  0  0  0  0  0  0
  185.7880  179.0550  141.1620 C   0  0  2  0  0  3  0  0  0  0  0  0
  183.2810  178.7840  141.7530 C   0  0  0  0  0  3  0  0  0  0  0  0
  186.0570  178.2430  142.4190 C   0  0  0  0  0  0  0  0  0  0  0  0
  185.0410  177.9780  143.2660 C   0  0  0  0  0  3  0  0  0  0  0  0
  185.6140  178.3920  139.0420 C   0  0  0  0  0  0  0  0  0  0  0  0
  183.3960  177.7210  137.2620 C   0  0  0  0  0  2  0  0  0  0  0  0
  183.6310  178.3230  142.9570 C   0  0  0  0  0  3  0  0  0  0  0  0
  183.1370  178.2300  138.6600 C   0  0  0  0  0  0  0  0  0  0  0  0
  184.2750  178.6460  139.4830 C   0  0  1  0  0  3  0  0  0  0  0  0
  181.9570  178.3180  139.0900 O   0  0  0  0  0  0  0  0  0  0  0  0
  184.8610  177.4820  136.9160 C   0  0  0  0  0  0  0  0  0  0  0  0
  185.4130  176.4380  134.6080 N   0  0  0  0  0  0  0  0  0  0  0  0
  185.1660  176.9050  135.6380 C   0  0  0  0  0  0  0  0  0  0  0  0
  189.3870  177.0370  146.0070 C   0  0  0  0  0  2  0  0  0  0  0  0
  188.9750  178.2080  146.8810 C   0  0  0  0  0  2  0  0  0  0  0  0
  187.9150  177.1050  148.6740 O   0  0  0  0  0  0  0  0  0  0  0  0
  186.4410  178.3580  147.3430 C   0  0  0  0  0  1  0  0  0  0  0  0
  187.7890  177.8420  147.7100 C   0  0  0  0  0  0  0  0  0  0  0  0
  191.0330  177.4410  140.1590 N   0  0  0  0  0  2  0  0  0  0  0  0
  190.2110  177.3450  137.8860 C   0  0  0  0  0  2  0  0  0  0  0  0
  191.2910  176.2960  138.0410 C   0  0  0  0  0  2  0  0  0  0  0  0
  190.3540  176.5940  139.1930 C   0  0  0  0  0  3  0  0  0  0  0  0
  1  5  2  0  0  0  0
  1  4  1  0  0  0  0
  2  5  1  0  0  0  0
  2  7  2  0  0  0  0
  4  8  2  0  0  0  0
  5  9  1  0  0  0  0
  6 26  1  0  0  0  0
  7  3  1  0  0  0  0
  8  6  1  0  0  0  0
  9  3  1  0  0  0  0
  9  6  2  0  0  0  0
 10 13  1  0  0  0  0
 10 14  1  1  0  0  0
 12 17  1  0  0  0  0
 13 11  1  6  0  0  0
 13 15  1  0  0  0  0
 14 19  2  0  0  0  0
 15  4  1  0  0  0  0
 15 16  2  0  0  0  0
 17 21  1  0  0  0  0
 17 11  2  0  0  0  0
 18 20  1  0  0  0  0
 19 16  1  0  0  0  0
 20 22  2  0  0  0  0
 21 20  1  1  0  0  0
 21 10  1  0  0  0  0
 23 18  1  0  0  0  0
 23 12  2  0  0  0  0
 24 25  3  0  0  0  0
 25 23  1  0  0  0  0
 26 27  1  0  0  0  0
 27 30  1  0  0  0  0
 29 30  1  0  0  0  0
 30 28  2  0  0  0  0
 31  2  1  0  0  0  0
 32 33  1  0  0  0  0
 32 34  1  0  0  0  0
 33 34  1  0  0  0  0
 34 31  1  0  0  0  0
M  END
>  <MODEL>
9

>  <REMARK>
 VINA RESULT:      -8.3      2.312      3.600
  Name = 
  7 active torsions:
  status: ('A' for Active; 'I' for Inactive)
    1  A    between atoms: C_7  and  N_27
    2  A    between atoms: C_8  and  C_20
    3  A    between atoms: C_12  and  C_16
    4  A    between atoms: C_12  and  C_26
    5  A    between atoms: C_16  and  C_33
    6  A    between atoms: C_19  and  C_34
    7  A    between atoms: C_24  and  N_27
                            x       y       z     vdW  Elec       q    Type
                         _______ _______ _______ _____ _____    ______ ____

>  <TORSDO>
F 7

$$$$
