=
 OpenBabel10222417113D

 51 53  0  0  1  0  0  0  0  0999 V2000
  189.9270  177.0070  146.7220 C   0  0  0  0  0  0  0  0  0  0  0  0
  188.5150  177.7340  148.4810 O   0  0  0  0  0  0  0  0  0  0  0  0
  188.7140  177.6610  147.2380 C   0  0  0  0  0  0  0  0  0  0  0  0
  189.3710  177.4760  143.0050 N   0  0  0  0  0  2  0  0  0  0  0  0
  187.7190  178.2810  146.2950 C   0  0  1  0  0  3  0  0  0  0  0  0
  190.1460  176.9570  145.3370 C   0  0  0  0  0  0  0  0  0  0  0  0
  190.8690  176.4440  147.5970 C   0  0  0  0  0  3  0  0  0  0  0  0
  192.0240  175.8380  147.0950 C   0  0  0  0  0  3  0  0  0  0  0  0
  192.2430  175.7910  145.7150 C   0  0  0  0  0  3  0  0  0  0  0  0
  188.0850  178.1260  144.8780 N   0  0  0  0  0  0  0  0  0  0  0  0
  189.1550  177.5460  144.4180 C   0  0  0  0  0  0  0  0  0  0  0  0
  191.3070  176.3460  144.8390 C   0  0  0  0  0  3  0  0  0  0  0  0
  188.4600  178.0720  142.0460 C   0  0  0  0  0  2  0  0  0  0  0  0
  188.9810  177.8720  140.6380 C   0  0  0  0  0  2  0  0  0  0  0  0
  188.2410  178.6470  139.7420 O   0  0  0  0  0  0  0  0  0  0  0  0
  188.8300  178.4170  138.4950 C   0  0  0  0  0  2  0  0  0  0  0  0
  189.8160  177.2590  138.5780 C   0  0  0  0  0  2  0  0  0  0  0  0
  190.1750  175.0190  137.4360 C   0  0  0  0  0  0  0  0  0  0  0  0
  187.9520  175.9910  137.5120 C   0  0  0  0  0  3  0  0  0  0  0  0
  188.3010  173.8510  136.4330 C   0  0  0  0  0  3  0  0  0  0  0  0
  187.4460  174.8880  136.8160 C   0  0  0  0  0  3  0  0  0  0  0  0
  189.6600  173.9160  136.7440 C   0  0  0  0  0  3  0  0  0  0  0  0
  189.3140  176.0650  137.8250 C   0  0  0  0  0  0  0  0  0  0  0  0
  191.6280  175.0390  137.7760 C   0  0  0  0  0  2  0  0  0  0  0  0
  192.3790  174.6790  136.6580 O   0  0  0  0  0  0  0  0  0  0  0  0
  192.3830  175.8630  134.5940 C   0  0  0  0  0  1  0  0  0  0  0  0
  192.7370  175.8890  136.0660 C   0  0  0  0  0  2  0  0  0  0  0  0
  186.3280  177.7130  146.5440 C   0  0  0  0  0  2  0  0  0  0  0  0
  184.5330  178.9020  144.9650 C   0  0  0  0  0  0  0  0  0  0  0  0
  185.3370  178.3770  145.6920 C   0  0  0  0  0  0  0  0  0  0  0  0
  183.5570  179.5130  144.0500 C   0  0  0  0  0  2  0  0  0  0  0  0
  183.0650  178.5260  142.9890 C   0  0  2  0  0  3  0  0  0  0  0  0
  183.8420  179.0640  139.5090 C   0  0  0  0  0  3  0  0  0  0  0  0
  184.1240  178.2610  141.9700 C   0  0  0  0  0  3  0  0  0  0  0  0
  183.9760  178.6620  140.7400 C   0  0  0  0  0  0  0  0  0  0  0  0
  184.9070  178.7700  138.5130 C   0  0  0  0  0  2  0  0  0  0  0  0
  184.6810  177.4140  137.8650 C   0  0  0  0  0  2  0  0  0  0  0  0
  183.2240  177.2490  137.4400 C   0  0  0  0  0  2  0  0  0  0  0  0
  182.6160  175.9230  137.9060 C   0  0  0  0  0  0  0  0  0  0  0  0
  183.6920  174.8520  137.9620 C   0  0  0  0  0  1  0  0  0  0  0  0
  181.5810  175.4790  136.8910 C   0  0  0  0  0  1  0  0  0  0  0  0
  181.9830  176.0490  139.2970 C   0  0  0  0  0  2  0  0  0  0  0  0
  180.4610  175.8990  139.2910 C   0  0  1  0  0  3  0  0  0  0  0  0
  180.0560  174.7790  140.2300 C   0  0  0  0  0  1  0  0  0  0  0  0
  179.8110  177.1900  139.7540 C   0  0  0  0  0  2  0  0  0  0  0  0
  179.8910  179.6380  139.4200 C   0  0  0  0  0  1  0  0  0  0  0  0
  180.0660  178.2960  138.7490 C   0  0  0  0  0  2  0  0  0  0  0  0
  181.7810  179.0190  142.3290 C   0  0  0  0  0  2  0  0  0  0  0  0
  180.7940  179.5420  143.3610 C   0  0  1  0  0  3  0  0  0  0  0  0
  180.0740  180.6130  142.8250 O   0  0  0  0  0  1  0  0  0  0  0  0
  179.8360  178.4340  143.7470 C   0  0  0  0  0  1  0  0  0  0  0  0
  1  3  1  0  0  0  0
  1  7  1  0  0  0  0
  3  2  2  0  0  0  0
  4 11  1  0  0  0  0
  5 28  1  6  0  0  0
  5  3  1  0  0  0  0
  6  1  2  0  0  0  0
  8  7  2  0  0  0  0
  9  8  1  0  0  0  0
 10  5  1  0  0  0  0
 11 10  2  0  0  0  0
 11  6  1  0  0  0  0
 12  6  1  0  0  0  0
 12  9  2  0  0  0  0
 13  4  1  0  0  0  0
 14 13  1  0  0  0  0
 15 14  1  0  0  0  0
 16 17  1  0  0  0  0
 16 15  1  0  0  0  0
 18 24  1  0  0  0  0
 18 23  1  0  0  0  0
 19 23  2  0  0  0  0
 20 22  1  0  0  0  0
 20 21  2  0  0  0  0
 21 19  1  0  0  0  0
 22 18  2  0  0  0  0
 23 17  1  0  0  0  0
 25 24  1  0  0  0  0
 26 27  1  0  0  0  0
 27 25  1  0  0  0  0
 29 30  3  0  0  0  0
 30 28  1  0  0  0  0
 31 29  1  0  0  0  0
 32 34  1  6  0  0  0
 32 31  1  0  0  0  0
 33 35  2  0  0  0  0
 35 34  2  0  0  0  0
 36 33  1  0  0  0  0
 37 36  1  0  0  0  0
 38 37  1  0  0  0  0
 38 39  1  0  0  0  0
 39 40  1  0  0  0  0
 39 42  1  0  0  0  0
 41 39  1  0  0  0  0
 43 42  1  0  0  0  0
 43 45  1  0  0  0  0
 43 44  1  1  0  0  0
 47 46  1  0  0  0  0
 47 45  1  0  0  0  0
 48 32  1  0  0  0  0
 48 49  1  0  0  0  0
 49 51  1  6  0  0  0
 50 49  1  0  0  0  0
M  END
>  <MODEL>
1

>  <REMARK>
 VINA RESULT:      -7.2      0.000      0.000
  Name = 
  24 active torsions:
  status: ('A' for Active; 'I' for Inactive)
    1  A    between atoms: C_1  and  C_45
    2  A    between atoms: C_1  and  C_46
    3  A    between atoms: C_2  and  C_14
    4  A    between atoms: C_2  and  C_46
    5  A    between atoms: C_5  and  O_8
    6  A    between atoms: C_5  and  C_24
    7  A    between atoms: O_8  and  C_44
    8  A    between atoms: C_9  and  C_23
    9  A    between atoms: C_9  and  C_35
   10  A    between atoms: C_9  and  C_47
   11  A    between atoms: C_11  and  C_23
   12  A    between atoms: O_12  and  C_29
   13  A    between atoms: O_12  and  C_51
   14  A    between atoms: C_14  and  C_36
   15  A    between atoms: N_16  and  C_24
   16  A    between atoms: C_17  and  C_18
   17  A    between atoms: C_17  and  C_40
   18  A    between atoms: C_19  and  C_34
   19  A    between atoms: C_19  and  C_36
   20  A    between atoms: C_22  and  C_47
   21  A    between atoms: C_26  and  C_29
   22  A    between atoms: C_43  and  C_45
   23  A    between atoms: C_44  and  C_48
   24  A    between atoms: C_48  and  C_49
                            x       y       z     vdW  Elec       q    Type
                         _______ _______ _______ _____ _____    ______ ____

>  <TORSDO>
F 24

$$$$
=
 OpenBabel10222417113D

 51 53  0  0  1  0  0  0  0  0999 V2000
  183.0980  178.7800  141.2310 C   0  0  0  0  0  0  0  0  0  0  0  0
  182.0360  178.7830  139.1120 O   0  0  0  0  0  0  0  0  0  0  0  0
  183.1180  178.7700  139.7590 C   0  0  0  0  0  0  0  0  0  0  0  0
  186.8220  178.7720  141.9180 N   0  0  0  0  0  2  0  0  0  0  0  0
  184.4240  178.7830  139.0110 C   0  0  1  0  0  3  0  0  0  0  0  0
  184.3110  178.7910  141.9350 C   0  0  0  0  0  0  0  0  0  0  0  0
  181.8830  178.7880  141.9340 C   0  0  0  0  0  3  0  0  0  0  0  0
  181.8780  178.8110  143.3310 C   0  0  0  0  0  3  0  0  0  0  0  0
  183.0870  178.8250  144.0330 C   0  0  0  0  0  3  0  0  0  0  0  0
  185.6010  178.7740  139.8950 N   0  0  0  0  0  0  0  0  0  0  0  0
  185.5870  178.7800  141.1960 C   0  0  0  0  0  0  0  0  0  0  0  0
  184.2990  178.8130  143.3380 C   0  0  0  0  0  3  0  0  0  0  0  0
  188.1130  178.8040  141.2550 C   0  0  0  0  0  2  0  0  0  0  0  0
  188.7190  177.4170  141.2280 C   0  0  0  0  0  2  0  0  0  0  0  0
  189.9390  177.4170  141.9090 O   0  0  0  0  0  0  0  0  0  0  0  0
  189.6500  177.9620  143.1640 C   0  0  0  0  0  2  0  0  0  0  0  0
  189.5100  176.8590  144.2040 C   0  0  0  0  0  2  0  0  0  0  0  0
  189.1840  177.4530  146.6520 C   0  0  0  0  0  0  0  0  0  0  0  0
  187.3060  177.5790  145.1200 C   0  0  0  0  0  3  0  0  0  0  0  0
  187.0050  178.1530  147.4540 C   0  0  0  0  0  3  0  0  0  0  0  0
  186.4800  178.0020  146.1670 C   0  0  0  0  0  3  0  0  0  0  0  0
  188.3530  177.8810  147.6940 C   0  0  0  0  0  3  0  0  0  0  0  0
  188.6570  177.3020  145.3530 C   0  0  0  0  0  0  0  0  0  0  0  0
  190.6270  177.2000  146.9410 C   0  0  0  0  0  2  0  0  0  0  0  0
  190.7600  176.0330  147.6930 O   0  0  0  0  0  0  0  0  0  0  0  0
  192.3550  175.3030  146.0860 C   0  0  0  0  0  1  0  0  0  0  0  0
  192.0920  175.6580  147.5340 C   0  0  0  0  0  2  0  0  0  0  0  0
  184.4890  177.6140  138.0380 C   0  0  0  0  0  2  0  0  0  0  0  0
  186.7330  177.6940  136.5950 C   0  0  0  0  0  0  0  0  0  0  0  0
  185.7140  177.6730  137.2370 C   0  0  0  0  0  0  0  0  0  0  0  0
  187.9860  177.6790  135.8240 C   0  0  0  0  0  2  0  0  0  0  0  0
  188.8420  176.4510  136.1380 C   0  0  2  0  0  3  0  0  0  0  0  0
  188.3460  172.9380  136.7830 C   0  0  0  0  0  3  0  0  0  0  0  0
  188.2550  175.2180  135.5310 C   0  0  0  0  0  3  0  0  0  0  0  0
  188.3070  174.0800  136.1600 C   0  0  0  0  0  0  0  0  0  0  0  0
  187.7670  171.7240  136.1430 C   0  0  0  0  0  2  0  0  0  0  0  0
  186.4270  172.0400  135.5010 C   0  0  0  0  0  2  0  0  0  0  0  0
  185.3140  172.0680  136.5460 C   0  0  0  0  0  2  0  0  0  0  0  0
  183.9420  171.7210  135.9620 C   0  0  0  0  0  0  0  0  0  0  0  0
  182.9230  171.5890  137.0800 C   0  0  0  0  0  1  0  0  0  0  0  0
  184.0360  170.3760  135.2660 C   0  0  0  0  0  1  0  0  0  0  0  0
  183.4550  172.7970  134.9840 C   0  0  0  0  0  2  0  0  0  0  0  0
  183.4150  174.2000  135.5910 C   0  0  1  0  0  3  0  0  0  0  0  0
  184.3440  175.1170  134.8180 C   0  0  0  0  0  1  0  0  0  0  0  0
  182.0050  174.7550  135.5190 C   0  0  0  0  0  2  0  0  0  0  0  0
  180.5330  175.2370  137.4470 C   0  0  0  0  0  1  0  0  0  0  0  0
  181.7510  175.6970  136.6800 C   0  0  0  0  0  2  0  0  0  0  0  0
  189.0340  176.2810  137.6420 C   0  0  0  0  0  2  0  0  0  0  0  0
  190.4790  176.5280  138.0470 C   0  0  1  0  0  3  0  0  0  0  0  0
  190.8200  175.6930  139.1140 O   0  0  0  0  0  1  0  0  0  0  0  0
  191.3870  176.2380  136.8690 C   0  0  0  0  0  1  0  0  0  0  0  0
  1  7  2  0  0  0  0
  1  6  1  0  0  0  0
  2  3  2  0  0  0  0
  3  1  1  0  0  0  0
  5 28  1  6  0  0  0
  5  3  1  0  0  0  0
  5 10  1  0  0  0  0
  6 12  2  0  0  0  0
  7  8  1  0  0  0  0
  8  9  2  0  0  0  0
 10 11  2  0  0  0  0
 11  4  1  0  0  0  0
 11  6  1  0  0  0  0
 12  9  1  0  0  0  0
 13  4  1  0  0  0  0
 14 13  1  0  0  0  0
 14 15  1  0  0  0  0
 15 16  1  0  0  0  0
 16 17  1  0  0  0  0
 17 23  1  0  0  0  0
 18 24  1  0  0  0  0
 18 22  1  0  0  0  0
 19 23  1  0  0  0  0
 19 21  2  0  0  0  0
 20 22  2  0  0  0  0
 21 20  1  0  0  0  0
 23 18  2  0  0  0  0
 24 25  1  0  0  0  0
 26 27  1  0  0  0  0
 27 25  1  0  0  0  0
 29 30  3  0  0  0  0
 30 28  1  0  0  0  0
 31 32  1  0  0  0  0
 31 29  1  0  0  0  0
 32 34  1  1  0  0  0
 32 48  1  0  0  0  0
 34 35  2  0  0  0  0
 35 33  2  0  0  0  0
 36 33  1  0  0  0  0
 37 36  1  0  0  0  0
 37 38  1  0  0  0  0
 39 38  1  0  0  0  0
 39 40  1  0  0  0  0
 41 39  1  0  0  0  0
 42 43  1  0  0  0  0
 42 39  1  0  0  0  0
 43 44  1  6  0  0  0
 45 43  1  0  0  0  0
 45 47  1  0  0  0  0
 47 46  1  0  0  0  0
 48 49  1  0  0  0  0
 49 51  1  6  0  0  0
 49 50  1  0  0  0  0
M  END
>  <MODEL>
2

>  <REMARK>
 VINA RESULT:      -7.1      2.160      8.318
  Name = 
  24 active torsions:
  status: ('A' for Active; 'I' for Inactive)
    1  A    between atoms: C_1  and  C_45
    2  A    between atoms: C_1  and  C_46
    3  A    between atoms: C_2  and  C_14
    4  A    between atoms: C_2  and  C_46
    5  A    between atoms: C_5  and  O_8
    6  A    between atoms: C_5  and  C_24
    7  A    between atoms: O_8  and  C_44
    8  A    between atoms: C_9  and  C_23
    9  A    between atoms: C_9  and  C_35
   10  A    between atoms: C_9  and  C_47
   11  A    between atoms: C_11  and  C_23
   12  A    between atoms: O_12  and  C_29
   13  A    between atoms: O_12  and  C_51
   14  A    between atoms: C_14  and  C_36
   15  A    between atoms: N_16  and  C_24
   16  A    between atoms: C_17  and  C_18
   17  A    between atoms: C_17  and  C_40
   18  A    between atoms: C_19  and  C_34
   19  A    between atoms: C_19  and  C_36
   20  A    between atoms: C_22  and  C_47
   21  A    between atoms: C_26  and  C_29
   22  A    between atoms: C_43  and  C_45
   23  A    between atoms: C_44  and  C_48
   24  A    between atoms: C_48  and  C_49
                            x       y       z     vdW  Elec       q    Type
                         _______ _______ _______ _____ _____    ______ ____

>  <TORSDO>
F 24

$$$$
=
 OpenBabel10222417113D

 51 53  0  0  1  0  0  0  0  0999 V2000
  190.5250  176.6650  144.8120 C   0  0  0  0  0  0  0  0  0  0  0  0
  191.0340  176.1890  142.5470 O   0  0  0  0  0  0  0  0  0  0  0  0
  190.2220  176.6870  143.3720 C   0  0  0  0  0  0  0  0  0  0  0  0
  187.4080  178.3520  146.1460 N   0  0  0  0  0  2  0  0  0  0  0  0
  188.9270  177.2680  142.8720 C   0  0  1  0  0  3  0  0  0  0  0  0
  189.5980  177.2000  145.7190 C   0  0  0  0  0  0  0  0  0  0  0  0
  191.7220  176.1070  145.2860 C   0  0  0  0  0  3  0  0  0  0  0  0
  191.9920  176.0790  146.6570 C   0  0  0  0  0  3  0  0  0  0  0  0
  191.0670  176.6100  147.5610 C   0  0  0  0  0  3  0  0  0  0  0  0
  188.0760  177.8050  143.9460 N   0  0  0  0  0  0  0  0  0  0  0  0
  188.3420  177.7890  145.2200 C   0  0  0  0  0  0  0  0  0  0  0  0
  189.8760  177.1700  147.0940 C   0  0  0  0  0  3  0  0  0  0  0  0
  186.1340  178.9080  145.7280 C   0  0  0  0  0  2  0  0  0  0  0  0
  185.0200  178.3730  146.6030 C   0  0  0  0  0  2  0  0  0  0  0  0
  183.7800  178.7300  146.0660 O   0  0  0  0  0  0  0  0  0  0  0  0
  183.8000  178.2400  144.7570 C   0  0  0  0  0  2  0  0  0  0  0  0
  183.1490  179.2350  143.8060 C   0  0  0  0  0  2  0  0  0  0  0  0
  182.6820  178.7520  141.3570 C   0  0  0  0  0  0  0  0  0  0  0  0
  184.9680  179.0680  142.1090 C   0  0  0  0  0  3  0  0  0  0  0  0
  184.5150  178.6170  139.7730 C   0  0  0  0  0  3  0  0  0  0  0  0
  185.4260  178.8710  140.8020 C   0  0  0  0  0  3  0  0  0  0  0  0
  183.1470  178.5600  140.0500 C   0  0  0  0  0  3  0  0  0  0  0  0
  183.6000  179.0100  142.3960 C   0  0  0  0  0  0  0  0  0  0  0  0
  181.2120  178.7120  141.6090 C   0  0  0  0  0  2  0  0  0  0  0  0
  180.5290  179.2090  140.4990 O   0  0  0  0  0  0  0  0  0  0  0  0
  179.5890  180.6200  142.1680 C   0  0  0  0  0  1  0  0  0  0  0  0
  179.3220  179.6830  141.0080 C   0  0  0  0  0  2  0  0  0  0  0  0
  189.1970  178.3440  141.8290 C   0  0  0  0  0  2  0  0  0  0  0  0
  188.6570  177.4400  139.3750 C   0  0  0  0  0  0  0  0  0  0  0  0
  188.8820  177.8540  140.4840 C   0  0  0  0  0  0  0  0  0  0  0  0
  188.4170  176.9110  138.0240 C   0  0  0  0  0  2  0  0  0  0  0  0
  188.4900  178.0030  136.9560 C   0  0  2  0  0  3  0  0  0  0  0  0
  185.1320  176.9980  136.1120 C   0  0  0  0  0  3  0  0  0  0  0  0
  187.1360  178.5640  136.6670 C   0  0  0  0  0  3  0  0  0  0  0  0
  186.1380  177.7750  136.3870 C   0  0  0  0  0  0  0  0  0  0  0  0
  183.7980  177.5880  135.8120 C   0  0  0  0  0  2  0  0  0  0  0  0
  182.6840  176.6710  136.2890 C   0  0  0  0  0  2  0  0  0  0  0  0
  183.0630  175.2050  136.0990 C   0  0  0  0  0  2  0  0  0  0  0  0
  182.9530  174.3910  137.3910 C   0  0  0  0  0  0  0  0  0  0  0  0
  182.9560  175.3220  138.5900 C   0  0  0  0  0  1  0  0  0  0  0  0
  184.1710  173.4940  137.5050 C   0  0  0  0  0  1  0  0  0  0  0  0
  181.6690  173.5550  137.4250 C   0  0  0  0  0  2  0  0  0  0  0  0
  180.4340  174.3510  137.8510 C   0  0  1  0  0  3  0  0  0  0  0  0
  179.4730  174.4650  136.6840 C   0  0  0  0  0  1  0  0  0  0  0  0
  179.7350  173.6470  138.9990 C   0  0  0  0  0  2  0  0  0  0  0  0
  179.5540  173.5990  141.4640 C   0  0  0  0  0  1  0  0  0  0  0  0
  179.8420  174.4730  140.2660 C   0  0  0  0  0  2  0  0  0  0  0  0
  189.1510  177.4870  135.6820 C   0  0  0  0  0  2  0  0  0  0  0  0
  189.6090  176.0450  135.8410 C   0  0  1  0  0  3  0  0  0  0  0  0
  189.0160  175.2500  134.8570 O   0  0  0  0  0  1  0  0  0  0  0  0
  191.1160  175.9780  135.7030 C   0  0  0  0  0  1  0  0  0  0  0  0
  1  7  2  0  0  0  0
  1  6  1  0  0  0  0
  2  3  2  0  0  0  0
  3  1  1  0  0  0  0
  5 28  1  6  0  0  0
  5  3  1  0  0  0  0
  5 10  1  0  0  0  0
  6 12  2  0  0  0  0
  7  8  1  0  0  0  0
  8  9  2  0  0  0  0
 10 11  2  0  0  0  0
 11  6  1  0  0  0  0
 11  4  1  0  0  0  0
 12  9  1  0  0  0  0
 13  4  1  0  0  0  0
 13 14  1  0  0  0  0
 15 14  1  0  0  0  0
 16 15  1  0  0  0  0
 17 16  1  0  0  0  0
 18 24  1  0  0  0  0
 18 23  1  0  0  0  0
 19 23  2  0  0  0  0
 20 22  1  0  0  0  0
 20 21  2  0  0  0  0
 21 19  1  0  0  0  0
 22 18  2  0  0  0  0
 23 17  1  0  0  0  0
 25 27  1  0  0  0  0
 25 24  1  0  0  0  0
 27 26  1  0  0  0  0
 29 30  3  0  0  0  0
 30 28  1  0  0  0  0
 31 29  1  0  0  0  0
 32 48  1  6  0  0  0
 32 31  1  0  0  0  0
 33 35  2  0  0  0  0
 34 32  1  0  0  0  0
 35 34  2  0  0  0  0
 36 33  1  0  0  0  0
 36 37  1  0  0  0  0
 38 37  1  0  0  0  0
 38 39  1  0  0  0  0
 39 42  1  0  0  0  0
 39 41  1  0  0  0  0
 39 40  1  0  0  0  0
 42 43  1  0  0  0  0
 43 44  1  6  0  0  0
 43 45  1  0  0  0  0
 45 47  1  0  0  0  0
 47 46  1  0  0  0  0
 48 49  1  0  0  0  0
 49 51  1  6  0  0  0
 50 49  1  0  0  0  0
M  END
>  <MODEL>
3

>  <REMARK>
 VINA RESULT:      -6.8      1.879      7.135
  Name = 
  24 active torsions:
  status: ('A' for Active; 'I' for Inactive)
    1  A    between atoms: C_1  and  C_45
    2  A    between atoms: C_1  and  C_46
    3  A    between atoms: C_2  and  C_14
    4  A    between atoms: C_2  and  C_46
    5  A    between atoms: C_5  and  O_8
    6  A    between atoms: C_5  and  C_24
    7  A    between atoms: O_8  and  C_44
    8  A    between atoms: C_9  and  C_23
    9  A    between atoms: C_9  and  C_35
   10  A    between atoms: C_9  and  C_47
   11  A    between atoms: C_11  and  C_23
   12  A    between atoms: O_12  and  C_29
   13  A    between atoms: O_12  and  C_51
   14  A    between atoms: C_14  and  C_36
   15  A    between atoms: N_16  and  C_24
   16  A    between atoms: C_17  and  C_18
   17  A    between atoms: C_17  and  C_40
   18  A    between atoms: C_19  and  C_34
   19  A    between atoms: C_19  and  C_36
   20  A    between atoms: C_22  and  C_47
   21  A    between atoms: C_26  and  C_29
   22  A    between atoms: C_43  and  C_45
   23  A    between atoms: C_44  and  C_48
   24  A    between atoms: C_48  and  C_49
                            x       y       z     vdW  Elec       q    Type
                         _______ _______ _______ _____ _____    ______ ____

>  <TORSDO>
F 24

$$$$
=
 OpenBabel10222417113D

 51 53  0  0  1  0  0  0  0  0999 V2000
  188.6940  177.2700  145.0770 C   0  0  0  0  0  0  0  0  0  0  0  0
  190.3030  176.6220  143.4620 O   0  0  0  0  0  0  0  0  0  0  0  0
  189.1280  177.0170  143.6940 C   0  0  0  0  0  0  0  0  0  0  0  0
  185.1100  178.3160  144.4390 N   0  0  0  0  0  2  0  0  0  0  0  0
  188.1690  177.1900  142.5470 C   0  0  1  0  0  3  0  0  0  0  0  0
  187.3760  177.6840  145.3200 C   0  0  0  0  0  0  0  0  0  0  0  0
  189.5780  177.0920  146.1530 C   0  0  0  0  0  3  0  0  0  0  0  0
  189.1500  177.3220  147.4630 C   0  0  0  0  0  3  0  0  0  0  0  0
  187.8350  177.7320  147.7050 C   0  0  0  0  0  3  0  0  0  0  0  0
  186.8350  177.6470  142.9680 N   0  0  0  0  0  0  0  0  0  0  0  0
  186.4480  177.8740  144.1900 C   0  0  0  0  0  0  0  0  0  0  0  0
  186.9520  177.9150  146.6380 C   0  0  0  0  0  3  0  0  0  0  0  0
  184.1330  178.4810  143.3790 C   0  0  0  0  0  2  0  0  0  0  0  0
  182.7700  178.7740  143.9690 C   0  0  0  0  0  2  0  0  0  0  0  0
  182.0870  179.6870  143.1600 O   0  0  0  0  0  0  0  0  0  0  0  0
  181.1150  178.9280  142.5010 C   0  0  0  0  0  2  0  0  0  0  0  0
  180.6630  179.6310  141.2290 C   0  0  0  0  0  2  0  0  0  0  0  0
  180.7220  179.2160  138.7240 C   0  0  0  0  0  0  0  0  0  0  0  0
  180.8980  177.3450  140.2600 C   0  0  0  0  0  3  0  0  0  0  0  0
  180.9630  176.9580  137.8700 C   0  0  0  0  0  3  0  0  0  0  0  0
  180.9980  176.4650  139.1780 C   0  0  0  0  0  3  0  0  0  0  0  0
  180.8280  178.3300  137.6450 C   0  0  0  0  0  3  0  0  0  0  0  0
  180.7590  178.7200  140.0440 C   0  0  0  0  0  0  0  0  0  0  0  0
  180.6080  180.6770  138.4440 C   0  0  0  0  0  2  0  0  0  0  0  0
  180.8460  180.9190  137.0910 O   0  0  0  0  0  0  0  0  0  0  0  0
  180.5590  182.6490  135.4830 C   0  0  0  0  0  1  0  0  0  0  0  0
  180.7130  182.2990  136.9480 C   0  0  0  0  0  2  0  0  0  0  0  0
  188.7480  178.1440  141.5110 C   0  0  0  0  0  2  0  0  0  0  0  0
  190.2770  176.8500  139.7450 C   0  0  0  0  0  0  0  0  0  0  0  0
  189.5920  177.4210  140.5560 C   0  0  0  0  0  0  0  0  0  0  0  0
  191.1120  176.1880  138.7310 C   0  0  0  0  0  2  0  0  0  0  0  0
  190.3850  176.0410  137.3930 C   0  0  2  0  0  3  0  0  0  0  0  0
  187.8080  174.4720  135.4190 C   0  0  0  0  0  3  0  0  0  0  0  0
  189.2940  175.0250  137.4830 C   0  0  0  0  0  3  0  0  0  0  0  0
  188.5520  174.7550  136.4480 C   0  0  0  0  0  0  0  0  0  0  0  0
  186.7170  173.4670  135.5460 C   0  0  0  0  0  2  0  0  0  0  0  0
  185.4440  173.9660  134.8840 C   0  0  0  0  0  2  0  0  0  0  0  0
  185.3340  175.4850  134.9880 C   0  0  0  0  0  2  0  0  0  0  0  0
  184.1370  175.9380  135.8290 C   0  0  0  0  0  0  0  0  0  0  0  0
  183.0590  174.8680  135.8120 C   0  0  0  0  0  1  0  0  0  0  0  0
  183.5490  177.1890  135.2050 C   0  0  0  0  0  1  0  0  0  0  0  0
  184.5370  176.2030  137.2850 C   0  0  0  0  0  2  0  0  0  0  0  0
  185.0630  177.6180  137.5260 C   0  0  1  0  0  3  0  0  0  0  0  0
  184.4280  178.1920  138.7780 C   0  0  0  0  0  1  0  0  0  0  0  0
  186.5690  177.5860  137.7080 C   0  0  0  0  0  2  0  0  0  0  0  0
  187.9240  178.1630  135.7220 C   0  0  0  0  0  1  0  0  0  0  0  0
  187.2160  178.7190  136.9350 C   0  0  0  0  0  2  0  0  0  0  0  0
  191.3600  175.6990  136.2700 C   0  0  0  0  0  2  0  0  0  0  0  0
  192.4500  174.7550  136.7520 C   0  0  1  0  0  3  0  0  0  0  0  0
  192.0890  173.4340  136.4740 O   0  0  0  0  0  1  0  0  0  0  0  0
  193.7480  175.0820  136.0420 C   0  0  0  0  0  1  0  0  0  0  0  0
  1  6  2  0  0  0  0
  1  7  1  0  0  0  0
  2  3  2  0  0  0  0
  3  1  1  0  0  0  0
  5 28  1  6  0  0  0
  5 10  1  0  0  0  0
  5  3  1  0  0  0  0
  6 12  1  0  0  0  0
  7  8  2  0  0  0  0
  8  9  1  0  0  0  0
 10 11  2  0  0  0  0
 11  4  1  0  0  0  0
 11  6  1  0  0  0  0
 12  9  2  0  0  0  0
 13 14  1  0  0  0  0
 13  4  1  0  0  0  0
 15 14  1  0  0  0  0
 16 15  1  0  0  0  0
 17 16  1  0  0  0  0
 18 23  1  0  0  0  0
 20 21  2  0  0  0  0
 21 19  1  0  0  0  0
 22 20  1  0  0  0  0
 22 18  2  0  0  0  0
 23 19  2  0  0  0  0
 23 17  1  0  0  0  0
 24 18  1  0  0  0  0
 25 24  1  0  0  0  0
 26 27  1  0  0  0  0
 27 25  1  0  0  0  0
 29 30  3  0  0  0  0
 30 28  1  0  0  0  0
 31 29  1  0  0  0  0
 32 48  1  6  0  0  0
 32 34  1  0  0  0  0
 32 31  1  0  0  0  0
 33 36  1  0  0  0  0
 33 35  2  0  0  0  0
 35 34  2  0  0  0  0
 37 38  1  0  0  0  0
 37 36  1  0  0  0  0
 38 39  1  0  0  0  0
 39 42  1  0  0  0  0
 40 39  1  0  0  0  0
 41 39  1  0  0  0  0
 42 43  1  0  0  0  0
 43 45  1  0  0  0  0
 43 44  1  1  0  0  0
 46 47  1  0  0  0  0
 47 45  1  0  0  0  0
 48 49  1  0  0  0  0
 49 51  1  6  0  0  0
 50 49  1  0  0  0  0
M  END
>  <MODEL>
4

>  <REMARK>
 VINA RESULT:      -6.6      2.045      8.067
  Name = 
  24 active torsions:
  status: ('A' for Active; 'I' for Inactive)
    1  A    between atoms: C_1  and  C_45
    2  A    between atoms: C_1  and  C_46
    3  A    between atoms: C_2  and  C_14
    4  A    between atoms: C_2  and  C_46
    5  A    between atoms: C_5  and  O_8
    6  A    between atoms: C_5  and  C_24
    7  A    between atoms: O_8  and  C_44
    8  A    between atoms: C_9  and  C_23
    9  A    between atoms: C_9  and  C_35
   10  A    between atoms: C_9  and  C_47
   11  A    between atoms: C_11  and  C_23
   12  A    between atoms: O_12  and  C_29
   13  A    between atoms: O_12  and  C_51
   14  A    between atoms: C_14  and  C_36
   15  A    between atoms: N_16  and  C_24
   16  A    between atoms: C_17  and  C_18
   17  A    between atoms: C_17  and  C_40
   18  A    between atoms: C_19  and  C_34
   19  A    between atoms: C_19  and  C_36
   20  A    between atoms: C_22  and  C_47
   21  A    between atoms: C_26  and  C_29
   22  A    between atoms: C_43  and  C_45
   23  A    between atoms: C_44  and  C_48
   24  A    between atoms: C_48  and  C_49
                            x       y       z     vdW  Elec       q    Type
                         _______ _______ _______ _____ _____    ______ ____

>  <TORSDO>
F 24

$$$$
=
 OpenBabel10222417113D

 51 53  0  0  1  0  0  0  0  0999 V2000
  190.1840  176.8850  146.6580 C   0  0  0  0  0  0  0  0  0  0  0  0
  188.8380  177.8990  148.3240 O   0  0  0  0  0  0  0  0  0  0  0  0
  189.0080  177.6520  147.1000 C   0  0  0  0  0  0  0  0  0  0  0  0
  189.5690  176.8740  142.9210 N   0  0  0  0  0  2  0  0  0  0  0  0
  188.0180  178.1810  146.0970 C   0  0  1  0  0  3  0  0  0  0  0  0
  190.3710  176.6400  145.2890 C   0  0  0  0  0  0  0  0  0  0  0  0
  191.1210  176.4060  147.5860 C   0  0  0  0  0  3  0  0  0  0  0  0
  192.2400  175.6910  147.1530 C   0  0  0  0  0  3  0  0  0  0  0  0
  192.4290  175.4500  145.7890 C   0  0  0  0  0  3  0  0  0  0  0  0
  188.3480  177.8220  144.7080 N   0  0  0  0  0  0  0  0  0  0  0  0
  189.3850  177.1420  144.3140 C   0  0  0  0  0  0  0  0  0  0  0  0
  191.4970  175.9210  144.8600 C   0  0  0  0  0  3  0  0  0  0  0  0
  188.6610  177.3730  141.9040 C   0  0  0  0  0  2  0  0  0  0  0  0
  189.4140  177.6320  140.6160 C   0  0  0  0  0  2  0  0  0  0  0  0
  188.6650  177.1770  139.5270 O   0  0  0  0  0  0  0  0  0  0  0  0
  189.5730  177.1210  138.4650 C   0  0  0  0  0  2  0  0  0  0  0  0
  190.8150  176.3370  138.8670 C   0  0  0  0  0  2  0  0  0  0  0  0
  192.4410  174.9550  137.4900 C   0  0  0  0  0  0  0  0  0  0  0  0
  190.0570  174.5290  137.3270 C   0  0  0  0  0  3  0  0  0  0  0  0
  191.6150  173.2080  136.0240 C   0  0  0  0  0  3  0  0  0  0  0  0
  190.3030  173.5080  136.4030 C   0  0  0  0  0  3  0  0  0  0  0  0
  192.6800  173.9290  136.5680 C   0  0  0  0  0  3  0  0  0  0  0  0
  191.1180  175.2570  137.8750 C   0  0  0  0  0  0  0  0  0  0  0  0
  193.6070  175.6830  138.0720 C   0  0  0  0  0  2  0  0  0  0  0  0
  194.7930  175.0630  137.6820 O   0  0  0  0  0  0  0  0  0  0  0  0
  196.3500  174.5300  139.4000 C   0  0  0  0  0  1  0  0  0  0  0  0
  195.0650  174.1470  138.6970 C   0  0  0  0  0  2  0  0  0  0  0  0
  186.6120  177.7090  146.4420 C   0  0  0  0  0  2  0  0  0  0  0  0
  184.7960  179.0150  144.9850 C   0  0  0  0  0  0  0  0  0  0  0  0
  185.6130  178.4390  145.6560 C   0  0  0  0  0  0  0  0  0  0  0  0
  183.7950  179.6850  144.1400 C   0  0  0  0  0  2  0  0  0  0  0  0
  182.7240  178.7150  143.6360 C   0  0  2  0  0  3  0  0  0  0  0  0
  185.2160  178.9770  141.0430 C   0  0  0  0  0  3  0  0  0  0  0  0
  183.0120  178.2750  142.2380 C   0  0  0  0  0  3  0  0  0  0  0  0
  184.1150  178.6320  141.6450 C   0  0  0  0  0  0  0  0  0  0  0  0
  185.4670  178.5370  139.6440 C   0  0  0  0  0  2  0  0  0  0  0  0
  184.5420  179.2590  138.6770 C   0  0  0  0  0  2  0  0  0  0  0  0
  183.2230  178.5070  138.5200 C   0  0  0  0  0  2  0  0  0  0  0  0
  183.3820  177.1770  137.7770 C   0  0  0  0  0  0  0  0  0  0  0  0
  182.4570  177.1430  136.5740 C   0  0  0  0  0  1  0  0  0  0  0  0
  182.9690  176.0500  138.7050 C   0  0  0  0  0  1  0  0  0  0  0  0
  184.8210  176.9700  137.2910 C   0  0  0  0  0  2  0  0  0  0  0  0
  184.9130  176.4860  135.8440 C   0  0  1  0  0  3  0  0  0  0  0  0
  185.8740  177.3690  135.0710 C   0  0  0  0  0  1  0  0  0  0  0  0
  185.4200  175.0570  135.8070 C   0  0  0  0  0  2  0  0  0  0  0  0
  186.5300  173.2730  137.1110 C   0  0  0  0  0  1  0  0  0  0  0  0
  186.2190  174.7500  137.0580 C   0  0  0  0  0  2  0  0  0  0  0  0
  181.3310  179.3290  143.7400 C   0  0  0  0  0  2  0  0  0  0  0  0
  180.2800  178.4250  143.1150 C   0  0  1  0  0  3  0  0  0  0  0  0
  179.7480  177.5760  144.0870 O   0  0  0  0  0  1  0  0  0  0  0  0
  179.1720  179.2760  142.5270 C   0  0  0  0  0  1  0  0  0  0  0  0
  1  3  1  0  0  0  0
  1  7  1  0  0  0  0
  3  2  2  0  0  0  0
  4 11  1  0  0  0  0
  5 28  1  1  0  0  0
  5  3  1  0  0  0  0
  6  1  2  0  0  0  0
  8  7  2  0  0  0  0
  9  8  1  0  0  0  0
 10  5  1  0  0  0  0
 11 10  2  0  0  0  0
 11  6  1  0  0  0  0
 12  6  1  0  0  0  0
 12  9  2  0  0  0  0
 13  4  1  0  0  0  0
 14 13  1  0  0  0  0
 15 14  1  0  0  0  0
 16 17  1  0  0  0  0
 16 15  1  0  0  0  0
 18 23  1  0  0  0  0
 18 24  1  0  0  0  0
 19 23  2  0  0  0  0
 20 21  2  0  0  0  0
 20 22  1  0  0  0  0
 21 19  1  0  0  0  0
 22 18  2  0  0  0  0
 23 17  1  0  0  0  0
 25 24  1  0  0  0  0
 25 27  1  0  0  0  0
 27 26  1  0  0  0  0
 29 30  3  0  0  0  0
 30 28  1  0  0  0  0
 31 29  1  0  0  0  0
 32 34  1  6  0  0  0
 32 48  1  0  0  0  0
 32 31  1  0  0  0  0
 33 35  2  0  0  0  0
 35 34  2  0  0  0  0
 36 33  1  0  0  0  0
 37 36  1  0  0  0  0
 38 37  1  0  0  0  0
 39 38  1  0  0  0  0
 39 41  1  0  0  0  0
 40 39  1  0  0  0  0
 42 39  1  0  0  0  0
 43 44  1  6  0  0  0
 43 42  1  0  0  0  0
 45 43  1  0  0  0  0
 45 47  1  0  0  0  0
 47 46  1  0  0  0  0
 49 51  1  1  0  0  0
 49 48  1  0  0  0  0
 49 50  1  0  0  0  0
M  END
>  <MODEL>
5

>  <REMARK>
 VINA RESULT:      -6.4      1.516      3.068
  Name = 
  24 active torsions:
  status: ('A' for Active; 'I' for Inactive)
    1  A    between atoms: C_1  and  C_45
    2  A    between atoms: C_1  and  C_46
    3  A    between atoms: C_2  and  C_14
    4  A    between atoms: C_2  and  C_46
    5  A    between atoms: C_5  and  O_8
    6  A    between atoms: C_5  and  C_24
    7  A    between atoms: O_8  and  C_44
    8  A    between atoms: C_9  and  C_23
    9  A    between atoms: C_9  and  C_35
   10  A    between atoms: C_9  and  C_47
   11  A    between atoms: C_11  and  C_23
   12  A    between atoms: O_12  and  C_29
   13  A    between atoms: O_12  and  C_51
   14  A    between atoms: C_14  and  C_36
   15  A    between atoms: N_16  and  C_24
   16  A    between atoms: C_17  and  C_18
   17  A    between atoms: C_17  and  C_40
   18  A    between atoms: C_19  and  C_34
   19  A    between atoms: C_19  and  C_36
   20  A    between atoms: C_22  and  C_47
   21  A    between atoms: C_26  and  C_29
   22  A    between atoms: C_43  and  C_45
   23  A    between atoms: C_44  and  C_48
   24  A    between atoms: C_48  and  C_49
                            x       y       z     vdW  Elec       q    Type
                         _______ _______ _______ _____ _____    ______ ____

>  <TORSDO>
F 24

$$$$
=
 OpenBabel10222417113D

 51 53  0  0  1  0  0  0  0  0999 V2000
  189.2170  177.4170  146.5810 C   0  0  0  0  0  0  0  0  0  0  0  0
  187.4490  178.1930  147.9560 O   0  0  0  0  0  0  0  0  0  0  0  0
  187.8500  177.9190  146.7920 C   0  0  0  0  0  0  0  0  0  0  0  0
  189.1840  177.0450  142.8120 N   0  0  0  0  0  2  0  0  0  0  0  0
  186.9290  178.1470  145.6240 C   0  0  1  0  0  3  0  0  0  0  0  0
  189.6560  177.1420  145.2770 C   0  0  0  0  0  0  0  0  0  0  0  0
  190.0870  177.2220  147.6650 C   0  0  0  0  0  3  0  0  0  0  0  0
  191.3880  176.7580  147.4500 C   0  0  0  0  0  3  0  0  0  0  0  0
  191.8260  176.4870  146.1500 C   0  0  0  0  0  3  0  0  0  0  0  0
  187.5330  177.7910  144.3290 N   0  0  0  0  0  0  0  0  0  0  0  0
  188.7410  177.3460  144.1390 C   0  0  0  0  0  0  0  0  0  0  0  0
  190.9630  176.6760  145.0680 C   0  0  0  0  0  3  0  0  0  0  0  0
  188.3510  177.2620  141.6430 C   0  0  0  0  0  2  0  0  0  0  0  0
  188.7260  178.5670  140.9720 C   0  0  0  0  0  2  0  0  0  0  0  0
  189.4190  178.3090  139.7860 O   0  0  0  0  0  0  0  0  0  0  0  0
  188.8690  177.1190  139.2990 C   0  0  0  0  0  2  0  0  0  0  0  0
  189.2570  176.9100  137.8420 C   0  0  0  0  0  2  0  0  0  0  0  0
  187.9320  175.8010  135.9800 C   0  0  0  0  0  0  0  0  0  0  0  0
  186.9990  177.7120  137.1520 C   0  0  0  0  0  3  0  0  0  0  0  0
  185.7370  176.6430  135.3810 C   0  0  0  0  0  3  0  0  0  0  0  0
  185.8490  177.6360  136.3600 C   0  0  0  0  0  3  0  0  0  0  0  0
  186.7750  175.7280  135.1950 C   0  0  0  0  0  3  0  0  0  0  0  0
  188.0450  176.8000  136.9690 C   0  0  0  0  0  0  0  0  0  0  0  0
  189.0080  174.7880  135.7710 C   0  0  0  0  0  2  0  0  0  0  0  0
  190.0690  175.3640  135.0730 O   0  0  0  0  0  0  0  0  0  0  0  0
  190.7530  173.4550  136.3180 C   0  0  0  0  0  1  0  0  0  0  0  0
  191.1820  174.6050  135.4310 C   0  0  0  0  0  2  0  0  0  0  0  0
  185.6250  177.3860  145.8210 C   0  0  0  0  0  2  0  0  0  0  0  0
  183.5790  178.6460  144.6560 C   0  0  0  0  0  0  0  0  0  0  0  0
  184.5140  178.0830  145.1670 C   0  0  0  0  0  0  0  0  0  0  0  0
  182.4180  179.3320  144.0690 C   0  0  0  0  0  2  0  0  0  0  0  0
  182.4950  179.3930  142.5420 C   0  0  2  0  0  3  0  0  0  0  0  0
  180.7220  176.9200  140.6060 C   0  0  0  0  0  3  0  0  0  0  0  0
  181.1620  179.1210  141.9260 C   0  0  0  0  0  3  0  0  0  0  0  0
  180.9490  178.0200  141.2650 C   0  0  0  0  0  0  0  0  0  0  0  0
  179.3880  176.6860  139.9890 C   0  0  0  0  0  2  0  0  0  0  0  0
  179.5280  175.9550  138.6640 C   0  0  0  0  0  2  0  0  0  0  0  0
  180.8100  175.1270  138.6300 C   0  0  0  0  0  2  0  0  0  0  0  0
  181.6860  175.4390  137.4130 C   0  0  0  0  0  0  0  0  0  0  0  0
  182.0170  174.1560  136.6730 C   0  0  0  0  0  1  0  0  0  0  0  0
  182.9920  176.0390  137.8960 C   0  0  0  0  0  1  0  0  0  0  0  0
  180.9840  176.3950  136.4420 C   0  0  0  0  0  2  0  0  0  0  0  0
  181.6870  177.7450  136.3000 C   0  0  1  0  0  3  0  0  0  0  0  0
  182.3150  177.8500  134.9220 C   0  0  0  0  0  1  0  0  0  0  0  0
  180.6850  178.8720  136.4710 C   0  0  0  0  0  2  0  0  0  0  0  0
  182.2000  179.7230  138.2300 C   0  0  0  0  0  1  0  0  0  0  0  0
  180.7600  179.4320  137.8780 C   0  0  0  0  0  2  0  0  0  0  0  0
  183.5520  178.4340  142.0040 C   0  0  0  0  0  2  0  0  0  0  0  0
  184.5670  179.1590  141.1350 C   0  0  1  0  0  3  0  0  0  0  0  0
  185.6350  179.5980  141.9220 O   0  0  0  0  0  1  0  0  0  0  0  0
  185.0820  178.2150  140.0680 C   0  0  0  0  0  1  0  0  0  0  0  0
  1  3  1  0  0  0  0
  1  7  1  0  0  0  0
  3  2  2  0  0  0  0
  4 11  1  0  0  0  0
  5 28  1  1  0  0  0
  5  3  1  0  0  0  0
  6  1  2  0  0  0  0
  8  7  2  0  0  0  0
  9  8  1  0  0  0  0
 10  5  1  0  0  0  0
 11 10  2  0  0  0  0
 11  6  1  0  0  0  0
 12  6  1  0  0  0  0
 12  9  2  0  0  0  0
 13  4  1  0  0  0  0
 14 13  1  0  0  0  0
 15 14  1  0  0  0  0
 16 15  1  0  0  0  0
 17 16  1  0  0  0  0
 18 23  1  0  0  0  0
 20 21  2  0  0  0  0
 21 19  1  0  0  0  0
 22 20  1  0  0  0  0
 22 18  2  0  0  0  0
 23 19  2  0  0  0  0
 23 17  1  0  0  0  0
 24 18  1  0  0  0  0
 25 27  1  0  0  0  0
 25 24  1  0  0  0  0
 27 26  1  0  0  0  0
 29 30  3  0  0  0  0
 30 28  1  0  0  0  0
 31 29  1  0  0  0  0
 32 34  1  6  0  0  0
 32 31  1  0  0  0  0
 33 35  2  0  0  0  0
 35 34  2  0  0  0  0
 36 33  1  0  0  0  0
 37 36  1  0  0  0  0
 38 37  1  0  0  0  0
 39 41  1  0  0  0  0
 39 38  1  0  0  0  0
 40 39  1  0  0  0  0
 42 39  1  0  0  0  0
 43 44  1  6  0  0  0
 43 42  1  0  0  0  0
 43 45  1  0  0  0  0
 45 47  1  0  0  0  0
 47 46  1  0  0  0  0
 48 32  1  0  0  0  0
 49 51  1  6  0  0  0
 49 50  1  0  0  0  0
 49 48  1  0  0  0  0
M  END
>  <MODEL>
6

>  <REMARK>
 VINA RESULT:      -6.3      1.540      2.871
  Name = 
  24 active torsions:
  status: ('A' for Active; 'I' for Inactive)
    1  A    between atoms: C_1  and  C_45
    2  A    between atoms: C_1  and  C_46
    3  A    between atoms: C_2  and  C_14
    4  A    between atoms: C_2  and  C_46
    5  A    between atoms: C_5  and  O_8
    6  A    between atoms: C_5  and  C_24
    7  A    between atoms: O_8  and  C_44
    8  A    between atoms: C_9  and  C_23
    9  A    between atoms: C_9  and  C_35
   10  A    between atoms: C_9  and  C_47
   11  A    between atoms: C_11  and  C_23
   12  A    between atoms: O_12  and  C_29
   13  A    between atoms: O_12  and  C_51
   14  A    between atoms: C_14  and  C_36
   15  A    between atoms: N_16  and  C_24
   16  A    between atoms: C_17  and  C_18
   17  A    between atoms: C_17  and  C_40
   18  A    between atoms: C_19  and  C_34
   19  A    between atoms: C_19  and  C_36
   20  A    between atoms: C_22  and  C_47
   21  A    between atoms: C_26  and  C_29
   22  A    between atoms: C_43  and  C_45
   23  A    between atoms: C_44  and  C_48
   24  A    between atoms: C_48  and  C_49
                            x       y       z     vdW  Elec       q    Type
                         _______ _______ _______ _____ _____    ______ ____

>  <TORSDO>
F 24

$$$$
=
 OpenBabel10222417113D

 51 53  0  0  1  0  0  0  0  0999 V2000
  185.2040  178.5500  144.6540 C   0  0  0  0  0  0  0  0  0  0  0  0
  183.0620  179.2610  143.9310 O   0  0  0  0  0  0  0  0  0  0  0  0
  184.2270  178.9000  143.6110 C   0  0  0  0  0  0  0  0  0  0  0  0
  188.1900  177.7190  142.4780 N   0  0  0  0  0  2  0  0  0  0  0  0
  184.6140  178.8670  142.1570 C   0  0  1  0  0  3  0  0  0  0  0  0
  186.5030  178.1740  144.2820 C   0  0  0  0  0  0  0  0  0  0  0  0
  184.8540  178.5980  146.0130 C   0  0  0  0  0  3  0  0  0  0  0  0
  185.7950  178.2770  146.9950 C   0  0  0  0  0  3  0  0  0  0  0  0
  187.0910  177.9050  146.6240 C   0  0  0  0  0  3  0  0  0  0  0  0
  186.0030  178.4340  141.9350 N   0  0  0  0  0  0  0  0  0  0  0  0
  186.8700  178.1220  142.8550 C   0  0  0  0  0  0  0  0  0  0  0  0
  187.4430  177.8520  145.2730 C   0  0  0  0  0  3  0  0  0  0  0  0
  188.6300  177.6870  141.0950 C   0  0  0  0  0  2  0  0  0  0  0  0
  190.0510  177.1690  141.0140 C   0  0  0  0  0  2  0  0  0  0  0  0
  190.1820  176.3100  139.9190 O   0  0  0  0  0  0  0  0  0  0  0  0
  191.4350  176.6090  139.3750 C   0  0  0  0  0  2  0  0  0  0  0  0
  191.3170  176.8700  137.8800 C   0  0  0  0  0  2  0  0  0  0  0  0
  189.5560  175.6140  136.5480 C   0  0  0  0  0  0  0  0  0  0  0  0
  191.6670  174.5370  137.0740 C   0  0  0  0  0  3  0  0  0  0  0  0
  189.9870  173.3480  135.7960 C   0  0  0  0  0  3  0  0  0  0  0  0
  191.2480  173.3860  136.3990 C   0  0  0  0  0  3  0  0  0  0  0  0
  189.1450  174.4600  135.8690 C   0  0  0  0  0  3  0  0  0  0  0  0
  190.8290  175.6540  137.1540 C   0  0  0  0  0  0  0  0  0  0  0  0
  188.6410  176.7930  136.5810 C   0  0  0  0  0  2  0  0  0  0  0  0
  188.1960  177.0800  135.2910 O   0  0  0  0  0  0  0  0  0  0  0  0
  187.3950  178.6980  136.8410 C   0  0  0  0  0  1  0  0  0  0  0  0
  187.2570  178.0960  135.4580 C   0  0  0  0  0  2  0  0  0  0  0  0
  183.6560  177.9800  141.3740 C   0  0  0  0  0  2  0  0  0  0  0  0
  181.5020  179.3380  140.5730 C   0  0  0  0  0  0  0  0  0  0  0  0
  182.4830  178.7420  140.9370 C   0  0  0  0  0  0  0  0  0  0  0  0
  180.2800  180.0310  140.1340 C   0  0  0  0  0  2  0  0  0  0  0  0
  180.3810  180.5160  138.6880 C   0  0  2  0  0  3  0  0  0  0  0  0
  180.8940  178.4460  135.7800 C   0  0  0  0  0  3  0  0  0  0  0  0
  181.4470  179.7790  137.9460 C   0  0  0  0  0  3  0  0  0  0  0  0
  181.1640  179.1120  136.8650 C   0  0  0  0  0  0  0  0  0  0  0  0
  181.9760  177.7080  135.0730 C   0  0  0  0  0  2  0  0  0  0  0  0
  181.4810  176.3520  134.5960 C   0  0  0  0  0  2  0  0  0  0  0  0
  180.4930  175.7500  135.5920 C   0  0  0  0  0  2  0  0  0  0  0  0
  180.8940  174.3450  136.0500 C   0  0  0  0  0  0  0  0  0  0  0  0
  182.1330  173.8910  135.2990 C   0  0  0  0  0  1  0  0  0  0  0  0
  179.7730  173.3840  135.7080 C   0  0  0  0  0  1  0  0  0  0  0  0
  181.1940  174.3060  137.5530 C   0  0  0  0  0  2  0  0  0  0  0  0
  181.5230  175.6760  138.1460 C   0  0  1  0  0  3  0  0  0  0  0  0
  180.5400  176.0000  139.2560 C   0  0  0  0  0  1  0  0  0  0  0  0
  182.9270  175.6690  138.7190 C   0  0  0  0  0  2  0  0  0  0  0  0
  184.6200  176.1950  136.9950 C   0  0  0  0  0  1  0  0  0  0  0  0
  183.7560  176.7730  138.0920 C   0  0  0  0  0  2  0  0  0  0  0  0
  180.6130  182.0230  138.6260 C   0  0  0  0  0  2  0  0  0  0  0  0
  180.8420  182.4900  137.1970 C   0  0  1  0  0  3  0  0  0  0  0  0
  179.6210  182.5730  136.5250 O   0  0  0  0  0  1  0  0  0  0  0  0
  181.5020  183.8530  137.2140 C   0  0  0  0  0  1  0  0  0  0  0  0
  1  7  1  0  0  0  0
  3  2  2  0  0  0  0
  3  1  1  0  0  0  0
  4 11  1  0  0  0  0
  5 28  1  6  0  0  0
  5  3  1  0  0  0  0
  6  1  2  0  0  0  0
  6 12  1  0  0  0  0
  7  8  2  0  0  0  0
  9  8  1  0  0  0  0
 10  5  1  0  0  0  0
 10 11  2  0  0  0  0
 11  6  1  0  0  0  0
 12  9  2  0  0  0  0
 13  4  1  0  0  0  0
 14 13  1  0  0  0  0
 15 14  1  0  0  0  0
 16 15  1  0  0  0  0
 17 16  1  0  0  0  0
 18 24  1  0  0  0  0
 18 23  1  0  0  0  0
 19 23  2  0  0  0  0
 20 22  1  0  0  0  0
 20 21  2  0  0  0  0
 21 19  1  0  0  0  0
 22 18  2  0  0  0  0
 23 17  1  0  0  0  0
 25 27  1  0  0  0  0
 25 24  1  0  0  0  0
 27 26  1  0  0  0  0
 29 30  3  0  0  0  0
 30 28  1  0  0  0  0
 31 29  1  0  0  0  0
 32 34  1  1  0  0  0
 32 31  1  0  0  0  0
 33 35  2  0  0  0  0
 35 34  2  0  0  0  0
 36 33  1  0  0  0  0
 37 36  1  0  0  0  0
 37 38  1  0  0  0  0
 38 39  1  0  0  0  0
 39 42  1  0  0  0  0
 40 39  1  0  0  0  0
 41 39  1  0  0  0  0
 42 43  1  0  0  0  0
 43 45  1  0  0  0  0
 43 44  1  1  0  0  0
 46 47  1  0  0  0  0
 47 45  1  0  0  0  0
 48 32  1  0  0  0  0
 49 51  1  1  0  0  0
 49 48  1  0  0  0  0
 50 49  1  0  0  0  0
M  END
>  <MODEL>
7

>  <REMARK>
 VINA RESULT:      -6.1      2.452      4.595
  Name = 
  24 active torsions:
  status: ('A' for Active; 'I' for Inactive)
    1  A    between atoms: C_1  and  C_45
    2  A    between atoms: C_1  and  C_46
    3  A    between atoms: C_2  and  C_14
    4  A    between atoms: C_2  and  C_46
    5  A    between atoms: C_5  and  O_8
    6  A    between atoms: C_5  and  C_24
    7  A    between atoms: O_8  and  C_44
    8  A    between atoms: C_9  and  C_23
    9  A    between atoms: C_9  and  C_35
   10  A    between atoms: C_9  and  C_47
   11  A    between atoms: C_11  and  C_23
   12  A    between atoms: O_12  and  C_29
   13  A    between atoms: O_12  and  C_51
   14  A    between atoms: C_14  and  C_36
   15  A    between atoms: N_16  and  C_24
   16  A    between atoms: C_17  and  C_18
   17  A    between atoms: C_17  and  C_40
   18  A    between atoms: C_19  and  C_34
   19  A    between atoms: C_19  and  C_36
   20  A    between atoms: C_22  and  C_47
   21  A    between atoms: C_26  and  C_29
   22  A    between atoms: C_43  and  C_45
   23  A    between atoms: C_44  and  C_48
   24  A    between atoms: C_48  and  C_49
                            x       y       z     vdW  Elec       q    Type
                         _______ _______ _______ _____ _____    ______ ____

>  <TORSDO>
F 24

$$$$
=
 OpenBabel10222417113D

 51 53  0  0  1  0  0  0  0  0999 V2000
  189.1940  177.2980  145.9400 C   0  0  0  0  0  0  0  0  0  0  0  0
  187.2350  178.1620  146.9560 O   0  0  0  0  0  0  0  0  0  0  0  0
  187.8480  177.8920  145.8880 C   0  0  0  0  0  0  0  0  0  0  0  0
  189.9160  177.0320  142.2320 N   0  0  0  0  0  2  0  0  0  0  0  0
  187.2060  178.2170  144.5670 C   0  0  1  0  0  3  0  0  0  0  0  0
  189.8730  177.0270  144.7430 C   0  0  0  0  0  0  0  0  0  0  0  0
  189.8060  177.0100  147.1690 C   0  0  0  0  0  3  0  0  0  0  0  0
  191.0900  176.4590  147.2060 C   0  0  0  0  0  3  0  0  0  0  0  0
  191.7690  176.1920  146.0130 C   0  0  0  0  0  3  0  0  0  0  0  0
  188.0390  177.8550  143.4090 N   0  0  0  0  0  0  0  0  0  0  0  0
  189.2290  177.3280  143.4510 C   0  0  0  0  0  0  0  0  0  0  0  0
  191.1620  176.4730  144.7860 C   0  0  0  0  0  3  0  0  0  0  0  0
  189.3590  177.3410  140.9270 C   0  0  0  0  0  2  0  0  0  0  0  0
  190.4720  177.5280  139.9180 C   0  0  0  0  0  2  0  0  0  0  0  0
  190.3090  176.6310  138.8580 O   0  0  0  0  0  0  0  0  0  0  0  0
  191.4750  176.7570  138.0970 C   0  0  0  0  0  2  0  0  0  0  0  0
  192.3220  175.4970  138.2080 C   0  0  0  0  0  2  0  0  0  0  0  0
  193.1470  174.4940  136.0250 C   0  0  0  0  0  0  0  0  0  0  0  0
  190.9510  173.9000  136.8700 C   0  0  0  0  0  3  0  0  0  0  0  0
  191.7490  172.9400  134.7950 C   0  0  0  0  0  3  0  0  0  0  0  0
  190.7520  173.0640  135.7670 C   0  0  0  0  0  3  0  0  0  0  0  0
  192.9430  173.6510  134.9260 C   0  0  0  0  0  3  0  0  0  0  0  0
  192.1440  174.6180  137.0080 C   0  0  0  0  0  0  0  0  0  0  0  0
  194.4480  175.2150  136.1460 C   0  0  0  0  0  2  0  0  0  0  0  0
  195.3310  174.4700  136.9270 O   0  0  0  0  0  0  0  0  0  0  0  0
  197.6580  174.4080  137.4190 C   0  0  0  0  0  1  0  0  0  0  0  0
  196.5910  174.7450  136.3990 C   0  0  0  0  0  2  0  0  0  0  0  0
  185.8420  177.5490  144.4620 C   0  0  0  0  0  2  0  0  0  0  0  0
  184.5860  178.3270  142.2370 C   0  0  0  0  0  0  0  0  0  0  0  0
  185.1410  177.9870  143.2520 C   0  0  0  0  0  0  0  0  0  0  0  0
  183.9260  178.7070  140.9790 C   0  0  0  0  0  2  0  0  0  0  0  0
  182.6800  177.8630  140.7040 C   0  0  2  0  0  3  0  0  0  0  0  0
  183.4340  175.2130  138.3770 C   0  0  0  0  0  3  0  0  0  0  0  0
  182.5810  177.5100  139.2560 C   0  0  0  0  0  3  0  0  0  0  0  0
  183.0120  176.3610  138.8220 C   0  0  0  0  0  0  0  0  0  0  0  0
  183.3360  174.8980  136.9260 C   0  0  0  0  0  2  0  0  0  0  0  0
  183.9900  173.5600  136.6190 C   0  0  0  0  0  2  0  0  0  0  0  0
  184.7050  173.5990  135.2720 C   0  0  0  0  0  2  0  0  0  0  0  0
  186.1840  173.9760  135.3950 C   0  0  0  0  0  0  0  0  0  0  0  0
  187.0340  173.0050  134.5940 C   0  0  0  0  0  1  0  0  0  0  0  0
  186.5980  173.8550  136.8490 C   0  0  0  0  0  1  0  0  0  0  0  0
  186.4500  175.3950  134.8800 C   0  0  0  0  0  2  0  0  0  0  0  0
  187.3010  176.2400  135.8280 C   0  0  1  0  0  3  0  0  0  0  0  0
  188.7000  176.3890  135.2610 C   0  0  0  0  0  1  0  0  0  0  0  0
  186.6860  177.6180  135.9890 C   0  0  0  0  0  2  0  0  0  0  0  0
  187.0730  178.2500  138.3480 C   0  0  0  0  0  1  0  0  0  0  0  0
  186.0470  177.7520  137.3570 C   0  0  0  0  0  2  0  0  0  0  0  0
  181.4160  178.5710  141.1820 C   0  0  0  0  0  2  0  0  0  0  0  0
  180.5410  178.9930  140.0130 C   0  0  1  0  0  3  0  0  0  0  0  0
  179.2680  178.4340  140.1500 O   0  0  0  0  0  1  0  0  0  0  0  0
  180.4280  180.5040  139.9890 C   0  0  0  0  0  1  0  0  0  0  0  0
  1  7  1  0  0  0  0
  3  1  1  0  0  0  0
  3  2  2  0  0  0  0
  4 11  1  0  0  0  0
  5 28  1  6  0  0  0
  5  3  1  0  0  0  0
  6 12  1  0  0  0  0
  6  1  2  0  0  0  0
  7  8  2  0  0  0  0
  9  8  1  0  0  0  0
 10 11  2  0  0  0  0
 10  5  1  0  0  0  0
 11  6  1  0  0  0  0
 12  9  2  0  0  0  0
 13  4  1  0  0  0  0
 14 13  1  0  0  0  0
 15 14  1  0  0  0  0
 16 17  1  0  0  0  0
 16 15  1  0  0  0  0
 18 24  1  0  0  0  0
 18 23  1  0  0  0  0
 19 23  2  0  0  0  0
 20 22  1  0  0  0  0
 20 21  2  0  0  0  0
 21 19  1  0  0  0  0
 22 18  2  0  0  0  0
 23 17  1  0  0  0  0
 24 25  1  0  0  0  0
 27 25  1  0  0  0  0
 27 26  1  0  0  0  0
 29 30  3  0  0  0  0
 30 28  1  0  0  0  0
 31 29  1  0  0  0  0
 32 34  1  6  0  0  0
 32 31  1  0  0  0  0
 32 48  1  0  0  0  0
 33 35  2  0  0  0  0
 35 34  2  0  0  0  0
 36 33  1  0  0  0  0
 37 36  1  0  0  0  0
 38 39  1  0  0  0  0
 38 37  1  0  0  0  0
 39 41  1  0  0  0  0
 40 39  1  0  0  0  0
 42 39  1  0  0  0  0
 42 43  1  0  0  0  0
 43 44  1  6  0  0  0
 43 45  1  0  0  0  0
 45 47  1  0  0  0  0
 47 46  1  0  0  0  0
 49 51  1  1  0  0  0
 49 50  1  0  0  0  0
 49 48  1  0  0  0  0
M  END
>  <MODEL>
8

>  <REMARK>
 VINA RESULT:      -5.9      1.930      3.990
  Name = 
  24 active torsions:
  status: ('A' for Active; 'I' for Inactive)
    1  A    between atoms: C_1  and  C_45
    2  A    between atoms: C_1  and  C_46
    3  A    between atoms: C_2  and  C_14
    4  A    between atoms: C_2  and  C_46
    5  A    between atoms: C_5  and  O_8
    6  A    between atoms: C_5  and  C_24
    7  A    between atoms: O_8  and  C_44
    8  A    between atoms: C_9  and  C_23
    9  A    between atoms: C_9  and  C_35
   10  A    between atoms: C_9  and  C_47
   11  A    between atoms: C_11  and  C_23
   12  A    between atoms: O_12  and  C_29
   13  A    between atoms: O_12  and  C_51
   14  A    between atoms: C_14  and  C_36
   15  A    between atoms: N_16  and  C_24
   16  A    between atoms: C_17  and  C_18
   17  A    between atoms: C_17  and  C_40
   18  A    between atoms: C_19  and  C_34
   19  A    between atoms: C_19  and  C_36
   20  A    between atoms: C_22  and  C_47
   21  A    between atoms: C_26  and  C_29
   22  A    between atoms: C_43  and  C_45
   23  A    between atoms: C_44  and  C_48
   24  A    between atoms: C_48  and  C_49
                            x       y       z     vdW  Elec       q    Type
                         _______ _______ _______ _____ _____    ______ ____

>  <TORSDO>
F 24

$$$$
=
 OpenBabel10222417113D

 51 53  0  0  1  0  0  0  0  0999 V2000
  188.1860  177.7050  145.2260 C   0  0  0  0  0  0  0  0  0  0  0  0
  186.0300  178.4850  145.8270 O   0  0  0  0  0  0  0  0  0  0  0  0
  186.8590  178.2560  144.9060 C   0  0  0  0  0  0  0  0  0  0  0  0
  189.6640  177.5370  141.7430 N   0  0  0  0  0  2  0  0  0  0  0  0
  186.4910  178.5880  143.4850 C   0  0  1  0  0  3  0  0  0  0  0  0
  189.1060  177.4810  144.1910 C   0  0  0  0  0  0  0  0  0  0  0  0
  188.5420  177.4130  146.5510 C   0  0  0  0  0  3  0  0  0  0  0  0
  189.8100  176.9030  146.8440 C   0  0  0  0  0  3  0  0  0  0  0  0
  190.7280  176.6820  145.8130 C   0  0  0  0  0  3  0  0  0  0  0  0
  187.5570  178.2750  142.5190 N   0  0  0  0  0  0  0  0  0  0  0  0
  188.7300  177.7860  142.7980 C   0  0  0  0  0  0  0  0  0  0  0  0
  190.3770  176.9670  144.4920 C   0  0  0  0  0  3  0  0  0  0  0  0
  189.3750  177.8540  140.3560 C   0  0  0  0  0  2  0  0  0  0  0  0
  190.2630  177.0370  139.4410 C   0  0  0  0  0  2  0  0  0  0  0  0
  190.0470  177.4100  138.1110 O   0  0  0  0  0  0  0  0  0  0  0  0
  191.0430  176.7490  137.3850 C   0  0  0  0  0  2  0  0  0  0  0  0
  191.7160  175.6910  138.2480 C   0  0  0  0  0  2  0  0  0  0  0  0
  193.6150  174.1860  137.4860 C   0  0  0  0  0  0  0  0  0  0  0  0
  191.3980  173.9040  136.5390 C   0  0  0  0  0  3  0  0  0  0  0  0
  193.2110  172.4660  135.8230 C   0  0  0  0  0  3  0  0  0  0  0  0
  191.8700  172.8520  135.7460 C   0  0  0  0  0  3  0  0  0  0  0  0
  194.0790  173.1290  136.6930 C   0  0  0  0  0  3  0  0  0  0  0  0
  192.2620  174.5760  137.4100 C   0  0  0  0  0  0  0  0  0  0  0  0
  194.5660  174.8520  138.4230 C   0  0  0  0  0  2  0  0  0  0  0  0
  195.8540  174.8200  137.8900 O   0  0  0  0  0  0  0  0  0  0  0  0
  196.6740  175.1540  140.0990 C   0  0  0  0  0  1  0  0  0  0  0  0
  196.6370  174.2440  138.8880 C   0  0  0  0  0  2  0  0  0  0  0  0
  185.2020  177.8780  143.0920 C   0  0  0  0  0  2  0  0  0  0  0  0
  184.2180  178.8670  140.8160 C   0  0  0  0  0  0  0  0  0  0  0  0
  184.6590  178.4380  141.8520 C   0  0  0  0  0  0  0  0  0  0  0  0
  183.6750  179.3510  139.5370 C   0  0  0  0  0  2  0  0  0  0  0  0
  182.8690  178.2750  138.8090 C   0  0  2  0  0  3  0  0  0  0  0  0
  186.1720  178.1450  137.3680 C   0  0  0  0  0  3  0  0  0  0  0  0
  183.7600  177.3930  137.9970 C   0  0  0  0  0  3  0  0  0  0  0  0
  184.9640  177.7760  137.6830 C   0  0  0  0  0  0  0  0  0  0  0  0
  187.0300  177.2500  136.5440 C   0  0  0  0  0  2  0  0  0  0  0  0
  186.3270  175.9300  136.2710 C   0  0  0  0  0  2  0  0  0  0  0  0
  186.8040  174.8480  137.2360 C   0  0  0  0  0  2  0  0  0  0  0  0
  186.6770  173.4370  136.6560 C   0  0  0  0  0  0  0  0  0  0  0  0
  187.9940  172.6960  136.8080 C   0  0  0  0  0  1  0  0  0  0  0  0
  186.3820  173.5460  135.1720 C   0  0  0  0  0  1  0  0  0  0  0  0
  185.5810  172.6320  137.3620 C   0  0  0  0  0  2  0  0  0  0  0  0
  184.2000  172.7920  136.7250 C   0  0  1  0  0  3  0  0  0  0  0  0
  183.3950  171.5220  136.9280 C   0  0  0  0  0  1  0  0  0  0  0  0
  183.4630  173.9500  137.3710 C   0  0  0  0  0  2  0  0  0  0  0  0
  182.9520  174.7040  135.0720 C   0  0  0  0  0  1  0  0  0  0  0  0
  182.3740  174.4610  136.4470 C   0  0  0  0  0  2  0  0  0  0  0  0
  181.7770  178.8950  137.9420 C   0  0  0  0  0  2  0  0  0  0  0  0
  180.3950  178.6300  138.5180 C   0  0  1  0  0  3  0  0  0  0  0  0
  179.5130  178.2850  137.4910 O   0  0  0  0  0  1  0  0  0  0  0  0
  180.4760  177.4920  139.5160 C   0  0  0  0  0  1  0  0  0  0  0  0
  1  7  1  0  0  0  0
  3  1  1  0  0  0  0
  3  2  2  0  0  0  0
  4 11  1  0  0  0  0
  5 28  1  6  0  0  0
  5  3  1  0  0  0  0
  6 12  1  0  0  0  0
  6  1  2  0  0  0  0
  7  8  2  0  0  0  0
  9  8  1  0  0  0  0
 10 11  2  0  0  0  0
 10  5  1  0  0  0  0
 11  6  1  0  0  0  0
 12  9  2  0  0  0  0
 13  4  1  0  0  0  0
 14 13  1  0  0  0  0
 15 14  1  0  0  0  0
 16 15  1  0  0  0  0
 16 17  1  0  0  0  0
 18 24  1  0  0  0  0
 19 23  2  0  0  0  0
 20 22  1  0  0  0  0
 21 20  2  0  0  0  0
 21 19  1  0  0  0  0
 22 18  2  0  0  0  0
 23 18  1  0  0  0  0
 23 17  1  0  0  0  0
 25 24  1  0  0  0  0
 25 27  1  0  0  0  0
 27 26  1  0  0  0  0
 29 30  3  0  0  0  0
 30 28  1  0  0  0  0
 31 29  1  0  0  0  0
 32 48  1  6  0  0  0
 32 31  1  0  0  0  0
 33 35  2  0  0  0  0
 34 32  1  0  0  0  0
 35 34  2  0  0  0  0
 36 33  1  0  0  0  0
 37 36  1  0  0  0  0
 37 38  1  0  0  0  0
 39 40  1  0  0  0  0
 39 38  1  0  0  0  0
 39 42  1  0  0  0  0
 41 39  1  0  0  0  0
 43 44  1  1  0  0  0
 43 42  1  0  0  0  0
 43 45  1  0  0  0  0
 46 47  1  0  0  0  0
 47 45  1  0  0  0  0
 48 49  1  0  0  0  0
 49 51  1  1  0  0  0
 50 49  1  0  0  0  0
M  END
>  <MODEL>
9

>  <REMARK>
 VINA RESULT:      -5.8      2.268      4.065
  Name = 
  24 active torsions:
  status: ('A' for Active; 'I' for Inactive)
    1  A    between atoms: C_1  and  C_45
    2  A    between atoms: C_1  and  C_46
    3  A    between atoms: C_2  and  C_14
    4  A    between atoms: C_2  and  C_46
    5  A    between atoms: C_5  and  O_8
    6  A    between atoms: C_5  and  C_24
    7  A    between atoms: O_8  and  C_44
    8  A    between atoms: C_9  and  C_23
    9  A    between atoms: C_9  and  C_35
   10  A    between atoms: C_9  and  C_47
   11  A    between atoms: C_11  and  C_23
   12  A    between atoms: O_12  and  C_29
   13  A    between atoms: O_12  and  C_51
   14  A    between atoms: C_14  and  C_36
   15  A    between atoms: N_16  and  C_24
   16  A    between atoms: C_17  and  C_18
   17  A    between atoms: C_17  and  C_40
   18  A    between atoms: C_19  and  C_34
   19  A    between atoms: C_19  and  C_36
   20  A    between atoms: C_22  and  C_47
   21  A    between atoms: C_26  and  C_29
   22  A    between atoms: C_43  and  C_45
   23  A    between atoms: C_44  and  C_48
   24  A    between atoms: C_48  and  C_49
                            x       y       z     vdW  Elec       q    Type
                         _______ _______ _______ _____ _____    ______ ____

>  <TORSDO>
F 24

$$$$
