=
 OpenBabel10222415123D

 34 39  0  0  1  0  0  0  0  0999 V2000
  187.6850  178.7040  147.7940 N   0  0  0  0  0  0  0  0  0  0  0  0
  189.7450  177.6910  148.3070 N   0  0  0  0  0  0  0  0  0  0  0  0
  188.7290  178.5310  148.6420 C   0  0  0  0  0  3  0  0  0  0  0  0
  190.9020  176.1360  146.7940 C   0  0  0  0  0  1  0  0  0  0  0  0
  187.6270  178.0620  146.5910 C   0  0  0  0  0  0  0  0  0  0  0  0
  189.7520  177.0320  147.1180 C   0  0  0  0  0  0  0  0  0  0  0  0
  188.7070  177.2280  146.2060 C   0  0  0  0  0  0  0  0  0  0  0  0
  185.3090  178.3480  143.6200 C   0  0  0  0  0  3  0  0  0  0  0  0
  184.0710  178.5690  144.2390 C   0  0  0  0  0  0  0  0  0  0  0  0
  186.4640  178.1720  144.3890 C   0  0  0  0  0  3  0  0  0  0  0  0
  184.0090  178.6520  145.6400 C   0  0  0  0  0  3  0  0  0  0  0  0
  185.1620  178.4770  146.4080 C   0  0  0  0  0  3  0  0  0  0  0  0
  186.3930  178.2040  145.7900 C   0  0  0  0  0  0  0  0  0  0  0  0
  181.5870  178.9200  144.0730 N   0  0  0  0  0  2  0  0  0  0  0  0
  182.8510  178.7360  143.4310 C   0  0  0  0  0  0  0  0  0  0  0  0
  182.9230  178.7310  142.1730 O   0  0  0  0  0  0  0  0  0  0  0  0
  179.5690  177.8890  143.5310 O   0  0  0  0  0  0  0  0  0  0  0  0
  180.3530  179.0390  143.3180 C   0  0  1  0  0  3  0  0  0  0  0  0
  179.1950  179.0420  144.2390 C   0  0  0  0  0  2  0  0  0  0  0  0
  188.8150  176.6460  144.8990 N   0  0  0  0  0  2  0  0  0  0  0  0
  189.2690  176.4160  142.6570 C   0  0  2  0  0  3  0  0  0  0  0  0
  189.2580  177.3670  143.7830 N   0  0  0  0  0  0  0  0  0  0  0  0
  190.5140  176.7280  143.3550 C   0  0  0  0  0  2  0  0  0  0  0  0
  188.1110  178.6330  139.8300 N   0  0  0  0  0  0  0  0  0  0  0  0
  190.3210  177.1540  140.4770 O   0  0  0  0  0  0  0  0  0  0  0  0
  190.2160  177.6010  139.1210 C   0  0  2  0  0  3  0  0  0  0  0  0
  188.1400  177.8640  141.0390 C   0  0  0  0  0  3  0  0  0  0  0  0
  189.2250  177.1530  141.3540 C   0  0  0  0  0  0  0  0  0  0  0  0
  189.0020  179.3870  137.7860 N   0  0  0  0  0  1  0  0  0  0  0  0
  189.0760  178.5790  138.9560 C   0  0  0  0  0  0  0  0  0  0  0  0
  192.4650  176.4480  138.0260 C   0  0  0  0  0  1  0  0  0  0  0  0
  191.2380  175.7290  137.7120 N   0  0  0  0  0  0  0  0  0  0  0  0
  189.9950  176.3820  138.2140 C   0  0  2  0  0  3  0  0  0  0  0  0
  190.4610  176.6400  136.8560 C   0  0  0  0  0  2  0  0  0  0  0  0
  1  3  1  0  0  0  0
  2  3  2  0  0  0  0
  4  6  1  0  0  0  0
  5  1  2  0  0  0  0
  6  2  1  0  0  0  0
  7  5  1  0  0  0  0
  7  6  2  0  0  0  0
  8  9  2  0  0  0  0
  8 10  1  0  0  0  0
  9 11  1  0  0  0  0
 10 13  2  0  0  0  0
 11 12  2  0  0  0  0
 13 12  1  0  0  0  0
 13  5  1  0  0  0  0
 15 14  1  0  0  0  0
 15  9  1  0  0  0  0
 16 15  2  0  0  0  0
 17 19  1  0  0  0  0
 18 17  1  0  0  0  0
 18 14  1  1  0  0  0
 18 19  1  0  0  0  0
 20  7  1  0  0  0  0
 21 28  1  6  0  0  0
 21 23  1  0  0  0  0
 21 22  1  0  0  0  0
 22 20  1  0  0  0  0
 23 22  1  0  0  0  0
 24 27  1  0  0  0  0
 25 28  1  0  0  0  0
 26 30  1  1  0  0  0
 26 25  1  0  0  0  0
 27 28  2  0  0  0  0
 29 30  1  0  0  0  0
 30 24  2  0  0  0  0
 32 31  1  0  0  0  0
 32 33  1  0  0  0  0
 33 34  1  6  0  0  0
 33 26  1  0  0  0  0
 34 32  1  0  0  0  0
M  END
>  <MODEL>
1

>  <REMARK>
 VINA RESULT:      -9.9      0.000      0.000
  Name = 
  7 active torsions:
  status: ('A' for Active; 'I' for Inactive)
    1  A    between atoms: C_8  and  C_15
    2  A    between atoms: C_9  and  C_18
    3  A    between atoms: N_10  and  N_32
    4  A    between atoms: N_11  and  C_26
    5  A    between atoms: C_13  and  C_16
    6  A    between atoms: C_25  and  C_31
    7  A    between atoms: N_32  and  C_34
                            x       y       z     vdW  Elec       q    Type
                         _______ _______ _______ _____ _____    ______ ____

>  <TORSDO>
F 7

$$$$
=
 OpenBabel10222415123D

 34 39  0  0  1  0  0  0  0  0999 V2000
  187.2040  178.7890  147.6920 N   0  0  0  0  0  0  0  0  0  0  0  0
  189.2280  177.7840  148.3470 N   0  0  0  0  0  0  0  0  0  0  0  0
  188.1880  178.6190  148.6110 C   0  0  0  0  0  3  0  0  0  0  0  0
  190.4930  176.2330  146.9170 C   0  0  0  0  0  1  0  0  0  0  0  0
  187.2320  178.1460  146.4890 C   0  0  0  0  0  0  0  0  0  0  0  0
  189.3200  177.1240  147.1610 C   0  0  0  0  0  0  0  0  0  0  0  0
  188.3390  177.3170  146.1790 C   0  0  0  0  0  0  0  0  0  0  0  0
  185.1090  178.3090  143.3670 C   0  0  0  0  0  3  0  0  0  0  0  0
  183.8490  178.6370  143.8900 C   0  0  0  0  0  0  0  0  0  0  0  0
  186.2060  178.1400  144.2170 C   0  0  0  0  0  3  0  0  0  0  0  0
  183.7110  178.8320  145.2740 C   0  0  0  0  0  3  0  0  0  0  0  0
  184.8070  178.6630  146.1230 C   0  0  0  0  0  3  0  0  0  0  0  0
  186.0560  178.2850  145.6050 C   0  0  0  0  0  0  0  0  0  0  0  0
  182.8230  178.5430  141.5970 N   0  0  0  0  0  2  0  0  0  0  0  0
  182.6890  178.7980  142.9980 C   0  0  0  0  0  0  0  0  0  0  0  0
  181.5740  179.1480  143.4710 O   0  0  0  0  0  0  0  0  0  0  0  0
  182.1300  179.6020  139.6410 O   0  0  0  0  0  0  0  0  0  0  0  0
  181.7200  178.7360  140.6730 C   0  0  1  0  0  3  0  0  0  0  0  0
  182.0900  178.2330  139.3330 C   0  0  0  0  0  2  0  0  0  0  0  0
  188.5400  176.7360  144.8830 N   0  0  0  0  0  2  0  0  0  0  0  0
  189.1660  176.5090  142.6820 C   0  0  2  0  0  3  0  0  0  0  0  0
  188.9990  177.4730  143.7850 N   0  0  0  0  0  0  0  0  0  0  0  0
  190.3300  176.9330  143.4570 C   0  0  0  0  0  2  0  0  0  0  0  0
  188.0700  178.6560  139.7780 N   0  0  0  0  0  0  0  0  0  0  0  0
  190.2750  177.2180  140.5210 O   0  0  0  0  0  0  0  0  0  0  0  0
  190.2070  177.6360  139.1540 C   0  0  2  0  0  3  0  0  0  0  0  0
  188.0700  177.9120  141.0020 C   0  0  0  0  0  3  0  0  0  0  0  0
  189.1530  177.2200  141.3640 C   0  0  0  0  0  0  0  0  0  0  0  0
  189.0140  179.3810  137.7470 N   0  0  0  0  0  1  0  0  0  0  0  0
  189.0620  178.5970  138.9350 C   0  0  0  0  0  0  0  0  0  0  0  0
  192.5050  176.4570  138.1950 C   0  0  0  0  0  1  0  0  0  0  0  0
  191.2940  175.7320  137.8380 N   0  0  0  0  0  0  0  0  0  0  0  0
  190.0280  176.3970  138.2650 C   0  0  2  0  0  3  0  0  0  0  0  0
  190.5600  176.6240  136.9260 C   0  0  0  0  0  2  0  0  0  0  0  0
  1  3  1  0  0  0  0
  2  3  2  0  0  0  0
  4  6  1  0  0  0  0
  5  1  2  0  0  0  0
  6  2  1  0  0  0  0
  7  5  1  0  0  0  0
  7  6  2  0  0  0  0
  8  9  2  0  0  0  0
  8 10  1  0  0  0  0
  9 11  1  0  0  0  0
 10 13  2  0  0  0  0
 11 12  2  0  0  0  0
 13 12  1  0  0  0  0
 13  5  1  0  0  0  0
 14 15  1  0  0  0  0
 15 16  2  0  0  0  0
 15  9  1  0  0  0  0
 17 18  1  0  0  0  0
 18 14  1  1  0  0  0
 19 17  1  0  0  0  0
 19 18  1  0  0  0  0
 20  7  1  0  0  0  0
 21 28  1  6  0  0  0
 21 23  1  0  0  0  0
 21 22  1  0  0  0  0
 22 20  1  0  0  0  0
 23 22  1  0  0  0  0
 24 27  1  0  0  0  0
 25 28  1  0  0  0  0
 26 30  1  1  0  0  0
 26 25  1  0  0  0  0
 27 28  2  0  0  0  0
 29 30  1  0  0  0  0
 30 24  2  0  0  0  0
 32 31  1  0  0  0  0
 32 33  1  0  0  0  0
 33 34  1  6  0  0  0
 33 26  1  0  0  0  0
 34 32  1  0  0  0  0
M  END
>  <MODEL>
2

>  <REMARK>
 VINA RESULT:      -9.5      1.200      1.547
  Name = 
  7 active torsions:
  status: ('A' for Active; 'I' for Inactive)
    1  A    between atoms: C_8  and  C_15
    2  A    between atoms: C_9  and  C_18
    3  A    between atoms: N_10  and  N_32
    4  A    between atoms: N_11  and  C_26
    5  A    between atoms: C_13  and  C_16
    6  A    between atoms: C_25  and  C_31
    7  A    between atoms: N_32  and  C_34
                            x       y       z     vdW  Elec       q    Type
                         _______ _______ _______ _____ _____    ______ ____

>  <TORSDO>
F 7

$$$$
=
 OpenBabel10222415123D

 34 39  0  0  1  0  0  0  0  0999 V2000
  187.7510  177.5850  147.2500 N   0  0  0  0  0  0  0  0  0  0  0  0
  190.0270  176.9980  147.3560 N   0  0  0  0  0  0  0  0  0  0  0  0
  188.8330  177.2010  147.9740 C   0  0  0  0  0  3  0  0  0  0  0  0
  191.5110  176.9770  145.3950 C   0  0  0  0  0  1  0  0  0  0  0  0
  187.8290  177.7900  145.9030 C   0  0  0  0  0  0  0  0  0  0  0  0
  190.1720  177.1970  146.0180 C   0  0  0  0  0  0  0  0  0  0  0  0
  189.0810  177.6370  145.2570 C   0  0  0  0  0  0  0  0  0  0  0  0
  184.2600  178.8140  145.2010 C   0  0  0  0  0  3  0  0  0  0  0  0
  184.1450  178.5420  143.8300 C   0  0  0  0  0  0  0  0  0  0  0  0
  185.4640  178.5780  145.8710 C   0  0  0  0  0  3  0  0  0  0  0  0
  185.2400  177.9920  143.1460 C   0  0  0  0  0  3  0  0  0  0  0  0
  186.4440  177.7560  143.8150 C   0  0  0  0  0  3  0  0  0  0  0  0
  186.5750  178.0770  145.1750 C   0  0  0  0  0  0  0  0  0  0  0  0
  181.6770  179.0210  143.8580 N   0  0  0  0  0  2  0  0  0  0  0  0
  182.8830  178.8070  143.1200 C   0  0  0  0  0  0  0  0  0  0  0  0
  182.8670  178.8590  141.8600 O   0  0  0  0  0  0  0  0  0  0  0  0
  179.6520  178.0450  143.2450 O   0  0  0  0  0  0  0  0  0  0  0  0
  180.4010  179.2360  143.1990 C   0  0  1  0  0  3  0  0  0  0  0  0
  179.2960  179.0450  144.1640 C   0  0  0  0  0  2  0  0  0  0  0  0
  189.2980  177.9900  143.8840 N   0  0  0  0  0  2  0  0  0  0  0  0
  189.6250  177.5970  141.6420 C   0  0  2  0  0  3  0  0  0  0  0  0
  190.0230  177.1820  142.9990 N   0  0  0  0  0  0  0  0  0  0  0  0
  189.0260  176.4070  142.2410 C   0  0  0  0  0  2  0  0  0  0  0  0
  192.9120  177.3070  139.8090 N   0  0  0  0  0  0  0  0  0  0  0  0
  190.4120  176.2020  139.6830 O   0  0  0  0  0  0  0  0  0  0  0  0
  191.2690  175.9910  138.5560 C   0  0  2  0  0  3  0  0  0  0  0  0
  191.8830  177.7390  140.7070 C   0  0  0  0  0  3  0  0  0  0  0  0
  190.6680  177.1890  140.6470 C   0  0  0  0  0  0  0  0  0  0  0  0
  193.7460  176.0480  138.0030 N   0  0  0  0  0  1  0  0  0  0  0  0
  192.6760  176.4600  138.8470 C   0  0  0  0  0  0  0  0  0  0  0  0
  189.5430  174.6090  136.9130 C   0  0  0  0  0  1  0  0  0  0  0  0
  189.7010  176.0070  136.5370 N   0  0  0  0  0  0  0  0  0  0  0  0
  190.7010  176.7560  137.3520 C   0  0  2  0  0  3  0  0  0  0  0  0
  191.0990  176.1350  136.0940 C   0  0  0  0  0  2  0  0  0  0  0  0
  1  3  1  0  0  0  0
  2  3  2  0  0  0  0
  4  6  1  0  0  0  0
  5  1  2  0  0  0  0
  6  2  1  0  0  0  0
  7  5  1  0  0  0  0
  7  6  2  0  0  0  0
  8 10  1  0  0  0  0
  9  8  2  0  0  0  0
 11 12  2  0  0  0  0
 11  9  1  0  0  0  0
 12 13  1  0  0  0  0
 13 10  2  0  0  0  0
 13  5  1  0  0  0  0
 15  9  1  0  0  0  0
 15 14  1  0  0  0  0
 16 15  2  0  0  0  0
 17 19  1  0  0  0  0
 18 17  1  0  0  0  0
 18 14  1  1  0  0  0
 18 19  1  0  0  0  0
 20  7  1  0  0  0  0
 21 28  1  6  0  0  0
 21 23  1  0  0  0  0
 21 22  1  0  0  0  0
 22 20  1  0  0  0  0
 23 22  1  0  0  0  0
 24 27  1  0  0  0  0
 25 28  1  0  0  0  0
 26 30  1  1  0  0  0
 26 25  1  0  0  0  0
 28 27  2  0  0  0  0
 29 30  1  0  0  0  0
 30 24  2  0  0  0  0
 32 31  1  0  0  0  0
 32 33  1  0  0  0  0
 33 34  1  6  0  0  0
 33 26  1  0  0  0  0
 34 32  1  0  0  0  0
M  END
>  <MODEL>
3

>  <REMARK>
 VINA RESULT:      -9.3      1.442      2.203
  Name = 
  7 active torsions:
  status: ('A' for Active; 'I' for Inactive)
    1  A    between atoms: C_8  and  C_15
    2  A    between atoms: C_9  and  C_18
    3  A    between atoms: N_10  and  N_32
    4  A    between atoms: N_11  and  C_26
    5  A    between atoms: C_13  and  C_16
    6  A    between atoms: C_25  and  C_31
    7  A    between atoms: N_32  and  C_34
                            x       y       z     vdW  Elec       q    Type
                         _______ _______ _______ _____ _____    ______ ____

>  <TORSDO>
F 7

$$$$
=
 OpenBabel10222415123D

 34 39  0  0  1  0  0  0  0  0999 V2000
  181.0890  178.2020  141.8600 N   0  0  0  0  0  0  0  0  0  0  0  0
  180.4440  178.7290  139.6600 N   0  0  0  0  0  0  0  0  0  0  0  0
  180.1380  178.2460  140.8940 C   0  0  0  0  0  3  0  0  0  0  0  0
  181.9860  179.6550  137.9830 C   0  0  0  0  0  1  0  0  0  0  0  0
  182.3660  178.6220  141.6250 C   0  0  0  0  0  0  0  0  0  0  0  0
  181.7020  179.1510  139.3600 C   0  0  0  0  0  0  0  0  0  0  0  0
  182.7120  179.0740  140.3270 C   0  0  0  0  0  0  0  0  0  0  0  0
  185.5140  178.2430  143.6820 C   0  0  0  0  0  3  0  0  0  0  0  0
  185.0780  178.6410  144.9540 C   0  0  0  0  0  0  0  0  0  0  0  0
  184.6310  178.2490  142.5980 C   0  0  0  0  0  3  0  0  0  0  0  0
  183.7350  179.0070  145.1360 C   0  0  0  0  0  3  0  0  0  0  0  0
  182.8520  179.0110  144.0530 C   0  0  0  0  0  3  0  0  0  0  0  0
  183.3020  178.6630  142.7690 C   0  0  0  0  0  0  0  0  0  0  0  0
  187.3180  178.0870  145.9540 N   0  0  0  0  0  2  0  0  0  0  0  0
  186.0120  178.6530  146.0930 C   0  0  0  0  0  0  0  0  0  0  0  0
  185.6650  179.1750  147.1870 O   0  0  0  0  0  0  0  0  0  0  0  0
  188.2060  176.7500  147.6420 O   0  0  0  0  0  0  0  0  0  0  0  0
  188.2520  178.0330  147.0630 C   0  0  1  0  0  3  0  0  0  0  0  0
  189.2940  177.0170  146.7960 C   0  0  0  0  0  2  0  0  0  0  0  0
  184.0600  179.3750  139.9400 N   0  0  0  0  0  2  0  0  0  0  0  0
  186.1120  178.9920  138.9770 C   0  0  2  0  0  3  0  0  0  0  0  0
  185.0470  178.3920  139.8000 N   0  0  0  0  0  0  0  0  0  0  0  0
  185.1330  178.1010  138.3580 C   0  0  0  0  0  2  0  0  0  0  0  0
  189.0340  176.6620  138.4450 N   0  0  0  0  0  0  0  0  0  0  0  0
  188.2590  178.5690  140.2480 O   0  0  0  0  0  0  0  0  0  0  0  0
  189.3410  177.7150  140.6340 C   0  0  2  0  0  3  0  0  0  0  0  0
  187.7700  177.3220  138.3030 C   0  0  0  0  0  3  0  0  0  0  0  0
  187.4020  178.2580  139.1810 C   0  0  0  0  0  0  0  0  0  0  0  0
  191.0640  176.2010  139.5450 N   0  0  0  0  0  1  0  0  0  0  0  0
  189.8060  176.8660  139.4750 C   0  0  0  0  0  0  0  0  0  0  0  0
  190.1580  178.4250  143.1670 C   0  0  0  0  0  1  0  0  0  0  0  0
  189.2600  177.2800  143.1520 N   0  0  0  0  0  0  0  0  0  0  0  0
  188.8740  176.8160  141.7880 C   0  0  2  0  0  3  0  0  0  0  0  0
  190.0060  176.2070  142.4770 C   0  0  0  0  0  2  0  0  0  0  0  0
  2  3  1  0  0  0  0
  3  1  2  0  0  0  0
  4  6  1  0  0  0  0
  5  1  1  0  0  0  0
  5 13  1  0  0  0  0
  6  2  2  0  0  0  0
  6  7  1  0  0  0  0
  7  5  2  0  0  0  0
  8  9  1  0  0  0  0
  9 11  2  0  0  0  0
  9 15  1  0  0  0  0
 10 13  1  0  0  0  0
 10  8  2  0  0  0  0
 12 11  1  0  0  0  0
 13 12  2  0  0  0  0
 14 15  1  0  0  0  0
 15 16  2  0  0  0  0
 18 14  1  6  0  0  0
 18 17  1  0  0  0  0
 19 18  1  0  0  0  0
 19 17  1  0  0  0  0
 20  7  1  0  0  0  0
 21 28  1  1  0  0  0
 21 22  1  0  0  0  0
 22 20  1  0  0  0  0
 23 21  1  0  0  0  0
 23 22  1  0  0  0  0
 24 30  2  0  0  0  0
 25 26  1  0  0  0  0
 26 30  1  6  0  0  0
 26 33  1  0  0  0  0
 27 24  1  0  0  0  0
 27 28  2  0  0  0  0
 28 25  1  0  0  0  0
 30 29  1  0  0  0  0
 32 31  1  0  0  0  0
 33 34  1  6  0  0  0
 33 32  1  0  0  0  0
 34 32  1  0  0  0  0
M  END
>  <MODEL>
4

>  <REMARK>
 VINA RESULT:      -8.7      2.841      6.767
  Name = 
  7 active torsions:
  status: ('A' for Active; 'I' for Inactive)
    1  A    between atoms: C_8  and  C_15
    2  A    between atoms: C_9  and  C_18
    3  A    between atoms: N_10  and  N_32
    4  A    between atoms: N_11  and  C_26
    5  A    between atoms: C_13  and  C_16
    6  A    between atoms: C_25  and  C_31
    7  A    between atoms: N_32  and  C_34
                            x       y       z     vdW  Elec       q    Type
                         _______ _______ _______ _____ _____    ______ ____

>  <TORSDO>
F 7

$$$$
=
 OpenBabel10222415123D

 34 39  0  0  1  0  0  0  0  0999 V2000
  185.6930  179.4630  146.8550 N   0  0  0  0  0  0  0  0  0  0  0  0
  187.4430  178.5210  148.1130 N   0  0  0  0  0  0  0  0  0  0  0  0
  186.4230  179.4120  147.9970 C   0  0  0  0  0  3  0  0  0  0  0  0
  188.9100  176.7380  147.2660 C   0  0  0  0  0  1  0  0  0  0  0  0
  185.9620  178.6430  145.7980 C   0  0  0  0  0  0  0  0  0  0  0  0
  187.7690  177.6850  147.0900 C   0  0  0  0  0  0  0  0  0  0  0  0
  187.0580  177.7490  145.8850 C   0  0  0  0  0  0  0  0  0  0  0  0
  182.7750  178.9010  143.7840 C   0  0  0  0  0  3  0  0  0  0  0  0
  183.2320  178.6400  142.4840 C   0  0  0  0  0  0  0  0  0  0  0  0
  183.6680  178.9120  144.8590 C   0  0  0  0  0  3  0  0  0  0  0  0
  184.5900  178.3510  142.2800 C   0  0  0  0  0  3  0  0  0  0  0  0
  185.4830  178.3600  143.3540 C   0  0  0  0  0  3  0  0  0  0  0  0
  185.0350  178.6720  144.6470 C   0  0  0  0  0  0  0  0  0  0  0  0
  182.6260  177.9490  140.1440 N   0  0  0  0  0  2  0  0  0  0  0  0
  182.2950  178.6460  141.3480 C   0  0  0  0  0  0  0  0  0  0  0  0
  181.1950  179.2550  141.4410 O   0  0  0  0  0  0  0  0  0  0  0  0
  181.9840  179.1540  138.2550 O   0  0  0  0  0  0  0  0  0  0  0  0
  181.7560  177.9700  138.9820 C   0  0  1  0  0  3  0  0  0  0  0  0
  182.5660  177.9840  137.7440 C   0  0  0  0  0  2  0  0  0  0  0  0
  187.5200  176.9710  144.7720 N   0  0  0  0  0  2  0  0  0  0  0  0
  189.4160  176.6700  143.5070 C   0  0  2  0  0  3  0  0  0  0  0  0
  188.2330  177.5270  143.7020 N   0  0  0  0  0  0  0  0  0  0  0  0
  189.5430  177.9250  144.2460 C   0  0  0  0  0  2  0  0  0  0  0  0
  191.7980  177.2740  140.6410 N   0  0  0  0  0  0  0  0  0  0  0  0
  189.1640  176.6200  140.9890 O   0  0  0  0  0  0  0  0  0  0  0  0
  189.5580  177.0440  139.6800 C   0  0  2  0  0  3  0  0  0  0  0  0
  191.2450  177.1740  141.9590 C   0  0  0  0  0  3  0  0  0  0  0  0
  189.9610  176.8450  142.1220 C   0  0  0  0  0  0  0  0  0  0  0  0
  191.6730  177.2420  138.2910 N   0  0  0  0  0  1  0  0  0  0  0  0
  191.0600  177.1600  139.5730 C   0  0  0  0  0  0  0  0  0  0  0  0
  187.5110  177.0560  137.8360 C   0  0  0  0  0  1  0  0  0  0  0  0
  187.7430  178.3570  138.4480 N   0  0  0  0  0  0  0  0  0  0  0  0
  188.9050  178.4010  139.3820 C   0  0  2  0  0  3  0  0  0  0  0  0
  189.0740  178.7760  137.9830 C   0  0  0  0  0  2  0  0  0  0  0  0
  1  3  1  0  0  0  0
  3  2  2  0  0  0  0
  5  7  1  0  0  0  0
  5  1  2  0  0  0  0
  6  4  1  0  0  0  0
  6  2  1  0  0  0  0
  7  6  2  0  0  0  0
  8 10  1  0  0  0  0
  9  8  2  0  0  0  0
 11  9  1  0  0  0  0
 11 12  2  0  0  0  0
 12 13  1  0  0  0  0
 13 10  2  0  0  0  0
 13  5  1  0  0  0  0
 14 15  1  0  0  0  0
 15 16  2  0  0  0  0
 15  9  1  0  0  0  0
 17 18  1  0  0  0  0
 18 14  1  1  0  0  0
 19 17  1  0  0  0  0
 19 18  1  0  0  0  0
 20  7  1  0  0  0  0
 21 28  1  6  0  0  0
 21 22  1  0  0  0  0
 21 23  1  0  0  0  0
 22 23  1  0  0  0  0
 22 20  1  0  0  0  0
 24 27  1  0  0  0  0
 25 28  1  0  0  0  0
 26 30  1  1  0  0  0
 26 25  1  0  0  0  0
 27 28  2  0  0  0  0
 29 30  1  0  0  0  0
 30 24  2  0  0  0  0
 31 32  1  0  0  0  0
 32 33  1  0  0  0  0
 33 34  1  6  0  0  0
 33 26  1  0  0  0  0
 34 32  1  0  0  0  0
M  END
>  <MODEL>
5

>  <REMARK>
 VINA RESULT:      -8.7      2.123      3.118
  Name = 
  7 active torsions:
  status: ('A' for Active; 'I' for Inactive)
    1  A    between atoms: C_8  and  C_15
    2  A    between atoms: C_9  and  C_18
    3  A    between atoms: N_10  and  N_32
    4  A    between atoms: N_11  and  C_26
    5  A    between atoms: C_13  and  C_16
    6  A    between atoms: C_25  and  C_31
    7  A    between atoms: N_32  and  C_34
                            x       y       z     vdW  Elec       q    Type
                         _______ _______ _______ _____ _____    ______ ____

>  <TORSDO>
F 7

$$$$
=
 OpenBabel10222415123D

 34 39  0  0  1  0  0  0  0  0999 V2000
  187.7130  177.5460  146.2670 N   0  0  0  0  0  0  0  0  0  0  0  0
  189.9820  177.1620  145.7770 N   0  0  0  0  0  0  0  0  0  0  0  0
  188.9600  177.1980  146.6730 C   0  0  0  0  0  3  0  0  0  0  0  0
  190.9490  177.4570  143.5350 C   0  0  0  0  0  1  0  0  0  0  0  0
  187.4520  177.8790  144.9700 C   0  0  0  0  0  0  0  0  0  0  0  0
  189.7870  177.4950  144.4720 C   0  0  0  0  0  0  0  0  0  0  0  0
  188.5190  177.9010  144.0380 C   0  0  0  0  0  0  0  0  0  0  0  0
  184.3280  178.2200  142.8710 C   0  0  0  0  0  3  0  0  0  0  0  0
  183.3880  178.6520  143.8180 C   0  0  0  0  0  0  0  0  0  0  0  0
  185.6470  177.9580  143.2510 C   0  0  0  0  0  3  0  0  0  0  0  0
  183.7960  178.8580  145.1450 C   0  0  0  0  0  3  0  0  0  0  0  0
  185.1150  178.5980  145.5260 C   0  0  0  0  0  3  0  0  0  0  0  0
  186.0430  178.1160  144.5890 C   0  0  0  0  0  0  0  0  0  0  0  0
  181.6590  179.0680  142.0400 N   0  0  0  0  0  2  0  0  0  0  0  0
  181.9930  178.9100  143.4220 C   0  0  0  0  0  0  0  0  0  0  0  0
  181.0910  178.9780  144.2990 O   0  0  0  0  0  0  0  0  0  0  0  0
  180.1170  180.7670  141.6380 O   0  0  0  0  0  0  0  0  0  0  0  0
  180.3070  179.3720  141.6080 C   0  0  1  0  0  3  0  0  0  0  0  0
  180.3440  180.1930  140.3770 C   0  0  0  0  0  2  0  0  0  0  0  0
  188.3760  178.3960  142.7000 N   0  0  0  0  0  2  0  0  0  0  0  0
  189.0560  178.1870  140.5130 C   0  0  2  0  0  3  0  0  0  0  0  0
  188.2700  177.5530  141.5870 N   0  0  0  0  0  0  0  0  0  0  0  0
  187.6030  178.3420  140.5370 C   0  0  0  0  0  2  0  0  0  0  0  0
  190.9500  175.5080  138.6470 N   0  0  0  0  0  0  0  0  0  0  0  0
  188.5720  176.8420  138.4250 O   0  0  0  0  0  0  0  0  0  0  0  0
  189.0070  176.1030  137.2800 C   0  0  2  0  0  3  0  0  0  0  0  0
  190.6030  176.5320  139.5880 C   0  0  0  0  0  3  0  0  0  0  0  0
  189.4370  177.1730  139.4790 C   0  0  0  0  0  0  0  0  0  0  0  0
  190.5910  174.1980  136.7240 N   0  0  0  0  0  1  0  0  0  0  0  0
  190.2070  175.2460  137.6090 C   0  0  0  0  0  0  0  0  0  0  0  0
  187.0290  176.6480  135.4420 C   0  0  0  0  0  1  0  0  0  0  0  0
  188.2390  177.4300  135.2340 N   0  0  0  0  0  0  0  0  0  0  0  0
  189.3600  177.0900  136.1580 C   0  0  2  0  0  3  0  0  0  0  0  0
  189.2720  176.4560  134.8470 C   0  0  0  0  0  2  0  0  0  0  0  0
  1  3  1  0  0  0  0
  2  3  2  0  0  0  0
  4  6  1  0  0  0  0
  5  1  2  0  0  0  0
  6  2  1  0  0  0  0
  7  6  2  0  0  0  0
  7  5  1  0  0  0  0
  8 10  2  0  0  0  0
  8  9  1  0  0  0  0
  9 11  2  0  0  0  0
 10 13  1  0  0  0  0
 11 12  1  0  0  0  0
 13  5  1  0  0  0  0
 13 12  2  0  0  0  0
 14 15  1  0  0  0  0
 15  9  1  0  0  0  0
 15 16  2  0  0  0  0
 18 17  1  0  0  0  0
 18 14  1  1  0  0  0
 19 18  1  0  0  0  0
 19 17  1  0  0  0  0
 20  7  1  0  0  0  0
 21 28  1  6  0  0  0
 21 23  1  0  0  0  0
 21 22  1  0  0  0  0
 22 20  1  0  0  0  0
 23 22  1  0  0  0  0
 24 27  1  0  0  0  0
 25 28  1  0  0  0  0
 26 30  1  1  0  0  0
 26 25  1  0  0  0  0
 28 27  2  0  0  0  0
 29 30  1  0  0  0  0
 30 24  2  0  0  0  0
 32 31  1  0  0  0  0
 32 33  1  0  0  0  0
 33 34  1  6  0  0  0
 33 26  1  0  0  0  0
 34 32  1  0  0  0  0
M  END
>  <MODEL>
6

>  <REMARK>
 VINA RESULT:      -8.7      1.821      2.939
  Name = 
  7 active torsions:
  status: ('A' for Active; 'I' for Inactive)
    1  A    between atoms: C_8  and  C_15
    2  A    between atoms: C_9  and  C_18
    3  A    between atoms: N_10  and  N_32
    4  A    between atoms: N_11  and  C_26
    5  A    between atoms: C_13  and  C_16
    6  A    between atoms: C_25  and  C_31
    7  A    between atoms: N_32  and  C_34
                            x       y       z     vdW  Elec       q    Type
                         _______ _______ _______ _____ _____    ______ ____

>  <TORSDO>
F 7

$$$$
=
 OpenBabel10222415123D

 34 39  0  0  1  0  0  0  0  0999 V2000
  180.0550  177.7530  140.2030 N   0  0  0  0  0  0  0  0  0  0  0  0
  178.9780  177.9280  142.2870 N   0  0  0  0  0  0  0  0  0  0  0  0
  178.9310  177.6540  140.9570 C   0  0  0  0  0  3  0  0  0  0  0  0
  180.1220  178.6340  144.3460 C   0  0  0  0  0  1  0  0  0  0  0  0
  181.2460  178.1380  140.7460 C   0  0  0  0  0  0  0  0  0  0  0  0
  180.1320  178.3280  142.8850 C   0  0  0  0  0  0  0  0  0  0  0  0
  181.2960  178.4810  142.1200 C   0  0  0  0  0  0  0  0  0  0  0  0
  184.2100  179.2540  138.6840 C   0  0  0  0  0  3  0  0  0  0  0  0
  184.6750  178.0370  138.1620 C   0  0  0  0  0  0  0  0  0  0  0  0
  183.1000  179.2820  139.5340 C   0  0  0  0  0  3  0  0  0  0  0  0
  183.9880  176.8520  138.4710 C   0  0  0  0  0  3  0  0  0  0  0  0
  182.8780  176.8800  139.3190 C   0  0  0  0  0  3  0  0  0  0  0  0
  182.4450  178.0900  139.8820 C   0  0  0  0  0  0  0  0  0  0  0  0
  187.0720  178.6330  137.6930 N   0  0  0  0  0  2  0  0  0  0  0  0
  185.8540  178.0050  137.2820 C   0  0  0  0  0  0  0  0  0  0  0  0
  185.7960  177.4120  136.1710 O   0  0  0  0  0  0  0  0  0  0  0  0
  189.0630  179.7470  137.2220 O   0  0  0  0  0  0  0  0  0  0  0  0
  188.2440  178.6680  136.8380 C   0  0  1  0  0  3  0  0  0  0  0  0
  189.4660  178.4720  137.6480 C   0  0  0  0  0  2  0  0  0  0  0  0
  182.4560  179.0530  142.7390 N   0  0  0  0  0  2  0  0  0  0  0  0
  184.6090  179.1750  143.5370 C   0  0  2  0  0  3  0  0  0  0  0  0
  183.4590  178.2760  143.3330 N   0  0  0  0  0  0  0  0  0  0  0  0
  184.5880  178.2740  142.3880 C   0  0  0  0  0  2  0  0  0  0  0  0
  186.2460  178.5250  146.8760 N   0  0  0  0  0  0  0  0  0  0  0  0
  186.4230  177.5890  144.3110 O   0  0  0  0  0  0  0  0  0  0  0  0
  187.4870  177.2380  145.2010 C   0  0  2  0  0  3  0  0  0  0  0  0
  185.4340  179.0920  145.8400 C   0  0  0  0  0  3  0  0  0  0  0  0
  185.5180  178.6240  144.5930 C   0  0  0  0  0  0  0  0  0  0  0  0
  187.9150  177.0820  147.6990 N   0  0  0  0  0  1  0  0  0  0  0  0
  187.1570  177.6280  146.6230 C   0  0  0  0  0  0  0  0  0  0  0  0
  188.9490  176.0070  143.2170 C   0  0  0  0  0  1  0  0  0  0  0  0
  189.4870  177.3020  143.6100 N   0  0  0  0  0  0  0  0  0  0  0  0
  188.7690  177.9490  144.7460 C   0  0  2  0  0  3  0  0  0  0  0  0
  189.9480  177.1290  144.9960 C   0  0  0  0  0  2  0  0  0  0  0  0
  1  5  2  0  0  0  0
  1  3  1  0  0  0  0
  2  6  1  0  0  0  0
  3  2  2  0  0  0  0
  5  7  1  0  0  0  0
  6  4  1  0  0  0  0
  7 20  1  0  0  0  0
  7  6  2  0  0  0  0
  8 10  1  0  0  0  0
  9 11  1  0  0  0  0
  9  8  2  0  0  0  0
 10 13  2  0  0  0  0
 11 12  2  0  0  0  0
 12 13  1  0  0  0  0
 13  5  1  0  0  0  0
 15 14  1  0  0  0  0
 15  9  1  0  0  0  0
 16 15  2  0  0  0  0
 17 19  1  0  0  0  0
 18 17  1  0  0  0  0
 18 19  1  0  0  0  0
 18 14  1  1  0  0  0
 20 22  1  0  0  0  0
 21 28  1  1  0  0  0
 22 21  1  0  0  0  0
 23 22  1  0  0  0  0
 23 21  1  0  0  0  0
 25 28  1  0  0  0  0
 26 25  1  6  0  0  0
 26 30  1  0  0  0  0
 27 24  1  0  0  0  0
 28 27  2  0  0  0  0
 30 24  2  0  0  0  0
 30 29  1  0  0  0  0
 31 32  1  0  0  0  0
 32 33  1  0  0  0  0
 32 34  1  0  0  0  0
 33 34  1  1  0  0  0
 33 26  1  0  0  0  0
M  END
>  <MODEL>
7

>  <REMARK>
 VINA RESULT:      -8.7      2.955      8.277
  Name = 
  7 active torsions:
  status: ('A' for Active; 'I' for Inactive)
    1  A    between atoms: C_8  and  C_15
    2  A    between atoms: C_9  and  C_18
    3  A    between atoms: N_10  and  N_32
    4  A    between atoms: N_11  and  C_26
    5  A    between atoms: C_13  and  C_16
    6  A    between atoms: C_25  and  C_31
    7  A    between atoms: N_32  and  C_34
                            x       y       z     vdW  Elec       q    Type
                         _______ _______ _______ _____ _____    ______ ____

>  <TORSDO>
F 7

$$$$
=
 OpenBabel10222415123D

 34 39  0  0  1  0  0  0  0  0999 V2000
  191.4680  176.6430  139.4310 N   0  0  0  0  0  0  0  0  0  0  0  0
  190.3730  177.0490  137.3890 N   0  0  0  0  0  0  0  0  0  0  0  0
  191.4240  176.5330  138.0790 C   0  0  0  0  0  3  0  0  0  0  0  0
  188.2430  178.2670  137.2150 C   0  0  0  0  0  1  0  0  0  0  0  0
  190.4810  177.2760  140.1280 C   0  0  0  0  0  0  0  0  0  0  0  0
  189.3640  177.7030  138.0250 C   0  0  0  0  0  0  0  0  0  0  0  0
  189.4090  177.8680  139.4160 C   0  0  0  0  0  0  0  0  0  0  0  0
  189.8570  176.2110  143.7000 C   0  0  0  0  0  3  0  0  0  0  0  0
  190.5630  177.1860  144.4210 C   0  0  0  0  0  0  0  0  0  0  0  0
  189.8420  176.2370  142.3030 C   0  0  0  0  0  3  0  0  0  0  0  0
  191.2210  178.2110  143.7230 C   0  0  0  0  0  3  0  0  0  0  0  0
  191.2050  178.2380  142.3270 C   0  0  0  0  0  3  0  0  0  0  0  0
  190.5420  177.2330  141.6050 C   0  0  0  0  0  0  0  0  0  0  0  0
  189.3870  177.3110  146.6390 N   0  0  0  0  0  2  0  0  0  0  0  0
  190.5960  177.1490  145.8920 C   0  0  0  0  0  0  0  0  0  0  0  0
  191.6870  176.9610  146.4940 O   0  0  0  0  0  0  0  0  0  0  0  0
  189.0530  178.6280  148.5320 O   0  0  0  0  0  0  0  0  0  0  0  0
  189.3790  177.3310  148.0910 C   0  0  1  0  0  3  0  0  0  0  0  0
  188.0260  177.6720  148.5830 C   0  0  0  0  0  2  0  0  0  0  0  0
  188.4180  178.6940  140.0420 N   0  0  0  0  0  2  0  0  0  0  0  0
  186.5690  179.2880  141.2740 C   0  0  2  0  0  3  0  0  0  0  0  0
  187.2040  178.1880  140.5260 N   0  0  0  0  0  0  0  0  0  0  0  0
  187.2940  178.2450  141.9950 C   0  0  0  0  0  2  0  0  0  0  0  0
  183.1490  178.6470  142.7360 N   0  0  0  0  0  0  0  0  0  0  0  0
  184.2480  179.1330  140.2780 O   0  0  0  0  0  0  0  0  0  0  0  0
  182.9030  178.6420  140.3000 C   0  0  2  0  0  3  0  0  0  0  0  0
  184.5660  178.8040  142.5950 C   0  0  0  0  0  3  0  0  0  0  0  0
  185.0940  179.0510  141.3940 C   0  0  0  0  0  0  0  0  0  0  0  0
  180.9480  178.4950  141.9130 N   0  0  0  0  0  1  0  0  0  0  0  0
  182.3510  178.6280  141.7060 C   0  0  0  0  0  0  0  0  0  0  0  0
  182.0210  178.3830  137.7030 C   0  0  0  0  0  1  0  0  0  0  0  0
  182.4880  177.1300  138.2800 N   0  0  0  0  0  0  0  0  0  0  0  0
  182.8850  177.2220  139.7150 C   0  0  2  0  0  3  0  0  0  0  0  0
  181.5320  176.8150  139.3540 C   0  0  0  0  0  2  0  0  0  0  0  0
  1  5  1  0  0  0  0
  2  6  2  0  0  0  0
  2  3  1  0  0  0  0
  3  1  2  0  0  0  0
  4  6  1  0  0  0  0
  5 13  1  0  0  0  0
  6  7  1  0  0  0  0
  7 20  1  0  0  0  0
  7  5  2  0  0  0  0
  8  9  1  0  0  0  0
  9 15  1  0  0  0  0
 10  8  2  0  0  0  0
 11  9  2  0  0  0  0
 12 11  1  0  0  0  0
 13 10  1  0  0  0  0
 13 12  2  0  0  0  0
 15 16  2  0  0  0  0
 15 14  1  0  0  0  0
 17 19  1  0  0  0  0
 18 14  1  6  0  0  0
 18 17  1  0  0  0  0
 18 19  1  0  0  0  0
 20 22  1  0  0  0  0
 21 28  1  1  0  0  0
 21 23  1  0  0  0  0
 22 21  1  0  0  0  0
 22 23  1  0  0  0  0
 25 28  1  0  0  0  0
 26 25  1  1  0  0  0
 26 30  1  0  0  0  0
 27 24  1  0  0  0  0
 28 27  2  0  0  0  0
 30 29  1  0  0  0  0
 30 24  2  0  0  0  0
 31 32  1  0  0  0  0
 32 34  1  0  0  0  0
 32 33  1  0  0  0  0
 33 34  1  1  0  0  0
 33 26  1  0  0  0  0
M  END
>  <MODEL>
8

>  <REMARK>
 VINA RESULT:      -8.6      2.930      7.890
  Name = 
  7 active torsions:
  status: ('A' for Active; 'I' for Inactive)
    1  A    between atoms: C_8  and  C_15
    2  A    between atoms: C_9  and  C_18
    3  A    between atoms: N_10  and  N_32
    4  A    between atoms: N_11  and  C_26
    5  A    between atoms: C_13  and  C_16
    6  A    between atoms: C_25  and  C_31
    7  A    between atoms: N_32  and  C_34
                            x       y       z     vdW  Elec       q    Type
                         _______ _______ _______ _____ _____    ______ ____

>  <TORSDO>
F 7

$$$$
=
 OpenBabel10222415123D

 34 39  0  0  1  0  0  0  0  0999 V2000
  188.9040  176.7120  146.6340 N   0  0  0  0  0  0  0  0  0  0  0  0
  187.3740  177.6720  148.1420 N   0  0  0  0  0  0  0  0  0  0  0  0
  188.4030  176.8190  147.8910 C   0  0  0  0  0  3  0  0  0  0  0  0
  185.6710  179.3160  147.4780 C   0  0  0  0  0  1  0  0  0  0  0  0
  188.3910  177.4350  145.5970 C   0  0  0  0  0  0  0  0  0  0  0  0
  186.8110  178.4100  147.1480 C   0  0  0  0  0  0  0  0  0  0  0  0
  187.2810  178.2840  145.8340 C   0  0  0  0  0  0  0  0  0  0  0  0
  189.3740  176.2670  142.1400 C   0  0  0  0  0  3  0  0  0  0  0  0
  190.4430  177.1240  141.8380 C   0  0  0  0  0  0  0  0  0  0  0  0
  188.7010  176.3790  143.3600 C   0  0  0  0  0  3  0  0  0  0  0  0
  190.8560  178.0680  142.7920 C   0  0  0  0  0  3  0  0  0  0  0  0
  190.1840  178.1790  144.0120 C   0  0  0  0  0  3  0  0  0  0  0  0
  189.0810  177.3560  144.2920 C   0  0  0  0  0  0  0  0  0  0  0  0
  190.5990  176.2050  139.5030 N   0  0  0  0  0  2  0  0  0  0  0  0
  191.1410  177.0200  140.5460 C   0  0  0  0  0  0  0  0  0  0  0  0
  192.2100  177.6590  140.3540 O   0  0  0  0  0  0  0  0  0  0  0  0
  191.5570  174.6680  138.0390 O   0  0  0  0  0  0  0  0  0  0  0  0
  191.2780  176.0340  138.2310 C   0  0  1  0  0  3  0  0  0  0  0  0
  190.4610  175.1890  137.3330 C   0  0  0  0  0  2  0  0  0  0  0  0
  186.5710  178.9520  144.7830 N   0  0  0  0  0  2  0  0  0  0  0  0
  184.9790  179.2840  143.1570 C   0  0  2  0  0  3  0  0  0  0  0  0
  185.8080  178.2670  143.8290 N   0  0  0  0  0  0  0  0  0  0  0  0
  184.4000  178.4590  144.2160 C   0  0  0  0  0  2  0  0  0  0  0  0
  184.9180  178.4060  139.4870 N   0  0  0  0  0  0  0  0  0  0  0  0
  183.3050  178.0980  141.6750 O   0  0  0  0  0  0  0  0  0  0  0  0
  182.7100  177.8590  140.3950 C   0  0  2  0  0  3  0  0  0  0  0  0
  185.3090  178.9440  140.7560 C   0  0  0  0  0  3  0  0  0  0  0  0
  184.5210  178.7820  141.8220 C   0  0  0  0  0  0  0  0  0  0  0  0
  183.4340  177.3080  138.0250 N   0  0  0  0  0  1  0  0  0  0  0  0
  183.7540  177.8480  139.3030 C   0  0  0  0  0  0  0  0  0  0  0  0
  180.0760  177.2330  140.9040 C   0  0  0  0  0  1  0  0  0  0  0  0
  180.2700  178.6150  140.4890 N   0  0  0  0  0  0  0  0  0  0  0  0
  181.6730  178.9570  140.1180 C   0  0  2  0  0  3  0  0  0  0  0  0
  180.7240  178.5430  139.0910 C   0  0  0  0  0  2  0  0  0  0  0  0
  1  3  1  0  0  0  0
  3  2  2  0  0  0  0
  5  7  1  0  0  0  0
  5  1  2  0  0  0  0
  6  4  1  0  0  0  0
  6  2  1  0  0  0  0
  7  6  2  0  0  0  0
  8 10  1  0  0  0  0
  9  8  2  0  0  0  0
  9 11  1  0  0  0  0
 10 13  2  0  0  0  0
 11 12  2  0  0  0  0
 12 13  1  0  0  0  0
 13  5  1  0  0  0  0
 14 15  1  0  0  0  0
 15  9  1  0  0  0  0
 16 15  2  0  0  0  0
 17 18  1  0  0  0  0
 18 14  1  1  0  0  0
 19 17  1  0  0  0  0
 19 18  1  0  0  0  0
 20  7  1  0  0  0  0
 21 28  1  6  0  0  0
 21 22  1  0  0  0  0
 21 23  1  0  0  0  0
 22 23  1  0  0  0  0
 22 20  1  0  0  0  0
 24 27  1  0  0  0  0
 25 28  1  0  0  0  0
 26 30  1  6  0  0  0
 26 25  1  0  0  0  0
 27 28  2  0  0  0  0
 29 30  1  0  0  0  0
 30 24  2  0  0  0  0
 32 31  1  0  0  0  0
 33 34  1  6  0  0  0
 33 26  1  0  0  0  0
 33 32  1  0  0  0  0
 34 32  1  0  0  0  0
M  END
>  <MODEL>
9

>  <REMARK>
 VINA RESULT:      -8.4      2.477      7.370
  Name = 
  7 active torsions:
  status: ('A' for Active; 'I' for Inactive)
    1  A    between atoms: C_8  and  C_15
    2  A    between atoms: C_9  and  C_18
    3  A    between atoms: N_10  and  N_32
    4  A    between atoms: N_11  and  C_26
    5  A    between atoms: C_13  and  C_16
    6  A    between atoms: C_25  and  C_31
    7  A    between atoms: N_32  and  C_34
                            x       y       z     vdW  Elec       q    Type
                         _______ _______ _______ _____ _____    ______ ____

>  <TORSDO>
F 7

$$$$
