=
 OpenBabel10222416113D

 26 28  0  0  1  0  0  0  0  0999 V2000
  189.9200  177.0760  141.3540 N   0  0  0  0  0  0  0  0  0  0  0  0
  190.6030  177.7580  140.2620 C   0  0  0  0  0  1  0  0  0  0  0  0
  187.5280  177.5590  141.5340 C   0  0  2  0  0  3  0  0  0  0  0  0
  188.9380  177.9970  141.9280 C   0  0  2  0  0  3  0  0  0  0  0  0
  188.2040  178.7180  140.8190 C   0  0  0  0  0  2  0  0  0  0  0  0
  186.4790  177.5950  143.8460 C   0  0  0  0  0  0  0  0  0  0  0  0
  184.5170  179.4000  143.0020 C   0  0  0  0  0  3  0  0  0  0  0  0
  185.4830  178.9580  142.0950 C   0  0  0  0  0  0  0  0  0  0  0  0
  183.5750  179.4070  145.2190 O   0  0  0  0  0  1  0  0  0  0  0  0
  184.5330  178.9560  144.3230 C   0  0  0  0  0  0  0  0  0  0  0  0
  187.4130  176.6660  144.2870 O   0  0  0  0  0  1  0  0  0  0  0  0
  185.5070  178.0480  144.7400 C   0  0  0  0  0  3  0  0  0  0  0  0
  185.4120  179.4050  140.7430 N   0  0  0  0  0  1  0  0  0  0  0  0
  186.5000  178.0700  142.5160 C   0  0  0  0  0  0  0  0  0  0  0  0
  190.9300  176.6750  142.3460 C   0  0  2  0  0  3  0  0  0  0  0  0
  190.5010  175.5380  143.0360 O   0  0  0  0  0  1  0  0  0  0  0  0
  191.3050  177.7930  143.3270 C   0  0  0  0  0  2  0  0  0  0  0  0
  190.0240  177.7090  145.4670 N   0  0  0  0  0  0  0  0  0  0  0  0
  192.0750  175.6940  147.7330 C   0  0  0  0  0  1  0  0  0  0  0  0
  190.2530  177.1340  146.6630 C   0  0  1  0  0  3  0  0  0  0  0  0
  191.9970  176.5910  145.4000 N   0  0  0  0  0  0  0  0  0  0  0  0
  191.4490  176.4580  146.6200 C   0  0  0  0  0  0  0  0  0  0  0  0
  191.1000  177.3490  144.7340 C   0  0  0  0  0  0  0  0  0  0  0  0
  187.8920  177.1720  147.3990 C   0  0  0  0  0  1  0  0  0  0  0  0
  189.5900  178.5370  148.5870 C   0  0  0  0  0  1  0  0  0  0  0  0
  189.3410  177.2400  147.8420 C   0  0  0  0  0  3  0  0  0  0  0  0
  1 15  1  0  0  0  0
  2  1  1  0  0  0  0
  3  4  1  0  0  0  0
  3 14  1  1  0  0  0
  4  1  1  6  0  0  0
  5  3  1  0  0  0  0
  5  4  1  0  0  0  0
  6 11  1  0  0  0  0
  6 12  1  0  0  0  0
  7 10  1  0  0  0  0
  8 14  1  0  0  0  0
  8  7  2  0  0  0  0
 10 12  2  0  0  0  0
 10  9  1  0  0  0  0
 13  8  1  0  0  0  0
 14  6  2  0  0  0  0
 15 16  1  1  0  0  0
 15 17  1  0  0  0  0
 17 23  1  0  0  0  0
 18 20  1  0  0  0  0
 20 26  1  1  0  0  0
 21 22  2  0  0  0  0
 22 20  1  0  0  0  0
 22 19  1  0  0  0  0
 23 21  1  0  0  0  0
 23 18  2  0  0  0  0
 24 26  1  0  0  0  0
 26 25  1  0  0  0  0
M  END
>  <MODEL>
1

>  <REMARK>
 VINA RESULT:      -8.2      0.000      0.000
  Name = 
  6 active torsions:
  status: ('A' for Active; 'I' for Inactive)
    1  A    between atoms: N_7  and  C_14
    2  A    between atoms: N_7  and  C_23
    3  A    between atoms: C_10  and  C_21
    4  A    between atoms: C_11  and  C_26
    5  A    between atoms: C_14  and  C_24
    6  A    between atoms: C_17  and  C_24
                            x       y       z     vdW  Elec       q    Type
                         _______ _______ _______ _____ _____    ______ ____

>  <TORSDO>
F 6

$$$$
=
 OpenBabel10222416113D

 26 28  0  0  1  0  0  0  0  0999 V2000
  184.4170  178.4190  143.8050 N   0  0  0  0  0  0  0  0  0  0  0  0
  183.4280  179.2800  144.4390 C   0  0  0  0  0  1  0  0  0  0  0  0
  186.1080  177.5200  145.3270 C   0  0  2  0  0  3  0  0  0  0  0  0
  185.7200  178.6850  144.4180 C   0  0  2  0  0  3  0  0  0  0  0  0
  185.5610  178.8100  145.9180 C   0  0  0  0  0  2  0  0  0  0  0  0
  188.4450  177.0720  144.4410 C   0  0  0  0  0  0  0  0  0  0  0  0
  189.5650  177.5540  146.9580 C   0  0  0  0  0  3  0  0  0  0  0  0
  188.1820  177.6560  146.7880 C   0  0  0  0  0  0  0  0  0  0  0  0
  191.7600  177.1340  146.0580 O   0  0  0  0  0  1  0  0  0  0  0  0
  190.3870  177.2250  145.8810 C   0  0  0  0  0  0  0  0  0  0  0  0
  187.9190  176.7840  143.1880 O   0  0  0  0  0  1  0  0  0  0  0  0
  189.8260  176.9760  144.6290 C   0  0  0  0  0  3  0  0  0  0  0  0
  187.3710  177.9570  147.9210 N   0  0  0  0  0  1  0  0  0  0  0  0
  187.6060  177.4470  145.5140 C   0  0  0  0  0  0  0  0  0  0  0  0
  184.4280  178.7190  142.3640 C   0  0  2  0  0  3  0  0  0  0  0  0
  184.1750  177.5580  141.6290 O   0  0  0  0  0  1  0  0  0  0  0  0
  185.7220  179.3900  141.8850 C   0  0  0  0  0  2  0  0  0  0  0  0
  187.4070  178.4740  140.2890 N   0  0  0  0  0  0  0  0  0  0  0  0
  185.5760  177.9370  137.1650 C   0  0  0  0  0  1  0  0  0  0  0  0
  187.3500  178.0870  139.0010 C   0  0  1  0  0  3  0  0  0  0  0  0
  185.2880  178.7260  139.5200 N   0  0  0  0  0  0  0  0  0  0  0  0
  186.0650  178.2410  138.5370 C   0  0  0  0  0  0  0  0  0  0  0  0
  186.1380  178.8450  140.5630 C   0  0  0  0  0  0  0  0  0  0  0  0
  189.5870  177.0410  139.1430 C   0  0  0  0  0  1  0  0  0  0  0  0
  189.0950  178.6960  137.3600 C   0  0  0  0  0  1  0  0  0  0  0  0
  188.5180  177.5850  138.2150 C   0  0  0  0  0  3  0  0  0  0  0  0
  1  2  1  0  0  0  0
  3 14  1  1  0  0  0
  3  5  1  0  0  0  0
  4  1  1  6  0  0  0
  4  3  1  0  0  0  0
  4  5  1  0  0  0  0
  6 12  2  0  0  0  0
  6 14  1  0  0  0  0
  8  7  1  0  0  0  0
  8 13  1  0  0  0  0
 10  9  1  0  0  0  0
 10  7  2  0  0  0  0
 11  6  1  0  0  0  0
 12 10  1  0  0  0  0
 14  8  2  0  0  0  0
 15 16  1  6  0  0  0
 15  1  1  0  0  0  0
 17 15  1  0  0  0  0
 18 23  2  0  0  0  0
 19 22  1  0  0  0  0
 20 26  1  6  0  0  0
 20 18  1  0  0  0  0
 21 23  1  0  0  0  0
 22 20  1  0  0  0  0
 22 21  2  0  0  0  0
 23 17  1  0  0  0  0
 25 26  1  0  0  0  0
 26 24  1  0  0  0  0
M  END
>  <MODEL>
2

>  <REMARK>
 VINA RESULT:      -7.9      2.334      7.243
  Name = 
  6 active torsions:
  status: ('A' for Active; 'I' for Inactive)
    1  A    between atoms: N_7  and  C_14
    2  A    between atoms: N_7  and  C_23
    3  A    between atoms: C_10  and  C_21
    4  A    between atoms: C_11  and  C_26
    5  A    between atoms: C_14  and  C_24
    6  A    between atoms: C_17  and  C_24
                            x       y       z     vdW  Elec       q    Type
                         _______ _______ _______ _____ _____    ______ ____

>  <TORSDO>
F 6

$$$$
=
 OpenBabel10222416113D

 26 28  0  0  1  0  0  0  0  0999 V2000
  188.7720  177.8740  145.4760 N   0  0  0  0  0  0  0  0  0  0  0  0
  189.0470  177.0150  146.6210 C   0  0  0  0  0  1  0  0  0  0  0  0
  186.4850  178.6820  145.1550 C   0  0  2  0  0  3  0  0  0  0  0  0
  187.4550  177.5210  144.9430 C   0  0  2  0  0  3  0  0  0  0  0  0
  186.4470  177.4670  146.0690 C   0  0  0  0  0  2  0  0  0  0  0  0
  185.6070  178.5340  142.7780 C   0  0  0  0  0  0  0  0  0  0  0  0
  182.9660  178.7750  143.6670 C   0  0  0  0  0  3  0  0  0  0  0  0
  184.0100  178.7870  144.5950 C   0  0  0  0  0  0  0  0  0  0  0  0
  182.1890  178.6120  141.3920 O   0  0  0  0  0  1  0  0  0  0  0  0
  183.2330  178.6320  142.3060 C   0  0  0  0  0  0  0  0  0  0  0  0
  186.9080  178.4550  142.2980 O   0  0  0  0  0  1  0  0  0  0  0  0
  184.5510  178.5210  141.8630 C   0  0  0  0  0  3  0  0  0  0  0  0
  183.7000  178.9730  145.9740 N   0  0  0  0  0  1  0  0  0  0  0  0
  185.3470  178.6340  144.1630 C   0  0  0  0  0  0  0  0  0  0  0  0
  189.8330  177.6620  144.4790 C   0  0  2  0  0  3  0  0  0  0  0  0
  190.1580  178.8700  143.8580 O   0  0  0  0  0  1  0  0  0  0  0  0
  189.4910  176.5920  143.4350 C   0  0  0  0  0  2  0  0  0  0  0  0
  189.4480  177.0700  140.9860 N   0  0  0  0  0  0  0  0  0  0  0  0
  192.9600  177.4220  140.0170 C   0  0  0  0  0  1  0  0  0  0  0  0
  190.4070  177.2900  140.0670 C   0  0  1  0  0  3  0  0  0  0  0  0
  191.4820  176.9910  141.9870 N   0  0  0  0  0  0  0  0  0  0  0  0
  191.6380  177.2410  140.6760 C   0  0  0  0  0  0  0  0  0  0  0  0
  190.1420  176.9020  142.1320 C   0  0  0  0  0  0  0  0  0  0  0  0
  189.0370  178.5470  138.4370 C   0  0  0  0  0  1  0  0  0  0  0  0
  189.7790  176.2370  137.9210 C   0  0  0  0  0  1  0  0  0  0  0  0
  190.1490  177.5320  138.6150 C   0  0  0  0  0  3  0  0  0  0  0  0
  1  2  1  0  0  0  0
  3 14  1  6  0  0  0
  3  5  1  0  0  0  0
  4  3  1  0  0  0  0
  4  1  1  1  0  0  0
  4  5  1  0  0  0  0
  6 14  1  0  0  0  0
  7  8  1  0  0  0  0
  8 13  1  0  0  0  0
  9 10  1  0  0  0  0
 10  7  2  0  0  0  0
 11  6  1  0  0  0  0
 12 10  1  0  0  0  0
 12  6  2  0  0  0  0
 14  8  2  0  0  0  0
 15 16  1  6  0  0  0
 15  1  1  0  0  0  0
 17 15  1  0  0  0  0
 18 23  2  0  0  0  0
 19 22  1  0  0  0  0
 20 26  1  6  0  0  0
 20 22  1  0  0  0  0
 20 18  1  0  0  0  0
 21 23  1  0  0  0  0
 22 21  2  0  0  0  0
 23 17  1  0  0  0  0
 24 26  1  0  0  0  0
 25 26  1  0  0  0  0
M  END
>  <MODEL>
3

>  <REMARK>
 VINA RESULT:      -7.8      2.241      5.212
  Name = 
  6 active torsions:
  status: ('A' for Active; 'I' for Inactive)
    1  A    between atoms: N_7  and  C_14
    2  A    between atoms: N_7  and  C_23
    3  A    between atoms: C_10  and  C_21
    4  A    between atoms: C_11  and  C_26
    5  A    between atoms: C_14  and  C_24
    6  A    between atoms: C_17  and  C_24
                            x       y       z     vdW  Elec       q    Type
                         _______ _______ _______ _____ _____    ______ ____

>  <TORSDO>
F 6

$$$$
=
 OpenBabel10222416113D

 26 28  0  0  1  0  0  0  0  0999 V2000
  187.1910  177.9910  146.9900 N   0  0  0  0  0  0  0  0  0  0  0  0
  187.6030  178.2260  148.3690 C   0  0  0  0  0  1  0  0  0  0  0  0
  188.8950  176.8790  145.6320 C   0  0  2  0  0  3  0  0  0  0  0  0
  188.3470  178.2190  146.1210 C   0  0  2  0  0  3  0  0  0  0  0  0
  189.5870  177.6310  146.7570 C   0  0  0  0  0  2  0  0  0  0  0  0
  188.9960  176.9510  143.0960 C   0  0  0  0  0  0  0  0  0  0  0  0
  191.7710  177.2960  143.1480 C   0  0  0  0  0  3  0  0  0  0  0  0
  191.0670  177.1820  144.3500 C   0  0  0  0  0  0  0  0  0  0  0  0
  191.8020  177.3740  140.7400 O   0  0  0  0  0  1  0  0  0  0  0  0
  191.0960  177.2500  141.9280 C   0  0  0  0  0  0  0  0  0  0  0  0
  187.6240  176.7380  143.0320 O   0  0  0  0  0  1  0  0  0  0  0  0
  189.7140  177.0690  141.9040 C   0  0  0  0  0  3  0  0  0  0  0  0
  191.7950  177.1950  145.5750 N   0  0  0  0  0  1  0  0  0  0  0  0
  189.6600  177.0390  144.3390 C   0  0  0  0  0  0  0  0  0  0  0  0
  186.0900  178.9160  146.6780 C   0  0  2  0  0  3  0  0  0  0  0  0
  186.0320  179.9340  147.6330 O   0  0  0  0  0  1  0  0  0  0  0  0
  184.7270  178.2260  146.5400 C   0  0  0  0  0  2  0  0  0  0  0  0
  184.8740  178.5090  144.0640 N   0  0  0  0  0  0  0  0  0  0  0  0
  181.4720  179.3330  142.9910 C   0  0  0  0  0  1  0  0  0  0  0  0
  183.9740  178.8160  143.1110 C   0  0  1  0  0  3  0  0  0  0  0  0
  182.8310  178.7790  145.0150 N   0  0  0  0  0  0  0  0  0  0  0  0
  182.7380  178.9800  143.6900 C   0  0  0  0  0  0  0  0  0  0  0  0
  184.1380  178.4900  145.1970 C   0  0  0  0  0  0  0  0  0  0  0  0
  183.7590  177.7830  140.8750 C   0  0  0  0  0  1  0  0  0  0  0  0
  185.7930  179.0790  141.4580 C   0  0  0  0  0  1  0  0  0  0  0  0
  184.2950  178.9650  141.6590 C   0  0  0  0  0  3  0  0  0  0  0  0
  1  2  1  0  0  0  0
  3 14  1  6  0  0  0
  3  4  1  0  0  0  0
  3  5  1  0  0  0  0
  4  5  1  0  0  0  0
  4  1  1  1  0  0  0
  6 14  1  0  0  0  0
  7  8  1  0  0  0  0
  8 13  1  0  0  0  0
  9 10  1  0  0  0  0
 10  7  2  0  0  0  0
 11  6  1  0  0  0  0
 12 10  1  0  0  0  0
 12  6  2  0  0  0  0
 14  8  2  0  0  0  0
 15  1  1  0  0  0  0
 15 16  1  1  0  0  0
 17 15  1  0  0  0  0
 18 23  2  0  0  0  0
 19 22  1  0  0  0  0
 20 26  1  1  0  0  0
 20 22  1  0  0  0  0
 20 18  1  0  0  0  0
 21 23  1  0  0  0  0
 22 21  2  0  0  0  0
 23 17  1  0  0  0  0
 24 26  1  0  0  0  0
 25 26  1  0  0  0  0
M  END
>  <MODEL>
4

>  <REMARK>
 VINA RESULT:      -7.8      2.148      7.246
  Name = 
  6 active torsions:
  status: ('A' for Active; 'I' for Inactive)
    1  A    between atoms: N_7  and  C_14
    2  A    between atoms: N_7  and  C_23
    3  A    between atoms: C_10  and  C_21
    4  A    between atoms: C_11  and  C_26
    5  A    between atoms: C_14  and  C_24
    6  A    between atoms: C_17  and  C_24
                            x       y       z     vdW  Elec       q    Type
                         _______ _______ _______ _____ _____    ______ ____

>  <TORSDO>
F 6

$$$$
=
 OpenBabel10222416113D

 26 28  0  0  1  0  0  0  0  0999 V2000
  188.7440  177.8050  144.7980 N   0  0  0  0  0  0  0  0  0  0  0  0
  189.1600  177.0290  145.9600 C   0  0  0  0  0  1  0  0  0  0  0  0
  186.4730  178.7060  144.9040 C   0  0  2  0  0  3  0  0  0  0  0  0
  187.3380  177.5050  144.5250 C   0  0  2  0  0  3  0  0  0  0  0  0
  186.5570  177.4960  145.8210 C   0  0  0  0  0  2  0  0  0  0  0  0
  185.1590  178.7460  142.7320 C   0  0  0  0  0  0  0  0  0  0  0  0
  182.7320  178.7870  144.1210 C   0  0  0  0  0  3  0  0  0  0  0  0
  183.9340  178.7570  144.8330 C   0  0  0  0  0  0  0  0  0  0  0  0
  181.5390  178.8070  142.0280 O   0  0  0  0  0  1  0  0  0  0  0  0
  182.7370  178.7860  142.7270 C   0  0  0  0  0  0  0  0  0  0  0  0
  186.3460  178.7690  142.0110 O   0  0  0  0  0  1  0  0  0  0  0  0
  183.9490  178.7740  142.0360 C   0  0  0  0  0  3  0  0  0  0  0  0
  183.8890  178.7980  146.2570 N   0  0  0  0  0  1  0  0  0  0  0  0
  185.1670  178.7030  144.1440 C   0  0  0  0  0  0  0  0  0  0  0  0
  189.6060  177.4300  143.6660 C   0  0  2  0  0  3  0  0  0  0  0  0
  190.1260  178.5750  143.0570 O   0  0  0  0  0  1  0  0  0  0  0  0
  188.9090  176.5370  142.6320 C   0  0  0  0  0  2  0  0  0  0  0  0
  190.5150  176.3630  140.7290 N   0  0  0  0  0  0  0  0  0  0  0  0
  189.1790  178.5810  138.1410 C   0  0  0  0  0  1  0  0  0  0  0  0
  190.5740  176.9320  139.5110 C   0  0  1  0  0  3  0  0  0  0  0  0
  188.7220  177.7240  140.4450 N   0  0  0  0  0  0  0  0  0  0  0  0
  189.4870  177.7570  139.3420 C   0  0  0  0  0  0  0  0  0  0  0  0
  189.3760  176.8640  141.2550 C   0  0  0  0  0  0  0  0  0  0  0  0
  191.5710  175.3030  137.9400 C   0  0  0  0  0  1  0  0  0  0  0  0
  193.0230  176.8920  139.1740 C   0  0  0  0  0  1  0  0  0  0  0  0
  191.6690  176.7010  138.5200 C   0  0  0  0  0  3  0  0  0  0  0  0
  1  2  1  0  0  0  0
  3 14  1  6  0  0  0
  3  5  1  0  0  0  0
  4  1  1  1  0  0  0
  4  3  1  0  0  0  0
  4  5  1  0  0  0  0
  6 14  1  0  0  0  0
  7  8  1  0  0  0  0
  8 13  1  0  0  0  0
  9 10  1  0  0  0  0
 10  7  2  0  0  0  0
 11  6  1  0  0  0  0
 12 10  1  0  0  0  0
 12  6  2  0  0  0  0
 14  8  2  0  0  0  0
 15 16  1  6  0  0  0
 15  1  1  0  0  0  0
 17 15  1  0  0  0  0
 18 23  2  0  0  0  0
 19 22  1  0  0  0  0
 20 26  1  1  0  0  0
 20 18  1  0  0  0  0
 21 23  1  0  0  0  0
 22 20  1  0  0  0  0
 22 21  2  0  0  0  0
 23 17  1  0  0  0  0
 24 26  1  0  0  0  0
 26 25  1  0  0  0  0
M  END
>  <MODEL>
5

>  <REMARK>
 VINA RESULT:      -7.7      2.277      5.610
  Name = 
  6 active torsions:
  status: ('A' for Active; 'I' for Inactive)
    1  A    between atoms: N_7  and  C_14
    2  A    between atoms: N_7  and  C_23
    3  A    between atoms: C_10  and  C_21
    4  A    between atoms: C_11  and  C_26
    5  A    between atoms: C_14  and  C_24
    6  A    between atoms: C_17  and  C_24
                            x       y       z     vdW  Elec       q    Type
                         _______ _______ _______ _____ _____    ______ ____

>  <TORSDO>
F 6

$$$$
=
 OpenBabel10222416113D

 26 28  0  0  1  0  0  0  0  0999 V2000
  189.2440  177.2650  144.1930 N   0  0  0  0  0  0  0  0  0  0  0  0
  189.8900  176.6200  145.3290 C   0  0  0  0  0  1  0  0  0  0  0  0
  187.1890  178.4530  144.7860 C   0  0  2  0  0  3  0  0  0  0  0  0
  187.7950  177.1210  144.3460 C   0  0  2  0  0  3  0  0  0  0  0  0
  187.4110  177.3360  145.7930 C   0  0  0  0  0  2  0  0  0  0  0  0
  185.3330  178.4840  143.0540 C   0  0  0  0  0  0  0  0  0  0  0  0
  183.4000  178.8970  145.0330 C   0  0  0  0  0  3  0  0  0  0  0  0
  184.7450  178.7830  145.3950 C   0  0  0  0  0  0  0  0  0  0  0  0
  181.6800  178.9010  143.3470 O   0  0  0  0  0  1  0  0  0  0  0  0
  183.0180  178.7950  143.6960 C   0  0  0  0  0  0  0  0  0  0  0  0
  186.2700  178.3220  142.0420 O   0  0  0  0  0  1  0  0  0  0  0  0
  183.9840  178.5980  142.7090 C   0  0  0  0  0  3  0  0  0  0  0  0
  185.1010  178.9310  146.7670 N   0  0  0  0  0  1  0  0  0  0  0  0
  185.7290  178.5420  144.4090 C   0  0  0  0  0  0  0  0  0  0  0  0
  189.7240  176.6150  142.9630 C   0  0  2  0  0  3  0  0  0  0  0  0
  190.5620  175.5430  143.2820 O   0  0  0  0  0  1  0  0  0  0  0  0
  190.4200  177.5750  141.9910 C   0  0  0  0  0  2  0  0  0  0  0  0
  189.0150  177.8940  139.9540 N   0  0  0  0  0  0  0  0  0  0  0  0
  190.2780  175.4600  137.5280 C   0  0  0  0  0  1  0  0  0  0  0  0
  188.9880  177.3030  138.7440 C   0  0  1  0  0  3  0  0  0  0  0  0
  190.6420  176.3160  139.8490 N   0  0  0  0  0  0  0  0  0  0  0  0
  189.9740  176.3470  138.6840 C   0  0  0  0  0  0  0  0  0  0  0  0
  190.0340  177.2720  140.5850 C   0  0  0  0  0  0  0  0  0  0  0  0
  188.5570  178.7670  136.7980 C   0  0  0  0  0  1  0  0  0  0  0  0
  186.6800  178.0390  138.2500 C   0  0  0  0  0  1  0  0  0  0  0  0
  188.0180  177.6400  137.6590 C   0  0  0  0  0  3  0  0  0  0  0  0
  1  2  1  0  0  0  0
  3 14  1  6  0  0  0
  3  5  1  0  0  0  0
  4  1  1  1  0  0  0
  4  3  1  0  0  0  0
  4  5  1  0  0  0  0
  6 14  1  0  0  0  0
  7  8  1  0  0  0  0
  8 13  1  0  0  0  0
  9 10  1  0  0  0  0
 10  7  2  0  0  0  0
 11  6  1  0  0  0  0
 12  6  2  0  0  0  0
 12 10  1  0  0  0  0
 14  8  2  0  0  0  0
 15 16  1  1  0  0  0
 15  1  1  0  0  0  0
 17 15  1  0  0  0  0
 18 23  2  0  0  0  0
 19 22  1  0  0  0  0
 20 26  1  1  0  0  0
 20 18  1  0  0  0  0
 21 23  1  0  0  0  0
 22 20  1  0  0  0  0
 22 21  2  0  0  0  0
 23 17  1  0  0  0  0
 24 26  1  0  0  0  0
 26 25  1  0  0  0  0
M  END
>  <MODEL>
6

>  <REMARK>
 VINA RESULT:      -7.7      2.272      5.650
  Name = 
  6 active torsions:
  status: ('A' for Active; 'I' for Inactive)
    1  A    between atoms: N_7  and  C_14
    2  A    between atoms: N_7  and  C_23
    3  A    between atoms: C_10  and  C_21
    4  A    between atoms: C_11  and  C_26
    5  A    between atoms: C_14  and  C_24
    6  A    between atoms: C_17  and  C_24
                            x       y       z     vdW  Elec       q    Type
                         _______ _______ _______ _____ _____    ______ ____

>  <TORSDO>
F 6

$$$$
=
 OpenBabel10222416113D

 26 28  0  0  1  0  0  0  0  0999 V2000
  188.5460  177.6440  144.6300 N   0  0  0  0  0  0  0  0  0  0  0  0
  188.9790  176.9480  145.8350 C   0  0  0  0  0  1  0  0  0  0  0  0
  186.3680  178.7460  144.7900 C   0  0  2  0  0  3  0  0  0  0  0  0
  187.1040  177.4440  144.4770 C   0  0  2  0  0  3  0  0  0  0  0  0
  186.4200  177.6250  145.8150 C   0  0  0  0  0  2  0  0  0  0  0  0
  183.8340  178.8540  144.8870 C   0  0  0  0  0  0  0  0  0  0  0  0
  183.6510  178.6690  142.1020 C   0  0  0  0  0  3  0  0  0  0  0  0
  184.9080  178.6620  142.7130 C   0  0  0  0  0  0  0  0  0  0  0  0
  181.2500  178.7920  142.2550 O   0  0  0  0  0  1  0  0  0  0  0  0
  182.4930  178.7770  142.8710 C   0  0  0  0  0  0  0  0  0  0  0  0
  183.8850  178.9040  146.2740 O   0  0  0  0  0  1  0  0  0  0  0  0
  182.5850  178.8610  144.2600 C   0  0  0  0  0  3  0  0  0  0  0  0
  186.0670  178.5110  141.8970 N   0  0  0  0  0  1  0  0  0  0  0  0
  185.0160  178.7880  144.1170 C   0  0  0  0  0  0  0  0  0  0  0  0
  189.2910  177.0890  143.4890 C   0  0  2  0  0  3  0  0  0  0  0  0
  190.2840  176.2160  143.9420 O   0  0  0  0  0  1  0  0  0  0  0  0
  189.8910  178.1580  142.5670 C   0  0  0  0  0  2  0  0  0  0  0  0
  188.8670  178.2010  140.2920 N   0  0  0  0  0  0  0  0  0  0  0  0
  190.7900  175.7820  138.3290 C   0  0  0  0  0  1  0  0  0  0  0  0
  189.1230  177.5410  139.1470 C   0  0  1  0  0  3  0  0  0  0  0  0
  190.6300  176.8070  140.6040 N   0  0  0  0  0  0  0  0  0  0  0  0
  190.1910  176.6970  139.3390 C   0  0  0  0  0  0  0  0  0  0  0  0
  189.8050  177.7320  141.1430 C   0  0  0  0  0  0  0  0  0  0  0  0
  188.9210  178.8350  137.0490 C   0  0  0  0  0  1  0  0  0  0  0  0
  186.8880  177.9870  138.1900 C   0  0  0  0  0  1  0  0  0  0  0  0
  188.3450  177.7060  137.8820 C   0  0  0  0  0  3  0  0  0  0  0  0
  1  2  1  0  0  0  0
  3 14  1  6  0  0  0
  3  5  1  0  0  0  0
  4  1  1  1  0  0  0
  4  3  1  0  0  0  0
  4  5  1  0  0  0  0
  6 11  1  0  0  0  0
  7  8  2  0  0  0  0
  7 10  1  0  0  0  0
  8 14  1  0  0  0  0
  9 10  1  0  0  0  0
 10 12  2  0  0  0  0
 12  6  1  0  0  0  0
 13  8  1  0  0  0  0
 14  6  2  0  0  0  0
 15 16  1  1  0  0  0
 15  1  1  0  0  0  0
 17 15  1  0  0  0  0
 18 23  2  0  0  0  0
 19 22  1  0  0  0  0
 20 26  1  1  0  0  0
 20 22  1  0  0  0  0
 20 18  1  0  0  0  0
 21 23  1  0  0  0  0
 22 21  2  0  0  0  0
 23 17  1  0  0  0  0
 24 26  1  0  0  0  0
 26 25  1  0  0  0  0
M  END
>  <MODEL>
7

>  <REMARK>
 VINA RESULT:      -7.6      1.995      5.471
  Name = 
  6 active torsions:
  status: ('A' for Active; 'I' for Inactive)
    1  A    between atoms: N_7  and  C_14
    2  A    between atoms: N_7  and  C_23
    3  A    between atoms: C_10  and  C_21
    4  A    between atoms: C_11  and  C_26
    5  A    between atoms: C_14  and  C_24
    6  A    between atoms: C_17  and  C_24
                            x       y       z     vdW  Elec       q    Type
                         _______ _______ _______ _____ _____    ______ ____

>  <TORSDO>
F 6

$$$$
=
 OpenBabel10222416113D

 26 28  0  0  1  0  0  0  0  0999 V2000
  185.7600  178.1190  142.2400 N   0  0  0  0  0  0  0  0  0  0  0  0
  184.3210  178.2970  142.0920 C   0  0  0  0  0  1  0  0  0  0  0  0
  186.0030  177.4840  144.5900 C   0  0  2  0  0  3  0  0  0  0  0  0
  186.1490  178.6070  143.5640 C   0  0  2  0  0  3  0  0  0  0  0  0
  184.9530  178.5790  144.4900 C   0  0  0  0  0  2  0  0  0  0  0  0
  188.2450  177.2970  145.7660 C   0  0  0  0  0  0  0  0  0  0  0  0
  187.1980  178.4440  148.0920 C   0  0  0  0  0  3  0  0  0  0  0  0
  186.3720  178.2640  146.9790 C   0  0  0  0  0  0  0  0  0  0  0  0
  189.3540  178.2560  149.1500 O   0  0  0  0  0  1  0  0  0  0  0  0
  188.5390  178.0660  148.0440 C   0  0  0  0  0  0  0  0  0  0  0  0
  188.7870  176.6850  144.6420 O   0  0  0  0  0  1  0  0  0  0  0  0
  189.0580  177.4860  146.8860 C   0  0  0  0  0  3  0  0  0  0  0  0
  184.9980  178.6280  147.0780 N   0  0  0  0  0  1  0  0  0  0  0  0
  186.8960  177.7150  145.7860 C   0  0  0  0  0  0  0  0  0  0  0  0
  186.4260  178.8760  141.1680 C   0  0  2  0  0  3  0  0  0  0  0  0
  185.5220  179.7530  140.5640 O   0  0  0  0  0  1  0  0  0  0  0  0
  187.1010  177.9870  140.1160 C   0  0  0  0  0  2  0  0  0  0  0  0
  189.0600  178.0090  141.6620 N   0  0  0  0  0  0  0  0  0  0  0  0
  191.9360  177.1270  139.5760 C   0  0  0  0  0  1  0  0  0  0  0  0
  190.3750  177.7750  141.4950 C   0  0  1  0  0  3  0  0  0  0  0  0
  189.4610  177.4680  139.4950 N   0  0  0  0  0  0  0  0  0  0  0  0
  190.6160  177.4490  140.1810 C   0  0  0  0  0  0  0  0  0  0  0  0
  188.5460  177.8050  140.4300 C   0  0  0  0  0  0  0  0  0  0  0  0
  191.5920  176.5310  143.2520 C   0  0  0  0  0  1  0  0  0  0  0  0
  190.9770  178.9080  143.6080 C   0  0  0  0  0  1  0  0  0  0  0  0
  191.3980  177.8770  142.5800 C   0  0  0  0  0  3  0  0  0  0  0  0
  2  1  1  0  0  0  0
  3 14  1  1  0  0  0
  4  1  1  6  0  0  0
  4  5  1  0  0  0  0
  4  3  1  0  0  0  0
  5  3  1  0  0  0  0
  6 14  2  0  0  0  0
  6 12  1  0  0  0  0
  8 13  1  0  0  0  0
  8  7  2  0  0  0  0
 10  7  1  0  0  0  0
 10  9  1  0  0  0  0
 11  6  1  0  0  0  0
 12 10  2  0  0  0  0
 14  8  1  0  0  0  0
 15 16  1  6  0  0  0
 15  1  1  0  0  0  0
 17 23  1  0  0  0  0
 17 15  1  0  0  0  0
 19 22  1  0  0  0  0
 20 18  1  0  0  0  0
 20 26  1  6  0  0  0
 21 22  2  0  0  0  0
 21 23  1  0  0  0  0
 22 20  1  0  0  0  0
 23 18  2  0  0  0  0
 26 24  1  0  0  0  0
 26 25  1  0  0  0  0
M  END
>  <MODEL>
8

>  <REMARK>
 VINA RESULT:      -7.6      2.211      5.344
  Name = 
  6 active torsions:
  status: ('A' for Active; 'I' for Inactive)
    1  A    between atoms: N_7  and  C_14
    2  A    between atoms: N_7  and  C_23
    3  A    between atoms: C_10  and  C_21
    4  A    between atoms: C_11  and  C_26
    5  A    between atoms: C_14  and  C_24
    6  A    between atoms: C_17  and  C_24
                            x       y       z     vdW  Elec       q    Type
                         _______ _______ _______ _____ _____    ______ ____

>  <TORSDO>
F 6

$$$$
=
 OpenBabel10222416113D

 26 28  0  0  1  0  0  0  0  0999 V2000
  188.9110  177.0930  141.2080 N   0  0  0  0  0  0  0  0  0  0  0  0
  188.2860  177.8430  140.1260 C   0  0  0  0  0  1  0  0  0  0  0  0
  187.6970  177.0350  143.3310 C   0  0  2  0  0  3  0  0  0  0  0  0
  188.6810  177.8150  142.4610 C   0  0  2  0  0  3  0  0  0  0  0  0
  187.2340  178.2480  142.5410 C   0  0  0  0  0  2  0  0  0  0  0  0
  189.0830  177.1390  145.4570 C   0  0  0  0  0  0  0  0  0  0  0  0
  186.9180  178.1650  146.8990 C   0  0  0  0  0  3  0  0  0  0  0  0
  186.7660  177.8740  145.5410 C   0  0  0  0  0  0  0  0  0  0  0  0
  188.2860  178.2570  148.8800 O   0  0  0  0  0  1  0  0  0  0  0  0
  188.1420  177.9570  147.5330 C   0  0  0  0  0  0  0  0  0  0  0  0
  190.1660  176.5910  144.7810 O   0  0  0  0  0  1  0  0  0  0  0  0
  189.2180  177.4370  146.8140 C   0  0  0  0  0  3  0  0  0  0  0  0
  185.4890  178.0640  144.9360 N   0  0  0  0  0  1  0  0  0  0  0  0
  187.8610  177.3860  144.7920 C   0  0  0  0  0  0  0  0  0  0  0  0
  190.3470  176.9710  140.9100 C   0  0  2  0  0  3  0  0  0  0  0  0
  191.0990  177.5990  141.9060 O   0  0  0  0  0  1  0  0  0  0  0  0
  190.7350  177.5010  139.5250 C   0  0  0  0  0  2  0  0  0  0  0  0
  192.6530  176.3690  138.3980 N   0  0  0  0  0  0  0  0  0  0  0  0
  191.1880  173.4950  136.6690 C   0  0  0  0  0  1  0  0  0  0  0  0
  192.7570  175.2770  137.6180 C   0  0  1  0  0  3  0  0  0  0  0  0
  190.6040  175.4290  138.1410 N   0  0  0  0  0  0  0  0  0  0  0  0
  191.5140  174.7100  137.4640 C   0  0  0  0  0  0  0  0  0  0  0  0
  191.3370  176.4190  138.6970 C   0  0  0  0  0  0  0  0  0  0  0  0
  195.0410  174.4610  138.0980 C   0  0  0  0  0  1  0  0  0  0  0  0
  194.6060  175.8260  136.0730 C   0  0  0  0  0  1  0  0  0  0  0  0
  194.0320  174.7860  137.0140 C   0  0  0  0  0  3  0  0  0  0  0  0
  2  1  1  0  0  0  0
  3 14  1  1  0  0  0
  4  1  1  6  0  0  0
  4  5  1  0  0  0  0
  4  3  1  0  0  0  0
  5  3  1  0  0  0  0
  6 12  1  0  0  0  0
  7 10  1  0  0  0  0
  8  7  2  0  0  0  0
 10  9  1  0  0  0  0
 11  6  1  0  0  0  0
 12 10  2  0  0  0  0
 13  8  1  0  0  0  0
 14  6  2  0  0  0  0
 14  8  1  0  0  0  0
 15  1  1  0  0  0  0
 15 16  1  1  0  0  0
 17 15  1  0  0  0  0
 18 23  2  0  0  0  0
 19 22  1  0  0  0  0
 20 26  1  6  0  0  0
 20 18  1  0  0  0  0
 21 23  1  0  0  0  0
 22 20  1  0  0  0  0
 22 21  2  0  0  0  0
 23 17  1  0  0  0  0
 25 26  1  0  0  0  0
 26 24  1  0  0  0  0
M  END
>  <MODEL>
9

>  <REMARK>
 VINA RESULT:      -7.5      3.274      6.612
  Name = 
  6 active torsions:
  status: ('A' for Active; 'I' for Inactive)
    1  A    between atoms: N_7  and  C_14
    2  A    between atoms: N_7  and  C_23
    3  A    between atoms: C_10  and  C_21
    4  A    between atoms: C_11  and  C_26
    5  A    between atoms: C_14  and  C_24
    6  A    between atoms: C_17  and  C_24
                            x       y       z     vdW  Elec       q    Type
                         _______ _______ _______ _____ _____    ______ ____

>  <TORSDO>
F 6

$$$$
