=
 OpenBabel10222415493D

 31 34  0  0  1  0  0  0  0  0999 V2000
  190.1120  177.7010  142.5010 C   0  0  1  0  0  3  0  0  0  0  0  0
  191.8020  177.9600  141.9830 Cl  0  0  0  0  0  0  0  0  0  0  0  0
  188.1210  177.5380  139.2950 C   0  0  0  0  0  0  0  0  0  0  0  0
  187.8760  177.3240  138.0070 C   0  0  0  0  0  3  0  0  0  0  0  0
  185.5740  178.1520  137.8400 N   0  0  0  0  0  0  0  0  0  0  0  0
  186.2210  178.8900  140.0590 N   0  0  0  0  0  0  0  0  0  0  0  0
  189.2710  176.9800  140.0710 C   0  0  2  0  0  3  0  0  0  0  0  0
  189.1890  177.8250  141.3240 C   0  0  0  0  0  0  0  0  0  0  0  0
  187.4600  178.5080  140.1490 C   0  0  0  0  0  0  0  0  0  0  0  0
  188.1940  178.6570  141.3500 N   0  0  0  0  0  0  0  0  0  0  0  0
  185.2660  178.5230  139.0470 C   0  0  0  0  0  3  0  0  0  0  0  0
  186.9060  178.1690  137.2510 C   0  0  2  0  0  3  0  0  0  0  0  0
  186.7760  177.3430  134.7660 N   0  0  0  0  0  0  0  0  0  0  0  0
  186.8330  177.7070  135.8630 C   0  0  0  0  0  0  0  0  0  0  0  0
  191.2430  176.0180  139.1190 O   0  0  0  0  0  1  0  0  0  0  0  0
  190.5940  177.2300  139.3560 C   0  0  0  0  0  2  0  0  0  0  0  0
  190.0310  178.1320  145.7010 C   0  0  0  0  0  2  0  0  0  0  0  0
  188.0650  176.8910  144.9430 N   0  0  0  0  0  0  0  0  0  0  0  0
  192.0620  176.9710  146.3990 N   0  0  0  0  0  1  0  0  0  0  0  0
  188.5610  176.1630  143.8060 C   0  0  0  0  0  0  0  0  0  0  0  0
  188.9060  177.1900  146.0960 C   0  0  0  0  0  2  0  0  0  0  0  0
  191.2830  177.3790  145.2440 C   0  0  1  0  0  3  0  0  0  0  0  0
  191.0130  176.1580  144.3520 C   0  0  0  0  0  2  0  0  0  0  0  0
  189.9520  176.3730  143.2660 C   0  0  2  0  0  3  0  0  0  0  0  0
  187.7960  175.3720  143.1910 O   0  0  0  0  0  0  0  0  0  0  0  0
  186.6420  177.1770  145.0590 C   0  0  0  0  0  2  0  0  0  0  0  0
  186.2930  178.4120  144.2480 C   0  0  0  0  0  2  0  0  0  0  0  0
  184.4790  179.5850  143.0550 C   0  0  0  0  0  2  0  0  0  0  0  0
  182.6120  178.7600  144.3530 N   0  0  0  0  0  1  0  0  0  0  0  0
  184.8880  178.2790  143.7000 C   0  0  2  0  0  3  0  0  0  0  0  0
  183.9790  179.2390  144.4410 C   0  0  1  0  0  3  0  0  0  0  0  0
  1  2  1  6  0  0  0
  3  7  1  0  0  0  0
  3  9  1  0  0  0  0
  4  3  2  0  0  0  0
  5 11  2  0  0  0  0
  6  9  2  0  0  0  0
  7 16  1  6  0  0  0
  7  8  1  0  0  0  0
  8 10  2  0  0  0  0
  8  1  1  0  0  0  0
  9 10  1  0  0  0  0
 11  6  1  0  0  0  0
 12 14  1  6  0  0  0
 12  5  1  0  0  0  0
 12  4  1  0  0  0  0
 13 14  3  0  0  0  0
 15 16  1  0  0  0  0
 17 21  1  0  0  0  0
 18 26  1  0  0  0  0
 18 21  1  0  0  0  0
 20 18  1  0  0  0  0
 22 17  1  0  0  0  0
 22 19  1  1  0  0  0
 23 22  1  0  0  0  0
 24  1  1  1  0  0  0
 24 20  1  0  0  0  0
 24 23  1  0  0  0  0
 25 20  2  0  0  0  0
 27 26  1  0  0  0  0
 28 30  1  0  0  0  0
 28 31  1  0  0  0  0
 30 27  1  1  0  0  0
 30 31  1  0  0  0  0
 31 29  1  6  0  0  0
M  END
>  <MODEL>
1

>  <REMARK>
 VINA RESULT:      -7.4      0.000      0.000
  Name = 
  7 active torsions:
  status: ('A' for Active; 'I' for Inactive)
    1  A    between atoms: C_3  and  C_18
    2  A    between atoms: C_3  and  C_24
    3  A    between atoms: N_4  and  C_30
    4  A    between atoms: C_5  and  C_29
    5  A    between atoms: C_13  and  C_19
    6  A    between atoms: C_26  and  C_27
    7  A    between atoms: C_27  and  C_30
                            x       y       z     vdW  Elec       q    Type
                         _______ _______ _______ _____ _____    ______ ____

>  <TORSDO>
F 7

$$$$
=
 OpenBabel10222415493D

 31 34  0  0  1  0  0  0  0  0999 V2000
  190.6550  177.4150  142.1990 C   0  0  1  0  0  3  0  0  0  0  0  0
  192.3880  177.8340  142.3020 Cl  0  0  0  0  0  0  0  0  0  0  0  0
  189.3100  177.5030  138.6700 C   0  0  0  0  0  0  0  0  0  0  0  0
  188.4600  177.7600  137.6810 C   0  0  0  0  0  3  0  0  0  0  0  0
  189.5850  176.6410  135.8130 N   0  0  0  0  0  0  0  0  0  0  0  0
  190.8690  175.8630  137.7200 N   0  0  0  0  0  0  0  0  0  0  0  0
  189.3170  178.1630  140.0120 C   0  0  2  0  0  3  0  0  0  0  0  0
  190.2520  177.2400  140.7640 C   0  0  0  0  0  0  0  0  0  0  0  0
  190.2550  176.4030  138.7310 C   0  0  0  0  0  0  0  0  0  0  0  0
  190.7540  176.2820  140.0490 N   0  0  0  0  0  0  0  0  0  0  0  0
  190.6800  176.1600  136.3240 C   0  0  0  0  0  3  0  0  0  0  0  0
  188.3250  176.8400  136.5150 C   0  0  2  0  0  3  0  0  0  0  0  0
  186.5360  177.7900  134.8510 N   0  0  0  0  0  0  0  0  0  0  0  0
  187.3260  177.3710  135.5860 C   0  0  0  0  0  0  0  0  0  0  0  0
  187.8030  179.1950  141.5490 O   0  0  0  0  0  1  0  0  0  0  0  0
  187.9320  178.1380  140.6470 C   0  0  0  0  0  2  0  0  0  0  0  0
  190.1560  178.2410  145.2810 C   0  0  0  0  0  2  0  0  0  0  0  0
  188.2440  176.9990  144.3970 N   0  0  0  0  0  0  0  0  0  0  0  0
  191.9980  177.0930  146.3960 N   0  0  0  0  0  1  0  0  0  0  0  0
  188.8500  176.1160  143.4360 C   0  0  0  0  0  0  0  0  0  0  0  0
  188.9330  177.4030  145.6160 C   0  0  0  0  0  2  0  0  0  0  0  0
  191.4120  177.3870  145.1010 C   0  0  1  0  0  3  0  0  0  0  0  0
  191.1970  176.0770  144.3270 C   0  0  0  0  0  2  0  0  0  0  0  0
  190.3120  176.2000  143.0820 C   0  0  2  0  0  3  0  0  0  0  0  0
  188.1330  175.2870  142.8130 O   0  0  0  0  0  0  0  0  0  0  0  0
  186.8380  177.3560  144.2720 C   0  0  0  0  0  2  0  0  0  0  0  0
  186.2890  177.7830  145.6210 C   0  0  0  0  0  2  0  0  0  0  0  0
  184.1220  178.8190  146.1870 C   0  0  0  0  0  2  0  0  0  0  0  0
  183.6410  179.8260  144.0410 N   0  0  0  0  0  1  0  0  0  0  0  0
  185.4280  179.0170  145.4510 C   0  0  2  0  0  3  0  0  0  0  0  0
  184.1770  178.6410  144.6850 C   0  0  1  0  0  3  0  0  0  0  0  0
  1  2  1  6  0  0  0
  3  9  1  0  0  0  0
  3  7  1  0  0  0  0
  4  3  2  0  0  0  0
  5 11  2  0  0  0  0
  5 12  1  0  0  0  0
  6  9  2  0  0  0  0
  7 16  1  1  0  0  0
  7  8  1  0  0  0  0
  8  1  1  0  0  0  0
  9 10  1  0  0  0  0
 10  8  2  0  0  0  0
 11  6  1  0  0  0  0
 12 14  1  6  0  0  0
 12  4  1  0  0  0  0
 13 14  3  0  0  0  0
 16 15  1  0  0  0  0
 17 21  1  0  0  0  0
 18 21  1  0  0  0  0
 20 18  1  0  0  0  0
 22 17  1  0  0  0  0
 22 19  1  1  0  0  0
 23 22  1  0  0  0  0
 24  1  1  1  0  0  0
 24 20  1  0  0  0  0
 24 23  1  0  0  0  0
 25 20  2  0  0  0  0
 26 18  1  0  0  0  0
 26 27  1  0  0  0  0
 30 27  1  1  0  0  0
 30 28  1  0  0  0  0
 31 29  1  6  0  0  0
 31 30  1  0  0  0  0
 31 28  1  0  0  0  0
M  END
>  <MODEL>
2

>  <REMARK>
 VINA RESULT:      -6.8      1.819      2.539
  Name = 
  7 active torsions:
  status: ('A' for Active; 'I' for Inactive)
    1  A    between atoms: C_3  and  C_18
    2  A    between atoms: C_3  and  C_24
    3  A    between atoms: N_4  and  C_30
    4  A    between atoms: C_5  and  C_29
    5  A    between atoms: C_13  and  C_19
    6  A    between atoms: C_26  and  C_27
    7  A    between atoms: C_27  and  C_30
                            x       y       z     vdW  Elec       q    Type
                         _______ _______ _______ _____ _____    ______ ____

>  <TORSDO>
F 7

$$$$
=
 OpenBabel10222415493D

 31 34  0  0  1  0  0  0  0  0999 V2000
  187.6780  177.5690  144.4510 C   0  0  1  0  0  3  0  0  0  0  0  0
  187.6480  177.5810  146.2370 Cl  0  0  0  0  0  0  0  0  0  0  0  0
  184.1790  178.7190  143.6110 C   0  0  0  0  0  0  0  0  0  0  0  0
  182.9320  179.1260  143.8230 C   0  0  0  0  0  3  0  0  0  0  0  0
  182.0740  179.1730  141.5270 N   0  0  0  0  0  0  0  0  0  0  0  0
  184.2070  178.0490  141.2510 N   0  0  0  0  0  0  0  0  0  0  0  0
  185.2950  178.7640  144.6060 C   0  0  2  0  0  3  0  0  0  0  0  0
  186.3140  177.8870  143.9110 C   0  0  0  0  0  0  0  0  0  0  0  0
  184.6580  177.9640  142.4670 C   0  0  0  0  0  0  0  0  0  0  0  0
  185.9490  177.4560  142.7440 N   0  0  0  0  0  0  0  0  0  0  0  0
  183.0840  178.8210  140.7870 C   0  0  0  0  0  3  0  0  0  0  0  0
  181.8240  178.7480  142.8970 C   0  0  2  0  0  3  0  0  0  0  0  0
  179.5770  179.7980  143.7440 N   0  0  0  0  0  0  0  0  0  0  0  0
  180.5700  179.3350  143.3710 C   0  0  0  0  0  0  0  0  0  0  0  0
  184.9120  179.0990  146.9430 O   0  0  0  0  0  1  0  0  0  0  0  0
  184.8800  178.1380  145.9320 C   0  0  0  0  0  2  0  0  0  0  0  0
  190.4710  176.0060  144.0240 C   0  0  0  0  0  2  0  0  0  0  0  0
  189.7710  177.1090  141.9570 N   0  0  0  0  0  0  0  0  0  0  0  0
  191.9150  177.1410  145.6310 N   0  0  0  0  0  1  0  0  0  0  0  0
  189.0620  178.2660  142.4330 C   0  0  0  0  0  0  0  0  0  0  0  0
  190.9100  176.5510  142.6750 C   0  0  0  0  0  2  0  0  0  0  0  0
  190.5550  177.0600  145.1290 C   0  0  1  0  0  3  0  0  0  0  0  0
  190.0750  178.4620  144.7230 C   0  0  0  0  0  2  0  0  0  0  0  0
  188.7830  178.4880  143.8970 C   0  0  2  0  0  3  0  0  0  0  0  0
  188.5950  179.0950  141.6060 O   0  0  0  0  0  0  0  0  0  0  0  0
  189.4890  176.5790  140.6300 C   0  0  0  0  0  2  0  0  0  0  0  0
  189.9480  177.5650  139.5700 C   0  0  0  0  0  2  0  0  0  0  0  0
  189.6260  177.5920  137.1240 C   0  0  0  0  0  2  0  0  0  0  0  0
  187.8890  179.2700  137.0150 N   0  0  0  0  0  1  0  0  0  0  0  0
  188.9210  177.6330  138.4610 C   0  0  2  0  0  3  0  0  0  0  0  0
  189.1300  178.9110  137.6750 C   0  0  1  0  0  3  0  0  0  0  0  0
  1  2  1  1  0  0  0
  3  4  2  0  0  0  0
  3  7  1  0  0  0  0
  5 12  1  0  0  0  0
  6  9  2  0  0  0  0
  7 16  1  1  0  0  0
  8  1  1  0  0  0  0
  8  7  1  0  0  0  0
  9 10  1  0  0  0  0
  9  3  1  0  0  0  0
 10  8  2  0  0  0  0
 11  6  1  0  0  0  0
 11  5  2  0  0  0  0
 12 14  1  1  0  0  0
 12  4  1  0  0  0  0
 14 13  3  0  0  0  0
 16 15  1  0  0  0  0
 17 22  1  0  0  0  0
 18 20  1  0  0  0  0
 18 21  1  0  0  0  0
 20 24  1  0  0  0  0
 21 17  1  0  0  0  0
 22 19  1  6  0  0  0
 23 22  1  0  0  0  0
 24  1  1  1  0  0  0
 24 23  1  0  0  0  0
 25 20  2  0  0  0  0
 26 18  1  0  0  0  0
 27 26  1  0  0  0  0
 28 31  1  0  0  0  0
 28 30  1  0  0  0  0
 30 27  1  1  0  0  0
 31 29  1  6  0  0  0
 31 30  1  0  0  0  0
M  END
>  <MODEL>
3

>  <REMARK>
 VINA RESULT:      -6.5      2.505      6.072
  Name = 
  7 active torsions:
  status: ('A' for Active; 'I' for Inactive)
    1  A    between atoms: C_3  and  C_18
    2  A    between atoms: C_3  and  C_24
    3  A    between atoms: N_4  and  C_30
    4  A    between atoms: C_5  and  C_29
    5  A    between atoms: C_13  and  C_19
    6  A    between atoms: C_26  and  C_27
    7  A    between atoms: C_27  and  C_30
                            x       y       z     vdW  Elec       q    Type
                         _______ _______ _______ _____ _____    ______ ____

>  <TORSDO>
F 7

$$$$
=
 OpenBabel10222415493D

 31 34  0  0  1  0  0  0  0  0999 V2000
  189.1080  178.1090  144.4700 C   0  0  1  0  0  3  0  0  0  0  0  0
  190.6740  178.4330  145.2640 Cl  0  0  0  0  0  0  0  0  0  0  0  0
  189.9100  177.0950  140.9210 C   0  0  0  0  0  0  0  0  0  0  0  0
  190.5840  176.5340  139.9220 C   0  0  0  0  0  3  0  0  0  0  0  0
  189.2870  177.3240  137.9980 N   0  0  0  0  0  0  0  0  0  0  0  0
  188.3590  178.6410  139.8140 N   0  0  0  0  0  0  0  0  0  0  0  0
  190.0500  176.7550  142.3700 C   0  0  2  0  0  3  0  0  0  0  0  0
  189.3080  177.9170  142.9950 C   0  0  0  0  0  0  0  0  0  0  0  0
  189.0710  178.2760  140.8390 C   0  0  0  0  0  0  0  0  0  0  0  0
  188.7810  178.7410  142.1430 N   0  0  0  0  0  0  0  0  0  0  0  0
  188.3190  178.0230  138.5150 C   0  0  0  0  0  3  0  0  0  0  0  0
  190.6170  177.1520  138.5640 C   0  0  2  0  0  3  0  0  0  0  0  0
  192.0640  175.6670  136.9610 N   0  0  0  0  0  0  0  0  0  0  0  0
  191.4260  176.3220  137.6690 C   0  0  0  0  0  0  0  0  0  0  0  0
  191.7950  175.6320  143.5590 O   0  0  0  0  0  1  0  0  0  0  0  0
  191.5110  176.7700  142.8040 C   0  0  0  0  0  2  0  0  0  0  0  0
  187.3680  179.0680  147.0160 C   0  0  0  0  0  2  0  0  0  0  0  0
  185.9690  177.8560  145.4180 N   0  0  0  0  0  0  0  0  0  0  0  0
  188.4950  177.9030  148.8410 N   0  0  0  0  0  1  0  0  0  0  0  0
  186.8890  176.9180  144.8310 C   0  0  0  0  0  0  0  0  0  0  0  0
  186.0830  178.2830  146.8070 C   0  0  0  0  0  2  0  0  0  0  0  0
  188.5380  178.1660  147.4140 C   0  0  1  0  0  3  0  0  0  0  0  0
  188.6180  176.8360  146.6500 C   0  0  0  0  0  2  0  0  0  0  0  0
  188.3630  176.9400  145.1420 C   0  0  2  0  0  3  0  0  0  0  0  0
  186.4730  176.0890  143.9770 O   0  0  0  0  0  0  0  0  0  0  0  0
  184.7720  178.2530  144.6900 C   0  0  0  0  0  2  0  0  0  0  0  0
  185.0450  179.5160  143.8930 C   0  0  0  0  0  2  0  0  0  0  0  0
  184.3780  177.9880  142.0730 C   0  0  0  0  0  2  0  0  0  0  0  0
  184.9250  179.4130  140.1980 N   0  0  0  0  0  1  0  0  0  0  0  0
  184.3600  179.4240  142.5460 C   0  0  2  0  0  3  0  0  0  0  0  0
  185.3710  178.9810  141.5090 C   0  0  1  0  0  3  0  0  0  0  0  0
  1  2  1  1  0  0  0
  3  7  1  0  0  0  0
  4  3  2  0  0  0  0
  5 11  2  0  0  0  0
  5 12  1  0  0  0  0
  6  9  2  0  0  0  0
  7 16  1  1  0  0  0
  7  8  1  0  0  0  0
  8  1  1  0  0  0  0
  9  3  1  0  0  0  0
  9 10  1  0  0  0  0
 10  8  2  0  0  0  0
 11  6  1  0  0  0  0
 12 14  1  6  0  0  0
 12  4  1  0  0  0  0
 13 14  3  0  0  0  0
 16 15  1  0  0  0  0
 17 22  1  0  0  0  0
 18 21  1  0  0  0  0
 20 24  1  0  0  0  0
 20 18  1  0  0  0  0
 21 17  1  0  0  0  0
 22 19  1  1  0  0  0
 23 22  1  0  0  0  0
 24  1  1  1  0  0  0
 24 23  1  0  0  0  0
 25 20  2  0  0  0  0
 26 18  1  0  0  0  0
 27 26  1  0  0  0  0
 28 30  1  0  0  0  0
 30 27  1  1  0  0  0
 31 29  1  6  0  0  0
 31 28  1  0  0  0  0
 31 30  1  0  0  0  0
M  END
>  <MODEL>
4

>  <REMARK>
 VINA RESULT:      -6.5      2.192      3.206
  Name = 
  7 active torsions:
  status: ('A' for Active; 'I' for Inactive)
    1  A    between atoms: C_3  and  C_18
    2  A    between atoms: C_3  and  C_24
    3  A    between atoms: N_4  and  C_30
    4  A    between atoms: C_5  and  C_29
    5  A    between atoms: C_13  and  C_19
    6  A    between atoms: C_26  and  C_27
    7  A    between atoms: C_27  and  C_30
                            x       y       z     vdW  Elec       q    Type
                         _______ _______ _______ _____ _____    ______ ____

>  <TORSDO>
F 7

$$$$
=
 OpenBabel10222415493D

 31 34  0  0  1  0  0  0  0  0999 V2000
  182.7770  178.8970  138.6580 C   0  0  1  0  0  3  0  0  0  0  0  0
  181.8880  180.4420  138.5460 Cl  0  0  0  0  0  0  0  0  0  0  0  0
  184.1170  178.4650  142.1630 C   0  0  0  0  0  0  0  0  0  0  0  0
  184.0940  178.3840  143.4900 C   0  0  0  0  0  3  0  0  0  0  0  0
  186.4910  178.2140  143.9740 N   0  0  0  0  0  0  0  0  0  0  0  0
  186.4870  178.7770  141.6140 N   0  0  0  0  0  0  0  0  0  0  0  0
  182.9380  178.3060  141.2570 C   0  0  2  0  0  3  0  0  0  0  0  0
  183.5200  178.8250  139.9600 C   0  0  0  0  0  0  0  0  0  0  0  0
  185.2240  178.9250  141.3460 C   0  0  0  0  0  0  0  0  0  0  0  0
  184.7700  179.1610  140.0260 N   0  0  0  0  0  0  0  0  0  0  0  0
  187.0680  178.2230  142.8090 C   0  0  0  0  0  3  0  0  0  0  0  0
  185.2370  178.8710  144.3160 C   0  0  2  0  0  3  0  0  0  0  0  0
  184.7080  178.4810  146.8540 N   0  0  0  0  0  0  0  0  0  0  0  0
  184.9420  178.6540  145.7340 C   0  0  0  0  0  0  0  0  0  0  0  0
  180.5820  178.4680  141.6360 O   0  0  0  0  0  1  0  0  0  0  0  0
  181.7760  179.1870  141.7010 C   0  0  0  0  0  2  0  0  0  0  0  0
  182.8860  177.8590  135.6020 C   0  0  0  0  0  2  0  0  0  0  0  0
  183.3650  176.0320  137.1550 N   0  0  0  0  0  0  0  0  0  0  0  0
  180.6070  178.3120  134.8530 N   0  0  0  0  0  1  0  0  0  0  0  0
  182.5900  176.3830  138.3150 C   0  0  0  0  0  0  0  0  0  0  0  0
  182.9230  176.3530  135.8040 C   0  0  0  0  0  2  0  0  0  0  0  0
  181.5260  178.4590  135.9670 C   0  0  1  0  0  3  0  0  0  0  0  0
  180.8860  177.8830  137.2390 C   0  0  0  0  0  2  0  0  0  0  0  0
  181.8490  177.6910  138.4170 C   0  0  2  0  0  3  0  0  0  0  0  0
  182.5750  175.6110  139.3110 O   0  0  0  0  0  0  0  0  0  0  0  0
  184.5260  175.1640  137.2920 C   0  0  0  0  0  2  0  0  0  0  0  0
  185.7440  175.8240  136.6720 C   0  0  0  0  0  2  0  0  0  0  0  0
  186.6450  178.1010  136.3700 C   0  0  0  0  0  2  0  0  0  0  0  0
  187.8010  178.3070  138.4840 N   0  0  0  0  0  1  0  0  0  0  0  0
  186.0060  177.1490  137.3560 C   0  0  2  0  0  3  0  0  0  0  0  0
  187.5010  177.3930  137.3980 C   0  0  1  0  0  3  0  0  0  0  0  0
  1  2  1  1  0  0  0
  1  8  1  0  0  0  0
  3  4  2  0  0  0  0
  4 12  1  0  0  0  0
  5 12  1  0  0  0  0
  6 11  1  0  0  0  0
  7 16  1  1  0  0  0
  7  3  1  0  0  0  0
  8 10  2  0  0  0  0
  8  7  1  0  0  0  0
  9  6  2  0  0  0  0
  9  3  1  0  0  0  0
 10  9  1  0  0  0  0
 11  5  2  0  0  0  0
 12 14  1  1  0  0  0
 14 13  3  0  0  0  0
 15 16  1  0  0  0  0
 17 21  1  0  0  0  0
 17 22  1  0  0  0  0
 18 26  1  0  0  0  0
 18 20  1  0  0  0  0
 20 24  1  0  0  0  0
 20 25  2  0  0  0  0
 21 18  1  0  0  0  0
 22 19  1  6  0  0  0
 22 23  1  0  0  0  0
 23 24  1  0  0  0  0
 24  1  1  6  0  0  0
 27 26  1  0  0  0  0
 28 30  1  0  0  0  0
 28 31  1  0  0  0  0
 30 27  1  6  0  0  0
 30 31  1  0  0  0  0
 31 29  1  1  0  0  0
M  END
>  <MODEL>
5

>  <REMARK>
 VINA RESULT:      -6.3      3.938      8.929
  Name = 
  7 active torsions:
  status: ('A' for Active; 'I' for Inactive)
    1  A    between atoms: C_3  and  C_18
    2  A    between atoms: C_3  and  C_24
    3  A    between atoms: N_4  and  C_30
    4  A    between atoms: C_5  and  C_29
    5  A    between atoms: C_13  and  C_19
    6  A    between atoms: C_26  and  C_27
    7  A    between atoms: C_27  and  C_30
                            x       y       z     vdW  Elec       q    Type
                         _______ _______ _______ _____ _____    ______ ____

>  <TORSDO>
F 7

$$$$
=
 OpenBabel10222415493D

 31 34  0  0  1  0  0  0  0  0999 V2000
  188.3640  177.2230  145.5470 C   0  0  1  0  0  3  0  0  0  0  0  0
  187.8320  176.8280  147.2060 Cl  0  0  0  0  0  0  0  0  0  0  0  0
  185.2120  178.5830  143.9730 C   0  0  0  0  0  0  0  0  0  0  0  0
  183.9570  179.0160  143.9030 C   0  0  0  0  0  3  0  0  0  0  0  0
  183.7160  179.3200  141.4830 N   0  0  0  0  0  0  0  0  0  0  0  0
  185.8350  178.1470  141.6400 N   0  0  0  0  0  0  0  0  0  0  0  0
  186.0360  178.4890  145.2170 C   0  0  2  0  0  3  0  0  0  0  0  0
  187.1890  177.6450  144.7160 C   0  0  0  0  0  0  0  0  0  0  0  0
  185.9580  177.9270  142.9160 C   0  0  0  0  0  0  0  0  0  0  0  0
  187.1290  177.3440  143.4560 N   0  0  0  0  0  0  0  0  0  0  0  0
  184.8780  179.0030  140.9900 C   0  0  0  0  0  3  0  0  0  0  0  0
  183.1190  178.7730  142.6930 C   0  0  2  0  0  3  0  0  0  0  0  0
  180.7440  179.8240  143.0480 N   0  0  0  0  0  0  0  0  0  0  0  0
  181.7920  179.3600  142.8920 C   0  0  0  0  0  0  0  0  0  0  0  0
  184.9320  178.6460  147.3320 O   0  0  0  0  0  1  0  0  0  0  0  0
  185.2880  177.7520  146.3220 C   0  0  0  0  0  2  0  0  0  0  0  0
  191.2690  175.8240  145.7440 C   0  0  0  0  0  2  0  0  0  0  0  0
  191.1510  177.3070  143.8030 N   0  0  0  0  0  0  0  0  0  0  0  0
  192.0560  176.6400  147.9060 N   0  0  0  0  0  1  0  0  0  0  0  0
  190.2410  178.3330  144.2360 C   0  0  0  0  0  0  0  0  0  0  0  0
  192.0560  176.6360  144.7280 C   0  0  0  0  0  2  0  0  0  0  0  0
  190.9260  176.6380  146.9940 C   0  0  1  0  0  3  0  0  0  0  0  0
  190.4840  178.0840  146.7230 C   0  0  0  0  0  2  0  0  0  0  0  0
  189.5100  178.2530  145.5510 C   0  0  2  0  0  3  0  0  0  0  0  0
  189.9860  179.3030  143.4710 O   0  0  0  0  0  0  0  0  0  0  0  0
  191.3330  177.0490  142.3810 C   0  0  0  0  0  2  0  0  0  0  0  0
  189.9860  176.8220  141.7190 C   0  0  0  0  0  2  0  0  0  0  0  0
  189.0560  178.4990  140.1660 C   0  0  0  0  0  2  0  0  0  0  0  0
  188.8250  177.0870  138.2170 N   0  0  0  0  0  1  0  0  0  0  0  0
  190.0240  177.3450  140.2990 C   0  0  2  0  0  3  0  0  0  0  0  0
  188.6680  177.1270  139.6590 C   0  0  1  0  0  3  0  0  0  0  0  0
  1  2  1  1  0  0  0
  3  7  1  0  0  0  0
  4  3  2  0  0  0  0
  5 12  1  0  0  0  0
  6  9  2  0  0  0  0
  7 16  1  1  0  0  0
  8  7  1  0  0  0  0
  8  1  1  0  0  0  0
  9 10  1  0  0  0  0
  9  3  1  0  0  0  0
 10  8  2  0  0  0  0
 11  5  2  0  0  0  0
 11  6  1  0  0  0  0
 12 14  1  1  0  0  0
 12  4  1  0  0  0  0
 14 13  3  0  0  0  0
 16 15  1  0  0  0  0
 17 22  1  0  0  0  0
 18 20  1  0  0  0  0
 18 21  1  0  0  0  0
 20 24  1  0  0  0  0
 21 17  1  0  0  0  0
 22 19  1  1  0  0  0
 23 22  1  0  0  0  0
 24  1  1  6  0  0  0
 24 23  1  0  0  0  0
 25 20  2  0  0  0  0
 26 18  1  0  0  0  0
 27 26  1  0  0  0  0
 28 30  1  0  0  0  0
 30 27  1  1  0  0  0
 31 29  1  6  0  0  0
 31 28  1  0  0  0  0
 31 30  1  0  0  0  0
M  END
>  <MODEL>
6

>  <REMARK>
 VINA RESULT:      -6.3      2.559      5.666
  Name = 
  7 active torsions:
  status: ('A' for Active; 'I' for Inactive)
    1  A    between atoms: C_3  and  C_18
    2  A    between atoms: C_3  and  C_24
    3  A    between atoms: N_4  and  C_30
    4  A    between atoms: C_5  and  C_29
    5  A    between atoms: C_13  and  C_19
    6  A    between atoms: C_26  and  C_27
    7  A    between atoms: C_27  and  C_30
                            x       y       z     vdW  Elec       q    Type
                         _______ _______ _______ _____ _____    ______ ____

>  <TORSDO>
F 7

$$$$
=
 OpenBabel10222415493D

 31 34  0  0  1  0  0  0  0  0999 V2000
  188.2480  178.3730  141.3750 C   0  0  1  0  0  3  0  0  0  0  0  0
  188.3750  179.0030  139.7090 Cl  0  0  0  0  0  0  0  0  0  0  0  0
  184.5530  178.3780  142.1600 C   0  0  0  0  0  0  0  0  0  0  0  0
  183.2450  178.3190  141.9330 C   0  0  0  0  0  3  0  0  0  0  0  0
  182.3730  178.8030  144.1720 N   0  0  0  0  0  0  0  0  0  0  0  0
  184.7350  179.3000  144.4270 N   0  0  0  0  0  0  0  0  0  0  0  0
  185.6250  177.8940  141.2360 C   0  0  2  0  0  3  0  0  0  0  0  0
  186.8420  178.5250  141.8770 C   0  0  0  0  0  0  0  0  0  0  0  0
  185.2110  179.1010  143.2330 C   0  0  0  0  0  0  0  0  0  0  0  0
  186.5980  179.1830  142.9670 N   0  0  0  0  0  0  0  0  0  0  0  0
  183.4300  178.9430  144.9180 C   0  0  0  0  0  3  0  0  0  0  0  0
  182.2790  179.1080  142.7520 C   0  0  2  0  0  3  0  0  0  0  0  0
  179.8390  178.6390  141.9160 N   0  0  0  0  0  0  0  0  0  0  0  0
  180.9160  178.8470  142.2850 C   0  0  0  0  0  0  0  0  0  0  0  0
  184.9540  179.7530  139.8890 O   0  0  0  0  0  1  0  0  0  0  0  0
  185.4300  178.4420  139.8280 C   0  0  0  0  0  2  0  0  0  0  0  0
  191.2890  178.2600  142.4570 C   0  0  0  0  0  2  0  0  0  0  0  0
  189.8280  176.8590  143.8290 N   0  0  0  0  0  0  0  0  0  0  0  0
  192.4600  177.3430  140.5220 N   0  0  0  0  0  1  0  0  0  0  0  0
  188.8330  176.4140  142.8910 C   0  0  0  0  0  0  0  0  0  0  0  0
  191.2110  177.0980  143.4340 C   0  0  0  0  0  2  0  0  0  0  0  0
  191.1700  177.8020  141.0020 C   0  0  1  0  0  3  0  0  0  0  0  0
  190.1140  176.7150  140.7510 C   0  0  0  0  0  2  0  0  0  0  0  0
  188.7800  176.9300  141.4760 C   0  0  2  0  0  3  0  0  0  0  0  0
  187.9300  175.6200  143.2700 O   0  0  0  0  0  0  0  0  0  0  0  0
  189.5230  176.8890  145.2530 C   0  0  0  0  0  2  0  0  0  0  0  0
  188.3940  177.8680  145.5200 C   0  0  0  0  0  2  0  0  0  0  0  0
  186.7570  178.6170  147.2080 C   0  0  0  0  0  2  0  0  0  0  0  0
  187.9300  177.8780  149.1900 N   0  0  0  0  0  1  0  0  0  0  0  0
  187.7000  177.5020  146.8140 C   0  0  2  0  0  3  0  0  0  0  0  0
  188.1040  178.4930  147.8870 C   0  0  1  0  0  3  0  0  0  0  0  0
  1  2  1  6  0  0  0
  1  8  1  0  0  0  0
  3  9  1  0  0  0  0
  4  3  2  0  0  0  0
  4 12  1  0  0  0  0
  5 11  2  0  0  0  0
  6 11  1  0  0  0  0
  7 16  1  6  0  0  0
  7  8  1  0  0  0  0
  7  3  1  0  0  0  0
  8 10  2  0  0  0  0
  9  6  2  0  0  0  0
 10  9  1  0  0  0  0
 12 14  1  6  0  0  0
 12  5  1  0  0  0  0
 13 14  3  0  0  0  0
 16 15  1  0  0  0  0
 17 21  1  0  0  0  0
 18 26  1  0  0  0  0
 20 25  2  0  0  0  0
 20 18  1  0  0  0  0
 21 18  1  0  0  0  0
 22 19  1  1  0  0  0
 22 17  1  0  0  0  0
 23 22  1  0  0  0  0
 23 24  1  0  0  0  0
 24  1  1  1  0  0  0
 24 20  1  0  0  0  0
 26 27  1  0  0  0  0
 28 31  1  0  0  0  0
 30 27  1  6  0  0  0
 30 28  1  0  0  0  0
 30 31  1  0  0  0  0
 31 29  1  1  0  0  0
M  END
>  <MODEL>
7

>  <REMARK>
 VINA RESULT:      -6.2      2.792      5.044
  Name = 
  7 active torsions:
  status: ('A' for Active; 'I' for Inactive)
    1  A    between atoms: C_3  and  C_18
    2  A    between atoms: C_3  and  C_24
    3  A    between atoms: N_4  and  C_30
    4  A    between atoms: C_5  and  C_29
    5  A    between atoms: C_13  and  C_19
    6  A    between atoms: C_26  and  C_27
    7  A    between atoms: C_27  and  C_30
                            x       y       z     vdW  Elec       q    Type
                         _______ _______ _______ _____ _____    ______ ____

>  <TORSDO>
F 7

$$$$
=
 OpenBabel10222415493D

 31 34  0  0  1  0  0  0  0  0999 V2000
  188.6240  177.1920  140.8820 C   0  0  1  0  0  3  0  0  0  0  0  0
  189.9900  176.4390  140.0120 Cl  0  0  0  0  0  0  0  0  0  0  0  0
  189.8570  177.3270  144.4500 C   0  0  0  0  0  0  0  0  0  0  0  0
  190.7180  177.2550  145.4590 C   0  0  0  0  0  3  0  0  0  0  0  0
  189.2080  177.5550  147.3660 N   0  0  0  0  0  0  0  0  0  0  0  0
  187.6520  177.2660  145.5260 N   0  0  0  0  0  0  0  0  0  0  0  0
  190.2120  177.4950  143.0070 C   0  0  2  0  0  3  0  0  0  0  0  0
  188.8820  177.1740  142.3600 C   0  0  0  0  0  0  0  0  0  0  0  0
  188.4330  177.0510  144.5090 C   0  0  0  0  0  0  0  0  0  0  0  0
  187.9200  176.9310  143.1950 N   0  0  0  0  0  0  0  0  0  0  0  0
  188.0320  177.7240  146.8360 C   0  0  0  0  0  3  0  0  0  0  0  0
  190.2970  176.7680  146.8050 C   0  0  2  0  0  3  0  0  0  0  0  0
  192.3480  176.8220  148.4350 N   0  0  0  0  0  0  0  0  0  0  0  0
  191.4420  176.7980  147.7160 C   0  0  0  0  0  0  0  0  0  0  0  0
  190.8380  175.1890  142.8890 O   0  0  0  0  0  1  0  0  0  0  0  0
  191.2640  176.4800  142.5740 C   0  0  0  0  0  2  0  0  0  0  0  0
  186.5900  177.1020  138.3740 C   0  0  0  0  0  2  0  0  0  0  0  0
  185.7390  178.5800  140.1280 N   0  0  0  0  0  0  0  0  0  0  0  0
  187.9970  177.9610  136.5760 N   0  0  0  0  0  1  0  0  0  0  0  0
  186.9420  179.0940  140.7270 C   0  0  0  0  0  0  0  0  0  0  0  0
  185.6600  178.2570  138.7080 C   0  0  0  0  0  2  0  0  0  0  0  0
  187.9870  177.5800  137.9760 C   0  0  1  0  0  3  0  0  0  0  0  0
  188.5420  178.7340  138.8250 C   0  0  0  0  0  2  0  0  0  0  0  0
  188.3090  178.5970  140.3340 C   0  0  2  0  0  3  0  0  0  0  0  0
  186.8610  179.9400  141.6580 O   0  0  0  0  0  0  0  0  0  0  0  0
  184.5000  178.5550  140.8910 C   0  0  0  0  0  2  0  0  0  0  0  0
  184.7460  177.9490  142.2610 C   0  0  0  0  0  2  0  0  0  0  0  0
  184.5340  179.9480  143.6930 C   0  0  0  0  0  2  0  0  0  0  0  0
  183.6960  178.8660  145.6870 N   0  0  0  0  0  1  0  0  0  0  0  0
  183.8800  178.6460  143.2880 C   0  0  2  0  0  3  0  0  0  0  0  0
  184.6420  178.7370  144.5940 C   0  0  1  0  0  3  0  0  0  0  0  0
  1  2  1  6  0  0  0
  1  8  1  0  0  0  0
  3  9  1  0  0  0  0
  3  4  2  0  0  0  0
  4 12  1  0  0  0  0
  6 11  1  0  0  0  0
  7 16  1  6  0  0  0
  7  3  1  0  0  0  0
  8  7  1  0  0  0  0
  8 10  2  0  0  0  0
  9  6  2  0  0  0  0
 10  9  1  0  0  0  0
 11  5  2  0  0  0  0
 12  5  1  0  0  0  0
 12 14  1  1  0  0  0
 14 13  3  0  0  0  0
 16 15  1  0  0  0  0
 17 21  1  0  0  0  0
 18 20  1  0  0  0  0
 18 26  1  0  0  0  0
 20 25  2  0  0  0  0
 21 18  1  0  0  0  0
 22 19  1  6  0  0  0
 22 17  1  0  0  0  0
 22 23  1  0  0  0  0
 23 24  1  0  0  0  0
 24 20  1  0  0  0  0
 24  1  1  6  0  0  0
 26 27  1  0  0  0  0
 28 31  1  0  0  0  0
 30 27  1  6  0  0  0
 30 28  1  0  0  0  0
 30 31  1  0  0  0  0
 31 29  1  1  0  0  0
M  END
>  <MODEL>
8

>  <REMARK>
 VINA RESULT:      -6.0      1.806      6.599
  Name = 
  7 active torsions:
  status: ('A' for Active; 'I' for Inactive)
    1  A    between atoms: C_3  and  C_18
    2  A    between atoms: C_3  and  C_24
    3  A    between atoms: N_4  and  C_30
    4  A    between atoms: C_5  and  C_29
    5  A    between atoms: C_13  and  C_19
    6  A    between atoms: C_26  and  C_27
    7  A    between atoms: C_27  and  C_30
                            x       y       z     vdW  Elec       q    Type
                         _______ _______ _______ _____ _____    ______ ____

>  <TORSDO>
F 7

$$$$
=
 OpenBabel10222415493D

 31 34  0  0  1  0  0  0  0  0999 V2000
  183.6740  177.9950  138.3530 C   0  0  1  0  0  3  0  0  0  0  0  0
  182.5020  177.9260  137.0070 Cl  0  0  0  0  0  0  0  0  0  0  0  0
  186.8320  176.7250  136.7150 C   0  0  0  0  0  0  0  0  0  0  0  0
  187.6410  175.8720  136.0940 C   0  0  0  0  0  3  0  0  0  0  0  0
  189.7300  177.1540  136.0860 N   0  0  0  0  0  0  0  0  0  0  0  0
  188.3290  178.4750  137.5620 N   0  0  0  0  0  0  0  0  0  0  0  0
  185.3410  176.6300  136.7750 C   0  0  2  0  0  3  0  0  0  0  0  0
  185.0470  177.6450  137.8590 C   0  0  0  0  0  0  0  0  0  0  0  0
  187.2290  177.7840  137.6240 C   0  0  0  0  0  0  0  0  0  0  0  0
  186.0910  178.2650  138.3140 N   0  0  0  0  0  0  0  0  0  0  0  0
  189.4300  178.2840  136.6560 C   0  0  0  0  0  3  0  0  0  0  0  0
  189.1090  175.8650  136.3570 C   0  0  2  0  0  3  0  0  0  0  0  0
  190.2500  174.0170  134.8880 N   0  0  0  0  0  0  0  0  0  0  0  0
  189.7470  174.8330  135.5370 C   0  0  0  0  0  0  0  0  0  0  0  0
  183.8490  174.7970  136.4080 O   0  0  0  0  0  1  0  0  0  0  0  0
  184.8920  175.2430  137.2200 C   0  0  0  0  0  2  0  0  0  0  0  0
  181.3040  178.1030  140.5440 C   0  0  0  0  0  2  0  0  0  0  0  0
  183.4530  178.6660  141.5650 N   0  0  0  0  0  0  0  0  0  0  0  0
  179.8590  179.8360  139.6120 N   0  0  0  0  0  1  0  0  0  0  0  0
  184.1690  179.2920  140.4850 C   0  0  0  0  0  0  0  0  0  0  0  0
  182.0080  178.7860  141.7050 C   0  0  0  0  0  2  0  0  0  0  0  0
  181.0610  179.0580  139.3730 C   0  0  1  0  0  3  0  0  0  0  0  0
  182.2290  180.0040  139.0570 C   0  0  0  0  0  2  0  0  0  0  0  0
  183.6160  179.3500  139.0850 C   0  0  2  0  0  3  0  0  0  0  0  0
  185.3250  179.7520  140.6880 O   0  0  0  0  0  0  0  0  0  0  0  0
  184.1860  178.0570  142.6660 C   0  0  0  0  0  2  0  0  0  0  0  0
  183.7070  178.6290  143.9870 C   0  0  0  0  0  2  0  0  0  0  0  0
  185.9050  178.1070  144.9800 C   0  0  0  0  0  2  0  0  0  0  0  0
  185.6800  179.3790  147.0240 N   0  0  0  0  0  1  0  0  0  0  0  0
  184.8840  179.1980  144.7510 C   0  0  2  0  0  3  0  0  0  0  0  0
  184.9720  178.5140  146.1000 C   0  0  1  0  0  3  0  0  0  0  0  0
  1  2  1  6  0  0  0
  3  7  1  0  0  0  0
  3  9  1  0  0  0  0
  4 12  1  0  0  0  0
  4  3  2  0  0  0  0
  5 12  1  0  0  0  0
  5 11  2  0  0  0  0
  6  9  2  0  0  0  0
  7 16  1  1  0  0  0
  7  8  1  0  0  0  0
  8 10  2  0  0  0  0
  8  1  1  0  0  0  0
  9 10  1  0  0  0  0
 11  6  1  0  0  0  0
 12 14  1  6  0  0  0
 13 14  3  0  0  0  0
 15 16  1  0  0  0  0
 17 21  1  0  0  0  0
 18 21  1  0  0  0  0
 18 26  1  0  0  0  0
 20 25  2  0  0  0  0
 20 18  1  0  0  0  0
 22 19  1  1  0  0  0
 22 17  1  0  0  0  0
 23 24  1  0  0  0  0
 23 22  1  0  0  0  0
 24  1  1  1  0  0  0
 24 20  1  0  0  0  0
 26 27  1  0  0  0  0
 28 31  1  0  0  0  0
 30 27  1  6  0  0  0
 30 28  1  0  0  0  0
 30 31  1  0  0  0  0
 31 29  1  1  0  0  0
M  END
>  <MODEL>
9

>  <REMARK>
 VINA RESULT:      -5.9      4.023      6.559
  Name = 
  7 active torsions:
  status: ('A' for Active; 'I' for Inactive)
    1  A    between atoms: C_3  and  C_18
    2  A    between atoms: C_3  and  C_24
    3  A    between atoms: N_4  and  C_30
    4  A    between atoms: C_5  and  C_29
    5  A    between atoms: C_13  and  C_19
    6  A    between atoms: C_26  and  C_27
    7  A    between atoms: C_27  and  C_30
                            x       y       z     vdW  Elec       q    Type
                         _______ _______ _______ _____ _____    ______ ____

>  <TORSDO>
F 7

$$$$
