=
 OpenBabel10222416553D

 28 31  0  0  1  0  0  0  0  0999 V2000
  190.7050  178.0790  142.0290 C   0  0  0  0  0  2  0  0  0  0  0  0
  189.5890  176.5000  140.4880 O   0  0  0  0  0  0  0  0  0  0  0  0
  187.7740  178.4360  139.6720 O   0  0  0  0  0  0  0  0  0  0  0  0
  188.2890  178.5420  140.9750 C   0  0  2  0  0  3  0  0  0  0  0  0
  189.5980  177.7960  141.0270 C   0  0  1  0  0  0  0  0  0  0  0  0
  190.0170  177.5600  139.6560 C   0  0  2  0  0  3  0  0  0  0  0  0
  188.8480  178.0690  138.8340 C   0  0  0  0  0  2  0  0  0  0  0  0
  187.3080  177.9590  141.9810 C   0  0  0  0  0  2  0  0  0  0  0  0
  186.0000  178.6630  141.8980 C   0  0  0  0  0  0  0  0  0  0  0  0
  185.9120  179.7420  141.2520 O   0  0  0  0  0  0  0  0  0  0  0  0
  184.8490  178.0930  142.5240 N   0  0  0  0  0  2  0  0  0  0  0  0
  183.5220  178.6790  142.4080 C   0  0  0  0  0  2  0  0  0  0  0  0
  182.7410  178.8020  144.0490 S   0  0  0  0  0  0  0  0  0  0  0  0
  184.3140  179.1550  144.8870 C   0  0  0  0  0  2  0  0  0  0  0  0
  184.2020  178.8600  146.2460 O   0  0  0  0  0  1  0  0  0  0  0  0
  191.0820  176.8170  142.7860 C   0  0  0  0  0  2  0  0  0  0  0  0
  189.0020  177.4950  145.8050 C   0  0  0  0  0  0  0  0  0  0  0  0
  189.8570  177.1220  146.8630 C   0  0  0  0  0  0  0  0  0  0  0  0
  191.5440  176.5490  145.2260 C   0  0  0  0  0  3  0  0  0  0  0  0
  188.1780  177.6890  148.4480 C   0  0  0  0  0  3  0  0  0  0  0  0
  187.3050  178.0670  147.4240 C   0  0  0  0  0  3  0  0  0  0  0  0
  189.4240  177.2300  148.1510 N   0  0  0  0  0  0  0  0  0  0  0  0
  190.6650  176.9350  144.2090 C   0  0  0  0  0  0  0  0  0  0  0  0
  191.1420  176.6430  146.5610 C   0  0  0  0  0  0  0  0  0  0  0  0
  189.4210  177.3920  144.5170 N   0  0  0  0  0  0  0  0  0  0  0  0
  187.7220  177.9690  146.0960 C   0  0  0  0  0  3  0  0  0  0  0  0
  192.0580  176.2460  147.5980 C   0  0  0  0  0  0  0  0  0  0  0  0
  192.7950  175.9240  148.4310 N   0  0  0  0  0  0  0  0  0  0  0  0
  1 16  1  0  0  0  0
  2  5  1  0  0  0  0
  3  4  1  0  0  0  0
  4  5  1  0  0  0  0
  4  8  1  1  0  0  0
  5  1  1  1  0  0  0
  6  7  1  6  0  0  0
  6  2  1  0  0  0  0
  6  5  1  0  0  0  0
  7  3  1  0  0  0  0
  9  8  1  0  0  0  0
  9 11  1  0  0  0  0
 10  9  2  0  0  0  0
 12 11  1  0  0  0  0
 12 13  1  0  0  0  0
 13 14  1  0  0  0  0
 14 15  1  0  0  0  0
 16 23  1  0  0  0  0
 17 26  1  0  0  0  0
 17 18  1  0  0  0  0
 18 22  1  0  0  0  0
 19 24  1  0  0  0  0
 21 20  1  0  0  0  0
 22 20  2  0  0  0  0
 23 25  1  0  0  0  0
 23 19  2  0  0  0  0
 24 18  2  0  0  0  0
 24 27  1  0  0  0  0
 25 17  2  0  0  0  0
 26 21  2  0  0  0  0
 27 28  3  0  0  0  0
M  END
>  <MODEL>
1

>  <REMARK>
 VINA RESULT:      -8.0      0.000      0.000
  Name = 
  9 active torsions:
  status: ('A' for Active; 'I' for Inactive)
    1  A    between atoms: C_1  and  C_3
    2  A    between atoms: C_1  and  C_20
    3  A    between atoms: C_3  and  C_13
    4  A    between atoms: C_4  and  S_22
    5  A    between atoms: C_6  and  C_17
    6  A    between atoms: C_10  and  C_21
    7  A    between atoms: C_11  and  C_17
    8  A    between atoms: S_22  and  C_25
    9  A    between atoms: C_25  and  N_27
                            x       y       z     vdW  Elec       q    Type
                         _______ _______ _______ _____ _____    ______ ____

>  <TORSDO>
F 9

$$$$
=
 OpenBabel10222416553D

 28 31  0  0  1  0  0  0  0  0999 V2000
  189.0030  178.3050  141.4400 C   0  0  0  0  0  2  0  0  0  0  0  0
  190.3290  176.2390  141.1400 O   0  0  0  0  0  0  0  0  0  0  0  0
  191.3180  177.1190  138.7000 O   0  0  0  0  0  0  0  0  0  0  0  0
  190.0480  177.5790  139.0860 C   0  0  2  0  0  3  0  0  0  0  0  0
  189.9410  177.4690  140.5860 C   0  0  1  0  0  0  0  0  0  0  0  0
  191.2850  177.2800  141.1020 C   0  0  2  0  0  3  0  0  0  0  0  0
  192.1330  177.1500  139.8500 C   0  0  0  0  0  2  0  0  0  0  0  0
  188.9600  176.7530  138.4160 C   0  0  0  0  0  2  0  0  0  0  0  0
  187.8120  177.6200  138.0330 C   0  0  0  0  0  0  0  0  0  0  0  0
  187.9700  178.8690  137.9610 O   0  0  0  0  0  0  0  0  0  0  0  0
  186.5510  177.0260  137.7200 N   0  0  0  0  0  2  0  0  0  0  0  0
  185.4120  177.8020  137.2520 C   0  0  0  0  0  2  0  0  0  0  0  0
  184.0230  177.6520  138.4200 S   0  0  0  0  0  0  0  0  0  0  0  0
  184.7540  178.8230  139.6020 C   0  0  0  0  0  2  0  0  0  0  0  0
  184.5540  180.1300  139.1580 O   0  0  0  0  0  1  0  0  0  0  0  0
  187.7820  177.4970  141.8470 C   0  0  0  0  0  2  0  0  0  0  0  0
  188.3590  177.5510  145.5300 C   0  0  0  0  0  0  0  0  0  0  0  0
  187.1090  177.9640  146.0350 C   0  0  0  0  0  0  0  0  0  0  0  0
  186.2830  178.0650  143.7630 C   0  0  0  0  0  3  0  0  0  0  0  0
  187.9490  177.8610  148.2570 C   0  0  0  0  0  3  0  0  0  0  0  0
  189.2010  177.4500  147.7900 C   0  0  0  0  0  3  0  0  0  0  0  0
  186.9380  178.1060  147.3800 N   0  0  0  0  0  0  0  0  0  0  0  0
  187.5370  177.6470  143.3070 C   0  0  0  0  0  0  0  0  0  0  0  0
  186.0630  178.2230  145.1340 C   0  0  0  0  0  0  0  0  0  0  0  0
  188.5430  177.4060  144.1910 N   0  0  0  0  0  0  0  0  0  0  0  0
  189.4040  177.2950  146.4180 C   0  0  0  0  0  3  0  0  0  0  0  0
  184.7660  178.6490  145.5900 C   0  0  0  0  0  0  0  0  0  0  0  0
  183.7230  178.9910  145.9570 N   0  0  0  0  0  0  0  0  0  0  0  0
  1 16  1  0  0  0  0
  3  4  1  0  0  0  0
  3  7  1  0  0  0  0
  4  8  1  6  0  0  0
  4  5  1  0  0  0  0
  5  6  1  0  0  0  0
  5  2  1  0  0  0  0
  5  1  1  1  0  0  0
  6  7  1  6  0  0  0
  6  2  1  0  0  0  0
  9  8  1  0  0  0  0
 10  9  2  0  0  0  0
 11  9  1  0  0  0  0
 12 11  1  0  0  0  0
 12 13  1  0  0  0  0
 13 14  1  0  0  0  0
 15 14  1  0  0  0  0
 16 23  1  0  0  0  0
 17 18  1  0  0  0  0
 17 26  1  0  0  0  0
 18 22  1  0  0  0  0
 19 24  1  0  0  0  0
 21 20  1  0  0  0  0
 22 20  2  0  0  0  0
 23 19  2  0  0  0  0
 23 25  1  0  0  0  0
 24 27  1  0  0  0  0
 24 18  2  0  0  0  0
 25 17  2  0  0  0  0
 26 21  2  0  0  0  0
 27 28  3  0  0  0  0
M  END
>  <MODEL>
2

>  <REMARK>
 VINA RESULT:      -7.9      2.735      4.396
  Name = 
  9 active torsions:
  status: ('A' for Active; 'I' for Inactive)
    1  A    between atoms: C_1  and  C_3
    2  A    between atoms: C_1  and  C_20
    3  A    between atoms: C_3  and  C_13
    4  A    between atoms: C_4  and  S_22
    5  A    between atoms: C_6  and  C_17
    6  A    between atoms: C_10  and  C_21
    7  A    between atoms: C_11  and  C_17
    8  A    between atoms: S_22  and  C_25
    9  A    between atoms: C_25  and  N_27
                            x       y       z     vdW  Elec       q    Type
                         _______ _______ _______ _____ _____    ______ ____

>  <TORSDO>
F 9

$$$$
=
 OpenBabel10222416553D

 28 31  0  0  1  0  0  0  0  0999 V2000
  188.1890  178.4760  140.9040 C   0  0  0  0  0  2  0  0  0  0  0  0
  189.5450  178.5270  138.8360 O   0  0  0  0  0  0  0  0  0  0  0  0
  190.6030  176.0140  139.3580 O   0  0  0  0  0  0  0  0  0  0  0  0
  190.2270  176.8000  140.4620 C   0  0  2  0  0  3  0  0  0  0  0  0
  189.2120  177.8120  139.9970 C   0  0  1  0  0  0  0  0  0  0  0  0
  188.7330  177.3780  138.6960 C   0  0  2  0  0  3  0  0  0  0  0  0
  189.6000  176.1740  138.3800 C   0  0  0  0  0  2  0  0  0  0  0  0
  191.4420  177.5010  141.0500 C   0  0  0  0  0  2  0  0  0  0  0  0
  191.4950  177.2990  142.5240 C   0  0  0  0  0  0  0  0  0  0  0  0
  191.7580  176.1570  142.9880 O   0  0  0  0  0  0  0  0  0  0  0  0
  191.2790  178.4080  143.3980 N   0  0  0  0  0  2  0  0  0  0  0  0
  191.4040  178.3040  144.8440 C   0  0  0  0  0  2  0  0  0  0  0  0
  189.8920  177.5800  145.5570 S   0  0  0  0  0  0  0  0  0  0  0  0
  190.7860  176.8130  146.9410 C   0  0  0  0  0  2  0  0  0  0  0  0
  192.0980  176.5340  146.5580 O   0  0  0  0  0  1  0  0  0  0  0  0
  187.9180  177.6170  142.1280 C   0  0  0  0  0  2  0  0  0  0  0  0
  184.2820  178.4050  142.3820 C   0  0  0  0  0  0  0  0  0  0  0  0
  184.0940  178.5630  143.7710 C   0  0  0  0  0  0  0  0  0  0  0  0
  186.4480  178.1030  144.0880 C   0  0  0  0  0  3  0  0  0  0  0  0
  181.7840  179.0070  143.4290 C   0  0  0  0  0  3  0  0  0  0  0  0
  181.9340  178.8560  142.0480 C   0  0  0  0  0  3  0  0  0  0  0  0
  182.8550  178.8590  144.2550 N   0  0  0  0  0  0  0  0  0  0  0  0
  186.5900  177.9620  142.7050 C   0  0  0  0  0  0  0  0  0  0  0  0
  185.1950  178.4080  144.6280 C   0  0  0  0  0  0  0  0  0  0  0  0
  185.5120  178.1090  141.8870 N   0  0  0  0  0  0  0  0  0  0  0  0
  183.1920  178.5540  141.5240 C   0  0  0  0  0  3  0  0  0  0  0  0
  185.0650  178.5550  146.0540 C   0  0  0  0  0  0  0  0  0  0  0  0
  184.9590  178.6710  147.2010 N   0  0  0  0  0  0  0  0  0  0  0  0
  1 16  1  0  0  0  0
  2  5  1  0  0  0  0
  3  4  1  0  0  0  0
  4  8  1  6  0  0  0
  5  4  1  0  0  0  0
  5  1  1  1  0  0  0
  6  7  1  6  0  0  0
  6  2  1  0  0  0  0
  6  5  1  0  0  0  0
  7  3  1  0  0  0  0
  8  9  1  0  0  0  0
  9 10  2  0  0  0  0
  9 11  1  0  0  0  0
 11 12  1  0  0  0  0
 12 13  1  0  0  0  0
 13 14  1  0  0  0  0
 15 14  1  0  0  0  0
 16 23  1  0  0  0  0
 17 18  1  0  0  0  0
 18 22  1  0  0  0  0
 18 24  2  0  0  0  0
 19 24  1  0  0  0  0
 20 22  2  0  0  0  0
 21 20  1  0  0  0  0
 23 19  2  0  0  0  0
 24 27  1  0  0  0  0
 25 17  2  0  0  0  0
 25 23  1  0  0  0  0
 26 21  2  0  0  0  0
 26 17  1  0  0  0  0
 27 28  3  0  0  0  0
M  END
>  <MODEL>
3

>  <REMARK>
 VINA RESULT:      -7.9      3.040      5.948
  Name = 
  9 active torsions:
  status: ('A' for Active; 'I' for Inactive)
    1  A    between atoms: C_1  and  C_3
    2  A    between atoms: C_1  and  C_20
    3  A    between atoms: C_3  and  C_13
    4  A    between atoms: C_4  and  S_22
    5  A    between atoms: C_6  and  C_17
    6  A    between atoms: C_10  and  C_21
    7  A    between atoms: C_11  and  C_17
    8  A    between atoms: S_22  and  C_25
    9  A    between atoms: C_25  and  N_27
                            x       y       z     vdW  Elec       q    Type
                         _______ _______ _______ _____ _____    ______ ____

>  <TORSDO>
F 9

$$$$
=
 OpenBabel10222416553D

 28 31  0  0  1  0  0  0  0  0999 V2000
  185.5250  177.5430  145.2480 C   0  0  0  0  0  2  0  0  0  0  0  0
  184.3400  179.7100  145.1450 O   0  0  0  0  0  0  0  0  0  0  0  0
  183.3080  179.1320  142.6340 O   0  0  0  0  0  0  0  0  0  0  0  0
  184.5440  178.5550  142.9740 C   0  0  2  0  0  3  0  0  0  0  0  0
  184.6490  178.5160  144.4770 C   0  0  1  0  0  0  0  0  0  0  0  0
  183.3170  178.7430  145.0100 C   0  0  2  0  0  3  0  0  0  0  0  0
  182.4870  179.0470  143.7770 C   0  0  0  0  0  2  0  0  0  0  0  0
  185.6870  179.3670  142.3840 C   0  0  0  0  0  2  0  0  0  0  0  0
  185.8070  179.1090  140.9230 C   0  0  0  0  0  0  0  0  0  0  0  0
  184.9040  179.5120  140.1420 O   0  0  0  0  0  0  0  0  0  0  0  0
  186.9610  178.4370  140.4160 N   0  0  0  0  0  2  0  0  0  0  0  0
  187.1880  178.2300  138.9940 C   0  0  0  0  0  2  0  0  0  0  0  0
  188.9630  177.9930  138.6650 S   0  0  0  0  0  0  0  0  0  0  0  0
  188.9380  179.0550  137.1910 C   0  0  0  0  0  2  0  0  0  0  0  0
  187.6200  179.3000  136.8060 O   0  0  0  0  0  1  0  0  0  0  0  0
  186.5930  178.2860  146.0330 C   0  0  0  0  0  2  0  0  0  0  0  0
  189.4470  177.6260  143.7270 C   0  0  0  0  0  0  0  0  0  0  0  0
  190.4760  177.2330  144.6090 C   0  0  0  0  0  0  0  0  0  0  0  0
  188.9350  177.5270  146.4520 C   0  0  0  0  0  3  0  0  0  0  0  0
  191.9680  176.9580  142.7800 C   0  0  0  0  0  3  0  0  0  0  0  0
  190.9720  177.3430  141.8780 C   0  0  0  0  0  3  0  0  0  0  0  0
  191.7040  176.9110  144.1130 N   0  0  0  0  0  0  0  0  0  0  0  0
  187.9440  177.9040  145.5410 C   0  0  0  0  0  0  0  0  0  0  0  0
  190.2090  177.1860  145.9870 C   0  0  0  0  0  0  0  0  0  0  0  0
  188.2190  177.9500  144.2090 N   0  0  0  0  0  0  0  0  0  0  0  0
  189.7050  177.6780  142.3570 C   0  0  0  0  0  3  0  0  0  0  0  0
  191.2180  176.7960  146.9360 C   0  0  0  0  0  0  0  0  0  0  0  0
  192.0300  176.4800  147.6980 N   0  0  0  0  0  0  0  0  0  0  0  0
  1 16  1  0  0  0  0
  3  4  1  0  0  0  0
  3  7  1  0  0  0  0
  4  8  1  6  0  0  0
  4  5  1  0  0  0  0
  5  6  1  0  0  0  0
  5  2  1  0  0  0  0
  5  1  1  1  0  0  0
  6  7  1  6  0  0  0
  6  2  1  0  0  0  0
  9  8  1  0  0  0  0
 10  9  2  0  0  0  0
 11  9  1  0  0  0  0
 12 11  1  0  0  0  0
 13 12  1  0  0  0  0
 14 13  1  0  0  0  0
 15 14  1  0  0  0  0
 17 25  2  0  0  0  0
 17 18  1  0  0  0  0
 18 24  2  0  0  0  0
 20 22  2  0  0  0  0
 21 26  2  0  0  0  0
 21 20  1  0  0  0  0
 22 18  1  0  0  0  0
 23 16  1  0  0  0  0
 23 19  2  0  0  0  0
 24 19  1  0  0  0  0
 24 27  1  0  0  0  0
 25 23  1  0  0  0  0
 26 17  1  0  0  0  0
 27 28  3  0  0  0  0
M  END
>  <MODEL>
4

>  <REMARK>
 VINA RESULT:      -7.8      2.417      5.393
  Name = 
  9 active torsions:
  status: ('A' for Active; 'I' for Inactive)
    1  A    between atoms: C_1  and  C_3
    2  A    between atoms: C_1  and  C_20
    3  A    between atoms: C_3  and  C_13
    4  A    between atoms: C_4  and  S_22
    5  A    between atoms: C_6  and  C_17
    6  A    between atoms: C_10  and  C_21
    7  A    between atoms: C_11  and  C_17
    8  A    between atoms: S_22  and  C_25
    9  A    between atoms: C_25  and  N_27
                            x       y       z     vdW  Elec       q    Type
                         _______ _______ _______ _____ _____    ______ ____

>  <TORSDO>
F 9

$$$$
=
 OpenBabel10222416553D

 28 31  0  0  1  0  0  0  0  0999 V2000
  185.9690  177.7870  146.5620 C   0  0  0  0  0  2  0  0  0  0  0  0
  187.7260  176.4420  147.6640 O   0  0  0  0  0  0  0  0  0  0  0  0
  189.7240  178.1500  146.7700 O   0  0  0  0  0  0  0  0  0  0  0  0
  188.5680  178.0360  145.9780 C   0  0  2  0  0  3  0  0  0  0  0  0
  187.4410  177.5520  146.8540 C   0  0  1  0  0  0  0  0  0  0  0  0
  187.8590  177.7290  148.2340 C   0  0  2  0  0  3  0  0  0  0  0  0
  189.2980  178.1960  148.1140 C   0  0  0  0  0  2  0  0  0  0  0  0
  188.8050  177.0620  144.8340 C   0  0  0  0  0  2  0  0  0  0  0  0
  189.2100  177.7950  143.6030 C   0  0  0  0  0  0  0  0  0  0  0  0
  190.2150  178.5550  143.6330 O   0  0  0  0  0  0  0  0  0  0  0  0
  188.4760  177.6040  142.3930 N   0  0  0  0  0  2  0  0  0  0  0  0
  188.8670  178.2180  141.1330 C   0  0  0  0  0  2  0  0  0  0  0  0
  190.0520  177.1510  140.2520 S   0  0  0  0  0  0  0  0  0  0  0  0
  189.5160  177.7290  138.6150 C   0  0  0  0  0  2  0  0  0  0  0  0
  188.9020  178.9760  138.7330 O   0  0  0  0  0  1  0  0  0  0  0  0
  185.7590  179.1470  145.9170 C   0  0  0  0  0  2  0  0  0  0  0  0
  182.6780  178.8330  143.8420 C   0  0  0  0  0  0  0  0  0  0  0  0
  183.1880  178.8110  142.5270 C   0  0  0  0  0  0  0  0  0  0  0  0
  185.4180  179.0040  143.4460 C   0  0  0  0  0  3  0  0  0  0  0  0
  180.9860  178.6280  141.6510 C   0  0  0  0  0  3  0  0  0  0  0  0
  180.4460  178.6460  142.9400 C   0  0  0  0  0  3  0  0  0  0  0  0
  182.3320  178.7090  141.4710 N   0  0  0  0  0  0  0  0  0  0  0  0
  184.8690  179.0150  144.7320 C   0  0  0  0  0  0  0  0  0  0  0  0
  184.5760  178.8990  142.3350 C   0  0  0  0  0  0  0  0  0  0  0  0
  183.5210  178.9350  144.9020 N   0  0  0  0  0  0  0  0  0  0  0  0
  181.2990  178.7490  144.0400 C   0  0  0  0  0  3  0  0  0  0  0  0
  185.1560  178.8850  141.0180 C   0  0  0  0  0  0  0  0  0  0  0  0
  185.6210  178.8730  139.9580 N   0  0  0  0  0  0  0  0  0  0  0  0
  2  6  1  0  0  0  0
  3  7  1  0  0  0  0
  4  8  1  6  0  0  0
  4  3  1  0  0  0  0
  4  5  1  0  0  0  0
  5  1  1  6  0  0  0
  5  2  1  0  0  0  0
  5  6  1  0  0  0  0
  6  7  1  6  0  0  0
  9 10  2  0  0  0  0
  9  8  1  0  0  0  0
 11  9  1  0  0  0  0
 12 11  1  0  0  0  0
 13 12  1  0  0  0  0
 14 15  1  0  0  0  0
 14 13  1  0  0  0  0
 16  1  1  0  0  0  0
 17 26  1  0  0  0  0
 17 25  1  0  0  0  0
 18 17  2  0  0  0  0
 19 23  1  0  0  0  0
 20 21  1  0  0  0  0
 21 26  2  0  0  0  0
 22 20  2  0  0  0  0
 22 18  1  0  0  0  0
 23 25  2  0  0  0  0
 23 16  1  0  0  0  0
 24 18  1  0  0  0  0
 24 19  2  0  0  0  0
 27 24  1  0  0  0  0
 28 27  3  0  0  0  0
M  END
>  <MODEL>
5

>  <REMARK>
 VINA RESULT:      -7.8      3.151      7.503
  Name = 
  9 active torsions:
  status: ('A' for Active; 'I' for Inactive)
    1  A    between atoms: C_1  and  C_3
    2  A    between atoms: C_1  and  C_20
    3  A    between atoms: C_3  and  C_13
    4  A    between atoms: C_4  and  S_22
    5  A    between atoms: C_6  and  C_17
    6  A    between atoms: C_10  and  C_21
    7  A    between atoms: C_11  and  C_17
    8  A    between atoms: S_22  and  C_25
    9  A    between atoms: C_25  and  N_27
                            x       y       z     vdW  Elec       q    Type
                         _______ _______ _______ _____ _____    ______ ____

>  <TORSDO>
F 9

$$$$
=
 OpenBabel10222416553D

 28 31  0  0  1  0  0  0  0  0999 V2000
  184.7930  177.8720  144.7710 C   0  0  0  0  0  2  0  0  0  0  0  0
  183.6240  179.9470  144.1090 O   0  0  0  0  0  0  0  0  0  0  0  0
  182.9810  178.9000  141.6190 O   0  0  0  0  0  0  0  0  0  0  0  0
  184.1560  178.4320  142.2340 C   0  0  2  0  0  3  0  0  0  0  0  0
  184.0360  178.6640  143.7190 C   0  0  1  0  0  0  0  0  0  0  0  0
  182.6380  178.9390  144.0020 C   0  0  2  0  0  3  0  0  0  0  0  0
  181.9990  178.9910  142.6270 C   0  0  0  0  0  2  0  0  0  0  0  0
  185.3690  179.1630  141.6810 C   0  0  0  0  0  2  0  0  0  0  0  0
  185.3990  179.0700  140.1950 C   0  0  0  0  0  0  0  0  0  0  0  0
  184.5630  179.7200  139.5120 O   0  0  0  0  0  0  0  0  0  0  0  0
  186.3960  178.2700  139.5580 N   0  0  0  0  0  2  0  0  0  0  0  0
  186.5410  178.2020  138.1110 C   0  0  0  0  0  2  0  0  0  0  0  0
  187.9250  177.1070  137.6650 S   0  0  0  0  0  0  0  0  0  0  0  0
  188.8830  178.4520  136.9080 C   0  0  0  0  0  2  0  0  0  0  0  0
  189.0010  179.5120  137.8080 O   0  0  0  0  0  1  0  0  0  0  0  0
  185.8030  178.7550  145.4860 C   0  0  0  0  0  2  0  0  0  0  0  0
  189.1670  177.3980  146.3460 C   0  0  0  0  0  0  0  0  0  0  0  0
  189.7080  177.0800  145.0820 C   0  0  0  0  0  0  0  0  0  0  0  0
  187.6630  177.8790  144.0660 C   0  0  0  0  0  3  0  0  0  0  0  0
  191.7040  176.2960  146.1090 C   0  0  0  0  0  3  0  0  0  0  0  0
  191.1990  176.5990  147.3760 C   0  0  0  0  0  3  0  0  0  0  0  0
  190.9570  176.5400  144.9980 N   0  0  0  0  0  0  0  0  0  0  0  0
  187.1690  178.1850  145.3380 C   0  0  0  0  0  0  0  0  0  0  0  0
  188.9390  177.3260  143.9330 C   0  0  0  0  0  0  0  0  0  0  0  0
  187.9230  177.9350  146.4430 N   0  0  0  0  0  0  0  0  0  0  0  0
  189.9230  177.1530  147.4930 C   0  0  0  0  0  3  0  0  0  0  0  0
  189.4360  177.0210  142.6170 C   0  0  0  0  0  0  0  0  0  0  0  0
  189.8340  176.7770  141.5580 N   0  0  0  0  0  0  0  0  0  0  0  0
  1 16  1  0  0  0  0
  3  4  1  0  0  0  0
  3  7  1  0  0  0  0
  4  8  1  6  0  0  0
  4  5  1  0  0  0  0
  5  6  1  0  0  0  0
  5  2  1  0  0  0  0
  5  1  1  1  0  0  0
  6  7  1  6  0  0  0
  6  2  1  0  0  0  0
  9  8  1  0  0  0  0
 10  9  2  0  0  0  0
 11  9  1  0  0  0  0
 12 11  1  0  0  0  0
 13 12  1  0  0  0  0
 14 13  1  0  0  0  0
 14 15  1  0  0  0  0
 17 25  1  0  0  0  0
 17 26  1  0  0  0  0
 18 17  2  0  0  0  0
 19 23  1  0  0  0  0
 20 21  1  0  0  0  0
 21 26  2  0  0  0  0
 22 18  1  0  0  0  0
 22 20  2  0  0  0  0
 23 16  1  0  0  0  0
 23 25  2  0  0  0  0
 24 19  2  0  0  0  0
 24 18  1  0  0  0  0
 27 24  1  0  0  0  0
 28 27  3  0  0  0  0
M  END
>  <MODEL>
6

>  <REMARK>
 VINA RESULT:      -7.6      2.607      5.569
  Name = 
  9 active torsions:
  status: ('A' for Active; 'I' for Inactive)
    1  A    between atoms: C_1  and  C_3
    2  A    between atoms: C_1  and  C_20
    3  A    between atoms: C_3  and  C_13
    4  A    between atoms: C_4  and  S_22
    5  A    between atoms: C_6  and  C_17
    6  A    between atoms: C_10  and  C_21
    7  A    between atoms: C_11  and  C_17
    8  A    between atoms: S_22  and  C_25
    9  A    between atoms: C_25  and  N_27
                            x       y       z     vdW  Elec       q    Type
                         _______ _______ _______ _____ _____    ______ ____

>  <TORSDO>
F 9

$$$$
=
 OpenBabel10222416553D

 28 31  0  0  1  0  0  0  0  0999 V2000
  188.6100  178.2180  141.2860 C   0  0  0  0  0  2  0  0  0  0  0  0
  188.7570  179.0030  138.9460 O   0  0  0  0  0  0  0  0  0  0  0  0
  188.7480  176.4030  137.9750 O   0  0  0  0  0  0  0  0  0  0  0  0
  189.2890  176.6130  139.2550 C   0  0  2  0  0  3  0  0  0  0  0  0
  188.7160  177.8950  139.8050 C   0  0  1  0  0  0  0  0  0  0  0  0
  187.5670  178.2410  138.9870 C   0  0  2  0  0  3  0  0  0  0  0  0
  187.5890  177.2000  137.8830 C   0  0  0  0  0  2  0  0  0  0  0  0
  190.8060  176.7010  139.1810 C   0  0  0  0  0  2  0  0  0  0  0  0
  191.3220  175.8440  138.0790 C   0  0  0  0  0  0  0  0  0  0  0  0
  190.9450  174.6450  137.9920 O   0  0  0  0  0  0  0  0  0  0  0  0
  192.2150  176.3990  137.1110 N   0  0  0  0  0  2  0  0  0  0  0  0
  192.6880  175.6480  135.9580 C   0  0  0  0  0  2  0  0  0  0  0  0
  194.4730  175.9160  135.7190 S   0  0  0  0  0  0  0  0  0  0  0  0
  194.9330  174.6530  136.9420 C   0  0  0  0  0  2  0  0  0  0  0  0
  195.0540  175.2370  138.2020 O   0  0  0  0  0  1  0  0  0  0  0  0
  188.5100  176.9440  142.1090 C   0  0  0  0  0  2  0  0  0  0  0  0
  188.6370  177.4210  145.8040 C   0  0  0  0  0  0  0  0  0  0  0  0
  187.3490  177.9140  146.0990 C   0  0  0  0  0  0  0  0  0  0  0  0
  186.8090  177.7610  143.7460 C   0  0  0  0  0  3  0  0  0  0  0  0
  187.9090  178.0580  148.4050 C   0  0  0  0  0  3  0  0  0  0  0  0
  189.1940  177.5730  148.1490 C   0  0  0  0  0  3  0  0  0  0  0  0
  187.0200  178.2170  147.3870 N   0  0  0  0  0  0  0  0  0  0  0  0
  188.0950  177.2690  143.5000 C   0  0  0  0  0  0  0  0  0  0  0  0
  186.4300  178.0840  145.0520 C   0  0  0  0  0  0  0  0  0  0  0  0
  188.9770  177.1160  144.5250 N   0  0  0  0  0  0  0  0  0  0  0  0
  189.5580  177.2530  146.8390 C   0  0  0  0  0  3  0  0  0  0  0  0
  185.1020  178.5850  145.2900 C   0  0  0  0  0  0  0  0  0  0  0  0
  184.0340  178.9890  145.4810 N   0  0  0  0  0  0  0  0  0  0  0  0
  1 16  1  0  0  0  0
  2  6  1  0  0  0  0
  2  5  1  0  0  0  0
  3  4  1  0  0  0  0
  4  8  1  6  0  0  0
  4  5  1  0  0  0  0
  5  1  1  1  0  0  0
  6  7  1  6  0  0  0
  6  5  1  0  0  0  0
  7  3  1  0  0  0  0
  9  8  1  0  0  0  0
 10  9  2  0  0  0  0
 11  9  1  0  0  0  0
 12 11  1  0  0  0  0
 13 12  1  0  0  0  0
 13 14  1  0  0  0  0
 14 15  1  0  0  0  0
 16 23  1  0  0  0  0
 17 18  1  0  0  0  0
 17 26  1  0  0  0  0
 18 22  1  0  0  0  0
 19 24  1  0  0  0  0
 21 20  1  0  0  0  0
 22 20  2  0  0  0  0
 23 19  2  0  0  0  0
 23 25  1  0  0  0  0
 24 27  1  0  0  0  0
 24 18  2  0  0  0  0
 25 17  2  0  0  0  0
 26 21  2  0  0  0  0
 27 28  3  0  0  0  0
M  END
>  <MODEL>
7

>  <REMARK>
 VINA RESULT:      -7.5      4.008      6.683
  Name = 
  9 active torsions:
  status: ('A' for Active; 'I' for Inactive)
    1  A    between atoms: C_1  and  C_3
    2  A    between atoms: C_1  and  C_20
    3  A    between atoms: C_3  and  C_13
    4  A    between atoms: C_4  and  S_22
    5  A    between atoms: C_6  and  C_17
    6  A    between atoms: C_10  and  C_21
    7  A    between atoms: C_11  and  C_17
    8  A    between atoms: S_22  and  C_25
    9  A    between atoms: C_25  and  N_27
                            x       y       z     vdW  Elec       q    Type
                         _______ _______ _______ _____ _____    ______ ____

>  <TORSDO>
F 9

$$$$
=
 OpenBabel10222416553D

 28 31  0  0  1  0  0  0  0  0999 V2000
  185.9140  178.0320  146.4920 C   0  0  0  0  0  2  0  0  0  0  0  0
  187.7030  176.4330  147.0880 O   0  0  0  0  0  0  0  0  0  0  0  0
  189.5430  177.7470  145.4770 O   0  0  0  0  0  0  0  0  0  0  0  0
  188.1900  177.8130  145.1010 C   0  0  2  0  0  3  0  0  0  0  0  0
  187.3470  177.5540  146.3230 C   0  0  1  0  0  0  0  0  0  0  0  0
  188.2110  177.6920  147.4820 C   0  0  2  0  0  3  0  0  0  0  0  0
  189.5870  177.9000  146.8780 C   0  0  0  0  0  2  0  0  0  0  0  0
  187.8890  176.7840  144.0230 C   0  0  0  0  0  2  0  0  0  0  0  0
  189.0680  176.6060  143.1310 C   0  0  0  0  0  0  0  0  0  0  0  0
  189.7240  175.5300  143.1710 O   0  0  0  0  0  0  0  0  0  0  0  0
  189.4250  177.6430  142.2160 N   0  0  0  0  0  2  0  0  0  0  0  0
  190.5090  177.5030  141.2550 C   0  0  0  0  0  2  0  0  0  0  0  0
  189.8410  177.1680  139.5940 S   0  0  0  0  0  0  0  0  0  0  0  0
  188.5610  178.4510  139.7360 C   0  0  0  0  0  2  0  0  0  0  0  0
  187.9310  178.6280  138.5040 O   0  0  0  0  0  1  0  0  0  0  0  0
  185.7060  179.3640  145.7900 C   0  0  0  0  0  2  0  0  0  0  0  0
  184.5070  179.0010  142.2780 C   0  0  0  0  0  0  0  0  0  0  0  0
  183.1180  178.8150  142.4410 C   0  0  0  0  0  0  0  0  0  0  0  0
  183.4270  179.0000  144.8330 C   0  0  0  0  0  3  0  0  0  0  0  0
  182.8460  178.6320  140.0860 C   0  0  0  0  0  3  0  0  0  0  0  0
  184.2180  178.8130  139.8890 C   0  0  0  0  0  3  0  0  0  0  0  0
  182.3280  178.6370  141.3440 N   0  0  0  0  0  0  0  0  0  0  0  0
  184.7970  179.1870  144.6250 C   0  0  0  0  0  0  0  0  0  0  0  0
  182.5800  178.8160  143.7370 C   0  0  0  0  0  0  0  0  0  0  0  0
  185.3060  179.1780  143.3630 N   0  0  0  0  0  0  0  0  0  0  0  0
  185.0510  178.9980  140.9930 C   0  0  0  0  0  3  0  0  0  0  0  0
  181.1710  178.6290  143.9660 C   0  0  0  0  0  0  0  0  0  0  0  0
  180.0380  178.4770  144.1500 N   0  0  0  0  0  0  0  0  0  0  0  0
  2  6  1  0  0  0  0
  3  7  1  0  0  0  0
  4  8  1  6  0  0  0
  4  3  1  0  0  0  0
  4  5  1  0  0  0  0
  5  1  1  1  0  0  0
  5  2  1  0  0  0  0
  5  6  1  0  0  0  0
  6  7  1  6  0  0  0
  9 10  2  0  0  0  0
  9  8  1  0  0  0  0
 11  9  1  0  0  0  0
 12 11  1  0  0  0  0
 13 14  1  0  0  0  0
 13 12  1  0  0  0  0
 15 14  1  0  0  0  0
 16  1  1  0  0  0  0
 17 18  1  0  0  0  0
 17 25  1  0  0  0  0
 18 24  1  0  0  0  0
 20 22  1  0  0  0  0
 21 20  2  0  0  0  0
 21 26  1  0  0  0  0
 22 18  2  0  0  0  0
 23 19  1  0  0  0  0
 23 16  1  0  0  0  0
 24 27  1  0  0  0  0
 24 19  2  0  0  0  0
 25 23  2  0  0  0  0
 26 17  2  0  0  0  0
 27 28  3  0  0  0  0
M  END
>  <MODEL>
8

>  <REMARK>
 VINA RESULT:      -7.5      3.039      7.606
  Name = 
  9 active torsions:
  status: ('A' for Active; 'I' for Inactive)
    1  A    between atoms: C_1  and  C_3
    2  A    between atoms: C_1  and  C_20
    3  A    between atoms: C_3  and  C_13
    4  A    between atoms: C_4  and  S_22
    5  A    between atoms: C_6  and  C_17
    6  A    between atoms: C_10  and  C_21
    7  A    between atoms: C_11  and  C_17
    8  A    between atoms: S_22  and  C_25
    9  A    between atoms: C_25  and  N_27
                            x       y       z     vdW  Elec       q    Type
                         _______ _______ _______ _____ _____    ______ ____

>  <TORSDO>
F 9

$$$$
=
 OpenBabel10222416553D

 28 31  0  0  1  0  0  0  0  0999 V2000
  185.7520  179.2030  145.6460 C   0  0  0  0  0  2  0  0  0  0  0  0
  186.4150  177.1610  146.8720 O   0  0  0  0  0  0  0  0  0  0  0  0
  189.0110  177.3080  145.8990 O   0  0  0  0  0  0  0  0  0  0  0  0
  187.9880  177.8400  145.0950 C   0  0  2  0  0  3  0  0  0  0  0  0
  186.8140  178.1690  145.9820 C   0  0  1  0  0  0  0  0  0  0  0  0
  187.2920  178.1600  147.3530 C   0  0  2  0  0  3  0  0  0  0  0  0
  188.7270  177.6850  147.2270 C   0  0  0  0  0  2  0  0  0  0  0  0
  187.5790  176.8380  144.0260 C   0  0  0  0  0  2  0  0  0  0  0  0
  188.2350  177.1630  142.7310 C   0  0  0  0  0  0  0  0  0  0  0  0
  187.7720  178.0900  142.0120 O   0  0  0  0  0  0  0  0  0  0  0  0
  189.4030  176.4450  142.3300 N   0  0  0  0  0  2  0  0  0  0  0  0
  190.1470  176.7680  141.1220 C   0  0  0  0  0  2  0  0  0  0  0  0
  191.7580  177.5030  141.5500 S   0  0  0  0  0  0  0  0  0  0  0  0
  191.5510  177.1790  143.3260 C   0  0  0  0  0  2  0  0  0  0  0  0
  191.6740  178.3700  144.0400 O   0  0  0  0  0  1  0  0  0  0  0  0
  184.3630  178.5910  145.7250 C   0  0  0  0  0  2  0  0  0  0  0  0
  181.6980  178.7500  143.1220 C   0  0  0  0  0  0  0  0  0  0  0  0
  182.4370  178.8650  141.9260 C   0  0  0  0  0  0  0  0  0  0  0  0
  184.4690  178.7910  143.2370 C   0  0  0  0  0  3  0  0  0  0  0  0
  180.4230  178.9410  140.6640 C   0  0  0  0  0  3  0  0  0  0  0  0
  179.6600  178.8290  141.8300 C   0  0  0  0  0  3  0  0  0  0  0  0
  181.7820  178.9560  140.7340 N   0  0  0  0  0  0  0  0  0  0  0  0
  183.6970  178.6720  144.3970 C   0  0  0  0  0  0  0  0  0  0  0  0
  183.8390  178.8860  141.9930 C   0  0  0  0  0  0  0  0  0  0  0  0
  182.3380  178.6600  144.3170 N   0  0  0  0  0  0  0  0  0  0  0  0
  180.3040  178.7330  143.0650 C   0  0  0  0  0  3  0  0  0  0  0  0
  184.6470  179.0030  140.8070 C   0  0  0  0  0  0  0  0  0  0  0  0
  185.2960  179.0990  139.8540 N   0  0  0  0  0  0  0  0  0  0  0  0
  1 16  1  0  0  0  0
  2  6  1  0  0  0  0
  3  7  1  0  0  0  0
  4  8  1  6  0  0  0
  4  3  1  0  0  0  0
  4  5  1  0  0  0  0
  5  1  1  6  0  0  0
  5  2  1  0  0  0  0
  5  6  1  0  0  0  0
  6  7  1  6  0  0  0
  9  8  1  0  0  0  0
 10  9  2  0  0  0  0
 11  9  1  0  0  0  0
 12 13  1  0  0  0  0
 12 11  1  0  0  0  0
 13 14  1  0  0  0  0
 14 15  1  0  0  0  0
 17 25  1  0  0  0  0
 18 24  1  0  0  0  0
 18 17  2  0  0  0  0
 19 23  1  0  0  0  0
 20 22  2  0  0  0  0
 20 21  1  0  0  0  0
 21 26  2  0  0  0  0
 22 18  1  0  0  0  0
 23 16  1  0  0  0  0
 24 19  2  0  0  0  0
 25 23  2  0  0  0  0
 26 17  1  0  0  0  0
 27 24  1  0  0  0  0
 28 27  3  0  0  0  0
M  END
>  <MODEL>
9

>  <REMARK>
 VINA RESULT:      -7.5      3.136      7.807
  Name = 
  9 active torsions:
  status: ('A' for Active; 'I' for Inactive)
    1  A    between atoms: C_1  and  C_3
    2  A    between atoms: C_1  and  C_20
    3  A    between atoms: C_3  and  C_13
    4  A    between atoms: C_4  and  S_22
    5  A    between atoms: C_6  and  C_17
    6  A    between atoms: C_10  and  C_21
    7  A    between atoms: C_11  and  C_17
    8  A    between atoms: S_22  and  C_25
    9  A    between atoms: C_25  and  N_27
                            x       y       z     vdW  Elec       q    Type
                         _______ _______ _______ _____ _____    ______ ____

>  <TORSDO>
F 9

$$$$
