=
 OpenBabel10222421273D

 40 44  0  0  0  0  0  0  0  0999 V2000
  187.2730  176.7830  137.5500 C   0  0  0  0  0  0  0  0  0  0  0  0
  188.8650  177.2480  141.9610 C   0  0  0  0  0  2  0  0  0  0  0  0
  186.1900  176.4400  136.7360 C   0  0  0  0  0  3  0  0  0  0  0  0
  193.1740  176.4940  137.8490 C   0  0  0  0  0  2  0  0  0  0  0  0
  192.0150  176.6730  138.7410 C   0  0  0  0  0  0  0  0  0  0  0  0
  189.2760  177.3610  139.4730 N   0  0  0  0  0  0  0  0  0  0  0  0
  188.0130  177.8480  145.4020 C   0  0  0  0  0  3  0  0  0  0  0  0
  188.4580  174.8090  136.7930 C   0  0  0  0  0  3  0  0  0  0  0  0
  188.7570  177.6840  144.3430 C   0  0  0  0  0  0  0  0  0  0  0  0
  188.1360  178.2290  139.3110 C   0  0  0  0  0  3  0  0  0  0  0  0
  191.2990  175.3980  136.9010 C   0  0  0  0  0  2  0  0  0  0  0  0
  190.9450  177.3380  143.4530 C   0  0  0  0  0  3  0  0  0  0  0  0
  192.7550  175.5630  136.7980 N   0  0  0  0  0  0  0  0  0  0  0  0
  189.5680  176.4020  138.4360 C   0  0  0  0  0  0  0  0  0  0  0  0
  186.2400  175.2850  135.9510 C   0  0  0  0  0  3  0  0  0  0  0  0
  191.1720  177.1370  141.0110 C   0  0  0  0  0  0  0  0  0  0  0  0
  188.4290  175.9780  137.5690 C   0  0  0  0  0  0  0  0  0  0  0  0
  190.8440  176.0970  138.1340 C   0  0  0  0  0  0  0  0  0  0  0  0
  189.8380  177.2530  140.7940 C   0  0  0  0  0  0  0  0  0  0  0  0
  187.1910  177.9770  138.4030 C   0  0  0  0  0  3  0  0  0  0  0  0
  191.7150  177.1560  142.3840 C   0  0  0  0  0  3  0  0  0  0  0  0
  187.3750  174.4610  135.9810 C   0  0  0  0  0  0  0  0  0  0  0  0
  189.5040  177.5130  143.2910 C   0  0  0  0  0  0  0  0  0  0  0  0
  192.1500  177.0800  139.9660 N   0  0  0  0  0  0  0  0  0  0  0  0
  188.7220  177.6410  147.0320 S   0  0  0  0  0  0  0  0  0  0  0  0
  186.1590  178.5700  146.8490 C   0  0  0  0  0  1  0  0  0  0  0  0
  187.2400  178.2770  147.8700 C   0  0  0  0  0  2  0  0  0  0  0  0
  193.0220  176.2030  135.5190 C   0  0  0  0  0  2  0  0  0  0  0  0
  194.4700  176.6590  135.4600 C   0  0  0  0  0  2  0  0  0  0  0  0
  196.2200  175.0530  134.9830 N   0  0  0  0  0  0  0  0  0  0  0  0
  195.2340  175.7680  134.5980 N   0  0  0  0  0  0  0  0  0  0  0  0
  197.6580  175.8170  136.6880 O   0  0  0  0  0  0  0  0  0  0  0  0
  196.7650  175.0060  136.3140 C   0  0  0  0  0  0  0  0  0  0  0  0
  196.2820  174.0120  137.2210 N   0  0  0  0  0  2  0  0  0  0  0  0
  196.8090  173.8550  138.5740 C   0  0  0  0  0  2  0  0  0  0  0  0
  195.9400  174.6130  139.5630 C   0  0  0  0  0  1  0  0  0  0  0  0
  187.4510  173.2640  135.1970 N   0  0  0  0  0  2  0  0  0  0  0  0
  187.0800  171.9380  135.6760 C   0  0  0  0  0  3  0  0  0  0  0  0
  185.8310  171.9770  136.2690 F   0  0  0  0  0  0  0  0  0  0  0  0
  188.0180  171.4760  136.5830 F   0  0  0  0  0  0  0  0  0  0  0  0
  1 17  1  0  0  0  0
  1 20  1  0  0  0  0
  2 23  1  0  0  0  0
  3  1  2  0  0  0  0
  4  5  1  0  0  0  0
  5 24  2  0  0  0  0
  6 19  1  0  0  0  0
  7 25  1  0  0  0  0
  8 17  2  0  0  0  0
  9  7  2  0  0  0  0
 10  6  1  0  0  0  0
 11 18  1  0  0  0  0
 13 11  1  0  0  0  0
 13  4  1  0  0  0  0
 14  6  1  0  0  0  0
 15 22  2  0  0  0  0
 15  3  1  0  0  0  0
 16 21  1  0  0  0  0
 17 14  1  0  0  0  0
 18 14  2  0  0  0  0
 18  5  1  0  0  0  0
 19 16  2  0  0  0  0
 19  2  1  0  0  0  0
 20 10  2  0  0  0  0
 21 12  2  0  0  0  0
 22  8  1  0  0  0  0
 23 12  1  0  0  0  0
 23  9  2  0  0  0  0
 24 16  1  0  0  0  0
 25 27  1  0  0  0  0
 26 27  1  0  0  0  0
 28 13  1  0  0  0  0
 29 28  1  0  0  0  0
 30 33  1  0  0  0  0
 31 30  2  0  0  0  0
 31 29  1  0  0  0  0
 33 32  2  0  0  0  0
 33 34  1  0  0  0  0
 34 35  1  0  0  0  0
 35 36  1  0  0  0  0
 37 38  1  0  0  0  0
 37 22  1  0  0  0  0
 38 39  1  0  0  0  0
 38 40  1  0  0  0  0
M  END
>  <MODEL>
1

>  <REMARK>
 VINA RESULT:      -7.8      0.000      0.000
  Name = 
  9 active torsions:
  status: ('A' for Active; 'I' for Inactive)
    1  A    between atoms: C_1  and  C_19
    2  A    between atoms: C_1  and  N_25
    3  A    between atoms: N_2  and  C_21
    4  A    between atoms: C_6  and  N_30
    5  A    between atoms: C_11  and  S_15
    6  A    between atoms: S_15  and  C_39
    7  A    between atoms: N_18  and  C_19
    8  A    between atoms: C_26  and  N_40
    9  A    between atoms: N_30  and  C_32
                            x       y       z     vdW  Elec       q    Type
                         _______ _______ _______ _____ _____    ______ ____

>  <TORSDO>
F 9

$$$$
=
 OpenBabel10222421273D

 40 44  0  0  0  0  0  0  0  0999 V2000
  188.1560  177.9890  141.4960 C   0  0  0  0  0  0  0  0  0  0  0  0
  183.4720  178.1410  141.0070 C   0  0  0  0  0  2  0  0  0  0  0  0
  189.3680  177.5490  140.9540 C   0  0  0  0  0  3  0  0  0  0  0  0
  185.3900  178.8900  146.6470 C   0  0  0  0  0  2  0  0  0  0  0  0
  185.0690  178.6960  145.2220 C   0  0  0  0  0  0  0  0  0  0  0  0
  185.5420  178.6910  142.3420 N   0  0  0  0  0  0  0  0  0  0  0  0
  180.6970  178.0560  138.7210 C   0  0  0  0  0  3  0  0  0  0  0  0
  188.4200  176.4320  143.3340 C   0  0  0  0  0  3  0  0  0  0  0  0
  181.3450  178.2010  139.8440 C   0  0  0  0  0  0  0  0  0  0  0  0
  186.1360  179.3170  141.1880 C   0  0  0  0  0  3  0  0  0  0  0  0
  187.0900  177.5760  145.6480 C   0  0  0  0  0  2  0  0  0  0  0  0
  181.2340  178.4470  142.2160 C   0  0  0  0  0  3  0  0  0  0  0  0
  186.5580  178.0520  146.9320 N   0  0  0  0  0  0  0  0  0  0  0  0
  186.3960  177.9710  143.2560 C   0  0  0  0  0  0  0  0  0  0  0  0
  190.1040  176.5530  141.6010 C   0  0  0  0  0  3  0  0  0  0  0  0
  183.3550  178.6480  143.4490 C   0  0  0  0  0  0  0  0  0  0  0  0
  187.6810  177.4470  142.7060 C   0  0  0  0  0  0  0  0  0  0  0  0
  186.1390  177.9830  144.5770 C   0  0  0  0  0  0  0  0  0  0  0  0
  184.1130  178.5140  142.3330 C   0  0  0  0  0  0  0  0  0  0  0  0
  187.3700  179.0070  140.7830 C   0  0  0  0  0  3  0  0  0  0  0  0
  181.8820  178.5820  143.3700 C   0  0  0  0  0  3  0  0  0  0  0  0
  189.6290  175.9860  142.7930 C   0  0  0  0  0  0  0  0  0  0  0  0
  181.9870  178.3400  140.9690 C   0  0  0  0  0  0  0  0  0  0  0  0
  183.8870  178.9430  144.7470 N   0  0  0  0  0  0  0  0  0  0  0  0
  178.9310  177.7700  138.7420 S   0  0  0  0  0  0  0  0  0  0  0  0
  179.4970  175.6230  137.1490 C   0  0  0  0  0  1  0  0  0  0  0  0
  179.1160  175.9690  138.5750 C   0  0  0  0  0  2  0  0  0  0  0  0
  187.5740  178.9090  147.5230 C   0  0  0  0  0  2  0  0  0  0  0  0
  188.4050  178.1170  148.5170 C   0  0  0  0  0  2  0  0  0  0  0  0
  189.4500  176.2480  147.3830 N   0  0  0  0  0  0  0  0  0  0  0  0
  188.4980  176.7290  148.0880 N   0  0  0  0  0  0  0  0  0  0  0  0
  191.7120  176.9110  147.4310 O   0  0  0  0  0  0  0  0  0  0  0  0
  190.5810  176.9780  146.8740 C   0  0  0  0  0  0  0  0  0  0  0  0
  190.4060  177.7970  145.7150 N   0  0  0  0  0  2  0  0  0  0  0  0
  191.4810  178.6120  145.1560 C   0  0  0  0  0  2  0  0  0  0  0  0
  191.0310  179.2400  143.8470 C   0  0  0  0  0  1  0  0  0  0  0  0
  190.3560  174.9560  143.4720 N   0  0  0  0  0  2  0  0  0  0  0  0
  191.6500  175.1450  144.1160 C   0  0  0  0  0  3  0  0  0  0  0  0
  192.4370  175.9980  143.3650 F   0  0  0  0  0  0  0  0  0  0  0  0
  192.2900  173.9280  144.2730 F   0  0  0  0  0  0  0  0  0  0  0  0
  1 17  1  0  0  0  0
  2 19  1  0  0  0  0
  3  1  2  0  0  0  0
  3 15  1  0  0  0  0
  4 13  1  0  0  0  0
  5  4  1  0  0  0  0
  6 14  1  0  0  0  0
  7 25  1  0  0  0  0
  7  9  2  0  0  0  0
  9 23  2  0  0  0  0
 10  6  1  0  0  0  0
 11 13  1  0  0  0  0
 12 21  2  0  0  0  0
 13 28  1  0  0  0  0
 14 18  2  0  0  0  0
 15 22  2  0  0  0  0
 16 24  1  0  0  0  0
 17 14  1  0  0  0  0
 17  8  2  0  0  0  0
 18  5  1  0  0  0  0
 18 11  1  0  0  0  0
 19  6  1  0  0  0  0
 19 16  2  0  0  0  0
 20 10  2  0  0  0  0
 20  1  1  0  0  0  0
 21 16  1  0  0  0  0
 22  8  1  0  0  0  0
 22 37  1  0  0  0  0
 23  2  1  0  0  0  0
 23 12  1  0  0  0  0
 24  5  2  0  0  0  0
 26 27  1  0  0  0  0
 27 25  1  0  0  0  0
 28 29  1  0  0  0  0
 30 31  2  0  0  0  0
 31 29  1  0  0  0  0
 33 30  1  0  0  0  0
 33 32  2  0  0  0  0
 34 33  1  0  0  0  0
 35 34  1  0  0  0  0
 36 35  1  0  0  0  0
 37 38  1  0  0  0  0
 38 40  1  0  0  0  0
 39 38  1  0  0  0  0
M  END
>  <MODEL>
2

>  <REMARK>
 VINA RESULT:      -7.6      6.269      9.701
  Name = 
  9 active torsions:
  status: ('A' for Active; 'I' for Inactive)
    1  A    between atoms: C_1  and  C_19
    2  A    between atoms: C_1  and  N_25
    3  A    between atoms: N_2  and  C_21
    4  A    between atoms: C_6  and  N_30
    5  A    between atoms: C_11  and  S_15
    6  A    between atoms: S_15  and  C_39
    7  A    between atoms: N_18  and  C_19
    8  A    between atoms: C_26  and  N_40
    9  A    between atoms: N_30  and  C_32
                            x       y       z     vdW  Elec       q    Type
                         _______ _______ _______ _____ _____    ______ ____

>  <TORSDO>
F 9

$$$$
=
 OpenBabel10222421273D

 40 44  0  0  0  0  0  0  0  0999 V2000
  189.3440  177.5220  136.7610 C   0  0  0  0  0  0  0  0  0  0  0  0
  184.9170  178.2700  138.1920 C   0  0  0  0  0  2  0  0  0  0  0  0
  190.1700  177.0030  135.7590 C   0  0  0  0  0  3  0  0  0  0  0  0
  188.9640  178.1920  142.6270 C   0  0  0  0  0  2  0  0  0  0  0  0
  188.0890  178.1880  141.4410 C   0  0  0  0  0  0  0  0  0  0  0  0
  187.4000  178.4310  138.6160 N   0  0  0  0  0  0  0  0  0  0  0  0
  181.4940  178.7500  137.2030 C   0  0  0  0  0  3  0  0  0  0  0  0
  190.0670  175.7600  138.2600 C   0  0  0  0  0  3  0  0  0  0  0  0
  182.5410  178.7010  137.9790 C   0  0  0  0  0  0  0  0  0  0  0  0
  187.5850  179.1020  137.3530 C   0  0  0  0  0  3  0  0  0  0  0  0
  189.9260  176.8010  140.9670 C   0  0  0  0  0  2  0  0  0  0  0  0
  183.3980  178.7060  140.2080 C   0  0  0  0  0  3  0  0  0  0  0  0
  190.0120  177.1980  142.3790 N   0  0  0  0  0  0  0  0  0  0  0  0
  188.4240  177.5240  139.0750 C   0  0  0  0  0  0  0  0  0  0  0  0
  190.9430  175.8660  136.0070 C   0  0  0  0  0  3  0  0  0  0  0  0
  185.8350  178.5270  140.5000 C   0  0  0  0  0  0  0  0  0  0  0  0
  189.3020  176.9150  138.0310 C   0  0  0  0  0  0  0  0  0  0  0  0
  188.7060  177.4270  140.3870 C   0  0  0  0  0  0  0  0  0  0  0  0
  186.0710  178.4240  139.1690 C   0  0  0  0  0  0  0  0  0  0  0  0
  188.5040  178.6940  136.4740 C   0  0  0  0  0  3  0  0  0  0  0  0
  184.4550  178.6430  141.0130 C   0  0  0  0  0  3  0  0  0  0  0  0
  190.8900  175.2360  137.2600 C   0  0  0  0  0  0  0  0  0  0  0  0
  183.5820  178.6440  138.7600 C   0  0  0  0  0  0  0  0  0  0  0  0
  186.8670  178.6200  141.4910 N   0  0  0  0  0  0  0  0  0  0  0  0
  179.8530  178.6720  137.9130 S   0  0  0  0  0  0  0  0  0  0  0  0
  179.8730  179.9280  140.3390 C   0  0  0  0  0  1  0  0  0  0  0  0
  180.0790  180.2050  138.8630 C   0  0  0  0  0  2  0  0  0  0  0  0
  191.2930  177.8640  142.5580 C   0  0  0  0  0  2  0  0  0  0  0  0
  191.7130  177.7950  144.0160 C   0  0  0  0  0  2  0  0  0  0  0  0
  191.6590  175.9440  145.5770 N   0  0  0  0  0  0  0  0  0  0  0  0
  191.9000  176.4060  144.4110 N   0  0  0  0  0  0  0  0  0  0  0  0
  191.9580  177.0310  147.6480 O   0  0  0  0  0  0  0  0  0  0  0  0
  191.1840  176.6970  146.7070 C   0  0  0  0  0  0  0  0  0  0  0  0
  189.8030  177.0650  146.7570 N   0  0  0  0  0  2  0  0  0  0  0  0
  189.2200  177.7860  147.8860 C   0  0  0  0  0  2  0  0  0  0  0  0
  187.7280  177.9770  147.6660 C   0  0  0  0  0  1  0  0  0  0  0  0
  191.6610  174.0610  137.5390 N   0  0  0  0  0  2  0  0  0  0  0  0
  193.0560  173.8790  137.1560 C   0  0  0  0  0  3  0  0  0  0  0  0
  193.2750  172.5720  136.7610 F   0  0  0  0  0  0  0  0  0  0  0  0
  193.8890  174.1980  138.2130 F   0  0  0  0  0  0  0  0  0  0  0  0
  1 17  1  0  0  0  0
  2 23  1  0  0  0  0
  2 19  1  0  0  0  0
  3 15  1  0  0  0  0
  3  1  2  0  0  0  0
  5 24  2  0  0  0  0
  5  4  1  0  0  0  0
  6 14  1  0  0  0  0
  6 19  1  0  0  0  0
  7 25  1  0  0  0  0
  7  9  2  0  0  0  0
  9 23  2  0  0  0  0
 10  6  1  0  0  0  0
 11 13  1  0  0  0  0
 12 21  2  0  0  0  0
 13 28  1  0  0  0  0
 13  4  1  0  0  0  0
 14 18  2  0  0  0  0
 15 22  2  0  0  0  0
 16 21  1  0  0  0  0
 16 24  1  0  0  0  0
 17  8  2  0  0  0  0
 17 14  1  0  0  0  0
 18 11  1  0  0  0  0
 18  5  1  0  0  0  0
 19 16  2  0  0  0  0
 20  1  1  0  0  0  0
 20 10  2  0  0  0  0
 22 37  1  0  0  0  0
 22  8  1  0  0  0  0
 23 12  1  0  0  0  0
 25 27  1  0  0  0  0
 27 26  1  0  0  0  0
 28 29  1  0  0  0  0
 29 31  1  0  0  0  0
 30 33  1  0  0  0  0
 31 30  2  0  0  0  0
 33 34  1  0  0  0  0
 33 32  2  0  0  0  0
 34 35  1  0  0  0  0
 36 35  1  0  0  0  0
 38 37  1  0  0  0  0
 38 40  1  0  0  0  0
 39 38  1  0  0  0  0
M  END
>  <MODEL>
3

>  <REMARK>
 VINA RESULT:      -7.3      4.467      7.721
  Name = 
  9 active torsions:
  status: ('A' for Active; 'I' for Inactive)
    1  A    between atoms: C_1  and  C_19
    2  A    between atoms: C_1  and  N_25
    3  A    between atoms: N_2  and  C_21
    4  A    between atoms: C_6  and  N_30
    5  A    between atoms: C_11  and  S_15
    6  A    between atoms: S_15  and  C_39
    7  A    between atoms: N_18  and  C_19
    8  A    between atoms: C_26  and  N_40
    9  A    between atoms: N_30  and  C_32
                            x       y       z     vdW  Elec       q    Type
                         _______ _______ _______ _____ _____    ______ ____

>  <TORSDO>
F 9

$$$$
=
 OpenBabel10222421273D

 40 44  0  0  0  0  0  0  0  0999 V2000
  191.7330  177.4810  141.0890 C   0  0  0  0  0  0  0  0  0  0  0  0
  193.6190  174.5040  137.9610 C   0  0  0  0  0  2  0  0  0  0  0  0
  191.7080  177.9050  142.4210 C   0  0  0  0  0  3  0  0  0  0  0  0
  188.2580  176.6860  136.3680 C   0  0  0  0  0  2  0  0  0  0  0  0
  189.5620  176.2370  136.8870 C   0  0  0  0  0  0  0  0  0  0  0  0
  191.9920  176.3570  138.4980 N   0  0  0  0  0  0  0  0  0  0  0  0
  196.4610  172.4790  137.0940 C   0  0  0  0  0  3  0  0  0  0  0  0
  189.4900  176.5980  141.3350 C   0  0  0  0  0  3  0  0  0  0  0  0
  195.3140  173.0850  136.9640 C   0  0  0  0  0  0  0  0  0  0  0  0
  193.0560  177.1430  139.0700 C   0  0  0  0  0  3  0  0  0  0  0  0
  188.2020  176.7400  138.7360 C   0  0  0  0  0  2  0  0  0  0  0  0
  193.3090  173.3510  135.6950 C   0  0  0  0  0  3  0  0  0  0  0  0
  187.3730  176.8350  137.5270 N   0  0  0  0  0  0  0  0  0  0  0  0
  190.6790  176.4310  139.0930 C   0  0  0  0  0  0  0  0  0  0  0  0
  190.5760  177.6770  143.2080 C   0  0  0  0  0  3  0  0  0  0  0  0
  191.6410  174.9670  136.5090 C   0  0  0  0  0  0  0  0  0  0  0  0
  190.6120  176.8400  140.5270 C   0  0  0  0  0  0  0  0  0  0  0  0
  189.5800  176.3570  138.3210 C   0  0  0  0  0  0  0  0  0  0  0  0
  192.3670  175.2900  137.6080 C   0  0  0  0  0  0  0  0  0  0  0  0
  192.9450  177.6890  140.2840 C   0  0  0  0  0  3  0  0  0  0  0  0
  192.1300  173.9500  135.5560 C   0  0  0  0  0  3  0  0  0  0  0  0
  189.4620  177.0170  142.6680 C   0  0  0  0  0  0  0  0  0  0  0  0
  194.1630  173.6810  136.8320 C   0  0  0  0  0  0  0  0  0  0  0  0
  190.4220  175.6210  136.1360 N   0  0  0  0  0  0  0  0  0  0  0  0
  196.8750  171.1100  136.0180 S   0  0  0  0  0  0  0  0  0  0  0  0
  195.6130  169.6290  137.9350 C   0  0  0  0  0  1  0  0  0  0  0  0
  195.4220  170.1410  136.5220 C   0  0  0  0  0  2  0  0  0  0  0  0
  186.8290  178.1830  137.4870 C   0  0  0  0  0  2  0  0  0  0  0  0
  185.4100  178.1860  138.0290 C   0  0  0  0  0  2  0  0  0  0  0  0
  184.4900  179.9020  139.4700 N   0  0  0  0  0  0  0  0  0  0  0  0
  185.0100  179.5470  138.3580 N   0  0  0  0  0  0  0  0  0  0  0  0
  183.1950  178.2610  140.5610 O   0  0  0  0  0  0  0  0  0  0  0  0
  184.1910  179.0380  140.5810 C   0  0  0  0  0  0  0  0  0  0  0  0
  185.0420  179.0740  141.7290 N   0  0  0  0  0  2  0  0  0  0  0  0
  184.7900  178.2710  142.9230 C   0  0  0  0  0  2  0  0  0  0  0  0
  184.3280  179.1650  144.0620 C   0  0  0  0  0  1  0  0  0  0  0  0
  188.2930  176.7580  143.4540 N   0  0  0  0  0  2  0  0  0  0  0  0
  188.0460  177.3200  144.7770 C   0  0  0  0  0  3  0  0  0  0  0  0
  188.9020  176.7530  145.7030 F   0  0  0  0  0  0  0  0  0  0  0  0
  186.7320  177.1010  145.1520 F   0  0  0  0  0  0  0  0  0  0  0  0
  1  3  1  0  0  0  0
  3 15  2  0  0  0  0
  4  5  1  0  0  0  0
  4 13  1  0  0  0  0
  5 18  1  0  0  0  0
  6 10  1  0  0  0  0
  6 14  1  0  0  0  0
  8 22  2  0  0  0  0
  9  7  2  0  0  0  0
 10 20  2  0  0  0  0
 12 23  1  0  0  0  0
 13 11  1  0  0  0  0
 14 17  1  0  0  0  0
 16 19  2  0  0  0  0
 17  1  2  0  0  0  0
 17  8  1  0  0  0  0
 18 11  1  0  0  0  0
 18 14  2  0  0  0  0
 19  2  1  0  0  0  0
 19  6  1  0  0  0  0
 20  1  1  0  0  0  0
 21 12  2  0  0  0  0
 21 16  1  0  0  0  0
 22 15  1  0  0  0  0
 22 37  1  0  0  0  0
 23  9  2  0  0  0  0
 23  2  1  0  0  0  0
 24 16  1  0  0  0  0
 24  5  2  0  0  0  0
 25 27  1  0  0  0  0
 25  7  1  0  0  0  0
 27 26  1  0  0  0  0
 28 13  1  0  0  0  0
 28 29  1  0  0  0  0
 29 31  1  0  0  0  0
 30 33  1  0  0  0  0
 31 30  2  0  0  0  0
 32 33  2  0  0  0  0
 33 34  1  0  0  0  0
 34 35  1  0  0  0  0
 35 36  1  0  0  0  0
 37 38  1  0  0  0  0
 38 40  1  0  0  0  0
 38 39  1  0  0  0  0
M  END
>  <MODEL>
4

>  <REMARK>
 VINA RESULT:      -7.2      4.828      9.501
  Name = 
  9 active torsions:
  status: ('A' for Active; 'I' for Inactive)
    1  A    between atoms: C_1  and  C_19
    2  A    between atoms: C_1  and  N_25
    3  A    between atoms: N_2  and  C_21
    4  A    between atoms: C_6  and  N_30
    5  A    between atoms: C_11  and  S_15
    6  A    between atoms: S_15  and  C_39
    7  A    between atoms: N_18  and  C_19
    8  A    between atoms: C_26  and  N_40
    9  A    between atoms: N_30  and  C_32
                            x       y       z     vdW  Elec       q    Type
                         _______ _______ _______ _____ _____    ______ ____

>  <TORSDO>
F 9

$$$$
=
 OpenBabel10222421273D

 40 44  0  0  0  0  0  0  0  0999 V2000
  191.7530  177.3820  141.1360 C   0  0  0  0  0  0  0  0  0  0  0  0
  193.7380  174.5280  137.9560 C   0  0  0  0  0  2  0  0  0  0  0  0
  191.6830  177.7520  142.4830 C   0  0  0  0  0  3  0  0  0  0  0  0
  188.4420  176.7960  136.2690 C   0  0  0  0  0  2  0  0  0  0  0  0
  189.7260  176.3220  136.8140 C   0  0  0  0  0  0  0  0  0  0  0  0
  192.0990  176.3640  138.5120 N   0  0  0  0  0  0  0  0  0  0  0  0
  196.6040  172.5280  137.1060 C   0  0  0  0  0  3  0  0  0  0  0  0
  189.5000  176.5000  141.2680 C   0  0  0  0  0  3  0  0  0  0  0  0
  195.4630  173.1430  136.9610 C   0  0  0  0  0  0  0  0  0  0  0  0
  193.1450  177.1220  139.1530 C   0  0  0  0  0  3  0  0  0  0  0  0
  188.3050  176.7540  138.6340 C   0  0  0  0  0  2  0  0  0  0  0  0
  193.5040  173.4700  135.6350 C   0  0  0  0  0  3  0  0  0  0  0  0
  187.5190  176.9020  137.4020 N   0  0  0  0  0  0  0  0  0  0  0  0
  190.7670  176.4190  139.0630 C   0  0  0  0  0  0  0  0  0  0  0  0
  190.5240  177.4970  143.2200 C   0  0  0  0  0  3  0  0  0  0  0  0
  191.8140  175.0590  136.4570 C   0  0  0  0  0  0  0  0  0  0  0  0
  190.6510  176.7700  140.5100 C   0  0  0  0  0  0  0  0  0  0  0  0
  189.6950  176.3820  138.2510 C   0  0  0  0  0  0  0  0  0  0  0  0
  192.5020  175.3330  137.5920 C   0  0  0  0  0  0  0  0  0  0  0  0
  192.9930  177.6180  140.3830 C   0  0  0  0  0  3  0  0  0  0  0  0
  192.3320  174.0790  135.4800 C   0  0  0  0  0  3  0  0  0  0  0  0
  189.4280  176.8630  142.6150 C   0  0  0  0  0  0  0  0  0  0  0  0
  194.3190  173.7500  136.8140 C   0  0  0  0  0  0  0  0  0  0  0  0
  190.6100  175.7330  136.0680 N   0  0  0  0  0  0  0  0  0  0  0  0
  197.0500  171.2030  135.9890 S   0  0  0  0  0  0  0  0  0  0  0  0
  199.1780  172.6640  136.8840 C   0  0  0  0  0  1  0  0  0  0  0  0
  198.8050  171.2580  136.4610 C   0  0  0  0  0  2  0  0  0  0  0  0
  186.9800  178.2530  137.3990 C   0  0  0  0  0  2  0  0  0  0  0  0
  185.6740  178.2920  138.1730 C   0  0  0  0  0  2  0  0  0  0  0  0
  184.9240  179.4290  140.1770 N   0  0  0  0  0  0  0  0  0  0  0  0
  185.8680  178.9950  139.4340 N   0  0  0  0  0  0  0  0  0  0  0  0
  182.9930  179.8870  138.9030 O   0  0  0  0  0  0  0  0  0  0  0  0
  183.5140  179.3230  139.9060 C   0  0  0  0  0  0  0  0  0  0  0  0
  182.6970  178.5660  140.8020 N   0  0  0  0  0  2  0  0  0  0  0  0
  181.2510  178.4440  140.6370 C   0  0  0  0  0  2  0  0  0  0  0  0
  180.9160  177.1440  139.9230 C   0  0  0  0  0  1  0  0  0  0  0  0
  188.2310  176.5780  143.3490 N   0  0  0  0  0  2  0  0  0  0  0  0
  187.8120  177.2850  144.5530 C   0  0  0  0  0  3  0  0  0  0  0  0
  188.4660  176.7740  145.6590 F   0  0  0  0  0  0  0  0  0  0  0  0
  186.4430  177.1740  144.7220 F   0  0  0  0  0  0  0  0  0  0  0  0
  1  3  1  0  0  0  0
  3 15  2  0  0  0  0
  4  5  1  0  0  0  0
  4 13  1  0  0  0  0
  5 18  1  0  0  0  0
  6 14  1  0  0  0  0
  6 10  1  0  0  0  0
  8 22  2  0  0  0  0
  9  7  2  0  0  0  0
 10 20  2  0  0  0  0
 12 23  1  0  0  0  0
 13 11  1  0  0  0  0
 14 17  1  0  0  0  0
 16 19  2  0  0  0  0
 17  1  2  0  0  0  0
 17  8  1  0  0  0  0
 18 11  1  0  0  0  0
 18 14  2  0  0  0  0
 19  2  1  0  0  0  0
 19  6  1  0  0  0  0
 20  1  1  0  0  0  0
 21 12  2  0  0  0  0
 21 16  1  0  0  0  0
 22 15  1  0  0  0  0
 22 37  1  0  0  0  0
 23  9  2  0  0  0  0
 23  2  1  0  0  0  0
 24 16  1  0  0  0  0
 24  5  2  0  0  0  0
 25 27  1  0  0  0  0
 25  7  1  0  0  0  0
 27 26  1  0  0  0  0
 28 13  1  0  0  0  0
 28 29  1  0  0  0  0
 29 31  1  0  0  0  0
 31 30  2  0  0  0  0
 32 33  2  0  0  0  0
 33 30  1  0  0  0  0
 33 34  1  0  0  0  0
 35 34  1  0  0  0  0
 36 35  1  0  0  0  0
 37 38  1  0  0  0  0
 38 40  1  0  0  0  0
 38 39  1  0  0  0  0
M  END
>  <MODEL>
5

>  <REMARK>
 VINA RESULT:      -6.7      4.935      9.859
  Name = 
  9 active torsions:
  status: ('A' for Active; 'I' for Inactive)
    1  A    between atoms: C_1  and  C_19
    2  A    between atoms: C_1  and  N_25
    3  A    between atoms: N_2  and  C_21
    4  A    between atoms: C_6  and  N_30
    5  A    between atoms: C_11  and  S_15
    6  A    between atoms: S_15  and  C_39
    7  A    between atoms: N_18  and  C_19
    8  A    between atoms: C_26  and  N_40
    9  A    between atoms: N_30  and  C_32
                            x       y       z     vdW  Elec       q    Type
                         _______ _______ _______ _____ _____    ______ ____

>  <TORSDO>
F 9

$$$$
=
 OpenBabel10222421273D

 40 44  0  0  0  0  0  0  0  0999 V2000
  181.7270  179.0030  143.5030 C   0  0  0  0  0  0  0  0  0  0  0  0
  186.1820  177.8760  144.5440 C   0  0  0  0  0  2  0  0  0  0  0  0
  180.3890  178.9450  143.9040 C   0  0  0  0  0  3  0  0  0  0  0  0
  185.1800  178.8290  138.7020 C   0  0  0  0  0  2  0  0  0  0  0  0
  185.2760  178.6290  140.1590 C   0  0  0  0  0  0  0  0  0  0  0  0
  184.5090  178.9060  142.9610 N   0  0  0  0  0  0  0  0  0  0  0  0
  188.5530  177.1450  147.1470 C   0  0  0  0  0  3  0  0  0  0  0  0
  181.2380  177.4860  141.6770 C   0  0  0  0  0  3  0  0  0  0  0  0
  188.1000  177.4050  145.9520 C   0  0  0  0  0  0  0  0  0  0  0  0
  183.9930  179.7330  144.0230 C   0  0  0  0  0  3  0  0  0  0  0  0
  183.0800  178.0920  139.5170 C   0  0  0  0  0  2  0  0  0  0  0  0
  188.5330  177.4850  143.6060 C   0  0  0  0  0  3  0  0  0  0  0  0
  183.8620  178.3330  138.2970 N   0  0  0  0  0  0  0  0  0  0  0  0
  183.5920  178.4040  141.9660 C   0  0  0  0  0  0  0  0  0  0  0  0
  179.4770  178.1600  143.1940 C   0  0  0  0  0  3  0  0  0  0  0  0
  186.7020  178.2010  142.1240 C   0  0  0  0  0  0  0  0  0  0  0  0
  182.1590  178.2880  142.3690 C   0  0  0  0  0  0  0  0  0  0  0  0
  183.9850  178.2750  140.6860 C   0  0  0  0  0  0  0  0  0  0  0  0
  185.8200  178.3420  143.1440 C   0  0  0  0  0  0  0  0  0  0  0  0
  182.6850  179.7990  144.2830 C   0  0  0  0  0  3  0  0  0  0  0  0
  188.0800  177.7330  142.3800 C   0  0  0  0  0  3  0  0  0  0  0  0
  179.9000  177.4220  142.0790 C   0  0  0  0  0  0  0  0  0  0  0  0
  187.6500  177.6570  144.7560 C   0  0  0  0  0  0  0  0  0  0  0  0
  186.4210  178.5630  140.7670 N   0  0  0  0  0  0  0  0  0  0  0  0
  190.1590  176.3800  147.3440 S   0  0  0  0  0  0  0  0  0  0  0  0
  191.6800  176.5670  145.0810 C   0  0  0  0  0  1  0  0  0  0  0  0
  190.9290  177.4300  146.0750 C   0  0  0  0  0  2  0  0  0  0  0  0
  183.1990  179.4060  137.5710 C   0  0  0  0  0  2  0  0  0  0  0  0
  181.7460  179.5020  138.0000 C   0  0  0  0  0  2  0  0  0  0  0  0
  180.4260  180.9060  136.5310 N   0  0  0  0  0  0  0  0  0  0  0  0
  180.9050  179.7620  136.8400 N   0  0  0  0  0  0  0  0  0  0  0  0
  180.4100  182.1840  138.5130 O   0  0  0  0  0  0  0  0  0  0  0  0
  180.6090  182.1290  137.2660 C   0  0  0  0  0  0  0  0  0  0  0  0
  181.0210  183.3020  136.5590 N   0  0  0  0  0  2  0  0  0  0  0  0
  181.1840  184.5990  137.2110 C   0  0  0  0  0  2  0  0  0  0  0  0
  180.0170  185.5070  136.8620 C   0  0  0  0  0  1  0  0  0  0  0  0
  178.9910  176.5990  141.3380 N   0  0  0  0  0  2  0  0  0  0  0  0
  179.2350  175.2040  140.9920 C   0  0  0  0  0  3  0  0  0  0  0  0
  179.3160  174.4350  142.1380 F   0  0  0  0  0  0  0  0  0  0  0  0
  180.4050  175.0890  140.2630 F   0  0  0  0  0  0  0  0  0  0  0  0
  1  3  1  0  0  0  0
  1 20  1  0  0  0  0
  2 23  1  0  0  0  0
  4  5  1  0  0  0  0
  5 18  1  0  0  0  0
  5 24  2  0  0  0  0
  6 19  1  0  0  0  0
  6 10  1  0  0  0  0
  7 25  1  0  0  0  0
  8 22  2  0  0  0  0
  8 17  1  0  0  0  0
  9  7  2  0  0  0  0
 10 20  2  0  0  0  0
 11 18  1  0  0  0  0
 12 23  1  0  0  0  0
 13  4  1  0  0  0  0
 13 11  1  0  0  0  0
 14 17  1  0  0  0  0
 14  6  1  0  0  0  0
 15  3  2  0  0  0  0
 16 21  1  0  0  0  0
 16 19  2  0  0  0  0
 17  1  2  0  0  0  0
 18 14  2  0  0  0  0
 19  2  1  0  0  0  0
 21 12  2  0  0  0  0
 22 15  1  0  0  0  0
 23  9  2  0  0  0  0
 24 16  1  0  0  0  0
 26 27  1  0  0  0  0
 27 25  1  0  0  0  0
 28 29  1  0  0  0  0
 28 13  1  0  0  0  0
 30 31  2  0  0  0  0
 30 33  1  0  0  0  0
 31 29  1  0  0  0  0
 33 32  2  0  0  0  0
 34 35  1  0  0  0  0
 34 33  1  0  0  0  0
 36 35  1  0  0  0  0
 37 22  1  0  0  0  0
 38 37  1  0  0  0  0
 38 39  1  0  0  0  0
 40 38  1  0  0  0  0
M  END
>  <MODEL>
6

>  <REMARK>
 VINA RESULT:      -6.5      6.798     10.186
  Name = 
  9 active torsions:
  status: ('A' for Active; 'I' for Inactive)
    1  A    between atoms: C_1  and  C_19
    2  A    between atoms: C_1  and  N_25
    3  A    between atoms: N_2  and  C_21
    4  A    between atoms: C_6  and  N_30
    5  A    between atoms: C_11  and  S_15
    6  A    between atoms: S_15  and  C_39
    7  A    between atoms: N_18  and  C_19
    8  A    between atoms: C_26  and  N_40
    9  A    between atoms: N_30  and  C_32
                            x       y       z     vdW  Elec       q    Type
                         _______ _______ _______ _____ _____    ______ ____

>  <TORSDO>
F 9

$$$$
=
 OpenBabel10222421273D

 40 44  0  0  0  0  0  0  0  0999 V2000
  187.4690  178.3730  140.8880 C   0  0  0  0  0  0  0  0  0  0  0  0
  182.9540  177.6550  139.7490 C   0  0  0  0  0  2  0  0  0  0  0  0
  188.8050  178.1330  140.5520 C   0  0  0  0  0  3  0  0  0  0  0  0
  183.8550  179.0000  145.5300 C   0  0  0  0  0  2  0  0  0  0  0  0
  183.7870  178.6850  144.0920 C   0  0  0  0  0  0  0  0  0  0  0  0
  184.6770  178.6300  141.3140 N   0  0  0  0  0  0  0  0  0  0  0  0
  180.6060  176.9630  137.1150 C   0  0  0  0  0  3  0  0  0  0  0  0
  187.7200  176.9770  142.8530 C   0  0  0  0  0  3  0  0  0  0  0  0
  181.0450  177.2760  138.3020 C   0  0  0  0  0  0  0  0  0  0  0  0
  185.3190  179.2990  140.2100 C   0  0  0  0  0  3  0  0  0  0  0  0
  185.8850  177.9690  144.8730 C   0  0  0  0  0  2  0  0  0  0  0  0
  180.5420  177.6090  140.6130 C   0  0  0  0  0  3  0  0  0  0  0  0
  185.0950  178.4000  146.0330 N   0  0  0  0  0  0  0  0  0  0  0  0
  185.4960  178.1200  142.3850 C   0  0  0  0  0  0  0  0  0  0  0  0
  189.5970  177.3180  141.3640 C   0  0  0  0  0  3  0  0  0  0  0  0
  182.3900  178.2460  142.1090 C   0  0  0  0  0  0  0  0  0  0  0  0
  186.9200  177.8110  142.0570 C   0  0  0  0  0  0  0  0  0  0  0  0
  185.0480  178.1470  143.6540 C   0  0  0  0  0  0  0  0  0  0  0  0
  183.3170  178.1990  141.1200 C   0  0  0  0  0  0  0  0  0  0  0  0
  186.6350  179.1980  140.0030 C   0  0  0  0  0  3  0  0  0  0  0  0
  180.9780  177.9120  141.8320 C   0  0  0  0  0  3  0  0  0  0  0  0
  189.0550  176.7310  142.5180 C   0  0  0  0  0  0  0  0  0  0  0  0
  181.4790  177.5810  139.4920 C   0  0  0  0  0  0  0  0  0  0  0  0
  182.6650  178.6930  143.4420 N   0  0  0  0  0  0  0  0  0  0  0  0
  178.9310  176.3650  136.9120 S   0  0  0  0  0  0  0  0  0  0  0  0
  178.9590  174.2550  138.6480 C   0  0  0  0  0  1  0  0  0  0  0  0
  179.3970  174.6410  137.2490 C   0  0  0  0  0  2  0  0  0  0  0  0
  185.8490  179.4540  146.6950 C   0  0  0  0  0  2  0  0  0  0  0  0
  187.2900  179.0160  146.8880 C   0  0  0  0  0  2  0  0  0  0  0  0
  188.3390  177.4740  148.4340 N   0  0  0  0  0  0  0  0  0  0  0  0
  187.4310  178.3320  148.1660 N   0  0  0  0  0  0  0  0  0  0  0  0
  189.1110  176.7520  146.3260 O   0  0  0  0  0  0  0  0  0  0  0  0
  189.3650  177.0150  147.5350 C   0  0  0  0  0  0  0  0  0  0  0  0
  190.6950  176.8520  148.0350 N   0  0  0  0  0  2  0  0  0  0  0  0
  191.7900  176.3460  147.2120 C   0  0  0  0  0  2  0  0  0  0  0  0
  192.8050  175.6240  148.0830 C   0  0  0  0  0  1  0  0  0  0  0  0
  189.8390  175.8820  143.3640 N   0  0  0  0  0  2  0  0  0  0  0  0
  191.2900  175.9520  143.4880 C   0  0  0  0  0  3  0  0  0  0  0  0
  191.7710  174.8140  144.1110 F   0  0  0  0  0  0  0  0  0  0  0  0
  191.6560  177.0740  144.2090 F   0  0  0  0  0  0  0  0  0  0  0  0
  1 17  1  0  0  0  0
  2 19  1  0  0  0  0
  3  1  2  0  0  0  0
  3 15  1  0  0  0  0
  4 13  1  0  0  0  0
  5  4  1  0  0  0  0
  6 14  1  0  0  0  0
  7  9  2  0  0  0  0
  9 23  2  0  0  0  0
 10  6  1  0  0  0  0
 11 13  1  0  0  0  0
 12 21  2  0  0  0  0
 13 28  1  0  0  0  0
 14 18  2  0  0  0  0
 15 22  2  0  0  0  0
 16 24  1  0  0  0  0
 17 14  1  0  0  0  0
 17  8  2  0  0  0  0
 18  5  1  0  0  0  0
 18 11  1  0  0  0  0
 19  6  1  0  0  0  0
 19 16  2  0  0  0  0
 20 10  2  0  0  0  0
 20  1  1  0  0  0  0
 21 16  1  0  0  0  0
 22  8  1  0  0  0  0
 22 37  1  0  0  0  0
 23  2  1  0  0  0  0
 23 12  1  0  0  0  0
 24  5  2  0  0  0  0
 25  7  1  0  0  0  0
 25 27  1  0  0  0  0
 27 26  1  0  0  0  0
 28 29  1  0  0  0  0
 29 31  1  0  0  0  0
 31 30  2  0  0  0  0
 32 33  2  0  0  0  0
 33 34  1  0  0  0  0
 33 30  1  0  0  0  0
 35 34  1  0  0  0  0
 35 36  1  0  0  0  0
 37 38  1  0  0  0  0
 38 39  1  0  0  0  0
 38 40  1  0  0  0  0
M  END
>  <MODEL>
7

>  <REMARK>
 VINA RESULT:      -6.3      6.358     10.158
  Name = 
  9 active torsions:
  status: ('A' for Active; 'I' for Inactive)
    1  A    between atoms: C_1  and  C_19
    2  A    between atoms: C_1  and  N_25
    3  A    between atoms: N_2  and  C_21
    4  A    between atoms: C_6  and  N_30
    5  A    between atoms: C_11  and  S_15
    6  A    between atoms: S_15  and  C_39
    7  A    between atoms: N_18  and  C_19
    8  A    between atoms: C_26  and  N_40
    9  A    between atoms: N_30  and  C_32
                            x       y       z     vdW  Elec       q    Type
                         _______ _______ _______ _____ _____    ______ ____

>  <TORSDO>
F 9

$$$$
=
 OpenBabel10222421273D

 40 44  0  0  0  0  0  0  0  0999 V2000
  181.9180  179.0060  143.5500 C   0  0  0  0  0  0  0  0  0  0  0  0
  186.3940  177.8650  144.4840 C   0  0  0  0  0  2  0  0  0  0  0  0
  180.5890  178.9450  143.9810 C   0  0  0  0  0  3  0  0  0  0  0  0
  185.2660  178.8780  138.6750 C   0  0  0  0  0  2  0  0  0  0  0  0
  185.3940  178.6630  140.1270 C   0  0  0  0  0  0  0  0  0  0  0  0
  184.6880  178.9130  142.9470 N   0  0  0  0  0  0  0  0  0  0  0  0
  188.8200  177.1060  147.0270 C   0  0  0  0  0  3  0  0  0  0  0  0
  181.3880  177.5080  141.7210 C   0  0  0  0  0  3  0  0  0  0  0  0
  188.3410  177.3790  145.8450 C   0  0  0  0  0  0  0  0  0  0  0  0
  184.1960  179.7290  144.0290 C   0  0  0  0  0  3  0  0  0  0  0  0
  183.1840  178.1340  139.5270 C   0  0  0  0  0  2  0  0  0  0  0  0
  188.7240  177.4820  143.4910 C   0  0  0  0  0  3  0  0  0  0  0  0
  183.9390  178.3870  138.2930 N   0  0  0  0  0  0  0  0  0  0  0  0
  183.7490  178.4220  141.9680 C   0  0  0  0  0  0  0  0  0  0  0  0
  179.6610  178.1680  143.2820 C   0  0  0  0  0  3  0  0  0  0  0  0
  186.8620  178.2140  142.0570 C   0  0  0  0  0  0  0  0  0  0  0  0
  182.3250  178.3020  142.4010 C   0  0  0  0  0  0  0  0  0  0  0  0
  184.1130  178.3050  140.6780 C   0  0  0  0  0  0  0  0  0  0  0  0
  186.0020  178.3450  143.0970 C   0  0  0  0  0  0  0  0  0  0  0  0
  182.8940  179.7930  144.3180 C   0  0  0  0  0  3  0  0  0  0  0  0
  188.2440  177.7430  142.2780 C   0  0  0  0  0  3  0  0  0  0  0  0
  180.0600  177.4410  142.1500 C   0  0  0  0  0  0  0  0  0  0  0  0
  187.8650  177.6430  144.6620 C   0  0  0  0  0  0  0  0  0  0  0  0
  186.5510  178.5900  140.7090 N   0  0  0  0  0  0  0  0  0  0  0  0
  190.4290  176.3380  147.1810 S   0  0  0  0  0  0  0  0  0  0  0  0
  191.6410  176.2600  144.7330 C   0  0  0  0  0  1  0  0  0  0  0  0
  191.1110  177.2420  145.7590 C   0  0  0  0  0  2  0  0  0  0  0  0
  183.2620  179.4680  137.5930 C   0  0  0  0  0  2  0  0  0  0  0  0
  181.7580  179.3170  137.7370 C   0  0  0  0  0  2  0  0  0  0  0  0
  180.8320  178.0020  135.9250 N   0  0  0  0  0  0  0  0  0  0  0  0
  181.1520  179.1330  136.4250 N   0  0  0  0  0  0  0  0  0  0  0  0
  180.1790  176.2480  137.3600 O   0  0  0  0  0  0  0  0  0  0  0  0
  181.0220  176.7160  136.5440 C   0  0  0  0  0  0  0  0  0  0  0  0
  182.1950  175.9650  136.2220 N   0  0  0  0  0  2  0  0  0  0  0  0
  182.4980  174.6750  136.8360 C   0  0  0  0  0  2  0  0  0  0  0  0
  183.4680  174.8630  137.9910 C   0  0  0  0  0  1  0  0  0  0  0  0
  179.1340  176.6260  141.4220 N   0  0  0  0  0  2  0  0  0  0  0  0
  179.2930  175.1940  141.1970 C   0  0  0  0  0  3  0  0  0  0  0  0
  179.5110  174.5440  142.3990 F   0  0  0  0  0  0  0  0  0  0  0  0
  180.3490  174.9580  140.3350 F   0  0  0  0  0  0  0  0  0  0  0  0
  1  3  1  0  0  0  0
  1 20  1  0  0  0  0
  2 23  1  0  0  0  0
  4  5  1  0  0  0  0
  5 18  1  0  0  0  0
  5 24  2  0  0  0  0
  6 19  1  0  0  0  0
  6 10  1  0  0  0  0
  7 25  1  0  0  0  0
  8 22  2  0  0  0  0
  8 17  1  0  0  0  0
  9  7  2  0  0  0  0
 10 20  2  0  0  0  0
 11 18  1  0  0  0  0
 12 23  1  0  0  0  0
 13  4  1  0  0  0  0
 13 11  1  0  0  0  0
 14 17  1  0  0  0  0
 14  6  1  0  0  0  0
 15  3  2  0  0  0  0
 16 21  1  0  0  0  0
 16 19  2  0  0  0  0
 17  1  2  0  0  0  0
 18 14  2  0  0  0  0
 19  2  1  0  0  0  0
 21 12  2  0  0  0  0
 22 15  1  0  0  0  0
 23  9  2  0  0  0  0
 24 16  1  0  0  0  0
 26 27  1  0  0  0  0
 27 25  1  0  0  0  0
 28 29  1  0  0  0  0
 28 13  1  0  0  0  0
 30 31  2  0  0  0  0
 30 33  1  0  0  0  0
 31 29  1  0  0  0  0
 33 32  2  0  0  0  0
 34 33  1  0  0  0  0
 34 35  1  0  0  0  0
 35 36  1  0  0  0  0
 37 22  1  0  0  0  0
 38 37  1  0  0  0  0
 38 39  1  0  0  0  0
 40 38  1  0  0  0  0
M  END
>  <MODEL>
8

>  <REMARK>
 VINA RESULT:      -6.2      6.509      9.330
  Name = 
  9 active torsions:
  status: ('A' for Active; 'I' for Inactive)
    1  A    between atoms: C_1  and  C_19
    2  A    between atoms: C_1  and  N_25
    3  A    between atoms: N_2  and  C_21
    4  A    between atoms: C_6  and  N_30
    5  A    between atoms: C_11  and  S_15
    6  A    between atoms: S_15  and  C_39
    7  A    between atoms: N_18  and  C_19
    8  A    between atoms: C_26  and  N_40
    9  A    between atoms: N_30  and  C_32
                            x       y       z     vdW  Elec       q    Type
                         _______ _______ _______ _____ _____    ______ ____

>  <TORSDO>
F 9

$$$$
=
 OpenBabel10222421273D

 40 44  0  0  0  0  0  0  0  0999 V2000
  180.3220  177.0230  140.3320 C   0  0  0  0  0  0  0  0  0  0  0  0
  184.0010  178.2140  143.0250 C   0  0  0  0  0  2  0  0  0  0  0  0
  179.0800  176.3820  140.2780 C   0  0  0  0  0  3  0  0  0  0  0  0
  185.1970  178.0530  137.1440 C   0  0  0  0  0  2  0  0  0  0  0  0
  184.7580  178.0540  138.5500 C   0  0  0  0  0  0  0  0  0  0  0  0
  182.8680  178.1920  140.7700 N   0  0  0  0  0  0  0  0  0  0  0  0
  185.1710  178.9180  146.3510 C   0  0  0  0  0  3  0  0  0  0  0  0
  181.2690  175.2950  138.9210 C   0  0  0  0  0  3  0  0  0  0  0  0
  185.1850  178.8260  145.0500 C   0  0  0  0  0  0  0  0  0  0  0  0
  181.6810  178.7740  141.3460 C   0  0  0  0  0  3  0  0  0  0  0  0
  183.4290  176.4950  137.3980 C   0  0  0  0  0  2  0  0  0  0  0  0
  186.4720  178.8870  143.0410 C   0  0  0  0  0  3  0  0  0  0  0  0
  184.4770  176.9630  136.4800 N   0  0  0  0  0  0  0  0  0  0  0  0
  182.7210  177.2320  139.7030 C   0  0  0  0  0  0  0  0  0  0  0  0
  178.9330  175.2010  139.5460 C   0  0  0  0  0  3  0  0  0  0  0  0
  185.2930  178.5240  140.9110 C   0  0  0  0  0  0  0  0  0  0  0  0
  181.4250  176.4940  139.6350 C   0  0  0  0  0  0  0  0  0  0  0  0
  183.6200  177.1860  138.7030 C   0  0  0  0  0  0  0  0  0  0  0  0
  184.0940  178.3270  141.5120 C   0  0  0  0  0  0  0  0  0  0  0  0
  180.4740  178.2420  141.1390 C   0  0  0  0  0  3  0  0  0  0  0  0
  186.5050  178.7820  141.7150 C   0  0  0  0  0  3  0  0  0  0  0  0
  180.0310  174.6490  138.8680 C   0  0  0  0  0  0  0  0  0  0  0  0
  185.2070  178.7280  143.7520 C   0  0  0  0  0  0  0  0  0  0  0  0
  185.4750  178.5870  139.4910 N   0  0  0  0  0  0  0  0  0  0  0  0
  186.7120  179.0150  147.2550 S   0  0  0  0  0  0  0  0  0  0  0  0
  188.8340  177.6430  146.2160 C   0  0  0  0  0  1  0  0  0  0  0  0
  187.3580  177.4830  146.5220 C   0  0  0  0  0  2  0  0  0  0  0  0
  183.8060  177.5300  135.3200 C   0  0  0  0  0  2  0  0  0  0  0  0
  182.3060  177.3180  135.4340 C   0  0  0  0  0  2  0  0  0  0  0  0
  180.9340  179.3020  135.2060 N   0  0  0  0  0  0  0  0  0  0  0  0
  181.6030  178.3480  134.6810 N   0  0  0  0  0  0  0  0  0  0  0  0
  180.2390  178.6330  137.3580 O   0  0  0  0  0  0  0  0  0  0  0  0
  180.7360  179.5250  136.6140 C   0  0  0  0  0  0  0  0  0  0  0  0
  181.1080  180.7890  137.1690 N   0  0  0  0  0  2  0  0  0  0  0  0
  180.8990  181.1250  138.5750 C   0  0  0  0  0  2  0  0  0  0  0  0
  179.5830  181.8650  138.7430 C   0  0  0  0  0  1  0  0  0  0  0  0
  179.9130  173.4330  138.1210 N   0  0  0  0  0  2  0  0  0  0  0  0
  180.5080  173.2090  136.8090 C   0  0  0  0  0  3  0  0  0  0  0  0
  179.6450  172.4790  136.0120 F   0  0  0  0  0  0  0  0  0  0  0  0
  181.7120  172.5390  136.9370 F   0  0  0  0  0  0  0  0  0  0  0  0
  1 20  1  0  0  0  0
  2 23  1  0  0  0  0
  3  1  1  0  0  0  0
  4  5  1  0  0  0  0
  5 18  1  0  0  0  0
  5 24  2  0  0  0  0
  6 10  1  0  0  0  0
  6 19  1  0  0  0  0
  7 25  1  0  0  0  0
  8 17  1  0  0  0  0
  9  7  2  0  0  0  0
 11 18  1  0  0  0  0
 12 23  1  0  0  0  0
 13  4  1  0  0  0  0
 13 11  1  0  0  0  0
 14  6  1  0  0  0  0
 15  3  2  0  0  0  0
 16 19  2  0  0  0  0
 16 21  1  0  0  0  0
 17 14  1  0  0  0  0
 17  1  2  0  0  0  0
 18 14  2  0  0  0  0
 19  2  1  0  0  0  0
 20 10  2  0  0  0  0
 21 12  2  0  0  0  0
 22  8  2  0  0  0  0
 22 15  1  0  0  0  0
 23  9  2  0  0  0  0
 24 16  1  0  0  0  0
 26 27  1  0  0  0  0
 27 25  1  0  0  0  0
 28 29  1  0  0  0  0
 28 13  1  0  0  0  0
 30 33  1  0  0  0  0
 31 30  2  0  0  0  0
 31 29  1  0  0  0  0
 33 34  1  0  0  0  0
 33 32  2  0  0  0  0
 34 35  1  0  0  0  0
 35 36  1  0  0  0  0
 37 22  1  0  0  0  0
 38 40  1  0  0  0  0
 38 37  1  0  0  0  0
 39 38  1  0  0  0  0
M  END
>  <MODEL>
9

>  <REMARK>
 VINA RESULT:      -6.1      6.933      9.326
  Name = 
  9 active torsions:
  status: ('A' for Active; 'I' for Inactive)
    1  A    between atoms: C_1  and  C_19
    2  A    between atoms: C_1  and  N_25
    3  A    between atoms: N_2  and  C_21
    4  A    between atoms: C_6  and  N_30
    5  A    between atoms: C_11  and  S_15
    6  A    between atoms: S_15  and  C_39
    7  A    between atoms: N_18  and  C_19
    8  A    between atoms: C_26  and  N_40
    9  A    between atoms: N_30  and  C_32
                            x       y       z     vdW  Elec       q    Type
                         _______ _______ _______ _____ _____    ______ ____

>  <TORSDO>
F 9

$$$$
