=
 OpenBabel10222418273D

 26 29  0  0  1  0  0  0  0  0999 V2000
  182.0980  177.7930  140.1690 C   0  0  1  0  0  0  0  0  0  0  0  0
  179.9450  176.7300  140.5600 C   0  0  0  0  0  0  0  0  0  0  0  0
  178.9350  174.9190  141.6860 O   0  0  0  0  0  1  0  0  0  0  0  0
  183.5040  177.5310  140.5790 C   0  0  1  0  0  3  0  0  0  0  0  0
  179.4570  177.8450  142.5940 O   0  0  0  0  0  1  0  0  0  0  0  0
  179.4210  177.9860  141.2060 C   0  0  1  0  0  3  0  0  0  0  0  0
  183.1390  177.7380  139.2260 O   0  0  0  0  0  0  0  0  0  0  0  0
  179.2340  175.4290  140.4220 C   0  0  2  0  0  3  0  0  0  0  0  0
  180.1910  179.2390  140.7990 C   0  0  0  0  0  0  0  0  0  0  0  0
  180.3030  174.5880  139.7840 C   0  0  0  0  0  3  0  0  0  0  0  0
  181.4210  175.2860  139.6100 C   0  0  0  0  0  3  0  0  0  0  0  0
  181.1750  176.6260  140.1100 C   0  0  0  0  0  0  0  0  0  0  0  0
  181.4390  179.1520  140.2610 C   0  0  0  0  0  0  0  0  0  0  0  0
  179.6720  181.0910  142.3690 O   0  0  0  0  0  1  0  0  0  0  0  0
  178.9310  181.1800  140.2100 O   0  0  0  0  0  0  0  0  0  0  0  0
  179.5450  180.5360  141.1020 C   0  0  0  0  0  0  0  0  0  0  0  0
  181.8870  180.7620  138.4450 C   0  0  0  0  0  1  0  0  0  0  0  0
  182.1230  180.2640  139.7550 O   0  0  0  0  0  0  0  0  0  0  0  0
  184.2330  178.7580  141.1210 C   0  0  2  0  0  3  0  0  0  0  0  0
  185.5820  178.9070  140.4410 C   0  0  0  0  0  1  0  0  0  0  0  0
  184.3910  178.6840  142.6090 C   0  0  0  0  0  0  0  0  0  0  0  0
  184.7490  178.5580  145.3850 C   0  0  0  0  0  3  0  0  0  0  0  0
  183.5200  178.9640  144.8580 C   0  0  0  0  0  3  0  0  0  0  0  0
  185.6200  178.2770  143.1420 C   0  0  0  0  0  3  0  0  0  0  0  0
  183.3400  179.0270  143.4740 C   0  0  0  0  0  3  0  0  0  0  0  0
  185.7990  178.2140  144.5280 C   0  0  0  0  0  3  0  0  0  0  0  0
  1  7  1  6  0  0  0
  1 13  1  0  0  0  0
  1  4  1  0  0  0  0
  2  6  1  0  0  0  0
  4 19  1  1  0  0  0
  6  5  1  1  0  0  0
  7  4  1  0  0  0  0
  8  2  1  0  0  0  0
  8  3  1  1  0  0  0
  9 16  1  0  0  0  0
  9  6  1  0  0  0  0
 10  8  1  0  0  0  0
 11 10  2  0  0  0  0
 11 12  1  0  0  0  0
 12  1  1  0  0  0  0
 12  2  2  0  0  0  0
 13  9  2  0  0  0  0
 15 16  2  0  0  0  0
 16 14  1  0  0  0  0
 17 18  1  0  0  0  0
 18 13  1  0  0  0  0
 19 20  1  6  0  0  0
 19 21  1  0  0  0  0
 21 24  2  0  0  0  0
 21 25  1  0  0  0  0
 23 22  1  0  0  0  0
 24 26  1  0  0  0  0
 25 23  2  0  0  0  0
 26 22  2  0  0  0  0
M  END
>  <MODEL>
1

>  <REMARK>
 VINA RESULT:      -6.9      0.000      0.000
  Name = 
  4 active torsions:
  status: ('A' for Active; 'I' for Inactive)
    1  A    between atoms: C_3  and  C_7
    2  A    between atoms: C_6  and  C_7
    3  A    between atoms: O_8  and  C_25
    4  A    between atoms: C_18  and  C_26
                            x       y       z     vdW  Elec       q    Type
                         _______ _______ _______ _____ _____    ______ ____

>  <TORSDO>
F 4

$$$$
=
 OpenBabel10222418273D

 26 29  0  0  1  0  0  0  0  0999 V2000
  180.0780  179.3680  140.7390 C   0  0  1  0  0  0  0  0  0  0  0  0
  180.6660  180.5550  138.6990 C   0  0  0  0  0  0  0  0  0  0  0  0
  181.6450  182.5570  137.9210 O   0  0  0  0  0  1  0  0  0  0  0  0
  180.1850  179.6410  142.1980 C   0  0  1  0  0  3  0  0  0  0  0  0
  182.9090  179.7940  138.5780 O   0  0  0  0  0  1  0  0  0  0  0  0
  181.5900  179.4370  138.2920 C   0  0  1  0  0  3  0  0  0  0  0  0
  178.9700  179.2360  141.5930 O   0  0  0  0  0  0  0  0  0  0  0  0
  180.4480  181.8430  137.9840 C   0  0  2  0  0  3  0  0  0  0  0  0
  181.2620  178.1090  138.9680 C   0  0  0  0  0  0  0  0  0  0  0  0
  179.5040  182.5340  138.9250 C   0  0  0  0  0  3  0  0  0  0  0  0
  179.2490  181.7770  139.9890 C   0  0  0  0  0  3  0  0  0  0  0  0
  179.9950  180.5430  139.8280 C   0  0  0  0  0  0  0  0  0  0  0  0
  180.5040  178.0650  140.0980 C   0  0  0  0  0  0  0  0  0  0  0  0
  182.9070  176.2520  139.0520 O   0  0  0  0  0  1  0  0  0  0  0  0
  181.4490  176.4090  137.3010 O   0  0  0  0  0  0  0  0  0  0  0  0
  181.8790  176.9000  138.3780 C   0  0  0  0  0  0  0  0  0  0  0  0
  178.9310  176.1660  140.1920 C   0  0  0  0  0  1  0  0  0  0  0  0
  180.0720  176.8630  140.6720 O   0  0  0  0  0  0  0  0  0  0  0  0
  180.7800  178.4900  143.0040 C   0  0  2  0  0  3  0  0  0  0  0  0
  179.9950  178.2890  144.2880 C   0  0  0  0  0  1  0  0  0  0  0  0
  182.2310  178.7250  143.2980 C   0  0  0  0  0  0  0  0  0  0  0  0
  184.9350  179.1370  143.9050 C   0  0  0  0  0  3  0  0  0  0  0  0
  184.5380  178.9530  142.5780 C   0  0  0  0  0  3  0  0  0  0  0  0
  182.6340  178.9110  144.6260 C   0  0  0  0  0  3  0  0  0  0  0  0
  183.1900  178.7470  142.2730 C   0  0  0  0  0  3  0  0  0  0  0  0
  183.9840  179.1170  144.9290 C   0  0  0  0  0  3  0  0  0  0  0  0
  1 12  1  6  0  0  0
  1  7  1  0  0  0  0
  1  4  1  0  0  0  0
  2 12  2  0  0  0  0
  4 19  1  1  0  0  0
  6  5  1  1  0  0  0
  6  2  1  0  0  0  0
  6  9  1  0  0  0  0
  7  4  1  0  0  0  0
  8  3  1  1  0  0  0
  8  2  1  0  0  0  0
  8 10  1  0  0  0  0
  9 13  2  0  0  0  0
 10 11  2  0  0  0  0
 12 11  1  0  0  0  0
 13 18  1  0  0  0  0
 13  1  1  0  0  0  0
 15 16  2  0  0  0  0
 16  9  1  0  0  0  0
 16 14  1  0  0  0  0
 17 18  1  0  0  0  0
 19 21  1  0  0  0  0
 19 20  1  1  0  0  0
 21 24  1  0  0  0  0
 22 26  1  0  0  0  0
 23 22  2  0  0  0  0
 24 26  2  0  0  0  0
 25 23  1  0  0  0  0
 25 21  2  0  0  0  0
M  END
>  <MODEL>
2

>  <REMARK>
 VINA RESULT:      -5.9      1.776      4.930
  Name = 
  4 active torsions:
  status: ('A' for Active; 'I' for Inactive)
    1  A    between atoms: C_3  and  C_7
    2  A    between atoms: C_6  and  C_7
    3  A    between atoms: O_8  and  C_25
    4  A    between atoms: C_18  and  C_26
                            x       y       z     vdW  Elec       q    Type
                         _______ _______ _______ _____ _____    ______ ____

>  <TORSDO>
F 4

$$$$
=
 OpenBabel10222418273D

 26 29  0  0  1  0  0  0  0  0999 V2000
  190.0620  176.8350  138.4730 C   0  0  1  0  0  0  0  0  0  0  0  0
  191.1670  175.2350  137.0110 C   0  0  0  0  0  0  0  0  0  0  0  0
  192.8740  173.6050  136.9800 O   0  0  0  0  0  1  0  0  0  0  0  0
  190.2070  177.2580  139.8920 C   0  0  1  0  0  3  0  0  0  0  0  0
  189.8380  173.3620  137.6040 O   0  0  0  0  0  1  0  0  0  0  0  0
  189.8670  174.5030  136.7990 C   0  0  1  0  0  3  0  0  0  0  0  0
  190.1820  178.1900  138.8260 O   0  0  0  0  0  0  0  0  0  0  0  0
  192.5060  174.8560  136.4830 C   0  0  2  0  0  3  0  0  0  0  0  0
  188.6380  175.3610  137.0830 C   0  0  0  0  0  0  0  0  0  0  0  0
  193.3680  175.9150  137.1080 C   0  0  0  0  0  3  0  0  0  0  0  0
  192.6460  176.7330  137.8670 C   0  0  0  0  0  3  0  0  0  0  0  0
  191.2680  176.2830  137.7960 C   0  0  0  0  0  0  0  0  0  0  0  0
  188.7330  176.4940  137.8330 C   0  0  0  0  0  0  0  0  0  0  0  0
  186.9940  175.0570  135.2490 O   0  0  0  0  0  0  0  0  0  0  0  0
  186.5810  174.1710  137.3130 O   0  0  0  0  0  1  0  0  0  0  0  0
  187.3460  174.8490  136.5770 C   0  0  0  0  0  0  0  0  0  0  0  0
  187.2530  178.2790  136.9870 C   0  0  0  0  0  1  0  0  0  0  0  0
  187.6590  177.3770  138.0070 O   0  0  0  0  0  0  0  0  0  0  0  0
  188.8920  177.3060  140.6640 C   0  0  2  0  0  3  0  0  0  0  0  0
  188.2040  178.6420  140.4420 C   0  0  0  0  0  1  0  0  0  0  0  0
  189.1090  177.0560  142.1260 C   0  0  0  0  0  0  0  0  0  0  0  0
  189.5760  176.6070  144.8520 C   0  0  0  0  0  3  0  0  0  0  0  0
  188.3070  176.9980  144.4170 C   0  0  0  0  0  3  0  0  0  0  0  0
  190.3780  176.6630  142.5670 C   0  0  0  0  0  3  0  0  0  0  0  0
  188.0730  177.2230  143.0570 C   0  0  0  0  0  3  0  0  0  0  0  0
  190.6110  176.4390  143.9270 C   0  0  0  0  0  3  0  0  0  0  0  0
  1 12  1  6  0  0  0
  1  7  1  0  0  0  0
  1  4  1  0  0  0  0
  2 12  2  0  0  0  0
  4 19  1  1  0  0  0
  6  2  1  0  0  0  0
  6  9  1  0  0  0  0
  6  5  1  1  0  0  0
  7  4  1  0  0  0  0
  8  3  1  1  0  0  0
  8  2  1  0  0  0  0
  8 10  1  0  0  0  0
  9 13  2  0  0  0  0
 10 11  2  0  0  0  0
 12 11  1  0  0  0  0
 13 18  1  0  0  0  0
 13  1  1  0  0  0  0
 14 16  2  0  0  0  0
 16  9  1  0  0  0  0
 16 15  1  0  0  0  0
 17 18  1  0  0  0  0
 19 20  1  1  0  0  0
 19 21  1  0  0  0  0
 21 24  2  0  0  0  0
 21 25  1  0  0  0  0
 23 22  1  0  0  0  0
 24 26  1  0  0  0  0
 25 23  2  0  0  0  0
 26 22  2  0  0  0  0
M  END
>  <MODEL>
3

>  <REMARK>
 VINA RESULT:      -5.4      6.832      9.260
  Name = 
  4 active torsions:
  status: ('A' for Active; 'I' for Inactive)
    1  A    between atoms: C_3  and  C_7
    2  A    between atoms: C_6  and  C_7
    3  A    between atoms: O_8  and  C_25
    4  A    between atoms: C_18  and  C_26
                            x       y       z     vdW  Elec       q    Type
                         _______ _______ _______ _____ _____    ______ ____

>  <TORSDO>
F 4

$$$$
=
 OpenBabel10222418273D

 26 29  0  0  1  0  0  0  0  0999 V2000
  180.8970  178.0510  140.7030 C   0  0  1  0  0  0  0  0  0  0  0  0
  182.1240  176.3980  139.4080 C   0  0  0  0  0  0  0  0  0  0  0  0
  182.2320  175.4100  137.2670 O   0  0  0  0  0  1  0  0  0  0  0  0
  179.7490  178.9640  140.4510 C   0  0  1  0  0  3  0  0  0  0  0  0
  183.6670  177.9090  138.4310 O   0  0  0  0  0  1  0  0  0  0  0  0
  183.4010  177.1770  139.5890 C   0  0  1  0  0  3  0  0  0  0  0  0
  179.7900  178.0950  141.5690 O   0  0  0  0  0  0  0  0  0  0  0  0
  181.9360  175.1570  138.6070 C   0  0  2  0  0  3  0  0  0  0  0  0
  183.3690  178.1140  140.7920 C   0  0  0  0  0  0  0  0  0  0  0  0
  180.4580  174.9410  138.7600 C   0  0  0  0  0  3  0  0  0  0  0  0
  179.9080  175.8990  139.5000 C   0  0  0  0  0  3  0  0  0  0  0  0
  180.9720  176.8060  139.8900 C   0  0  0  0  0  0  0  0  0  0  0  0
  182.1890  178.4920  141.3560 C   0  0  0  0  0  0  0  0  0  0  0  0
  185.2250  179.7530  140.6090 O   0  0  0  0  0  0  0  0  0  0  0  0
  185.2670  178.1550  142.2400 O   0  0  0  0  0  1  0  0  0  0  0  0
  184.6730  178.6480  141.2450 C   0  0  0  0  0  0  0  0  0  0  0  0
  182.2060  178.6380  143.8190 C   0  0  0  0  0  1  0  0  0  0  0  0
  182.1220  179.2420  142.5370 O   0  0  0  0  0  0  0  0  0  0  0  0
  179.9900  180.4040  140.8960 C   0  0  2  0  0  3  0  0  0  0  0  0
  178.9480  180.8170  141.9190 C   0  0  0  0  0  1  0  0  0  0  0  0
  179.9890  181.3420  139.7270 C   0  0  0  0  0  0  0  0  0  0  0  0
  179.9570  183.1380  137.5760 C   0  0  0  0  0  3  0  0  0  0  0  0
  181.0000  182.2160  137.6990 C   0  0  0  0  0  3  0  0  0  0  0  0
  178.9470  182.2670  139.5980 C   0  0  0  0  0  3  0  0  0  0  0  0
  181.0170  181.3190  138.7710 C   0  0  0  0  0  3  0  0  0  0  0  0
  178.9310  183.1630  138.5250 C   0  0  0  0  0  3  0  0  0  0  0  0
  1 12  1  6  0  0  0
  1 13  1  0  0  0  0
  1  7  1  0  0  0  0
  2  6  1  0  0  0  0
  2 12  2  0  0  0  0
  4  1  1  0  0  0  0
  4 19  1  1  0  0  0
  4  7  1  0  0  0  0
  6  5  1  6  0  0  0
  6  9  1  0  0  0  0
  8  3  1  6  0  0  0
  8 10  1  0  0  0  0
  8  2  1  0  0  0  0
  9 16  1  0  0  0  0
  9 13  2  0  0  0  0
 10 11  2  0  0  0  0
 11 12  1  0  0  0  0
 13 18  1  0  0  0  0
 14 16  2  0  0  0  0
 16 15  1  0  0  0  0
 18 17  1  0  0  0  0
 19 20  1  1  0  0  0
 21 19  1  0  0  0  0
 22 23  2  0  0  0  0
 22 26  1  0  0  0  0
 23 25  1  0  0  0  0
 24 21  1  0  0  0  0
 25 21  2  0  0  0  0
 26 24  2  0  0  0  0
M  END
>  <MODEL>
4

>  <REMARK>
 VINA RESULT:      -5.3      1.926      5.572
  Name = 
  4 active torsions:
  status: ('A' for Active; 'I' for Inactive)
    1  A    between atoms: C_3  and  C_7
    2  A    between atoms: C_6  and  C_7
    3  A    between atoms: O_8  and  C_25
    4  A    between atoms: C_18  and  C_26
                            x       y       z     vdW  Elec       q    Type
                         _______ _______ _______ _____ _____    ______ ____

>  <TORSDO>
F 4

$$$$
=
 OpenBabel10222418273D

 26 29  0  0  1  0  0  0  0  0999 V2000
  184.6940  178.3500  139.6720 C   0  0  1  0  0  0  0  0  0  0  0  0
  184.8410  177.1880  137.5390 C   0  0  0  0  0  0  0  0  0  0  0  0
  186.3000  175.8800  136.2240 O   0  0  0  0  0  1  0  0  0  0  0  0
  185.6030  178.5720  140.8280 C   0  0  1  0  0  3  0  0  0  0  0  0
  184.1810  175.0580  138.3440 O   0  0  0  0  0  1  0  0  0  0  0  0
  183.6900  176.2960  137.9240 C   0  0  1  0  0  3  0  0  0  0  0  0
  184.9290  179.6380  140.1830 O   0  0  0  0  0  0  0  0  0  0  0  0
  185.6550  177.1150  136.2950 C   0  0  2  0  0  3  0  0  0  0  0  0
  182.8050  176.8920  139.0150 C   0  0  0  0  0  0  0  0  0  0  0  0
  186.6680  178.1930  136.5540 C   0  0  0  0  0  3  0  0  0  0  0  0
  186.4710  178.7610  137.7410 C   0  0  0  0  0  3  0  0  0  0  0  0
  185.3230  178.1090  138.3440 C   0  0  0  0  0  0  0  0  0  0  0  0
  183.2560  177.8990  139.8130 C   0  0  0  0  0  0  0  0  0  0  0  0
  180.4150  176.6310  138.3960 O   0  0  0  0  0  0  0  0  0  0  0  0
  181.3150  175.3410  140.0520 O   0  0  0  0  0  1  0  0  0  0  0  0
  181.4810  176.2590  139.2060 C   0  0  0  0  0  0  0  0  0  0  0  0
  181.4000  179.4430  140.3220 C   0  0  0  0  0  1  0  0  0  0  0  0
  182.4340  178.5600  140.7330 O   0  0  0  0  0  0  0  0  0  0  0  0
  184.9640  178.2900  142.1850 C   0  0  2  0  0  3  0  0  0  0  0  0
  184.1960  179.5090  142.6640 C   0  0  0  0  0  1  0  0  0  0  0  0
  185.9920  177.8780  143.1950 C   0  0  0  0  0  0  0  0  0  0  0  0
  187.9580  177.1280  145.0460 C   0  0  0  0  0  3  0  0  0  0  0  0
  186.6880  177.5040  145.4910 C   0  0  0  0  0  3  0  0  0  0  0  0
  187.2650  177.4990  142.7540 C   0  0  0  0  0  3  0  0  0  0  0  0
  185.7060  177.8780  144.5700 C   0  0  0  0  0  3  0  0  0  0  0  0
  188.2470  177.1250  143.6780 C   0  0  0  0  0  3  0  0  0  0  0  0
  1 12  1  6  0  0  0
  1 13  1  0  0  0  0
  1  7  1  0  0  0  0
  1  4  1  0  0  0  0
  2  6  1  0  0  0  0
  2 12  2  0  0  0  0
  4 19  1  1  0  0  0
  6  5  1  1  0  0  0
  6  9  1  0  0  0  0
  7  4  1  0  0  0  0
  8  3  1  1  0  0  0
  8 10  1  0  0  0  0
  8  2  1  0  0  0  0
  9 16  1  0  0  0  0
  9 13  2  0  0  0  0
 10 11  2  0  0  0  0
 11 12  1  0  0  0  0
 13 18  1  0  0  0  0
 14 16  2  0  0  0  0
 16 15  1  0  0  0  0
 17 18  1  0  0  0  0
 19 20  1  1  0  0  0
 19 21  1  0  0  0  0
 21 25  1  0  0  0  0
 22 23  1  0  0  0  0
 24 21  2  0  0  0  0
 24 26  1  0  0  0  0
 25 23  2  0  0  0  0
 26 22  2  0  0  0  0
M  END
>  <MODEL>
5

>  <REMARK>
 VINA RESULT:      -5.2      2.471      4.789
  Name = 
  4 active torsions:
  status: ('A' for Active; 'I' for Inactive)
    1  A    between atoms: C_3  and  C_7
    2  A    between atoms: C_6  and  C_7
    3  A    between atoms: O_8  and  C_25
    4  A    between atoms: C_18  and  C_26
                            x       y       z     vdW  Elec       q    Type
                         _______ _______ _______ _____ _____    ______ ____

>  <TORSDO>
F 4

$$$$
=
 OpenBabel10222418273D

 26 29  0  0  1  0  0  0  0  0999 V2000
  182.7940  177.7230  137.5730 C   0  0  1  0  0  0  0  0  0  0  0  0
  185.1350  177.8990  138.2110 C   0  0  0  0  0  0  0  0  0  0  0  0
  187.1760  178.8910  137.5630 O   0  0  0  0  0  1  0  0  0  0  0  0
  181.9500  178.2480  136.4660 C   0  0  1  0  0  3  0  0  0  0  0  0
  184.9280  179.9080  139.4530 O   0  0  0  0  0  1  0  0  0  0  0  0
  184.7490  178.5250  139.5260 C   0  0  1  0  0  3  0  0  0  0  0  0
  181.9770  176.8730  136.8070 O   0  0  0  0  0  0  0  0  0  0  0  0
  186.5130  177.6700  137.6980 C   0  0  2  0  0  3  0  0  0  0  0  0
  183.3140  178.2160  139.9420 C   0  0  0  0  0  0  0  0  0  0  0  0
  186.2190  177.1090  136.3360 C   0  0  0  0  0  3  0  0  0  0  0  0
  184.9090  177.0490  136.1150 C   0  0  0  0  0  3  0  0  0  0  0  0
  184.2490  177.5560  137.3040 C   0  0  0  0  0  0  0  0  0  0  0  0
  182.3960  177.7870  139.0320 C   0  0  0  0  0  0  0  0  0  0  0  0
  183.8970  178.2480  142.3540 O   0  0  0  0  0  1  0  0  0  0  0  0
  181.8550  179.0000  141.6620 O   0  0  0  0  0  0  0  0  0  0  0  0
  182.9650  178.4900  141.3540 C   0  0  0  0  0  0  0  0  0  0  0  0
  180.8410  176.0390  139.8160 C   0  0  0  0  0  1  0  0  0  0  0  0
  181.1100  177.3690  139.3950 O   0  0  0  0  0  0  0  0  0  0  0  0
  180.6390  178.8790  136.9290 C   0  0  2  0  0  3  0  0  0  0  0  0
  179.4870  178.3750  136.0780 C   0  0  0  0  0  1  0  0  0  0  0  0
  180.7140  180.3750  136.8920 C   0  0  0  0  0  0  0  0  0  0  0  0
  180.8060  183.1740  136.7810 C   0  0  0  0  0  3  0  0  0  0  0  0
  181.1390  182.5120  137.9660 C   0  0  0  0  0  3  0  0  0  0  0  0
  180.3820  181.0440  135.7080 C   0  0  0  0  0  3  0  0  0  0  0  0
  181.0940  181.1160  138.0230 C   0  0  0  0  0  3  0  0  0  0  0  0
  180.4280  182.4410  135.6520 C   0  0  0  0  0  3  0  0  0  0  0  0
  1  7  1  6  0  0  0
  1 13  1  0  0  0  0
  2  6  1  0  0  0  0
  4  7  1  0  0  0  0
  4 19  1  1  0  0  0
  4  1  1  0  0  0  0
  6  5  1  6  0  0  0
  6  9  1  0  0  0  0
  8  3  1  6  0  0  0
  8  2  1  0  0  0  0
  9 16  1  0  0  0  0
 10  8  1  0  0  0  0
 11 10  2  0  0  0  0
 11 12  1  0  0  0  0
 12  1  1  0  0  0  0
 12  2  2  0  0  0  0
 13 18  1  0  0  0  0
 13  9  2  0  0  0  0
 16 15  2  0  0  0  0
 16 14  1  0  0  0  0
 18 17  1  0  0  0  0
 19 20  1  6  0  0  0
 21 19  1  0  0  0  0
 21 25  1  0  0  0  0
 22 23  1  0  0  0  0
 23 25  2  0  0  0  0
 24 21  2  0  0  0  0
 26 24  1  0  0  0  0
 26 22  2  0  0  0  0
M  END
>  <MODEL>
6

>  <REMARK>
 VINA RESULT:      -5.2      2.881      6.460
  Name = 
  4 active torsions:
  status: ('A' for Active; 'I' for Inactive)
    1  A    between atoms: C_3  and  C_7
    2  A    between atoms: C_6  and  C_7
    3  A    between atoms: O_8  and  C_25
    4  A    between atoms: C_18  and  C_26
                            x       y       z     vdW  Elec       q    Type
                         _______ _______ _______ _____ _____    ______ ____

>  <TORSDO>
F 4

$$$$
=
 OpenBabel10222418273D

 26 29  0  0  1  0  0  0  0  0999 V2000
  188.2810  177.9970  139.9610 C   0  0  1  0  0  0  0  0  0  0  0  0
  187.2430  178.0960  142.1590 C   0  0  0  0  0  0  0  0  0  0  0  0
  185.2780  177.5030  143.3230 O   0  0  0  0  0  1  0  0  0  0  0  0
  187.8880  177.4880  138.6200 C   0  0  1  0  0  3  0  0  0  0  0  0
  187.9310  175.9450  142.8820 O   0  0  0  0  0  1  0  0  0  0  0  0
  188.3580  177.2670  142.7430 C   0  0  1  0  0  3  0  0  0  0  0  0
  188.3830  178.8000  138.8120 O   0  0  0  0  0  0  0  0  0  0  0  0
  186.0270  178.5860  142.8630 C   0  0  2  0  0  3  0  0  0  0  0  0
  189.6370  177.3080  141.9140 C   0  0  0  0  0  0  0  0  0  0  0  0
  185.2960  179.2560  141.7350 C   0  0  0  0  0  3  0  0  0  0  0  0
  185.9720  179.1460  140.5940 C   0  0  0  0  0  3  0  0  0  0  0  0
  187.1880  178.4080  140.8840 C   0  0  0  0  0  0  0  0  0  0  0  0
  189.6160  177.7010  140.6100 C   0  0  0  0  0  0  0  0  0  0  0  0
  191.8600  177.7200  142.9380 O   0  0  0  0  0  1  0  0  0  0  0  0
  191.0050  175.6030  142.8760 O   0  0  0  0  0  0  0  0  0  0  0  0
  190.8670  176.8190  142.5760 C   0  0  0  0  0  0  0  0  0  0  0  0
  191.6640  176.8010  139.5680 C   0  0  0  0  0  1  0  0  0  0  0  0
  190.7820  177.8770  139.8550 O   0  0  0  0  0  0  0  0  0  0  0  0
  188.9480  176.6180  137.9490 C   0  0  2  0  0  3  0  0  0  0  0  0
  189.6130  177.3830  136.8190 C   0  0  0  0  0  1  0  0  0  0  0  0
  188.3610  175.3330  137.4490 C   0  0  0  0  0  0  0  0  0  0  0  0
  187.3080  172.8990  136.5430 C   0  0  0  0  0  3  0  0  0  0  0  0
  186.4580  173.9850  136.7700 C   0  0  0  0  0  3  0  0  0  0  0  0
  189.2070  174.2430  137.2190 C   0  0  0  0  0  3  0  0  0  0  0  0
  186.9810  175.2000  137.2220 C   0  0  0  0  0  3  0  0  0  0  0  0
  188.6820  173.0280  136.7660 C   0  0  0  0  0  3  0  0  0  0  0  0
  1  7  1  6  0  0  0
  1 13  1  0  0  0  0
  1 12  1  0  0  0  0
  2  6  1  0  0  0  0
  2  8  1  0  0  0  0
  4 19  1  6  0  0  0
  4  7  1  0  0  0  0
  4  1  1  0  0  0  0
  6  5  1  6  0  0  0
  8  3  1  6  0  0  0
  9 16  1  0  0  0  0
  9  6  1  0  0  0  0
 10  8  1  0  0  0  0
 11 12  1  0  0  0  0
 11 10  2  0  0  0  0
 12  2  2  0  0  0  0
 13  9  2  0  0  0  0
 16 15  2  0  0  0  0
 16 14  1  0  0  0  0
 17 18  1  0  0  0  0
 18 13  1  0  0  0  0
 19 20  1  6  0  0  0
 21 19  1  0  0  0  0
 22 26  2  0  0  0  0
 22 23  1  0  0  0  0
 23 25  2  0  0  0  0
 24 21  2  0  0  0  0
 25 21  1  0  0  0  0
 26 24  1  0  0  0  0
M  END
>  <MODEL>
7

>  <REMARK>
 VINA RESULT:      -5.1      5.411      8.669
  Name = 
  4 active torsions:
  status: ('A' for Active; 'I' for Inactive)
    1  A    between atoms: C_3  and  C_7
    2  A    between atoms: C_6  and  C_7
    3  A    between atoms: O_8  and  C_25
    4  A    between atoms: C_18  and  C_26
                            x       y       z     vdW  Elec       q    Type
                         _______ _______ _______ _____ _____    ______ ____

>  <TORSDO>
F 4

$$$$
=
 OpenBabel10222418273D

 26 29  0  0  1  0  0  0  0  0999 V2000
  186.9070  178.1050  139.2480 C   0  0  1  0  0  0  0  0  0  0  0  0
  187.2150  178.2620  141.6560 C   0  0  0  0  0  0  0  0  0  0  0  0
  186.2300  177.6390  143.7080 O   0  0  0  0  0  1  0  0  0  0  0  0
  185.8840  177.5160  138.3420 C   0  0  1  0  0  3  0  0  0  0  0  0
  188.3160  176.1800  141.9260 O   0  0  0  0  0  1  0  0  0  0  0  0
  188.5170  177.5110  141.5570 C   0  0  1  0  0  3  0  0  0  0  0  0
  186.3230  178.8570  138.2140 O   0  0  0  0  0  0  0  0  0  0  0  0
  186.5430  178.7320  142.8990 C   0  0  2  0  0  3  0  0  0  0  0  0
  189.1420  177.5680  140.1660 C   0  0  0  0  0  0  0  0  0  0  0  0
  185.2790  179.3140  142.3350 C   0  0  0  0  0  3  0  0  0  0  0  0
  185.2380  179.1810  141.0120 C   0  0  0  0  0  3  0  0  0  0  0  0
  186.4610  178.5110  140.6100 C   0  0  0  0  0  0  0  0  0  0  0  0
  188.3960  177.8980  139.0750 C   0  0  0  0  0  0  0  0  0  0  0  0
  190.9050  176.0200  139.3580 O   0  0  0  0  0  0  0  0  0  0  0  0
  191.4770  177.8770  140.5590 O   0  0  0  0  0  1  0  0  0  0  0  0
  190.5620  177.1650  140.0650 C   0  0  0  0  0  0  0  0  0  0  0  0
  189.0680  179.3780  137.2190 C   0  0  0  0  0  1  0  0  0  0  0  0
  188.9570  178.0890  137.8070 O   0  0  0  0  0  0  0  0  0  0  0  0
  186.4660  176.6630  137.2180 C   0  0  2  0  0  3  0  0  0  0  0  0
  186.2440  177.3410  135.8780 C   0  0  0  0  0  1  0  0  0  0  0  0
  185.8780  175.2840  137.2210 C   0  0  0  0  0  0  0  0  0  0  0  0
  184.8290  172.6860  137.2580 C   0  0  0  0  0  3  0  0  0  0  0  0
  183.9670  173.7860  137.2660 C   0  0  0  0  0  3  0  0  0  0  0  0
  186.7360  174.1790  137.2120 C   0  0  0  0  0  3  0  0  0  0  0  0
  184.4890  175.0830  137.2480 C   0  0  0  0  0  3  0  0  0  0  0  0
  186.2130  172.8820  137.2310 C   0  0  0  0  0  3  0  0  0  0  0  0
  1  7  1  6  0  0  0
  1 12  1  0  0  0  0
  2  8  1  0  0  0  0
  4 19  1  6  0  0  0
  4  1  1  0  0  0  0
  6  2  1  0  0  0  0
  6  5  1  6  0  0  0
  7  4  1  0  0  0  0
  8  3  1  1  0  0  0
  9  6  1  0  0  0  0
 10  8  1  0  0  0  0
 11 10  2  0  0  0  0
 12 11  1  0  0  0  0
 12  2  2  0  0  0  0
 13  1  1  0  0  0  0
 13  9  2  0  0  0  0
 14 16  2  0  0  0  0
 16  9  1  0  0  0  0
 16 15  1  0  0  0  0
 17 18  1  0  0  0  0
 18 13  1  0  0  0  0
 19 20  1  6  0  0  0
 19 21  1  0  0  0  0
 21 25  1  0  0  0  0
 22 23  1  0  0  0  0
 24 21  2  0  0  0  0
 24 26  1  0  0  0  0
 25 23  2  0  0  0  0
 26 22  2  0  0  0  0
M  END
>  <MODEL>
8

>  <REMARK>
 VINA RESULT:      -5.0      4.695      8.076
  Name = 
  4 active torsions:
  status: ('A' for Active; 'I' for Inactive)
    1  A    between atoms: C_3  and  C_7
    2  A    between atoms: C_6  and  C_7
    3  A    between atoms: O_8  and  C_25
    4  A    between atoms: C_18  and  C_26
                            x       y       z     vdW  Elec       q    Type
                         _______ _______ _______ _____ _____    ______ ____

>  <TORSDO>
F 4

$$$$
=
 OpenBabel10222418273D

 26 29  0  0  1  0  0  0  0  0999 V2000
  185.1240  178.1200  138.2130 C   0  0  1  0  0  0  0  0  0  0  0  0
  186.5320  176.8320  136.7040 C   0  0  0  0  0  0  0  0  0  0  0  0
  188.6670  175.8400  136.5340 O   0  0  0  0  0  1  0  0  0  0  0  0
  185.2720  178.6960  139.5760 C   0  0  1  0  0  3  0  0  0  0  0  0
  185.9660  174.6950  137.5610 O   0  0  0  0  0  1  0  0  0  0  0  0
  185.5310  175.7060  136.7020 C   0  0  1  0  0  3  0  0  0  0  0  0
  184.8280  179.4690  138.4760 O   0  0  0  0  0  0  0  0  0  0  0  0
  187.8570  176.8560  136.0250 C   0  0  2  0  0  3  0  0  0  0  0  0
  184.1260  176.1470  137.1000 C   0  0  0  0  0  0  0  0  0  0  0  0
  188.3830  178.1880  136.4770 C   0  0  0  0  0  3  0  0  0  0  0  0
  187.5160  178.7980  137.2810 C   0  0  0  0  0  3  0  0  0  0  0  0
  186.3650  177.9250  137.4140 C   0  0  0  0  0  0  0  0  0  0  0  0
  183.9210  177.3140  137.7710 C   0  0  0  0  0  0  0  0  0  0  0  0
  182.4020  174.5160  137.8260 O   0  0  0  0  0  1  0  0  0  0  0  0
  182.6070  175.0560  135.6160 O   0  0  0  0  0  0  0  0  0  0  0  0
  183.0280  175.2030  136.7940 C   0  0  0  0  0  0  0  0  0  0  0  0
  181.8490  178.4320  137.0310 C   0  0  0  0  0  1  0  0  0  0  0  0
  182.6420  177.8180  138.0370 O   0  0  0  0  0  0  0  0  0  0  0  0
  184.1050  178.3900  140.5110 C   0  0  2  0  0  3  0  0  0  0  0  0
  182.9950  179.4070  140.3110 C   0  0  0  0  0  1  0  0  0  0  0  0
  184.5470  178.3610  141.9420 C   0  0  0  0  0  0  0  0  0  0  0  0
  185.4320  178.3200  144.6010 C   0  0  0  0  0  3  0  0  0  0  0  0
  184.1090  178.6670  144.3110 C   0  0  0  0  0  3  0  0  0  0  0  0
  185.8700  178.0140  142.2390 C   0  0  0  0  0  3  0  0  0  0  0  0
  183.6660  178.6870  142.9860 C   0  0  0  0  0  3  0  0  0  0  0  0
  186.3120  177.9930  143.5650 C   0  0  0  0  0  3  0  0  0  0  0  0
  1 12  1  6  0  0  0
  1  7  1  0  0  0  0
  1  4  1  0  0  0  0
  2 12  2  0  0  0  0
  4 19  1  1  0  0  0
  6  2  1  0  0  0  0
  6  9  1  0  0  0  0
  6  5  1  1  0  0  0
  7  4  1  0  0  0  0
  8 10  1  0  0  0  0
  8  3  1  1  0  0  0
  8  2  1  0  0  0  0
  9 13  2  0  0  0  0
 10 11  2  0  0  0  0
 11 12  1  0  0  0  0
 13 18  1  0  0  0  0
 13  1  1  0  0  0  0
 15 16  2  0  0  0  0
 16  9  1  0  0  0  0
 16 14  1  0  0  0  0
 17 18  1  0  0  0  0
 19 20  1  1  0  0  0
 19 21  1  0  0  0  0
 21 24  2  0  0  0  0
 21 25  1  0  0  0  0
 23 22  1  0  0  0  0
 24 26  1  0  0  0  0
 25 23  2  0  0  0  0
 26 22  2  0  0  0  0
M  END
>  <MODEL>
9

>  <REMARK>
 VINA RESULT:      -4.8      3.256      5.909
  Name = 
  4 active torsions:
  status: ('A' for Active; 'I' for Inactive)
    1  A    between atoms: C_3  and  C_7
    2  A    between atoms: C_6  and  C_7
    3  A    between atoms: O_8  and  C_25
    4  A    between atoms: C_18  and  C_26
                            x       y       z     vdW  Elec       q    Type
                         _______ _______ _______ _____ _____    ______ ____

>  <TORSDO>
F 4

$$$$
