=
 OpenBabel10222417333D

 57 63  0  0  1  0  0  0  0  0999 V2000
  189.5720  178.0100  139.9650 C   0  0  0  0  0  2  0  0  0  0  0  0
  187.5440  177.1310  146.4880 C   0  0  0  0  0  0  0  0  0  0  0  0
  187.0720  178.0830  140.1700 C   0  0  0  0  0  2  0  0  0  0  0  0
  188.2810  177.3950  145.2260 C   0  0  1  0  0  3  0  0  0  0  0  0
  188.6920  176.2710  142.1060 C   0  0  0  0  0  2  0  0  0  0  0  0
  190.3550  176.7960  140.4150 C   0  0  0  0  0  0  0  0  0  0  0  0
  191.6130  176.5030  139.8020 N   0  0  0  0  0  2  0  0  0  0  0  0
  185.8570  177.9570  145.1580 C   0  0  1  0  0  3  0  0  0  0  0  0
  189.9520  176.0520  141.4020 N   0  0  0  0  0  0  0  0  0  0  0  0
  188.1450  176.9640  147.6250 N   0  0  0  0  0  0  0  0  0  0  0  0
  187.1530  177.9310  144.3790 C   0  0  0  0  0  0  0  0  0  0  0  0
  185.9850  178.2650  142.3390 O   0  0  0  0  0  0  0  0  0  0  0  0
  189.4320  178.3630  145.5610 C   0  0  1  0  0  3  0  0  0  0  0  0
  190.2100  177.8140  146.7330 C   0  0  0  0  0  3  0  0  0  0  0  0
  187.1810  178.0230  143.0360 C   0  0  0  0  0  0  0  0  0  0  0  0
  186.1770  177.2870  146.3700 O   0  0  0  0  0  0  0  0  0  0  0  0
  185.9480  178.7040  140.9810 C   0  0  0  0  0  2  0  0  0  0  0  0
  189.5650  177.1660  147.7130 C   0  0  0  0  0  3  0  0  0  0  0  0
  188.4480  177.7670  142.2570 C   0  0  2  0  0  3  0  0  0  0  0  0
  188.3900  178.4070  140.8620 C   0  0  1  0  0  3  0  0  0  0  0  0
  190.3870  178.5410  144.3980 C   0  0  0  0  0  1  0  0  0  0  0  0
  185.4600  179.3940  145.5000 C   0  0  0  0  0  2  0  0  0  0  0  0
  184.2860  179.8970  144.6770 C   0  0  0  0  0  2  0  0  0  0  0  0
  183.1400  178.9050  144.7210 C   0  0  0  0  0  2  0  0  0  0  0  0
  182.3150  179.0380  143.4550 C   0  0  0  0  0  2  0  0  0  0  0  0
  180.8840  178.6120  143.7350 C   0  0  0  0  0  2  0  0  0  0  0  0
  180.6060  179.2170  140.2320 C   0  0  1  0  0  3  0  0  0  0  0  0
  180.0110  180.2770  142.1350 C   0  0  0  0  0  2  0  0  0  0  0  0
  180.0180  178.8180  142.5040 C   0  0  1  0  0  3  0  0  0  0  0  0
  180.6520  178.1640  141.3170 C   0  0  1  0  0  3  0  0  0  0  0  0
  179.6840  176.7130  140.8100 S   0  0  0  0  0  1  0  0  0  0  0  0
  180.0220  180.3940  140.7350 O   0  0  0  0  0  0  0  0  0  0  0  0
  182.0170  179.4990  139.7400 C   0  0  0  0  0  2  0  0  0  0  0  0
  181.8530  177.5530  136.5630 C   0  0  0  0  0  2  0  0  0  0  0  0
  180.9400  179.9500  137.7350 C   0  0  0  0  0  2  0  0  0  0  0  0
  180.8260  179.6520  136.2450 C   0  0  0  0  0  2  0  0  0  0  0  0
  180.6590  178.2160  136.0540 N   0  0  0  0  0  2  0  0  0  0  0  0
  182.0150  177.8230  138.0600 C   0  0  2  0  0  3  0  0  0  0  0  0
  182.1080  179.2740  138.3050 N   0  0  0  0  0  0  0  0  0  0  0  0
  182.9820  176.0890  139.3930 O   0  0  0  0  0  1  0  0  0  0  0  0
  183.2900  177.1190  138.5070 C   0  0  0  0  0  2  0  0  0  0  0  0
  192.1090  177.2640  138.6720 C   0  0  0  0  0  2  0  0  0  0  0  0
  193.5290  176.8330  138.3530 C   0  0  0  0  0  2  0  0  0  0  0  0
  194.3250  176.5120  136.0640 N   0  0  0  0  0  1  0  0  0  0  0  0
  193.5260  175.9260  137.1320 C   0  0  2  0  0  3  0  0  0  0  0  0
  192.0950  175.6520  136.6690 C   0  0  2  0  0  3  0  0  0  0  0  0
  192.4540  173.2060  136.1720 N   0  0  0  0  0  1  0  0  0  0  0  0
  190.7820  173.8890  137.6270 O   0  0  0  0  0  0  0  0  0  0  0  0
  191.7300  174.2140  136.8650 C   0  0  0  0  0  0  0  0  0  0  0  0
  191.9070  176.0370  135.3310 O   0  0  0  0  0  0  0  0  0  0  0  0
  190.6360  175.7800  135.0750 O   0  0  0  0  0  0  0  0  0  0  0  0
  189.9300  176.8250  135.6810 C   0  0  0  0  0  2  0  0  0  0  0  0
  187.8550  177.8880  135.8740 C   0  0  0  0  0  2  0  0  0  0  0  0
  186.5760  177.4590  136.5440 C   0  0  0  0  0  2  0  0  0  0  0  0
  188.0080  175.5790  136.1920 C   0  0  0  0  0  2  0  0  0  0  0  0
  188.5130  176.6860  135.3850 N   0  0  0  0  0  0  0  0  0  0  0  0
  186.8990  176.0970  137.0860 C   0  0  0  0  0  2  0  0  0  0  0  0
  1  6  1  0  0  0  0
  2 10  2  0  0  0  0
  3 20  1  0  0  0  0
  3 17  1  0  0  0  0
  4 11  1  6  0  0  0
  4 13  1  0  0  0  0
  4  2  1  0  0  0  0
  6  9  2  0  0  0  0
  7  6  1  0  0  0  0
  8 22  1  1  0  0  0
  8 16  1  0  0  0  0
  9  5  1  0  0  0  0
 10 18  1  0  0  0  0
 11  8  1  0  0  0  0
 12 15  1  0  0  0  0
 13 21  1  6  0  0  0
 13 14  1  0  0  0  0
 14 18  2  0  0  0  0
 15 11  2  0  0  0  0
 16  2  1  0  0  0  0
 17 12  1  0  0  0  0
 19  5  1  6  0  0  0
 19 15  1  0  0  0  0
 20  1  1  6  0  0  0
 20 19  1  0  0  0  0
 23 24  1  0  0  0  0
 23 22  1  0  0  0  0
 25 26  1  0  0  0  0
 25 24  1  0  0  0  0
 27 33  1  1  0  0  0
 27 32  1  0  0  0  0
 27 30  1  0  0  0  0
 28 29  1  0  0  0  0
 29 26  1  1  0  0  0
 30 31  1  6  0  0  0
 30 29  1  0  0  0  0
 32 28  1  0  0  0  0
 34 38  1  0  0  0  0
 35 39  1  0  0  0  0
 36 35  1  0  0  0  0
 37 36  1  0  0  0  0
 37 34  1  0  0  0  0
 38 39  1  0  0  0  0
 38 41  1  6  0  0  0
 39 33  1  0  0  0  0
 41 40  1  0  0  0  0
 42  7  1  0  0  0  0
 43 42  1  0  0  0  0
 45 44  1  6  0  0  0
 45 43  1  0  0  0  0
 46 50  1  6  0  0  0
 46 49  1  0  0  0  0
 46 45  1  0  0  0  0
 47 49  1  0  0  0  0
 49 48  2  0  0  0  0
 51 50  1  0  0  0  0
 51 52  1  0  0  0  0
 53 54  1  0  0  0  0
 54 57  1  0  0  0  0
 55 57  1  0  0  0  0
 56 52  1  0  0  0  0
 56 53  1  0  0  0  0
 56 55  1  0  0  0  0
M  END
>  <MODEL>
1

>  <REMARK>
 VINA RESULT:      -7.3      0.000      0.000
  Name = 
  18 active torsions:
  status: ('A' for Active; 'I' for Inactive)
    1  A    between atoms: C_6  and  C_28
    2  A    between atoms: C_10  and  C_14
    3  A    between atoms: C_10  and  C_24
    4  A    between atoms: C_12  and  C_18
    5  A    between atoms: C_12  and  C_20
    6  A    between atoms: C_14  and  C_53
    7  A    between atoms: O_15  and  O_19
    8  A    between atoms: O_15  and  C_23
    9  A    between atoms: C_18  and  C_23
   10  A    between atoms: O_19  and  C_42
   11  A    between atoms: C_20  and  N_30
   12  A    between atoms: C_22  and  C_57
   13  A    between atoms: C_23  and  C_56
   14  A    between atoms: C_24  and  C_57
   15  A    between atoms: C_28  and  N_38
   16  A    between atoms: C_31  and  C_53
   17  A    between atoms: C_35  and  C_41
   18  A    between atoms: C_42  and  N_49
                            x       y       z     vdW  Elec       q    Type
                         _______ _______ _______ _____ _____    ______ ____

>  <TORSDO>
F 18

$$$$
=
 OpenBabel10222417333D

 57 63  0  0  1  0  0  0  0  0999 V2000
  189.3510  176.6300  137.2090 C   0  0  0  0  0  2  0  0  0  0  0  0
  182.9350  178.7960  138.4660 C   0  0  0  0  0  0  0  0  0  0  0  0
  189.2480  178.0550  139.2710 C   0  0  0  0  0  2  0  0  0  0  0  0
  184.1600  178.0970  138.0000 C   0  0  1  0  0  3  0  0  0  0  0  0
  187.2820  178.6360  136.9360 C   0  0  0  0  0  2  0  0  0  0  0  0
  188.8930  177.1640  135.8690 C   0  0  0  0  0  0  0  0  0  0  0  0
  189.4590  176.6330  134.6680 N   0  0  0  0  0  2  0  0  0  0  0  0
  184.3180  179.0730  140.2850 C   0  0  1  0  0  3  0  0  0  0  0  0
  187.9380  178.0410  135.7750 N   0  0  0  0  0  0  0  0  0  0  0  0
  181.7770  178.6210  137.9080 N   0  0  0  0  0  0  0  0  0  0  0  0
  185.0430  178.2970  139.2080 C   0  0  0  0  0  0  0  0  0  0  0  0
  187.1220  178.6360  140.3020 O   0  0  0  0  0  0  0  0  0  0  0  0
  183.7590  176.6500  137.6520 C   0  0  1  0  0  3  0  0  0  0  0  0
  182.5670  176.6810  136.7260 C   0  0  0  0  0  3  0  0  0  0  0  0
  186.3820  178.1530  139.2100 C   0  0  0  0  0  0  0  0  0  0  0  0
  183.1070  179.4720  139.6570 O   0  0  0  0  0  0  0  0  0  0  0  0
  188.4720  178.2500  140.5620 C   0  0  0  0  0  2  0  0  0  0  0  0
  181.6270  177.6220  136.8840 C   0  0  0  0  0  3  0  0  0  0  0  0
  187.1120  177.5810  138.0210 C   0  0  2  0  0  3  0  0  0  0  0  0
  188.4960  177.0430  138.4150 C   0  0  1  0  0  3  0  0  0  0  0  0
  184.8790  175.8970  136.9620 C   0  0  0  0  0  1  0  0  0  0  0  0
  183.9650  178.1620  141.4620 C   0  0  0  0  0  2  0  0  0  0  0  0
  183.3850  178.9190  142.6450 C   0  0  0  0  0  2  0  0  0  0  0  0
  184.4920  179.4290  143.5460 C   0  0  0  0  0  2  0  0  0  0  0  0
  184.2460  178.9480  144.9640 C   0  0  0  0  0  2  0  0  0  0  0  0
  185.5000  179.1540  145.7950 C   0  0  0  0  0  2  0  0  0  0  0  0
  188.5550  177.3160  145.6950 C   0  0  1  0  0  3  0  0  0  0  0  0
  186.5750  177.2770  144.6070 C   0  0  0  0  0  2  0  0  0  0  0  0
  186.2480  177.8420  145.9620 C   0  0  1  0  0  3  0  0  0  0  0  0
  187.5940  178.0940  146.5670 C   0  0  1  0  0  3  0  0  0  0  0  0
  187.6460  177.4530  148.2660 S   0  0  0  0  0  1  0  0  0  0  0  0
  187.8480  176.6830  144.6560 O   0  0  0  0  0  0  0  0  0  0  0  0
  189.5970  178.2630  145.1210 C   0  0  0  0  0  2  0  0  0  0  0  0
  192.1830  175.6250  145.6380 C   0  0  0  0  0  2  0  0  0  0  0  0
  190.6910  176.8890  143.6050 C   0  0  0  0  0  2  0  0  0  0  0  0
  191.8810  175.9780  143.3260 C   0  0  0  0  0  2  0  0  0  0  0  0
  191.9560  174.9560  144.3620 N   0  0  0  0  0  2  0  0  0  0  0  0
  191.0130  176.5560  145.9650 C   0  0  2  0  0  3  0  0  0  0  0  0
  190.8520  177.5600  144.8970 N   0  0  0  0  0  0  0  0  0  0  0  0
  192.3520  176.5380  147.9470 O   0  0  0  0  0  1  0  0  0  0  0  0
  191.3350  177.2290  147.2930 C   0  0  0  0  0  2  0  0  0  0  0  0
  190.5520  175.6810  134.6940 C   0  0  0  0  0  2  0  0  0  0  0  0
  191.8720  176.4250  134.7790 C   0  0  0  0  0  2  0  0  0  0  0  0
  192.4000  174.3500  135.9570 N   0  0  0  0  0  1  0  0  0  0  0  0
  192.9700  175.4720  135.2240 C   0  0  2  0  0  3  0  0  0  0  0  0
  194.0160  176.2090  136.0600 C   0  0  2  0  0  3  0  0  0  0  0  0
  196.2960  177.1100  135.4690 N   0  0  0  0  0  1  0  0  0  0  0  0
  195.7480  174.8960  135.0470 O   0  0  0  0  0  0  0  0  0  0  0  0
  195.3900  176.0150  135.5010 C   0  0  0  0  0  0  0  0  0  0  0  0
  193.9660  175.8150  137.4080 O   0  0  0  0  0  0  0  0  0  0  0  0
  195.0860  175.1460  137.6130 O   0  0  0  0  0  0  0  0  0  0  0  0
  194.9180  174.5390  138.8620 C   0  0  0  0  0  2  0  0  0  0  0  0
  196.8230  175.1130  140.0920 C   0  0  0  0  0  2  0  0  0  0  0  0
  198.2810  175.1440  139.7120 C   0  0  0  0  0  2  0  0  0  0  0  0
  197.0390  173.8210  138.1580 C   0  0  0  0  0  2  0  0  0  0  0  0
  196.2010  174.0390  139.3330 N   0  0  0  0  0  0  0  0  0  0  0  0
  198.2860  174.6720  138.2870 C   0  0  0  0  0  2  0  0  0  0  0  0
  2 16  1  0  0  0  0
  3 17  1  0  0  0  0
  4  2  1  1  0  0  0
  4 11  1  0  0  0  0
  6  1  1  0  0  0  0
  7 42  1  0  0  0  0
  7  6  1  0  0  0  0
  8 22  1  1  0  0  0
  9  6  2  0  0  0  0
  9  5  1  0  0  0  0
 10  2  2  0  0  0  0
 11 15  2  0  0  0  0
 11  8  1  0  0  0  0
 12 17  1  0  0  0  0
 13 21  1  6  0  0  0
 13  4  1  0  0  0  0
 14 18  2  0  0  0  0
 14 13  1  0  0  0  0
 15 12  1  0  0  0  0
 16  8  1  0  0  0  0
 18 10  1  0  0  0  0
 19  5  1  6  0  0  0
 19 20  1  0  0  0  0
 19 15  1  0  0  0  0
 20  1  1  6  0  0  0
 20  3  1  0  0  0  0
 22 23  1  0  0  0  0
 23 24  1  0  0  0  0
 24 25  1  0  0  0  0
 25 26  1  0  0  0  0
 27 33  1  6  0  0  0
 27 30  1  0  0  0  0
 28 32  1  0  0  0  0
 28 29  1  0  0  0  0
 29 26  1  6  0  0  0
 29 30  1  0  0  0  0
 30 31  1  1  0  0  0
 32 27  1  0  0  0  0
 34 38  1  0  0  0  0
 35 39  1  0  0  0  0
 36 35  1  0  0  0  0
 36 37  1  0  0  0  0
 37 34  1  0  0  0  0
 38 41  1  1  0  0  0
 39 33  1  0  0  0  0
 39 38  1  0  0  0  0
 41 40  1  0  0  0  0
 42 43  1  0  0  0  0
 43 45  1  0  0  0  0
 45 44  1  1  0  0  0
 45 46  1  0  0  0  0
 46 49  1  6  0  0  0
 46 50  1  0  0  0  0
 47 49  1  0  0  0  0
 48 49  2  0  0  0  0
 50 51  1  0  0  0  0
 51 52  1  0  0  0  0
 52 56  1  0  0  0  0
 54 53  1  0  0  0  0
 55 57  1  0  0  0  0
 55 56  1  0  0  0  0
 56 53  1  0  0  0  0
 57 54  1  0  0  0  0
M  END
>  <MODEL>
2

>  <REMARK>
 VINA RESULT:      -7.1      2.870      8.220
  Name = 
  18 active torsions:
  status: ('A' for Active; 'I' for Inactive)
    1  A    between atoms: C_6  and  C_28
    2  A    between atoms: C_10  and  C_14
    3  A    between atoms: C_10  and  C_24
    4  A    between atoms: C_12  and  C_18
    5  A    between atoms: C_12  and  C_20
    6  A    between atoms: C_14  and  C_53
    7  A    between atoms: O_15  and  O_19
    8  A    between atoms: O_15  and  C_23
    9  A    between atoms: C_18  and  C_23
   10  A    between atoms: O_19  and  C_42
   11  A    between atoms: C_20  and  N_30
   12  A    between atoms: C_22  and  C_57
   13  A    between atoms: C_23  and  C_56
   14  A    between atoms: C_24  and  C_57
   15  A    between atoms: C_28  and  N_38
   16  A    between atoms: C_31  and  C_53
   17  A    between atoms: C_35  and  C_41
   18  A    between atoms: C_42  and  N_49
                            x       y       z     vdW  Elec       q    Type
                         _______ _______ _______ _____ _____    ______ ____

>  <TORSDO>
F 18

$$$$
=
 OpenBabel10222417333D

 57 63  0  0  1  0  0  0  0  0999 V2000
  189.8570  178.0300  140.0140 C   0  0  0  0  0  2  0  0  0  0  0  0
  187.4970  177.0740  146.4130 C   0  0  0  0  0  0  0  0  0  0  0  0
  187.3500  178.0880  140.0890 C   0  0  0  0  0  2  0  0  0  0  0  0
  188.2970  177.3540  145.1940 C   0  0  1  0  0  3  0  0  0  0  0  0
  188.8760  176.2650  142.0890 C   0  0  0  0  0  2  0  0  0  0  0  0
  190.6220  176.8150  140.4920 C   0  0  0  0  0  0  0  0  0  0  0  0
  191.9120  176.5350  139.9420 N   0  0  0  0  0  2  0  0  0  0  0  0
  185.8770  177.9050  145.0050 C   0  0  1  0  0  3  0  0  0  0  0  0
  190.1720  176.0590  141.4490 N   0  0  0  0  0  0  0  0  0  0  0  0
  188.0390  176.8980  147.5790 N   0  0  0  0  0  0  0  0  0  0  0  0
  187.2120  177.8930  144.2940 C   0  0  0  0  0  0  0  0  0  0  0  0
  186.1500  178.2420  142.2000 O   0  0  0  0  0  0  0  0  0  0  0  0
  189.4240  178.3250  145.5990 C   0  0  1  0  0  3  0  0  0  0  0  0
  190.1430  177.7670  146.8040 C   0  0  0  0  0  3  0  0  0  0  0  0
  187.3100  177.9990  142.9560 C   0  0  0  0  0  0  0  0  0  0  0  0
  186.1370  177.2240  146.2250 O   0  0  0  0  0  0  0  0  0  0  0  0
  186.1810  178.6950  140.8470 C   0  0  0  0  0  2  0  0  0  0  0  0
  189.4520  177.1060  147.7430 C   0  0  0  0  0  3  0  0  0  0  0  0
  188.6160  177.7570  142.2420 C   0  0  2  0  0  3  0  0  0  0  0  0
  188.6280  178.4110  140.8520 C   0  0  1  0  0  3  0  0  0  0  0  0
  190.4370  178.5190  144.4880 C   0  0  0  0  0  1  0  0  0  0  0  0
  185.4550  179.3360  145.3400 C   0  0  0  0  0  2  0  0  0  0  0  0
  184.3270  179.8450  144.4590 C   0  0  0  0  0  2  0  0  0  0  0  0
  183.1870  178.8460  144.4250 C   0  0  0  0  0  2  0  0  0  0  0  0
  182.0100  179.4550  143.6850 C   0  0  0  0  0  2  0  0  0  0  0  0
  180.8710  178.4510  143.6270 C   0  0  0  0  0  2  0  0  0  0  0  0
  180.6550  179.1640  140.1390 C   0  0  1  0  0  3  0  0  0  0  0  0
  179.9930  180.1470  142.0620 C   0  0  0  0  0  2  0  0  0  0  0  0
  180.0280  178.6770  142.3830 C   0  0  1  0  0  3  0  0  0  0  0  0
  180.7050  178.0770  141.1910 C   0  0  1  0  0  3  0  0  0  0  0  0
  179.7840  176.6200  140.6160 S   0  0  0  0  0  1  0  0  0  0  0  0
  180.0310  180.3090  140.6670 O   0  0  0  0  0  0  0  0  0  0  0  0
  182.0690  179.4970  139.6890 C   0  0  0  0  0  2  0  0  0  0  0  0
  182.2030  177.5510  136.5100 C   0  0  0  0  0  2  0  0  0  0  0  0
  180.9670  179.8040  137.6710 C   0  0  0  0  0  2  0  0  0  0  0  0
  180.9110  179.4960  136.1790 C   0  0  0  0  0  2  0  0  0  0  0  0
  180.9380  178.0520  135.9870 N   0  0  0  0  0  2  0  0  0  0  0  0
  182.3100  177.8380  138.0090 C   0  0  2  0  0  3  0  0  0  0  0  0
  182.2070  179.2880  138.2550 N   0  0  0  0  0  0  0  0  0  0  0  0
  184.6670  177.7490  137.6160 O   0  0  0  0  0  1  0  0  0  0  0  0
  183.6610  177.3070  138.4720 C   0  0  0  0  0  2  0  0  0  0  0  0
  192.4620  177.3100  138.8480 C   0  0  0  0  0  2  0  0  0  0  0  0
  192.2650  176.5600  137.5430 C   0  0  0  0  0  2  0  0  0  0  0  0
  194.3690  176.8120  136.3260 N   0  0  0  0  0  1  0  0  0  0  0  0
  193.5690  175.8980  137.1300 C   0  0  2  0  0  3  0  0  0  0  0  0
  193.2970  174.5920  136.3810 C   0  0  2  0  0  3  0  0  0  0  0  0
  191.0090  173.5950  136.7420 N   0  0  0  0  0  1  0  0  0  0  0  0
  191.3790  175.1360  135.0490 O   0  0  0  0  0  0  0  0  0  0  0  0
  191.8520  174.4750  136.0090 C   0  0  0  0  0  0  0  0  0  0  0  0
  193.7130  173.4770  137.1260 O   0  0  0  0  0  0  0  0  0  0  0  0
  194.9750  173.2870  136.7850 O   0  0  0  0  0  0  0  0  0  0  0  0
  195.5640  172.6920  137.9060 C   0  0  0  0  0  2  0  0  0  0  0  0
  197.0510  174.3930  137.3000 C   0  0  0  0  0  2  0  0  0  0  0  0
  198.3350  174.3580  136.5130 C   0  0  0  0  0  2  0  0  0  0  0  0
  197.7660  172.1690  137.2830 C   0  0  0  0  0  2  0  0  0  0  0  0
  196.9470  173.1310  138.0150 N   0  0  0  0  0  0  0  0  0  0  0  0
  198.5130  172.9030  136.1880 C   0  0  0  0  0  2  0  0  0  0  0  0
  1  6  1  0  0  0  0
  2 10  2  0  0  0  0
  3 17  1  0  0  0  0
  3 20  1  0  0  0  0
  4 11  1  6  0  0  0
  4 13  1  0  0  0  0
  4  2  1  0  0  0  0
  6  9  2  0  0  0  0
  7  6  1  0  0  0  0
  8 22  1  1  0  0  0
  8 16  1  0  0  0  0
  9  5  1  0  0  0  0
 10 18  1  0  0  0  0
 11  8  1  0  0  0  0
 12 15  1  0  0  0  0
 13 21  1  6  0  0  0
 13 14  1  0  0  0  0
 14 18  2  0  0  0  0
 15 11  2  0  0  0  0
 16  2  1  0  0  0  0
 17 12  1  0  0  0  0
 19  5  1  6  0  0  0
 19 15  1  0  0  0  0
 20  1  1  6  0  0  0
 20 19  1  0  0  0  0
 23 22  1  0  0  0  0
 24 23  1  0  0  0  0
 25 24  1  0  0  0  0
 26 25  1  0  0  0  0
 27 33  1  1  0  0  0
 27 32  1  0  0  0  0
 27 30  1  0  0  0  0
 28 29  1  0  0  0  0
 29 26  1  1  0  0  0
 30 31  1  6  0  0  0
 30 29  1  0  0  0  0
 32 28  1  0  0  0  0
 34 38  1  0  0  0  0
 35 39  1  0  0  0  0
 36 35  1  0  0  0  0
 37 36  1  0  0  0  0
 37 34  1  0  0  0  0
 38 39  1  0  0  0  0
 38 41  1  6  0  0  0
 39 33  1  0  0  0  0
 40 41  1  0  0  0  0
 42  7  1  0  0  0  0
 43 42  1  0  0  0  0
 45 44  1  6  0  0  0
 45 43  1  0  0  0  0
 46 49  1  1  0  0  0
 46 50  1  0  0  0  0
 46 45  1  0  0  0  0
 48 49  2  0  0  0  0
 49 47  1  0  0  0  0
 51 50  1  0  0  0  0
 51 52  1  0  0  0  0
 52 56  1  0  0  0  0
 53 56  1  0  0  0  0
 54 53  1  0  0  0  0
 55 56  1  0  0  0  0
 57 54  1  0  0  0  0
 57 55  1  0  0  0  0
M  END
>  <MODEL>
3

>  <REMARK>
 VINA RESULT:      -6.6      1.837      3.540
  Name = 
  18 active torsions:
  status: ('A' for Active; 'I' for Inactive)
    1  A    between atoms: C_6  and  C_28
    2  A    between atoms: C_10  and  C_14
    3  A    between atoms: C_10  and  C_24
    4  A    between atoms: C_12  and  C_18
    5  A    between atoms: C_12  and  C_20
    6  A    between atoms: C_14  and  C_53
    7  A    between atoms: O_15  and  O_19
    8  A    between atoms: O_15  and  C_23
    9  A    between atoms: C_18  and  C_23
   10  A    between atoms: O_19  and  C_42
   11  A    between atoms: C_20  and  N_30
   12  A    between atoms: C_22  and  C_57
   13  A    between atoms: C_23  and  C_56
   14  A    between atoms: C_24  and  C_57
   15  A    between atoms: C_28  and  N_38
   16  A    between atoms: C_31  and  C_53
   17  A    between atoms: C_35  and  C_41
   18  A    between atoms: C_42  and  N_49
                            x       y       z     vdW  Elec       q    Type
                         _______ _______ _______ _____ _____    ______ ____

>  <TORSDO>
F 18

$$$$
=
 OpenBabel10222417333D

 57 63  0  0  1  0  0  0  0  0999 V2000
  183.4160  178.3450  141.9830 C   0  0  0  0  0  2  0  0  0  0  0  0
  190.0830  178.3020  143.7100 C   0  0  0  0  0  0  0  0  0  0  0  0
  184.8780  178.9050  140.0230 C   0  0  0  0  0  2  0  0  0  0  0  0
  188.6100  178.1290  143.6250 C   0  0  1  0  0  3  0  0  0  0  0  0
  185.7860  179.7500  142.8720 C   0  0  0  0  0  2  0  0  0  0  0  0
  183.4550  179.1760  143.2470 C   0  0  0  0  0  0  0  0  0  0  0  0
  182.2960  179.2450  144.0810 N   0  0  0  0  0  2  0  0  0  0  0  0
  189.7760  178.2690  141.4300 C   0  0  1  0  0  3  0  0  0  0  0  0
  184.5440  179.7690  143.6390 N   0  0  0  0  0  0  0  0  0  0  0  0
  190.7530  178.0510  144.7920 N   0  0  0  0  0  0  0  0  0  0  0  0
  188.4420  178.1140  142.1250 C   0  0  0  0  0  0  0  0  0  0  0  0
  187.2850  178.5560  140.1000 O   0  0  0  0  0  0  0  0  0  0  0  0
  188.2540  176.8380  144.3870 C   0  0  1  0  0  3  0  0  0  0  0  0
  188.8810  176.8910  145.7600 C   0  0  0  0  0  3  0  0  0  0  0  0
  187.2750  178.3110  141.4830 C   0  0  0  0  0  0  0  0  0  0  0  0
  190.6800  178.5490  142.4900 O   0  0  0  0  0  0  0  0  0  0  0  0
  186.1210  178.4490  139.2790 C   0  0  0  0  0  2  0  0  0  0  0  0
  190.0840  177.4600  145.9200 C   0  0  0  0  0  3  0  0  0  0  0  0
  185.9670  178.3790  142.2330 C   0  0  2  0  0  3  0  0  0  0  0  0
  184.7730  178.0960  141.3100 C   0  0  1  0  0  3  0  0  0  0  0  0
  186.7580  176.6670  144.5550 C   0  0  0  0  0  1  0  0  0  0  0  0
  190.2020  176.9530  140.7770 C   0  0  0  0  0  2  0  0  0  0  0  0
  190.2170  177.0210  139.2590 C   0  0  0  0  0  2  0  0  0  0  0  0
  191.0630  175.9010  138.6850 C   0  0  0  0  0  2  0  0  0  0  0  0
  190.4650  175.4480  137.3660 C   0  0  0  0  0  2  0  0  0  0  0  0
  189.9640  176.6560  136.5930 C   0  0  0  0  0  2  0  0  0  0  0  0
  186.7390  175.4880  135.6180 C   0  0  1  0  0  3  0  0  0  0  0  0
  188.8630  174.7260  135.5170 C   0  0  0  0  0  2  0  0  0  0  0  0
  188.9990  176.2250  135.5020 C   0  0  1  0  0  3  0  0  0  0  0  0
  187.6170  176.7020  135.8230 C   0  0  1  0  0  3  0  0  0  0  0  0
  187.1270  178.0190  134.6710 S   0  0  0  0  0  1  0  0  0  0  0  0
  187.5280  174.3870  135.2370 O   0  0  0  0  0  0  0  0  0  0  0  0
  185.9950  175.1790  136.9080 C   0  0  0  0  0  2  0  0  0  0  0  0
  182.4770  174.1130  137.5400 C   0  0  0  0  0  2  0  0  0  0  0  0
  184.0240  176.4010  136.9650 C   0  0  0  0  0  2  0  0  0  0  0  0
  182.5010  176.3830  136.9000 C   0  0  0  0  0  2  0  0  0  0  0  0
  181.9900  175.4430  137.8890 N   0  0  0  0  0  2  0  0  0  0  0  0
  184.0060  174.0780  137.5890 C   0  0  2  0  0  3  0  0  0  0  0  0
  184.5650  175.0750  136.6570 N   0  0  0  0  0  0  0  0  0  0  0  0
  184.0910  172.4220  135.8660 O   0  0  0  0  0  1  0  0  0  0  0  0
  184.4340  172.6710  137.1930 C   0  0  0  0  0  2  0  0  0  0  0  0
  181.0360  178.6420  143.6920 C   0  0  0  0  0  2  0  0  0  0  0  0
  180.2630  179.6050  142.8090 C   0  0  0  0  0  2  0  0  0  0  0  0
  179.3940  177.4090  142.1810 N   0  0  0  0  0  1  0  0  0  0  0  0
  179.2040  178.8450  142.0270 C   0  0  2  0  0  3  0  0  0  0  0  0
  179.2260  179.2530  140.5540 C   0  0  2  0  0  3  0  0  0  0  0  0
  179.0890  177.2720  138.9990 N   0  0  0  0  0  1  0  0  0  0  0  0
  181.1430  178.1370  139.6410 O   0  0  0  0  0  0  0  0  0  0  0  0
  179.8880  178.2060  139.7130 C   0  0  0  0  0  0  0  0  0  0  0  0
  179.8460  180.5010  140.3760 O   0  0  0  0  0  0  0  0  0  0  0  0
  179.3560  180.9710  139.2430 O   0  0  0  0  0  0  0  0  0  0  0  0
  180.2040  182.0290  138.8970 C   0  0  0  0  0  2  0  0  0  0  0  0
  180.7380  182.5200  136.6740 C   0  0  0  0  0  2  0  0  0  0  0  0
  180.8420  183.8330  135.9420 C   0  0  0  0  0  2  0  0  0  0  0  0
  179.6060  184.1000  137.9690 C   0  0  0  0  0  2  0  0  0  0  0  0
  179.7080  182.6700  137.6900 N   0  0  0  0  0  0  0  0  0  0  0  0
  180.4810  184.8500  136.9850 C   0  0  0  0  0  2  0  0  0  0  0  0
  1  6  1  0  0  0  0
  2 10  2  0  0  0  0
  4 11  1  6  0  0  0
  4  2  1  0  0  0  0
  4 13  1  0  0  0  0
  5  9  1  0  0  0  0
  6  9  2  0  0  0  0
  6  7  1  0  0  0  0
  8 22  1  1  0  0  0
  8 11  1  0  0  0  0
  8 16  1  0  0  0  0
 10 18  1  0  0  0  0
 12 15  1  0  0  0  0
 13 21  1  1  0  0  0
 13 14  1  0  0  0  0
 14 18  2  0  0  0  0
 15 11  2  0  0  0  0
 15 19  1  0  0  0  0
 16  2  1  0  0  0  0
 17  3  1  0  0  0  0
 17 12  1  0  0  0  0
 19  5  1  6  0  0  0
 20  3  1  6  0  0  0
 20  1  1  0  0  0  0
 20 19  1  0  0  0  0
 23 22  1  0  0  0  0
 24 23  1  0  0  0  0
 25 24  1  0  0  0  0
 26 25  1  0  0  0  0
 27 30  1  0  0  0  0
 27 33  1  1  0  0  0
 29 28  1  0  0  0  0
 29 30  1  0  0  0  0
 29 26  1  1  0  0  0
 30 31  1  6  0  0  0
 32 28  1  0  0  0  0
 32 27  1  0  0  0  0
 34 38  1  0  0  0  0
 34 37  1  0  0  0  0
 36 35  1  0  0  0  0
 36 37  1  0  0  0  0
 38 41  1  6  0  0  0
 39 33  1  0  0  0  0
 39 35  1  0  0  0  0
 39 38  1  0  0  0  0
 40 41  1  0  0  0  0
 42  7  1  0  0  0  0
 43 42  1  0  0  0  0
 45 44  1  6  0  0  0
 45 43  1  0  0  0  0
 46 49  1  6  0  0  0
 46 45  1  0  0  0  0
 47 49  1  0  0  0  0
 48 49  2  0  0  0  0
 50 46  1  0  0  0  0
 51 50  1  0  0  0  0
 52 51  1  0  0  0  0
 53 56  1  0  0  0  0
 54 53  1  0  0  0  0
 54 57  1  0  0  0  0
 56 55  1  0  0  0  0
 56 52  1  0  0  0  0
 57 55  1  0  0  0  0
M  END
>  <MODEL>
4

>  <REMARK>
 VINA RESULT:      -6.6      3.162      8.743
  Name = 
  18 active torsions:
  status: ('A' for Active; 'I' for Inactive)
    1  A    between atoms: C_6  and  C_28
    2  A    between atoms: C_10  and  C_14
    3  A    between atoms: C_10  and  C_24
    4  A    between atoms: C_12  and  C_18
    5  A    between atoms: C_12  and  C_20
    6  A    between atoms: C_14  and  C_53
    7  A    between atoms: O_15  and  O_19
    8  A    between atoms: O_15  and  C_23
    9  A    between atoms: C_18  and  C_23
   10  A    between atoms: O_19  and  C_42
   11  A    between atoms: C_20  and  N_30
   12  A    between atoms: C_22  and  C_57
   13  A    between atoms: C_23  and  C_56
   14  A    between atoms: C_24  and  C_57
   15  A    between atoms: C_28  and  N_38
   16  A    between atoms: C_31  and  C_53
   17  A    between atoms: C_35  and  C_41
   18  A    between atoms: C_42  and  N_49
                            x       y       z     vdW  Elec       q    Type
                         _______ _______ _______ _____ _____    ______ ____

>  <TORSDO>
F 18

$$$$
=
 OpenBabel10222417333D

 57 63  0  0  1  0  0  0  0  0999 V2000
  190.0630  177.9530  139.9200 C   0  0  0  0  0  2  0  0  0  0  0  0
  187.5000  177.0950  146.2540 C   0  0  0  0  0  0  0  0  0  0  0  0
  187.5550  177.9910  139.9100 C   0  0  0  0  0  2  0  0  0  0  0  0
  188.3390  177.3610  145.0570 C   0  0  1  0  0  3  0  0  0  0  0  0
  189.0290  176.2180  141.9930 C   0  0  0  0  0  2  0  0  0  0  0  0
  190.8230  176.7540  140.4450 C   0  0  0  0  0  0  0  0  0  0  0  0
  192.1320  176.4760  139.9440 N   0  0  0  0  0  2  0  0  0  0  0  0
  185.9210  177.8860  144.7780 C   0  0  1  0  0  3  0  0  0  0  0  0
  190.3480  176.0120  141.4010 N   0  0  0  0  0  0  0  0  0  0  0  0
  188.0050  176.9460  147.4400 N   0  0  0  0  0  0  0  0  0  0  0  0
  187.2790  177.8730  144.1120 C   0  0  0  0  0  0  0  0  0  0  0  0
  186.2850  178.1730  141.9780 O   0  0  0  0  0  0  0  0  0  0  0  0
  189.4430  178.3480  145.4800 C   0  0  1  0  0  3  0  0  0  0  0  0
  190.1270  177.8200  146.7190 C   0  0  0  0  0  3  0  0  0  0  0  0
  187.4200  177.9550  142.7760 C   0  0  0  0  0  0  0  0  0  0  0  0
  186.1460  177.2300  146.0190 O   0  0  0  0  0  0  0  0  0  0  0  0
  186.3560  178.6010  140.6170 C   0  0  0  0  0  2  0  0  0  0  0  0
  189.4100  177.1700  147.6470 C   0  0  0  0  0  3  0  0  0  0  0  0
  188.7520  177.7110  142.1100 C   0  0  2  0  0  3  0  0  0  0  0  0
  188.8040  178.3390  140.7090 C   0  0  1  0  0  3  0  0  0  0  0  0
  190.4910  178.5310  144.4000 C   0  0  0  0  0  1  0  0  0  0  0  0
  185.4770  179.3190  145.0720 C   0  0  0  0  0  2  0  0  0  0  0  0
  184.2720  179.7480  144.2510 C   0  0  0  0  0  2  0  0  0  0  0  0
  183.3540  178.5680  143.9970 C   0  0  0  0  0  2  0  0  0  0  0  0
  182.8190  178.6460  142.5790 C   0  0  0  0  0  2  0  0  0  0  0  0
  181.4150  179.2260  142.5970 C   0  0  0  0  0  2  0  0  0  0  0  0
  181.2190  177.6320  139.4130 C   0  0  1  0  0  3  0  0  0  0  0  0
  181.7070  179.6950  140.1910 C   0  0  0  0  0  2  0  0  0  0  0  0
  180.7780  179.1150  141.2220 C   0  0  1  0  0  3  0  0  0  0  0  0
  180.6720  177.6760  140.8220 C   0  0  1  0  0  3  0  0  0  0  0  0
  178.9310  177.1530  140.8260 S   0  0  0  0  0  1  0  0  0  0  0  0
  181.6340  178.9180  139.0230 O   0  0  0  0  0  0  0  0  0  0  0  0
  182.3880  176.6620  139.3550 C   0  0  0  0  0  2  0  0  0  0  0  0
  184.0360  174.9190  136.4970 C   0  0  0  0  0  2  0  0  0  0  0  0
  181.7320  174.8090  138.1220 C   0  0  0  0  0  2  0  0  0  0  0  0
  181.8920  173.9980  136.8410 C   0  0  0  0  0  2  0  0  0  0  0  0
  183.2990  173.6700  136.6530 N   0  0  0  0  0  2  0  0  0  0  0  0
  183.9060  175.7740  137.7600 C   0  0  2  0  0  3  0  0  0  0  0  0
  182.4850  176.0630  138.0310 N   0  0  0  0  0  0  0  0  0  0  0  0
  184.6140  177.4060  136.1620 O   0  0  0  0  0  1  0  0  0  0  0  0
  184.6790  177.0630  137.5100 C   0  0  0  0  0  2  0  0  0  0  0  0
  192.7120  177.2350  138.8540 C   0  0  0  0  0  2  0  0  0  0  0  0
  192.8600  176.3430  137.6350 C   0  0  0  0  0  2  0  0  0  0  0  0
  194.9320  175.2850  138.3820 N   0  0  0  0  0  1  0  0  0  0  0  0
  193.5400  175.0420  138.0310 C   0  0  2  0  0  3  0  0  0  0  0  0
  193.4220  174.0100  136.9090 C   0  0  2  0  0  3  0  0  0  0  0  0
  195.5590  172.7940  136.3500 N   0  0  0  0  0  1  0  0  0  0  0  0
  195.0240  174.7950  135.3060 O   0  0  0  0  0  0  0  0  0  0  0  0
  194.6990  173.9050  136.1360 C   0  0  0  0  0  0  0  0  0  0  0  0
  192.3440  174.3000  136.0560 O   0  0  0  0  0  0  0  0  0  0  0  0
  191.2880  173.7640  136.6410 O   0  0  0  0  0  0  0  0  0  0  0  0
  190.3510  173.6040  135.6140 C   0  0  0  0  0  2  0  0  0  0  0  0
  188.4010  174.7530  135.0260 C   0  0  0  0  0  2  0  0  0  0  0  0
  187.7120  175.9330  135.6610 C   0  0  0  0  0  2  0  0  0  0  0  0
  189.2390  174.9290  137.2000 C   0  0  0  0  0  2  0  0  0  0  0  0
  189.0360  173.9970  136.0940 N   0  0  0  0  0  0  0  0  0  0  0  0
  188.5660  176.2430  136.8560 C   0  0  0  0  0  2  0  0  0  0  0  0
  1  6  1  0  0  0  0
  1 20  1  0  0  0  0
  2 10  2  0  0  0  0
  3 17  1  0  0  0  0
  4 11  1  6  0  0  0
  4 13  1  0  0  0  0
  4  2  1  0  0  0  0
  6  9  2  0  0  0  0
  7  6  1  0  0  0  0
  8 22  1  1  0  0  0
  8 16  1  0  0  0  0
  9  5  1  0  0  0  0
 10 18  1  0  0  0  0
 11  8  1  0  0  0  0
 12 15  1  0  0  0  0
 13 21  1  6  0  0  0
 13 14  1  0  0  0  0
 14 18  2  0  0  0  0
 15 11  2  0  0  0  0
 16  2  1  0  0  0  0
 17 12  1  0  0  0  0
 19  5  1  6  0  0  0
 19 15  1  0  0  0  0
 20  3  1  6  0  0  0
 20 19  1  0  0  0  0
 23 22  1  0  0  0  0
 24 23  1  0  0  0  0
 25 26  1  0  0  0  0
 25 24  1  0  0  0  0
 27 33  1  1  0  0  0
 27 30  1  0  0  0  0
 28 29  1  0  0  0  0
 29 26  1  1  0  0  0
 30 31  1  6  0  0  0
 30 29  1  0  0  0  0
 32 27  1  0  0  0  0
 32 28  1  0  0  0  0
 34 37  1  0  0  0  0
 34 38  1  0  0  0  0
 36 35  1  0  0  0  0
 37 36  1  0  0  0  0
 38 41  1  6  0  0  0
 38 39  1  0  0  0  0
 39 35  1  0  0  0  0
 39 33  1  0  0  0  0
 40 41  1  0  0  0  0
 42  7  1  0  0  0  0
 43 45  1  0  0  0  0
 43 42  1  0  0  0  0
 45 44  1  6  0  0  0
 46 50  1  6  0  0  0
 46 45  1  0  0  0  0
 48 49  2  0  0  0  0
 49 47  1  0  0  0  0
 49 46  1  0  0  0  0
 50 51  1  0  0  0  0
 52 56  1  0  0  0  0
 52 51  1  0  0  0  0
 53 54  1  0  0  0  0
 53 56  1  0  0  0  0
 54 57  1  0  0  0  0
 56 55  1  0  0  0  0
 57 55  1  0  0  0  0
M  END
>  <MODEL>
5

>  <REMARK>
 VINA RESULT:      -6.6      1.750      2.226
  Name = 
  18 active torsions:
  status: ('A' for Active; 'I' for Inactive)
    1  A    between atoms: C_6  and  C_28
    2  A    between atoms: C_10  and  C_14
    3  A    between atoms: C_10  and  C_24
    4  A    between atoms: C_12  and  C_18
    5  A    between atoms: C_12  and  C_20
    6  A    between atoms: C_14  and  C_53
    7  A    between atoms: O_15  and  O_19
    8  A    between atoms: O_15  and  C_23
    9  A    between atoms: C_18  and  C_23
   10  A    between atoms: O_19  and  C_42
   11  A    between atoms: C_20  and  N_30
   12  A    between atoms: C_22  and  C_57
   13  A    between atoms: C_23  and  C_56
   14  A    between atoms: C_24  and  C_57
   15  A    between atoms: C_28  and  N_38
   16  A    between atoms: C_31  and  C_53
   17  A    between atoms: C_35  and  C_41
   18  A    between atoms: C_42  and  N_49
                            x       y       z     vdW  Elec       q    Type
                         _______ _______ _______ _____ _____    ______ ____

>  <TORSDO>
F 18

$$$$
=
 OpenBabel10222417333D

 57 63  0  0  1  0  0  0  0  0999 V2000
  189.0200  176.7260  136.5680 C   0  0  0  0  0  2  0  0  0  0  0  0
  182.5480  174.4300  137.0820 C   0  0  0  0  0  0  0  0  0  0  0  0
  187.4520  178.5480  137.2850 C   0  0  0  0  0  2  0  0  0  0  0  0
  184.0210  174.5930  136.9870 C   0  0  1  0  0  3  0  0  0  0  0  0
  186.4050  176.3130  135.3980 C   0  0  0  0  0  2  0  0  0  0  0  0
  188.8080  175.9830  135.2670 C   0  0  0  0  0  0  0  0  0  0  0  0
  189.9310  175.4080  134.5940 N   0  0  0  0  0  2  0  0  0  0  0  0
  182.8320  176.4650  138.1190 C   0  0  1  0  0  3  0  0  0  0  0  0
  187.6180  175.7830  134.7820 N   0  0  0  0  0  0  0  0  0  0  0  0
  181.9610  173.2840  136.9220 N   0  0  0  0  0  0  0  0  0  0  0  0
  184.1740  175.9300  137.6700 C   0  0  0  0  0  0  0  0  0  0  0  0
  185.1840  178.0510  138.0130 O   0  0  0  0  0  0  0  0  0  0  0  0
  184.6630  173.3720  137.6750 C   0  0  1  0  0  3  0  0  0  0  0  0
  184.0530  172.1120  137.1080 C   0  0  0  0  0  3  0  0  0  0  0  0
  185.2620  176.7180  137.5760 C   0  0  0  0  0  0  0  0  0  0  0  0
  181.8990  175.5530  137.5550 O   0  0  0  0  0  0  0  0  0  0  0  0
  186.3340  178.8580  138.2660 C   0  0  0  0  0  2  0  0  0  0  0  0
  182.7550  172.0950  136.7750 C   0  0  0  0  0  3  0  0  0  0  0  0
  186.5280  176.2330  136.9140 C   0  0  2  0  0  3  0  0  0  0  0  0
  187.7460  177.0550  137.3590 C   0  0  1  0  0  3  0  0  0  0  0  0
  186.1610  173.3150  137.4560 C   0  0  0  0  0  1  0  0  0  0  0  0
  182.7040  176.3950  139.6410 C   0  0  0  0  0  2  0  0  0  0  0  0
  182.7850  177.7590  140.3070 C   0  0  0  0  0  2  0  0  0  0  0  0
  184.1150  177.9290  141.0140 C   0  0  0  0  0  2  0  0  0  0  0  0
  183.8890  178.6160  142.3480 C   0  0  0  0  0  2  0  0  0  0  0  0
  185.2280  178.9780  142.9670 C   0  0  0  0  0  2  0  0  0  0  0  0
  187.6630  177.6840  145.2280 C   0  0  1  0  0  3  0  0  0  0  0  0
  186.7790  177.0770  143.2400 C   0  0  0  0  0  2  0  0  0  0  0  0
  185.6930  177.8780  143.9060 C   0  0  1  0  0  3  0  0  0  0  0  0
  186.3810  178.4750  145.0930 C   0  0  1  0  0  3  0  0  0  0  0  0
  185.3620  178.2580  146.5820 S   0  0  0  0  0  1  0  0  0  0  0  0
  187.7400  176.7250  144.2020 O   0  0  0  0  0  0  0  0  0  0  0  0
  188.8510  178.6300  145.1540 C   0  0  0  0  0  2  0  0  0  0  0  0
  190.5640  176.5310  147.7180 C   0  0  0  0  0  2  0  0  0  0  0  0
  190.6660  177.1960  144.9780 C   0  0  0  0  0  2  0  0  0  0  0  0
  191.7760  176.4370  145.6970 C   0  0  0  0  0  2  0  0  0  0  0  0
  191.1930  175.6290  146.7600 N   0  0  0  0  0  2  0  0  0  0  0  0
  189.4390  177.3200  147.0440 C   0  0  2  0  0  3  0  0  0  0  0  0
  189.9750  178.0930  145.9080 N   0  0  0  0  0  0  0  0  0  0  0  0
  187.9130  177.5660  148.8680 O   0  0  0  0  0  1  0  0  0  0  0  0
  188.8500  178.2500  148.0970 C   0  0  0  0  0  2  0  0  0  0  0  0
  191.2890  175.6200  135.0530 C   0  0  0  0  0  2  0  0  0  0  0  0
  191.9800  174.2800  135.2300 C   0  0  0  0  0  2  0  0  0  0  0  0
  191.4730  174.1410  137.6170 N   0  0  0  0  0  1  0  0  0  0  0  0
  192.5500  174.1790  136.6360 C   0  0  2  0  0  3  0  0  0  0  0  0
  193.5110  175.3360  136.9120 C   0  0  2  0  0  3  0  0  0  0  0  0
  195.5810  176.1400  135.7170 N   0  0  0  0  0  1  0  0  0  0  0  0
  195.3530  173.9150  136.3300 O   0  0  0  0  0  0  0  0  0  0  0  0
  194.8580  175.0730  136.3160 C   0  0  0  0  0  0  0  0  0  0  0  0
  193.6160  175.6000  138.2880 O   0  0  0  0  0  0  0  0  0  0  0  0
  192.7380  176.5580  138.5220 O   0  0  0  0  0  0  0  0  0  0  0  0
  193.1460  177.1300  139.7320 C   0  0  0  0  0  2  0  0  0  0  0  0
  191.7840  177.0540  141.6330 C   0  0  0  0  0  2  0  0  0  0  0  0
  190.2980  176.8630  141.7850 C   0  0  0  0  0  2  0  0  0  0  0  0
  190.8350  177.4970  139.5450 C   0  0  0  0  0  2  0  0  0  0  0  0
  192.0050  177.7590  140.3790 N   0  0  0  0  0  0  0  0  0  0  0  0
  189.8080  176.7480  140.3700 C   0  0  0  0  0  2  0  0  0  0  0  0
  2 16  1  0  0  0  0
  3 20  1  0  0  0  0
  3 17  1  0  0  0  0
  4  2  1  1  0  0  0
  4 11  1  0  0  0  0
  4 13  1  0  0  0  0
  6  1  1  0  0  0  0
  7 42  1  0  0  0  0
  7  6  1  0  0  0  0
  8 22  1  1  0  0  0
  9  6  2  0  0  0  0
  9  5  1  0  0  0  0
 10  2  2  0  0  0  0
 11  8  1  0  0  0  0
 12 17  1  0  0  0  0
 13 21  1  6  0  0  0
 14 13  1  0  0  0  0
 15 11  2  0  0  0  0
 15 12  1  0  0  0  0
 16  8  1  0  0  0  0
 18 10  1  0  0  0  0
 18 14  2  0  0  0  0
 19  5  1  6  0  0  0
 19 20  1  0  0  0  0
 19 15  1  0  0  0  0
 20  1  1  6  0  0  0
 22 23  1  0  0  0  0
 23 24  1  0  0  0  0
 24 25  1  0  0  0  0
 25 26  1  0  0  0  0
 27 33  1  6  0  0  0
 28 29  1  0  0  0  0
 28 32  1  0  0  0  0
 29 26  1  6  0  0  0
 29 30  1  0  0  0  0
 30 27  1  0  0  0  0
 30 31  1  1  0  0  0
 32 27  1  0  0  0  0
 33 39  1  0  0  0  0
 35 36  1  0  0  0  0
 35 39  1  0  0  0  0
 36 37  1  0  0  0  0
 37 34  1  0  0  0  0
 38 34  1  0  0  0  0
 38 41  1  1  0  0  0
 39 38  1  0  0  0  0
 41 40  1  0  0  0  0
 42 43  1  0  0  0  0
 43 45  1  0  0  0  0
 45 46  1  0  0  0  0
 45 44  1  1  0  0  0
 46 49  1  1  0  0  0
 46 50  1  0  0  0  0
 47 49  1  0  0  0  0
 49 48  2  0  0  0  0
 50 51  1  0  0  0  0
 51 52  1  0  0  0  0
 52 56  1  0  0  0  0
 53 54  1  0  0  0  0
 55 57  1  0  0  0  0
 55 56  1  0  0  0  0
 56 53  1  0  0  0  0
 57 54  1  0  0  0  0
M  END
>  <MODEL>
6

>  <REMARK>
 VINA RESULT:      -6.4      2.711      8.008
  Name = 
  18 active torsions:
  status: ('A' for Active; 'I' for Inactive)
    1  A    between atoms: C_6  and  C_28
    2  A    between atoms: C_10  and  C_14
    3  A    between atoms: C_10  and  C_24
    4  A    between atoms: C_12  and  C_18
    5  A    between atoms: C_12  and  C_20
    6  A    between atoms: C_14  and  C_53
    7  A    between atoms: O_15  and  O_19
    8  A    between atoms: O_15  and  C_23
    9  A    between atoms: C_18  and  C_23
   10  A    between atoms: O_19  and  C_42
   11  A    between atoms: C_20  and  N_30
   12  A    between atoms: C_22  and  C_57
   13  A    between atoms: C_23  and  C_56
   14  A    between atoms: C_24  and  C_57
   15  A    between atoms: C_28  and  N_38
   16  A    between atoms: C_31  and  C_53
   17  A    between atoms: C_35  and  C_41
   18  A    between atoms: C_42  and  N_49
                            x       y       z     vdW  Elec       q    Type
                         _______ _______ _______ _____ _____    ______ ____

>  <TORSDO>
F 18

$$$$
=
 OpenBabel10222417333D

 57 63  0  0  1  0  0  0  0  0999 V2000
  189.8870  177.9500  139.9650 C   0  0  0  0  0  2  0  0  0  0  0  0
  187.5740  177.1260  146.3990 C   0  0  0  0  0  0  0  0  0  0  0  0
  187.3820  178.0480  140.0620 C   0  0  0  0  0  2  0  0  0  0  0  0
  188.3670  177.3760  145.1690 C   0  0  1  0  0  3  0  0  0  0  0  0
  188.9000  176.2320  142.0750 C   0  0  0  0  0  2  0  0  0  0  0  0
  190.6380  176.7310  140.4530 C   0  0  0  0  0  0  0  0  0  0  0  0
  191.9180  176.4230  139.8960 N   0  0  0  0  0  2  0  0  0  0  0  0
  185.9540  177.9600  144.9940 C   0  0  1  0  0  3  0  0  0  0  0  0
  190.1860  175.9960  141.4260 N   0  0  0  0  0  0  0  0  0  0  0  0
  188.1250  176.9590  147.5620 N   0  0  0  0  0  0  0  0  0  0  0  0
  187.2820  177.9180  144.2710 C   0  0  0  0  0  0  0  0  0  0  0  0
  186.2050  178.2520  142.1820 O   0  0  0  0  0  0  0  0  0  0  0  0
  189.5120  178.3350  145.5480 C   0  0  1  0  0  3  0  0  0  0  0  0
  190.2350  177.7850  146.7550 C   0  0  0  0  0  3  0  0  0  0  0  0
  187.3680  178.0020  142.9310 C   0  0  0  0  0  0  0  0  0  0  0  0
  186.2150  177.2940  146.2220 O   0  0  0  0  0  0  0  0  0  0  0  0
  186.2300  178.6840  140.8220 C   0  0  0  0  0  2  0  0  0  0  0  0
  189.5420  177.1480  147.7100 C   0  0  0  0  0  3  0  0  0  0  0  0
  188.6640  177.7300  142.2080 C   0  0  2  0  0  3  0  0  0  0  0  0
  188.6720  178.3630  140.8090 C   0  0  1  0  0  3  0  0  0  0  0  0
  190.5180  178.4970  144.4260 C   0  0  0  0  0  1  0  0  0  0  0  0
  185.5570  179.4030  145.3120 C   0  0  0  0  0  2  0  0  0  0  0  0
  184.2060  179.7880  144.7330 C   0  0  0  0  0  2  0  0  0  0  0  0
  183.5170  178.5770  144.1370 C   0  0  0  0  0  2  0  0  0  0  0  0
  183.1200  178.8810  142.7040 C   0  0  0  0  0  2  0  0  0  0  0  0
  181.6080  178.8060  142.5690 C   0  0  0  0  0  2  0  0  0  0  0  0
  181.4730  177.4630  139.2680 C   0  0  1  0  0  3  0  0  0  0  0  0
  182.4120  179.2530  140.2780 C   0  0  0  0  0  2  0  0  0  0  0  0
  181.1990  178.9430  141.1130 C   0  0  1  0  0  3  0  0  0  0  0  0
  180.7410  177.6200  140.5830 C   0  0  1  0  0  3  0  0  0  0  0  0
  178.9480  177.6480  140.2920 S   0  0  0  0  0  1  0  0  0  0  0  0
  182.3050  178.5770  139.0510 O   0  0  0  0  0  0  0  0  0  0  0  0
  182.3000  176.1880  139.2980 C   0  0  0  0  0  2  0  0  0  0  0  0
  183.4010  173.9160  136.5520 C   0  0  0  0  0  2  0  0  0  0  0  0
  181.1860  174.4690  138.2090 C   0  0  0  0  0  2  0  0  0  0  0  0
  181.1100  173.5600  136.9870 C   0  0  0  0  0  2  0  0  0  0  0  0
  182.3930  172.8930  136.8060 N   0  0  0  0  0  2  0  0  0  0  0  0
  183.5150  174.8590  137.7520 C   0  0  2  0  0  3  0  0  0  0  0  0
  182.2120  175.4960  138.0190 N   0  0  0  0  0  0  0  0  0  0  0  0
  184.0550  176.7980  136.4610 O   0  0  0  0  0  1  0  0  0  0  0  0
  184.5650  175.9050  137.4010 C   0  0  0  0  0  2  0  0  0  0  0  0
  192.4700  177.1740  138.7850 C   0  0  0  0  0  2  0  0  0  0  0  0
  191.7940  176.7440  137.4960 C   0  0  0  0  0  2  0  0  0  0  0  0
  191.7380  174.3020  137.5830 N   0  0  0  0  0  1  0  0  0  0  0  0
  192.4170  175.4500  136.9970 C   0  0  2  0  0  3  0  0  0  0  0  0
  193.9160  175.4230  137.3010 C   0  0  2  0  0  3  0  0  0  0  0  0
  194.1570  175.2250  134.7980 N   0  0  0  0  0  1  0  0  0  0  0  0
  195.9010  176.0280  136.1000 O   0  0  0  0  0  0  0  0  0  0  0  0
  194.7230  175.5860  136.0520 C   0  0  0  0  0  0  0  0  0  0  0  0
  194.2800  174.2490  137.9810 O   0  0  0  0  0  0  0  0  0  0  0  0
  195.1180  173.6270  137.1700 O   0  0  0  0  0  0  0  0  0  0  0  0
  194.8210  172.2680  137.3200 C   0  0  0  0  0  2  0  0  0  0  0  0
  197.1350  172.4800  137.5870 C   0  0  0  0  0  2  0  0  0  0  0  0
  198.2820  172.0070  136.7330 C   0  0  0  0  0  2  0  0  0  0  0  0
  196.2780  170.8360  136.1660 C   0  0  0  0  0  2  0  0  0  0  0  0
  196.0580  171.5130  137.4400 N   0  0  0  0  0  0  0  0  0  0  0  0
  197.6090  171.2900  135.5990 C   0  0  0  0  0  2  0  0  0  0  0  0
  1  6  1  0  0  0  0
  2 10  2  0  0  0  0
  3 20  1  0  0  0  0
  3 17  1  0  0  0  0
  4 11  1  6  0  0  0
  4 13  1  0  0  0  0
  4  2  1  0  0  0  0
  6  9  2  0  0  0  0
  7  6  1  0  0  0  0
  8 22  1  1  0  0  0
  8 16  1  0  0  0  0
  9  5  1  0  0  0  0
 10 18  1  0  0  0  0
 11  8  1  0  0  0  0
 12 15  1  0  0  0  0
 13 21  1  6  0  0  0
 13 14  1  0  0  0  0
 14 18  2  0  0  0  0
 15 11  2  0  0  0  0
 16  2  1  0  0  0  0
 17 12  1  0  0  0  0
 19  5  1  6  0  0  0
 19 15  1  0  0  0  0
 20  1  1  6  0  0  0
 20 19  1  0  0  0  0
 23 22  1  0  0  0  0
 24 23  1  0  0  0  0
 25 24  1  0  0  0  0
 26 25  1  0  0  0  0
 27 33  1  1  0  0  0
 27 30  1  0  0  0  0
 28 29  1  0  0  0  0
 29 26  1  1  0  0  0
 30 31  1  6  0  0  0
 30 29  1  0  0  0  0
 32 27  1  0  0  0  0
 32 28  1  0  0  0  0
 34 37  1  0  0  0  0
 34 38  1  0  0  0  0
 36 35  1  0  0  0  0
 37 36  1  0  0  0  0
 38 41  1  6  0  0  0
 38 39  1  0  0  0  0
 39 35  1  0  0  0  0
 39 33  1  0  0  0  0
 40 41  1  0  0  0  0
 42  7  1  0  0  0  0
 43 42  1  0  0  0  0
 45 46  1  0  0  0  0
 45 43  1  0  0  0  0
 45 44  1  1  0  0  0
 46 49  1  6  0  0  0
 46 50  1  0  0  0  0
 47 49  1  0  0  0  0
 49 48  2  0  0  0  0
 51 52  1  0  0  0  0
 51 50  1  0  0  0  0
 52 56  1  0  0  0  0
 54 53  1  0  0  0  0
 55 56  1  0  0  0  0
 56 53  1  0  0  0  0
 57 55  1  0  0  0  0
 57 54  1  0  0  0  0
M  END
>  <MODEL>
7

>  <REMARK>
 VINA RESULT:      -6.1      2.497      4.139
  Name = 
  18 active torsions:
  status: ('A' for Active; 'I' for Inactive)
    1  A    between atoms: C_6  and  C_28
    2  A    between atoms: C_10  and  C_14
    3  A    between atoms: C_10  and  C_24
    4  A    between atoms: C_12  and  C_18
    5  A    between atoms: C_12  and  C_20
    6  A    between atoms: C_14  and  C_53
    7  A    between atoms: O_15  and  O_19
    8  A    between atoms: O_15  and  C_23
    9  A    between atoms: C_18  and  C_23
   10  A    between atoms: O_19  and  C_42
   11  A    between atoms: C_20  and  N_30
   12  A    between atoms: C_22  and  C_57
   13  A    between atoms: C_23  and  C_56
   14  A    between atoms: C_24  and  C_57
   15  A    between atoms: C_28  and  N_38
   16  A    between atoms: C_31  and  C_53
   17  A    between atoms: C_35  and  C_41
   18  A    between atoms: C_42  and  N_49
                            x       y       z     vdW  Elec       q    Type
                         _______ _______ _______ _____ _____    ______ ____

>  <TORSDO>
F 18

$$$$
=
 OpenBabel10222417333D

 57 63  0  0  1  0  0  0  0  0999 V2000
  189.9610  178.0150  139.6480 C   0  0  0  0  0  2  0  0  0  0  0  0
  187.4150  177.1180  145.9840 C   0  0  0  0  0  0  0  0  0  0  0  0
  187.4520  178.0530  139.6460 C   0  0  0  0  0  2  0  0  0  0  0  0
  188.2500  177.3910  144.7870 C   0  0  1  0  0  3  0  0  0  0  0  0
  188.9320  176.2670  141.7140 C   0  0  0  0  0  2  0  0  0  0  0  0
  190.7210  176.8120  140.1640 C   0  0  0  0  0  0  0  0  0  0  0  0
  192.0290  176.5360  139.6570 N   0  0  0  0  0  2  0  0  0  0  0  0
  185.8320  177.9180  144.5170 C   0  0  1  0  0  3  0  0  0  0  0  0
  190.2490  176.0640  141.1170 N   0  0  0  0  0  0  0  0  0  0  0  0
  187.9230  176.9610  147.1680 N   0  0  0  0  0  0  0  0  0  0  0  0
  187.1880  177.9090  143.8470 C   0  0  0  0  0  0  0  0  0  0  0  0
  186.1880  178.2230  141.7180 O   0  0  0  0  0  0  0  0  0  0  0  0
  189.3560  178.3750  145.2130 C   0  0  1  0  0  3  0  0  0  0  0  0
  190.0430  177.8390  146.4460 C   0  0  0  0  0  3  0  0  0  0  0  0
  187.3260  177.9990  142.5110 C   0  0  0  0  0  0  0  0  0  0  0  0
  186.0610  177.2540  145.7530 O   0  0  0  0  0  0  0  0  0  0  0  0
  186.2560  178.6590  140.3600 C   0  0  0  0  0  2  0  0  0  0  0  0
  189.3280  177.1840  147.3720 C   0  0  0  0  0  3  0  0  0  0  0  0
  188.6550  177.7590  141.8400 C   0  0  2  0  0  3  0  0  0  0  0  0
  188.7040  178.3960  140.4440 C   0  0  1  0  0  3  0  0  0  0  0  0
  190.4010  178.5640  144.1310 C   0  0  0  0  0  1  0  0  0  0  0  0
  185.3890  179.3500  144.8210 C   0  0  0  0  0  2  0  0  0  0  0  0
  183.8850  179.5410  144.7150 C   0  0  0  0  0  2  0  0  0  0  0  0
  183.3580  178.9200  143.4370 C   0  0  0  0  0  2  0  0  0  0  0  0
  181.9120  179.3340  143.2390 C   0  0  0  0  0  2  0  0  0  0  0  0
  181.2600  178.4260  142.2100 C   0  0  0  0  0  2  0  0  0  0  0  0
  180.9190  178.2180  138.6670 C   0  0  1  0  0  3  0  0  0  0  0  0
  182.3750  177.4730  140.2250 C   0  0  0  0  0  2  0  0  0  0  0  0
  181.7950  178.7270  140.8210 C   0  0  1  0  0  3  0  0  0  0  0  0
  180.6650  179.0590  139.8980 C   0  0  1  0  0  3  0  0  0  0  0  0
  180.7110  180.8220  139.4610 S   0  0  0  0  0  1  0  0  0  0  0  0
  182.0780  177.4410  138.8520 O   0  0  0  0  0  0  0  0  0  0  0  0
  179.7200  177.3190  138.4110 C   0  0  0  0  0  2  0  0  0  0  0  0
  179.4050  173.6050  138.5580 C   0  0  0  0  0  2  0  0  0  0  0  0
  180.1610  175.6920  136.8170 C   0  0  0  0  0  2  0  0  0  0  0  0
  180.4350  174.2210  136.5270 C   0  0  0  0  0  2  0  0  0  0  0  0
  179.3740  173.4110  137.1130 N   0  0  0  0  0  2  0  0  0  0  0  0
  179.1370  175.0720  138.9040 C   0  0  2  0  0  3  0  0  0  0  0  0
  180.1460  175.9350  138.2620 N   0  0  0  0  0  0  0  0  0  0  0  0
  180.0130  174.1870  140.9450 O   0  0  0  0  0  1  0  0  0  0  0  0
  179.2090  175.1950  140.4200 C   0  0  0  0  0  2  0  0  0  0  0  0
  192.6070  177.3030  138.5700 C   0  0  0  0  0  2  0  0  0  0  0  0
  192.1510  176.7250  137.2430 C   0  0  0  0  0  2  0  0  0  0  0  0
  193.4530  176.3560  135.2080 N   0  0  0  0  0  1  0  0  0  0  0  0
  193.2930  175.9560  136.5990 C   0  0  2  0  0  3  0  0  0  0  0  0
  193.0630  174.4490  136.7200 C   0  0  2  0  0  3  0  0  0  0  0  0
  191.0020  174.1450  135.2990 N   0  0  0  0  0  1  0  0  0  0  0  0
  190.9220  173.8100  137.5920 O   0  0  0  0  0  0  0  0  0  0  0  0
  191.6110  174.1120  136.5830 C   0  0  0  0  0  0  0  0  0  0  0  0
  193.5800  173.9460  137.9250 O   0  0  0  0  0  0  0  0  0  0  0  0
  194.7610  173.4440  137.6100 O   0  0  0  0  0  0  0  0  0  0  0  0
  195.5960  173.7950  138.6770 C   0  0  0  0  0  2  0  0  0  0  0  0
  197.4160  174.5280  137.4040 C   0  0  0  0  0  2  0  0  0  0  0  0
  198.2090  173.8490  136.3180 C   0  0  0  0  0  2  0  0  0  0  0  0
  196.9720  172.2410  137.5810 C   0  0  0  0  0  2  0  0  0  0  0  0
  196.9760  173.4950  138.3290 N   0  0  0  0  0  0  0  0  0  0  0  0
  197.5770  172.4910  136.2140 C   0  0  0  0  0  2  0  0  0  0  0  0
  1  6  1  0  0  0  0
  1 20  1  0  0  0  0
  2 10  2  0  0  0  0
  3 17  1  0  0  0  0
  4 11  1  6  0  0  0
  4 13  1  0  0  0  0
  4  2  1  0  0  0  0
  6  9  2  0  0  0  0
  7  6  1  0  0  0  0
  8 22  1  1  0  0  0
  8 16  1  0  0  0  0
  9  5  1  0  0  0  0
 10 18  1  0  0  0  0
 11  8  1  0  0  0  0
 12 15  1  0  0  0  0
 13 21  1  6  0  0  0
 13 14  1  0  0  0  0
 14 18  2  0  0  0  0
 15 11  2  0  0  0  0
 16  2  1  0  0  0  0
 17 12  1  0  0  0  0
 19  5  1  6  0  0  0
 19 15  1  0  0  0  0
 20  3  1  6  0  0  0
 20 19  1  0  0  0  0
 23 22  1  0  0  0  0
 24 23  1  0  0  0  0
 25 24  1  0  0  0  0
 26 25  1  0  0  0  0
 27 33  1  1  0  0  0
 27 32  1  0  0  0  0
 27 30  1  0  0  0  0
 28 29  1  0  0  0  0
 29 26  1  1  0  0  0
 30 31  1  6  0  0  0
 30 29  1  0  0  0  0
 32 28  1  0  0  0  0
 34 38  1  0  0  0  0
 35 39  1  0  0  0  0
 36 35  1  0  0  0  0
 36 37  1  0  0  0  0
 37 34  1  0  0  0  0
 38 41  1  1  0  0  0
 39 33  1  0  0  0  0
 39 38  1  0  0  0  0
 41 40  1  0  0  0  0
 42  7  1  0  0  0  0
 43 42  1  0  0  0  0
 45 44  1  6  0  0  0
 45 46  1  0  0  0  0
 45 43  1  0  0  0  0
 46 49  1  1  0  0  0
 46 50  1  0  0  0  0
 47 49  1  0  0  0  0
 49 48  2  0  0  0  0
 51 50  1  0  0  0  0
 51 52  1  0  0  0  0
 53 56  1  0  0  0  0
 54 53  1  0  0  0  0
 55 56  1  0  0  0  0
 56 52  1  0  0  0  0
 57 54  1  0  0  0  0
 57 55  1  0  0  0  0
M  END
>  <MODEL>
8

>  <REMARK>
 VINA RESULT:      -5.9      2.417      4.037
  Name = 
  18 active torsions:
  status: ('A' for Active; 'I' for Inactive)
    1  A    between atoms: C_6  and  C_28
    2  A    between atoms: C_10  and  C_14
    3  A    between atoms: C_10  and  C_24
    4  A    between atoms: C_12  and  C_18
    5  A    between atoms: C_12  and  C_20
    6  A    between atoms: C_14  and  C_53
    7  A    between atoms: O_15  and  O_19
    8  A    between atoms: O_15  and  C_23
    9  A    between atoms: C_18  and  C_23
   10  A    between atoms: O_19  and  C_42
   11  A    between atoms: C_20  and  N_30
   12  A    between atoms: C_22  and  C_57
   13  A    between atoms: C_23  and  C_56
   14  A    between atoms: C_24  and  C_57
   15  A    between atoms: C_28  and  N_38
   16  A    between atoms: C_31  and  C_53
   17  A    between atoms: C_35  and  C_41
   18  A    between atoms: C_42  and  N_49
                            x       y       z     vdW  Elec       q    Type
                         _______ _______ _______ _____ _____    ______ ____

>  <TORSDO>
F 18

$$$$
=
 OpenBabel10222417333D

 57 63  0  0  1  0  0  0  0  0999 V2000
  189.3150  176.7770  142.4830 C   0  0  0  0  0  2  0  0  0  0  0  0
  188.4600  177.8370  135.7320 C   0  0  0  0  0  0  0  0  0  0  0  0
  187.4200  178.3580  142.0320 C   0  0  0  0  0  2  0  0  0  0  0  0
  188.8170  177.3340  137.0820 C   0  0  1  0  0  3  0  0  0  0  0  0
  189.8520  178.3300  140.0990 C   0  0  0  0  0  2  0  0  0  0  0  0
  190.7150  177.0810  141.9960 C   0  0  0  0  0  0  0  0  0  0  0  0
  191.8370  176.5460  142.7020 N   0  0  0  0  0  2  0  0  0  0  0  0
  186.6460  178.5460  136.9590 C   0  0  1  0  0  3  0  0  0  0  0  0
  190.9260  177.7530  140.9030 N   0  0  0  0  0  0  0  0  0  0  0  0
  189.0250  177.3970  134.6510 N   0  0  0  0  0  0  0  0  0  0  0  0
  187.6150  177.8140  137.8600 C   0  0  0  0  0  0  0  0  0  0  0  0
  186.5110  178.6380  139.7930 O   0  0  0  0  0  0  0  0  0  0  0  0
  189.0180  175.8100  136.9660 C   0  0  1  0  0  3  0  0  0  0  0  0
  189.9730  175.5270  135.8300 C   0  0  0  0  0  3  0  0  0  0  0  0
  187.5630  177.9200  139.2010 C   0  0  0  0  0  0  0  0  0  0  0  0
  187.3430  178.6500  135.7250 O   0  0  0  0  0  0  0  0  0  0  0  0
  186.1770  178.5360  141.1770 C   0  0  0  0  0  2  0  0  0  0  0  0
  189.9400  176.2900  134.7290 C   0  0  0  0  0  3  0  0  0  0  0  0
  188.6660  177.3760  140.0750 C   0  0  2  0  0  3  0  0  0  0  0  0
  188.1810  177.1450  141.5140 C   0  0  1  0  0  3  0  0  0  0  0  0
  189.5960  175.2110  138.2330 C   0  0  0  0  0  1  0  0  0  0  0  0
  185.3880  177.7080  136.7240 C   0  0  0  0  0  2  0  0  0  0  0  0
  184.4560  177.6870  137.9250 C   0  0  0  0  0  2  0  0  0  0  0  0
  184.0180  179.0930  138.2830 C   0  0  0  0  0  2  0  0  0  0  0  0
  182.5020  179.1560  138.2990 C   0  0  0  0  0  2  0  0  0  0  0  0
  181.9600  178.1170  139.2650 C   0  0  0  0  0  2  0  0  0  0  0  0
  180.7910  175.6390  136.9810 C   0  0  1  0  0  3  0  0  0  0  0  0
  180.5670  177.8720  137.2410 C   0  0  0  0  0  2  0  0  0  0  0  0
  180.8080  177.3540  138.6330 C   0  0  1  0  0  3  0  0  0  0  0  0
  181.2010  175.9270  138.4090 C   0  0  1  0  0  3  0  0  0  0  0  0
  180.2890  174.8410  139.5440 S   0  0  0  0  0  1  0  0  0  0  0  0
  180.2310  176.7940  136.4050 O   0  0  0  0  0  0  0  0  0  0  0  0
  182.0080  175.1930  136.1860 C   0  0  0  0  0  2  0  0  0  0  0  0
  182.2170  171.4950  136.6290 C   0  0  0  0  0  2  0  0  0  0  0  0
  180.4410  173.5250  135.8050 C   0  0  0  0  0  2  0  0  0  0  0  0
  180.1750  172.0410  135.5820 C   0  0  0  0  0  2  0  0  0  0  0  0
  180.7750  171.2780  136.6700 N   0  0  0  0  0  2  0  0  0  0  0  0
  182.5380  172.9750  136.8450 C   0  0  2  0  0  3  0  0  0  0  0  0
  181.8810  173.7920  135.8080 N   0  0  0  0  0  0  0  0  0  0  0  0
  184.5470  173.6240  137.9670 O   0  0  0  0  0  1  0  0  0  0  0  0
  184.0520  173.1210  136.7670 C   0  0  0  0  0  2  0  0  0  0  0  0
  191.6820  175.8190  143.9470 C   0  0  0  0  0  2  0  0  0  0  0  0
  191.8900  176.7650  145.1160 C   0  0  0  0  0  2  0  0  0  0  0  0
  190.1890  178.5150  145.2430 N   0  0  0  0  0  1  0  0  0  0  0  0
  190.5430  177.1740  145.6900 C   0  0  2  0  0  3  0  0  0  0  0  0
  190.5590  177.0840  147.2160 C   0  0  2  0  0  3  0  0  0  0  0  0
  192.7210  176.7510  148.4710 N   0  0  0  0  0  1  0  0  0  0  0  0
  191.6800  174.9730  147.4060 O   0  0  0  0  0  0  0  0  0  0  0  0
  191.6660  176.1990  147.6940 C   0  0  0  0  0  0  0  0  0  0  0  0
  189.3200  176.6490  147.7170 O   0  0  0  0  0  0  0  0  0  0  0  0
  188.7120  177.7470  148.1300 O   0  0  0  0  0  0  0  0  0  0  0  0
  187.3690  177.5650  147.7810 C   0  0  0  0  0  2  0  0  0  0  0  0
  185.7070  179.0020  146.9790 C   0  0  0  0  0  2  0  0  0  0  0  0
  184.9300  179.0030  145.6880 C   0  0  0  0  0  2  0  0  0  0  0  0
  186.8890  177.6500  145.4850 C   0  0  0  0  0  2  0  0  0  0  0  0
  187.0270  178.4640  146.6900 N   0  0  0  0  0  0  0  0  0  0  0  0
  185.4870  177.8270  144.9390 C   0  0  0  0  0  2  0  0  0  0  0  0
  4  2  1  6  0  0  0
  4 11  1  0  0  0  0
  5  9  1  0  0  0  0
  6  1  1  0  0  0  0
  6  7  1  0  0  0  0
  7 42  1  0  0  0  0
  8 22  1  6  0  0  0
  8 11  1  0  0  0  0
  9  6  2  0  0  0  0
 10 18  1  0  0  0  0
 10  2  2  0  0  0  0
 11 15  2  0  0  0  0
 12 17  1  0  0  0  0
 13  4  1  0  0  0  0
 13 21  1  1  0  0  0
 14 13  1  0  0  0  0
 15 12  1  0  0  0  0
 15 19  1  0  0  0  0
 16  2  1  0  0  0  0
 16  8  1  0  0  0  0
 17  3  1  0  0  0  0
 18 14  2  0  0  0  0
 19  5  1  1  0  0  0
 19 20  1  0  0  0  0
 20  3  1  1  0  0  0
 20  1  1  0  0  0  0
 22 23  1  0  0  0  0
 23 24  1  0  0  0  0
 24 25  1  0  0  0  0
 25 26  1  0  0  0  0
 27 33  1  6  0  0  0
 27 30  1  0  0  0  0
 28 29  1  0  0  0  0
 29 26  1  6  0  0  0
 30 29  1  0  0  0  0
 30 31  1  1  0  0  0
 32 27  1  0  0  0  0
 32 28  1  0  0  0  0
 34 37  1  0  0  0  0
 34 38  1  0  0  0  0
 35 39  1  0  0  0  0
 36 35  1  0  0  0  0
 36 37  1  0  0  0  0
 38 41  1  6  0  0  0
 39 33  1  0  0  0  0
 39 38  1  0  0  0  0
 41 40  1  0  0  0  0
 42 43  1  0  0  0  0
 43 45  1  0  0  0  0
 45 44  1  1  0  0  0
 45 46  1  0  0  0  0
 46 49  1  6  0  0  0
 46 50  1  0  0  0  0
 48 49  2  0  0  0  0
 49 47  1  0  0  0  0
 50 51  1  0  0  0  0
 52 51  1  0  0  0  0
 54 53  1  0  0  0  0
 55 56  1  0  0  0  0
 56 53  1  0  0  0  0
 56 52  1  0  0  0  0
 57 55  1  0  0  0  0
 57 54  1  0  0  0  0
M  END
>  <MODEL>
9

>  <REMARK>
 VINA RESULT:      -5.9      2.847      7.828
  Name = 
  18 active torsions:
  status: ('A' for Active; 'I' for Inactive)
    1  A    between atoms: C_6  and  C_28
    2  A    between atoms: C_10  and  C_14
    3  A    between atoms: C_10  and  C_24
    4  A    between atoms: C_12  and  C_18
    5  A    between atoms: C_12  and  C_20
    6  A    between atoms: C_14  and  C_53
    7  A    between atoms: O_15  and  O_19
    8  A    between atoms: O_15  and  C_23
    9  A    between atoms: C_18  and  C_23
   10  A    between atoms: O_19  and  C_42
   11  A    between atoms: C_20  and  N_30
   12  A    between atoms: C_22  and  C_57
   13  A    between atoms: C_23  and  C_56
   14  A    between atoms: C_24  and  C_57
   15  A    between atoms: C_28  and  N_38
   16  A    between atoms: C_31  and  C_53
   17  A    between atoms: C_35  and  C_41
   18  A    between atoms: C_42  and  N_49
                            x       y       z     vdW  Elec       q    Type
                         _______ _______ _______ _____ _____    ______ ____

>  <TORSDO>
F 18

$$$$
