=
 OpenBabel10222418453D

 52 56  0  0  1  0  0  0  0  0999 V2000
  189.1550  175.7870  137.2420 N   0  0  0  0  0  2  0  0  0  0  0  0
  190.0790  176.6050  139.1930 C   0  0  1  0  0  3  0  0  0  0  0  0
  188.0520  177.4940  138.7250 N   0  0  0  0  0  0  0  0  0  0  0  0
  186.8480  177.7440  137.9860 C   0  0  0  0  0  0  0  0  0  0  0  0
  186.1930  178.7970  138.1950 O   0  0  0  0  0  0  0  0  0  0  0  0
  191.5430  175.8900  138.4660 S   0  0  0  0  0  0  0  0  0  0  0  0
  190.0030  177.8240  140.0520 C   0  0  0  0  0  2  0  0  0  0  0  0
  189.0140  176.4860  138.4670 C   0  0  1  0  0  3  0  0  0  0  0  0
  188.5970  178.3850  139.7440 C   0  0  2  0  0  3  0  0  0  0  0  0
  190.4970  175.2430  137.0890 C   0  0  2  0  0  3  0  0  0  0  0  0
  191.0680  175.6650  135.7450 C   0  0  0  0  0  2  0  0  0  0  0  0
  191.1270  174.5650  134.8890 O   0  0  0  0  0  0  0  0  0  0  0  0
  191.4170  173.4850  135.7280 C   0  0  0  0  0  2  0  0  0  0  0  0
  192.7470  172.8820  135.3300 C   0  0  0  0  0  1  0  0  0  0  0  0
  187.7700  178.3250  140.9390 N   0  0  0  0  0  2  0  0  0  0  0  0
  188.5010  177.6260  141.9100 N   0  0  0  0  0  2  0  0  0  0  0  0
  190.9170  176.7000  146.3070 C   0  0  0  0  0  0  0  0  0  0  0  0
  191.8890  176.3580  147.3780 C   0  0  0  0  0  1  0  0  0  0  0  0
  187.4190  177.7400  145.9710 N   0  0  0  0  0  0  0  0  0  0  0  0
  190.3940  176.9750  143.9560 C   0  0  0  0  0  3  0  0  0  0  0  0
  189.0810  177.3420  144.2840 C   0  0  0  0  0  0  0  0  0  0  0  0
  188.1400  177.6680  143.2940 C   0  0  0  0  0  0  0  0  0  0  0  0
  191.3090  176.6550  144.9660 C   0  0  0  0  0  3  0  0  0  0  0  0
  188.6890  177.3850  145.6400 C   0  0  0  0  0  0  0  0  0  0  0  0
  186.8430  178.0290  143.6750 C   0  0  0  0  0  3  0  0  0  0  0  0
  189.6090  177.0640  146.6440 C   0  0  0  0  0  3  0  0  0  0  0  0
  186.4850  178.0570  145.0290 C   0  0  0  0  0  0  0  0  0  0  0  0
  185.1290  178.4610  145.4690 C   0  0  0  0  0  0  0  0  0  0  0  0
  184.0910  178.8880  144.5670 N   0  0  0  0  0  2  0  0  0  0  0  0
  184.8680  178.4300  146.7010 O   0  0  0  0  0  0  0  0  0  0  0  0
  184.1590  178.6940  141.9650 C   0  0  0  0  0  3  0  0  0  0  0  0
  184.1320  178.7820  143.1680 C   0  0  0  0  0  0  0  0  0  0  0  0
  186.3300  176.7570  136.9880 C   0  0  0  0  0  2  0  0  0  0  0  0
  185.1800  177.3480  136.1840 C   0  0  0  0  0  2  0  0  0  0  0  0
  182.8390  177.9770  136.8260 N   0  0  0  0  0  0  0  0  0  0  0  0
  181.9380  176.3080  138.0160 C   0  0  0  0  0  0  0  0  0  0  0  0
  183.8710  177.1060  136.8580 C   0  0  0  0  0  0  0  0  0  0  0  0
  181.7600  177.5340  137.4740 N   0  0  0  0  0  0  0  0  0  0  0  0
  180.9240  175.5990  138.7320 N   0  0  0  0  0  2  0  0  0  0  0  0
  183.4780  175.7050  137.7120 S   0  0  0  0  0  0  0  0  0  0  0  0
  179.5820  176.1390  138.9110 C   0  0  0  0  0  2  0  0  0  0  0  0
  178.9310  175.6350  140.2030 C   0  0  2  0  0  3  0  0  0  0  0  0
  179.6170  177.6380  141.2690 C   0  0  0  0  0  3  0  0  0  0  0  0
  179.3800  176.3790  141.3540 N   0  0  0  0  0  0  0  0  0  0  0  0
  180.0660  178.4080  142.4710 C   0  0  0  0  0  2  0  0  0  0  0  0
  179.3680  179.7610  142.5570 C   0  0  1  0  0  3  0  0  0  0  0  0
  180.2270  180.6780  143.1610 O   0  0  0  0  0  1  0  0  0  0  0  0
  179.0000  180.2720  141.1700 C   0  0  0  0  0  2  0  0  0  0  0  0
  180.0150  181.0880  140.6700 O   0  0  0  0  0  0  0  0  0  0  0  0
  180.3370  180.5280  139.4300 C   0  0  0  0  0  1  0  0  0  0  0  0
  179.1320  174.1640  140.4140 C   0  0  0  0  0  3  0  0  0  0  0  0
  179.8650  173.7480  141.2950 O   0  0  0  0  0  0  0  0  0  0  0  0
  2  7  1  6  0  0  0
  3  9  1  0  0  0  0
  4  5  2  0  0  0  0
  4  3  1  0  0  0  0
  6  2  1  0  0  0  0
  8  1  1  6  0  0  0
  8  3  1  0  0  0  0
  8  2  1  0  0  0  0
  9  7  1  0  0  0  0
  9 15  1  1  0  0  0
 10 11  1  6  0  0  0
 10  1  1  0  0  0  0
 10  6  1  0  0  0  0
 12 13  1  0  0  0  0
 12 11  1  0  0  0  0
 14 13  1  0  0  0  0
 15 16  1  0  0  0  0
 16 22  1  0  0  0  0
 17 26  1  0  0  0  0
 17 18  1  0  0  0  0
 20 21  2  0  0  0  0
 20 23  1  0  0  0  0
 21 24  1  0  0  0  0
 22 25  2  0  0  0  0
 22 21  1  0  0  0  0
 23 17  2  0  0  0  0
 24 19  1  0  0  0  0
 24 26  2  0  0  0  0
 25 27  1  0  0  0  0
 27 28  1  0  0  0  0
 27 19  2  0  0  0  0
 28 30  2  0  0  0  0
 29 28  1  0  0  0  0
 31 32  3  0  0  0  0
 32 29  1  0  0  0  0
 33  4  1  0  0  0  0
 34 37  1  0  0  0  0
 34 33  1  0  0  0  0
 35 37  2  0  0  0  0
 35 38  1  0  0  0  0
 36 39  1  0  0  0  0
 37 40  1  0  0  0  0
 38 36  2  0  0  0  0
 39 41  1  0  0  0  0
 40 36  1  0  0  0  0
 42 41  1  6  0  0  0
 42 51  1  0  0  0  0
 42 44  1  0  0  0  0
 43 44  2  0  0  0  0
 43 45  1  0  0  0  0
 45 46  1  0  0  0  0
 46 47  1  6  0  0  0
 48 46  1  0  0  0  0
 49 48  1  0  0  0  0
 50 49  1  0  0  0  0
 51 52  2  0  0  0  0
M  END
>  <MODEL>
1

>  <REMARK>
 VINA RESULT:      -7.8      0.000      0.000
  Name = 
  19 active torsions:
  status: ('A' for Active; 'I' for Inactive)
    1  A    between atoms: N_1  and  N_40
    2  A    between atoms: N_1  and  C_42
    3  A    between atoms: O_2  and  C_38
    4  A    between atoms: C_4  and  O_8
    5  A    between atoms: C_5  and  C_51
    6  A    between atoms: C_7  and  C_21
    7  A    between atoms: C_7  and  C_22
    8  A    between atoms: O_8  and  C_47
    9  A    between atoms: C_9  and  C_23
   10  A    between atoms: C_16  and  C_22
   11  A    between atoms: N_19  and  C_48
   12  A    between atoms: C_23  and  C_26
   13  A    between atoms: N_24  and  CA_34
   14  A    between atoms: C_26  and  C_38
   15  A    between atoms: C_28  and  N_40
   16  A    between atoms: C_29  and  CA_34
   17  A    between atoms: C_29  and  N_41
   18  A    between atoms: C_32  and  CA_34
   19  A    between atoms: C_47  and  C_50
                            x       y       z     vdW  Elec       q    Type
                         _______ _______ _______ _____ _____    ______ ____

>  <TORSDO>
F 19

$$$$
=
 OpenBabel10222418453D

 52 56  0  0  1  0  0  0  0  0999 V2000
  189.4790  175.8530  137.1980 N   0  0  0  0  0  2  0  0  0  0  0  0
  190.4370  176.4210  139.2210 C   0  0  1  0  0  3  0  0  0  0  0  0
  188.4000  177.3530  138.9070 N   0  0  0  0  0  0  0  0  0  0  0  0
  187.1810  177.6890  138.2260 C   0  0  0  0  0  0  0  0  0  0  0  0
  186.5280  178.7040  138.5800 O   0  0  0  0  0  0  0  0  0  0  0  0
  191.8890  175.8100  138.3820 S   0  0  0  0  0  0  0  0  0  0  0  0
  190.3740  177.5190  140.2290 C   0  0  0  0  0  2  0  0  0  0  0  0
  189.3590  176.3890  138.5040 C   0  0  1  0  0  3  0  0  0  0  0  0
  188.9620  178.1090  140.0210 C   0  0  2  0  0  3  0  0  0  0  0  0
  190.8190  175.3380  136.9530 C   0  0  2  0  0  3  0  0  0  0  0  0
  191.3640  175.9310  135.6640 C   0  0  0  0  0  2  0  0  0  0  0  0
  191.5840  174.9160  134.7320 O   0  0  0  0  0  0  0  0  0  0  0  0
  192.9760  174.8400  134.6210 C   0  0  0  0  0  2  0  0  0  0  0  0
  193.5610  176.2350  134.6670 C   0  0  0  0  0  1  0  0  0  0  0  0
  188.1570  177.8930  141.2120 N   0  0  0  0  0  2  0  0  0  0  0  0
  189.0450  177.6590  142.2710 N   0  0  0  0  0  2  0  0  0  0  0  0
  191.1840  176.5340  146.7650 C   0  0  0  0  0  0  0  0  0  0  0  0
  192.0870  176.1350  147.8760 C   0  0  0  0  0  1  0  0  0  0  0  0
  187.7330  177.6570  146.2650 N   0  0  0  0  0  0  0  0  0  0  0  0
  190.8040  176.9000  144.3980 C   0  0  0  0  0  3  0  0  0  0  0  0
  189.4810  177.2820  144.6630 C   0  0  0  0  0  0  0  0  0  0  0  0
  188.6060  177.6610  143.6330 C   0  0  0  0  0  0  0  0  0  0  0  0
  191.6520  176.5260  145.4470 C   0  0  0  0  0  3  0  0  0  0  0  0
  189.0130  177.2880  145.9960 C   0  0  0  0  0  0  0  0  0  0  0  0
  187.2960  178.0370  143.9520 C   0  0  0  0  0  3  0  0  0  0  0  0
  189.8660  176.9130  147.0390 C   0  0  0  0  0  3  0  0  0  0  0  0
  186.8610  178.0260  145.2830 C   0  0  0  0  0  0  0  0  0  0  0  0
  185.4900  178.4430  145.6590 C   0  0  0  0  0  0  0  0  0  0  0  0
  184.4530  178.7330  144.7030 N   0  0  0  0  0  2  0  0  0  0  0  0
  185.2140  178.5510  146.8840 O   0  0  0  0  0  0  0  0  0  0  0  0
  184.5640  178.2400  142.1420 C   0  0  0  0  0  3  0  0  0  0  0  0
  184.5140  178.4640  143.3260 C   0  0  0  0  0  0  0  0  0  0  0  0
  186.6480  176.8340  137.1200 C   0  0  0  0  0  2  0  0  0  0  0  0
  185.5870  177.5800  136.3210 C   0  0  0  0  0  2  0  0  0  0  0  0
  183.1020  177.3580  136.0620 N   0  0  0  0  0  0  0  0  0  0  0  0
  182.5530  175.1890  136.1420 C   0  0  0  0  0  0  0  0  0  0  0  0
  184.3170  176.7990  136.2510 C   0  0  0  0  0  0  0  0  0  0  0  0
  182.1170  176.4620  136.0040 N   0  0  0  0  0  0  0  0  0  0  0  0
  181.7000  174.0440  136.0840 N   0  0  0  0  0  2  0  0  0  0  0  0
  184.2200  175.1170  136.3520 S   0  0  0  0  0  0  0  0  0  0  0  0
  180.2690  174.1560  135.8330 C   0  0  0  0  0  2  0  0  0  0  0  0
  179.4400  173.6460  137.0170 C   0  0  2  0  0  3  0  0  0  0  0  0
  180.0140  175.0470  138.8410 C   0  0  0  0  0  3  0  0  0  0  0  0
  179.1490  174.6980  137.9590 N   0  0  0  0  0  0  0  0  0  0  0  0
  179.7120  176.1510  139.8050 C   0  0  0  0  0  2  0  0  0  0  0  0
  180.9440  177.0110  140.0670 C   0  0  1  0  0  3  0  0  0  0  0  0
  182.0800  176.3150  139.6550 O   0  0  0  0  0  1  0  0  0  0  0  0
  180.8650  178.3230  139.2980 C   0  0  0  0  0  2  0  0  0  0  0  0
  181.3700  179.3690  140.0720 O   0  0  0  0  0  0  0  0  0  0  0  0
  180.9610  180.5280  139.4060 C   0  0  0  0  0  1  0  0  0  0  0  0
  180.0790  172.4790  137.7070 C   0  0  0  0  0  3  0  0  0  0  0  0
  179.9950  171.3520  137.2490 O   0  0  0  0  0  0  0  0  0  0  0  0
  2  7  1  6  0  0  0
  3  9  1  0  0  0  0
  4  5  2  0  0  0  0
  4  3  1  0  0  0  0
  6  2  1  0  0  0  0
  8  1  1  6  0  0  0
  8  3  1  0  0  0  0
  8  2  1  0  0  0  0
  9  7  1  0  0  0  0
  9 15  1  1  0  0  0
 10 11  1  6  0  0  0
 10  1  1  0  0  0  0
 10  6  1  0  0  0  0
 12 11  1  0  0  0  0
 13 14  1  0  0  0  0
 13 12  1  0  0  0  0
 15 16  1  0  0  0  0
 16 22  1  0  0  0  0
 17 26  1  0  0  0  0
 17 18  1  0  0  0  0
 20 21  2  0  0  0  0
 20 23  1  0  0  0  0
 21 24  1  0  0  0  0
 22 25  2  0  0  0  0
 22 21  1  0  0  0  0
 23 17  2  0  0  0  0
 24 19  1  0  0  0  0
 24 26  2  0  0  0  0
 25 27  1  0  0  0  0
 27 28  1  0  0  0  0
 27 19  2  0  0  0  0
 28 30  2  0  0  0  0
 29 28  1  0  0  0  0
 31 32  3  0  0  0  0
 32 29  1  0  0  0  0
 33  4  1  0  0  0  0
 34 33  1  0  0  0  0
 35 37  2  0  0  0  0
 36 40  1  0  0  0  0
 37 34  1  0  0  0  0
 37 40  1  0  0  0  0
 38 35  1  0  0  0  0
 38 36  2  0  0  0  0
 39 36  1  0  0  0  0
 41 39  1  0  0  0  0
 42 41  1  6  0  0  0
 42 51  1  0  0  0  0
 42 44  1  0  0  0  0
 43 45  1  0  0  0  0
 44 43  2  0  0  0  0
 45 46  1  0  0  0  0
 46 47  1  6  0  0  0
 48 46  1  0  0  0  0
 48 49  1  0  0  0  0
 50 49  1  0  0  0  0
 52 51  2  0  0  0  0
M  END
>  <MODEL>
2

>  <REMARK>
 VINA RESULT:      -7.5      1.602      2.043
  Name = 
  19 active torsions:
  status: ('A' for Active; 'I' for Inactive)
    1  A    between atoms: N_1  and  N_40
    2  A    between atoms: N_1  and  C_42
    3  A    between atoms: O_2  and  C_38
    4  A    between atoms: C_4  and  O_8
    5  A    between atoms: C_5  and  C_51
    6  A    between atoms: C_7  and  C_21
    7  A    between atoms: C_7  and  C_22
    8  A    between atoms: O_8  and  C_47
    9  A    between atoms: C_9  and  C_23
   10  A    between atoms: C_16  and  C_22
   11  A    between atoms: N_19  and  C_48
   12  A    between atoms: C_23  and  C_26
   13  A    between atoms: N_24  and  CA_34
   14  A    between atoms: C_26  and  C_38
   15  A    between atoms: C_28  and  N_40
   16  A    between atoms: C_29  and  CA_34
   17  A    between atoms: C_29  and  N_41
   18  A    between atoms: C_32  and  CA_34
   19  A    between atoms: C_47  and  C_50
                            x       y       z     vdW  Elec       q    Type
                         _______ _______ _______ _____ _____    ______ ____

>  <TORSDO>
F 19

$$$$
=
 OpenBabel10222418453D

 52 56  0  0  1  0  0  0  0  0999 V2000
  189.2690  175.7710  137.4120 N   0  0  0  0  0  2  0  0  0  0  0  0
  190.0730  176.7850  139.3230 C   0  0  1  0  0  3  0  0  0  0  0  0
  187.9990  177.4820  138.7500 N   0  0  0  0  0  0  0  0  0  0  0  0
  186.8000  177.5880  137.9680 C   0  0  0  0  0  0  0  0  0  0  0  0
  186.0620  178.5980  138.0900 O   0  0  0  0  0  0  0  0  0  0  0  0
  191.6070  176.1400  138.6800 S   0  0  0  0  0  0  0  0  0  0  0  0
  189.8810  178.0490  140.0960 C   0  0  0  0  0  2  0  0  0  0  0  0
  189.0410  176.5360  138.5830 C   0  0  1  0  0  3  0  0  0  0  0  0
  188.4460  178.4780  139.7180 C   0  0  2  0  0  3  0  0  0  0  0  0
  190.6530  175.3230  137.3270 C   0  0  2  0  0  3  0  0  0  0  0  0
  191.2270  175.6990  135.9710 C   0  0  0  0  0  2  0  0  0  0  0  0
  192.0070  174.6510  135.4800 O   0  0  0  0  0  0  0  0  0  0  0  0
  191.4770  173.5080  136.0860 C   0  0  0  0  0  2  0  0  0  0  0  0
  191.9730  172.2770  135.3590 C   0  0  0  0  0  1  0  0  0  0  0  0
  187.5920  178.4320  140.8950 N   0  0  0  0  0  2  0  0  0  0  0  0
  188.2540  177.6500  141.8520 N   0  0  0  0  0  2  0  0  0  0  0  0
  190.7010  176.7390  146.2360 C   0  0  0  0  0  0  0  0  0  0  0  0
  191.6800  176.3950  147.3000 C   0  0  0  0  0  1  0  0  0  0  0  0
  187.2130  177.8170  145.9220 N   0  0  0  0  0  0  0  0  0  0  0  0
  190.1600  176.9970  143.8870 C   0  0  0  0  0  3  0  0  0  0  0  0
  188.8540  177.3820  144.2230 C   0  0  0  0  0  0  0  0  0  0  0  0
  187.9080  177.7100  143.2390 C   0  0  0  0  0  0  0  0  0  0  0  0
  191.0790  176.6750  144.8910 C   0  0  0  0  0  3  0  0  0  0  0  0
  188.4760  177.4450  145.5830 C   0  0  0  0  0  0  0  0  0  0  0  0
  186.6190  178.0910  143.6290 C   0  0  0  0  0  3  0  0  0  0  0  0
  189.4010  177.1220  146.5810 C   0  0  0  0  0  3  0  0  0  0  0  0
  186.2740  178.1370  144.9850 C   0  0  0  0  0  0  0  0  0  0  0  0
  184.9270  178.5620  145.4340 C   0  0  0  0  0  0  0  0  0  0  0  0
  183.8520  178.8870  144.5350 N   0  0  0  0  0  2  0  0  0  0  0  0
  184.7100  178.6440  146.6730 O   0  0  0  0  0  0  0  0  0  0  0  0
  183.8380  178.4420  141.9630 C   0  0  0  0  0  3  0  0  0  0  0  0
  183.8460  178.6510  143.1510 C   0  0  0  0  0  0  0  0  0  0  0  0
  186.3870  176.4990  137.0280 C   0  0  0  0  0  2  0  0  0  0  0  0
  185.3320  176.9980  136.0490 C   0  0  0  0  0  2  0  0  0  0  0  0
  183.0460  177.9880  136.3360 N   0  0  0  0  0  0  0  0  0  0  0  0
  181.9790  176.8930  137.9720 C   0  0  0  0  0  0  0  0  0  0  0  0
  183.9950  177.1010  136.7050 C   0  0  0  0  0  0  0  0  0  0  0  0
  181.9210  177.8750  137.0440 N   0  0  0  0  0  0  0  0  0  0  0  0
  180.8940  176.5490  138.8360 N   0  0  0  0  0  2  0  0  0  0  0  0
  183.4640  176.1040  137.9590 S   0  0  0  0  0  0  0  0  0  0  0  0
  179.6020  177.2210  138.7630 C   0  0  0  0  0  2  0  0  0  0  0  0
  179.2550  177.9340  140.0730 C   0  0  2  0  0  3  0  0  0  0  0  0
  180.2500  179.9800  139.4070 C   0  0  0  0  0  3  0  0  0  0  0  0
  179.2430  179.3680  139.9150 N   0  0  0  0  0  0  0  0  0  0  0  0
  180.2240  181.4660  139.2300 C   0  0  0  0  0  2  0  0  0  0  0  0
  180.7270  181.8690  137.8480 C   0  0  1  0  0  3  0  0  0  0  0  0
  180.4520  180.8410  136.9470 O   0  0  0  0  0  1  0  0  0  0  0  0
  180.0410  183.1410  137.3680 C   0  0  0  0  0  2  0  0  0  0  0  0
  180.9160  184.2240  137.4520 O   0  0  0  0  0  0  0  0  0  0  0  0
  180.0880  185.3270  137.6880 C   0  0  0  0  0  1  0  0  0  0  0  0
  180.1540  177.5350  141.2030 C   0  0  0  0  0  3  0  0  0  0  0  0
  180.3840  178.2980  142.1270 O   0  0  0  0  0  0  0  0  0  0  0  0
  2  7  1  6  0  0  0
  3  9  1  0  0  0  0
  4  5  2  0  0  0  0
  4  3  1  0  0  0  0
  6  2  1  0  0  0  0
  8  1  1  6  0  0  0
  8  3  1  0  0  0  0
  8  2  1  0  0  0  0
  9  7  1  0  0  0  0
  9 15  1  1  0  0  0
 10 11  1  6  0  0  0
 10  1  1  0  0  0  0
 10  6  1  0  0  0  0
 12 11  1  0  0  0  0
 12 13  1  0  0  0  0
 14 13  1  0  0  0  0
 15 16  1  0  0  0  0
 16 22  1  0  0  0  0
 17 26  1  0  0  0  0
 17 18  1  0  0  0  0
 20 21  2  0  0  0  0
 20 23  1  0  0  0  0
 21 24  1  0  0  0  0
 22 25  2  0  0  0  0
 22 21  1  0  0  0  0
 23 17  2  0  0  0  0
 24 19  1  0  0  0  0
 24 26  2  0  0  0  0
 25 27  1  0  0  0  0
 27 28  1  0  0  0  0
 27 19  2  0  0  0  0
 28 30  2  0  0  0  0
 29 28  1  0  0  0  0
 31 32  3  0  0  0  0
 32 29  1  0  0  0  0
 33  4  1  0  0  0  0
 34 37  1  0  0  0  0
 34 33  1  0  0  0  0
 35 37  2  0  0  0  0
 35 38  1  0  0  0  0
 36 39  1  0  0  0  0
 37 40  1  0  0  0  0
 38 36  2  0  0  0  0
 40 36  1  0  0  0  0
 41 39  1  0  0  0  0
 42 41  1  6  0  0  0
 42 51  1  0  0  0  0
 43 44  2  0  0  0  0
 44 42  1  0  0  0  0
 45 43  1  0  0  0  0
 46 47  1  6  0  0  0
 46 45  1  0  0  0  0
 48 49  1  0  0  0  0
 48 46  1  0  0  0  0
 49 50  1  0  0  0  0
 51 52  2  0  0  0  0
M  END
>  <MODEL>
3

>  <REMARK>
 VINA RESULT:      -7.3      1.423      2.084
  Name = 
  19 active torsions:
  status: ('A' for Active; 'I' for Inactive)
    1  A    between atoms: N_1  and  N_40
    2  A    between atoms: N_1  and  C_42
    3  A    between atoms: O_2  and  C_38
    4  A    between atoms: C_4  and  O_8
    5  A    between atoms: C_5  and  C_51
    6  A    between atoms: C_7  and  C_21
    7  A    between atoms: C_7  and  C_22
    8  A    between atoms: O_8  and  C_47
    9  A    between atoms: C_9  and  C_23
   10  A    between atoms: C_16  and  C_22
   11  A    between atoms: N_19  and  C_48
   12  A    between atoms: C_23  and  C_26
   13  A    between atoms: N_24  and  CA_34
   14  A    between atoms: C_26  and  C_38
   15  A    between atoms: C_28  and  N_40
   16  A    between atoms: C_29  and  CA_34
   17  A    between atoms: C_29  and  N_41
   18  A    between atoms: C_32  and  CA_34
   19  A    between atoms: C_47  and  C_50
                            x       y       z     vdW  Elec       q    Type
                         _______ _______ _______ _____ _____    ______ ____

>  <TORSDO>
F 19

$$$$
=
 OpenBabel10222418453D

 52 56  0  0  1  0  0  0  0  0999 V2000
  187.5470  177.5050  144.9110 N   0  0  0  0  0  2  0  0  0  0  0  0
  185.3700  178.2610  145.0560 C   0  0  1  0  0  3  0  0  0  0  0  0
  186.1700  178.2510  142.9410 N   0  0  0  0  0  0  0  0  0  0  0  0
  187.1230  178.0860  141.8790 C   0  0  0  0  0  0  0  0  0  0  0  0
  186.9540  178.6900  140.7890 O   0  0  0  0  0  0  0  0  0  0  0  0
  185.8340  178.4040  146.7730 S   0  0  0  0  0  0  0  0  0  0  0  0
  184.4280  179.1390  144.3010 C   0  0  0  0  0  2  0  0  0  0  0  0
  186.3170  177.8290  144.2860 C   0  0  1  0  0  3  0  0  0  0  0  0
  184.9730  179.0810  142.8570 C   0  0  2  0  0  3  0  0  0  0  0  0
  187.4620  177.6380  146.3590 C   0  0  2  0  0  3  0  0  0  0  0  0
  188.6010  178.5100  146.8580 C   0  0  0  0  0  2  0  0  0  0  0  0
  189.2610  177.8720  147.9100 O   0  0  0  0  0  0  0  0  0  0  0  0
  189.8110  176.7250  147.3310 C   0  0  0  0  0  2  0  0  0  0  0  0
  190.9850  177.1150  146.4590 C   0  0  0  0  0  1  0  0  0  0  0  0
  183.9970  178.4430  141.9870 N   0  0  0  0  0  2  0  0  0  0  0  0
  183.8700  179.2540  140.8500 N   0  0  0  0  0  2  0  0  0  0  0  0
  180.8140  180.9430  137.1300 C   0  0  0  0  0  0  0  0  0  0  0  0
  179.8980  181.7160  136.2520 C   0  0  0  0  0  1  0  0  0  0  0  0
  182.4960  177.6880  137.1980 N   0  0  0  0  0  0  0  0  0  0  0  0
  182.1160  180.7660  139.1680 C   0  0  0  0  0  3  0  0  0  0  0  0
  182.5400  179.4830  138.7930 C   0  0  0  0  0  0  0  0  0  0  0  0
  183.4030  178.7290  139.6040 C   0  0  0  0  0  0  0  0  0  0  0  0
  181.2550  181.4930  138.3380 C   0  0  0  0  0  3  0  0  0  0  0  0
  182.0920  178.9310  137.5720 C   0  0  0  0  0  0  0  0  0  0  0  0
  183.7980  177.4540  139.1820 C   0  0  0  0  0  3  0  0  0  0  0  0
  181.2310  179.6640  136.7480 C   0  0  0  0  0  3  0  0  0  0  0  0
  183.3310  176.9330  137.9690 C   0  0  0  0  0  0  0  0  0  0  0  0
  183.7500  175.5990  137.4800 C   0  0  0  0  0  0  0  0  0  0  0  0
  184.9930  175.3530  136.7980 N   0  0  0  0  0  2  0  0  0  0  0  0
  182.9750  174.6240  137.6700 O   0  0  0  0  0  0  0  0  0  0  0  0
  186.9730  177.0420  136.6030 C   0  0  0  0  0  3  0  0  0  0  0  0
  186.0580  176.2610  136.6890 C   0  0  0  0  0  0  0  0  0  0  0  0
  188.3040  177.1790  142.0290 C   0  0  0  0  0  2  0  0  0  0  0  0
  189.6050  177.9690  141.9820 C   0  0  0  0  0  2  0  0  0  0  0  0
  191.7790  177.2440  140.9650 N   0  0  0  0  0  0  0  0  0  0  0  0
  191.4540  176.7940  138.7960 C   0  0  0  0  0  0  0  0  0  0  0  0
  190.4640  177.5250  140.8450 C   0  0  0  0  0  0  0  0  0  0  0  0
  192.3340  176.8380  139.8220 N   0  0  0  0  0  0  0  0  0  0  0  0
  191.7900  176.3620  137.4760 N   0  0  0  0  0  2  0  0  0  0  0  0
  189.9130  177.2710  139.2710 S   0  0  0  0  0  0  0  0  0  0  0  0
  193.1270  175.8940  137.1310 C   0  0  0  0  0  2  0  0  0  0  0  0
  193.1020  174.4860  136.5300 C   0  0  2  0  0  3  0  0  0  0  0  0
  195.3830  174.3610  137.1650 C   0  0  0  0  0  3  0  0  0  0  0  0
  194.3010  173.7480  136.8440 N   0  0  0  0  0  0  0  0  0  0  0  0
  196.6190  173.5890  137.5060 C   0  0  0  0  0  2  0  0  0  0  0  0
  197.8360  174.5020  137.5950 C   0  0  1  0  0  3  0  0  0  0  0  0
  197.5160  175.7410  137.0420 O   0  0  0  0  0  1  0  0  0  0  0  0
  198.2600  174.7050  139.0440 C   0  0  0  0  0  2  0  0  0  0  0  0
  197.4020  175.6050  139.6770 O   0  0  0  0  0  0  0  0  0  0  0  0
  197.6530  175.4290  141.0410 C   0  0  0  0  0  1  0  0  0  0  0  0
  192.8590  174.4940  135.0510 C   0  0  0  0  0  3  0  0  0  0  0  0
  191.7290  174.4240  134.5970 O   0  0  0  0  0  0  0  0  0  0  0  0
  1 10  1  0  0  0  0
  2  7  1  6  0  0  0
  2  6  1  0  0  0  0
  3  8  1  0  0  0  0
  4 33  1  0  0  0  0
  4  3  1  0  0  0  0
  5  4  2  0  0  0  0
  8  1  1  1  0  0  0
  8  2  1  0  0  0  0
  9 15  1  6  0  0  0
  9  3  1  0  0  0  0
  9  7  1  0  0  0  0
 10  6  1  0  0  0  0
 10 11  1  6  0  0  0
 11 12  1  0  0  0  0
 13 12  1  0  0  0  0
 14 13  1  0  0  0  0
 16 15  1  0  0  0  0
 17 23  1  0  0  0  0
 18 17  1  0  0  0  0
 19 24  2  0  0  0  0
 19 27  1  0  0  0  0
 21 20  1  0  0  0  0
 21 22  2  0  0  0  0
 22 16  1  0  0  0  0
 23 20  2  0  0  0  0
 24 21  1  0  0  0  0
 25 22  1  0  0  0  0
 26 17  2  0  0  0  0
 26 24  1  0  0  0  0
 27 25  2  0  0  0  0
 28 30  2  0  0  0  0
 28 27  1  0  0  0  0
 29 28  1  0  0  0  0
 31 32  3  0  0  0  0
 32 29  1  0  0  0  0
 34 33  1  0  0  0  0
 36 40  1  0  0  0  0
 36 38  2  0  0  0  0
 37 35  2  0  0  0  0
 37 34  1  0  0  0  0
 38 35  1  0  0  0  0
 39 36  1  0  0  0  0
 40 37  1  0  0  0  0
 41 39  1  0  0  0  0
 42 51  1  6  0  0  0
 42 44  1  0  0  0  0
 42 41  1  0  0  0  0
 43 45  1  0  0  0  0
 44 43  2  0  0  0  0
 45 46  1  0  0  0  0
 46 47  1  1  0  0  0
 46 48  1  0  0  0  0
 48 49  1  0  0  0  0
 49 50  1  0  0  0  0
 52 51  2  0  0  0  0
M  END
>  <MODEL>
4

>  <REMARK>
 VINA RESULT:      -7.2      3.505     11.558
  Name = 
  19 active torsions:
  status: ('A' for Active; 'I' for Inactive)
    1  A    between atoms: N_1  and  N_40
    2  A    between atoms: N_1  and  C_42
    3  A    between atoms: O_2  and  C_38
    4  A    between atoms: C_4  and  O_8
    5  A    between atoms: C_5  and  C_51
    6  A    between atoms: C_7  and  C_21
    7  A    between atoms: C_7  and  C_22
    8  A    between atoms: O_8  and  C_47
    9  A    between atoms: C_9  and  C_23
   10  A    between atoms: C_16  and  C_22
   11  A    between atoms: N_19  and  C_48
   12  A    between atoms: C_23  and  C_26
   13  A    between atoms: N_24  and  CA_34
   14  A    between atoms: C_26  and  C_38
   15  A    between atoms: C_28  and  N_40
   16  A    between atoms: C_29  and  CA_34
   17  A    between atoms: C_29  and  N_41
   18  A    between atoms: C_32  and  CA_34
   19  A    between atoms: C_47  and  C_50
                            x       y       z     vdW  Elec       q    Type
                         _______ _______ _______ _____ _____    ______ ____

>  <TORSDO>
F 19

$$$$
=
 OpenBabel10222418453D

 52 56  0  0  1  0  0  0  0  0999 V2000
  187.2470  177.4470  144.8560 N   0  0  0  0  0  2  0  0  0  0  0  0
  185.1320  178.3710  144.8610 C   0  0  1  0  0  3  0  0  0  0  0  0
  186.0770  178.3200  142.8070 N   0  0  0  0  0  0  0  0  0  0  0  0
  187.0860  178.0910  141.8120 C   0  0  0  0  0  0  0  0  0  0  0  0
  187.0430  178.7170  140.7220 O   0  0  0  0  0  0  0  0  0  0  0  0
  185.4820  178.4600  146.6080 S   0  0  0  0  0  0  0  0  0  0  0  0
  184.3180  179.3300  144.0560 C   0  0  0  0  0  2  0  0  0  0  0  0
  186.0940  177.8740  144.1520 C   0  0  1  0  0  3  0  0  0  0  0  0
  184.9580  179.2430  142.6530 C   0  0  2  0  0  3  0  0  0  0  0  0
  187.0700  177.5710  146.2970 C   0  0  2  0  0  3  0  0  0  0  0  0
  188.2370  178.3450  146.8880 C   0  0  0  0  0  2  0  0  0  0  0  0
  188.7230  177.6810  148.0150 O   0  0  0  0  0  0  0  0  0  0  0  0
  189.4330  176.5930  147.4990 C   0  0  0  0  0  2  0  0  0  0  0  0
  190.6870  177.0900  146.8130 C   0  0  0  0  0  1  0  0  0  0  0  0
  183.9990  178.6940  141.7070 N   0  0  0  0  0  2  0  0  0  0  0  0
  184.1370  179.4180  140.5150 N   0  0  0  0  0  2  0  0  0  0  0  0
  180.4630  180.6850  137.2090 C   0  0  0  0  0  0  0  0  0  0  0  0
  179.3290  181.3080  136.4780 C   0  0  0  0  0  1  0  0  0  0  0  0
  182.7820  177.8710  136.8480 N   0  0  0  0  0  0  0  0  0  0  0  0
  181.9590  180.6410  139.1170 C   0  0  0  0  0  3  0  0  0  0  0  0
  182.6020  179.5090  138.5940 C   0  0  0  0  0  0  0  0  0  0  0  0
  183.6750  178.9000  139.2640 C   0  0  0  0  0  0  0  0  0  0  0  0
  180.8920  181.2260  138.4260 C   0  0  0  0  0  3  0  0  0  0  0  0
  182.1660  178.9670  137.3650 C   0  0  0  0  0  0  0  0  0  0  0  0
  184.2840  177.7740  138.6970 C   0  0  0  0  0  3  0  0  0  0  0  0
  181.0990  179.5570  136.6800 C   0  0  0  0  0  3  0  0  0  0  0  0
  183.8230  177.2570  137.4800 C   0  0  0  0  0  0  0  0  0  0  0  0
  184.4620  176.0840  136.8390 C   0  0  0  0  0  0  0  0  0  0  0  0
  185.6180  176.1710  135.9860 N   0  0  0  0  0  2  0  0  0  0  0  0
  183.9660  174.9450  137.0520 O   0  0  0  0  0  0  0  0  0  0  0  0
  187.1070  178.2880  135.6530 C   0  0  0  0  0  3  0  0  0  0  0  0
  186.4190  177.3100  135.8110 C   0  0  0  0  0  0  0  0  0  0  0  0
  188.1780  177.0910  142.0290 C   0  0  0  0  0  2  0  0  0  0  0  0
  189.5390  177.7730  142.0640 C   0  0  0  0  0  2  0  0  0  0  0  0
  189.8800  176.9080  139.7340 N   0  0  0  0  0  0  0  0  0  0  0  0
  192.0740  176.8330  139.2990 C   0  0  0  0  0  0  0  0  0  0  0  0
  190.3830  177.3510  140.9060 C   0  0  0  0  0  0  0  0  0  0  0  0
  190.8220  176.6160  138.8360 N   0  0  0  0  0  0  0  0  0  0  0  0
  193.2570  176.6300  138.5220 N   0  0  0  0  0  2  0  0  0  0  0  0
  192.0690  177.4070  140.8800 S   0  0  0  0  0  0  0  0  0  0  0  0
  193.2040  176.1940  137.1320 C   0  0  0  0  0  2  0  0  0  0  0  0
  193.7130  174.7590  136.9640 C   0  0  2  0  0  3  0  0  0  0  0  0
  191.5320  174.2060  136.2150 C   0  0  0  0  0  3  0  0  0  0  0  0
  192.6300  173.8280  136.7630 N   0  0  0  0  0  0  0  0  0  0  0  0
  190.4190  173.2300  135.9950 C   0  0  0  0  0  2  0  0  0  0  0  0
  189.0580  173.8830  136.2120 C   0  0  1  0  0  3  0  0  0  0  0  0
  189.1960  175.2660  136.1020 O   0  0  0  0  0  1  0  0  0  0  0  0
  188.0520  173.4050  135.1730 C   0  0  0  0  0  2  0  0  0  0  0  0
  186.8280  173.1230  135.7800 O   0  0  0  0  0  0  0  0  0  0  0  0
  187.1650  172.6700  137.0590 C   0  0  0  0  0  1  0  0  0  0  0  0
  194.5850  174.3190  138.1000 C   0  0  0  0  0  3  0  0  0  0  0  0
  195.4450  175.0540  138.5560 O   0  0  0  0  0  0  0  0  0  0  0  0
  1 10  1  0  0  0  0
  2  7  1  6  0  0  0
  2  6  1  0  0  0  0
  3  8  1  0  0  0  0
  4 33  1  0  0  0  0
  4  3  1  0  0  0  0
  5  4  2  0  0  0  0
  8  1  1  1  0  0  0
  8  2  1  0  0  0  0
  9 15  1  6  0  0  0
  9  3  1  0  0  0  0
  9  7  1  0  0  0  0
 10  6  1  0  0  0  0
 10 11  1  6  0  0  0
 11 12  1  0  0  0  0
 13 12  1  0  0  0  0
 14 13  1  0  0  0  0
 16 15  1  0  0  0  0
 17 23  1  0  0  0  0
 18 17  1  0  0  0  0
 19 24  2  0  0  0  0
 19 27  1  0  0  0  0
 21 20  1  0  0  0  0
 21 22  2  0  0  0  0
 22 16  1  0  0  0  0
 23 20  2  0  0  0  0
 24 21  1  0  0  0  0
 25 22  1  0  0  0  0
 26 17  2  0  0  0  0
 26 24  1  0  0  0  0
 27 25  2  0  0  0  0
 28 30  2  0  0  0  0
 28 27  1  0  0  0  0
 29 28  1  0  0  0  0
 31 32  3  0  0  0  0
 32 29  1  0  0  0  0
 33 34  1  0  0  0  0
 35 37  2  0  0  0  0
 36 40  1  0  0  0  0
 37 34  1  0  0  0  0
 38 36  2  0  0  0  0
 38 35  1  0  0  0  0
 39 36  1  0  0  0  0
 40 37  1  0  0  0  0
 41 39  1  0  0  0  0
 42 41  1  1  0  0  0
 42 51  1  0  0  0  0
 43 44  2  0  0  0  0
 44 42  1  0  0  0  0
 45 46  1  0  0  0  0
 45 43  1  0  0  0  0
 46 47  1  6  0  0  0
 48 49  1  0  0  0  0
 48 46  1  0  0  0  0
 49 50  1  0  0  0  0
 51 52  2  0  0  0  0
M  END
>  <MODEL>
5

>  <REMARK>
 VINA RESULT:      -7.0      3.326     10.552
  Name = 
  19 active torsions:
  status: ('A' for Active; 'I' for Inactive)
    1  A    between atoms: N_1  and  N_40
    2  A    between atoms: N_1  and  C_42
    3  A    between atoms: O_2  and  C_38
    4  A    between atoms: C_4  and  O_8
    5  A    between atoms: C_5  and  C_51
    6  A    between atoms: C_7  and  C_21
    7  A    between atoms: C_7  and  C_22
    8  A    between atoms: O_8  and  C_47
    9  A    between atoms: C_9  and  C_23
   10  A    between atoms: C_16  and  C_22
   11  A    between atoms: N_19  and  C_48
   12  A    between atoms: C_23  and  C_26
   13  A    between atoms: N_24  and  CA_34
   14  A    between atoms: C_26  and  C_38
   15  A    between atoms: C_28  and  N_40
   16  A    between atoms: C_29  and  CA_34
   17  A    between atoms: C_29  and  N_41
   18  A    between atoms: C_32  and  CA_34
   19  A    between atoms: C_47  and  C_50
                            x       y       z     vdW  Elec       q    Type
                         _______ _______ _______ _____ _____    ______ ____

>  <TORSDO>
F 19

$$$$
=
 OpenBabel10222418453D

 52 56  0  0  1  0  0  0  0  0999 V2000
  187.6070  177.3180  144.9350 N   0  0  0  0  0  2  0  0  0  0  0  0
  185.5240  178.2800  144.6760 C   0  0  1  0  0  3  0  0  0  0  0  0
  186.6960  178.1600  142.7450 N   0  0  0  0  0  0  0  0  0  0  0  0
  187.8080  177.8880  141.8780 C   0  0  0  0  0  0  0  0  0  0  0  0
  187.9020  178.4880  140.7770 O   0  0  0  0  0  0  0  0  0  0  0  0
  185.6750  178.4050  146.4490 S   0  0  0  0  0  0  0  0  0  0  0  0
  184.8280  179.2330  143.7610 C   0  0  0  0  0  2  0  0  0  0  0  0
  186.5500  177.7470  144.0930 C   0  0  1  0  0  3  0  0  0  0  0  0
  185.6220  179.0990  142.4430 C   0  0  2  0  0  3  0  0  0  0  0  0
  187.2690  177.4810  146.3420 C   0  0  2  0  0  3  0  0  0  0  0  0
  188.3760  178.2480  147.0460 C   0  0  0  0  0  2  0  0  0  0  0  0
  188.9150  177.4690  148.0710 O   0  0  0  0  0  0  0  0  0  0  0  0
  190.2980  177.5610  147.8880 C   0  0  0  0  0  2  0  0  0  0  0  0
  190.6550  177.0780  146.4990 C   0  0  0  0  0  1  0  0  0  0  0  0
  184.7660  178.5440  141.4060 N   0  0  0  0  0  2  0  0  0  0  0  0
  185.2030  179.0760  140.1850 N   0  0  0  0  0  2  0  0  0  0  0  0
  187.5370  177.7680  135.8410 C   0  0  0  0  0  0  0  0  0  0  0  0
  188.5020  177.5000  134.7430 C   0  0  0  0  0  1  0  0  0  0  0  0
  183.9470  177.4680  136.5090 N   0  0  0  0  0  0  0  0  0  0  0  0
  187.0810  178.5560  138.0880 C   0  0  0  0  0  3  0  0  0  0  0  0
  185.7160  178.2790  137.9150 C   0  0  0  0  0  0  0  0  0  0  0  0
  184.7820  178.5240  138.9340 C   0  0  0  0  0  0  0  0  0  0  0  0
  187.9870  178.3010  137.0530 C   0  0  0  0  0  3  0  0  0  0  0  0
  185.2670  177.7410  136.6890 C   0  0  0  0  0  0  0  0  0  0  0  0
  183.4330  178.2280  138.7100 C   0  0  0  0  0  3  0  0  0  0  0  0
  186.1790  177.4890  135.6590 C   0  0  0  0  0  3  0  0  0  0  0  0
  183.0190  177.7000  137.4810 C   0  0  0  0  0  0  0  0  0  0  0  0
  181.6020  177.3500  137.2200 C   0  0  0  0  0  0  0  0  0  0  0  0
  180.5460  178.3230  137.1120 N   0  0  0  0  0  2  0  0  0  0  0  0
  181.3040  176.1330  137.0850 O   0  0  0  0  0  0  0  0  0  0  0  0
  180.8710  180.9060  136.9390 C   0  0  0  0  0  3  0  0  0  0  0  0
  180.7230  179.7120  137.0220 C   0  0  0  0  0  0  0  0  0  0  0  0
  188.8470  176.8750  142.2420 C   0  0  0  0  0  2  0  0  0  0  0  0
  190.2380  177.4930  142.2240 C   0  0  0  0  0  2  0  0  0  0  0  0
  190.3640  176.6250  139.8740 N   0  0  0  0  0  0  0  0  0  0  0  0
  192.4690  176.8200  139.1370 C   0  0  0  0  0  0  0  0  0  0  0  0
  190.9620  177.1550  140.9630 C   0  0  0  0  0  0  0  0  0  0  0  0
  191.2030  176.4350  138.8560 N   0  0  0  0  0  0  0  0  0  0  0  0
  193.5490  176.7510  138.2040 N   0  0  0  0  0  2  0  0  0  0  0  0
  192.6070  177.4240  140.7010 S   0  0  0  0  0  0  0  0  0  0  0  0
  193.3630  176.2800  136.8380 C   0  0  0  0  0  2  0  0  0  0  0  0
  193.8870  174.8530  136.6480 C   0  0  2  0  0  3  0  0  0  0  0  0
  191.6680  174.3800  135.9620 C   0  0  0  0  0  3  0  0  0  0  0  0
  192.8830  173.9840  136.0850 N   0  0  0  0  0  0  0  0  0  0  0  0
  190.6350  173.4790  135.3610 C   0  0  0  0  0  2  0  0  0  0  0  0
  189.4660  173.2600  136.3160 C   0  0  1  0  0  3  0  0  0  0  0  0
  189.8310  173.7000  137.5870 O   0  0  0  0  0  1  0  0  0  0  0  0
  188.2370  174.0360  135.8600 C   0  0  0  0  0  2  0  0  0  0  0  0
  187.5420  174.5330  136.9630 O   0  0  0  0  0  0  0  0  0  0  0  0
  186.3260  173.8430  136.9520 C   0  0  0  0  0  1  0  0  0  0  0  0
  194.4410  174.2700  137.9130 C   0  0  0  0  0  3  0  0  0  0  0  0
  195.6440  174.1760  138.0900 O   0  0  0  0  0  0  0  0  0  0  0  0
  1 10  1  0  0  0  0
  2  7  1  6  0  0  0
  2  6  1  0  0  0  0
  3  8  1  0  0  0  0
  4 33  1  0  0  0  0
  4  3  1  0  0  0  0
  5  4  2  0  0  0  0
  8  2  1  0  0  0  0
  8  1  1  1  0  0  0
  9 15  1  6  0  0  0
  9  3  1  0  0  0  0
  9  7  1  0  0  0  0
 10  6  1  0  0  0  0
 10 11  1  1  0  0  0
 11 12  1  0  0  0  0
 13 12  1  0  0  0  0
 14 13  1  0  0  0  0
 16 15  1  0  0  0  0
 17 23  1  0  0  0  0
 18 17  1  0  0  0  0
 19 24  2  0  0  0  0
 19 27  1  0  0  0  0
 21 20  1  0  0  0  0
 21 22  2  0  0  0  0
 22 16  1  0  0  0  0
 23 20  2  0  0  0  0
 24 21  1  0  0  0  0
 25 22  1  0  0  0  0
 26 17  2  0  0  0  0
 26 24  1  0  0  0  0
 27 25  2  0  0  0  0
 28 27  1  0  0  0  0
 29 28  1  0  0  0  0
 30 28  2  0  0  0  0
 31 32  3  0  0  0  0
 32 29  1  0  0  0  0
 34 33  1  0  0  0  0
 35 37  2  0  0  0  0
 36 40  1  0  0  0  0
 37 34  1  0  0  0  0
 38 36  2  0  0  0  0
 38 35  1  0  0  0  0
 39 36  1  0  0  0  0
 40 37  1  0  0  0  0
 41 39  1  0  0  0  0
 42 41  1  1  0  0  0
 42 51  1  0  0  0  0
 43 44  2  0  0  0  0
 44 42  1  0  0  0  0
 45 43  1  0  0  0  0
 45 46  1  0  0  0  0
 46 47  1  1  0  0  0
 48 46  1  0  0  0  0
 48 49  1  0  0  0  0
 50 49  1  0  0  0  0
 51 52  2  0  0  0  0
M  END
>  <MODEL>
6

>  <REMARK>
 VINA RESULT:      -7.0      3.248     10.129
  Name = 
  19 active torsions:
  status: ('A' for Active; 'I' for Inactive)
    1  A    between atoms: N_1  and  N_40
    2  A    between atoms: N_1  and  C_42
    3  A    between atoms: O_2  and  C_38
    4  A    between atoms: C_4  and  O_8
    5  A    between atoms: C_5  and  C_51
    6  A    between atoms: C_7  and  C_21
    7  A    between atoms: C_7  and  C_22
    8  A    between atoms: O_8  and  C_47
    9  A    between atoms: C_9  and  C_23
   10  A    between atoms: C_16  and  C_22
   11  A    between atoms: N_19  and  C_48
   12  A    between atoms: C_23  and  C_26
   13  A    between atoms: N_24  and  CA_34
   14  A    between atoms: C_26  and  C_38
   15  A    between atoms: C_28  and  N_40
   16  A    between atoms: C_29  and  CA_34
   17  A    between atoms: C_29  and  N_41
   18  A    between atoms: C_32  and  CA_34
   19  A    between atoms: C_47  and  C_50
                            x       y       z     vdW  Elec       q    Type
                         _______ _______ _______ _____ _____    ______ ____

>  <TORSDO>
F 19

$$$$
=
 OpenBabel10222418453D

 52 56  0  0  1  0  0  0  0  0999 V2000
  189.1310  175.3940  136.7710 N   0  0  0  0  0  2  0  0  0  0  0  0
  190.1630  176.2670  138.6420 C   0  0  1  0  0  3  0  0  0  0  0  0
  188.3150  177.4160  138.0260 N   0  0  0  0  0  0  0  0  0  0  0  0
  187.1730  177.7730  137.2330 C   0  0  0  0  0  0  0  0  0  0  0  0
  186.7000  178.9350  137.3060 O   0  0  0  0  0  0  0  0  0  0  0  0
  191.4940  175.2440  138.0370 S   0  0  0  0  0  0  0  0  0  0  0  0
  190.2830  177.5710  139.3590 C   0  0  0  0  0  2  0  0  0  0  0  0
  189.0990  176.2410  137.9070 C   0  0  1  0  0  3  0  0  0  0  0  0
  188.9920  178.3160  138.9540 C   0  0  2  0  0  3  0  0  0  0  0  0
  190.3660  174.6240  136.7140 C   0  0  2  0  0  3  0  0  0  0  0  0
  191.0090  174.7910  135.3470 C   0  0  0  0  0  2  0  0  0  0  0  0
  192.2990  175.3040  135.4890 O   0  0  0  0  0  0  0  0  0  0  0  0
  193.0730  174.5540  134.6000 C   0  0  0  0  0  2  0  0  0  0  0  0
  194.3130  174.0540  135.3090 C   0  0  0  0  0  1  0  0  0  0  0  0
  188.1570  178.5270  140.1260 N   0  0  0  0  0  2  0  0  0  0  0  0
  188.3150  177.4040  140.9510 N   0  0  0  0  0  2  0  0  0  0  0  0
  184.6850  178.6290  144.3200 C   0  0  0  0  0  0  0  0  0  0  0  0
  183.4330  179.0280  145.0140 C   0  0  0  0  0  1  0  0  0  0  0  0
  188.1360  177.7100  145.1400 N   0  0  0  0  0  0  0  0  0  0  0  0
  185.8890  178.1610  142.2680 C   0  0  0  0  0  3  0  0  0  0  0  0
  187.0490  177.8810  143.0050 C   0  0  0  0  0  0  0  0  0  0  0  0
  188.2460  177.5050  142.3760 C   0  0  0  0  0  0  0  0  0  0  0  0
  184.7110  178.5340  142.9250 C   0  0  0  0  0  3  0  0  0  0  0  0
  187.0180  177.9790  144.4140 C   0  0  0  0  0  0  0  0  0  0  0  0
  189.3750  177.2350  143.1590 C   0  0  0  0  0  3  0  0  0  0  0  0
  185.8370  178.3530  145.0630 C   0  0  0  0  0  3  0  0  0  0  0  0
  189.3120  177.3460  144.5530 C   0  0  0  0  0  0  0  0  0  0  0  0
  190.4800  177.0420  145.4130 C   0  0  0  0  0  0  0  0  0  0  0  0
  190.4400  177.0660  146.8520 N   0  0  0  0  0  2  0  0  0  0  0  0
  191.5700  176.7450  144.8550 O   0  0  0  0  0  0  0  0  0  0  0  0
  188.2790  177.2560  148.3030 C   0  0  0  0  0  3  0  0  0  0  0  0
  189.2790  177.1650  147.6340 C   0  0  0  0  0  0  0  0  0  0  0  0
  186.5070  176.7760  136.3370 C   0  0  0  0  0  2  0  0  0  0  0  0
  185.3130  177.3970  135.6260 C   0  0  0  0  0  2  0  0  0  0  0  0
  182.8200  177.1290  135.6820 N   0  0  0  0  0  0  0  0  0  0  0  0
  182.2380  176.1430  137.6060 C   0  0  0  0  0  0  0  0  0  0  0  0
  184.0290  176.9850  136.2660 C   0  0  0  0  0  0  0  0  0  0  0  0
  181.8190  176.6620  136.4290 N   0  0  0  0  0  0  0  0  0  0  0  0
  181.3660  175.5500  138.5700 N   0  0  0  0  0  2  0  0  0  0  0  0
  183.9070  176.2450  137.7770 S   0  0  0  0  0  0  0  0  0  0  0  0
  179.9310  175.4260  138.3440 C   0  0  0  0  0  2  0  0  0  0  0  0
  179.1290  175.6320  139.6330 C   0  0  2  0  0  3  0  0  0  0  0  0
  179.9360  177.7890  140.1960 C   0  0  0  0  0  3  0  0  0  0  0  0
  178.9360  177.0320  139.9240 N   0  0  0  0  0  0  0  0  0  0  0  0
  179.7300  179.2440  140.4800 C   0  0  0  0  0  2  0  0  0  0  0  0
  180.6470  180.1120  139.6250 C   0  0  1  0  0  3  0  0  0  0  0  0
  181.5280  179.2890  138.9250 O   0  0  0  0  0  1  0  0  0  0  0  0
  179.8430  180.9330  138.6260 C   0  0  0  0  0  2  0  0  0  0  0  0
  180.2750  182.2600  138.6310 O   0  0  0  0  0  0  0  0  0  0  0  0
  180.5010  182.5620  137.2850 C   0  0  0  0  0  1  0  0  0  0  0  0
  179.7350  174.9270  140.8080 C   0  0  0  0  0  3  0  0  0  0  0  0
  179.0360  174.4400  141.6800 O   0  0  0  0  0  0  0  0  0  0  0  0
  2  7  1  6  0  0  0
  3  9  1  0  0  0  0
  4  5  2  0  0  0  0
  4  3  1  0  0  0  0
  6  2  1  0  0  0  0
  8  1  1  6  0  0  0
  8  3  1  0  0  0  0
  8  2  1  0  0  0  0
  9  7  1  0  0  0  0
  9 15  1  1  0  0  0
 10 11  1  6  0  0  0
 10  1  1  0  0  0  0
 10  6  1  0  0  0  0
 11 12  1  0  0  0  0
 13 14  1  0  0  0  0
 13 12  1  0  0  0  0
 15 16  1  0  0  0  0
 16 22  1  0  0  0  0
 17 18  1  0  0  0  0
 17 26  1  0  0  0  0
 20 23  1  0  0  0  0
 20 21  2  0  0  0  0
 21 24  1  0  0  0  0
 22 21  1  0  0  0  0
 22 25  2  0  0  0  0
 23 17  2  0  0  0  0
 24 26  2  0  0  0  0
 24 19  1  0  0  0  0
 25 27  1  0  0  0  0
 27 19  2  0  0  0  0
 27 28  1  0  0  0  0
 28 29  1  0  0  0  0
 29 32  1  0  0  0  0
 30 28  2  0  0  0  0
 32 31  3  0  0  0  0
 33  4  1  0  0  0  0
 34 37  1  0  0  0  0
 34 33  1  0  0  0  0
 35 37  2  0  0  0  0
 35 38  1  0  0  0  0
 36 40  1  0  0  0  0
 36 39  1  0  0  0  0
 37 40  1  0  0  0  0
 38 36  2  0  0  0  0
 41 39  1  0  0  0  0
 42 41  1  6  0  0  0
 42 44  1  0  0  0  0
 42 51  1  0  0  0  0
 43 45  1  0  0  0  0
 44 43  2  0  0  0  0
 46 47  1  6  0  0  0
 46 45  1  0  0  0  0
 48 49  1  0  0  0  0
 48 46  1  0  0  0  0
 50 49  1  0  0  0  0
 51 52  2  0  0  0  0
M  END
>  <MODEL>
7

>  <REMARK>
 VINA RESULT:      -7.0      1.737      3.354
  Name = 
  19 active torsions:
  status: ('A' for Active; 'I' for Inactive)
    1  A    between atoms: N_1  and  N_40
    2  A    between atoms: N_1  and  C_42
    3  A    between atoms: O_2  and  C_38
    4  A    between atoms: C_4  and  O_8
    5  A    between atoms: C_5  and  C_51
    6  A    between atoms: C_7  and  C_21
    7  A    between atoms: C_7  and  C_22
    8  A    between atoms: O_8  and  C_47
    9  A    between atoms: C_9  and  C_23
   10  A    between atoms: C_16  and  C_22
   11  A    between atoms: N_19  and  C_48
   12  A    between atoms: C_23  and  C_26
   13  A    between atoms: N_24  and  CA_34
   14  A    between atoms: C_26  and  C_38
   15  A    between atoms: C_28  and  N_40
   16  A    between atoms: C_29  and  CA_34
   17  A    between atoms: C_29  and  N_41
   18  A    between atoms: C_32  and  CA_34
   19  A    between atoms: C_47  and  C_50
                            x       y       z     vdW  Elec       q    Type
                         _______ _______ _______ _____ _____    ______ ____

>  <TORSDO>
F 19

$$$$
=
 OpenBabel10222418453D

 52 56  0  0  1  0  0  0  0  0999 V2000
  189.0900  178.3450  144.1780 N   0  0  0  0  0  2  0  0  0  0  0  0
  191.1300  177.4450  143.5810 C   0  0  1  0  0  3  0  0  0  0  0  0
  189.7290  177.7200  141.8260 N   0  0  0  0  0  0  0  0  0  0  0  0
  188.5180  178.0520  141.1290 C   0  0  0  0  0  0  0  0  0  0  0  0
  188.2930  177.5530  139.9970 O   0  0  0  0  0  0  0  0  0  0  0  0
  191.1980  177.1560  145.3400 S   0  0  0  0  0  0  0  0  0  0  0  0
  191.7140  176.5910  142.5040 C   0  0  0  0  0  2  0  0  0  0  0  0
  190.0370  178.0110  143.1790 C   0  0  1  0  0  3  0  0  0  0  0  0
  190.7640  176.8310  141.3100 C   0  0  2  0  0  3  0  0  0  0  0  0
  189.5980  178.0600  145.5130 C   0  0  2  0  0  3  0  0  0  0  0  0
  188.5900  177.2130  146.2720 C   0  0  0  0  0  2  0  0  0  0  0  0
  187.4060  177.1160  145.5400 O   0  0  0  0  0  0  0  0  0  0  0  0
  186.4030  177.4620  146.4500 C   0  0  0  0  0  2  0  0  0  0  0  0
  186.0650  178.9280  146.2930 C   0  0  0  0  0  1  0  0  0  0  0  0
  191.4840  177.4920  140.2330 N   0  0  0  0  0  2  0  0  0  0  0  0
  190.9680  176.9940  139.0280 N   0  0  0  0  0  2  0  0  0  0  0  0
  189.4860  173.1830  135.9770 C   0  0  0  0  0  0  0  0  0  0  0  0
  188.7350  172.1960  135.1580 C   0  0  0  0  0  1  0  0  0  0  0  0
  192.9470  173.9590  136.8950 N   0  0  0  0  0  0  0  0  0  0  0  0
  189.5020  175.1120  137.4460 C   0  0  0  0  0  3  0  0  0  0  0  0
  190.9010  175.0450  137.5280 C   0  0  0  0  0  0  0  0  0  0  0  0
  191.6350  175.9620  138.2960 C   0  0  0  0  0  0  0  0  0  0  0  0
  188.7980  174.1820  136.6730 C   0  0  0  0  0  3  0  0  0  0  0  0
  191.5910  174.0340  136.8240 C   0  0  0  0  0  0  0  0  0  0  0  0
  193.0300  175.8530  138.3420 C   0  0  0  0  0  3  0  0  0  0  0  0
  190.8800  173.1080  136.0530 C   0  0  0  0  0  3  0  0  0  0  0  0
  193.6840  174.8350  137.6370 C   0  0  0  0  0  0  0  0  0  0  0  0
  195.1600  174.7070  137.6420 C   0  0  0  0  0  0  0  0  0  0  0  0
  196.0120  175.2460  136.6150 N   0  0  0  0  0  2  0  0  0  0  0  0
  195.7020  174.0910  138.5990 O   0  0  0  0  0  0  0  0  0  0  0  0
  195.2620  176.8860  134.7280 C   0  0  0  0  0  3  0  0  0  0  0  0
  195.6100  176.1310  135.6020 C   0  0  0  0  0  0  0  0  0  0  0  0
  187.5260  179.0100  141.7090 C   0  0  0  0  0  2  0  0  0  0  0  0
  186.2130  178.3070  142.0260 C   0  0  0  0  0  2  0  0  0  0  0  0
  185.3170  179.4320  139.9710 N   0  0  0  0  0  0  0  0  0  0  0  0
  183.0800  179.3740  140.0270 C   0  0  0  0  0  0  0  0  0  0  0  0
  185.1120  178.8010  141.1470 C   0  0  0  0  0  0  0  0  0  0  0  0
  184.1840  179.7550  139.3450 N   0  0  0  0  0  0  0  0  0  0  0  0
  181.7450  179.5740  139.5560 N   0  0  0  0  0  2  0  0  0  0  0  0
  183.4680  178.6050  141.4710 S   0  0  0  0  0  0  0  0  0  0  0  0
  181.4640  180.1870  138.2640 C   0  0  0  0  0  2  0  0  0  0  0  0
  180.1110  179.7390  137.7020 C   0  0  2  0  0  3  0  0  0  0  0  0
  179.7870  177.3920  137.8010 C   0  0  0  0  0  3  0  0  0  0  0  0
  179.6330  178.5430  138.3500 N   0  0  0  0  0  0  0  0  0  0  0  0
  179.3040  176.1530  138.4870 C   0  0  0  0  0  2  0  0  0  0  0  0
  180.2830  175.6960  139.5620 C   0  0  1  0  0  3  0  0  0  0  0  0
  180.0570  174.3480  139.8380 O   0  0  0  0  0  1  0  0  0  0  0  0
  181.7230  175.8680  139.0960 C   0  0  0  0  0  2  0  0  0  0  0  0
  182.0720  174.8440  138.2150 O   0  0  0  0  0  0  0  0  0  0  0  0
  183.4290  175.0530  137.9520 C   0  0  0  0  0  1  0  0  0  0  0  0
  180.1350  179.5610  136.2140 C   0  0  0  0  0  3  0  0  0  0  0  0
  180.5030  180.4600  135.4770 O   0  0  0  0  0  0  0  0  0  0  0  0
  1 10  1  0  0  0  0
  2  7  1  6  0  0  0
  2  6  1  0  0  0  0
  3  8  1  0  0  0  0
  4 33  1  0  0  0  0
  4  3  1  0  0  0  0
  5  4  2  0  0  0  0
  6 10  1  0  0  0  0
  8  2  1  0  0  0  0
  8  1  1  1  0  0  0
  9 15  1  6  0  0  0
  9  3  1  0  0  0  0
  9  7  1  0  0  0  0
 10 11  1  1  0  0  0
 12 11  1  0  0  0  0
 12 13  1  0  0  0  0
 14 13  1  0  0  0  0
 16 15  1  0  0  0  0
 17 26  2  0  0  0  0
 17 23  1  0  0  0  0
 18 17  1  0  0  0  0
 19 27  1  0  0  0  0
 20 21  1  0  0  0  0
 21 22  2  0  0  0  0
 22 25  1  0  0  0  0
 22 16  1  0  0  0  0
 23 20  2  0  0  0  0
 24 19  2  0  0  0  0
 24 21  1  0  0  0  0
 26 24  1  0  0  0  0
 27 28  1  0  0  0  0
 27 25  2  0  0  0  0
 28 30  2  0  0  0  0
 29 28  1  0  0  0  0
 31 32  3  0  0  0  0
 32 29  1  0  0  0  0
 33 34  1  0  0  0  0
 35 37  2  0  0  0  0
 36 40  1  0  0  0  0
 37 40  1  0  0  0  0
 37 34  1  0  0  0  0
 38 35  1  0  0  0  0
 38 36  2  0  0  0  0
 39 36  1  0  0  0  0
 41 39  1  0  0  0  0
 42 51  1  6  0  0  0
 42 41  1  0  0  0  0
 42 44  1  0  0  0  0
 43 44  2  0  0  0  0
 43 45  1  0  0  0  0
 45 46  1  0  0  0  0
 46 47  1  6  0  0  0
 48 46  1  0  0  0  0
 49 48  1  0  0  0  0
 50 49  1  0  0  0  0
 52 51  2  0  0  0  0
M  END
>  <MODEL>
8

>  <REMARK>
 VINA RESULT:      -7.0      3.014      8.265
  Name = 
  19 active torsions:
  status: ('A' for Active; 'I' for Inactive)
    1  A    between atoms: N_1  and  N_40
    2  A    between atoms: N_1  and  C_42
    3  A    between atoms: O_2  and  C_38
    4  A    between atoms: C_4  and  O_8
    5  A    between atoms: C_5  and  C_51
    6  A    between atoms: C_7  and  C_21
    7  A    between atoms: C_7  and  C_22
    8  A    between atoms: O_8  and  C_47
    9  A    between atoms: C_9  and  C_23
   10  A    between atoms: C_16  and  C_22
   11  A    between atoms: N_19  and  C_48
   12  A    between atoms: C_23  and  C_26
   13  A    between atoms: N_24  and  CA_34
   14  A    between atoms: C_26  and  C_38
   15  A    between atoms: C_28  and  N_40
   16  A    between atoms: C_29  and  CA_34
   17  A    between atoms: C_29  and  N_41
   18  A    between atoms: C_32  and  CA_34
   19  A    between atoms: C_47  and  C_50
                            x       y       z     vdW  Elec       q    Type
                         _______ _______ _______ _____ _____    ______ ____

>  <TORSDO>
F 19

$$$$
=
 OpenBabel10222418453D

 52 56  0  0  1  0  0  0  0  0999 V2000
  189.2520  178.2780  143.9350 N   0  0  0  0  0  2  0  0  0  0  0  0
  191.1970  177.3580  143.0970 C   0  0  1  0  0  3  0  0  0  0  0  0
  189.6020  177.6580  141.5210 N   0  0  0  0  0  0  0  0  0  0  0  0
  188.3220  178.0070  140.9740 C   0  0  0  0  0  0  0  0  0  0  0  0
  187.9580  177.5170  139.8740 O   0  0  0  0  0  0  0  0  0  0  0  0
  191.4690  177.0590  144.8350 S   0  0  0  0  0  0  0  0  0  0  0  0
  191.6390  176.5030  141.9550 C   0  0  0  0  0  2  0  0  0  0  0  0
  190.0710  177.9380  142.8290 C   0  0  1  0  0  3  0  0  0  0  0  0
  190.5580  176.7590  140.8830 C   0  0  2  0  0  3  0  0  0  0  0  0
  189.9110  177.9810  145.1990 C   0  0  2  0  0  3  0  0  0  0  0  0
  188.9900  177.1420  146.0690 C   0  0  0  0  0  2  0  0  0  0  0  0
  188.7020  177.8250  147.2510 O   0  0  0  0  0  0  0  0  0  0  0  0
  187.3550  177.5450  147.4960 C   0  0  0  0  0  2  0  0  0  0  0  0
  186.5150  178.0720  146.3530 C   0  0  0  0  0  1  0  0  0  0  0  0
  191.1530  177.4180  139.7310 N   0  0  0  0  0  2  0  0  0  0  0  0
  190.5320  176.8900  138.5900 N   0  0  0  0  0  2  0  0  0  0  0  0
  189.3850  172.8670  135.6680 C   0  0  0  0  0  0  0  0  0  0  0  0
  188.7370  171.7300  134.9650 C   0  0  0  0  0  1  0  0  0  0  0  0
  192.6560  174.5080  135.8540 N   0  0  0  0  0  0  0  0  0  0  0  0
  189.2590  174.7120  137.2360 C   0  0  0  0  0  3  0  0  0  0  0  0
  190.6090  175.0120  137.0020 C   0  0  0  0  0  0  0  0  0  0  0  0
  191.2480  176.0790  137.6540 C   0  0  0  0  0  0  0  0  0  0  0  0
  188.6500  173.6420  136.5710 C   0  0  0  0  0  3  0  0  0  0  0  0
  191.3480  174.2270  136.0900 C   0  0  0  0  0  0  0  0  0  0  0  0
  192.5970  176.3370  137.3820 C   0  0  0  0  0  3  0  0  0  0  0  0
  190.7320  173.1580  135.4290 C   0  0  0  0  0  3  0  0  0  0  0  0
  193.3020  175.5350  136.4770 C   0  0  0  0  0  0  0  0  0  0  0  0
  194.7230  175.7970  136.1460 C   0  0  0  0  0  0  0  0  0  0  0  0
  195.8290  175.2530  136.8890 N   0  0  0  0  0  2  0  0  0  0  0  0
  194.9790  176.5370  135.1590 O   0  0  0  0  0  0  0  0  0  0  0  0
  195.6590  173.3990  138.7180 C   0  0  0  0  0  3  0  0  0  0  0  0
  195.7390  174.2530  137.8700 C   0  0  0  0  0  0  0  0  0  0  0  0
  187.4160  178.9740  141.6700 C   0  0  0  0  0  2  0  0  0  0  0  0
  186.1110  178.3020  142.0730 C   0  0  0  0  0  2  0  0  0  0  0  0
  185.1420  179.5030  140.0960 N   0  0  0  0  0  0  0  0  0  0  0  0
  182.9200  179.2260  140.0930 C   0  0  0  0  0  0  0  0  0  0  0  0
  184.9810  178.7590  141.2120 C   0  0  0  0  0  0  0  0  0  0  0  0
  183.9930  179.7670  139.4720 N   0  0  0  0  0  0  0  0  0  0  0  0
  181.5800  179.3350  139.6090 N   0  0  0  0  0  2  0  0  0  0  0  0
  183.3590  178.3800  141.4790 S   0  0  0  0  0  0  0  0  0  0  0  0
  181.2610  180.0240  138.3650 C   0  0  0  0  0  2  0  0  0  0  0  0
  180.9330  179.0420  137.2360 C   0  0  2  0  0  3  0  0  0  0  0  0
  182.2710  177.6870  135.8240 C   0  0  0  0  0  3  0  0  0  0  0  0
  182.0110  178.1110  137.0070 N   0  0  0  0  0  0  0  0  0  0  0  0
  183.4010  176.7340  135.5920 C   0  0  0  0  0  2  0  0  0  0  0  0
  184.5210  176.9440  136.6050 C   0  0  1  0  0  3  0  0  0  0  0  0
  184.2280  176.2220  137.7620 O   0  0  0  0  0  1  0  0  0  0  0  0
  185.8560  176.4630  136.0500 C   0  0  0  0  0  2  0  0  0  0  0  0
  186.9100  177.1000  136.7060 O   0  0  0  0  0  0  0  0  0  0  0  0
  187.1530  178.2490  135.9470 C   0  0  0  0  0  1  0  0  0  0  0  0
  180.5530  179.7340  135.9620 C   0  0  0  0  0  3  0  0  0  0  0  0
  180.9020  180.8820  135.7390 O   0  0  0  0  0  0  0  0  0  0  0  0
  1 10  1  0  0  0  0
  2  7  1  6  0  0  0
  2  6  1  0  0  0  0
  3  8  1  0  0  0  0
  4  3  1  0  0  0  0
  4 33  1  0  0  0  0
  5  4  2  0  0  0  0
  6 10  1  0  0  0  0
  8  2  1  0  0  0  0
  8  1  1  1  0  0  0
  9 15  1  6  0  0  0
  9  3  1  0  0  0  0
  9  7  1  0  0  0  0
 10 11  1  1  0  0  0
 11 12  1  0  0  0  0
 12 13  1  0  0  0  0
 14 13  1  0  0  0  0
 16 15  1  0  0  0  0
 17 23  1  0  0  0  0
 18 17  1  0  0  0  0
 19 24  2  0  0  0  0
 19 27  1  0  0  0  0
 21 20  1  0  0  0  0
 21 22  2  0  0  0  0
 22 16  1  0  0  0  0
 23 20  2  0  0  0  0
 24 21  1  0  0  0  0
 25 22  1  0  0  0  0
 26 17  2  0  0  0  0
 26 24  1  0  0  0  0
 27 25  2  0  0  0  0
 28 27  1  0  0  0  0
 28 29  1  0  0  0  0
 29 32  1  0  0  0  0
 30 28  2  0  0  0  0
 32 31  3  0  0  0  0
 33 34  1  0  0  0  0
 35 37  2  0  0  0  0
 36 40  1  0  0  0  0
 37 40  1  0  0  0  0
 37 34  1  0  0  0  0
 38 36  2  0  0  0  0
 38 35  1  0  0  0  0
 39 36  1  0  0  0  0
 41 39  1  0  0  0  0
 42 51  1  6  0  0  0
 42 41  1  0  0  0  0
 43 44  2  0  0  0  0
 44 42  1  0  0  0  0
 45 43  1  0  0  0  0
 45 46  1  0  0  0  0
 46 47  1  1  0  0  0
 48 46  1  0  0  0  0
 48 49  1  0  0  0  0
 50 49  1  0  0  0  0
 52 51  2  0  0  0  0
M  END
>  <MODEL>
9

>  <REMARK>
 VINA RESULT:      -6.9      3.124      8.663
  Name = 
  19 active torsions:
  status: ('A' for Active; 'I' for Inactive)
    1  A    between atoms: N_1  and  N_40
    2  A    between atoms: N_1  and  C_42
    3  A    between atoms: O_2  and  C_38
    4  A    between atoms: C_4  and  O_8
    5  A    between atoms: C_5  and  C_51
    6  A    between atoms: C_7  and  C_21
    7  A    between atoms: C_7  and  C_22
    8  A    between atoms: O_8  and  C_47
    9  A    between atoms: C_9  and  C_23
   10  A    between atoms: C_16  and  C_22
   11  A    between atoms: N_19  and  C_48
   12  A    between atoms: C_23  and  C_26
   13  A    between atoms: N_24  and  CA_34
   14  A    between atoms: C_26  and  C_38
   15  A    between atoms: C_28  and  N_40
   16  A    between atoms: C_29  and  CA_34
   17  A    between atoms: C_29  and  N_41
   18  A    between atoms: C_32  and  CA_34
   19  A    between atoms: C_47  and  C_50
                            x       y       z     vdW  Elec       q    Type
                         _______ _______ _______ _____ _____    ______ ____

>  <TORSDO>
F 19

$$$$
