=
 OpenBabel10222416403D

 30 33  0  0  1  0  0  0  0  0999 V2000
  188.4080  177.2190  138.6800 C   0  0  0  0  0  2  0  0  0  0  0  0
  188.2090  177.5320  141.1140 N   0  0  0  0  0  0  0  0  0  0  0  0
  189.0200  177.3420  140.0410 C   0  0  0  0  0  0  0  0  0  0  0  0
  191.3450  177.0050  139.1100 C   0  0  0  0  0  2  0  0  0  0  0  0
  190.9010  177.4010  141.4980 N   0  0  0  0  0  0  0  0  0  0  0  0
  191.1010  175.6790  138.5570 N   0  0  0  0  0  2  0  0  0  0  0  0
  190.1000  177.6180  142.5770 C   0  0  0  0  0  0  0  0  0  0  0  0
  190.1130  175.8070  137.4890 C   0  0  2  0  0  3  0  0  0  0  0  0
  188.6960  177.6630  142.3780 C   0  0  0  0  0  0  0  0  0  0  0  0
  190.4060  177.2640  140.2420 C   0  0  0  0  0  0  0  0  0  0  0  0
  188.6950  175.8590  138.0560 C   0  0  0  0  0  2  0  0  0  0  0  0
  187.7240  177.7660  143.4910 C   0  0  0  0  0  0  0  0  0  0  0  0
  187.2250  177.4830  145.8440 C   0  0  0  0  0  3  0  0  0  0  0  0
  185.4990  178.1940  144.3800 C   0  0  0  0  0  0  0  0  0  0  0  0
  185.8990  178.5060  142.0140 C   0  0  0  0  0  3  0  0  0  0  0  0
  185.9400  177.8630  145.6210 N   0  0  0  0  0  0  0  0  0  0  0  0
  183.7270  178.9140  142.9720 C   0  0  0  0  0  3  0  0  0  0  0  0
  188.1340  177.4240  144.7860 C   0  0  0  0  0  3  0  0  0  0  0  0
  184.2050  178.5700  144.1980 N   0  0  0  0  0  0  0  0  0  0  0  0
  186.3840  178.1480  143.2790 C   0  0  0  0  0  0  0  0  0  0  0  0
  184.5670  178.8880  141.8570 C   0  0  0  0  0  3  0  0  0  0  0  0
  190.7550  177.8220  143.8890 C   0  0  0  0  0  0  0  0  0  0  0  0
  191.0870  176.7540  144.6350 C   0  0  0  0  0  3  0  0  0  0  0  0
  190.9200  179.1750  144.3460 N   0  0  0  0  0  2  0  0  0  0  0  0
  192.0150  179.7730  144.3430 O   0  0  0  0  0  1  0  0  0  0  0  0
  191.6800  176.7950  146.0040 C   0  0  0  0  0  2  0  0  0  0  0  0
  192.4610  175.6370  147.7110 C   0  0  0  0  0  1  0  0  0  0  0  0
  192.1320  175.5240  146.3620 O   0  0  0  0  0  0  0  0  0  0  0  0
  190.2500  174.6460  136.5140 C   0  0  0  0  0  2  0  0  0  0  0  0
  190.5520  173.4610  137.1910 O   0  0  0  0  0  1  0  0  0  0  0  0
  1  3  1  0  0  0  0
  2  9  1  0  0  0  0
  3 10  1  0  0  0  0
  3  2  2  0  0  0  0
  4 10  1  0  0  0  0
  5  7  1  0  0  0  0
  6  4  1  0  0  0  0
  7 22  1  0  0  0  0
  8 29  1  6  0  0  0
  8 11  1  0  0  0  0
  8  6  1  0  0  0  0
  9  7  2  0  0  0  0
  9 12  1  0  0  0  0
 10  5  2  0  0  0  0
 11  1  1  0  0  0  0
 12 18  1  0  0  0  0
 14 16  2  0  0  0  0
 15 20  1  0  0  0  0
 16 13  1  0  0  0  0
 17 19  2  0  0  0  0
 18 13  2  0  0  0  0
 19 14  1  0  0  0  0
 20 12  2  0  0  0  0
 20 14  1  0  0  0  0
 21 15  2  0  0  0  0
 21 17  1  0  0  0  0
 22 24  1  0  0  0  0
 22 23  2  0  0  0  0
 23 26  1  0  0  0  0
 25 24  1  0  0  0  0
 26 28  1  0  0  0  0
 28 27  1  0  0  0  0
 29 30  1  0  0  0  0
M  END
>  <MODEL>
1

>  <REMARK>
 VINA RESULT:      -8.4      0.000      0.000
  Name = 
  6 active torsions:
  status: ('A' for Active; 'I' for Inactive)
    1  A    between atoms: C_1  and  C_23
    2  A    between atoms: C_2  and  N_13
    3  A    between atoms: C_2  and  C_19
    4  A    between atoms: O_9  and  C_27
    5  A    between atoms: C_12  and  C_27
    6  A    between atoms: C_14  and  CA_21
                            x       y       z     vdW  Elec       q    Type
                         _______ _______ _______ _____ _____    ______ ____

>  <TORSDO>
F 6

$$$$
=
 OpenBabel10222416403D

 30 33  0  0  1  0  0  0  0  0999 V2000
  184.5370  179.4890  142.9480 C   0  0  0  0  0  2  0  0  0  0  0  0
  186.8000  178.7210  142.3570 N   0  0  0  0  0  0  0  0  0  0  0  0
  185.5530  179.0550  141.9370 C   0  0  0  0  0  0  0  0  0  0  0  0
  183.8850  179.2800  140.0510 C   0  0  0  0  0  2  0  0  0  0  0  0
  186.2230  178.5930  139.7000 N   0  0  0  0  0  0  0  0  0  0  0  0
  182.9330  178.3050  140.5670 N   0  0  0  0  0  2  0  0  0  0  0  0
  187.4840  178.2830  140.1070 C   0  0  0  0  0  0  0  0  0  0  0  0
  182.3910  178.8200  141.8210 C   0  0  2  0  0  3  0  0  0  0  0  0
  187.7760  178.3280  141.4950 C   0  0  0  0  0  0  0  0  0  0  0  0
  185.2540  178.9770  140.5690 C   0  0  0  0  0  0  0  0  0  0  0  0
  183.3420  178.5440  142.9840 C   0  0  0  0  0  2  0  0  0  0  0  0
  189.0720  177.8910  142.0630 C   0  0  0  0  0  0  0  0  0  0  0  0
  191.3930  177.2880  141.7170 C   0  0  0  0  0  3  0  0  0  0  0  0
  190.4780  177.1350  143.9010 C   0  0  0  0  0  0  0  0  0  0  0  0
  188.1720  177.7160  144.3470 C   0  0  0  0  0  3  0  0  0  0  0  0
  191.5200  177.0030  143.0390 N   0  0  0  0  0  0  0  0  0  0  0  0
  189.6290  176.9650  146.1130 C   0  0  0  0  0  3  0  0  0  0  0  0
  190.1710  177.7310  141.2080 C   0  0  0  0  0  3  0  0  0  0  0  0
  190.6460  176.8410  145.2180 N   0  0  0  0  0  0  0  0  0  0  0  0
  189.2220  177.5800  143.4290 C   0  0  0  0  0  0  0  0  0  0  0  0
  188.3730  177.4060  145.6930 C   0  0  0  0  0  3  0  0  0  0  0  0
  188.4790  177.9450  139.0640 C   0  0  0  0  0  0  0  0  0  0  0  0
  188.7060  176.6550  138.7620 C   0  0  0  0  0  3  0  0  0  0  0  0
  189.2290  179.0260  138.4850 N   0  0  0  0  0  2  0  0  0  0  0  0
  188.8600  179.6520  137.4710 O   0  0  0  0  0  1  0  0  0  0  0  0
  189.7260  176.1510  137.7950 C   0  0  0  0  0  2  0  0  0  0  0  0
  191.9000  176.1750  138.1670 C   0  0  0  0  0  1  0  0  0  0  0  0
  190.7360  175.4760  138.4810 O   0  0  0  0  0  0  0  0  0  0  0  0
  181.0290  178.1970  142.0920 C   0  0  0  0  0  2  0  0  0  0  0  0
  180.5550  178.5650  143.3530 O   0  0  0  0  0  1  0  0  0  0  0  0
  1 11  1  0  0  0  0
  3  2  1  0  0  0  0
  3  1  1  0  0  0  0
  4  6  1  0  0  0  0
  4 10  1  0  0  0  0
  5  7  2  0  0  0  0
  5 10  1  0  0  0  0
  6  8  1  0  0  0  0
  7  9  1  0  0  0  0
  8 29  1  1  0  0  0
  8 11  1  0  0  0  0
  9 12  1  0  0  0  0
  9  2  2  0  0  0  0
 10  3  2  0  0  0  0
 12 20  2  0  0  0  0
 13 16  1  0  0  0  0
 14 19  1  0  0  0  0
 15 21  2  0  0  0  0
 16 14  2  0  0  0  0
 18 13  2  0  0  0  0
 18 12  1  0  0  0  0
 19 17  2  0  0  0  0
 20 14  1  0  0  0  0
 20 15  1  0  0  0  0
 21 17  1  0  0  0  0
 22  7  1  0  0  0  0
 23 22  2  0  0  0  0
 24 22  1  0  0  0  0
 25 24  1  0  0  0  0
 26 28  1  0  0  0  0
 26 23  1  0  0  0  0
 27 28  1  0  0  0  0
 29 30  1  0  0  0  0
M  END
>  <MODEL>
2

>  <REMARK>
 VINA RESULT:      -8.1      2.980      6.754
  Name = 
  6 active torsions:
  status: ('A' for Active; 'I' for Inactive)
    1  A    between atoms: C_1  and  C_23
    2  A    between atoms: C_2  and  N_13
    3  A    between atoms: C_2  and  C_19
    4  A    between atoms: O_9  and  C_27
    5  A    between atoms: C_12  and  C_27
    6  A    between atoms: C_14  and  CA_21
                            x       y       z     vdW  Elec       q    Type
                         _______ _______ _______ _____ _____    ______ ____

>  <TORSDO>
F 6

$$$$
=
 OpenBabel10222416403D

 30 33  0  0  1  0  0  0  0  0999 V2000
  187.9610  176.5450  143.2740 C   0  0  0  0  0  2  0  0  0  0  0  0
  188.7250  177.0060  140.9800 N   0  0  0  0  0  0  0  0  0  0  0  0
  189.0520  176.6830  142.2570 C   0  0  0  0  0  0  0  0  0  0  0  0
  190.8290  176.1860  143.9850 C   0  0  0  0  0  2  0  0  0  0  0  0
  191.3430  176.6140  141.6160 N   0  0  0  0  0  0  0  0  0  0  0  0
  190.5200  177.3140  144.8540 N   0  0  0  0  0  2  0  0  0  0  0  0
  191.0240  176.9120  140.3260 C   0  0  0  0  0  0  0  0  0  0  0  0
  189.1800  177.1150  145.3980 C   0  0  2  0  0  3  0  0  0  0  0  0
  189.6620  177.1380  140.0020 C   0  0  0  0  0  0  0  0  0  0  0  0
  190.4020  176.4920  142.5860 C   0  0  0  0  0  0  0  0  0  0  0  0
  188.1120  177.5600  144.4000 C   0  0  0  0  0  2  0  0  0  0  0  0
  189.2130  177.5910  138.6650 C   0  0  2  0  0  3  0  0  0  0  0  0
  188.7850  179.4110  137.1250 C   0  0  0  0  0  3  0  0  0  0  0  0
  188.2730  177.1920  136.4550 C   0  0  0  0  0  0  0  0  0  0  0  0
  188.6660  175.3090  137.9220 C   0  0  0  0  0  3  0  0  0  0  0  0
  188.3190  178.5270  136.2040 N   0  0  0  0  0  0  0  0  0  0  0  0
  187.7420  174.9980  135.7190 C   0  0  0  0  0  3  0  0  0  0  0  0
  189.2340  178.9590  138.3670 C   0  0  0  0  0  3  0  0  0  0  0  0
  187.8000  176.3400  135.5070 N   0  0  0  0  0  0  0  0  0  0  0  0
  188.7160  176.6910  137.7000 C   0  0  0  0  0  0  0  0  0  0  0  0
  188.1750  174.4580  136.9310 C   0  0  0  0  0  2  0  0  0  0  0  0
  192.1270  176.9510  139.3380 C   0  0  0  0  0  0  0  0  0  0  0  0
  191.9950  176.2880  138.1770 C   0  0  0  0  0  3  0  0  0  0  0  0
  193.3360  177.6290  139.7180 N   0  0  0  0  0  2  0  0  0  0  0  0
  194.3550  177.0370  140.1290 O   0  0  0  0  0  1  0  0  0  0  0  0
  193.0400  176.1670  137.1170 C   0  0  0  0  0  2  0  0  0  0  0  0
  193.1250  173.9630  137.1490 C   0  0  0  0  0  1  0  0  0  0  0  0
  193.8890  175.0990  137.4090 O   0  0  0  0  0  0  0  0  0  0  0  0
  189.0320  177.8770  146.7070 C   0  0  0  0  0  2  0  0  0  0  0  0
  188.5950  177.0310  147.7290 O   0  0  0  0  0  1  0  0  0  0  0  0
  1 11  1  0  0  0  0
  2  3  1  0  0  0  0
  3 10  2  0  0  0  0
  3  1  1  0  0  0  0
  4  6  1  0  0  0  0
  5 10  1  0  0  0  0
  6  8  1  0  0  0  0
  7  5  2  0  0  0  0
  8 29  1  1  0  0  0
  9  7  1  0  0  0  0
  9  2  2  0  0  0  0
 10  4  1  0  0  0  0
 11  8  1  0  0  0  0
 12  9  1  1  0  0  0
 13 18  2  0  0  0  0
 14 20  1  0  0  0  0
 16 14  2  0  0  0  0
 16 13  1  0  0  0  0
 17 21  1  0  0  0  0
 18 12  1  0  0  0  0
 19 17  2  0  0  0  0
 19 14  1  0  0  0  0
 20 15  2  0  0  0  0
 20 12  1  0  0  0  0
 21 15  1  0  0  0  0
 22 24  1  0  0  0  0
 22  7  1  0  0  0  0
 23 22  2  0  0  0  0
 24 25  1  0  0  0  0
 26 28  1  0  0  0  0
 26 23  1  0  0  0  0
 27 28  1  0  0  0  0
 29 30  1  0  0  0  0
M  END
>  <MODEL>
3

>  <REMARK>
 VINA RESULT:      -7.9      2.812      7.070
  Name = 
  6 active torsions:
  status: ('A' for Active; 'I' for Inactive)
    1  A    between atoms: C_1  and  C_23
    2  A    between atoms: C_2  and  N_13
    3  A    between atoms: C_2  and  C_19
    4  A    between atoms: O_9  and  C_27
    5  A    between atoms: C_12  and  C_27
    6  A    between atoms: C_14  and  CA_21
                            x       y       z     vdW  Elec       q    Type
                         _______ _______ _______ _____ _____    ______ ____

>  <TORSDO>
F 6

$$$$
=
 OpenBabel10222416403D

 30 33  0  0  1  0  0  0  0  0999 V2000
  190.6230  176.2420  142.5040 C   0  0  0  0  0  2  0  0  0  0  0  0
  188.5230  177.1590  143.4040 N   0  0  0  0  0  0  0  0  0  0  0  0
  189.2780  176.8720  142.3130 C   0  0  0  0  0  0  0  0  0  0  0  0
  189.5820  176.9370  139.8040 C   0  0  0  0  0  2  0  0  0  0  0  0
  187.5430  177.7340  140.9290 N   0  0  0  0  0  0  0  0  0  0  0  0
  190.7690  177.7820  139.8120 N   0  0  0  0  0  2  0  0  0  0  0  0
  186.7660  178.0000  142.0150 C   0  0  0  0  0  0  0  0  0  0  0  0
  191.8490  177.0430  140.4600 C   0  0  2  0  0  3  0  0  0  0  0  0
  187.2880  177.7210  143.3050 C   0  0  0  0  0  0  0  0  0  0  0  0
  188.7770  177.1800  141.0390 C   0  0  0  0  0  0  0  0  0  0  0  0
  191.7410  177.1360  141.9810 C   0  0  0  0  0  2  0  0  0  0  0  0
  186.5860  178.0860  144.5570 C   0  0  0  0  0  0  0  0  0  0  0  0
  184.6190  178.9830  145.6480 C   0  0  0  0  0  3  0  0  0  0  0  0
  186.4920  178.3740  146.9720 C   0  0  0  0  0  0  0  0  0  0  0  0
  188.5020  177.4690  145.9750 C   0  0  0  0  0  3  0  0  0  0  0  0
  185.2290  178.8620  146.8560 N   0  0  0  0  0  0  0  0  0  0  0  0
  188.3270  177.7800  148.3570 C   0  0  0  0  0  3  0  0  0  0  0  0
  185.2860  178.6020  144.4830 C   0  0  0  0  0  3  0  0  0  0  0  0
  187.0670  178.2680  148.1990 N   0  0  0  0  0  0  0  0  0  0  0  0
  187.2060  177.9780  145.8180 C   0  0  0  0  0  0  0  0  0  0  0  0
  189.0670  177.3710  147.2460 C   0  0  0  0  0  3  0  0  0  0  0  0
  185.4090  178.5410  141.7720 C   0  0  0  0  0  0  0  0  0  0  0  0
  184.3360  177.8330  142.1650 C   0  0  0  0  0  3  0  0  0  0  0  0
  185.3050  179.7690  141.0320 N   0  0  0  0  0  2  0  0  0  0  0  0
  185.0000  179.8200  139.8230 O   0  0  0  0  0  1  0  0  0  0  0  0
  182.9100  178.2020  141.9250 C   0  0  0  0  0  2  0  0  0  0  0  0
  181.0970  179.2070  142.6790 C   0  0  0  0  0  1  0  0  0  0  0  0
  182.4250  178.9400  143.0060 O   0  0  0  0  0  0  0  0  0  0  0  0
  193.1950  177.5740  139.9910 C   0  0  0  0  0  2  0  0  0  0  0  0
  193.6330  176.8870  138.8560 O   0  0  0  0  0  1  0  0  0  0  0  0
  3  1  1  0  0  0  0
  3  2  2  0  0  0  0
  4  6  1  0  0  0  0
  4 10  1  0  0  0  0
  5 10  2  0  0  0  0
  5  7  1  0  0  0  0
  6  8  1  0  0  0  0
  7  9  2  0  0  0  0
  8 29  1  6  0  0  0
  8 11  1  0  0  0  0
  9  2  1  0  0  0  0
  9 12  1  0  0  0  0
 10  3  1  0  0  0  0
 11  1  1  0  0  0  0
 12 20  2  0  0  0  0
 13 16  1  0  0  0  0
 14 19  1  0  0  0  0
 15 21  2  0  0  0  0
 16 14  2  0  0  0  0
 18 12  1  0  0  0  0
 18 13  2  0  0  0  0
 19 17  2  0  0  0  0
 20 15  1  0  0  0  0
 20 14  1  0  0  0  0
 21 17  1  0  0  0  0
 22  7  1  0  0  0  0
 22 23  2  0  0  0  0
 24 22  1  0  0  0  0
 25 24  1  0  0  0  0
 26 23  1  0  0  0  0
 26 28  1  0  0  0  0
 27 28  1  0  0  0  0
 30 29  1  0  0  0  0
M  END
>  <MODEL>
4

>  <REMARK>
 VINA RESULT:      -7.7      2.997      5.575
  Name = 
  6 active torsions:
  status: ('A' for Active; 'I' for Inactive)
    1  A    between atoms: C_1  and  C_23
    2  A    between atoms: C_2  and  N_13
    3  A    between atoms: C_2  and  C_19
    4  A    between atoms: O_9  and  C_27
    5  A    between atoms: C_12  and  C_27
    6  A    between atoms: C_14  and  CA_21
                            x       y       z     vdW  Elec       q    Type
                         _______ _______ _______ _____ _____    ______ ____

>  <TORSDO>
F 6

$$$$
=
 OpenBabel10222416403D

 30 33  0  0  1  0  0  0  0  0999 V2000
  190.6860  176.8120  141.9010 C   0  0  0  0  0  2  0  0  0  0  0  0
  190.5200  176.0630  139.5620 N   0  0  0  0  0  0  0  0  0  0  0  0
  190.0390  176.8580  140.5510 C   0  0  0  0  0  0  0  0  0  0  0  0
  188.3400  178.5560  141.3400 C   0  0  0  0  0  2  0  0  0  0  0  0
  188.4160  177.7070  139.0310 N   0  0  0  0  0  0  0  0  0  0  0  0
  187.7560  177.7200  142.3800 N   0  0  0  0  0  2  0  0  0  0  0  0
  188.9070  176.9340  138.0240 C   0  0  0  0  0  0  0  0  0  0  0  0
  188.7770  177.4780  143.3960 C   0  0  2  0  0  3  0  0  0  0  0  0
  189.9890  176.0600  138.3090 C   0  0  0  0  0  0  0  0  0  0  0  0
  188.9480  177.6960  140.2790 C   0  0  0  0  0  0  0  0  0  0  0  0
  189.7110  176.3440  142.9750 C   0  0  0  0  0  2  0  0  0  0  0  0
  190.5200  175.0850  137.3290 C   0  0  0  0  0  0  0  0  0  0  0  0
  190.2510  173.0080  136.1120 C   0  0  0  0  0  3  0  0  0  0  0  0
  192.2580  174.2450  135.8460 C   0  0  0  0  0  0  0  0  0  0  0  0
  192.6200  176.3310  137.0170 C   0  0  0  0  0  3  0  0  0  0  0  0
  191.4790  173.1710  135.5550 N   0  0  0  0  0  0  0  0  0  0  0  0
  194.2880  175.4350  135.5280 C   0  0  0  0  0  3  0  0  0  0  0  0
  189.7540  173.9570  137.0080 C   0  0  0  0  0  3  0  0  0  0  0  0
  193.4810  174.3720  135.2660 N   0  0  0  0  0  0  0  0  0  0  0  0
  191.7960  175.2300  136.7490 C   0  0  0  0  0  0  0  0  0  0  0  0
  193.8710  176.4350  136.4090 C   0  0  0  0  0  3  0  0  0  0  0  0
  188.2930  177.0790  136.6850 C   0  0  0  0  0  0  0  0  0  0  0  0
  187.1690  176.4010  136.3970 C   0  0  0  0  0  3  0  0  0  0  0  0
  188.9930  177.8760  135.7150 N   0  0  0  0  0  2  0  0  0  0  0  0
  189.7270  177.3930  134.8290 O   0  0  0  0  0  1  0  0  0  0  0  0
  186.4750  176.3810  135.0760 C   0  0  0  0  0  2  0  0  0  0  0  0
  184.5830  177.0560  135.9880 C   0  0  0  0  0  1  0  0  0  0  0  0
  185.5270  177.4030  135.0230 O   0  0  0  0  0  0  0  0  0  0  0  0
  188.1170  177.1520  144.7280 C   0  0  0  0  0  2  0  0  0  0  0  0
  188.6720  177.9170  145.7580 O   0  0  0  0  0  1  0  0  0  0  0  0
  1 11  1  0  0  0  0
  2  3  1  0  0  0  0
  3  1  1  0  0  0  0
  4  6  1  0  0  0  0
  5 10  1  0  0  0  0
  6  8  1  0  0  0  0
  7  9  1  0  0  0  0
  7  5  2  0  0  0  0
  8 29  1  1  0  0  0
  9  2  2  0  0  0  0
 10  3  2  0  0  0  0
 10  4  1  0  0  0  0
 11  8  1  0  0  0  0
 12  9  1  0  0  0  0
 13 18  2  0  0  0  0
 14 20  1  0  0  0  0
 16 14  2  0  0  0  0
 16 13  1  0  0  0  0
 17 21  1  0  0  0  0
 18 12  1  0  0  0  0
 19 17  2  0  0  0  0
 19 14  1  0  0  0  0
 20 15  1  0  0  0  0
 20 12  2  0  0  0  0
 21 15  2  0  0  0  0
 22  7  1  0  0  0  0
 23 22  2  0  0  0  0
 24 22  1  0  0  0  0
 25 24  1  0  0  0  0
 26 23  1  0  0  0  0
 28 26  1  0  0  0  0
 28 27  1  0  0  0  0
 29 30  1  0  0  0  0
M  END
>  <MODEL>
5

>  <REMARK>
 VINA RESULT:      -7.6      2.866      8.942
  Name = 
  6 active torsions:
  status: ('A' for Active; 'I' for Inactive)
    1  A    between atoms: C_1  and  C_23
    2  A    between atoms: C_2  and  N_13
    3  A    between atoms: C_2  and  C_19
    4  A    between atoms: O_9  and  C_27
    5  A    between atoms: C_12  and  C_27
    6  A    between atoms: C_14  and  CA_21
                            x       y       z     vdW  Elec       q    Type
                         _______ _______ _______ _____ _____    ______ ____

>  <TORSDO>
F 6

$$$$
=
 OpenBabel10222416403D

 30 33  0  0  1  0  0  0  0  0999 V2000
  185.7770  178.6580  138.8950 C   0  0  0  0  0  2  0  0  0  0  0  0
  186.6040  178.2970  141.1860 N   0  0  0  0  0  0  0  0  0  0  0  0
  186.8800  178.3400  139.8570 C   0  0  0  0  0  0  0  0  0  0  0  0
  188.5440  178.0620  137.9750 C   0  0  0  0  0  2  0  0  0  0  0  0
  189.1500  177.8160  140.3480 N   0  0  0  0  0  0  0  0  0  0  0  0
  187.8450  176.9710  137.3080 N   0  0  0  0  0  2  0  0  0  0  0  0
  188.8900  177.7970  141.6840 C   0  0  0  0  0  0  0  0  0  0  0  0
  186.5680  177.4820  136.8180 C   0  0  2  0  0  3  0  0  0  0  0  0
  187.5580  178.0250  142.1170 C   0  0  0  0  0  0  0  0  0  0  0  0
  188.1890  178.0810  139.4260 C   0  0  0  0  0  0  0  0  0  0  0  0
  185.5220  177.5050  137.9320 C   0  0  0  0  0  2  0  0  0  0  0  0
  187.1360  177.9030  143.5310 C   0  0  2  0  0  3  0  0  0  0  0  0
  187.6080  177.1380  145.7800 C   0  0  0  0  0  3  0  0  0  0  0  0
  185.5150  178.1600  145.3290 C   0  0  0  0  0  0  0  0  0  0  0  0
  184.9510  178.9580  143.1150 C   0  0  0  0  0  3  0  0  0  0  0  0
  186.3870  177.5710  146.1880 N   0  0  0  0  0  0  0  0  0  0  0  0
  183.4040  179.1800  144.9490 C   0  0  0  0  0  3  0  0  0  0  0  0
  188.0000  177.2930  144.4490 C   0  0  0  0  0  3  0  0  0  0  0  0
  184.3020  178.5810  145.7760 N   0  0  0  0  0  0  0  0  0  0  0  0
  185.8690  178.3360  143.9720 C   0  0  0  0  0  0  0  0  0  0  0  0
  183.7130  179.3790  143.6020 C   0  0  0  0  0  2  0  0  0  0  0  0
  190.0290  177.5660  142.6010 C   0  0  0  0  0  0  0  0  0  0  0  0
  190.4410  178.5610  143.4060 C   0  0  0  0  0  3  0  0  0  0  0  0
  190.7060  176.3010  142.5160 N   0  0  0  0  0  2  0  0  0  0  0  0
  190.1810  175.2180  142.8440 O   0  0  0  0  0  1  0  0  0  0  0  0
  191.6150  178.5110  144.3260 C   0  0  0  0  0  2  0  0  0  0  0  0
  191.3010  177.2040  146.0750 C   0  0  0  0  0  1  0  0  0  0  0  0
  191.8080  177.2050  144.7770 O   0  0  0  0  0  0  0  0  0  0  0  0
  186.0820  176.6320  135.6530 C   0  0  0  0  0  2  0  0  0  0  0  0
  186.6470  175.3540  135.7010 O   0  0  0  0  0  1  0  0  0  0  0  0
  1  3  1  0  0  0  0
  2  9  1  0  0  0  0
  3  2  2  0  0  0  0
  4 10  1  0  0  0  0
  5  7  1  0  0  0  0
  6  4  1  0  0  0  0
  7  9  2  0  0  0  0
  7 22  1  0  0  0  0
  8 29  1  6  0  0  0
  8  6  1  0  0  0  0
  8 11  1  0  0  0  0
 10  3  1  0  0  0  0
 10  5  2  0  0  0  0
 11  1  1  0  0  0  0
 12  9  1  6  0  0  0
 12 20  1  0  0  0  0
 12 18  1  0  0  0  0
 13 16  1  0  0  0  0
 14 19  1  0  0  0  0
 14 16  2  0  0  0  0
 15 21  1  0  0  0  0
 15 20  2  0  0  0  0
 17 19  2  0  0  0  0
 18 13  2  0  0  0  0
 20 14  1  0  0  0  0
 21 17  1  0  0  0  0
 22 23  2  0  0  0  0
 23 26  1  0  0  0  0
 24 22  1  0  0  0  0
 24 25  1  0  0  0  0
 26 28  1  0  0  0  0
 28 27  1  0  0  0  0
 29 30  1  0  0  0  0
M  END
>  <MODEL>
6

>  <REMARK>
 VINA RESULT:      -7.5      2.063      2.629
  Name = 
  6 active torsions:
  status: ('A' for Active; 'I' for Inactive)
    1  A    between atoms: C_1  and  C_23
    2  A    between atoms: C_2  and  N_13
    3  A    between atoms: C_2  and  C_19
    4  A    between atoms: O_9  and  C_27
    5  A    between atoms: C_12  and  C_27
    6  A    between atoms: C_14  and  CA_21
                            x       y       z     vdW  Elec       q    Type
                         _______ _______ _______ _____ _____    ______ ____

>  <TORSDO>
F 6

$$$$
=
 OpenBabel10222416403D

 30 33  0  0  1  0  0  0  0  0999 V2000
  187.1810  179.0360  141.4060 C   0  0  0  0  0  2  0  0  0  0  0  0
  184.9280  179.1050  140.4160 N   0  0  0  0  0  0  0  0  0  0  0  0
  185.6940  178.9050  141.5190 C   0  0  0  0  0  0  0  0  0  0  0  0
  185.8590  178.2940  143.9670 C   0  0  0  0  0  2  0  0  0  0  0  0
  183.7140  178.4900  142.7750 N   0  0  0  0  0  0  0  0  0  0  0  0
  186.6660  177.0970  143.7750 N   0  0  0  0  0  2  0  0  0  0  0  0
  182.9350  178.7150  141.6820 C   0  0  0  0  0  0  0  0  0  0  0  0
  187.9620  177.5040  143.2390 C   0  0  2  0  0  3  0  0  0  0  0  0
  183.5710  179.0120  140.4480 C   0  0  0  0  0  0  0  0  0  0  0  0
  185.0680  178.5770  142.7310 C   0  0  0  0  0  0  0  0  0  0  0  0
  187.8870  177.7250  141.7290 C   0  0  0  0  0  2  0  0  0  0  0  0
  182.8330  179.1500  139.1710 C   0  0  0  0  0  0  0  0  0  0  0  0
  181.5180  180.5240  137.6710 C   0  0  0  0  0  3  0  0  0  0  0  0
  181.9160  178.2550  137.1010 C   0  0  0  0  0  0  0  0  0  0  0  0
  183.2190  176.8040  138.5340 C   0  0  0  0  0  3  0  0  0  0  0  0
  181.3710  179.4690  136.8280 N   0  0  0  0  0  0  0  0  0  0  0  0
  182.2820  175.9960  136.4670 C   0  0  0  0  0  3  0  0  0  0  0  0
  182.2460  180.3810  138.8540 C   0  0  0  0  0  3  0  0  0  0  0  0
  181.7470  177.2240  136.2310 N   0  0  0  0  0  0  0  0  0  0  0  0
  182.6600  178.0650  138.2880 C   0  0  0  0  0  0  0  0  0  0  0  0
  183.0280  175.7640  137.6230 C   0  0  0  0  0  3  0  0  0  0  0  0
  181.4660  178.6610  141.8620 C   0  0  0  0  0  0  0  0  0  0  0  0
  180.7720  177.6450  141.3230 C   0  0  0  0  0  3  0  0  0  0  0  0
  180.8390  179.7650  142.5350 N   0  0  0  0  0  2  0  0  0  0  0  0
  180.1260  180.6090  141.9540 O   0  0  0  0  0  1  0  0  0  0  0  0
  179.2870  177.4900  141.3510 C   0  0  0  0  0  2  0  0  0  0  0  0
  179.7490  175.6220  140.2710 C   0  0  0  0  0  1  0  0  0  0  0  0
  178.9520  176.1360  141.2920 O   0  0  0  0  0  0  0  0  0  0  0  0
  189.0120  176.4520  143.5680 C   0  0  0  0  0  2  0  0  0  0  0  0
  189.9810  176.9700  144.4310 O   0  0  0  0  0  1  0  0  0  0  0  0
  1  3  1  0  0  0  0
  1 11  1  0  0  0  0
  2  9  2  0  0  0  0
  2  3  1  0  0  0  0
  3 10  2  0  0  0  0
  6  4  1  0  0  0  0
  7 22  1  0  0  0  0
  7  5  2  0  0  0  0
  8 29  1  6  0  0  0
  8  6  1  0  0  0  0
  9  7  1  0  0  0  0
 10  5  1  0  0  0  0
 10  4  1  0  0  0  0
 11  8  1  0  0  0  0
 12  9  1  0  0  0  0
 13 18  2  0  0  0  0
 14 20  1  0  0  0  0
 16 14  2  0  0  0  0
 16 13  1  0  0  0  0
 17 21  1  0  0  0  0
 18 12  1  0  0  0  0
 19 17  2  0  0  0  0
 19 14  1  0  0  0  0
 20 15  1  0  0  0  0
 20 12  2  0  0  0  0
 21 15  2  0  0  0  0
 22 24  1  0  0  0  0
 23 26  1  0  0  0  0
 23 22  2  0  0  0  0
 25 24  1  0  0  0  0
 27 28  1  0  0  0  0
 28 26  1  0  0  0  0
 29 30  1  0  0  0  0
M  END
>  <MODEL>
7

>  <REMARK>
 VINA RESULT:      -7.5      5.055      8.501
  Name = 
  6 active torsions:
  status: ('A' for Active; 'I' for Inactive)
    1  A    between atoms: C_1  and  C_23
    2  A    between atoms: C_2  and  N_13
    3  A    between atoms: C_2  and  C_19
    4  A    between atoms: O_9  and  C_27
    5  A    between atoms: C_12  and  C_27
    6  A    between atoms: C_14  and  CA_21
                            x       y       z     vdW  Elec       q    Type
                         _______ _______ _______ _____ _____    ______ ____

>  <TORSDO>
F 6

$$$$
=
 OpenBabel10222416403D

 30 33  0  0  1  0  0  0  0  0999 V2000
  182.6770  177.6040  137.4590 C   0  0  0  0  0  2  0  0  0  0  0  0
  185.0500  177.0790  137.0620 N   0  0  0  0  0  0  0  0  0  0  0  0
  184.1300  177.7640  137.7880 C   0  0  0  0  0  0  0  0  0  0  0  0
  183.6090  179.4230  139.6230 C   0  0  0  0  0  2  0  0  0  0  0  0
  185.8970  178.6920  139.0850 N   0  0  0  0  0  0  0  0  0  0  0  0
  182.9620  180.4070  138.7650 N   0  0  0  0  0  2  0  0  0  0  0  0
  186.8260  177.9900  138.3810 C   0  0  0  0  0  0  0  0  0  0  0  0
  181.7430  179.8090  138.2270 C   0  0  2  0  0  3  0  0  0  0  0  0
  186.3840  177.1670  137.3120 C   0  0  0  0  0  0  0  0  0  0  0  0
  184.5680  178.6040  138.8230 C   0  0  0  0  0  0  0  0  0  0  0  0
  182.0530  178.9230  137.0210 C   0  0  0  0  0  2  0  0  0  0  0  0
  187.3120  176.4590  136.4000 C   0  0  0  0  0  0  0  0  0  0  0  0
  188.9220  176.5520  134.5940 C   0  0  0  0  0  3  0  0  0  0  0  0
  188.2990  174.4370  135.4710 C   0  0  0  0  0  0  0  0  0  0  0  0
  186.7000  174.2410  137.2760 C   0  0  0  0  0  3  0  0  0  0  0  0
  189.0200  175.1970  134.6060 N   0  0  0  0  0  0  0  0  0  0  0  0
  187.7250  172.2890  136.3050 C   0  0  0  0  0  3  0  0  0  0  0  0
  188.0670  177.2020  135.4850 C   0  0  0  0  0  3  0  0  0  0  0  0
  188.4260  173.0840  135.4520 N   0  0  0  0  0  0  0  0  0  0  0  0
  187.4190  175.0530  136.3900 C   0  0  0  0  0  0  0  0  0  0  0  0
  186.8490  172.8540  137.2330 C   0  0  0  0  0  3  0  0  0  0  0  0
  188.2410  178.1110  138.8000 C   0  0  0  0  0  0  0  0  0  0  0  0
  188.8120  177.1120  139.4940 C   0  0  0  0  0  3  0  0  0  0  0  0
  188.9140  179.3490  138.5180 N   0  0  0  0  0  2  0  0  0  0  0  0
  189.0310  179.8230  137.3690 O   0  0  0  0  0  1  0  0  0  0  0  0
  190.1960  177.1150  140.0520 C   0  0  0  0  0  2  0  0  0  0  0  0
  189.4030  176.6410  142.0550 C   0  0  0  0  0  1  0  0  0  0  0  0
  190.2920  176.1830  141.0850 O   0  0  0  0  0  0  0  0  0  0  0  0
  180.7560  180.9010  137.8410 C   0  0  0  0  0  2  0  0  0  0  0  0
  181.3120  182.1670  138.0430 O   0  0  0  0  0  1  0  0  0  0  0  0
  1  3  1  0  0  0  0
  2  9  2  0  0  0  0
  2  3  1  0  0  0  0
  3 10  2  0  0  0  0
  6  4  1  0  0  0  0
  7 22  1  0  0  0  0
  7  5  2  0  0  0  0
  8 29  1  6  0  0  0
  8  6  1  0  0  0  0
  9  7  1  0  0  0  0
 10  5  1  0  0  0  0
 10  4  1  0  0  0  0
 11  1  1  0  0  0  0
 11  8  1  0  0  0  0
 12  9  1  0  0  0  0
 13 16  1  0  0  0  0
 13 18  2  0  0  0  0
 14 20  1  0  0  0  0
 16 14  2  0  0  0  0
 17 21  1  0  0  0  0
 18 12  1  0  0  0  0
 19 14  1  0  0  0  0
 19 17  2  0  0  0  0
 20 12  2  0  0  0  0
 20 15  1  0  0  0  0
 21 15  2  0  0  0  0
 22 23  2  0  0  0  0
 23 26  1  0  0  0  0
 24 22  1  0  0  0  0
 25 24  1  0  0  0  0
 26 28  1  0  0  0  0
 28 27  1  0  0  0  0
 29 30  1  0  0  0  0
M  END
>  <MODEL>
8

>  <REMARK>
 VINA RESULT:      -7.5      4.372      8.124
  Name = 
  6 active torsions:
  status: ('A' for Active; 'I' for Inactive)
    1  A    between atoms: C_1  and  C_23
    2  A    between atoms: C_2  and  N_13
    3  A    between atoms: C_2  and  C_19
    4  A    between atoms: O_9  and  C_27
    5  A    between atoms: C_12  and  C_27
    6  A    between atoms: C_14  and  CA_21
                            x       y       z     vdW  Elec       q    Type
                         _______ _______ _______ _____ _____    ______ ____

>  <TORSDO>
F 6

$$$$
=
 OpenBabel10222416403D

 30 33  0  0  1  0  0  0  0  0999 V2000
  183.6600  179.7850  144.3450 C   0  0  0  0  0  2  0  0  0  0  0  0
  185.8610  178.7190  144.6250 N   0  0  0  0  0  0  0  0  0  0  0  0
  184.8270  179.0210  143.7990 C   0  0  0  0  0  0  0  0  0  0  0  0
  183.7510  178.8600  141.5170 C   0  0  0  0  0  2  0  0  0  0  0  0
  185.9740  177.9300  142.0210 N   0  0  0  0  0  0  0  0  0  0  0  0
  182.5670  178.1330  141.9540 N   0  0  0  0  0  2  0  0  0  0  0  0
  187.0290  177.6460  142.8330 C   0  0  0  0  0  0  0  0  0  0  0  0
  181.8010  179.0030  142.8430 C   0  0  2  0  0  3  0  0  0  0  0  0
  186.9580  178.0370  144.1950 C   0  0  0  0  0  0  0  0  0  0  0  0
  184.8810  178.6040  142.4610 C   0  0  0  0  0  0  0  0  0  0  0  0
  182.3710  178.9770  144.2600 C   0  0  0  0  0  2  0  0  0  0  0  0
  187.9860  177.6710  145.1960 C   0  0  0  0  0  0  0  0  0  0  0  0
  188.5350  176.7370  147.3630 C   0  0  0  0  0  3  0  0  0  0  0  0
  190.2780  177.6200  146.0160 C   0  0  0  0  0  0  0  0  0  0  0  0
  189.8310  178.5730  143.8380 C   0  0  0  0  0  3  0  0  0  0  0  0
  189.8470  177.0200  147.1570 N   0  0  0  0  0  0  0  0  0  0  0  0
  192.0710  178.4800  144.7190 C   0  0  0  0  0  3  0  0  0  0  0  0
  187.5860  177.0610  146.3910 C   0  0  0  0  0  3  0  0  0  0  0  0
  191.6000  177.8860  145.8480 N   0  0  0  0  0  0  0  0  0  0  0  0
  189.3510  177.9660  145.0060 C   0  0  0  0  0  0  0  0  0  0  0  0
  191.1930  178.8340  143.6920 C   0  0  0  0  0  3  0  0  0  0  0  0
  188.1980  176.9680  142.2280 C   0  0  0  0  0  0  0  0  0  0  0  0
  188.7820  177.5020  141.1420 C   0  0  0  0  0  3  0  0  0  0  0  0
  188.5950  175.7040  142.7860 N   0  0  0  0  0  2  0  0  0  0  0  0
  189.7820  175.3210  142.8430 O   0  0  0  0  0  1  0  0  0  0  0  0
  189.9130  176.9030  140.3750 C   0  0  0  0  0  2  0  0  0  0  0  0
  189.0550  178.4050  139.0060 C   0  0  0  0  0  1  0  0  0  0  0  0
  190.2350  177.7210  139.2910 O   0  0  0  0  0  0  0  0  0  0  0  0
  180.3400  178.5790  142.8520 C   0  0  0  0  0  2  0  0  0  0  0  0
  179.9690  178.1000  144.1110 O   0  0  0  0  0  1  0  0  0  0  0  0
  3  1  1  0  0  0  0
  3  2  2  0  0  0  0
  4  6  1  0  0  0  0
  4 10  1  0  0  0  0
  5 10  2  0  0  0  0
  5  7  1  0  0  0  0
  6  8  1  0  0  0  0
  7  9  2  0  0  0  0
  8 29  1  1  0  0  0
  8 11  1  0  0  0  0
  9  2  1  0  0  0  0
  9 12  1  0  0  0  0
 10  3  1  0  0  0  0
 11  1  1  0  0  0  0
 12 18  1  0  0  0  0
 14 16  2  0  0  0  0
 15 20  1  0  0  0  0
 16 13  1  0  0  0  0
 17 19  2  0  0  0  0
 18 13  2  0  0  0  0
 19 14  1  0  0  0  0
 20 12  2  0  0  0  0
 20 14  1  0  0  0  0
 21 15  2  0  0  0  0
 21 17  1  0  0  0  0
 22 24  1  0  0  0  0
 22  7  1  0  0  0  0
 23 22  2  0  0  0  0
 24 25  1  0  0  0  0
 26 23  1  0  0  0  0
 27 28  1  0  0  0  0
 28 26  1  0  0  0  0
 29 30  1  0  0  0  0
M  END
>  <MODEL>
9

>  <REMARK>
 VINA RESULT:      -7.3      3.026      6.852
  Name = 
  6 active torsions:
  status: ('A' for Active; 'I' for Inactive)
    1  A    between atoms: C_1  and  C_23
    2  A    between atoms: C_2  and  N_13
    3  A    between atoms: C_2  and  C_19
    4  A    between atoms: O_9  and  C_27
    5  A    between atoms: C_12  and  C_27
    6  A    between atoms: C_14  and  CA_21
                            x       y       z     vdW  Elec       q    Type
                         _______ _______ _______ _____ _____    ______ ____

>  <TORSDO>
F 6

$$$$
