=
 OpenBabel10222415493D

 31 34  0  0  1  0  0  0  0  0999 V2000
  188.9210  176.8810  142.4370 C   0  0  2  0  0  3  0  0  0  0  0  0
  189.3950  177.7630  141.3670 N   0  0  0  0  0  2  0  0  0  0  0  0
  185.9110  179.0110  141.7760 C   0  0  0  0  0  0  0  0  0  0  0  0
  187.5320  177.3310  142.8340 C   0  0  0  0  0  2  0  0  0  0  0  0
  185.6920  179.7880  140.8050 O   0  0  0  0  0  0  0  0  0  0  0  0
  187.1570  178.2880  141.8220 N   0  0  0  0  0  0  0  0  0  0  0  0
  188.2320  178.4930  140.8720 C   0  0  2  0  0  3  0  0  0  0  0  0
  182.6050  178.6510  143.5460 N   0  0  0  0  0  0  0  0  0  0  0  0
  184.8790  178.8810  142.8390 C   0  0  0  0  0  0  0  0  0  0  0  0
  183.0550  178.6390  141.1880 N   0  0  0  0  0  1  0  0  0  0  0  0
  183.5100  178.7340  142.5360 C   0  0  0  0  0  0  0  0  0  0  0  0
  184.2770  178.8580  145.1780 C   0  0  0  0  0  0  0  0  0  0  0  0
  185.2490  178.9500  144.1860 C   0  0  0  0  0  3  0  0  0  0  0  0
  182.9740  178.7120  144.8280 N   0  0  0  0  0  0  0  0  0  0  0  0
  184.6460  178.9240  146.5510 N   0  0  0  0  0  1  0  0  0  0  0  0
  187.8340  177.9500  139.5060 C   0  0  0  0  0  2  0  0  0  0  0  0
  188.9980  178.0550  138.5340 C   0  0  1  0  0  3  0  0  0  0  0  0
  189.1020  176.7780  137.7210 C   0  0  1  0  0  3  0  0  0  0  0  0
  188.5720  178.8110  137.2880 C   0  0  0  0  0  2  0  0  0  0  0  0
  188.6860  177.5370  136.4720 C   0  0  0  0  0  2  0  0  0  0  0  0
  194.4950  176.7930  136.2300 O   0  0  0  0  0  0  0  0  0  0  0  0
  191.0810  176.2000  136.4250 C   0  0  0  0  0  3  0  0  0  0  0  0
  191.2590  175.9740  138.8110 N   0  0  0  0  0  2  0  0  0  0  0  0
  193.5780  176.4520  138.3350 N   0  0  0  0  0  2  0  0  0  0  0  0
  192.4360  176.7380  139.1960 C   0  0  0  0  0  2  0  0  0  0  0  0
  190.5260  176.3160  137.6300 C   0  0  0  0  0  0  0  0  0  0  0  0
  193.5310  176.3540  136.9080 C   0  0  0  0  0  0  0  0  0  0  0  0
  192.4380  175.6100  136.2090 C   0  0  0  0  0  2  0  0  0  0  0  0
  189.8490  176.9610  143.6350 C   0  0  0  0  0  2  0  0  0  0  0  0
  189.3510  177.2230  146.2990 S   0  0  0  0  0  1  0  0  0  0  0  0
  189.3160  177.9600  144.6430 C   0  0  0  0  0  2  0  0  0  0  0  0
  1  4  1  0  0  0  0
  1 29  1  1  0  0  0
  2  1  1  0  0  0  0
  3  6  1  0  0  0  0
  3  9  1  0  0  0  0
  5  3  2  0  0  0  0
  6  4  1  0  0  0  0
  7 16  1  6  0  0  0
  7  2  1  0  0  0  0
  7  6  1  0  0  0  0
  8 14  1  0  0  0  0
  9 13  2  0  0  0  0
 10 11  1  0  0  0  0
 11  9  1  0  0  0  0
 11  8  2  0  0  0  0
 12 15  1  0  0  0  0
 13 12  1  0  0  0  0
 14 12  2  0  0  0  0
 17 16  1  1  0  0  0
 18 26  1  6  0  0  0
 18 17  1  0  0  0  0
 19 17  1  0  0  0  0
 20 19  1  0  0  0  0
 20 18  1  0  0  0  0
 21 27  2  0  0  0  0
 22 26  2  0  0  0  0
 23 25  1  0  0  0  0
 24 25  1  0  0  0  0
 26 23  1  0  0  0  0
 27 24  1  0  0  0  0
 28 22  1  0  0  0  0
 28 27  1  0  0  0  0
 29 31  1  0  0  0  0
 31 30  1  0  0  0  0
M  END
>  <MODEL>
1

>  <REMARK>
 VINA RESULT:      -8.7      0.000      0.000
  Name = 
  6 active torsions:
  status: ('A' for Active; 'I' for Inactive)
    1  A    between atoms: C_1  and  C_10
    2  A    between atoms: C_1  and  C_29
    3  A    between atoms: C_2  and  C_16
    4  A    between atoms: C_5  and  C_8
    5  A    between atoms: C_11  and  C_26
    6  A    between atoms: C_14  and  C_16
                            x       y       z     vdW  Elec       q    Type
                         _______ _______ _______ _____ _____    ______ ____

>  <TORSDO>
F 6

$$$$
=
 OpenBabel10222415493D

 31 34  0  0  1  0  0  0  0  0999 V2000
  184.5050  178.2580  143.1320 C   0  0  2  0  0  3  0  0  0  0  0  0
  185.7580  178.9640  142.8500 N   0  0  0  0  0  2  0  0  0  0  0  0
  183.9900  179.4030  139.6030 C   0  0  0  0  0  0  0  0  0  0  0  0
  183.5860  178.4410  141.9440 C   0  0  0  0  0  2  0  0  0  0  0  0
  184.8390  179.8660  138.7920 O   0  0  0  0  0  0  0  0  0  0  0  0
  184.4220  179.0270  140.9250 N   0  0  0  0  0  0  0  0  0  0  0  0
  185.7640  179.2640  141.4220 C   0  0  2  0  0  3  0  0  0  0  0  0
  180.7590  177.9990  138.2670 N   0  0  0  0  0  0  0  0  0  0  0  0
  182.5750  179.2730  139.1640 C   0  0  0  0  0  0  0  0  0  0  0  0
  182.8400  176.8690  138.6570 N   0  0  0  0  0  1  0  0  0  0  0  0
  182.0510  178.0550  138.6850 C   0  0  0  0  0  0  0  0  0  0  0  0
  180.4180  180.2730  138.7370 C   0  0  0  0  0  0  0  0  0  0  0  0
  181.7330  180.3900  139.1760 C   0  0  0  0  0  3  0  0  0  0  0  0
  179.9650  179.0730  138.2910 N   0  0  0  0  0  0  0  0  0  0  0  0
  179.5540  181.4030  138.7490 N   0  0  0  0  0  1  0  0  0  0  0  0
  186.7530  178.3490  140.7120 C   0  0  0  0  0  2  0  0  0  0  0  0
  188.1520  178.5440  141.2750 C   0  0  1  0  0  3  0  0  0  0  0  0
  188.5960  177.2820  141.9920 C   0  0  1  0  0  3  0  0  0  0  0  0
  189.1880  178.2910  140.1940 C   0  0  0  0  0  2  0  0  0  0  0  0
  189.6400  177.0360  140.9170 C   0  0  0  0  0  2  0  0  0  0  0  0
  190.5340  176.4890  147.1800 O   0  0  0  0  0  0  0  0  0  0  0  0
  188.5820  177.2980  144.4270 C   0  0  0  0  0  3  0  0  0  0  0  0
  190.4990  178.2790  143.3590 N   0  0  0  0  0  2  0  0  0  0  0  0
  191.5730  177.5470  145.3940 N   0  0  0  0  0  2  0  0  0  0  0  0
  191.6590  177.6200  143.9400 C   0  0  0  0  0  2  0  0  0  0  0  0
  189.2340  177.6120  143.3080 C   0  0  0  0  0  0  0  0  0  0  0  0
  190.4060  177.1770  146.1350 C   0  0  0  0  0  0  0  0  0  0  0  0
  189.0540  177.7100  145.7840 C   0  0  0  0  0  2  0  0  0  0  0  0
  183.8510  178.8240  144.3790 C   0  0  0  0  0  2  0  0  0  0  0  0
  185.3480  178.3760  146.6090 S   0  0  0  0  0  1  0  0  0  0  0  0
  184.8910  179.4930  145.2560 C   0  0  0  0  0  2  0  0  0  0  0  0
  1 29  1  1  0  0  0
  2  1  1  0  0  0  0
  3  6  1  0  0  0  0
  4  1  1  0  0  0  0
  5  3  2  0  0  0  0
  6  7  1  0  0  0  0
  6  4  1  0  0  0  0
  7 16  1  6  0  0  0
  7  2  1  0  0  0  0
  8 14  2  0  0  0  0
  8 11  1  0  0  0  0
  9 13  1  0  0  0  0
  9  3  1  0  0  0  0
 10 11  1  0  0  0  0
 11  9  2  0  0  0  0
 12 15  1  0  0  0  0
 12 13  2  0  0  0  0
 14 12  1  0  0  0  0
 17 16  1  6  0  0  0
 17 18  1  0  0  0  0
 18 26  1  1  0  0  0
 19 20  1  0  0  0  0
 19 17  1  0  0  0  0
 20 18  1  0  0  0  0
 22 28  1  0  0  0  0
 23 25  1  0  0  0  0
 24 27  1  0  0  0  0
 25 24  1  0  0  0  0
 26 23  1  0  0  0  0
 26 22  2  0  0  0  0
 27 21  2  0  0  0  0
 28 27  1  0  0  0  0
 29 31  1  0  0  0  0
 31 30  1  0  0  0  0
M  END
>  <MODEL>
2

>  <REMARK>
 VINA RESULT:      -8.4      3.585      5.949
  Name = 
  6 active torsions:
  status: ('A' for Active; 'I' for Inactive)
    1  A    between atoms: C_1  and  C_10
    2  A    between atoms: C_1  and  C_29
    3  A    between atoms: C_2  and  C_16
    4  A    between atoms: C_5  and  C_8
    5  A    between atoms: C_11  and  C_26
    6  A    between atoms: C_14  and  C_16
                            x       y       z     vdW  Elec       q    Type
                         _______ _______ _______ _____ _____    ______ ____

>  <TORSDO>
F 6

$$$$
=
 OpenBabel10222415493D

 31 34  0  0  1  0  0  0  0  0999 V2000
  184.0870  178.3680  143.1620 C   0  0  2  0  0  3  0  0  0  0  0  0
  185.3350  179.1340  143.1240 N   0  0  0  0  0  2  0  0  0  0  0  0
  184.7060  178.6840  139.4810 C   0  0  0  0  0  0  0  0  0  0  0  0
  183.5980  178.1950  141.7410 C   0  0  0  0  0  2  0  0  0  0  0  0
  185.7550  179.0580  138.8880 O   0  0  0  0  0  0  0  0  0  0  0  0
  184.6980  178.6440  140.9220 N   0  0  0  0  0  0  0  0  0  0  0  0
  185.7950  179.1270  141.7380 C   0  0  2  0  0  3  0  0  0  0  0  0
  181.4260  178.8360  137.6330 N   0  0  0  0  0  0  0  0  0  0  0  0
  183.5170  178.3090  138.6720 C   0  0  0  0  0  0  0  0  0  0  0  0
  182.6110  180.6080  138.7370 N   0  0  0  0  0  1  0  0  0  0  0  0
  182.5080  179.2400  138.3510 C   0  0  0  0  0  0  0  0  0  0  0  0
  182.2220  176.6320  137.5100 C   0  0  0  0  0  0  0  0  0  0  0  0
  183.3500  176.9880  138.2420 C   0  0  0  0  0  3  0  0  0  0  0  0
  181.2850  177.5720  137.2260 N   0  0  0  0  0  0  0  0  0  0  0  0
  182.0480  175.2910  137.0670 N   0  0  0  0  0  1  0  0  0  0  0  0
  186.9950  178.1990  141.6030 C   0  0  0  0  0  2  0  0  0  0  0  0
  187.9050  178.3310  142.8140 C   0  0  1  0  0  3  0  0  0  0  0  0
  188.1390  176.9640  143.4300 C   0  0  1  0  0  3  0  0  0  0  0  0
  189.3570  178.3780  142.3720 C   0  0  0  0  0  2  0  0  0  0  0  0
  189.5940  177.0160  142.9980 C   0  0  0  0  0  2  0  0  0  0  0  0
  189.0980  178.6560  148.6770 O   0  0  0  0  0  0  0  0  0  0  0  0
  189.1170  176.9400  145.6600 C   0  0  0  0  0  3  0  0  0  0  0  0
  186.7240  177.1260  145.5410 N   0  0  0  0  0  2  0  0  0  0  0  0
  187.0610  178.3130  147.6170 N   0  0  0  0  0  2  0  0  0  0  0  0
  186.3760  178.3000  146.3290 C   0  0  0  0  0  2  0  0  0  0  0  0
  188.0100  177.0220  144.9230 C   0  0  0  0  0  0  0  0  0  0  0  0
  188.4440  178.0070  147.8210 C   0  0  0  0  0  0  0  0  0  0  0  0
  189.0940  176.8380  147.1510 C   0  0  0  0  0  2  0  0  0  0  0  0
  183.0420  179.1070  143.9780 C   0  0  0  0  0  2  0  0  0  0  0  0
  180.3820  178.5210  143.9870 S   0  0  0  0  0  1  0  0  0  0  0  0
  181.7860  179.3120  143.1550 C   0  0  0  0  0  2  0  0  0  0  0  0
  1 29  1  1  0  0  0
  2  1  1  0  0  0  0
  3  6  1  0  0  0  0
  4  1  1  0  0  0  0
  5  3  2  0  0  0  0
  6  7  1  0  0  0  0
  6  4  1  0  0  0  0
  7 16  1  1  0  0  0
  7  2  1  0  0  0  0
  8 11  1  0  0  0  0
  9  3  1  0  0  0  0
 11  9  2  0  0  0  0
 11 10  1  0  0  0  0
 12 13  2  0  0  0  0
 13  9  1  0  0  0  0
 14 12  1  0  0  0  0
 14  8  2  0  0  0  0
 15 12  1  0  0  0  0
 17 16  1  6  0  0  0
 17 18  1  0  0  0  0
 18 26  1  1  0  0  0
 19 17  1  0  0  0  0
 19 20  1  0  0  0  0
 20 18  1  0  0  0  0
 22 28  1  0  0  0  0
 23 25  1  0  0  0  0
 24 27  1  0  0  0  0
 25 24  1  0  0  0  0
 26 23  1  0  0  0  0
 26 22  2  0  0  0  0
 27 21  2  0  0  0  0
 28 27  1  0  0  0  0
 31 29  1  0  0  0  0
 31 30  1  0  0  0  0
M  END
>  <MODEL>
3

>  <REMARK>
 VINA RESULT:      -8.4      4.681      7.388
  Name = 
  6 active torsions:
  status: ('A' for Active; 'I' for Inactive)
    1  A    between atoms: C_1  and  C_10
    2  A    between atoms: C_1  and  C_29
    3  A    between atoms: C_2  and  C_16
    4  A    between atoms: C_5  and  C_8
    5  A    between atoms: C_11  and  C_26
    6  A    between atoms: C_14  and  C_16
                            x       y       z     vdW  Elec       q    Type
                         _______ _______ _______ _____ _____    ______ ____

>  <TORSDO>
F 6

$$$$
=
 OpenBabel10222415493D

 31 34  0  0  1  0  0  0  0  0999 V2000
  187.9620  177.8500  137.8320 C   0  0  2  0  0  3  0  0  0  0  0  0
  188.1060  178.5160  139.1290 N   0  0  0  0  0  2  0  0  0  0  0  0
  191.3570  176.7110  138.9310 C   0  0  0  0  0  0  0  0  0  0  0  0
  189.2670  177.1540  137.5150 C   0  0  0  0  0  2  0  0  0  0  0  0
  191.8890  176.8060  140.0720 O   0  0  0  0  0  0  0  0  0  0  0  0
  190.0260  177.2290  138.7390 N   0  0  0  0  0  0  0  0  0  0  0  0
  189.3040  177.9670  139.7580 C   0  0  2  0  0  3  0  0  0  0  0  0
  192.5420  174.2650  136.3230 N   0  0  0  0  0  0  0  0  0  0  0  0
  192.1270  176.0770  137.8300 C   0  0  0  0  0  0  0  0  0  0  0  0
  190.6390  174.1050  137.7770 N   0  0  0  0  0  1  0  0  0  0  0  0
  191.7850  174.8120  137.3100 C   0  0  0  0  0  0  0  0  0  0  0  0
  193.9950  176.1070  136.2970 C   0  0  0  0  0  0  0  0  0  0  0  0
  193.2570  176.7160  137.3080 C   0  0  0  0  0  3  0  0  0  0  0  0
  193.6150  174.8900  135.8320 N   0  0  0  0  0  0  0  0  0  0  0  0
  195.1430  176.7520  135.7590 N   0  0  0  0  0  1  0  0  0  0  0  0
  188.9010  177.0340  140.8930 C   0  0  0  0  0  2  0  0  0  0  0  0
  188.6690  177.8240  142.1700 C   0  0  1  0  0  3  0  0  0  0  0  0
  188.5450  176.8720  143.3450 C   0  0  1  0  0  3  0  0  0  0  0  0
  189.9910  178.3270  142.7210 C   0  0  0  0  0  2  0  0  0  0  0  0
  189.8620  177.3830  143.9010 C   0  0  0  0  0  2  0  0  0  0  0  0
  185.6590  179.7480  147.1810 O   0  0  0  0  0  0  0  0  0  0  0  0
  187.6140  177.4010  145.5320 C   0  0  0  0  0  3  0  0  0  0  0  0
  186.0830  177.4300  143.6800 N   0  0  0  0  0  2  0  0  0  0  0  0
  184.9790  179.0700  145.0670 N   0  0  0  0  0  2  0  0  0  0  0  0
  185.4310  178.7300  143.7230 C   0  0  0  0  0  2  0  0  0  0  0  0
  187.3940  177.2570  144.2260 C   0  0  0  0  0  0  0  0  0  0  0  0
  185.7410  178.8900  146.2650 C   0  0  0  0  0  0  0  0  0  0  0  0
  186.5160  177.6360  146.5190 C   0  0  0  0  0  2  0  0  0  0  0  0
  187.6470  178.8680  136.7500 C   0  0  0  0  0  2  0  0  0  0  0  0
  185.7260  177.0810  136.0230 S   0  0  0  0  0  1  0  0  0  0  0  0
  187.0860  178.1730  135.5260 C   0  0  0  0  0  2  0  0  0  0  0  0
  1 29  1  6  0  0  0
  1  2  1  0  0  0  0
  2  7  1  0  0  0  0
  3  5  2  0  0  0  0
  4  1  1  0  0  0  0
  4  6  1  0  0  0  0
  6  3  1  0  0  0  0
  6  7  1  0  0  0  0
  7 16  1  1  0  0  0
  8 11  1  0  0  0  0
  9  3  1  0  0  0  0
 11 10  1  0  0  0  0
 11  9  2  0  0  0  0
 12 13  2  0  0  0  0
 13  9  1  0  0  0  0
 14 12  1  0  0  0  0
 14  8  2  0  0  0  0
 15 12  1  0  0  0  0
 17 16  1  6  0  0  0
 17 19  1  0  0  0  0
 17 18  1  0  0  0  0
 18 20  1  0  0  0  0
 18 26  1  1  0  0  0
 19 20  1  0  0  0  0
 22 28  1  0  0  0  0
 23 25  1  0  0  0  0
 23 26  1  0  0  0  0
 24 27  1  0  0  0  0
 25 24  1  0  0  0  0
 26 22  2  0  0  0  0
 27 28  1  0  0  0  0
 27 21  2  0  0  0  0
 31 30  1  0  0  0  0
 31 29  1  0  0  0  0
M  END
>  <MODEL>
4

>  <REMARK>
 VINA RESULT:      -8.4      2.968      9.295
  Name = 
  6 active torsions:
  status: ('A' for Active; 'I' for Inactive)
    1  A    between atoms: C_1  and  C_10
    2  A    between atoms: C_1  and  C_29
    3  A    between atoms: C_2  and  C_16
    4  A    between atoms: C_5  and  C_8
    5  A    between atoms: C_11  and  C_26
    6  A    between atoms: C_14  and  C_16
                            x       y       z     vdW  Elec       q    Type
                         _______ _______ _______ _____ _____    ______ ____

>  <TORSDO>
F 6

$$$$
=
 OpenBabel10222415493D

 31 34  0  0  1  0  0  0  0  0999 V2000
  183.7520  178.2750  143.0530 C   0  0  2  0  0  3  0  0  0  0  0  0
  185.0700  178.9150  143.0770 N   0  0  0  0  0  2  0  0  0  0  0  0
  184.3420  179.0060  139.4260 C   0  0  0  0  0  0  0  0  0  0  0  0
  183.2270  178.3360  141.6350 C   0  0  0  0  0  2  0  0  0  0  0  0
  185.4140  179.3510  138.8560 O   0  0  0  0  0  0  0  0  0  0  0  0
  184.3530  178.7800  140.8500 N   0  0  0  0  0  0  0  0  0  0  0  0
  185.5050  179.0440  141.6900 C   0  0  2  0  0  3  0  0  0  0  0  0
  181.6420  177.5590  137.2340 N   0  0  0  0  0  0  0  0  0  0  0  0
  183.1100  178.8560  138.6090 C   0  0  0  0  0  0  0  0  0  0  0  0
  183.5510  176.4610  138.1860 N   0  0  0  0  0  1  0  0  0  0  0  0
  182.7640  177.6330  137.9970 C   0  0  0  0  0  0  0  0  0  0  0  0
  181.1400  179.8220  137.5980 C   0  0  0  0  0  0  0  0  0  0  0  0
  182.2770  179.9580  138.3880 C   0  0  0  0  0  3  0  0  0  0  0  0
  180.8540  178.6190  137.0380 N   0  0  0  0  0  0  0  0  0  0  0  0
  180.2870  180.9380  137.3720 N   0  0  0  0  0  1  0  0  0  0  0  0
  186.6050  178.0300  141.4040 C   0  0  0  0  0  2  0  0  0  0  0  0
  187.7960  178.2700  142.3170 C   0  0  1  0  0  3  0  0  0  0  0  0
  187.9680  177.0890  143.2540 C   0  0  1  0  0  3  0  0  0  0  0  0
  189.0830  177.8900  141.6060 C   0  0  0  0  0  2  0  0  0  0  0  0
  189.2610  176.7160  142.5500 C   0  0  0  0  0  2  0  0  0  0  0  0
  187.8410  177.0700  148.8480 O   0  0  0  0  0  0  0  0  0  0  0  0
  187.1910  177.6590  145.4900 C   0  0  0  0  0  3  0  0  0  0  0  0
  189.5460  177.9050  145.0790 N   0  0  0  0  0  2  0  0  0  0  0  0
  189.6550  177.4260  147.4440 N   0  0  0  0  0  2  0  0  0  0  0  0
  190.2140  177.1460  146.1260 C   0  0  0  0  0  2  0  0  0  0  0  0
  188.2250  177.5520  144.6570 C   0  0  0  0  0  0  0  0  0  0  0  0
  188.2590  177.5130  147.7480 C   0  0  0  0  0  0  0  0  0  0  0  0
  187.3080  178.2490  146.8590 C   0  0  0  0  0  2  0  0  0  0  0  0
  182.7980  178.9990  143.9850 C   0  0  0  0  0  2  0  0  0  0  0  0
  180.1100  178.5630  143.9670 S   0  0  0  0  0  1  0  0  0  0  0  0
  181.5420  179.4020  143.2380 C   0  0  0  0  0  2  0  0  0  0  0  0
  1  2  1  0  0  0  0
  1 29  1  1  0  0  0
  3  6  1  0  0  0  0
  4  1  1  0  0  0  0
  5  3  2  0  0  0  0
  6  4  1  0  0  0  0
  6  7  1  0  0  0  0
  7 16  1  6  0  0  0
  7  2  1  0  0  0  0
  8 11  1  0  0  0  0
  9  3  1  0  0  0  0
 11 10  1  0  0  0  0
 11  9  2  0  0  0  0
 12 13  2  0  0  0  0
 13  9  1  0  0  0  0
 14  8  2  0  0  0  0
 14 12  1  0  0  0  0
 15 12  1  0  0  0  0
 17 16  1  6  0  0  0
 17 18  1  0  0  0  0
 18 26  1  1  0  0  0
 19 17  1  0  0  0  0
 19 20  1  0  0  0  0
 20 18  1  0  0  0  0
 22 28  1  0  0  0  0
 23 25  1  0  0  0  0
 24 27  1  0  0  0  0
 25 24  1  0  0  0  0
 26 23  1  0  0  0  0
 26 22  2  0  0  0  0
 27 21  2  0  0  0  0
 28 27  1  0  0  0  0
 31 30  1  0  0  0  0
 31 29  1  0  0  0  0
M  END
>  <MODEL>
5

>  <REMARK>
 VINA RESULT:      -8.2      4.418      7.315
  Name = 
  6 active torsions:
  status: ('A' for Active; 'I' for Inactive)
    1  A    between atoms: C_1  and  C_10
    2  A    between atoms: C_1  and  C_29
    3  A    between atoms: C_2  and  C_16
    4  A    between atoms: C_5  and  C_8
    5  A    between atoms: C_11  and  C_26
    6  A    between atoms: C_14  and  C_16
                            x       y       z     vdW  Elec       q    Type
                         _______ _______ _______ _____ _____    ______ ____

>  <TORSDO>
F 6

$$$$
=
 OpenBabel10222415493D

 31 34  0  0  1  0  0  0  0  0999 V2000
  186.9490  178.7190  141.0560 C   0  0  2  0  0  3  0  0  0  0  0  0
  186.6910  177.8670  142.2190 N   0  0  0  0  0  2  0  0  0  0  0  0
  183.2140  178.4390  141.0180 C   0  0  0  0  0  0  0  0  0  0  0  0
  185.6330  178.9570  140.3480 C   0  0  0  0  0  2  0  0  0  0  0  0
  182.4460  178.0040  141.9210 O   0  0  0  0  0  0  0  0  0  0  0  0
  184.6350  178.4480  141.2570 N   0  0  0  0  0  0  0  0  0  0  0  0
  185.2480  177.8700  142.4370 C   0  0  2  0  0  3  0  0  0  0  0  0
  182.0010  178.5800  137.4540 N   0  0  0  0  0  0  0  0  0  0  0  0
  182.6210  178.9160  139.7400 C   0  0  0  0  0  0  0  0  0  0  0  0
  182.9310  176.7190  138.6510 N   0  0  0  0  0  1  0  0  0  0  0  0
  182.5230  178.0830  138.6070 C   0  0  0  0  0  0  0  0  0  0  0  0
  181.6580  180.6910  138.4160 C   0  0  0  0  0  0  0  0  0  0  0  0
  182.1840  180.2390  139.6220 C   0  0  0  0  0  3  0  0  0  0  0  0
  181.5820  179.8440  137.3590 N   0  0  0  0  0  0  0  0  0  0  0  0
  181.2070  182.0350  138.2900 N   0  0  0  0  0  1  0  0  0  0  0  0
  184.9190  178.7130  143.6630 C   0  0  0  0  0  2  0  0  0  0  0  0
  185.4320  178.0360  144.9230 C   0  0  1  0  0  3  0  0  0  0  0  0
  186.5610  178.8560  145.5210 C   0  0  1  0  0  3  0  0  0  0  0  0
  184.5490  178.3960  146.1050 C   0  0  0  0  0  2  0  0  0  0  0  0
  185.6810  179.2060  146.7080 C   0  0  0  0  0  2  0  0  0  0  0  0
  191.8520  177.1390  146.1310 O   0  0  0  0  0  0  0  0  0  0  0  0
  188.6050  177.6350  145.0090 C   0  0  0  0  0  3  0  0  0  0  0  0
  187.8030  177.4820  147.2690 N   0  0  0  0  0  2  0  0  0  0  0  0
  190.1590  177.2000  147.7180 N   0  0  0  0  0  2  0  0  0  0  0  0
  188.9230  177.8650  148.1160 C   0  0  0  0  0  2  0  0  0  0  0  0
  187.7040  177.9750  145.9290 C   0  0  0  0  0  0  0  0  0  0  0  0
  190.6210  177.0520  146.3720 C   0  0  0  0  0  0  0  0  0  0  0  0
  189.6970  176.6470  145.2670 C   0  0  0  0  0  2  0  0  0  0  0  0
  187.9240  178.0390  140.1120 C   0  0  0  0  0  2  0  0  0  0  0  0
  190.5260  177.2770  139.8590 S   0  0  0  0  0  1  0  0  0  0  0  0
  189.0450  177.3890  140.8980 C   0  0  0  0  0  2  0  0  0  0  0  0
  1 29  1  6  0  0  0
  1  2  1  0  0  0  0
  2  7  1  0  0  0  0
  3  6  1  0  0  0  0
  3  5  2  0  0  0  0
  4  1  1  0  0  0  0
  4  6  1  0  0  0  0
  6  7  1  0  0  0  0
  7 16  1  1  0  0  0
  8 11  1  0  0  0  0
  9  3  1  0  0  0  0
 11 10  1  0  0  0  0
 11  9  2  0  0  0  0
 12 13  2  0  0  0  0
 13  9  1  0  0  0  0
 14  8  2  0  0  0  0
 14 12  1  0  0  0  0
 15 12  1  0  0  0  0
 17 16  1  6  0  0  0
 17 18  1  0  0  0  0
 17 19  1  0  0  0  0
 18 26  1  1  0  0  0
 18 20  1  0  0  0  0
 19 20  1  0  0  0  0
 21 27  2  0  0  0  0
 22 28  1  0  0  0  0
 22 26  2  0  0  0  0
 23 25  1  0  0  0  0
 24 25  1  0  0  0  0
 26 23  1  0  0  0  0
 27 24  1  0  0  0  0
 28 27  1  0  0  0  0
 29 31  1  0  0  0  0
 30 31  1  0  0  0  0
M  END
>  <MODEL>
6

>  <REMARK>
 VINA RESULT:      -8.0      3.997      7.091
  Name = 
  6 active torsions:
  status: ('A' for Active; 'I' for Inactive)
    1  A    between atoms: C_1  and  C_10
    2  A    between atoms: C_1  and  C_29
    3  A    between atoms: C_2  and  C_16
    4  A    between atoms: C_5  and  C_8
    5  A    between atoms: C_11  and  C_26
    6  A    between atoms: C_14  and  C_16
                            x       y       z     vdW  Elec       q    Type
                         _______ _______ _______ _____ _____    ______ ____

>  <TORSDO>
F 6

$$$$
=
 OpenBabel10222415493D

 31 34  0  0  1  0  0  0  0  0999 V2000
  187.4160  177.6830  138.6610 C   0  0  2  0  0  3  0  0  0  0  0  0
  187.7800  178.4410  139.8620 N   0  0  0  0  0  2  0  0  0  0  0  0
  190.9150  176.5120  139.3040 C   0  0  0  0  0  0  0  0  0  0  0  0
  188.6370  176.9180  138.2020 C   0  0  0  0  0  2  0  0  0  0  0  0
  191.6240  176.6750  140.3360 O   0  0  0  0  0  0  0  0  0  0  0  0
  189.5830  177.0610  139.2820 N   0  0  0  0  0  0  0  0  0  0  0  0
  189.0490  177.8990  140.3370 C   0  0  2  0  0  3  0  0  0  0  0  0
  193.2040  175.4030  136.5240 N   0  0  0  0  0  0  0  0  0  0  0  0
  191.4860  175.7690  138.1500 C   0  0  0  0  0  0  0  0  0  0  0  0
  193.5570  177.1180  138.1660 N   0  0  0  0  0  1  0  0  0  0  0  0
  192.7430  176.0950  137.5990 C   0  0  0  0  0  0  0  0  0  0  0  0
  191.2770  174.0670  136.4480 C   0  0  0  0  0  0  0  0  0  0  0  0
  190.7540  174.7410  137.5470 C   0  0  0  0  0  3  0  0  0  0  0  0
  192.4940  174.4200  135.9640 N   0  0  0  0  0  0  0  0  0  0  0  0
  190.5380  173.0180  135.8320 N   0  0  0  0  0  1  0  0  0  0  0  0
  188.8110  177.0710  141.5930 C   0  0  0  0  0  2  0  0  0  0  0  0
  188.3870  177.9670  142.7450 C   0  0  1  0  0  3  0  0  0  0  0  0
  187.4390  177.2110  143.6590 C   0  0  1  0  0  3  0  0  0  0  0  0
  189.4440  177.9520  143.8350 C   0  0  0  0  0  2  0  0  0  0  0  0
  188.4930  177.2060  144.7520 C   0  0  0  0  0  2  0  0  0  0  0  0
  182.0870  178.6930  144.3430 O   0  0  0  0  0  0  0  0  0  0  0  0
  185.3110  178.2690  143.1290 C   0  0  0  0  0  3  0  0  0  0  0  0
  186.1900  178.6720  145.3290 N   0  0  0  0  0  2  0  0  0  0  0  0
  183.8410  178.8690  145.8540 N   0  0  0  0  0  2  0  0  0  0  0  0
  185.1280  178.3100  146.2550 C   0  0  0  0  0  2  0  0  0  0  0  0
  186.2650  178.0640  144.0360 C   0  0  0  0  0  0  0  0  0  0  0  0
  183.3200  178.8680  144.5210 C   0  0  0  0  0  0  0  0  0  0  0  0
  184.1750  179.2170  143.3450 C   0  0  0  0  0  2  0  0  0  0  0  0
  186.9570  178.6260  137.5640 C   0  0  0  0  0  2  0  0  0  0  0  0
  186.0670  177.1300  135.4700 S   0  0  0  0  0  1  0  0  0  0  0  0
  187.4020  178.1080  136.2100 C   0  0  0  0  0  2  0  0  0  0  0  0
  1 29  1  6  0  0  0
  1  2  1  0  0  0  0
  2  7  1  0  0  0  0
  3  5  2  0  0  0  0
  4  1  1  0  0  0  0
  4  6  1  0  0  0  0
  6  3  1  0  0  0  0
  6  7  1  0  0  0  0
  7 16  1  1  0  0  0
  8 11  1  0  0  0  0
  9  3  1  0  0  0  0
 11  9  2  0  0  0  0
 11 10  1  0  0  0  0
 12 13  2  0  0  0  0
 13  9  1  0  0  0  0
 14 12  1  0  0  0  0
 14  8  2  0  0  0  0
 15 12  1  0  0  0  0
 17 16  1  6  0  0  0
 17 18  1  0  0  0  0
 17 19  1  0  0  0  0
 18 26  1  1  0  0  0
 18 20  1  0  0  0  0
 19 20  1  0  0  0  0
 21 27  2  0  0  0  0
 22 28  1  0  0  0  0
 22 26  2  0  0  0  0
 23 25  1  0  0  0  0
 24 25  1  0  0  0  0
 26 23  1  0  0  0  0
 27 24  1  0  0  0  0
 28 27  1  0  0  0  0
 30 31  1  0  0  0  0
 31 29  1  0  0  0  0
M  END
>  <MODEL>
7

>  <REMARK>
 VINA RESULT:      -8.0      2.884      9.289
  Name = 
  6 active torsions:
  status: ('A' for Active; 'I' for Inactive)
    1  A    between atoms: C_1  and  C_10
    2  A    between atoms: C_1  and  C_29
    3  A    between atoms: C_2  and  C_16
    4  A    between atoms: C_5  and  C_8
    5  A    between atoms: C_11  and  C_26
    6  A    between atoms: C_14  and  C_16
                            x       y       z     vdW  Elec       q    Type
                         _______ _______ _______ _____ _____    ______ ____

>  <TORSDO>
F 6

$$$$
=
 OpenBabel10222415493D

 31 34  0  0  1  0  0  0  0  0999 V2000
  184.9250  178.6550  143.0580 C   0  0  2  0  0  3  0  0  0  0  0  0
  186.0140  179.3000  142.3190 N   0  0  0  0  0  2  0  0  0  0  0  0
  183.8150  178.2500  139.5030 C   0  0  0  0  0  0  0  0  0  0  0  0
  183.8510  178.2680  142.0660 C   0  0  0  0  0  2  0  0  0  0  0  0
  184.4800  178.4260  138.4450 O   0  0  0  0  0  0  0  0  0  0  0  0
  184.4580  178.4720  140.7740 N   0  0  0  0  0  0  0  0  0  0  0  0
  185.7990  179.0060  140.9050 C   0  0  2  0  0  3  0  0  0  0  0  0
  180.0610  178.3280  139.1920 N   0  0  0  0  0  0  0  0  0  0  0  0
  182.3930  177.8300  139.3970 C   0  0  0  0  0  0  0  0  0  0  0  0
  181.6100  180.1610  139.1390 N   0  0  0  0  0  1  0  0  0  0  0  0
  181.3470  178.7650  139.2530 C   0  0  0  0  0  0  0  0  0  0  0  0
  180.7200  176.0870  139.4160 C   0  0  0  0  0  0  0  0  0  0  0  0
  182.0540  176.4760  139.4850 C   0  0  0  0  0  3  0  0  0  0  0  0
  179.7550  177.0310  139.2720 N   0  0  0  0  0  0  0  0  0  0  0  0
  180.3680  174.7110  139.5020 N   0  0  0  0  0  1  0  0  0  0  0  0
  186.8200  177.9770  140.4380 C   0  0  0  0  0  2  0  0  0  0  0  0
  188.2090  178.3480  140.9310 C   0  0  1  0  0  3  0  0  0  0  0  0
  188.9170  177.1080  141.4470 C   0  0  1  0  0  3  0  0  0  0  0  0
  189.1780  178.4110  139.7630 C   0  0  0  0  0  2  0  0  0  0  0  0
  189.8920  177.1780  140.2840 C   0  0  0  0  0  2  0  0  0  0  0  0
  190.0560  176.7310  146.9120 O   0  0  0  0  0  0  0  0  0  0  0  0
  188.8530  177.7060  143.8060 C   0  0  0  0  0  3  0  0  0  0  0  0
  191.0280  177.3430  142.8510 N   0  0  0  0  0  2  0  0  0  0  0  0
  191.5320  176.6870  145.1200 N   0  0  0  0  0  2  0  0  0  0  0  0
  191.6790  176.3610  143.7060 C   0  0  0  0  0  2  0  0  0  0  0  0
  189.6010  177.3860  142.7510 C   0  0  0  0  0  0  0  0  0  0  0  0
  190.3200  177.1220  145.7460 C   0  0  0  0  0  0  0  0  0  0  0  0
  189.4340  178.1460  145.1110 C   0  0  0  0  0  2  0  0  0  0  0  0
  184.3520  179.6100  144.0890 C   0  0  0  0  0  2  0  0  0  0  0  0
  185.7700  178.7760  146.2590 S   0  0  0  0  0  1  0  0  0  0  0  0
  184.1700  178.8990  145.4150 C   0  0  0  0  0  2  0  0  0  0  0  0
  1 29  1  1  0  0  0
  2  1  1  0  0  0  0
  3  6  1  0  0  0  0
  4  1  1  0  0  0  0
  5  3  2  0  0  0  0
  6  7  1  0  0  0  0
  6  4  1  0  0  0  0
  7 16  1  1  0  0  0
  7  2  1  0  0  0  0
  8 11  2  0  0  0  0
  8 14  1  0  0  0  0
  9 13  2  0  0  0  0
  9  3  1  0  0  0  0
 10 11  1  0  0  0  0
 11  9  1  0  0  0  0
 12 13  1  0  0  0  0
 12 15  1  0  0  0  0
 14 12  2  0  0  0  0
 17 16  1  6  0  0  0
 17 18  1  0  0  0  0
 18 26  1  1  0  0  0
 19 20  1  0  0  0  0
 19 17  1  0  0  0  0
 20 18  1  0  0  0  0
 22 28  1  0  0  0  0
 23 25  1  0  0  0  0
 24 27  1  0  0  0  0
 25 24  1  0  0  0  0
 26 23  1  0  0  0  0
 26 22  2  0  0  0  0
 27 21  2  0  0  0  0
 28 27  1  0  0  0  0
 29 31  1  0  0  0  0
 31 30  1  0  0  0  0
M  END
>  <MODEL>
8

>  <REMARK>
 VINA RESULT:      -7.8      3.386      5.669
  Name = 
  6 active torsions:
  status: ('A' for Active; 'I' for Inactive)
    1  A    between atoms: C_1  and  C_10
    2  A    between atoms: C_1  and  C_29
    3  A    between atoms: C_2  and  C_16
    4  A    between atoms: C_5  and  C_8
    5  A    between atoms: C_11  and  C_26
    6  A    between atoms: C_14  and  C_16
                            x       y       z     vdW  Elec       q    Type
                         _______ _______ _______ _____ _____    ______ ____

>  <TORSDO>
F 6

$$$$
=
 OpenBabel10222415493D

 31 34  0  0  1  0  0  0  0  0999 V2000
  188.9630  176.5460  142.4640 C   0  0  2  0  0  3  0  0  0  0  0  0
  189.3950  177.3790  141.3390 N   0  0  0  0  0  2  0  0  0  0  0  0
  186.0730  178.8960  142.0670 C   0  0  0  0  0  0  0  0  0  0  0  0
  187.6590  177.1050  142.9880 C   0  0  0  0  0  2  0  0  0  0  0  0
  185.8190  179.6790  141.1090 O   0  0  0  0  0  0  0  0  0  0  0  0
  187.2580  178.0790  142.0020 N   0  0  0  0  0  0  0  0  0  0  0  0
  188.2470  178.1930  140.9480 C   0  0  2  0  0  3  0  0  0  0  0  0
  182.9420  178.7380  144.1570 N   0  0  0  0  0  0  0  0  0  0  0  0
  185.1440  178.8560  143.2270 C   0  0  0  0  0  0  0  0  0  0  0  0
  183.1640  178.5920  141.7710 N   0  0  0  0  0  1  0  0  0  0  0  0
  183.7490  178.7400  143.0620 C   0  0  0  0  0  0  0  0  0  0  0  0
  184.7690  178.9720  145.6100 C   0  0  0  0  0  0  0  0  0  0  0  0
  185.6430  178.9800  144.5280 C   0  0  0  0  0  3  0  0  0  0  0  0
  183.4350  178.8520  145.3920 N   0  0  0  0  0  0  0  0  0  0  0  0
  185.2690  179.0950  146.9370 N   0  0  0  0  0  1  0  0  0  0  0  0
  187.6760  177.6700  139.6360 C   0  0  0  0  0  2  0  0  0  0  0  0
  188.7560  177.6270  138.5680 C   0  0  1  0  0  3  0  0  0  0  0  0
  188.1270  177.3520  137.2150 C   0  0  1  0  0  3  0  0  0  0  0  0
  189.1020  179.0350  138.1180 C   0  0  0  0  0  2  0  0  0  0  0  0
  188.4830  178.7570  136.7610 C   0  0  0  0  0  2  0  0  0  0  0  0
  192.5950  174.6480  135.2070 O   0  0  0  0  0  0  0  0  0  0  0  0
  189.8480  176.7300  135.6080 C   0  0  0  0  0  3  0  0  0  0  0  0
  188.6310  174.9260  136.6270 N   0  0  0  0  0  2  0  0  0  0  0  0
  190.7120  173.7640  136.2370 N   0  0  0  0  0  2  0  0  0  0  0  0
  189.6360  174.0330  137.1850 C   0  0  0  0  0  2  0  0  0  0  0  0
  188.9100  176.3200  136.4600 C   0  0  0  0  0  0  0  0  0  0  0  0
  191.3600  174.7460  135.4230 C   0  0  0  0  0  0  0  0  0  0  0  0
  190.5830  175.7990  134.6990 C   0  0  0  0  0  2  0  0  0  0  0  0
  190.0080  176.5640  143.5640 C   0  0  0  0  0  2  0  0  0  0  0  0
  191.1960  178.9780  143.9900 S   0  0  0  0  0  1  0  0  0  0  0  0
  189.8630  177.8190  144.4020 C   0  0  0  0  0  2  0  0  0  0  0  0
  1  4  1  0  0  0  0
  1 29  1  1  0  0  0
  2  1  1  0  0  0  0
  3  9  1  0  0  0  0
  5  3  2  0  0  0  0
  6  3  1  0  0  0  0
  6  4  1  0  0  0  0
  7 16  1  6  0  0  0
  7  2  1  0  0  0  0
  7  6  1  0  0  0  0
  8 14  1  0  0  0  0
  9 13  2  0  0  0  0
 10 11  1  0  0  0  0
 11  9  1  0  0  0  0
 11  8  2  0  0  0  0
 12 15  1  0  0  0  0
 13 12  1  0  0  0  0
 14 12  2  0  0  0  0
 17 16  1  1  0  0  0
 18 26  1  6  0  0  0
 18 17  1  0  0  0  0
 19 17  1  0  0  0  0
 20 18  1  0  0  0  0
 20 19  1  0  0  0  0
 21 27  2  0  0  0  0
 22 26  2  0  0  0  0
 23 25  1  0  0  0  0
 24 25  1  0  0  0  0
 26 23  1  0  0  0  0
 27 24  1  0  0  0  0
 28 27  1  0  0  0  0
 28 22  1  0  0  0  0
 29 31  1  0  0  0  0
 30 31  1  0  0  0  0
M  END
>  <MODEL>
9

>  <REMARK>
 VINA RESULT:      -7.8      1.737      1.829
  Name = 
  6 active torsions:
  status: ('A' for Active; 'I' for Inactive)
    1  A    between atoms: C_1  and  C_10
    2  A    between atoms: C_1  and  C_29
    3  A    between atoms: C_2  and  C_16
    4  A    between atoms: C_5  and  C_8
    5  A    between atoms: C_11  and  C_26
    6  A    between atoms: C_14  and  C_16
                            x       y       z     vdW  Elec       q    Type
                         _______ _______ _______ _____ _____    ______ ____

>  <TORSDO>
F 6

$$$$
