=
 OpenBabel10222415423D

 44 48  0  0  1  0  0  0  0  0999 V2000
  186.4070  177.5180  137.5900 C   0  0  2  0  0  3  0  0  0  0  0  0
  185.0350  177.0600  137.6340 N   0  0  0  0  0  2  0  0  0  0  0  0
  186.6950  178.5510  139.5920 N   0  0  0  0  0  2  0  0  0  0  0  0
  184.0730  177.9810  139.6090 C   0  0  0  0  0  0  0  0  0  0  0  0
  186.0110  178.7030  140.8270 C   0  0  0  0  0  3  0  0  0  0  0  0
  184.7090  178.4910  140.8840 C   0  0  0  0  0  0  0  0  0  0  0  0
  182.5820  178.2290  139.5000 C   0  0  0  0  0  2  0  0  0  0  0  0
  183.1060  176.8100  139.6620 C   0  0  0  0  0  2  0  0  0  0  0  0
  184.7230  178.2610  138.3060 N   0  0  1  0  0  0  0  0  0  0  0  0
  186.0780  178.7140  138.3340 N   0  0  2  0  0  0  0  0  0  0  0  0
  182.6220  178.8970  142.2570 C   0  0  0  0  0  3  0  0  0  0  0  0
  180.6080  179.2730  143.5310 O   0  0  0  0  0  1  0  0  0  0  0  0
  182.7070  178.9580  144.6730 C   0  0  0  0  0  3  0  0  0  0  0  0
  184.0060  178.6640  142.1910 C   0  0  0  0  0  0  0  0  0  0  0  0
  181.9770  179.0450  143.4880 C   0  0  0  0  0  0  0  0  0  0  0  0
  184.0840  178.7270  144.6300 C   0  0  0  0  0  0  0  0  0  0  0  0
  184.7260  178.5720  143.3970 C   0  0  0  0  0  3  0  0  0  0  0  0
  184.8590  178.5950  145.8930 C   0  0  0  0  0  2  0  0  0  0  0  0
  186.3480  178.6350  145.5920 C   0  0  0  0  0  2  0  0  0  0  0  0
  187.3960  178.0070  147.5530 C   0  0  0  0  0  1  0  0  0  0  0  0
  187.0170  177.5140  146.2360 N   0  0  0  0  0  0  0  0  0  0  0  0
  188.2510  177.1940  145.4980 C   0  0  1  0  0  3  0  0  0  0  0  0
  188.0510  177.3860  144.0160 C   0  0  0  0  0  3  0  0  0  0  0  0
  187.8520  176.3530  143.1990 C   0  0  0  0  0  2  0  0  0  0  0  0
  189.3190  178.0140  145.9300 O   0  0  0  0  0  0  0  0  0  0  0  0
  190.5530  177.3500  145.7210 C   0  0  2  0  0  3  0  0  0  0  0  0
  191.3120  177.0560  147.0160 C   0  0  0  0  0  2  0  0  0  0  0  0
  191.5010  175.5600  147.1820 C   0  0  0  0  0  1  0  0  0  0  0  0
  191.4310  178.0310  144.6710 C   0  0  0  0  0  2  0  0  0  0  0  0
  191.6890  177.0920  143.5080 C   0  0  0  0  0  2  0  0  0  0  0  0
  191.3220  175.7970  143.8690 O   0  0  0  0  0  1  0  0  0  0  0  0
  186.7830  177.8900  136.1630 C   0  0  0  0  0  2  0  0  0  0  0  0
  187.4490  176.8030  135.5280 O   0  0  0  0  0  0  0  0  0  0  0  0
  190.1310  174.9760  137.2950 C   0  0  0  0  0  3  0  0  0  0  0  0
  188.7300  176.3750  135.8920 C   0  0  0  0  0  0  0  0  0  0  0  0
  191.1440  176.4020  135.6250 C   0  0  0  0  0  3  0  0  0  0  0  0
  191.2780  175.4570  136.6520 C   0  0  0  0  0  0  0  0  0  0  0  0
  189.8790  176.8600  135.2460 C   0  0  0  0  0  3  0  0  0  0  0  0
  188.8650  175.4330  136.9170 C   0  0  0  0  0  3  0  0  0  0  0  0
  194.6370  175.0780  138.0840 O   0  0  0  0  0  0  0  0  0  0  0  0
  192.5580  174.9540  137.0590 N   0  0  0  0  0  2  0  0  0  0  0  0
  193.5370  175.6440  137.8450 C   0  0  0  0  0  0  0  0  0  0  0  0
  193.2840  176.9260  138.3410 O   0  0  0  0  0  0  0  0  0  0  0  0
  193.2420  177.1980  139.7340 C   0  0  0  0  0  1  0  0  0  0  0  0
  1 32  1  6  0  0  0
  1  2  1  0  0  0  0
  1 10  1  0  0  0  0
  3  5  1  0  0  0  0
  4  8  1  0  0  0  0
  4  6  1  0  0  0  0
  5  6  2  0  0  0  0
  6 14  1  0  0  0  0
  7  4  1  0  0  0  0
  7  8  1  0  0  0  0
  9  2  1  6  0  0  0
  9 10  1  0  0  0  0
  9  4  1  0  0  0  0
 10  3  1  1  0  0  0
 11 15  1  0  0  0  0
 14 11  2  0  0  0  0
 14 17  1  0  0  0  0
 15 12  1  0  0  0  0
 15 13  2  0  0  0  0
 16 13  1  0  0  0  0
 16 18  1  0  0  0  0
 17 16  2  0  0  0  0
 19 18  1  0  0  0  0
 19 21  1  0  0  0  0
 21 20  1  0  0  0  0
 22 23  1  6  0  0  0
 22 25  1  0  0  0  0
 22 21  1  0  0  0  0
 24 23  2  0  0  0  0
 26 29  1  6  0  0  0
 26 25  1  0  0  0  0
 26 27  1  0  0  0  0
 27 28  1  0  0  0  0
 30 31  1  0  0  0  0
 30 29  1  0  0  0  0
 33 35  1  0  0  0  0
 33 32  1  0  0  0  0
 35 39  2  0  0  0  0
 36 37  1  0  0  0  0
 37 41  1  0  0  0  0
 37 34  2  0  0  0  0
 38 36  2  0  0  0  0
 38 35  1  0  0  0  0
 39 34  1  0  0  0  0
 41 42  1  0  0  0  0
 42 40  2  0  0  0  0
 42 43  1  0  0  0  0
 43 44  1  0  0  0  0
M  END
>  <MODEL>
1

>  <REMARK>
 VINA RESULT:      -8.1      0.000      0.000
  Name = 
  16 active torsions:
  status: ('A' for Active; 'I' for Inactive)
    1  A    between atoms: C_1  and  C_40
    2  A    between atoms: O_3  and  C_24
    3  A    between atoms: C_7  and  C_41
    4  A    between atoms: O_8  and  C_13
    5  A    between atoms: O_8  and  C_28
    6  A    between atoms: C_9  and  O_17
    7  A    between atoms: C_13  and  C_14
    8  A    between atoms: C_13  and  C_41
    9  A    between atoms: C_16  and  C_28
   10  A    between atoms: O_17  and  C_40
   11  A    between atoms: C_18  and  N_26
   12  A    between atoms: C_18  and  C_42
   13  A    between atoms: N_19  and  C_20
   14  A    between atoms: N_26  and  C_28
   15  A    between atoms: C_29  and  C_33
   16  A    between atoms: C_37  and  C_42
                            x       y       z     vdW  Elec       q    Type
                         _______ _______ _______ _____ _____    ______ ____

>  <TORSDO>
F 16

$$$$
=
 OpenBabel10222415423D

 44 48  0  0  1  0  0  0  0  0999 V2000
  185.8170  177.2050  137.2350 C   0  0  2  0  0  3  0  0  0  0  0  0
  184.5510  176.5270  137.4160 N   0  0  0  0  0  2  0  0  0  0  0  0
  185.9700  178.5560  139.0540 N   0  0  0  0  0  2  0  0  0  0  0  0
  183.4940  177.5480  139.2910 C   0  0  0  0  0  0  0  0  0  0  0  0
  185.3040  178.7670  140.2900 C   0  0  0  0  0  3  0  0  0  0  0  0
  184.0630  178.3430  140.4460 C   0  0  0  0  0  0  0  0  0  0  0  0
  181.9810  177.5150  139.2280 C   0  0  0  0  0  2  0  0  0  0  0  0
  182.7550  176.2480  139.5590 C   0  0  0  0  0  2  0  0  0  0  0  0
  184.0480  177.7410  137.9290 N   0  0  1  0  0  0  0  0  0  0  0  0
  185.3000  178.4220  137.8200 N   0  0  2  0  0  0  0  0  0  0  0  0
  181.9920  178.8070  141.8250 C   0  0  0  0  0  3  0  0  0  0  0  0
  179.9930  179.2350  143.1040 O   0  0  0  0  0  1  0  0  0  0  0  0
  182.1100  179.0020  144.2320 C   0  0  0  0  0  3  0  0  0  0  0  0
  183.3770  178.5820  141.7510 C   0  0  0  0  0  0  0  0  0  0  0  0
  181.3630  179.0170  143.0550 C   0  0  0  0  0  0  0  0  0  0  0  0
  183.4890  178.7800  144.1820 C   0  0  0  0  0  0  0  0  0  0  0  0
  184.1150  178.5630  142.9500 C   0  0  0  0  0  3  0  0  0  0  0  0
  184.2830  178.7250  145.4390 C   0  0  0  0  0  2  0  0  0  0  0  0
  185.7640  178.6480  145.1110 C   0  0  0  0  0  2  0  0  0  0  0  0
  186.2670  178.5900  147.3650 C   0  0  0  0  0  1  0  0  0  0  0  0
  186.4570  177.8600  146.1200 N   0  0  0  0  0  0  0  0  0  0  0  0
  187.9000  177.8430  145.8190 C   0  0  1  0  0  3  0  0  0  0  0  0
  188.7070  177.7240  147.0860 C   0  0  0  0  0  3  0  0  0  0  0  0
  189.6150  176.7630  147.2480 C   0  0  0  0  0  2  0  0  0  0  0  0
  188.2190  176.7630  144.9650 O   0  0  0  0  0  0  0  0  0  0  0  0
  188.8760  177.2420  143.8040 C   0  0  2  0  0  3  0  0  0  0  0  0
  187.9300  177.4820  142.6260 C   0  0  0  0  0  2  0  0  0  0  0  0
  188.7030  177.4500  141.3210 C   0  0  0  0  0  1  0  0  0  0  0  0
  190.0950  176.4070  143.4130 C   0  0  0  0  0  2  0  0  0  0  0  0
  191.3620  177.0260  143.9740 C   0  0  0  0  0  2  0  0  0  0  0  0
  191.3510  178.3980  143.7330 O   0  0  0  0  0  1  0  0  0  0  0  0
  186.0810  177.4220  135.7520 C   0  0  0  0  0  2  0  0  0  0  0  0
  187.4530  177.7340  135.5340 O   0  0  0  0  0  0  0  0  0  0  0  0
  190.4300  176.9110  137.5620 C   0  0  0  0  0  3  0  0  0  0  0  0
  188.5020  176.9950  136.0920 C   0  0  0  0  0  0  0  0  0  0  0  0
  189.7360  174.9230  136.3750 C   0  0  0  0  0  3  0  0  0  0  0  0
  190.6150  175.5560  137.2650 C   0  0  0  0  0  0  0  0  0  0  0  0
  188.6860  175.6360  135.7910 C   0  0  0  0  0  3  0  0  0  0  0  0
  189.3800  177.6270  136.9780 C   0  0  0  0  0  3  0  0  0  0  0  0
  193.8070  173.8930  137.9900 O   0  0  0  0  0  0  0  0  0  0  0  0
  191.6950  174.8530  137.8940 N   0  0  0  0  0  2  0  0  0  0  0  0
  192.9740  174.5600  137.3190 C   0  0  0  0  0  0  0  0  0  0  0  0
  193.3000  175.0000  136.0340 O   0  0  0  0  0  0  0  0  0  0  0  0
  194.0260  176.1990  135.8120 C   0  0  0  0  0  1  0  0  0  0  0  0
  1 32  1  6  0  0  0
  1  2  1  0  0  0  0
  1 10  1  0  0  0  0
  3  5  1  0  0  0  0
  4  8  1  0  0  0  0
  4  6  1  0  0  0  0
  5  6  2  0  0  0  0
  6 14  1  0  0  0  0
  7  4  1  0  0  0  0
  7  8  1  0  0  0  0
  9  2  1  1  0  0  0
  9  4  1  0  0  0  0
 10  9  1  0  0  0  0
 10  3  1  1  0  0  0
 11 15  1  0  0  0  0
 14 11  2  0  0  0  0
 14 17  1  0  0  0  0
 15 12  1  0  0  0  0
 15 13  2  0  0  0  0
 16 13  1  0  0  0  0
 16 18  1  0  0  0  0
 17 16  2  0  0  0  0
 19 18  1  0  0  0  0
 19 21  1  0  0  0  0
 21 20  1  0  0  0  0
 22 21  1  0  0  0  0
 22 23  1  1  0  0  0
 23 24  2  0  0  0  0
 25 22  1  0  0  0  0
 26 27  1  6  0  0  0
 26 25  1  0  0  0  0
 28 27  1  0  0  0  0
 29 26  1  0  0  0  0
 29 30  1  0  0  0  0
 31 30  1  0  0  0  0
 33 32  1  0  0  0  0
 33 35  1  0  0  0  0
 35 39  1  0  0  0  0
 36 37  2  0  0  0  0
 37 34  1  0  0  0  0
 37 41  1  0  0  0  0
 38 35  2  0  0  0  0
 38 36  1  0  0  0  0
 39 34  2  0  0  0  0
 42 41  1  0  0  0  0
 42 40  2  0  0  0  0
 43 42  1  0  0  0  0
 44 43  1  0  0  0  0
M  END
>  <MODEL>
2

>  <REMARK>
 VINA RESULT:      -8.1      1.340      2.111
  Name = 
  16 active torsions:
  status: ('A' for Active; 'I' for Inactive)
    1  A    between atoms: C_1  and  C_40
    2  A    between atoms: O_3  and  C_24
    3  A    between atoms: C_7  and  C_41
    4  A    between atoms: O_8  and  C_13
    5  A    between atoms: O_8  and  C_28
    6  A    between atoms: C_9  and  O_17
    7  A    between atoms: C_13  and  C_14
    8  A    between atoms: C_13  and  C_41
    9  A    between atoms: C_16  and  C_28
   10  A    between atoms: O_17  and  C_40
   11  A    between atoms: C_18  and  N_26
   12  A    between atoms: C_18  and  C_42
   13  A    between atoms: N_19  and  C_20
   14  A    between atoms: N_26  and  C_28
   15  A    between atoms: C_29  and  C_33
   16  A    between atoms: C_37  and  C_42
                            x       y       z     vdW  Elec       q    Type
                         _______ _______ _______ _____ _____    ______ ____

>  <TORSDO>
F 16

$$$$
=
 OpenBabel10222415423D

 44 48  0  0  1  0  0  0  0  0999 V2000
  188.2910  178.5990  137.4020 C   0  0  2  0  0  3  0  0  0  0  0  0
  188.9270  178.6250  138.7010 N   0  0  0  0  0  2  0  0  0  0  0  0
  186.0740  178.5330  137.8890 N   0  0  0  0  0  2  0  0  0  0  0  0
  187.2040  178.2870  140.3090 C   0  0  0  0  0  0  0  0  0  0  0  0
  185.2200  178.6720  139.0150 C   0  0  0  0  0  3  0  0  0  0  0  0
  185.7090  178.5050  140.2300 C   0  0  0  0  0  0  0  0  0  0  0  0
  187.6780  177.6000  141.5740 C   0  0  0  0  0  2  0  0  0  0  0  0
  188.0270  179.0600  141.3270 C   0  0  0  0  0  2  0  0  0  0  0  0
  187.9250  177.7340  139.1380 N   0  0  1  0  0  0  0  0  0  0  0  0
  187.2380  177.7350  137.8850 N   0  0  2  0  0  0  0  0  0  0  0  0
  183.4030  178.7650  141.2400 C   0  0  0  0  0  3  0  0  0  0  0  0
  181.1860  178.9980  142.1630 O   0  0  0  0  0  1  0  0  0  0  0  0
  183.0920  178.8850  143.6350 C   0  0  0  0  0  3  0  0  0  0  0  0
  184.7930  178.6470  141.4020 C   0  0  0  0  0  0  0  0  0  0  0  0
  182.5580  178.8850  142.3470 C   0  0  0  0  0  0  0  0  0  0  0  0
  184.4720  178.7690  143.8190 C   0  0  0  0  0  0  0  0  0  0  0  0
  185.3140  178.6410  142.7090 C   0  0  0  0  0  3  0  0  0  0  0  0
  185.0420  178.7300  145.1930 C   0  0  0  0  0  2  0  0  0  0  0  0
  186.4120  178.0740  145.1650 C   0  0  0  0  0  2  0  0  0  0  0  0
  186.0820  178.5250  147.4070 C   0  0  0  0  0  1  0  0  0  0  0  0
  186.7740  177.6190  146.5000 N   0  0  0  0  0  0  0  0  0  0  0  0
  188.2230  177.7970  146.6990 C   0  0  1  0  0  3  0  0  0  0  0  0
  188.6040  177.5120  148.1300 C   0  0  0  0  0  3  0  0  0  0  0  0
  189.3990  178.3300  148.8170 C   0  0  0  0  0  2  0  0  0  0  0  0
  188.9530  176.9370  145.8470 O   0  0  0  0  0  0  0  0  0  0  0  0
  190.2030  177.5230  145.5240 C   0  0  2  0  0  3  0  0  0  0  0  0
  190.1570  178.4000  144.2710 C   0  0  0  0  0  2  0  0  0  0  0  0
  191.5030  178.3800  143.5710 C   0  0  0  0  0  1  0  0  0  0  0  0
  191.3500  176.5130  145.4890 C   0  0  0  0  0  2  0  0  0  0  0  0
  191.9950  176.3970  146.8570 C   0  0  0  0  0  2  0  0  0  0  0  0
  191.4600  175.3000  147.5290 O   0  0  0  0  0  1  0  0  0  0  0  0
  189.1630  177.8390  136.4120 C   0  0  0  0  0  2  0  0  0  0  0  0
  189.8390  176.7700  137.0680 O   0  0  0  0  0  0  0  0  0  0  0  0
  193.4390  176.4130  137.8180 C   0  0  0  0  0  3  0  0  0  0  0  0
  191.2000  176.5030  136.8870 C   0  0  0  0  0  0  0  0  0  0  0  0
  193.0680  175.7800  135.5140 C   0  0  0  0  0  3  0  0  0  0  0  0
  193.9450  175.9600  136.5940 C   0  0  0  0  0  0  0  0  0  0  0  0
  191.7050  176.0500  135.6580 C   0  0  0  0  0  3  0  0  0  0  0  0
  192.0750  176.6840  137.9630 C   0  0  0  0  0  3  0  0  0  0  0  0
  197.2420  174.3460  136.6180 O   0  0  0  0  0  0  0  0  0  0  0  0
  195.3470  175.6810  136.4880 N   0  0  0  0  0  2  0  0  0  0  0  0
  195.9870  174.4190  136.7120 C   0  0  0  0  0  0  0  0  0  0  0  0
  195.2400  173.2830  137.0320 O   0  0  0  0  0  0  0  0  0  0  0  0
  195.1240  172.8100  138.3650 C   0  0  0  0  0  1  0  0  0  0  0  0
  1 32  1  6  0  0  0
  1 10  1  0  0  0  0
  1  2  1  0  0  0  0
  3  5  1  0  0  0  0
  4  8  1  0  0  0  0
  4  7  1  0  0  0  0
  5  6  2  0  0  0  0
  6  4  1  0  0  0  0
  6 14  1  0  0  0  0
  8  7  1  0  0  0  0
  9  2  1  6  0  0  0
  9  4  1  0  0  0  0
 10  3  1  1  0  0  0
 10  9  1  0  0  0  0
 11 14  2  0  0  0  0
 11 15  1  0  0  0  0
 12 15  1  0  0  0  0
 13 16  1  0  0  0  0
 14 17  1  0  0  0  0
 15 13  2  0  0  0  0
 16 18  1  0  0  0  0
 17 16  2  0  0  0  0
 19 18  1  0  0  0  0
 19 21  1  0  0  0  0
 21 22  1  0  0  0  0
 21 20  1  0  0  0  0
 22 23  1  1  0  0  0
 23 24  2  0  0  0  0
 25 22  1  0  0  0  0
 26 27  1  6  0  0  0
 26 25  1  0  0  0  0
 28 27  1  0  0  0  0
 29 26  1  0  0  0  0
 29 30  1  0  0  0  0
 30 31  1  0  0  0  0
 32 33  1  0  0  0  0
 34 39  1  0  0  0  0
 35 33  1  0  0  0  0
 35 39  2  0  0  0  0
 36 38  2  0  0  0  0
 36 37  1  0  0  0  0
 37 34  2  0  0  0  0
 38 35  1  0  0  0  0
 40 42  2  0  0  0  0
 41 37  1  0  0  0  0
 41 42  1  0  0  0  0
 42 43  1  0  0  0  0
 43 44  1  0  0  0  0
M  END
>  <MODEL>
3

>  <REMARK>
 VINA RESULT:      -7.8      1.733      2.952
  Name = 
  16 active torsions:
  status: ('A' for Active; 'I' for Inactive)
    1  A    between atoms: C_1  and  C_40
    2  A    between atoms: O_3  and  C_24
    3  A    between atoms: C_7  and  C_41
    4  A    between atoms: O_8  and  C_13
    5  A    between atoms: O_8  and  C_28
    6  A    between atoms: C_9  and  O_17
    7  A    between atoms: C_13  and  C_14
    8  A    between atoms: C_13  and  C_41
    9  A    between atoms: C_16  and  C_28
   10  A    between atoms: O_17  and  C_40
   11  A    between atoms: C_18  and  N_26
   12  A    between atoms: C_18  and  C_42
   13  A    between atoms: N_19  and  C_20
   14  A    between atoms: N_26  and  C_28
   15  A    between atoms: C_29  and  C_33
   16  A    between atoms: C_37  and  C_42
                            x       y       z     vdW  Elec       q    Type
                         _______ _______ _______ _____ _____    ______ ____

>  <TORSDO>
F 16

$$$$
=
 OpenBabel10222415423D

 44 48  0  0  1  0  0  0  0  0999 V2000
  182.6050  178.5530  143.4830 C   0  0  2  0  0  3  0  0  0  0  0  0
  182.8440  178.7720  144.8930 N   0  0  0  0  0  2  0  0  0  0  0  0
  184.6520  178.0080  142.6670 N   0  0  0  0  0  2  0  0  0  0  0  0
  185.2030  178.6800  145.2050 C   0  0  0  0  0  0  0  0  0  0  0  0
  185.9470  177.6850  143.1520 C   0  0  0  0  0  3  0  0  0  0  0  0
  186.2950  178.0420  144.3750 C   0  0  0  0  0  0  0  0  0  0  0  0
  185.6980  179.5330  146.3560 C   0  0  0  0  0  2  0  0  0  0  0  0
  184.9770  178.2230  146.6370 C   0  0  0  0  0  2  0  0  0  0  0  0
  184.0730  179.3600  144.5270 N   0  0  1  0  0  0  0  0  0  0  0  0
  183.8950  179.1030  143.1330 N   0  0  2  0  0  0  0  0  0  0  0  0
  187.9530  177.6000  146.2350 C   0  0  0  0  0  3  0  0  0  0  0  0
  189.4990  177.1730  148.0370 O   0  0  0  0  0  1  0  0  0  0  0  0
  190.2520  177.0280  145.7520 C   0  0  0  0  0  3  0  0  0  0  0  0
  187.6650  177.7000  144.8640 C   0  0  0  0  0  0  0  0  0  0  0  0
  189.2370  177.2680  146.6770 C   0  0  0  0  0  0  0  0  0  0  0  0
  189.9870  177.1230  144.3830 C   0  0  0  0  0  0  0  0  0  0  0  0
  188.7000  177.4470  143.9440 C   0  0  0  0  0  3  0  0  0  0  0  0
  191.0590  176.8290  143.3940 C   0  0  0  0  0  2  0  0  0  0  0  0
  190.8640  177.6850  142.1540 C   0  0  0  0  0  2  0  0  0  0  0  0
  192.2640  177.3860  140.3400 C   0  0  0  0  0  1  0  0  0  0  0  0
  191.0470  176.8770  140.9570 N   0  0  0  0  0  0  0  0  0  0  0  0
  189.9300  177.1220  140.0280 C   0  0  1  0  0  3  0  0  0  0  0  0
  189.0670  178.2560  140.5200 C   0  0  0  0  0  3  0  0  0  0  0  0
  187.7460  178.2530  140.3490 C   0  0  0  0  0  2  0  0  0  0  0  0
  190.4140  177.4380  138.7370 O   0  0  0  0  0  0  0  0  0  0  0  0
  189.6630  176.7430  137.7560 C   0  0  2  0  0  3  0  0  0  0  0  0
  190.1480  175.3110  137.5210 C   0  0  0  0  0  2  0  0  0  0  0  0
  190.9320  175.2320  136.2250 C   0  0  0  0  0  1  0  0  0  0  0  0
  189.5030  177.5270  136.4540 C   0  0  0  0  0  2  0  0  0  0  0  0
  188.3290  178.4830  136.5540 C   0  0  0  0  0  2  0  0  0  0  0  0
  188.7070  179.6030  137.2930 O   0  0  0  0  0  1  0  0  0  0  0  0
  181.5030  179.4830  142.9940 C   0  0  0  0  0  2  0  0  0  0  0  0
  180.7890  178.8810  141.9180 O   0  0  0  0  0  0  0  0  0  0  0  0
  179.6650  180.4750  138.7800 C   0  0  0  0  0  3  0  0  0  0  0  0
  180.8190  179.3780  140.6100 C   0  0  0  0  0  0  0  0  0  0  0  0
  181.9820  179.8330  138.5280 C   0  0  0  0  0  3  0  0  0  0  0  0
  180.8230  180.4170  137.9960 C   0  0  0  0  0  0  0  0  0  0  0  0
  181.9820  179.3170  139.8260 C   0  0  0  0  0  3  0  0  0  0  0  0
  179.6620  179.9590  140.0790 C   0  0  0  0  0  3  0  0  0  0  0  0
  180.6460  182.6810  135.1110 O   0  0  0  0  0  0  0  0  0  0  0  0
  180.7900  180.9690  136.6730 N   0  0  0  0  0  2  0  0  0  0  0  0
  180.7080  182.3570  136.3280 C   0  0  0  0  0  0  0  0  0  0  0  0
  180.6940  183.3420  137.3190 O   0  0  0  0  0  0  0  0  0  0  0  0
  181.5730  184.4570  137.2820 C   0  0  0  0  0  1  0  0  0  0  0  0
  1 32  1  6  0  0  0
  1  2  1  0  0  0  0
  3  5  1  0  0  0  0
  4  7  1  0  0  0  0
  4  8  1  0  0  0  0
  5  6  2  0  0  0  0
  6 14  1  0  0  0  0
  6  4  1  0  0  0  0
  7  8  1  0  0  0  0
  9  2  1  1  0  0  0
  9  4  1  0  0  0  0
 10  3  1  1  0  0  0
 10  1  1  0  0  0  0
 10  9  1  0  0  0  0
 11 15  1  0  0  0  0
 13 15  2  0  0  0  0
 14 11  2  0  0  0  0
 15 12  1  0  0  0  0
 16 13  1  0  0  0  0
 17 16  2  0  0  0  0
 17 14  1  0  0  0  0
 18 16  1  0  0  0  0
 19 18  1  0  0  0  0
 20 21  1  0  0  0  0
 21 19  1  0  0  0  0
 22 23  1  1  0  0  0
 22 21  1  0  0  0  0
 24 23  2  0  0  0  0
 25 22  1  0  0  0  0
 26 29  1  6  0  0  0
 26 25  1  0  0  0  0
 27 26  1  0  0  0  0
 28 27  1  0  0  0  0
 29 30  1  0  0  0  0
 30 31  1  0  0  0  0
 33 32  1  0  0  0  0
 34 39  1  0  0  0  0
 35 33  1  0  0  0  0
 36 38  2  0  0  0  0
 37 36  1  0  0  0  0
 37 34  2  0  0  0  0
 38 35  1  0  0  0  0
 39 35  2  0  0  0  0
 40 42  2  0  0  0  0
 41 37  1  0  0  0  0
 42 41  1  0  0  0  0
 42 43  1  0  0  0  0
 44 43  1  0  0  0  0
M  END
>  <MODEL>
4

>  <REMARK>
 VINA RESULT:      -7.7      3.226      8.785
  Name = 
  16 active torsions:
  status: ('A' for Active; 'I' for Inactive)
    1  A    between atoms: C_1  and  C_40
    2  A    between atoms: O_3  and  C_24
    3  A    between atoms: C_7  and  C_41
    4  A    between atoms: O_8  and  C_13
    5  A    between atoms: O_8  and  C_28
    6  A    between atoms: C_9  and  O_17
    7  A    between atoms: C_13  and  C_14
    8  A    between atoms: C_13  and  C_41
    9  A    between atoms: C_16  and  C_28
   10  A    between atoms: O_17  and  C_40
   11  A    between atoms: C_18  and  N_26
   12  A    between atoms: C_18  and  C_42
   13  A    between atoms: N_19  and  C_20
   14  A    between atoms: N_26  and  C_28
   15  A    between atoms: C_29  and  C_33
   16  A    between atoms: C_37  and  C_42
                            x       y       z     vdW  Elec       q    Type
                         _______ _______ _______ _____ _____    ______ ____

>  <TORSDO>
F 16

$$$$
=
 OpenBabel10222415423D

 44 48  0  0  1  0  0  0  0  0999 V2000
  185.5320  175.7320  136.6590 C   0  0  2  0  0  3  0  0  0  0  0  0
  185.7510  177.0580  137.1960 N   0  0  0  0  0  2  0  0  0  0  0  0
  187.5780  174.7560  136.7810 N   0  0  0  0  0  2  0  0  0  0  0  0
  188.1010  177.2840  137.5130 C   0  0  0  0  0  0  0  0  0  0  0  0
  188.8550  175.0120  137.3480 C   0  0  0  0  0  3  0  0  0  0  0  0
  189.1900  176.2460  137.6760 C   0  0  0  0  0  0  0  0  0  0  0  0
  188.5980  178.7090  137.3800 C   0  0  0  0  0  2  0  0  0  0  0  0
  187.8360  178.2830  138.6260 C   0  0  0  0  0  2  0  0  0  0  0  0
  187.0030  177.0450  136.5460 N   0  0  1  0  0  0  0  0  0  0  0  0
  186.8430  175.7140  136.0510 N   0  0  2  0  0  0  0  0  0  0  0  0
  191.7080  176.4180  137.4870 C   0  0  0  0  0  3  0  0  0  0  0  0
  194.1030  176.5870  137.2610 O   0  0  0  0  0  1  0  0  0  0  0  0
  193.0690  177.0000  139.3980 C   0  0  0  0  0  3  0  0  0  0  0  0
  190.5410  176.4960  138.2640 C   0  0  0  0  0  0  0  0  0  0  0  0
  192.9630  176.6670  138.0490 C   0  0  0  0  0  0  0  0  0  0  0  0
  191.9200  177.0820  140.1900 C   0  0  0  0  0  0  0  0  0  0  0  0
  190.6650  176.8410  139.6230 C   0  0  0  0  0  3  0  0  0  0  0  0
  192.0270  177.4760  141.6210 C   0  0  0  0  0  2  0  0  0  0  0  0
  190.6560  177.8570  142.1540 C   0  0  0  0  0  2  0  0  0  0  0  0
  190.5470  175.8120  143.2260 C   0  0  0  0  0  1  0  0  0  0  0  0
  190.4410  177.2460  143.4580 N   0  0  0  0  0  0  0  0  0  0  0  0
  189.0690  177.5330  143.9110 C   0  0  1  0  0  3  0  0  0  0  0  0
  188.0660  177.1300  142.8600 C   0  0  0  0  0  3  0  0  0  0  0  0
  187.0800  177.9450  142.4860 C   0  0  0  0  0  2  0  0  0  0  0  0
  188.7840  176.8410  145.1110 O   0  0  0  0  0  0  0  0  0  0  0  0
  188.2560  177.7390  146.0720 C   0  0  2  0  0  3  0  0  0  0  0  0
  189.0760  177.8010  147.3610 C   0  0  0  0  0  2  0  0  0  0  0  0
  188.1730  177.6130  148.5650 C   0  0  0  0  0  1  0  0  0  0  0  0
  186.7660  177.5270  146.3380 C   0  0  0  0  0  2  0  0  0  0  0  0
  185.9750  178.7540  145.9240 C   0  0  0  0  0  2  0  0  0  0  0  0
  185.4460  179.3680  147.0580 O   0  0  0  0  0  1  0  0  0  0  0  0
  184.4650  175.7830  135.5740 C   0  0  0  0  0  2  0  0  0  0  0  0
  183.1950  175.4320  136.1130 O   0  0  0  0  0  0  0  0  0  0  0  0
  181.6700  176.1350  139.4040 C   0  0  0  0  0  3  0  0  0  0  0  0
  182.5880  176.1370  137.1580 C   0  0  0  0  0  0  0  0  0  0  0  0
  181.7120  178.1860  138.1230 C   0  0  0  0  0  3  0  0  0  0  0  0
  181.3900  177.5030  139.3050 C   0  0  0  0  0  0  0  0  0  0  0  0
  182.3070  177.5080  137.0560 C   0  0  0  0  0  3  0  0  0  0  0  0
  182.2650  175.4560  138.3370 C   0  0  0  0  0  3  0  0  0  0  0  0
  180.7730  179.1170  142.5440 O   0  0  0  0  0  0  0  0  0  0  0  0
  180.7910  178.1680  140.4260 N   0  0  0  0  0  2  0  0  0  0  0  0
  181.4510  178.5780  141.6290 C   0  0  0  0  0  0  0  0  0  0  0  0
  182.8260  178.3860  141.7940 O   0  0  0  0  0  0  0  0  0  0  0  0
  183.5440  178.9750  142.8670 C   0  0  0  0  0  1  0  0  0  0  0  0
  1 32  1  6  0  0  0
  1  2  1  0  0  0  0
  3  5  1  0  0  0  0
  4  6  1  0  0  0  0
  4  8  1  0  0  0  0
  5  6  2  0  0  0  0
  6 14  1  0  0  0  0
  7  4  1  0  0  0  0
  7  8  1  0  0  0  0
  9  2  1  1  0  0  0
  9  4  1  0  0  0  0
 10  9  1  0  0  0  0
 10  1  1  0  0  0  0
 10  3  1  1  0  0  0
 11 15  2  0  0  0  0
 11 14  1  0  0  0  0
 12 15  1  0  0  0  0
 13 16  2  0  0  0  0
 14 17  2  0  0  0  0
 15 13  1  0  0  0  0
 16 18  1  0  0  0  0
 17 16  1  0  0  0  0
 18 19  1  0  0  0  0
 19 21  1  0  0  0  0
 20 21  1  0  0  0  0
 21 22  1  0  0  0  0
 22 23  1  6  0  0  0
 22 25  1  0  0  0  0
 24 23  2  0  0  0  0
 25 26  1  0  0  0  0
 26 29  1  1  0  0  0
 26 27  1  0  0  0  0
 27 28  1  0  0  0  0
 30 29  1  0  0  0  0
 30 31  1  0  0  0  0
 32 33  1  0  0  0  0
 33 35  1  0  0  0  0
 35 39  1  0  0  0  0
 36 37  2  0  0  0  0
 37 34  1  0  0  0  0
 37 41  1  0  0  0  0
 38 35  2  0  0  0  0
 38 36  1  0  0  0  0
 39 34  2  0  0  0  0
 41 42  1  0  0  0  0
 42 43  1  0  0  0  0
 42 40  2  0  0  0  0
 43 44  1  0  0  0  0
M  END
>  <MODEL>
5

>  <REMARK>
 VINA RESULT:      -7.5      2.201      7.703
  Name = 
  16 active torsions:
  status: ('A' for Active; 'I' for Inactive)
    1  A    between atoms: C_1  and  C_40
    2  A    between atoms: O_3  and  C_24
    3  A    between atoms: C_7  and  C_41
    4  A    between atoms: O_8  and  C_13
    5  A    between atoms: O_8  and  C_28
    6  A    between atoms: C_9  and  O_17
    7  A    between atoms: C_13  and  C_14
    8  A    between atoms: C_13  and  C_41
    9  A    between atoms: C_16  and  C_28
   10  A    between atoms: O_17  and  C_40
   11  A    between atoms: C_18  and  N_26
   12  A    between atoms: C_18  and  C_42
   13  A    between atoms: N_19  and  C_20
   14  A    between atoms: N_26  and  C_28
   15  A    between atoms: C_29  and  C_33
   16  A    between atoms: C_37  and  C_42
                            x       y       z     vdW  Elec       q    Type
                         _______ _______ _______ _____ _____    ______ ____

>  <TORSDO>
F 16

$$$$
=
 OpenBabel10222415423D

 44 48  0  0  1  0  0  0  0  0999 V2000
  182.6280  178.5870  143.3630 C   0  0  2  0  0  3  0  0  0  0  0  0
  182.7210  178.7270  144.8000 N   0  0  0  0  0  2  0  0  0  0  0  0
  184.7630  178.1540  142.7240 N   0  0  0  0  0  2  0  0  0  0  0  0
  185.0400  178.6880  145.3390 C   0  0  0  0  0  0  0  0  0  0  0  0
  186.0150  177.8410  143.3160 C   0  0  0  0  0  3  0  0  0  0  0  0
  186.2300  178.1330  144.5860 C   0  0  0  0  0  0  0  0  0  0  0  0
  185.3900  179.4840  146.5790 C   0  0  0  0  0  2  0  0  0  0  0  0
  184.6930  178.1390  146.7130 C   0  0  0  0  0  2  0  0  0  0  0  0
  183.9580  179.3730  144.5930 N   0  0  1  0  0  0  0  0  0  0  0  0
  183.9250  179.1950  143.1750 N   0  0  2  0  0  0  0  0  0  0  0  0
  187.7980  177.9530  146.5640 C   0  0  0  0  0  3  0  0  0  0  0  0
  189.2580  177.7820  148.4770 O   0  0  0  0  0  1  0  0  0  0  0  0
  190.0630  177.1490  146.2950 C   0  0  0  0  0  3  0  0  0  0  0  0
  187.5570  177.8040  145.1880 C   0  0  0  0  0  0  0  0  0  0  0  0
  189.0420  177.6300  147.1140 C   0  0  0  0  0  0  0  0  0  0  0  0
  189.8440  176.9940  144.9240 C   0  0  0  0  0  0  0  0  0  0  0  0
  188.5970  177.3110  144.3770 C   0  0  0  0  0  3  0  0  0  0  0  0
  190.9200  176.4450  144.0540 C   0  0  0  0  0  2  0  0  0  0  0  0
  190.3130  175.8770  142.7820 C   0  0  0  0  0  2  0  0  0  0  0  0
  191.6840  177.5990  142.0780 C   0  0  0  0  0  1  0  0  0  0  0  0
  191.0330  176.3800  141.6200 N   0  0  0  0  0  0  0  0  0  0  0  0
  190.0670  176.7470  140.5700 C   0  0  1  0  0  3  0  0  0  0  0  0
  189.1880  177.8830  141.0290 C   0  0  0  0  0  3  0  0  0  0  0  0
  188.3390  178.4880  140.1990 C   0  0  0  0  0  2  0  0  0  0  0  0
  190.7380  177.1330  139.3860 O   0  0  0  0  0  0  0  0  0  0  0  0
  190.6110  176.1170  138.4060 C   0  0  2  0  0  3  0  0  0  0  0  0
  191.9530  175.6280  137.8590 C   0  0  0  0  0  2  0  0  0  0  0  0
  192.0860  176.0000  136.3940 C   0  0  0  0  0  1  0  0  0  0  0  0
  189.6220  176.4730  137.2960 C   0  0  0  0  0  2  0  0  0  0  0  0
  188.5210  175.4320  137.2150 C   0  0  0  0  0  2  0  0  0  0  0  0
  188.0730  175.3350  135.9000 O   0  0  0  0  0  1  0  0  0  0  0  0
  181.5460  179.5110  142.8220 C   0  0  0  0  0  2  0  0  0  0  0  0
  180.7290  178.8190  141.8810 O   0  0  0  0  0  0  0  0  0  0  0  0
  182.0490  179.1370  138.4450 C   0  0  0  0  0  3  0  0  0  0  0  0
  181.1740  178.4600  140.6040 C   0  0  0  0  0  0  0  0  0  0  0  0
  181.6840  176.7940  138.9130 C   0  0  0  0  0  3  0  0  0  0  0  0
  182.1010  177.8010  138.0310 C   0  0  0  0  0  0  0  0  0  0  0  0
  181.2230  177.1190  140.1920 C   0  0  0  0  0  3  0  0  0  0  0  0
  181.5880  179.4650  139.7230 C   0  0  0  0  0  3  0  0  0  0  0  0
  184.2100  176.9170  135.1600 O   0  0  0  0  0  0  0  0  0  0  0  0
  182.5920  177.5040  136.7170 N   0  0  0  0  0  2  0  0  0  0  0  0
  183.9230  177.1020  136.3730 C   0  0  0  0  0  0  0  0  0  0  0  0
  184.8940  176.9180  137.3600 O   0  0  0  0  0  0  0  0  0  0  0  0
  185.8990  177.8880  137.6170 C   0  0  0  0  0  1  0  0  0  0  0  0
  1 32  1  6  0  0  0
  1  2  1  0  0  0  0
  3  5  1  0  0  0  0
  4  7  1  0  0  0  0
  4  8  1  0  0  0  0
  5  6  2  0  0  0  0
  6 14  1  0  0  0  0
  6  4  1  0  0  0  0
  7  8  1  0  0  0  0
  9  2  1  1  0  0  0
  9  4  1  0  0  0  0
 10  3  1  1  0  0  0
 10  1  1  0  0  0  0
 10  9  1  0  0  0  0
 11 15  1  0  0  0  0
 13 15  2  0  0  0  0
 14 11  2  0  0  0  0
 15 12  1  0  0  0  0
 16 13  1  0  0  0  0
 17 16  2  0  0  0  0
 17 14  1  0  0  0  0
 18 16  1  0  0  0  0
 19 18  1  0  0  0  0
 21 20  1  0  0  0  0
 21 19  1  0  0  0  0
 22 23  1  1  0  0  0
 22 21  1  0  0  0  0
 24 23  2  0  0  0  0
 25 22  1  0  0  0  0
 26 29  1  6  0  0  0
 26 25  1  0  0  0  0
 27 26  1  0  0  0  0
 28 27  1  0  0  0  0
 30 29  1  0  0  0  0
 31 30  1  0  0  0  0
 33 32  1  0  0  0  0
 34 39  1  0  0  0  0
 35 33  1  0  0  0  0
 36 38  2  0  0  0  0
 37 34  2  0  0  0  0
 37 36  1  0  0  0  0
 38 35  1  0  0  0  0
 39 35  2  0  0  0  0
 40 42  2  0  0  0  0
 41 37  1  0  0  0  0
 42 41  1  0  0  0  0
 42 43  1  0  0  0  0
 43 44  1  0  0  0  0
M  END
>  <MODEL>
6

>  <REMARK>
 VINA RESULT:      -7.5      2.285      7.644
  Name = 
  16 active torsions:
  status: ('A' for Active; 'I' for Inactive)
    1  A    between atoms: C_1  and  C_40
    2  A    between atoms: O_3  and  C_24
    3  A    between atoms: C_7  and  C_41
    4  A    between atoms: O_8  and  C_13
    5  A    between atoms: O_8  and  C_28
    6  A    between atoms: C_9  and  O_17
    7  A    between atoms: C_13  and  C_14
    8  A    between atoms: C_13  and  C_41
    9  A    between atoms: C_16  and  C_28
   10  A    between atoms: O_17  and  C_40
   11  A    between atoms: C_18  and  N_26
   12  A    between atoms: C_18  and  C_42
   13  A    between atoms: N_19  and  C_20
   14  A    between atoms: N_26  and  C_28
   15  A    between atoms: C_29  and  C_33
   16  A    between atoms: C_37  and  C_42
                            x       y       z     vdW  Elec       q    Type
                         _______ _______ _______ _____ _____    ______ ____

>  <TORSDO>
F 16

$$$$
=
 OpenBabel10222415423D

 44 48  0  0  1  0  0  0  0  0999 V2000
  187.8240  178.9770  137.7770 C   0  0  2  0  0  3  0  0  0  0  0  0
  188.7280  178.8260  138.8970 N   0  0  0  0  0  2  0  0  0  0  0  0
  185.7660  178.9060  138.7320 N   0  0  0  0  0  2  0  0  0  0  0  0
  187.3790  178.3340  140.7970 C   0  0  0  0  0  0  0  0  0  0  0  0
  185.1850  178.9250  140.0270 C   0  0  0  0  0  3  0  0  0  0  0  0
  185.9160  178.5970  141.0760 C   0  0  0  0  0  0  0  0  0  0  0  0
  188.0810  177.4840  141.8370 C   0  0  0  0  0  2  0  0  0  0  0  0
  188.4420  178.9540  141.6890 C   0  0  0  0  0  2  0  0  0  0  0  0
  187.7990  177.9120  139.4390 N   0  0  1  0  0  0  0  0  0  0  0  0
  186.8580  178.0860  138.3780 N   0  0  2  0  0  0  0  0  0  0  0  0
  183.9360  178.9660  142.6100 C   0  0  0  0  0  3  0  0  0  0  0  0
  182.0220  179.3150  144.0350 O   0  0  0  0  0  1  0  0  0  0  0  0
  184.1180  178.6120  144.9950 C   0  0  0  0  0  3  0  0  0  0  0  0
  185.2840  178.6150  142.4310 C   0  0  0  0  0  0  0  0  0  0  0  0
  183.3570  178.9660  143.8810 C   0  0  0  0  0  0  0  0  0  0  0  0
  185.4610  178.2590  144.8390 C   0  0  0  0  0  0  0  0  0  0  0  0
  186.0360  178.2520  143.5640 C   0  0  0  0  0  3  0  0  0  0  0  0
  186.2650  177.8420  146.0200 C   0  0  0  0  0  2  0  0  0  0  0  0
  187.7260  178.1950  145.7990 C   0  0  0  0  0  2  0  0  0  0  0  0
  188.5710  178.0700  147.9460 C   0  0  0  0  0  1  0  0  0  0  0  0
  188.5710  177.3820  146.6630 N   0  0  0  0  0  0  0  0  0  0  0  0
  189.9490  177.3890  146.1430 C   0  0  1  0  0  3  0  0  0  0  0  0
  190.7310  176.2220  146.6900 C   0  0  0  0  0  3  0  0  0  0  0  0
  191.6840  176.3870  147.6060 C   0  0  0  0  0  2  0  0  0  0  0  0
  189.9510  177.3250  144.7310 O   0  0  0  0  0  0  0  0  0  0  0  0
  191.2840  177.2820  144.2510 C   0  0  2  0  0  3  0  0  0  0  0  0
  191.9700  178.6490  144.2400 C   0  0  0  0  0  2  0  0  0  0  0  0
  190.9530  179.7420  143.9760 C   0  0  0  0  0  1  0  0  0  0  0  0
  191.4190  176.5500  142.9160 C   0  0  0  0  0  2  0  0  0  0  0  0
  191.9590  177.4860  141.8510 C   0  0  0  0  0  2  0  0  0  0  0  0
  191.4120  177.1450  140.6160 O   0  0  0  0  0  1  0  0  0  0  0  0
  188.4210  178.3240  136.5380 C   0  0  0  0  0  2  0  0  0  0  0  0
  188.3370  176.9060  136.6370 O   0  0  0  0  0  0  0  0  0  0  0  0
  191.2190  174.8000  137.5920 C   0  0  0  0  0  3  0  0  0  0  0  0
  189.4490  176.0660  136.5180 C   0  0  0  0  0  0  0  0  0  0  0  0
  191.0130  174.7730  135.1830 C   0  0  0  0  0  3  0  0  0  0  0  0
  191.6760  174.3550  136.3460 C   0  0  0  0  0  0  0  0  0  0  0  0
  189.9060  175.6220  135.2670 C   0  0  0  0  0  3  0  0  0  0  0  0
  190.1120  175.6500  137.6770 C   0  0  0  0  0  3  0  0  0  0  0  0
  195.0590  172.9500  136.1040 O   0  0  0  0  0  0  0  0  0  0  0  0
  192.8060  173.4740  136.3000 N   0  0  0  0  0  2  0  0  0  0  0  0
  194.1810  173.8520  136.1700 C   0  0  0  0  0  0  0  0  0  0  0  0
  194.5520  175.1980  136.1150 O   0  0  0  0  0  0  0  0  0  0  0  0
  195.8520  175.6040  135.7170 C   0  0  0  0  0  1  0  0  0  0  0  0
  1 32  1  6  0  0  0
  1 10  1  0  0  0  0
  1  2  1  0  0  0  0
  3  5  1  0  0  0  0
  4  6  1  0  0  0  0
  4  8  1  0  0  0  0
  4  7  1  0  0  0  0
  5  6  2  0  0  0  0
  6 14  1  0  0  0  0
  8  7  1  0  0  0  0
  9  2  1  6  0  0  0
  9  4  1  0  0  0  0
 10  3  1  1  0  0  0
 10  9  1  0  0  0  0
 11 15  1  0  0  0  0
 14 11  2  0  0  0  0
 14 17  1  0  0  0  0
 15 12  1  0  0  0  0
 15 13  2  0  0  0  0
 16 13  1  0  0  0  0
 16 18  1  0  0  0  0
 17 16  2  0  0  0  0
 19 18  1  0  0  0  0
 19 21  1  0  0  0  0
 21 20  1  0  0  0  0
 22 21  1  0  0  0  0
 22 23  1  1  0  0  0
 23 24  2  0  0  0  0
 25 22  1  0  0  0  0
 26 29  1  6  0  0  0
 26 25  1  0  0  0  0
 27 26  1  0  0  0  0
 28 27  1  0  0  0  0
 30 29  1  0  0  0  0
 31 30  1  0  0  0  0
 32 33  1  0  0  0  0
 34 39  1  0  0  0  0
 35 33  1  0  0  0  0
 35 39  2  0  0  0  0
 36 38  2  0  0  0  0
 36 37  1  0  0  0  0
 37 34  2  0  0  0  0
 38 35  1  0  0  0  0
 40 42  2  0  0  0  0
 41 37  1  0  0  0  0
 42 41  1  0  0  0  0
 43 42  1  0  0  0  0
 44 43  1  0  0  0  0
M  END
>  <MODEL>
7

>  <REMARK>
 VINA RESULT:      -7.4      1.567      2.754
  Name = 
  16 active torsions:
  status: ('A' for Active; 'I' for Inactive)
    1  A    between atoms: C_1  and  C_40
    2  A    between atoms: O_3  and  C_24
    3  A    between atoms: C_7  and  C_41
    4  A    between atoms: O_8  and  C_13
    5  A    between atoms: O_8  and  C_28
    6  A    between atoms: C_9  and  O_17
    7  A    between atoms: C_13  and  C_14
    8  A    between atoms: C_13  and  C_41
    9  A    between atoms: C_16  and  C_28
   10  A    between atoms: O_17  and  C_40
   11  A    between atoms: C_18  and  N_26
   12  A    between atoms: C_18  and  C_42
   13  A    between atoms: N_19  and  C_20
   14  A    between atoms: N_26  and  C_28
   15  A    between atoms: C_29  and  C_33
   16  A    between atoms: C_37  and  C_42
                            x       y       z     vdW  Elec       q    Type
                         _______ _______ _______ _____ _____    ______ ____

>  <TORSDO>
F 16

$$$$
=
 OpenBabel10222415423D

 44 48  0  0  1  0  0  0  0  0999 V2000
  182.4600  178.6020  143.4110 C   0  0  2  0  0  3  0  0  0  0  0  0
  182.7720  178.7450  144.8170 N   0  0  0  0  0  2  0  0  0  0  0  0
  184.4580  178.0810  142.4660 N   0  0  0  0  0  2  0  0  0  0  0  0
  185.1430  178.6150  145.0050 C   0  0  0  0  0  0  0  0  0  0  0  0
  185.7710  177.7210  142.8680 C   0  0  0  0  0  3  0  0  0  0  0  0
  186.1840  178.0100  144.0880 C   0  0  0  0  0  0  0  0  0  0  0  0
  185.7040  179.4030  146.1710 C   0  0  0  0  0  2  0  0  0  0  0  0
  184.9830  178.0870  146.4210 C   0  0  0  0  0  2  0  0  0  0  0  0
  183.9880  179.3400  144.4210 N   0  0  1  0  0  0  0  0  0  0  0  0
  183.7380  179.1570  143.0260 N   0  0  2  0  0  0  0  0  0  0  0  0
  187.9860  177.6640  145.8320 C   0  0  0  0  0  3  0  0  0  0  0  0
  189.6710  177.3320  147.5260 O   0  0  0  0  0  1  0  0  0  0  0  0
  190.1900  176.8840  145.2150 C   0  0  0  0  0  3  0  0  0  0  0  0
  187.5730  177.6310  144.4900 C   0  0  0  0  0  0  0  0  0  0  0  0
  189.2840  177.2940  146.1930 C   0  0  0  0  0  0  0  0  0  0  0  0
  189.8000  176.8450  143.8740 C   0  0  0  0  0  0  0  0  0  0  0  0
  188.4970  177.2070  143.5170 C   0  0  0  0  0  3  0  0  0  0  0  0
  190.7510  176.3700  142.8330 C   0  0  0  0  0  2  0  0  0  0  0  0
  190.2020  176.6820  141.4520 C   0  0  0  0  0  2  0  0  0  0  0  0
  192.2410  177.5070  140.7430 C   0  0  0  0  0  1  0  0  0  0  0  0
  191.2400  176.4910  140.4480 N   0  0  0  0  0  0  0  0  0  0  0  0
  190.6850  176.7740  139.1130 C   0  0  1  0  0  3  0  0  0  0  0  0
  191.7240  176.5430  138.0440 C   0  0  0  0  0  3  0  0  0  0  0  0
  192.1170  175.3160  137.7060 C   0  0  0  0  0  2  0  0  0  0  0  0
  189.5650  175.9510  138.8530 O   0  0  0  0  0  0  0  0  0  0  0  0
  188.5320  176.7160  138.2560 C   0  0  2  0  0  3  0  0  0  0  0  0
  188.4470  176.5420  136.7390 C   0  0  0  0  0  2  0  0  0  0  0  0
  188.2790  177.8920  136.0670 C   0  0  0  0  0  1  0  0  0  0  0  0
  188.5520  178.1850  138.6760 C   0  0  0  0  0  2  0  0  0  0  0  0
  187.4360  178.4690  139.6630 C   0  0  0  0  0  2  0  0  0  0  0  0
  186.2090  178.3960  139.0070 O   0  0  0  0  0  1  0  0  0  0  0  0
  181.3460  179.5660  143.0270 C   0  0  0  0  0  2  0  0  0  0  0  0
  180.5740  179.0300  141.9580 O   0  0  0  0  0  0  0  0  0  0  0  0
  181.7600  180.0580  138.6130 C   0  0  0  0  0  3  0  0  0  0  0  0
  180.5680  179.5790  140.6710 C   0  0  0  0  0  0  0  0  0  0  0  0
  179.4380  180.6940  138.8330 C   0  0  0  0  0  3  0  0  0  0  0  0
  180.6120  180.6430  138.0670 C   0  0  0  0  0  0  0  0  0  0  0  0
  179.4150  180.1660  140.1270 C   0  0  0  0  0  3  0  0  0  0  0  0
  181.7390  179.5300  139.9070 C   0  0  0  0  0  3  0  0  0  0  0  0
  180.7070  182.8380  135.1260 O   0  0  0  0  0  0  0  0  0  0  0  0
  180.6700  181.1620  136.7320 N   0  0  0  0  0  2  0  0  0  0  0  0
  180.6980  182.5430  136.3510 C   0  0  0  0  0  0  0  0  0  0  0  0
  180.7130  183.5520  137.3180 O   0  0  0  0  0  0  0  0  0  0  0  0
  181.6840  184.5870  137.3080 C   0  0  0  0  0  1  0  0  0  0  0  0
  1 32  1  6  0  0  0
  1  2  1  0  0  0  0
  3  5  1  0  0  0  0
  4  7  1  0  0  0  0
  4  8  1  0  0  0  0
  5  6  2  0  0  0  0
  6 14  1  0  0  0  0
  6  4  1  0  0  0  0
  7  8  1  0  0  0  0
  9  2  1  1  0  0  0
  9  4  1  0  0  0  0
 10  3  1  1  0  0  0
 10  1  1  0  0  0  0
 10  9  1  0  0  0  0
 11 15  1  0  0  0  0
 13 15  2  0  0  0  0
 14 11  2  0  0  0  0
 15 12  1  0  0  0  0
 16 13  1  0  0  0  0
 17 16  2  0  0  0  0
 17 14  1  0  0  0  0
 18 16  1  0  0  0  0
 19 18  1  0  0  0  0
 21 20  1  0  0  0  0
 21 19  1  0  0  0  0
 22 23  1  6  0  0  0
 22 21  1  0  0  0  0
 24 23  2  0  0  0  0
 25 22  1  0  0  0  0
 26 27  1  6  0  0  0
 26 29  1  0  0  0  0
 26 25  1  0  0  0  0
 28 27  1  0  0  0  0
 29 30  1  0  0  0  0
 31 30  1  0  0  0  0
 33 32  1  0  0  0  0
 34 39  1  0  0  0  0
 35 33  1  0  0  0  0
 36 38  2  0  0  0  0
 37 34  2  0  0  0  0
 37 36  1  0  0  0  0
 38 35  1  0  0  0  0
 39 35  2  0  0  0  0
 40 42  2  0  0  0  0
 41 37  1  0  0  0  0
 42 41  1  0  0  0  0
 42 43  1  0  0  0  0
 44 43  1  0  0  0  0
M  END
>  <MODEL>
8

>  <REMARK>
 VINA RESULT:      -7.3      3.304      8.916
  Name = 
  16 active torsions:
  status: ('A' for Active; 'I' for Inactive)
    1  A    between atoms: C_1  and  C_40
    2  A    between atoms: O_3  and  C_24
    3  A    between atoms: C_7  and  C_41
    4  A    between atoms: O_8  and  C_13
    5  A    between atoms: O_8  and  C_28
    6  A    between atoms: C_9  and  O_17
    7  A    between atoms: C_13  and  C_14
    8  A    between atoms: C_13  and  C_41
    9  A    between atoms: C_16  and  C_28
   10  A    between atoms: O_17  and  C_40
   11  A    between atoms: C_18  and  N_26
   12  A    between atoms: C_18  and  C_42
   13  A    between atoms: N_19  and  C_20
   14  A    between atoms: N_26  and  C_28
   15  A    between atoms: C_29  and  C_33
   16  A    between atoms: C_37  and  C_42
                            x       y       z     vdW  Elec       q    Type
                         _______ _______ _______ _____ _____    ______ ____

>  <TORSDO>
F 16

$$$$
=
 OpenBabel10222415423D

 44 48  0  0  1  0  0  0  0  0999 V2000
  183.9880  179.2800  144.4230 C   0  0  2  0  0  3  0  0  0  0  0  0
  182.5530  179.3160  144.2400 N   0  0  0  0  0  2  0  0  0  0  0  0
  184.7880  178.8700  142.3390 N   0  0  0  0  0  2  0  0  0  0  0  0
  182.1380  178.6380  141.9950 C   0  0  0  0  0  0  0  0  0  0  0  0
  184.3150  178.8160  141.0010 C   0  0  0  0  0  3  0  0  0  0  0  0
  183.0260  178.6460  140.7700 C   0  0  0  0  0  0  0  0  0  0  0  0
  180.8020  177.9470  141.8050 C   0  0  0  0  0  2  0  0  0  0  0  0
  180.8560  179.4550  142.0050 C   0  0  0  0  0  2  0  0  0  0  0  0
  182.7110  178.2660  143.3110 N   0  0  1  0  0  0  0  0  0  0  0  0
  184.1360  178.2480  143.4230 N   0  0  2  0  0  0  0  0  0  0  0  0
  181.9830  179.7000  138.7190 C   0  0  0  0  0  3  0  0  0  0  0  0
  180.9990  180.7460  136.7810 O   0  0  0  0  0  1  0  0  0  0  0  0
  181.6820  178.4370  136.6790 C   0  0  0  0  0  3  0  0  0  0  0  0
  182.5480  178.5830  139.3560 C   0  0  0  0  0  0  0  0  0  0  0  0
  181.5520  179.6290  137.3920 C   0  0  0  0  0  0  0  0  0  0  0  0
  182.2410  177.3140  137.2930 C   0  0  0  0  0  0  0  0  0  0  0  0
  182.6790  177.3900  138.6190 C   0  0  0  0  0  3  0  0  0  0  0  0
  182.4180  176.0520  136.5230 C   0  0  0  0  0  2  0  0  0  0  0  0
  183.2790  175.0830  137.3140 C   0  0  0  0  0  2  0  0  0  0  0  0
  183.7300  172.9970  136.4260 C   0  0  0  0  0  1  0  0  0  0  0  0
  184.1870  174.3800  136.4180 N   0  0  0  0  0  0  0  0  0  0  0  0
  185.5480  174.4110  136.9810 C   0  0  1  0  0  3  0  0  0  0  0  0
  186.0180  173.0180  137.3180 C   0  0  0  0  0  3  0  0  0  0  0  0
  187.2810  172.6410  137.1230 C   0  0  0  0  0  2  0  0  0  0  0  0
  186.4540  174.9940  136.0660 O   0  0  0  0  0  0  0  0  0  0  0  0
  186.4480  176.4040  136.2120 C   0  0  2  0  0  3  0  0  0  0  0  0
  186.9620  177.1460  134.9770 C   0  0  0  0  0  2  0  0  0  0  0  0
  188.3780  176.7060  134.6560 C   0  0  0  0  0  1  0  0  0  0  0  0
  187.1200  176.8780  137.5000 C   0  0  0  0  0  2  0  0  0  0  0  0
  186.6350  178.2680  137.8690 C   0  0  0  0  0  2  0  0  0  0  0  0
  187.1560  178.6240  139.1120 O   0  0  0  0  0  1  0  0  0  0  0  0
  184.3210  178.7150  145.7970 C   0  0  0  0  0  2  0  0  0  0  0  0
  185.5050  179.3200  146.3080 O   0  0  0  0  0  0  0  0  0  0  0  0
  188.4370  177.1210  145.8400 C   0  0  0  0  0  3  0  0  0  0  0  0
  186.6670  178.5970  146.5980 C   0  0  0  0  0  0  0  0  0  0  0  0
  188.4170  177.8970  148.1300 C   0  0  0  0  0  3  0  0  0  0  0  0
  189.0190  177.1420  147.1120 C   0  0  0  0  0  0  0  0  0  0  0  0
  187.2480  178.6200  147.8760 C   0  0  0  0  0  3  0  0  0  0  0  0
  187.2670  177.8430  145.5840 C   0  0  0  0  0  3  0  0  0  0  0  0
  192.4290  175.7950  146.9190 O   0  0  0  0  0  0  0  0  0  0  0  0
  190.2260  176.3990  147.3320 N   0  0  0  0  0  2  0  0  0  0  0  0
  191.4670  176.5590  146.6350 C   0  0  0  0  0  0  0  0  0  0  0  0
  191.6170  177.5430  145.6550 O   0  0  0  0  0  0  0  0  0  0  0  0
  191.6720  177.2240  144.2720 C   0  0  0  0  0  1  0  0  0  0  0  0
  1 32  1  1  0  0  0
  2  1  1  0  0  0  0
  4  8  1  0  0  0  0
  4  9  1  0  0  0  0
  5  3  1  0  0  0  0
  6  5  2  0  0  0  0
  6  4  1  0  0  0  0
  7  4  1  0  0  0  0
  7  8  1  0  0  0  0
  9 10  1  0  0  0  0
  9  2  1  1  0  0  0
 10  3  1  6  0  0  0
 10  1  1  0  0  0  0
 11 14  1  0  0  0  0
 12 15  1  0  0  0  0
 13 16  2  0  0  0  0
 13 15  1  0  0  0  0
 14  6  1  0  0  0  0
 15 11  2  0  0  0  0
 16 17  1  0  0  0  0
 17 14  2  0  0  0  0
 18 16  1  0  0  0  0
 18 19  1  0  0  0  0
 21 20  1  0  0  0  0
 21 22  1  0  0  0  0
 21 19  1  0  0  0  0
 22 23  1  6  0  0  0
 24 23  2  0  0  0  0
 25 26  1  0  0  0  0
 25 22  1  0  0  0  0
 26 27  1  6  0  0  0
 26 29  1  0  0  0  0
 28 27  1  0  0  0  0
 29 30  1  0  0  0  0
 30 31  1  0  0  0  0
 32 33  1  0  0  0  0
 33 35  1  0  0  0  0
 34 37  1  0  0  0  0
 35 38  2  0  0  0  0
 37 41  1  0  0  0  0
 37 36  2  0  0  0  0
 38 36  1  0  0  0  0
 39 34  2  0  0  0  0
 39 35  1  0  0  0  0
 42 40  2  0  0  0  0
 42 41  1  0  0  0  0
 43 42  1  0  0  0  0
 44 43  1  0  0  0  0
M  END
>  <MODEL>
9

>  <REMARK>
 VINA RESULT:      -7.3      3.167      8.550
  Name = 
  16 active torsions:
  status: ('A' for Active; 'I' for Inactive)
    1  A    between atoms: C_1  and  C_40
    2  A    between atoms: O_3  and  C_24
    3  A    between atoms: C_7  and  C_41
    4  A    between atoms: O_8  and  C_13
    5  A    between atoms: O_8  and  C_28
    6  A    between atoms: C_9  and  O_17
    7  A    between atoms: C_13  and  C_14
    8  A    between atoms: C_13  and  C_41
    9  A    between atoms: C_16  and  C_28
   10  A    between atoms: O_17  and  C_40
   11  A    between atoms: C_18  and  N_26
   12  A    between atoms: C_18  and  C_42
   13  A    between atoms: N_19  and  C_20
   14  A    between atoms: N_26  and  C_28
   15  A    between atoms: C_29  and  C_33
   16  A    between atoms: C_37  and  C_42
                            x       y       z     vdW  Elec       q    Type
                         _______ _______ _______ _____ _____    ______ ____

>  <TORSDO>
F 16

$$$$
