=
 OpenBabel10222416313D

 32 34  0  0  1  0  0  0  0  0999 V2000
  181.2590  175.3700  138.8430 C   0  0  0  0  0  0  0  0  0  0  0  0
  182.7310  175.5750  139.0700 C   0  0  0  0  0  2  0  0  0  0  0  0
  184.4190  178.4580  143.1250 N   0  0  0  0  0  0  0  0  0  0  0  0
  180.7040  175.7120  137.7200 N   0  0  0  0  0  0  0  0  0  0  0  0
  182.9930  178.1480  137.2180 N   0  0  0  0  0  0  0  0  0  0  0  0
  183.1530  178.8580  142.5070 C   0  0  0  0  0  2  0  0  0  0  0  0
  181.5990  177.8290  136.9270 C   0  0  0  0  0  2  0  0  0  0  0  0
  183.0370  177.0050  139.3700 C   0  0  0  0  0  0  0  0  0  0  0  0
  185.4890  178.7280  139.6190 N   0  0  0  0  0  0  0  0  0  0  0  0
  181.4200  176.3500  136.6230 C   0  0  0  0  0  2  0  0  0  0  0  0
  182.9920  177.4120  140.5970 N   0  0  0  0  0  0  0  0  0  0  0  0
  183.6230  177.8530  138.3190 C   0  0  0  0  0  0  0  0  0  0  0  0
  184.7850  179.1100  140.8520 C   0  0  2  0  0  3  0  0  0  0  0  0
  185.0210  178.2730  138.4910 C   0  0  0  0  0  0  0  0  0  0  0  0
  185.4460  178.5510  142.0860 C   0  0  0  0  0  2  0  0  0  0  0  0
  183.3140  178.7740  141.0060 C   0  0  2  0  0  3  0  0  0  0  0  0
  179.4170  175.5240  140.4820 C   0  0  0  0  0  1  0  0  0  0  0  0
  180.4590  174.8030  139.8390 O   0  0  0  0  0  0  0  0  0  0  0  0
  184.7290  179.4570  144.1350 C   0  0  0  0  0  2  0  0  0  0  0  0
  186.8310  177.5370  146.3270 C   0  0  0  0  0  3  0  0  0  0  0  0
  184.7250  178.8300  145.4840 C   0  0  0  0  0  3  0  0  0  0  0  0
  185.7750  178.1840  145.9050 C   0  0  0  0  0  0  0  0  0  0  0  0
  189.3020  177.3910  146.4100 C   0  0  0  0  0  1  0  0  0  0  0  0
  188.0890  177.5950  145.6420 N   0  0  0  0  0  0  0  0  0  0  0  0
  188.0930  176.3810  143.5220 C   0  0  0  0  0  1  0  0  0  0  0  0
  188.1970  177.7390  144.1950 C   0  0  0  0  0  2  0  0  0  0  0  0
  185.9670  178.1180  137.3430 C   0  0  0  0  0  2  0  0  0  0  0  0
  187.2360  177.3860  137.7640 C   0  0  0  0  0  2  0  0  0  0  0  0
  189.0000  178.6370  136.7740 O   0  0  0  0  0  0  0  0  0  0  0  0
  188.4010  178.3220  137.8360 C   0  0  0  0  0  0  0  0  0  0  0  0
  188.8250  178.8740  139.0470 O   0  0  0  0  0  0  0  0  0  0  0  0
  188.8950  178.1160  140.2450 C   0  0  0  0  0  1  0  0  0  0  0  0
  1  2  1  0  0  0  0
  1 18  1  0  0  0  0
  2  8  1  0  0  0  0
  3 19  1  0  0  0  0
  4  1  2  0  0  0  0
  5 12  2  0  0  0  0
  6  3  1  0  0  0  0
  7  5  1  0  0  0  0
  8 11  2  0  0  0  0
  9 13  1  0  0  0  0
 10  7  1  0  0  0  0
 10  4  1  0  0  0  0
 11 16  1  0  0  0  0
 12 14  1  0  0  0  0
 12  8  1  0  0  0  0
 13 16  1  0  0  0  0
 13 15  1  1  0  0  0
 14  9  2  0  0  0  0
 15  3  1  0  0  0  0
 16  6  1  1  0  0  0
 18 17  1  0  0  0  0
 19 21  1  0  0  0  0
 21 22  2  0  0  0  0
 22 20  2  0  0  0  0
 24 20  1  0  0  0  0
 24 23  1  0  0  0  0
 25 26  1  0  0  0  0
 26 24  1  0  0  0  0
 27 28  1  0  0  0  0
 27 14  1  0  0  0  0
 28 30  1  0  0  0  0
 29 30  2  0  0  0  0
 30 31  1  0  0  0  0
 31 32  1  0  0  0  0
M  END
>  <MODEL>
1

>  <REMARK>
 VINA RESULT:      -7.1      0.000      0.000
  Name = 
  9 active torsions:
  status: ('A' for Active; 'I' for Inactive)
    1  A    between atoms: C_3  and  O_15
    2  A    between atoms: C_5  and  N_28
    3  A    between atoms: N_6  and  C_13
    4  A    between atoms: C_9  and  N_28
    5  A    between atoms: C_13  and  C_17
    6  A    between atoms: C_14  and  C_25
    7  A    between atoms: C_14  and  C_31
    8  A    between atoms: O_18  and  C_31
    9  A    between atoms: C_25  and  C_29
                            x       y       z     vdW  Elec       q    Type
                         _______ _______ _______ _____ _____    ______ ____

>  <TORSDO>
F 9

$$$$
=
 OpenBabel10222416313D

 32 34  0  0  1  0  0  0  0  0999 V2000
  190.5460  177.4570  145.4820 C   0  0  0  0  0  0  0  0  0  0  0  0
  190.1680  178.3490  144.3330 C   0  0  0  0  0  2  0  0  0  0  0  0
  185.1140  179.3190  143.2730 N   0  0  0  0  0  0  0  0  0  0  0  0
  191.2750  176.3990  145.2910 N   0  0  0  0  0  0  0  0  0  0  0  0
  190.1200  176.0540  142.1330 N   0  0  0  0  0  0  0  0  0  0  0  0
  185.4380  177.9960  143.8100 C   0  0  0  0  0  2  0  0  0  0  0  0
  190.6140  175.2540  143.2500 C   0  0  0  0  0  2  0  0  0  0  0  0
  189.0650  177.7520  143.5250 C   0  0  0  0  0  0  0  0  0  0  0  0
  187.7200  178.2950  140.8910 N   0  0  0  0  0  0  0  0  0  0  0  0
  191.7430  175.9610  143.9820 C   0  0  0  0  0  2  0  0  0  0  0  0
  187.8390  177.9950  143.8610 N   0  0  0  0  0  0  0  0  0  0  0  0
  189.3770  177.1180  142.2340 C   0  0  0  0  0  0  0  0  0  0  0  0
  186.5370  178.1420  141.7520 C   0  0  2  0  0  3  0  0  0  0  0  0
  188.9190  177.8040  141.0160 C   0  0  0  0  0  0  0  0  0  0  0  0
  185.8430  179.4550  142.0110 C   0  0  0  0  0  2  0  0  0  0  0  0
  186.6870  177.4990  143.1170 C   0  0  2  0  0  3  0  0  0  0  0  0
  188.9640  177.1620  147.3550 C   0  0  0  0  0  1  0  0  0  0  0  0
  190.1220  177.7500  146.7800 O   0  0  0  0  0  0  0  0  0  0  0  0
  183.6950  179.3100  142.9590 C   0  0  0  0  0  2  0  0  0  0  0  0
  180.3220  178.6250  143.9890 C   0  0  0  0  0  3  0  0  0  0  0  0
  182.9250  178.7790  144.1160 C   0  0  0  0  0  3  0  0  0  0  0  0
  181.6260  178.7020  144.0540 C   0  0  0  0  0  0  0  0  0  0  0  0
  179.0080  180.1120  142.5070 C   0  0  0  0  0  1  0  0  0  0  0  0
  179.6030  178.8150  142.7640 N   0  0  0  0  0  0  0  0  0  0  0  0
  180.5630  178.0920  140.6370 C   0  0  0  0  0  1  0  0  0  0  0  0
  179.5380  177.8000  141.7190 C   0  0  0  0  0  2  0  0  0  0  0  0
  189.8870  178.0000  139.8930 C   0  0  0  0  0  2  0  0  0  0  0  0
  189.6810  176.9600  138.7970 C   0  0  0  0  0  2  0  0  0  0  0  0
  192.0420  176.6650  138.7910 O   0  0  0  0  0  0  0  0  0  0  0  0
  190.9160  176.1380  138.5950 C   0  0  0  0  0  0  0  0  0  0  0  0
  190.8490  174.7940  138.2180 O   0  0  0  0  0  0  0  0  0  0  0  0
  190.1020  174.3570  137.0930 C   0  0  0  0  0  1  0  0  0  0  0  0
  1 18  1  0  0  0  0
  2  1  1  0  0  0  0
  3  6  1  0  0  0  0
  4  1  2  0  0  0  0
  5 12  2  0  0  0  0
  5  7  1  0  0  0  0
  7 10  1  0  0  0  0
  8 11  2  0  0  0  0
  8  2  1  0  0  0  0
  9 14  2  0  0  0  0
  9 13  1  0  0  0  0
 10  4  1  0  0  0  0
 12  8  1  0  0  0  0
 13 15  1  1  0  0  0
 13 16  1  0  0  0  0
 14 12  1  0  0  0  0
 15  3  1  0  0  0  0
 16  6  1  1  0  0  0
 16 11  1  0  0  0  0
 18 17  1  0  0  0  0
 19  3  1  0  0  0  0
 19 21  1  0  0  0  0
 20 22  2  0  0  0  0
 22 21  2  0  0  0  0
 23 24  1  0  0  0  0
 24 20  1  0  0  0  0
 25 26  1  0  0  0  0
 26 24  1  0  0  0  0
 27 14  1  0  0  0  0
 28 27  1  0  0  0  0
 30 29  2  0  0  0  0
 30 28  1  0  0  0  0
 31 30  1  0  0  0  0
 32 31  1  0  0  0  0
M  END
>  <MODEL>
2

>  <REMARK>
 VINA RESULT:      -6.9      3.556      7.489
  Name = 
  9 active torsions:
  status: ('A' for Active; 'I' for Inactive)
    1  A    between atoms: C_3  and  O_15
    2  A    between atoms: C_5  and  N_28
    3  A    between atoms: N_6  and  C_13
    4  A    between atoms: C_9  and  N_28
    5  A    between atoms: C_13  and  C_17
    6  A    between atoms: C_14  and  C_25
    7  A    between atoms: C_14  and  C_31
    8  A    between atoms: O_18  and  C_31
    9  A    between atoms: C_25  and  C_29
                            x       y       z     vdW  Elec       q    Type
                         _______ _______ _______ _____ _____    ______ ____

>  <TORSDO>
F 9

$$$$
=
 OpenBabel10222416313D

 32 34  0  0  1  0  0  0  0  0999 V2000
  190.4410  177.4180  145.5160 C   0  0  0  0  0  0  0  0  0  0  0  0
  190.0690  178.3410  144.3900 C   0  0  0  0  0  2  0  0  0  0  0  0
  185.0210  179.3040  143.2970 N   0  0  0  0  0  0  0  0  0  0  0  0
  191.1800  176.3710  145.3030 N   0  0  0  0  0  0  0  0  0  0  0  0
  190.0650  176.1100  142.1220 N   0  0  0  0  0  0  0  0  0  0  0  0
  185.3490  177.9680  143.7990 C   0  0  0  0  0  2  0  0  0  0  0  0
  190.5510  175.2820  143.2220 C   0  0  0  0  0  2  0  0  0  0  0  0
  188.9800  177.7590  143.5510 C   0  0  0  0  0  0  0  0  0  0  0  0
  187.6630  178.3690  140.9170 N   0  0  0  0  0  0  0  0  0  0  0  0
  191.6670  175.9750  143.9870 C   0  0  0  0  0  2  0  0  0  0  0  0
  187.7490  177.9840  143.8790 N   0  0  0  0  0  0  0  0  0  0  0  0
  189.3130  177.1660  142.2460 C   0  0  0  0  0  0  0  0  0  0  0  0
  186.4710  178.1830  141.7590 C   0  0  2  0  0  3  0  0  0  0  0  0
  188.8650  177.8830  141.0430 C   0  0  0  0  0  0  0  0  0  0  0  0
  185.7640  179.4820  142.0480 C   0  0  0  0  0  2  0  0  0  0  0  0
  186.6100  177.5010  143.1070 C   0  0  2  0  0  3  0  0  0  0  0  0
  188.7700  177.1610  147.3170 C   0  0  0  0  0  1  0  0  0  0  0  0
  189.9990  177.6700  146.8170 O   0  0  0  0  0  0  0  0  0  0  0  0
  183.6060  179.2940  142.9650 C   0  0  0  0  0  2  0  0  0  0  0  0
  180.2180  178.6500  143.9730 C   0  0  0  0  0  3  0  0  0  0  0  0
  182.8230  178.7520  144.1080 C   0  0  0  0  0  3  0  0  0  0  0  0
  181.5230  178.7010  144.0420 C   0  0  0  0  0  0  0  0  0  0  0  0
  178.9760  180.2070  142.5010 C   0  0  0  0  0  1  0  0  0  0  0  0
  179.5060  178.8800  142.7510 N   0  0  0  0  0  0  0  0  0  0  0  0
  180.4990  178.0430  140.6820 C   0  0  0  0  0  1  0  0  0  0  0  0
  179.3870  177.8740  141.7020 C   0  0  0  0  0  2  0  0  0  0  0  0
  189.8440  178.1190  139.9370 C   0  0  0  0  0  2  0  0  0  0  0  0
  189.4720  177.3270  138.6900 C   0  0  0  0  0  2  0  0  0  0  0  0
  189.0270  179.4770  137.7720 O   0  0  0  0  0  0  0  0  0  0  0  0
  188.9710  178.2300  137.6060 C   0  0  0  0  0  0  0  0  0  0  0  0
  188.4660  177.7250  136.4050 O   0  0  0  0  0  0  0  0  0  0  0  0
  187.8130  176.4670  136.3240 C   0  0  0  0  0  1  0  0  0  0  0  0
  1 18  1  0  0  0  0
  2  1  1  0  0  0  0
  3  6  1  0  0  0  0
  4  1  2  0  0  0  0
  5 12  2  0  0  0  0
  5  7  1  0  0  0  0
  7 10  1  0  0  0  0
  8 11  2  0  0  0  0
  8  2  1  0  0  0  0
  9 14  2  0  0  0  0
  9 13  1  0  0  0  0
 10  4  1  0  0  0  0
 12  8  1  0  0  0  0
 13 15  1  1  0  0  0
 13 16  1  0  0  0  0
 14 12  1  0  0  0  0
 15  3  1  0  0  0  0
 16  6  1  1  0  0  0
 16 11  1  0  0  0  0
 18 17  1  0  0  0  0
 19  3  1  0  0  0  0
 19 21  1  0  0  0  0
 20 22  2  0  0  0  0
 22 21  2  0  0  0  0
 23 24  1  0  0  0  0
 24 20  1  0  0  0  0
 25 26  1  0  0  0  0
 26 24  1  0  0  0  0
 27 14  1  0  0  0  0
 28 27  1  0  0  0  0
 30 29  2  0  0  0  0
 30 28  1  0  0  0  0
 31 30  1  0  0  0  0
 32 31  1  0  0  0  0
M  END
>  <MODEL>
3

>  <REMARK>
 VINA RESULT:      -6.8      3.219      7.368
  Name = 
  9 active torsions:
  status: ('A' for Active; 'I' for Inactive)
    1  A    between atoms: C_3  and  O_15
    2  A    between atoms: C_5  and  N_28
    3  A    between atoms: N_6  and  C_13
    4  A    between atoms: C_9  and  N_28
    5  A    between atoms: C_13  and  C_17
    6  A    between atoms: C_14  and  C_25
    7  A    between atoms: C_14  and  C_31
    8  A    between atoms: O_18  and  C_31
    9  A    between atoms: C_25  and  C_29
                            x       y       z     vdW  Elec       q    Type
                         _______ _______ _______ _____ _____    ______ ____

>  <TORSDO>
F 9

$$$$
=
 OpenBabel10222416313D

 32 34  0  0  1  0  0  0  0  0999 V2000
  190.5470  176.5590  141.7540 C   0  0  0  0  0  0  0  0  0  0  0  0
  189.3440  176.2260  142.5910 C   0  0  0  0  0  2  0  0  0  0  0  0
  184.6070  178.0940  141.2980 N   0  0  0  0  0  0  0  0  0  0  0  0
  191.5840  177.1390  142.2790 N   0  0  0  0  0  0  0  0  0  0  0  0
  189.6730  178.6530  144.6210 N   0  0  0  0  0  0  0  0  0  0  0  0
  185.7600  178.9450  141.0000 C   0  0  0  0  0  2  0  0  0  0  0  0
  190.9020  178.8570  143.8590 C   0  0  0  0  0  2  0  0  0  0  0  0
  188.5150  177.4400  142.8530 C   0  0  0  0  0  0  0  0  0  0  0  0
  186.1930  178.1850  144.6120 N   0  0  0  0  0  0  0  0  0  0  0  0
  191.6620  177.5540  143.6740 C   0  0  0  0  0  2  0  0  0  0  0  0
  187.5920  177.7620  142.0060 N   0  0  0  0  0  0  0  0  0  0  0  0
  188.5880  178.0930  144.1700 C   0  0  0  0  0  0  0  0  0  0  0  0
  185.7160  178.7130  143.3250 C   0  0  2  0  0  3  0  0  0  0  0  0
  187.4070  177.9890  145.0410 C   0  0  0  0  0  0  0  0  0  0  0  0
  184.5960  177.8860  142.7460 C   0  0  0  0  0  2  0  0  0  0  0  0
  186.6980  178.9010  142.1850 C   0  0  2  0  0  3  0  0  0  0  0  0
  190.1610  177.1670  139.3920 C   0  0  0  0  0  1  0  0  0  0  0  0
  190.5740  176.2470  140.3930 O   0  0  0  0  0  0  0  0  0  0  0  0
  183.4190  178.8610  140.9580 C   0  0  0  0  0  2  0  0  0  0  0  0
  182.3760  176.1630  138.8270 C   0  0  0  0  0  3  0  0  0  0  0  0
  182.2710  177.9410  140.7350 C   0  0  0  0  0  3  0  0  0  0  0  0
  182.3220  177.0530  139.7830 C   0  0  0  0  0  0  0  0  0  0  0  0
  183.8620  174.4900  137.7660 C   0  0  0  0  0  1  0  0  0  0  0  0
  183.5880  175.8690  138.1210 N   0  0  0  0  0  0  0  0  0  0  0  0
  184.3690  177.0720  136.1430 C   0  0  0  0  0  1  0  0  0  0  0  0
  184.4990  176.9040  137.6470 C   0  0  0  0  0  2  0  0  0  0  0  0
  187.5980  177.5840  146.4680 C   0  0  0  0  0  2  0  0  0  0  0  0
  188.9040  176.8200  146.6580 C   0  0  0  0  0  2  0  0  0  0  0  0
  189.1820  178.1730  148.5940 O   0  0  0  0  0  0  0  0  0  0  0  0
  189.7360  177.4340  147.7390 C   0  0  0  0  0  0  0  0  0  0  0  0
  191.1080  177.1880  147.8380 O   0  0  0  0  0  0  0  0  0  0  0  0
  191.7090  176.0110  147.3200 C   0  0  0  0  0  1  0  0  0  0  0  0
  1  4  2  0  0  0  0
  1  2  1  0  0  0  0
  2  8  1  0  0  0  0
  3 15  1  0  0  0  0
  4 10  1  0  0  0  0
  6  3  1  0  0  0  0
  7  5  1  0  0  0  0
  8 12  1  0  0  0  0
  9 14  2  0  0  0  0
 10  7  1  0  0  0  0
 11 16  1  0  0  0  0
 11  8  2  0  0  0  0
 12  5  2  0  0  0  0
 12 14  1  0  0  0  0
 13 15  1  6  0  0  0
 13  9  1  0  0  0  0
 14 27  1  0  0  0  0
 16  6  1  6  0  0  0
 16 13  1  0  0  0  0
 17 18  1  0  0  0  0
 18  1  1  0  0  0  0
 19  3  1  0  0  0  0
 20 22  2  0  0  0  0
 21 19  1  0  0  0  0
 22 21  2  0  0  0  0
 23 24  1  0  0  0  0
 24 20  1  0  0  0  0
 25 26  1  0  0  0  0
 26 24  1  0  0  0  0
 27 28  1  0  0  0  0
 28 30  1  0  0  0  0
 30 31  1  0  0  0  0
 30 29  2  0  0  0  0
 32 31  1  0  0  0  0
M  END
>  <MODEL>
4

>  <REMARK>
 VINA RESULT:      -6.6      3.126      8.269
  Name = 
  9 active torsions:
  status: ('A' for Active; 'I' for Inactive)
    1  A    between atoms: C_3  and  O_15
    2  A    between atoms: C_5  and  N_28
    3  A    between atoms: N_6  and  C_13
    4  A    between atoms: C_9  and  N_28
    5  A    between atoms: C_13  and  C_17
    6  A    between atoms: C_14  and  C_25
    7  A    between atoms: C_14  and  C_31
    8  A    between atoms: O_18  and  C_31
    9  A    between atoms: C_25  and  C_29
                            x       y       z     vdW  Elec       q    Type
                         _______ _______ _______ _____ _____    ______ ____

>  <TORSDO>
F 9

$$$$
=
 OpenBabel10222416313D

 32 34  0  0  1  0  0  0  0  0999 V2000
  187.0380  175.4280  136.4410 C   0  0  0  0  0  0  0  0  0  0  0  0
  188.2490  175.0350  137.2390 C   0  0  0  0  0  2  0  0  0  0  0  0
  189.1320  177.1700  141.9580 N   0  0  0  0  0  0  0  0  0  0  0  0
  187.1580  175.9150  135.2430 N   0  0  0  0  0  0  0  0  0  0  0  0
  190.1990  177.2020  135.9670 N   0  0  0  0  0  0  0  0  0  0  0  0
  188.4810  178.0180  140.9570 C   0  0  0  0  0  2  0  0  0  0  0  0
  189.0340  177.4580  135.1260 C   0  0  0  0  0  2  0  0  0  0  0  0
  188.9320  176.2330  137.8100 C   0  0  0  0  0  0  0  0  0  0  0  0
  191.5330  176.8360  139.1950 N   0  0  0  0  0  0  0  0  0  0  0  0
  188.4390  176.1640  134.5940 C   0  0  0  0  0  2  0  0  0  0  0  0
  188.5580  176.6760  138.9660 N   0  0  0  0  0  0  0  0  0  0  0  0
  190.1670  176.7280  137.1800 C   0  0  0  0  0  0  0  0  0  0  0  0
  190.5990  177.5210  140.1000 C   0  0  2  0  0  3  0  0  0  0  0  0
  191.4220  176.5580  137.9270 C   0  0  0  0  0  0  0  0  0  0  0  0
  190.4380  176.7980  141.4140 C   0  0  0  0  0  2  0  0  0  0  0  0
  189.1850  177.8110  139.6340 C   0  0  2  0  0  3  0  0  0  0  0  0
  185.2440  174.0120  137.3770 C   0  0  0  0  0  1  0  0  0  0  0  0
  185.7550  175.2740  136.9740 O   0  0  0  0  0  0  0  0  0  0  0  0
  189.3670  178.0040  143.1250 C   0  0  0  0  0  2  0  0  0  0  0  0
  186.7460  177.5390  145.5380 C   0  0  0  0  0  3  0  0  0  0  0  0
  189.0570  177.2380  144.3630 C   0  0  0  0  0  3  0  0  0  0  0  0
  187.9040  177.3880  144.9500 C   0  0  0  0  0  0  0  0  0  0  0  0
  185.6750  178.4040  143.4790 C   0  0  0  0  0  1  0  0  0  0  0  0
  185.6580  178.2400  144.9190 N   0  0  0  0  0  0  0  0  0  0  0  0
  183.3250  178.9320  144.7100 C   0  0  0  0  0  1  0  0  0  0  0  0
  184.4870  178.6950  145.6580 C   0  0  0  0  0  2  0  0  0  0  0  0
  192.6100  175.9870  137.2200 C   0  0  0  0  0  2  0  0  0  0  0  0
  192.8620  174.5430  137.6380 C   0  0  0  0  0  2  0  0  0  0  0  0
  194.9530  175.3450  138.4430 O   0  0  0  0  0  0  0  0  0  0  0  0
  194.2820  174.3470  138.0720 C   0  0  0  0  0  0  0  0  0  0  0  0
  194.8720  173.0810  138.0970 O   0  0  0  0  0  0  0  0  0  0  0  0
  196.2070  172.8560  137.6720 C   0  0  0  0  0  1  0  0  0  0  0  0
  1 18  1  0  0  0  0
  1  2  1  0  0  0  0
  2  8  1  0  0  0  0
  3 19  1  0  0  0  0
  4  1  2  0  0  0  0
  5 12  2  0  0  0  0
  6  3  1  0  0  0  0
  7  5  1  0  0  0  0
  8 11  2  0  0  0  0
  9 13  1  0  0  0  0
 10  7  1  0  0  0  0
 10  4  1  0  0  0  0
 11 16  1  0  0  0  0
 12  8  1  0  0  0  0
 12 14  1  0  0  0  0
 13 15  1  1  0  0  0
 14  9  2  0  0  0  0
 15  3  1  0  0  0  0
 16 13  1  0  0  0  0
 16  6  1  1  0  0  0
 18 17  1  0  0  0  0
 19 21  1  0  0  0  0
 21 22  2  0  0  0  0
 22 20  2  0  0  0  0
 23 24  1  0  0  0  0
 24 20  1  0  0  0  0
 24 26  1  0  0  0  0
 25 26  1  0  0  0  0
 27 28  1  0  0  0  0
 27 14  1  0  0  0  0
 28 30  1  0  0  0  0
 30 31  1  0  0  0  0
 30 29  2  0  0  0  0
 32 31  1  0  0  0  0
M  END
>  <MODEL>
5

>  <REMARK>
 VINA RESULT:      -6.4      4.173      6.146
  Name = 
  9 active torsions:
  status: ('A' for Active; 'I' for Inactive)
    1  A    between atoms: C_3  and  O_15
    2  A    between atoms: C_5  and  N_28
    3  A    between atoms: N_6  and  C_13
    4  A    between atoms: C_9  and  N_28
    5  A    between atoms: C_13  and  C_17
    6  A    between atoms: C_14  and  C_25
    7  A    between atoms: C_14  and  C_31
    8  A    between atoms: O_18  and  C_31
    9  A    between atoms: C_25  and  C_29
                            x       y       z     vdW  Elec       q    Type
                         _______ _______ _______ _____ _____    ______ ____

>  <TORSDO>
F 9

$$$$
=
 OpenBabel10222416313D

 32 34  0  0  1  0  0  0  0  0999 V2000
  181.0100  178.4540  140.8740 C   0  0  0  0  0  0  0  0  0  0  0  0
  182.2840  177.7100  140.5890 C   0  0  0  0  0  2  0  0  0  0  0  0
  186.3240  177.9730  143.9370 N   0  0  0  0  0  0  0  0  0  0  0  0
  180.5400  179.3190  140.0270 N   0  0  0  0  0  0  0  0  0  0  0  0
  183.6390  180.0210  138.8750 N   0  0  0  0  0  0  0  0  0  0  0  0
  185.4870  179.1680  143.8110 C   0  0  0  0  0  2  0  0  0  0  0  0
  182.3360  180.6490  139.0680 C   0  0  0  0  0  2  0  0  0  0  0  0
  183.4790  178.5710  140.8270 C   0  0  0  0  0  0  0  0  0  0  0  0
  186.4350  178.4380  140.2930 N   0  0  0  0  0  0  0  0  0  0  0  0
  181.2030  179.6760  138.7800 C   0  0  0  0  0  2  0  0  0  0  0  0
  183.9980  178.6090  142.0120 N   0  0  0  0  0  0  0  0  0  0  0  0
  184.1890  179.1550  139.6780 C   0  0  0  0  0  0  0  0  0  0  0  0
  186.4520  178.8340  141.7080 C   0  0  2  0  0  3  0  0  0  0  0  0
  185.5300  178.6330  139.3760 C   0  0  0  0  0  0  0  0  0  0  0  0
  186.8910  177.7110  142.6140 C   0  0  0  0  0  2  0  0  0  0  0  0
  185.1890  179.3820  142.3440 C   0  0  2  0  0  3  0  0  0  0  0  0
  180.6000  178.9140  143.2660 C   0  0  0  0  0  1  0  0  0  0  0  0
  180.3040  178.2270  142.0580 O   0  0  0  0  0  0  0  0  0  0  0  0
  187.4240  178.3220  144.8220 C   0  0  0  0  0  2  0  0  0  0  0  0
  189.3060  176.5910  147.3450 C   0  0  0  0  0  3  0  0  0  0  0  0
  187.2480  177.6480  146.1360 C   0  0  0  0  0  3  0  0  0  0  0  0
  188.2750  177.1200  146.7400 C   0  0  0  0  0  0  0  0  0  0  0  0
  191.7370  176.2830  147.7060 C   0  0  0  0  0  1  0  0  0  0  0  0
  190.6520  176.8280  146.9130 N   0  0  0  0  0  0  0  0  0  0  0  0
  191.4130  176.4750  144.6180 C   0  0  0  0  0  1  0  0  0  0  0  0
  190.9750  177.4930  145.6560 C   0  0  0  0  0  2  0  0  0  0  0  0
  185.8550  178.2520  137.9670 C   0  0  0  0  0  2  0  0  0  0  0  0
  187.2400  177.6240  137.8680 C   0  0  0  0  0  2  0  0  0  0  0  0
  188.6150  179.4720  137.2690 O   0  0  0  0  0  0  0  0  0  0  0  0
  188.1070  178.3780  136.9080 C   0  0  0  0  0  0  0  0  0  0  0  0
  188.3860  177.8860  135.6300 O   0  0  0  0  0  0  0  0  0  0  0  0
  187.3720  177.3990  134.7650 C   0  0  0  0  0  1  0  0  0  0  0  0
  1 18  1  0  0  0  0
  2  8  1  0  0  0  0
  2  1  1  0  0  0  0
  3 19  1  0  0  0  0
  4  1  2  0  0  0  0
  5  7  1  0  0  0  0
  5 12  2  0  0  0  0
  6  3  1  0  0  0  0
  8 11  2  0  0  0  0
  9 13  1  0  0  0  0
 10  7  1  0  0  0  0
 10  4  1  0  0  0  0
 11 16  1  0  0  0  0
 12  8  1  0  0  0  0
 13 16  1  0  0  0  0
 13 15  1  1  0  0  0
 14 12  1  0  0  0  0
 14  9  2  0  0  0  0
 15  3  1  0  0  0  0
 16  6  1  1  0  0  0
 18 17  1  0  0  0  0
 19 21  1  0  0  0  0
 21 22  2  0  0  0  0
 22 20  2  0  0  0  0
 24 20  1  0  0  0  0
 24 23  1  0  0  0  0
 25 26  1  0  0  0  0
 26 24  1  0  0  0  0
 27 14  1  0  0  0  0
 28 27  1  0  0  0  0
 30 29  2  0  0  0  0
 30 28  1  0  0  0  0
 31 30  1  0  0  0  0
 32 31  1  0  0  0  0
M  END
>  <MODEL>
6

>  <REMARK>
 VINA RESULT:      -6.4      2.145      2.921
  Name = 
  9 active torsions:
  status: ('A' for Active; 'I' for Inactive)
    1  A    between atoms: C_3  and  O_15
    2  A    between atoms: C_5  and  N_28
    3  A    between atoms: N_6  and  C_13
    4  A    between atoms: C_9  and  N_28
    5  A    between atoms: C_13  and  C_17
    6  A    between atoms: C_14  and  C_25
    7  A    between atoms: C_14  and  C_31
    8  A    between atoms: O_18  and  C_31
    9  A    between atoms: C_25  and  C_29
                            x       y       z     vdW  Elec       q    Type
                         _______ _______ _______ _____ _____    ______ ____

>  <TORSDO>
F 9

$$$$
=
 OpenBabel10222416313D

 32 34  0  0  1  0  0  0  0  0999 V2000
  186.2390  179.0210  141.7230 C   0  0  0  0  0  0  0  0  0  0  0  0
  187.6860  179.3330  141.9840 C   0  0  0  0  0  2  0  0  0  0  0  0
  191.4410  177.2560  138.9530 N   0  0  0  0  0  0  0  0  0  0  0  0
  185.4940  178.4940  142.6480 N   0  0  0  0  0  0  0  0  0  0  0  0
  188.1600  176.9790  144.0700 N   0  0  0  0  0  0  0  0  0  0  0  0
  190.2480  176.4400  139.1850 C   0  0  0  0  0  2  0  0  0  0  0  0
  186.7240  176.7990  143.8830 C   0  0  0  0  0  2  0  0  0  0  0  0
  188.5220  178.0980  141.9350 C   0  0  0  0  0  0  0  0  0  0  0  0
  191.3430  177.3190  142.6270 N   0  0  0  0  0  0  0  0  0  0  0  0
  185.9830  178.1230  143.9700 C   0  0  0  0  0  2  0  0  0  0  0  0
  189.0130  177.7170  140.8000 N   0  0  0  0  0  0  0  0  0  0  0  0
  188.9800  177.4860  143.1930 C   0  0  0  0  0  0  0  0  0  0  0  0
  191.2430  176.7370  141.2800 C   0  0  2  0  0  3  0  0  0  0  0  0
  190.4140  177.5710  143.5040 C   0  0  0  0  0  0  0  0  0  0  0  0
  192.0470  177.5050  140.2620 C   0  0  0  0  0  2  0  0  0  0  0  0
  189.8770  176.5530  140.6470 C   0  0  2  0  0  3  0  0  0  0  0  0
  184.4940  178.6360  140.0180 C   0  0  0  0  0  1  0  0  0  0  0  0
  185.6660  179.2940  140.4790 O   0  0  0  0  0  0  0  0  0  0  0  0
  192.3700  176.4370  138.1910 C   0  0  0  0  0  2  0  0  0  0  0  0
  192.9800  173.2380  136.6750 C   0  0  0  0  0  3  0  0  0  0  0  0
  191.6460  175.2940  137.5730 C   0  0  0  0  0  3  0  0  0  0  0  0
  192.3110  174.2670  137.1240 C   0  0  0  0  0  0  0  0  0  0  0  0
  194.9370  171.7230  136.7800 C   0  0  0  0  0  1  0  0  0  0  0  0
  194.3730  173.0480  136.9550 N   0  0  0  0  0  0  0  0  0  0  0  0
  195.7540  174.0020  138.7290 C   0  0  0  0  0  1  0  0  0  0  0  0
  195.2690  174.1460  137.2980 C   0  0  0  0  0  2  0  0  0  0  0  0
  190.8310  178.0240  144.8670 C   0  0  0  0  0  2  0  0  0  0  0  0
  191.6500  176.9540  145.5800 C   0  0  0  0  0  2  0  0  0  0  0  0
  192.0510  176.7430  147.9150 O   0  0  0  0  0  0  0  0  0  0  0  0
  191.1940  176.7770  146.9940 C   0  0  0  0  0  0  0  0  0  0  0  0
  189.8390  176.6740  147.3200 O   0  0  0  0  0  0  0  0  0  0  0  0
  189.0900  177.7730  147.8150 C   0  0  0  0  0  1  0  0  0  0  0  0
  1  2  1  0  0  0  0
  1  4  2  0  0  0  0
  3  6  1  0  0  0  0
  3 15  1  0  0  0  0
  4 10  1  0  0  0  0
  7 10  1  0  0  0  0
  7  5  1  0  0  0  0
  8  2  1  0  0  0  0
  8 12  1  0  0  0  0
  9 14  2  0  0  0  0
 11  8  2  0  0  0  0
 12 14  1  0  0  0  0
 12  5  2  0  0  0  0
 13 15  1  6  0  0  0
 13  9  1  0  0  0  0
 14 27  1  0  0  0  0
 16  6  1  6  0  0  0
 16 11  1  0  0  0  0
 16 13  1  0  0  0  0
 17 18  1  0  0  0  0
 18  1  1  0  0  0  0
 19  3  1  0  0  0  0
 20 24  1  0  0  0  0
 20 22  2  0  0  0  0
 21 19  1  0  0  0  0
 22 21  2  0  0  0  0
 23 24  1  0  0  0  0
 24 26  1  0  0  0  0
 26 25  1  0  0  0  0
 27 28  1  0  0  0  0
 28 30  1  0  0  0  0
 30 31  1  0  0  0  0
 30 29  2  0  0  0  0
 31 32  1  0  0  0  0
M  END
>  <MODEL>
7

>  <REMARK>
 VINA RESULT:      -6.3      4.945      8.823
  Name = 
  9 active torsions:
  status: ('A' for Active; 'I' for Inactive)
    1  A    between atoms: C_3  and  O_15
    2  A    between atoms: C_5  and  N_28
    3  A    between atoms: N_6  and  C_13
    4  A    between atoms: C_9  and  N_28
    5  A    between atoms: C_13  and  C_17
    6  A    between atoms: C_14  and  C_25
    7  A    between atoms: C_14  and  C_31
    8  A    between atoms: O_18  and  C_31
    9  A    between atoms: C_25  and  C_29
                            x       y       z     vdW  Elec       q    Type
                         _______ _______ _______ _____ _____    ______ ____

>  <TORSDO>
F 9

$$$$
=
 OpenBabel10222416313D

 32 34  0  0  1  0  0  0  0  0999 V2000
  192.5630  175.4650  137.6340 C   0  0  0  0  0  0  0  0  0  0  0  0
  191.8150  176.7430  137.8900 C   0  0  0  0  0  2  0  0  0  0  0  0
  190.4990  178.1190  142.7870 N   0  0  0  0  0  0  0  0  0  0  0  0
  192.0800  174.5590  136.8380 N   0  0  0  0  0  0  0  0  0  0  0  0
  188.9080  175.5040  137.5280 N   0  0  0  0  0  0  0  0  0  0  0  0
  190.5150  176.6870  142.4810 C   0  0  0  0  0  2  0  0  0  0  0  0
  189.6810  174.3220  137.1580 C   0  0  0  0  0  2  0  0  0  0  0  0
  190.6860  176.5280  138.8420 C   0  0  0  0  0  0  0  0  0  0  0  0
  188.3120  178.0850  139.8330 N   0  0  0  0  0  0  0  0  0  0  0  0
  190.7870  174.6680  136.1740 C   0  0  0  0  0  2  0  0  0  0  0  0
  190.9090  176.6350  140.1130 N   0  0  0  0  0  0  0  0  0  0  0  0
  189.3110  176.4520  138.3260 C   0  0  0  0  0  0  0  0  0  0  0  0
  188.8620  177.6200  141.1150 C   0  0  2  0  0  3  0  0  0  0  0  0
  188.4070  177.5680  138.6410 C   0  0  0  0  0  0  0  0  0  0  0  0
  189.5120  178.7320  141.8980 C   0  0  0  0  0  2  0  0  0  0  0  0
  189.8710  176.4880  141.1270 C   0  0  2  0  0  3  0  0  0  0  0  0
  194.5650  174.0620  137.9860 C   0  0  0  0  0  1  0  0  0  0  0  0
  193.7950  175.2270  138.2470 O   0  0  0  0  0  0  0  0  0  0  0  0
  190.0040  178.2530  144.1470 C   0  0  0  0  0  2  0  0  0  0  0  0
  186.6670  177.1240  144.8520 C   0  0  0  0  0  3  0  0  0  0  0  0
  189.2570  177.0260  144.5360 C   0  0  0  0  0  3  0  0  0  0  0  0
  187.9640  177.0740  144.6940 C   0  0  0  0  0  0  0  0  0  0  0  0
  185.7290  178.5080  143.0250 C   0  0  0  0  0  1  0  0  0  0  0  0
  185.8890  178.2560  144.4440 N   0  0  0  0  0  0  0  0  0  0  0  0
  185.3160  178.5630  146.7990 C   0  0  0  0  0  1  0  0  0  0  0  0
  185.1610  179.0980  145.3860 C   0  0  0  0  0  2  0  0  0  0  0  0
  187.6040  178.1800  137.5380 C   0  0  0  0  0  2  0  0  0  0  0  0
  186.3730  177.3400  137.2170 C   0  0  0  0  0  2  0  0  0  0  0  0
  184.1470  177.0980  138.0190 O   0  0  0  0  0  0  0  0  0  0  0  0
  185.1800  177.8160  137.9840 C   0  0  0  0  0  0  0  0  0  0  0  0
  185.1920  179.0270  138.6820 O   0  0  0  0  0  0  0  0  0  0  0  0
  184.1760  179.3820  139.6070 C   0  0  0  0  0  1  0  0  0  0  0  0
  1  2  1  0  0  0  0
  1 18  1  0  0  0  0
  2  8  1  0  0  0  0
  3 19  1  0  0  0  0
  4  1  2  0  0  0  0
  5 12  2  0  0  0  0
  6  3  1  0  0  0  0
  7  5  1  0  0  0  0
  8 11  2  0  0  0  0
  9 13  1  0  0  0  0
 10  4  1  0  0  0  0
 10  7  1  0  0  0  0
 11 16  1  0  0  0  0
 12 14  1  0  0  0  0
 12  8  1  0  0  0  0
 13 16  1  0  0  0  0
 13 15  1  6  0  0  0
 14  9  2  0  0  0  0
 15  3  1  0  0  0  0
 16  6  1  1  0  0  0
 17 18  1  0  0  0  0
 19 21  1  0  0  0  0
 21 22  2  0  0  0  0
 22 20  2  0  0  0  0
 23 24  1  0  0  0  0
 24 20  1  0  0  0  0
 24 26  1  0  0  0  0
 26 25  1  0  0  0  0
 27 14  1  0  0  0  0
 28 27  1  0  0  0  0
 28 30  1  0  0  0  0
 30 29  2  0  0  0  0
 30 31  1  0  0  0  0
 31 32  1  0  0  0  0
M  END
>  <MODEL>
8

>  <REMARK>
 VINA RESULT:      -6.3      3.549      6.945
  Name = 
  9 active torsions:
  status: ('A' for Active; 'I' for Inactive)
    1  A    between atoms: C_3  and  O_15
    2  A    between atoms: C_5  and  N_28
    3  A    between atoms: N_6  and  C_13
    4  A    between atoms: C_9  and  N_28
    5  A    between atoms: C_13  and  C_17
    6  A    between atoms: C_14  and  C_25
    7  A    between atoms: C_14  and  C_31
    8  A    between atoms: O_18  and  C_31
    9  A    between atoms: C_25  and  C_29
                            x       y       z     vdW  Elec       q    Type
                         _______ _______ _______ _____ _____    ______ ____

>  <TORSDO>
F 9

$$$$
=
 OpenBabel10222416313D

 32 34  0  0  1  0  0  0  0  0999 V2000
  180.3710  178.0880  141.0510 C   0  0  0  0  0  0  0  0  0  0  0  0
  181.7000  177.5250  140.6350 C   0  0  0  0  0  2  0  0  0  0  0  0
  185.8520  177.8650  143.8370 N   0  0  0  0  0  0  0  0  0  0  0  0
  179.7700  178.9840  140.3280 N   0  0  0  0  0  0  0  0  0  0  0  0
  182.7170  180.1460  139.1470 N   0  0  0  0  0  0  0  0  0  0  0  0
  184.8880  178.9660  143.8800 C   0  0  0  0  0  2  0  0  0  0  0  0
  181.3660  180.6010  139.4600 C   0  0  0  0  0  2  0  0  0  0  0  0
  182.8080  178.4820  140.9250 C   0  0  0  0  0  0  0  0  0  0  0  0
  185.7310  178.7360  140.2680 N   0  0  0  0  0  0  0  0  0  0  0  0
  180.3290  179.5470  139.1050 C   0  0  0  0  0  2  0  0  0  0  0  0
  183.3780  178.4470  142.0860 N   0  0  0  0  0  0  0  0  0  0  0  0
  183.3940  179.2640  139.8250 C   0  0  0  0  0  0  0  0  0  0  0  0
  185.7770  178.9740  141.7180 C   0  0  2  0  0  3  0  0  0  0  0  0
  184.7660  178.9290  139.4150 C   0  0  0  0  0  0  0  0  0  0  0  0
  186.3770  177.8140  142.4710 C   0  0  0  0  0  2  0  0  0  0  0  0
  184.4960  179.3060  142.4600 C   0  0  2  0  0  3  0  0  0  0  0  0
  180.0000  178.2640  143.4870 C   0  0  0  0  0  1  0  0  0  0  0  0
  179.7530  177.6550  142.2270 O   0  0  0  0  0  0  0  0  0  0  0  0
  186.9520  178.2330  144.7130 C   0  0  0  0  0  2  0  0  0  0  0  0
  190.2840  177.1850  145.5540 C   0  0  0  0  0  3  0  0  0  0  0  0
  188.2480  177.8790  144.0740 C   0  0  0  0  0  3  0  0  0  0  0  0
  189.2650  177.5320  144.8120 C   0  0  0  0  0  0  0  0  0  0  0  0
  191.3580  176.7030  147.7330 C   0  0  0  0  0  1  0  0  0  0  0  0
  190.1520  176.9030  146.9530 N   0  0  0  0  0  0  0  0  0  0  0  0
  188.7070  178.2140  148.4230 C   0  0  0  0  0  1  0  0  0  0  0  0
  188.8700  176.9190  147.6470 C   0  0  0  0  0  2  0  0  0  0  0  0
  185.0590  178.7440  137.9590 C   0  0  0  0  0  2  0  0  0  0  0  0
  185.6920  177.3840  137.6900 C   0  0  0  0  0  2  0  0  0  0  0  0
  183.5130  176.8040  136.9320 O   0  0  0  0  0  0  0  0  0  0  0  0
  184.6720  176.3990  137.2110 C   0  0  0  0  0  0  0  0  0  0  0  0
  184.9810  175.0470  137.0440 O   0  0  0  0  0  0  0  0  0  0  0  0
  184.2560  174.0150  137.6960 C   0  0  0  0  0  1  0  0  0  0  0  0
  1 18  1  0  0  0  0
  2  8  1  0  0  0  0
  2  1  1  0  0  0  0
  3  6  1  0  0  0  0
  3 19  1  0  0  0  0
  4  1  2  0  0  0  0
  5  7  1  0  0  0  0
  5 12  2  0  0  0  0
  8 11  2  0  0  0  0
  9 13  1  0  0  0  0
 10  7  1  0  0  0  0
 10  4  1  0  0  0  0
 11 16  1  0  0  0  0
 12  8  1  0  0  0  0
 13 16  1  0  0  0  0
 13 15  1  1  0  0  0
 14 12  1  0  0  0  0
 14  9  2  0  0  0  0
 15  3  1  0  0  0  0
 16  6  1  1  0  0  0
 18 17  1  0  0  0  0
 20 24  1  0  0  0  0
 21 19  1  0  0  0  0
 21 22  2  0  0  0  0
 22 20  2  0  0  0  0
 24 26  1  0  0  0  0
 24 23  1  0  0  0  0
 26 25  1  0  0  0  0
 27 14  1  0  0  0  0
 28 27  1  0  0  0  0
 29 30  2  0  0  0  0
 30 28  1  0  0  0  0
 31 30  1  0  0  0  0
 31 32  1  0  0  0  0
M  END
>  <MODEL>
9

>  <REMARK>
 VINA RESULT:      -6.1      2.537      3.421
  Name = 
  9 active torsions:
  status: ('A' for Active; 'I' for Inactive)
    1  A    between atoms: C_3  and  O_15
    2  A    between atoms: C_5  and  N_28
    3  A    between atoms: N_6  and  C_13
    4  A    between atoms: C_9  and  N_28
    5  A    between atoms: C_13  and  C_17
    6  A    between atoms: C_14  and  C_25
    7  A    between atoms: C_14  and  C_31
    8  A    between atoms: O_18  and  C_31
    9  A    between atoms: C_25  and  C_29
                            x       y       z     vdW  Elec       q    Type
                         _______ _______ _______ _____ _____    ______ ____

>  <TORSDO>
F 9

$$$$
