=
 OpenBabel10222419503D

 50 55  0  0  1  0  0  0  0  0999 V2000
  185.4190  178.4480  139.3140 C   0  0  1  0  0  3  0  0  0  0  0  0
  181.7430  178.3510  141.2350 F   0  0  0  0  0  0  0  0  0  0  0  0
  185.2620  178.4720  141.9110 C   0  0  0  0  0  0  0  0  0  0  0  0
  183.2690  179.4060  139.8650 N   0  0  0  0  0  0  0  0  0  0  0  0
  183.0460  178.3150  140.7840 C   0  0  1  0  0  3  0  0  0  0  0  0
  186.1080  178.6230  140.6650 C   0  0  0  0  0  2  0  0  0  0  0  0
  183.9580  178.3870  141.9240 N   0  0  0  0  0  0  0  0  0  0  0  0
  184.3440  179.4760  139.1640 C   0  0  0  0  0  3  0  0  0  0  0  0
  186.3710  178.6020  138.2650 O   0  0  0  0  0  0  0  0  0  0  0  0
  188.7180  178.1640  138.8000 C   0  0  0  0  0  3  0  0  0  0  0  0
  187.5190  177.8080  138.1470 C   0  0  0  0  0  0  0  0  0  0  0  0
  188.6150  175.8240  137.2300 C   0  0  0  0  0  3  0  0  0  0  0  0
  187.4650  176.6300  137.3650 C   0  0  0  0  0  0  0  0  0  0  0  0
  189.7790  176.2130  137.8880 C   0  0  0  0  0  0  0  0  0  0  0  0
  189.8300  177.3390  138.6470 C   0  0  0  0  0  0  0  0  0  0  0  0
  190.9900  175.5610  137.8760 O   0  0  0  0  0  0  0  0  0  0  0  0
  191.9360  176.2700  138.6750 C   0  0  0  0  0  3  0  0  0  0  0  0
  191.1850  177.5010  139.2260 C   0  0  0  0  0  3  0  0  0  0  0  0
  185.5150  175.0490  136.8290 C   0  0  0  0  0  0  0  0  0  0  0  0
  186.2310  176.2850  136.7150 N   0  0  0  0  0  2  0  0  0  0  0  0
  185.9220  174.1320  137.5920 O   0  0  0  0  0  0  0  0  0  0  0  0
  184.2180  174.9000  136.0910 C   0  0  1  0  0  3  0  0  0  0  0  0
  183.3220  170.9350  135.3050 C   0  0  0  0  0  1  0  0  0  0  0  0
  183.6340  172.3330  135.5810 C   0  0  0  0  0  0  0  0  0  0  0  0
  183.8930  173.4880  135.8110 C   0  0  0  0  0  0  0  0  0  0  0  0
  183.0940  175.6490  138.2650 C   0  0  0  0  0  2  0  0  0  0  0  0
  183.0820  175.7150  136.7480 C   0  0  0  0  0  0  0  0  0  0  0  0
  181.9640  174.9950  137.4920 C   0  0  0  0  0  2  0  0  0  0  0  0
  181.8360  177.1570  135.0910 C   0  0  1  0  0  3  0  0  0  0  0  0
  181.2240  178.4070  135.0250 O   0  0  0  0  0  1  0  0  0  0  0  0
  183.3160  177.3170  134.8370 C   0  0  0  0  0  2  0  0  0  0  0  0
  182.8110  177.1430  136.2580 C   0  0  2  0  0  3  0  0  0  0  0  0
  185.9600  178.4600  143.1190 O   0  0  0  0  0  0  0  0  0  0  0  0
  186.8570  177.4180  143.4820 C   0  0  0  0  0  2  0  0  0  0  0  0
  190.6500  178.3300  143.2980 C   0  0  0  0  0  2  0  0  0  0  0  0
  190.9570  177.0570  145.5030 C   0  0  0  0  0  0  0  0  0  0  0  0
  191.7250  176.5040  146.5210 O   0  0  0  0  0  1  0  0  0  0  0  0
  189.6840  177.2430  145.6500 C   0  0  0  0  0  0  0  0  0  0  0  0
  188.1560  178.0210  143.9860 C   0  0  1  0  0  3  0  0  0  0  0  0
  188.4510  177.5520  145.4020 C   0  0  0  0  0  0  0  0  0  0  0  0
  189.2790  177.7090  142.9560 C   0  0  0  0  0  2  0  0  0  0  0  0
  191.5500  177.4120  144.1660 C   0  0  0  0  0  2  0  0  0  0  0  0
  187.5010  177.7600  146.5440 C   0  0  1  0  0  3  0  0  0  0  0  0
  188.1890  177.6190  147.8670 C   0  0  0  0  0  0  0  0  0  0  0  0
  188.3000  176.3690  148.4540 O   0  0  0  0  0  1  0  0  0  0  0  0
  188.7010  178.6190  148.4320 O   0  0  0  0  0  0  0  0  0  0  0  0
  186.8690  179.0030  146.4460 O   0  0  0  0  0  0  0  0  0  0  0  0
  185.6680  178.8550  147.1420 C   0  0  0  0  0  2  0  0  0  0  0  0
  183.8510  179.0030  145.4780 C   0  0  0  0  0  1  0  0  0  0  0  0
  184.6980  178.0580  146.3010 C   0  0  0  0  0  2  0  0  0  0  0  0
  1  9  1  6  0  0  0
  1  6  1  0  0  0  0
  3  7  2  0  0  0  0
  3 33  1  0  0  0  0
  4  5  1  0  0  0  0
  5  2  1  1  0  0  0
  5  7  1  0  0  0  0
  6  3  1  0  0  0  0
  8  1  1  0  0  0  0
  8  4  2  0  0  0  0
 11  9  1  0  0  0  0
 11 10  2  0  0  0  0
 12 13  2  0  0  0  0
 12 14  1  0  0  0  0
 13 11  1  0  0  0  0
 14 15  2  0  0  0  0
 15 10  1  0  0  0  0
 15 18  1  0  0  0  0
 16 14  1  0  0  0  0
 16 17  1  0  0  0  0
 17 18  2  0  0  0  0
 19 21  2  0  0  0  0
 20 19  1  0  0  0  0
 20 13  1  0  0  0  0
 22 25  1  1  0  0  0
 22 27  1  0  0  0  0
 22 19  1  0  0  0  0
 23 24  1  0  0  0  0
 24 25  3  0  0  0  0
 27 28  1  0  0  0  0
 27 26  1  0  0  0  0
 28 26  1  0  0  0  0
 29 30  1  1  0  0  0
 29 32  1  0  0  0  0
 31 29  1  0  0  0  0
 32 31  1  6  0  0  0
 32 27  1  0  0  0  0
 33 34  1  0  0  0  0
 35 42  1  0  0  0  0
 36 38  2  0  0  0  0
 36 37  1  0  0  0  0
 39 34  1  6  0  0  0
 39 40  1  0  0  0  0
 40 38  2  0  0  0  0
 40 43  1  0  0  0  0
 41 35  1  0  0  0  0
 41 39  1  0  0  0  0
 42 36  1  0  0  0  0
 43 47  1  6  0  0  0
 43 44  1  0  0  0  0
 44 46  2  0  0  0  0
 44 45  1  0  0  0  0
 47 48  1  0  0  0  0
 49 50  1  0  0  0  0
 50 48  1  0  0  0  0
M  END
>  <MODEL>
1

>  <REMARK>
 VINA RESULT:      -7.8      0.000      0.000
  Name = 
  15 active torsions:
  status: ('A' for Active; 'I' for Inactive)
    1  A    between atoms: C_3  and  C_16
    2  A    between atoms: C_3  and  C_20
    3  A    between atoms: C_3  and  C_46
    4  A    between atoms: C_5  and  O_23
    5  A    between atoms: C_8  and  C_13
    6  A    between atoms: C_8  and  O_25
    7  A    between atoms: C_8  and  C_30
    8  A    between atoms: C_11  and  O_23
    9  A    between atoms: C_20  and  C_38
   10  A    between atoms: C_21  and  O_25
   11  A    between atoms: C_21  and  C_41
   12  A    between atoms: C_22  and  O_33
   13  A    between atoms: C_24  and  N_36
   14  A    between atoms: C_26  and  C_44
   15  A    between atoms: O_33  and  C_44
                            x       y       z     vdW  Elec       q    Type
                         _______ _______ _______ _____ _____    ______ ____

>  <TORSDO>
F 15

$$$$
=
 OpenBabel10222419503D

 50 55  0  0  1  0  0  0  0  0999 V2000
  187.8540  177.7220  137.8940 C   0  0  1  0  0  3  0  0  0  0  0  0
  191.7520  176.7100  138.8940 F   0  0  0  0  0  0  0  0  0  0  0  0
  188.7760  178.1450  140.2900 C   0  0  0  0  0  0  0  0  0  0  0  0
  189.6210  176.1100  138.2460 N   0  0  0  0  0  0  0  0  0  0  0  0
  190.4630  177.1770  138.7330 C   0  0  1  0  0  3  0  0  0  0  0  0
  187.5920  178.1050  139.3480 C   0  0  0  0  0  2  0  0  0  0  0  0
  189.9730  177.7010  140.0060 N   0  0  0  0  0  0  0  0  0  0  0  0
  188.4250  176.3410  137.8360 C   0  0  0  0  0  3  0  0  0  0  0  0
  186.6340  177.7600  137.1590 O   0  0  0  0  0  0  0  0  0  0  0  0
  186.4660  175.6800  135.8800 C   0  0  0  0  0  3  0  0  0  0  0  0
  185.9230  176.6090  136.7920 C   0  0  0  0  0  0  0  0  0  0  0  0
  183.9130  175.2310  136.9890 C   0  0  0  0  0  3  0  0  0  0  0  0
  184.6440  176.3800  137.3550 C   0  0  0  0  0  0  0  0  0  0  0  0
  184.4840  174.3410  136.0830 C   0  0  0  0  0  0  0  0  0  0  0  0
  185.7150  174.5550  135.5490 C   0  0  0  0  0  0  0  0  0  0  0  0
  183.9290  173.1750  135.6100 O   0  0  0  0  0  0  0  0  0  0  0  0
  184.8240  172.5380  134.7010 C   0  0  0  0  0  3  0  0  0  0  0  0
  186.0670  173.4500  134.6250 C   0  0  0  0  0  3  0  0  0  0  0  0
  183.0640  178.2810  138.0460 C   0  0  0  0  0  0  0  0  0  0  0  0
  184.1150  177.3370  138.2860 N   0  0  0  0  0  2  0  0  0  0  0  0
  182.4610  178.3110  136.9390 O   0  0  0  0  0  0  0  0  0  0  0  0
  182.6320  179.1760  139.1690 C   0  0  1  0  0  3  0  0  0  0  0  0
  180.7420  182.6000  137.8120 C   0  0  0  0  0  1  0  0  0  0  0  0
  181.4120  181.3960  138.2890 C   0  0  0  0  0  0  0  0  0  0  0  0
  181.9640  180.3990  138.6850 C   0  0  0  0  0  0  0  0  0  0  0  0
  181.1160  179.3030  141.2280 C   0  0  0  0  0  2  0  0  0  0  0  0
  181.8640  178.4000  140.2630 C   0  0  0  0  0  0  0  0  0  0  0  0
  182.3090  178.5010  141.7170 C   0  0  0  0  0  2  0  0  0  0  0  0
  179.7670  177.6220  139.0910 C   0  0  1  0  0  3  0  0  0  0  0  0
  179.3220  176.5550  138.3120 O   0  0  0  0  0  1  0  0  0  0  0  0
  179.6590  177.2470  140.5500 C   0  0  0  0  0  2  0  0  0  0  0  0
  181.0090  177.1930  139.8570 C   0  0  2  0  0  3  0  0  0  0  0  0
  188.5260  178.6710  141.5570 O   0  0  0  0  0  0  0  0  0  0  0  0
  189.0370  178.0900  142.7500 C   0  0  0  0  0  2  0  0  0  0  0  0
  185.2800  177.6510  143.7240 C   0  0  0  0  0  2  0  0  0  0  0  0
  185.8240  178.8300  145.9360 C   0  0  0  0  0  0  0  0  0  0  0  0
  185.4790  179.4150  147.1480 O   0  0  0  0  0  1  0  0  0  0  0  0
  187.0450  178.4850  145.6830 C   0  0  0  0  0  0  0  0  0  0  0  0
  187.8840  177.6210  143.6190 C   0  0  1  0  0  3  0  0  0  0  0  0
  188.0940  178.0440  145.0640 C   0  0  0  0  0  0  0  0  0  0  0  0
  186.5530  178.1210  142.9880 C   0  0  0  0  0  2  0  0  0  0  0  0
  184.8130  178.6220  144.8410 C   0  0  0  0  0  2  0  0  0  0  0  0
  189.3090  177.6610  145.8570 C   0  0  1  0  0  3  0  0  0  0  0  0
  188.9800  177.4450  147.3010 C   0  0  0  0  0  0  0  0  0  0  0  0
  189.0190  178.5140  148.1830 O   0  0  0  0  0  1  0  0  0  0  0  0
  188.6320  176.3100  147.7160 O   0  0  0  0  0  0  0  0  0  0  0  0
  189.9210  176.5280  145.3140 O   0  0  0  0  0  0  0  0  0  0  0  0
  191.2910  176.7860  145.3860 C   0  0  0  0  0  2  0  0  0  0  0  0
  192.2220  175.8320  147.4630 C   0  0  0  0  0  1  0  0  0  0  0  0
  191.9930  175.5910  145.9880 C   0  0  0  0  0  2  0  0  0  0  0  0
  1  9  1  6  0  0  0
  1  6  1  0  0  0  0
  3 33  1  0  0  0  0
  4  5  1  0  0  0  0
  5  2  1  1  0  0  0
  5  7  1  0  0  0  0
  6  3  1  0  0  0  0
  7  3  2  0  0  0  0
  8  1  1  0  0  0  0
  8  4  2  0  0  0  0
 10 11  1  0  0  0  0
 11  9  1  0  0  0  0
 11 13  2  0  0  0  0
 12 13  1  0  0  0  0
 13 20  1  0  0  0  0
 14 12  2  0  0  0  0
 15 10  2  0  0  0  0
 15 14  1  0  0  0  0
 16 14  1  0  0  0  0
 17 16  1  0  0  0  0
 18 17  2  0  0  0  0
 18 15  1  0  0  0  0
 19 20  1  0  0  0  0
 19 22  1  0  0  0  0
 21 19  2  0  0  0  0
 22 25  1  6  0  0  0
 22 27  1  0  0  0  0
 23 24  1  0  0  0  0
 24 25  3  0  0  0  0
 26 28  1  0  0  0  0
 27 26  1  0  0  0  0
 27 28  1  0  0  0  0
 29 30  1  6  0  0  0
 29 32  1  0  0  0  0
 29 31  1  0  0  0  0
 32 27  1  1  0  0  0
 32 31  1  0  0  0  0
 33 34  1  0  0  0  0
 35 42  1  0  0  0  0
 36 37  1  0  0  0  0
 38 36  2  0  0  0  0
 39 34  1  6  0  0  0
 39 40  1  0  0  0  0
 40 38  2  0  0  0  0
 40 43  1  0  0  0  0
 41 39  1  0  0  0  0
 41 35  1  0  0  0  0
 42 36  1  0  0  0  0
 43 47  1  6  0  0  0
 43 44  1  0  0  0  0
 44 46  2  0  0  0  0
 44 45  1  0  0  0  0
 47 48  1  0  0  0  0
 48 50  1  0  0  0  0
 50 49  1  0  0  0  0
M  END
>  <MODEL>
2

>  <REMARK>
 VINA RESULT:      -7.5      2.629      5.691
  Name = 
  15 active torsions:
  status: ('A' for Active; 'I' for Inactive)
    1  A    between atoms: C_3  and  C_16
    2  A    between atoms: C_3  and  C_20
    3  A    between atoms: C_3  and  C_46
    4  A    between atoms: C_5  and  O_23
    5  A    between atoms: C_8  and  C_13
    6  A    between atoms: C_8  and  O_25
    7  A    between atoms: C_8  and  C_30
    8  A    between atoms: C_11  and  O_23
    9  A    between atoms: C_20  and  C_38
   10  A    between atoms: C_21  and  O_25
   11  A    between atoms: C_21  and  C_41
   12  A    between atoms: C_22  and  O_33
   13  A    between atoms: C_24  and  N_36
   14  A    between atoms: C_26  and  C_44
   15  A    between atoms: O_33  and  C_44
                            x       y       z     vdW  Elec       q    Type
                         _______ _______ _______ _____ _____    ______ ____

>  <TORSDO>
F 15

$$$$
=
 OpenBabel10222419503D

 50 55  0  0  1  0  0  0  0  0999 V2000
  188.8000  176.8870  137.2930 C   0  0  1  0  0  3  0  0  0  0  0  0
  191.9570  177.0400  139.9810 F   0  0  0  0  0  0  0  0  0  0  0  0
  188.5030  177.9450  139.6510 C   0  0  0  0  0  0  0  0  0  0  0  0
  190.4370  175.8390  138.7300 N   0  0  0  0  0  0  0  0  0  0  0  0
  190.8200  177.1460  139.2060 C   0  0  1  0  0  3  0  0  0  0  0  0
  187.8730  177.4520  138.3660 C   0  0  0  0  0  2  0  0  0  0  0  0
  189.7510  177.7590  139.9920 N   0  0  0  0  0  0  0  0  0  0  0  0
  189.5250  175.6970  137.8350 C   0  0  0  0  0  3  0  0  0  0  0  0
  188.0360  176.4970  136.1550 O   0  0  0  0  0  0  0  0  0  0  0  0
  188.1910  174.0930  135.7220 C   0  0  0  0  0  3  0  0  0  0  0  0
  187.4290  175.2400  136.0320 C   0  0  0  0  0  0  0  0  0  0  0  0
  185.4060  173.8690  136.1010 C   0  0  0  0  0  3  0  0  0  0  0  0
  186.0320  175.1270  136.2290 C   0  0  0  0  0  0  0  0  0  0  0  0
  186.1940  172.7640  135.7900 C   0  0  0  0  0  0  0  0  0  0  0  0
  187.5360  172.8690  135.6100 C   0  0  0  0  0  0  0  0  0  0  0  0
  185.7670  171.4660  135.6260 O   0  0  0  0  0  0  0  0  0  0  0  0
  186.8740  170.6210  135.3190 C   0  0  0  0  0  3  0  0  0  0  0  0
  188.1130  171.5400  135.2950 C   0  0  0  0  0  3  0  0  0  0  0  0
  183.8630  176.4840  136.4230 C   0  0  0  0  0  0  0  0  0  0  0  0
  185.2800  176.3060  136.5500 N   0  0  0  0  0  2  0  0  0  0  0  0
  183.1240  175.5400  136.0360 O   0  0  0  0  0  0  0  0  0  0  0  0
  183.2630  177.7920  136.8480 C   0  0  1  0  0  3  0  0  0  0  0  0
  179.4510  178.3510  135.3320 C   0  0  0  0  0  1  0  0  0  0  0  0
  180.7950  178.1510  135.8630 C   0  0  0  0  0  0  0  0  0  0  0  0
  181.9060  177.9870  136.3030 C   0  0  0  0  0  0  0  0  0  0  0  0
  182.8960  179.3820  138.8200 C   0  0  0  0  0  2  0  0  0  0  0  0
  183.3960  178.0210  138.3710 C   0  0  0  0  0  0  0  0  0  0  0  0
  184.3780  179.0600  138.8980 C   0  0  0  0  0  2  0  0  0  0  0  0
  181.4760  176.5560  139.1100 C   0  0  1  0  0  3  0  0  0  0  0  0
  181.2500  175.2650  139.5830 O   0  0  0  0  0  1  0  0  0  0  0  0
  181.8640  177.4450  140.2670 C   0  0  0  0  0  2  0  0  0  0  0  0
  182.9370  176.9170  139.3320 C   0  0  2  0  0  3  0  0  0  0  0  0
  187.6480  178.6170  140.5260 O   0  0  0  0  0  0  0  0  0  0  0  0
  187.8600  178.6580  141.9320 C   0  0  0  0  0  2  0  0  0  0  0  0
  184.0810  178.3880  142.8810 C   0  0  0  0  0  2  0  0  0  0  0  0
  184.7870  178.6440  145.3340 C   0  0  0  0  0  0  0  0  0  0  0  0
  184.5280  178.8100  146.6900 O   0  0  0  0  0  1  0  0  0  0  0  0
  185.9490  178.2570  144.9170 C   0  0  0  0  0  0  0  0  0  0  0  0
  186.6560  178.0660  142.6430 C   0  0  1  0  0  3  0  0  0  0  0  0
  186.9260  177.9290  144.1330 C   0  0  0  0  0  0  0  0  0  0  0  0
  185.4040  178.9190  142.2900 C   0  0  0  0  0  2  0  0  0  0  0  0
  183.7540  178.9600  144.2860 C   0  0  0  0  0  2  0  0  0  0  0  0
  188.0800  177.1440  144.6830 C   0  0  1  0  0  3  0  0  0  0  0  0
  188.9580  176.6170  143.5910 C   0  0  0  0  0  0  0  0  0  0  0  0
  190.1430  177.2680  143.2870 O   0  0  0  0  0  1  0  0  0  0  0  0
  188.6500  175.5670  142.9720 O   0  0  0  0  0  0  0  0  0  0  0  0
  188.8200  177.9140  145.5850 O   0  0  0  0  0  0  0  0  0  0  0  0
  189.3530  176.9970  146.4930 C   0  0  0  0  0  2  0  0  0  0  0  0
  188.0220  178.3560  148.0650 C   0  0  0  0  0  1  0  0  0  0  0  0
  188.4860  176.9560  147.7290 C   0  0  0  0  0  2  0  0  0  0  0  0
  1  9  1  6  0  0  0
  1  8  1  0  0  0  0
  1  6  1  0  0  0  0
  3  7  2  0  0  0  0
  3 33  1  0  0  0  0
  4  5  1  0  0  0  0
  5  2  1  1  0  0  0
  5  7  1  0  0  0  0
  6  3  1  0  0  0  0
  8  4  2  0  0  0  0
 10 11  1  0  0  0  0
 11  9  1  0  0  0  0
 11 13  2  0  0  0  0
 12 13  1  0  0  0  0
 13 20  1  0  0  0  0
 14 12  2  0  0  0  0
 15 10  2  0  0  0  0
 15 14  1  0  0  0  0
 16 14  1  0  0  0  0
 17 16  1  0  0  0  0
 18 17  2  0  0  0  0
 18 15  1  0  0  0  0
 19 20  1  0  0  0  0
 19 22  1  0  0  0  0
 21 19  2  0  0  0  0
 22 25  1  1  0  0  0
 22 27  1  0  0  0  0
 23 24  1  0  0  0  0
 24 25  3  0  0  0  0
 26 28  1  0  0  0  0
 27 26  1  0  0  0  0
 27 28  1  0  0  0  0
 29 32  1  0  0  0  0
 29 30  1  1  0  0  0
 29 31  1  0  0  0  0
 32 27  1  6  0  0  0
 32 31  1  0  0  0  0
 33 34  1  0  0  0  0
 35 42  1  0  0  0  0
 36 37  1  0  0  0  0
 38 36  2  0  0  0  0
 39 34  1  6  0  0  0
 39 40  1  0  0  0  0
 40 43  1  0  0  0  0
 40 38  2  0  0  0  0
 41 39  1  0  0  0  0
 41 35  1  0  0  0  0
 42 36  1  0  0  0  0
 43 44  1  6  0  0  0
 43 47  1  0  0  0  0
 45 44  1  0  0  0  0
 46 44  2  0  0  0  0
 47 48  1  0  0  0  0
 48 50  1  0  0  0  0
 50 49  1  0  0  0  0
M  END
>  <MODEL>
3

>  <REMARK>
 VINA RESULT:      -7.5      2.745      5.276
  Name = 
  15 active torsions:
  status: ('A' for Active; 'I' for Inactive)
    1  A    between atoms: C_3  and  C_16
    2  A    between atoms: C_3  and  C_20
    3  A    between atoms: C_3  and  C_46
    4  A    between atoms: C_5  and  O_23
    5  A    between atoms: C_8  and  C_13
    6  A    between atoms: C_8  and  O_25
    7  A    between atoms: C_8  and  C_30
    8  A    between atoms: C_11  and  O_23
    9  A    between atoms: C_20  and  C_38
   10  A    between atoms: C_21  and  O_25
   11  A    between atoms: C_21  and  C_41
   12  A    between atoms: C_22  and  O_33
   13  A    between atoms: C_24  and  N_36
   14  A    between atoms: C_26  and  C_44
   15  A    between atoms: O_33  and  C_44
                            x       y       z     vdW  Elec       q    Type
                         _______ _______ _______ _____ _____    ______ ____

>  <TORSDO>
F 15

$$$$
=
 OpenBabel10222419503D

 50 55  0  0  1  0  0  0  0  0999 V2000
  185.3410  177.2320  136.8160 C   0  0  1  0  0  3  0  0  0  0  0  0
  189.4140  177.7910  137.3680 F   0  0  0  0  0  0  0  0  0  0  0  0
  186.2580  178.3680  138.9690 C   0  0  0  0  0  0  0  0  0  0  0  0
  187.5890  176.4020  137.1270 N   0  0  0  0  0  0  0  0  0  0  0  0
  188.0350  177.7590  137.3320 C   0  0  1  0  0  3  0  0  0  0  0  0
  185.0880  177.7610  138.2250 C   0  0  0  0  0  2  0  0  0  0  0  0
  187.5040  178.3100  138.5780 N   0  0  0  0  0  0  0  0  0  0  0  0
  186.3580  176.1380  136.8680 C   0  0  0  0  0  3  0  0  0  0  0  0
  184.1270  176.7230  136.2690 O   0  0  0  0  0  0  0  0  0  0  0  0
  184.4790  174.3110  136.0430 C   0  0  0  0  0  3  0  0  0  0  0  0
  183.6920  175.4050  136.4620 C   0  0  0  0  0  0  0  0  0  0  0  0
  181.9910  173.8550  137.2880 C   0  0  0  0  0  3  0  0  0  0  0  0
  182.4460  175.1760  137.0940 C   0  0  0  0  0  0  0  0  0  0  0  0
  182.7960  172.8050  136.8560 C   0  0  0  0  0  0  0  0  0  0  0  0
  183.9970  173.0230  136.2590 C   0  0  0  0  0  0  0  0  0  0  0  0
  182.5240  171.4600  136.9590 O   0  0  0  0  0  0  0  0  0  0  0  0
  183.5970  170.6990  136.4060 C   0  0  0  0  0  3  0  0  0  0  0  0
  184.6340  171.7300  135.9100 C   0  0  0  0  0  3  0  0  0  0  0  0
  181.6460  176.8960  138.8220 C   0  0  0  0  0  0  0  0  0  0  0  0
  181.6660  176.3050  137.5170 N   0  0  0  0  0  2  0  0  0  0  0  0
  182.3960  176.4650  139.7400 O   0  0  0  0  0  0  0  0  0  0  0  0
  180.7830  178.1010  139.0520 C   0  0  1  0  0  3  0  0  0  0  0  0
  179.8550  178.6080  143.0550 C   0  0  0  0  0  1  0  0  0  0  0  0
  180.1810  178.4340  141.6440 C   0  0  0  0  0  0  0  0  0  0  0  0
  180.4520  178.2880  140.4780 C   0  0  0  0  0  0  0  0  0  0  0  0
  182.6670  179.8270  138.9010 C   0  0  0  0  0  2  0  0  0  0  0  0
  181.3370  179.3540  138.3390 C   0  0  0  0  0  0  0  0  0  0  0  0
  181.4230  180.6780  139.0900 C   0  0  0  0  0  2  0  0  0  0  0  0
  180.3770  180.4560  136.2800 C   0  0  1  0  0  3  0  0  0  0  0  0
  180.7710  180.8310  134.9970 O   0  0  0  0  0  1  0  0  0  0  0  0
  179.9740  179.0000  136.2670 C   0  0  0  0  0  2  0  0  0  0  0  0
  181.3370  179.4000  136.8060 C   0  0  2  0  0  3  0  0  0  0  0  0
  185.9490  179.0000  140.1730 O   0  0  0  0  0  0  0  0  0  0  0  0
  186.7300  178.8430  141.3510 C   0  0  0  0  0  2  0  0  0  0  0  0
  183.5110  178.3680  143.5110 C   0  0  0  0  0  2  0  0  0  0  0  0
  184.9580  178.8200  145.5800 C   0  0  0  0  0  0  0  0  0  0  0  0
  185.1460  179.0490  146.9380 O   0  0  0  0  0  1  0  0  0  0  0  0
  185.9470  178.4900  144.8130 C   0  0  0  0  0  0  0  0  0  0  0  0
  185.8820  178.2130  142.4410 C   0  0  1  0  0  3  0  0  0  0  0  0
  186.6370  178.1840  143.7610 C   0  0  0  0  0  0  0  0  0  0  0  0
  184.5160  178.9540  142.4960 C   0  0  0  0  0  2  0  0  0  0  0  0
  183.6150  179.0000  144.9240 C   0  0  0  0  0  2  0  0  0  0  0  0
  187.9700  177.5160  143.9230 C   0  0  1  0  0  3  0  0  0  0  0  0
  188.4960  177.6650  145.3170 C   0  0  0  0  0  0  0  0  0  0  0  0
  187.9080  176.9560  146.3520 O   0  0  0  0  0  1  0  0  0  0  0  0
  189.4890  178.3990  145.5520 O   0  0  0  0  0  0  0  0  0  0  0  0
  187.8980  176.1680  143.5630 O   0  0  0  0  0  0  0  0  0  0  0  0
  189.1790  175.8420  143.1150 C   0  0  0  0  0  2  0  0  0  0  0  0
  191.1420  177.0930  142.2920 C   0  0  0  0  0  1  0  0  0  0  0  0
  189.6500  176.8960  142.1390 C   0  0  0  0  0  2  0  0  0  0  0  0
  1  9  1  1  0  0  0
  1  8  1  0  0  0  0
  1  6  1  0  0  0  0
  3 33  1  0  0  0  0
  4  5  1  0  0  0  0
  5  2  1  1  0  0  0
  5  7  1  0  0  0  0
  6  3  1  0  0  0  0
  7  3  2  0  0  0  0
  8  4  2  0  0  0  0
  9 11  1  0  0  0  0
 10 15  2  0  0  0  0
 10 11  1  0  0  0  0
 11 13  2  0  0  0  0
 13 12  1  0  0  0  0
 13 20  1  0  0  0  0
 14 16  1  0  0  0  0
 14 12  2  0  0  0  0
 15 14  1  0  0  0  0
 17 16  1  0  0  0  0
 18 15  1  0  0  0  0
 18 17  2  0  0  0  0
 19 22  1  0  0  0  0
 19 21  2  0  0  0  0
 20 19  1  0  0  0  0
 22 25  1  1  0  0  0
 24 23  1  0  0  0  0
 25 24  3  0  0  0  0
 26 28  1  0  0  0  0
 27 26  1  0  0  0  0
 27 22  1  0  0  0  0
 27 28  1  0  0  0  0
 29 30  1  6  0  0  0
 29 32  1  0  0  0  0
 31 29  1  0  0  0  0
 32 31  1  6  0  0  0
 32 27  1  0  0  0  0
 33 34  1  0  0  0  0
 35 42  1  0  0  0  0
 36 37  1  0  0  0  0
 38 36  2  0  0  0  0
 39 34  1  6  0  0  0
 39 41  1  0  0  0  0
 39 40  1  0  0  0  0
 40 43  1  0  0  0  0
 40 38  2  0  0  0  0
 41 35  1  0  0  0  0
 42 36  1  0  0  0  0
 43 47  1  1  0  0  0
 43 44  1  0  0  0  0
 44 46  2  0  0  0  0
 44 45  1  0  0  0  0
 48 47  1  0  0  0  0
 50 49  1  0  0  0  0
 50 48  1  0  0  0  0
M  END
>  <MODEL>
4

>  <REMARK>
 VINA RESULT:      -7.4      2.564      5.874
  Name = 
  15 active torsions:
  status: ('A' for Active; 'I' for Inactive)
    1  A    between atoms: C_3  and  C_16
    2  A    between atoms: C_3  and  C_20
    3  A    between atoms: C_3  and  C_46
    4  A    between atoms: C_5  and  O_23
    5  A    between atoms: C_8  and  C_13
    6  A    between atoms: C_8  and  O_25
    7  A    between atoms: C_8  and  C_30
    8  A    between atoms: C_11  and  O_23
    9  A    between atoms: C_20  and  C_38
   10  A    between atoms: C_21  and  O_25
   11  A    between atoms: C_21  and  C_41
   12  A    between atoms: C_22  and  O_33
   13  A    between atoms: C_24  and  N_36
   14  A    between atoms: C_26  and  C_44
   15  A    between atoms: O_33  and  C_44
                            x       y       z     vdW  Elec       q    Type
                         _______ _______ _______ _____ _____    ______ ____

>  <TORSDO>
F 15

$$$$
=
 OpenBabel10222419503D

 50 55  0  0  1  0  0  0  0  0999 V2000
  185.6860  179.0040  140.6380 C   0  0  1  0  0  3  0  0  0  0  0  0
  181.6530  178.5280  141.4880 F   0  0  0  0  0  0  0  0  0  0  0  0
  184.0910  177.8270  138.9530 C   0  0  0  0  0  0  0  0  0  0  0  0
  183.8700  178.0810  141.9390 N   0  0  0  0  0  0  0  0  0  0  0  0
  182.9380  178.6560  141.0000 C   0  0  1  0  0  3  0  0  0  0  0  0
  185.5030  178.1830  139.3640 C   0  0  0  0  0  2  0  0  0  0  0  0
  183.0290  178.0040  139.6950 N   0  0  0  0  0  0  0  0  0  0  0  0
  185.1380  178.2450  141.8040 C   0  0  0  0  0  3  0  0  0  0  0  0
  187.0720  179.2600  140.8500 O   0  0  0  0  0  0  0  0  0  0  0  0
  188.2400  178.0000  139.1070 C   0  0  0  0  0  3  0  0  0  0  0  0
  188.0850  178.3740  140.4590 C   0  0  0  0  0  0  0  0  0  0  0  0
  189.9840  176.9570  141.0610 C   0  0  0  0  0  3  0  0  0  0  0  0
  188.9650  177.8560  141.4390 C   0  0  0  0  0  0  0  0  0  0  0  0
  190.1000  176.6110  139.7180 C   0  0  0  0  0  0  0  0  0  0  0  0
  189.2620  177.1150  138.7740 C   0  0  0  0  0  0  0  0  0  0  0  0
  191.0250  175.7570  139.1630 O   0  0  0  0  0  0  0  0  0  0  0  0
  190.8220  175.6640  137.7540 C   0  0  0  0  0  3  0  0  0  0  0  0
  189.6200  176.5800  137.4390 C   0  0  0  0  0  3  0  0  0  0  0  0
  188.2510  177.4650  143.8730 C   0  0  0  0  0  0  0  0  0  0  0  0
  188.7910  178.2560  142.8070 N   0  0  0  0  0  2  0  0  0  0  0  0
  187.9090  176.2670  143.6810 O   0  0  0  0  0  0  0  0  0  0  0  0
  188.1860  178.0600  145.2480 C   0  0  1  0  0  3  0  0  0  0  0  0
  184.2870  178.5510  146.5520 C   0  0  0  0  0  1  0  0  0  0  0  0
  185.6620  178.3770  146.0960 C   0  0  0  0  0  0  0  0  0  0  0  0
  186.7980  178.2330  145.7180 C   0  0  0  0  0  0  0  0  0  0  0  0
  188.3880  176.6140  147.3500 C   0  0  0  0  0  2  0  0  0  0  0  0
  189.1260  177.3360  146.2370 C   0  0  0  0  0  0  0  0  0  0  0  0
  189.2400  177.8280  147.6750 C   0  0  0  0  0  2  0  0  0  0  0  0
  191.5550  176.6820  146.4690 C   0  0  1  0  0  3  0  0  0  0  0  0
  192.3720  175.5650  146.3070 O   0  0  0  0  0  1  0  0  0  0  0  0
  191.3740  177.3600  145.1310 C   0  0  0  0  0  2  0  0  0  0  0  0
  190.2690  176.4760  145.6820 C   0  0  2  0  0  3  0  0  0  0  0  0
  183.9560  177.2370  137.6960 O   0  0  0  0  0  0  0  0  0  0  0  0
  182.8370  176.4350  137.3360 C   0  0  0  0  0  2  0  0  0  0  0  0
  184.8660  173.1180  137.7050 C   0  0  0  0  0  2  0  0  0  0  0  0
  182.9070  171.9160  136.5670 C   0  0  0  0  0  0  0  0  0  0  0  0
  182.2960  170.8080  135.9890 O   0  0  0  0  0  1  0  0  0  0  0  0
  182.2150  172.9460  136.9350 C   0  0  0  0  0  0  0  0  0  0  0  0
  183.0720  175.0060  137.7910 C   0  0  1  0  0  3  0  0  0  0  0  0
  181.9040  174.1170  137.3910 C   0  0  0  0  0  0  0  0  0  0  0  0
  184.4530  174.5350  137.2530 C   0  0  0  0  0  2  0  0  0  0  0  0
  184.4000  171.9970  136.7380 C   0  0  0  0  0  2  0  0  0  0  0  0
  180.4900  174.3920  137.8100 C   0  0  1  0  0  3  0  0  0  0  0  0
  179.5710  174.4730  136.6300 C   0  0  0  0  0  0  0  0  0  0  0  0
  179.4420  175.6680  135.9410 O   0  0  0  0  0  0  0  0  0  0  0  0
  178.9440  173.4570  136.2360 O   0  0  0  0  0  1  0  0  0  0  0  0
  180.0440  173.4290  138.7190 O   0  0  0  0  0  0  0  0  0  0  0  0
  179.2700  174.1320  139.6430 C   0  0  0  0  0  2  0  0  0  0  0  0
  179.2310  176.4600  140.4640 C   0  0  0  0  0  1  0  0  0  0  0  0
  180.1000  175.2400  140.2500 C   0  0  0  0  0  2  0  0  0  0  0  0
  1  9  1  1  0  0  0
  1  8  1  0  0  0  0
  3  6  1  0  0  0  0
  3  7  2  0  0  0  0
  5  2  1  1  0  0  0
  5  4  1  0  0  0  0
  6  1  1  0  0  0  0
  7  5  1  0  0  0  0
  8  4  2  0  0  0  0
 10 11  1  0  0  0  0
 11  9  1  0  0  0  0
 11 13  2  0  0  0  0
 12 13  1  0  0  0  0
 13 20  1  0  0  0  0
 14 12  2  0  0  0  0
 15 10  2  0  0  0  0
 15 14  1  0  0  0  0
 16 14  1  0  0  0  0
 17 16  1  0  0  0  0
 18 17  2  0  0  0  0
 18 15  1  0  0  0  0
 19 22  1  0  0  0  0
 20 19  1  0  0  0  0
 21 19  2  0  0  0  0
 22 25  1  1  0  0  0
 22 27  1  0  0  0  0
 24 23  1  0  0  0  0
 25 24  3  0  0  0  0
 26 28  1  0  0  0  0
 27 26  1  0  0  0  0
 27 28  1  0  0  0  0
 29 30  1  6  0  0  0
 31 29  1  0  0  0  0
 32 31  1  6  0  0  0
 32 27  1  0  0  0  0
 32 29  1  0  0  0  0
 33  3  1  0  0  0  0
 34 33  1  0  0  0  0
 36 42  1  0  0  0  0
 36 38  2  0  0  0  0
 37 36  1  0  0  0  0
 38 40  2  0  0  0  0
 39 34  1  6  0  0  0
 40 39  1  0  0  0  0
 40 43  1  0  0  0  0
 41 35  1  0  0  0  0
 41 39  1  0  0  0  0
 42 35  1  0  0  0  0
 43 44  1  6  0  0  0
 43 47  1  0  0  0  0
 45 44  2  0  0  0  0
 46 44  1  0  0  0  0
 47 48  1  0  0  0  0
 48 50  1  0  0  0  0
 50 49  1  0  0  0  0
M  END
>  <MODEL>
5

>  <REMARK>
 VINA RESULT:      -7.4      2.253      9.378
  Name = 
  15 active torsions:
  status: ('A' for Active; 'I' for Inactive)
    1  A    between atoms: C_3  and  C_16
    2  A    between atoms: C_3  and  C_20
    3  A    between atoms: C_3  and  C_46
    4  A    between atoms: C_5  and  O_23
    5  A    between atoms: C_8  and  C_13
    6  A    between atoms: C_8  and  O_25
    7  A    between atoms: C_8  and  C_30
    8  A    between atoms: C_11  and  O_23
    9  A    between atoms: C_20  and  C_38
   10  A    between atoms: C_21  and  O_25
   11  A    between atoms: C_21  and  C_41
   12  A    between atoms: C_22  and  O_33
   13  A    between atoms: C_24  and  N_36
   14  A    between atoms: C_26  and  C_44
   15  A    between atoms: O_33  and  C_44
                            x       y       z     vdW  Elec       q    Type
                         _______ _______ _______ _____ _____    ______ ____

>  <TORSDO>
F 15

$$$$
=
 OpenBabel10222419503D

 50 55  0  0  1  0  0  0  0  0999 V2000
  186.0550  177.9120  137.5340 C   0  0  1  0  0  3  0  0  0  0  0  0
  189.7170  179.7340  136.8400 F   0  0  0  0  0  0  0  0  0  0  0  0
  187.8810  178.0000  139.3850 C   0  0  0  0  0  0  0  0  0  0  0  0
  188.1820  178.0710  136.3970 N   0  0  0  0  0  0  0  0  0  0  0  0
  188.5450  179.1540  137.2800 C   0  0  1  0  0  3  0  0  0  0  0  0
  186.5540  177.4550  138.9020 C   0  0  0  0  0  2  0  0  0  0  0  0
  188.7210  178.6830  138.6520 N   0  0  0  0  0  0  0  0  0  0  0  0
  187.0340  177.4990  136.4820 C   0  0  0  0  0  3  0  0  0  0  0  0
  184.7890  177.3180  137.2610 O   0  0  0  0  0  0  0  0  0  0  0  0
  185.6880  175.1200  136.6650 C   0  0  0  0  0  3  0  0  0  0  0  0
  184.6130  175.9400  137.0700 C   0  0  0  0  0  0  0  0  0  0  0  0
  183.1430  173.9880  137.0990 C   0  0  0  0  0  3  0  0  0  0  0  0
  183.3370  175.3710  137.2960 C   0  0  0  0  0  0  0  0  0  0  0  0
  184.2280  173.2150  136.6960 C   0  0  0  0  0  0  0  0  0  0  0  0
  185.4560  173.7590  136.4890 C   0  0  0  0  0  0  0  0  0  0  0  0
  184.2330  171.8600  136.4560 O   0  0  0  0  0  0  0  0  0  0  0  0
  185.5380  171.4360  136.0650 C   0  0  0  0  0  3  0  0  0  0  0  0
  186.4140  172.7070  136.0710 C   0  0  0  0  0  3  0  0  0  0  0  0
  182.0120  176.7090  139.0400 C   0  0  0  0  0  0  0  0  0  0  0  0
  182.2610  176.2250  137.7140 N   0  0  0  0  0  2  0  0  0  0  0  0
  182.7990  176.4370  139.9860 O   0  0  0  0  0  0  0  0  0  0  0  0
  180.8460  177.6250  139.2630 C   0  0  1  0  0  3  0  0  0  0  0  0
  180.4000  178.6350  143.2530 C   0  0  0  0  0  1  0  0  0  0  0  0
  180.5560  178.2840  141.8460 C   0  0  0  0  0  0  0  0  0  0  0  0
  180.6860  177.9910  140.6830 C   0  0  0  0  0  0  0  0  0  0  0  0
  179.7020  179.7850  138.5010 C   0  0  0  0  0  2  0  0  0  0  0  0
  180.8490  178.8150  138.2770 C   0  0  0  0  0  0  0  0  0  0  0  0
  179.7400  178.9420  137.2390 C   0  0  0  0  0  2  0  0  0  0  0  0
  182.8170  180.0100  139.3140 C   0  0  1  0  0  3  0  0  0  0  0  0
  184.1820  180.1880  139.0980 O   0  0  0  0  0  1  0  0  0  0  0  0
  182.0500  181.0050  138.4750 C   0  0  0  0  0  2  0  0  0  0  0  0
  182.1630  179.5610  138.0160 C   0  0  2  0  0  3  0  0  0  0  0  0
  188.2130  177.7040  140.7070 O   0  0  0  0  0  0  0  0  0  0  0  0
  187.9020  178.5670  141.7940 C   0  0  0  0  0  2  0  0  0  0  0  0
  184.1530  178.2540  142.8420 C   0  0  0  0  0  2  0  0  0  0  0  0
  184.8950  178.7320  145.2510 C   0  0  0  0  0  0  0  0  0  0  0  0
  184.6560  178.9980  146.5940 O   0  0  0  0  0  1  0  0  0  0  0  0
  186.0610  178.3490  144.8410 C   0  0  0  0  0  0  0  0  0  0  0  0
  186.7320  177.9970  142.5750 C   0  0  1  0  0  3  0  0  0  0  0  0
  187.0340  177.9900  144.0660 C   0  0  0  0  0  0  0  0  0  0  0  0
  185.4460  178.7780  142.1820 C   0  0  0  0  0  2  0  0  0  0  0  0
  183.8330  178.9280  144.2030 C   0  0  0  0  0  2  0  0  0  0  0  0
  188.2240  177.2900  144.6530 C   0  0  1  0  0  3  0  0  0  0  0  0
  188.8800  176.3870  143.6550 C   0  0  0  0  0  0  0  0  0  0  0  0
  188.2180  175.2520  143.2150 O   0  0  0  0  0  1  0  0  0  0  0  0
  190.0110  176.6680  143.1830 O   0  0  0  0  0  0  0  0  0  0  0  0
  189.1420  178.2120  145.1640 O   0  0  0  0  0  0  0  0  0  0  0  0
  189.6280  177.6280  146.3350 C   0  0  0  0  0  2  0  0  0  0  0  0
  188.4910  178.1790  148.4550 C   0  0  0  0  0  1  0  0  0  0  0  0
  188.4690  177.2800  147.2390 C   0  0  0  0  0  2  0  0  0  0  0  0
  1  9  1  6  0  0  0
  1  6  1  0  0  0  0
  3 33  1  0  0  0  0
  4  8  2  0  0  0  0
  4  5  1  0  0  0  0
  5  2  1  6  0  0  0
  5  7  1  0  0  0  0
  6  3  1  0  0  0  0
  7  3  2  0  0  0  0
  8  1  1  0  0  0  0
 10 11  1  0  0  0  0
 11  9  1  0  0  0  0
 11 13  2  0  0  0  0
 12 13  1  0  0  0  0
 13 20  1  0  0  0  0
 14 12  2  0  0  0  0
 15 10  2  0  0  0  0
 15 14  1  0  0  0  0
 16 14  1  0  0  0  0
 17 18  2  0  0  0  0
 17 16  1  0  0  0  0
 18 15  1  0  0  0  0
 19 22  1  0  0  0  0
 19 21  2  0  0  0  0
 20 19  1  0  0  0  0
 22 25  1  1  0  0  0
 24 23  1  0  0  0  0
 25 24  3  0  0  0  0
 27 26  1  0  0  0  0
 27 22  1  0  0  0  0
 28 27  1  0  0  0  0
 28 26  1  0  0  0  0
 29 30  1  6  0  0  0
 31 29  1  0  0  0  0
 32 27  1  1  0  0  0
 32 31  1  0  0  0  0
 32 29  1  0  0  0  0
 33 34  1  0  0  0  0
 35 42  1  0  0  0  0
 36 37  1  0  0  0  0
 38 36  2  0  0  0  0
 39 34  1  6  0  0  0
 39 40  1  0  0  0  0
 40 43  1  0  0  0  0
 40 38  2  0  0  0  0
 41 39  1  0  0  0  0
 41 35  1  0  0  0  0
 42 36  1  0  0  0  0
 43 44  1  6  0  0  0
 43 47  1  0  0  0  0
 45 44  1  0  0  0  0
 46 44  2  0  0  0  0
 47 48  1  0  0  0  0
 48 50  1  0  0  0  0
 50 49  1  0  0  0  0
M  END
>  <MODEL>
6

>  <REMARK>
 VINA RESULT:      -7.3      2.757      5.529
  Name = 
  15 active torsions:
  status: ('A' for Active; 'I' for Inactive)
    1  A    between atoms: C_3  and  C_16
    2  A    between atoms: C_3  and  C_20
    3  A    between atoms: C_3  and  C_46
    4  A    between atoms: C_5  and  O_23
    5  A    between atoms: C_8  and  C_13
    6  A    between atoms: C_8  and  O_25
    7  A    between atoms: C_8  and  C_30
    8  A    between atoms: C_11  and  O_23
    9  A    between atoms: C_20  and  C_38
   10  A    between atoms: C_21  and  O_25
   11  A    between atoms: C_21  and  C_41
   12  A    between atoms: C_22  and  O_33
   13  A    between atoms: C_24  and  N_36
   14  A    between atoms: C_26  and  C_44
   15  A    between atoms: O_33  and  C_44
                            x       y       z     vdW  Elec       q    Type
                         _______ _______ _______ _____ _____    ______ ____

>  <TORSDO>
F 15

$$$$
=
 OpenBabel10222419503D

 50 55  0  0  1  0  0  0  0  0999 V2000
  183.8110  177.4160  138.5900 C   0  0  1  0  0  3  0  0  0  0  0  0
  180.6360  179.3330  140.4490 F   0  0  0  0  0  0  0  0  0  0  0  0
  184.1870  178.9010  140.6920 C   0  0  0  0  0  0  0  0  0  0  0  0
  182.0120  179.0300  138.6240 N   0  0  0  0  0  0  0  0  0  0  0  0
  181.7960  178.7230  140.0170 C   0  0  1  0  0  3  0  0  0  0  0  0
  184.7770  178.1210  139.5370 C   0  0  0  0  0  2  0  0  0  0  0  0
  182.9170  179.1730  140.8400 N   0  0  0  0  0  0  0  0  0  0  0  0
  182.9200  178.4260  137.9420 C   0  0  0  0  0  3  0  0  0  0  0  0
  184.5440  176.7190  137.5860 O   0  0  0  0  0  0  0  0  0  0  0  0
  183.1810  174.7100  137.2750 C   0  0  0  0  0  3  0  0  0  0  0  0
  184.4410  175.3370  137.3800 C   0  0  0  0  0  0  0  0  0  0  0  0
  185.5360  173.1730  137.0730 C   0  0  0  0  0  3  0  0  0  0  0  0
  185.6240  174.5670  137.2710 C   0  0  0  0  0  0  0  0  0  0  0  0
  184.2730  172.5940  136.9780 C   0  0  0  0  0  0  0  0  0  0  0  0
  183.1380  173.3330  137.0720 C   0  0  0  0  0  0  0  0  0  0  0  0
  183.9890  171.2610  136.7850 O   0  0  0  0  0  0  0  0  0  0  0  0
  182.5780  171.0630  136.7380 C   0  0  0  0  0  3  0  0  0  0  0  0
  181.9480  172.4590  136.9330 C   0  0  0  0  0  3  0  0  0  0  0  0
  188.1090  174.8670  136.7070 C   0  0  0  0  0  0  0  0  0  0  0  0
  186.8940  175.2280  137.3750 N   0  0  0  0  0  2  0  0  0  0  0  0
  188.1390  173.9050  135.8930 O   0  0  0  0  0  0  0  0  0  0  0  0
  189.3280  175.7140  136.9250 C   0  0  1  0  0  3  0  0  0  0  0  0
  192.8250  173.5010  136.8310 C   0  0  0  0  0  1  0  0  0  0  0  0
  191.5920  174.2800  136.8590 C   0  0  0  0  0  0  0  0  0  0  0  0
  190.5730  174.9240  136.8850 C   0  0  0  0  0  0  0  0  0  0  0  0
  188.3990  176.8560  134.8300 C   0  0  0  0  0  2  0  0  0  0  0  0
  189.3230  176.9730  136.0290 C   0  0  0  0  0  0  0  0  0  0  0  0
  189.9020  176.9050  134.6210 C   0  0  0  0  0  2  0  0  0  0  0  0
  188.6480  178.2520  138.1000 C   0  0  1  0  0  3  0  0  0  0  0  0
  189.0370  179.3780  138.8240 O   0  0  0  0  0  1  0  0  0  0  0  0
  187.7470  178.6810  136.9660 C   0  0  0  0  0  2  0  0  0  0  0  0
  189.2040  178.3530  136.6870 C   0  0  2  0  0  3  0  0  0  0  0  0
  185.1020  179.3760  141.6330 O   0  0  0  0  0  0  0  0  0  0  0  0
  186.2680  178.6550  142.0080 C   0  0  0  0  0  2  0  0  0  0  0  0
  184.7260  178.2770  145.5770 C   0  0  0  0  0  2  0  0  0  0  0  0
  187.1220  178.1370  146.4830 C   0  0  0  0  0  0  0  0  0  0  0  0
  188.0610  178.0900  147.5070 O   0  0  0  0  0  1  0  0  0  0  0  0
  187.4350  177.8080  145.2710 C   0  0  0  0  0  0  0  0  0  0  0  0
  186.0330  177.9710  143.3430 C   0  0  1  0  0  3  0  0  0  0  0  0
  187.3550  177.5980  143.9960 C   0  0  0  0  0  0  0  0  0  0  0  0
  185.1190  178.8820  144.2120 C   0  0  0  0  0  2  0  0  0  0  0  0
  185.7180  178.6250  146.7190 C   0  0  0  0  0  2  0  0  0  0  0  0
  188.3760  176.7240  143.3290 C   0  0  1  0  0  3  0  0  0  0  0  0
  189.0500  177.4320  142.1940 C   0  0  0  0  0  0  0  0  0  0  0  0
  189.7620  178.5960  142.4370 O   0  0  0  0  0  1  0  0  0  0  0  0
  189.0070  176.9610  141.0290 O   0  0  0  0  0  0  0  0  0  0  0  0
  189.3170  176.2630  144.2530 O   0  0  0  0  0  0  0  0  0  0  0  0
  190.3180  175.6660  143.4850 C   0  0  0  0  0  2  0  0  0  0  0  0
  191.4460  176.4870  145.5210 C   0  0  0  0  0  1  0  0  0  0  0  0
  191.6570  175.8910  144.1470 C   0  0  0  0  0  2  0  0  0  0  0  0
  1  9  1  6  0  0  0
  1  6  1  0  0  0  0
  3  7  2  0  0  0  0
  3 33  1  0  0  0  0
  4  5  1  0  0  0  0
  5  2  1  1  0  0  0
  5  7  1  0  0  0  0
  6  3  1  0  0  0  0
  8  1  1  0  0  0  0
  8  4  2  0  0  0  0
 10 11  1  0  0  0  0
 11  9  1  0  0  0  0
 12 13  1  0  0  0  0
 13 20  1  0  0  0  0
 13 11  2  0  0  0  0
 14 15  1  0  0  0  0
 14 12  2  0  0  0  0
 15 10  2  0  0  0  0
 16 14  1  0  0  0  0
 17 16  1  0  0  0  0
 17 18  2  0  0  0  0
 18 15  1  0  0  0  0
 19 22  1  0  0  0  0
 19 20  1  0  0  0  0
 21 19  2  0  0  0  0
 22 25  1  6  0  0  0
 23 24  1  0  0  0  0
 24 25  3  0  0  0  0
 26 27  1  0  0  0  0
 27 22  1  0  0  0  0
 28 26  1  0  0  0  0
 28 27  1  0  0  0  0
 29 30  1  1  0  0  0
 31 29  1  0  0  0  0
 32 27  1  6  0  0  0
 32 31  1  0  0  0  0
 32 29  1  0  0  0  0
 33 34  1  0  0  0  0
 35 42  1  0  0  0  0
 36 42  1  0  0  0  0
 36 37  1  0  0  0  0
 38 36  2  0  0  0  0
 39 34  1  6  0  0  0
 39 40  1  0  0  0  0
 39 41  1  0  0  0  0
 40 38  2  0  0  0  0
 41 35  1  0  0  0  0
 43 44  1  6  0  0  0
 43 40  1  0  0  0  0
 43 47  1  0  0  0  0
 44 45  1  0  0  0  0
 46 44  2  0  0  0  0
 48 50  1  0  0  0  0
 48 47  1  0  0  0  0
 50 49  1  0  0  0  0
M  END
>  <MODEL>
7

>  <REMARK>
 VINA RESULT:      -7.2      1.970      5.723
  Name = 
  15 active torsions:
  status: ('A' for Active; 'I' for Inactive)
    1  A    between atoms: C_3  and  C_16
    2  A    between atoms: C_3  and  C_20
    3  A    between atoms: C_3  and  C_46
    4  A    between atoms: C_5  and  O_23
    5  A    between atoms: C_8  and  C_13
    6  A    between atoms: C_8  and  O_25
    7  A    between atoms: C_8  and  C_30
    8  A    between atoms: C_11  and  O_23
    9  A    between atoms: C_20  and  C_38
   10  A    between atoms: C_21  and  O_25
   11  A    between atoms: C_21  and  C_41
   12  A    between atoms: C_22  and  O_33
   13  A    between atoms: C_24  and  N_36
   14  A    between atoms: C_26  and  C_44
   15  A    between atoms: O_33  and  C_44
                            x       y       z     vdW  Elec       q    Type
                         _______ _______ _______ _____ _____    ______ ____

>  <TORSDO>
F 15

$$$$
=
 OpenBabel10222419503D

 50 55  0  0  1  0  0  0  0  0999 V2000
  188.8510  177.3550  138.1860 C   0  0  1  0  0  3  0  0  0  0  0  0
  192.1560  177.4150  140.6930 F   0  0  0  0  0  0  0  0  0  0  0  0
  188.5930  177.8130  140.7340 C   0  0  0  0  0  0  0  0  0  0  0  0
  190.7310  176.2910  139.2710 N   0  0  0  0  0  0  0  0  0  0  0  0
  190.9580  177.5070  140.0140 C   0  0  1  0  0  3  0  0  0  0  0  0
  187.9410  177.5190  139.4000 C   0  0  0  0  0  2  0  0  0  0  0  0
  189.8780  177.7560  140.9670 N   0  0  0  0  0  0  0  0  0  0  0  0
  189.7800  176.2050  138.4100 C   0  0  0  0  0  3  0  0  0  0  0  0
  188.0640  177.1070  137.0240 O   0  0  0  0  0  0  0  0  0  0  0  0
  188.5800  174.9380  136.0150 C   0  0  0  0  0  3  0  0  0  0  0  0
  187.6670  175.8230  136.6260 C   0  0  0  0  0  0  0  0  0  0  0  0
  185.9140  174.1290  136.4450 C   0  0  0  0  0  3  0  0  0  0  0  0
  186.3300  175.4150  136.8480 C   0  0  0  0  0  0  0  0  0  0  0  0
  186.8460  173.2880  135.8430 C   0  0  0  0  0  0  0  0  0  0  0  0
  188.1320  173.6750  135.6380 C   0  0  0  0  0  0  0  0  0  0  0  0
  186.6290  172.0080  135.3880 O   0  0  0  0  0  0  0  0  0  0  0  0
  187.8310  171.4720  134.8390 C   0  0  0  0  0  3  0  0  0  0  0  0
  188.8940  172.5830  134.9860 C   0  0  0  0  0  3  0  0  0  0  0  0
  184.1180  176.7070  137.0110 C   0  0  0  0  0  0  0  0  0  0  0  0
  185.4210  176.3320  137.4770 N   0  0  0  0  0  2  0  0  0  0  0  0
  183.6300  176.1920  135.9700 O   0  0  0  0  0  0  0  0  0  0  0  0
  183.3070  177.6600  137.8380 C   0  0  1  0  0  3  0  0  0  0  0  0
  180.2350  179.4090  135.6830 C   0  0  0  0  0  1  0  0  0  0  0  0
  181.3190  178.7910  136.4380 C   0  0  0  0  0  0  0  0  0  0  0  0
  182.2140  178.2810  137.0650 C   0  0  0  0  0  0  0  0  0  0  0  0
  182.0730  177.9830  140.0570 C   0  0  0  0  0  2  0  0  0  0  0  0
  182.8830  177.0380  139.1870 C   0  0  0  0  0  0  0  0  0  0  0  0
  183.4700  177.5730  140.4870 C   0  0  0  0  0  2  0  0  0  0  0  0
  181.0340  175.5400  138.3390 C   0  0  1  0  0  3  0  0  0  0  0  0
  180.8370  174.2160  137.9520 O   0  0  0  0  0  1  0  0  0  0  0  0
  180.9100  175.6390  139.8410 C   0  0  0  0  0  2  0  0  0  0  0  0
  182.2860  175.6250  139.1990 C   0  0  2  0  0  3  0  0  0  0  0  0
  187.7230  178.1340  141.7760 O   0  0  0  0  0  0  0  0  0  0  0  0
  187.4900  177.2700  142.8810 C   0  0  0  0  0  2  0  0  0  0  0  0
  190.2770  177.6250  145.5930 C   0  0  0  0  0  2  0  0  0  0  0  0
  188.4790  177.1320  147.3560 C   0  0  0  0  0  0  0  0  0  0  0  0
  188.0500  176.8640  148.6500 O   0  0  0  0  0  1  0  0  0  0  0  0
  187.6460  177.5020  146.4370 C   0  0  0  0  0  0  0  0  0  0  0  0
  188.1370  177.8520  144.1250 C   0  0  1  0  0  3  0  0  0  0  0  0
  187.1590  177.8510  145.2890 C   0  0  0  0  0  0  0  0  0  0  0  0
  189.4630  177.0870  144.3970 C   0  0  0  0  0  2  0  0  0  0  0  0
  189.9150  176.9510  146.9440 C   0  0  0  0  0  2  0  0  0  0  0  0
  185.8250  178.5360  145.2340 C   0  0  1  0  0  3  0  0  0  0  0  0
  185.3530  178.9340  146.5970 C   0  0  0  0  0  0  0  0  0  0  0  0
  184.3010  178.2500  147.1880 O   0  0  0  0  0  0  0  0  0  0  0  0
  185.9250  179.8600  147.2280 O   0  0  0  0  0  1  0  0  0  0  0  0
  185.8690  179.6430  144.3820 O   0  0  0  0  0  0  0  0  0  0  0  0
  184.5490  179.8400  143.9740 C   0  0  0  0  0  2  0  0  0  0  0  0
  182.3860  178.6510  143.9490 C   0  0  0  0  0  1  0  0  0  0  0  0
  183.8810  178.4980  143.7790 C   0  0  0  0  0  2  0  0  0  0  0  0
  1  9  1  6  0  0  0
  1  8  1  0  0  0  0
  1  6  1  0  0  0  0
  3  7  2  0  0  0  0
  3 33  1  0  0  0  0
  4  5  1  0  0  0  0
  5  2  1  1  0  0  0
  5  7  1  0  0  0  0
  6  3  1  0  0  0  0
  8  4  2  0  0  0  0
 10 11  1  0  0  0  0
 11 13  2  0  0  0  0
 11  9  1  0  0  0  0
 12 13  1  0  0  0  0
 13 20  1  0  0  0  0
 14 12  2  0  0  0  0
 15 14  1  0  0  0  0
 15 10  2  0  0  0  0
 16 14  1  0  0  0  0
 17 18  2  0  0  0  0
 17 16  1  0  0  0  0
 18 15  1  0  0  0  0
 19 20  1  0  0  0  0
 19 22  1  0  0  0  0
 21 19  2  0  0  0  0
 22 25  1  6  0  0  0
 22 27  1  0  0  0  0
 23 24  1  0  0  0  0
 24 25  3  0  0  0  0
 26 28  1  0  0  0  0
 27 26  1  0  0  0  0
 27 28  1  0  0  0  0
 29 30  1  1  0  0  0
 29 32  1  0  0  0  0
 29 31  1  0  0  0  0
 32 27  1  6  0  0  0
 32 31  1  0  0  0  0
 33 34  1  0  0  0  0
 35 42  1  0  0  0  0
 36 37  1  0  0  0  0
 38 36  2  0  0  0  0
 39 34  1  6  0  0  0
 39 41  1  0  0  0  0
 39 40  1  0  0  0  0
 40 38  2  0  0  0  0
 41 35  1  0  0  0  0
 42 36  1  0  0  0  0
 43 47  1  6  0  0  0
 43 40  1  0  0  0  0
 43 44  1  0  0  0  0
 44 45  2  0  0  0  0
 44 46  1  0  0  0  0
 48 47  1  0  0  0  0
 50 49  1  0  0  0  0
 50 48  1  0  0  0  0
M  END
>  <MODEL>
8

>  <REMARK>
 VINA RESULT:      -7.2      2.688      4.528
  Name = 
  15 active torsions:
  status: ('A' for Active; 'I' for Inactive)
    1  A    between atoms: C_3  and  C_16
    2  A    between atoms: C_3  and  C_20
    3  A    between atoms: C_3  and  C_46
    4  A    between atoms: C_5  and  O_23
    5  A    between atoms: C_8  and  C_13
    6  A    between atoms: C_8  and  O_25
    7  A    between atoms: C_8  and  C_30
    8  A    between atoms: C_11  and  O_23
    9  A    between atoms: C_20  and  C_38
   10  A    between atoms: C_21  and  O_25
   11  A    between atoms: C_21  and  C_41
   12  A    between atoms: C_22  and  O_33
   13  A    between atoms: C_24  and  N_36
   14  A    between atoms: C_26  and  C_44
   15  A    between atoms: O_33  and  C_44
                            x       y       z     vdW  Elec       q    Type
                         _______ _______ _______ _____ _____    ______ ____

>  <TORSDO>
F 15

$$$$
=
 OpenBabel10222419503D

 50 55  0  0  1  0  0  0  0  0999 V2000
  188.4530  177.5630  141.5480 C   0  0  1  0  0  3  0  0  0  0  0  0
  192.1180  176.4370  143.1320 F   0  0  0  0  0  0  0  0  0  0  0  0
  190.4790  177.0450  140.0010 C   0  0  0  0  0  0  0  0  0  0  0  0
  190.4420  177.9960  142.8510 N   0  0  0  0  0  0  0  0  0  0  0  0
  190.9700  176.7230  142.4220 C   0  0  1  0  0  3  0  0  0  0  0  0
  189.0750  177.5880  140.1540 C   0  0  0  0  0  2  0  0  0  0  0  0
  191.2710  176.7280  140.9920 N   0  0  0  0  0  0  0  0  0  0  0  0
  189.2780  178.3940  142.4780 C   0  0  0  0  0  3  0  0  0  0  0  0
  187.1300  178.0890  141.4930 O   0  0  0  0  0  0  0  0  0  0  0  0
  186.7990  177.9270  143.9130 C   0  0  0  0  0  3  0  0  0  0  0  0
  186.3390  178.2990  142.6310 C   0  0  0  0  0  0  0  0  0  0  0  0
  184.2560  179.1090  143.6210 C   0  0  0  0  0  3  0  0  0  0  0  0
  185.0660  178.8990  142.4850 C   0  0  0  0  0  0  0  0  0  0  0  0
  184.7450  178.7240  144.8660 C   0  0  0  0  0  0  0  0  0  0  0  0
  185.9710  178.1570  145.0090 C   0  0  0  0  0  0  0  0  0  0  0  0
  184.1060  178.8490  146.0780 O   0  0  0  0  0  0  0  0  0  0  0  0
  184.9350  178.3440  147.1230 C   0  0  0  0  0  3  0  0  0  0  0  0
  186.2290  177.8560  146.4370 C   0  0  0  0  0  3  0  0  0  0  0  0
  183.8410  178.4840  140.2680 C   0  0  0  0  0  0  0  0  0  0  0  0
  184.6230  179.2750  141.1720 N   0  0  0  0  0  2  0  0  0  0  0  0
  183.4210  177.3430  140.6030 O   0  0  0  0  0  0  0  0  0  0  0  0
  183.4510  179.0770  138.9470 C   0  0  1  0  0  3  0  0  0  0  0  0
  183.7070  176.3270  135.8630 C   0  0  0  0  0  1  0  0  0  0  0  0
  183.6130  177.2960  136.9490 C   0  0  0  0  0  0  0  0  0  0  0  0
  183.5360  178.0980  137.8470 C   0  0  0  0  0  0  0  0  0  0  0  0
  181.5140  180.1630  137.6740 C   0  0  0  0  0  2  0  0  0  0  0  0
  182.1160  179.8500  139.0320 C   0  0  0  0  0  0  0  0  0  0  0  0
  182.0410  181.2910  138.5420 C   0  0  0  0  0  2  0  0  0  0  0  0
  180.3870  178.0820  139.5480 C   0  0  1  0  0  3  0  0  0  0  0  0
  179.8430  177.4220  140.6480 O   0  0  0  0  0  1  0  0  0  0  0  0
  179.6730  179.4000  139.3600 C   0  0  0  0  0  2  0  0  0  0  0  0
  181.0410  179.3730  140.0180 C   0  0  2  0  0  3  0  0  0  0  0  0
  190.9400  176.9180  138.6900 O   0  0  0  0  0  0  0  0  0  0  0  0
  192.2590  176.4910  138.3740 C   0  0  0  0  0  2  0  0  0  0  0  0
  190.6260  174.5390  135.4110 C   0  0  0  0  0  2  0  0  0  0  0  0
  192.2900  172.6440  135.8790 C   0  0  0  0  0  0  0  0  0  0  0  0
  192.7990  171.3640  135.6920 O   0  0  0  0  0  1  0  0  0  0  0  0
  192.9850  173.5600  136.4740 C   0  0  0  0  0  0  0  0  0  0  0  0
  192.2500  175.7610  137.0420 C   0  0  1  0  0  3  0  0  0  0  0  0
  193.3270  174.6880  137.0100 C   0  0  0  0  0  0  0  0  0  0  0  0
  190.8100  175.2380  136.7760 C   0  0  0  0  0  2  0  0  0  0  0  0
  190.8940  173.0110  135.4550 C   0  0  0  0  0  2  0  0  0  0  0  0
  194.7800  174.9840  137.2380 C   0  0  1  0  0  3  0  0  0  0  0  0
  195.2460  174.4670  138.5630 C   0  0  0  0  0  0  0  0  0  0  0  0
  195.4340  173.1060  138.7420 O   0  0  0  0  0  0  0  0  0  0  0  0
  195.5060  175.2590  139.5050 O   0  0  0  0  0  1  0  0  0  0  0  0
  195.5610  174.4660  136.2010 O   0  0  0  0  0  0  0  0  0  0  0  0
  196.7270  175.2340  136.2070 C   0  0  0  0  0  2  0  0  0  0  0  0
  198.5200  173.5710  136.5420 C   0  0  0  0  0  1  0  0  0  0  0  0
  197.8370  174.4640  135.5300 C   0  0  0  0  0  2  0  0  0  0  0  0
  1  9  1  6  0  0  0
  1  8  1  0  0  0  0
  3  6  1  0  0  0  0
  3  7  2  0  0  0  0
  5  4  1  0  0  0  0
  5  2  1  1  0  0  0
  6  1  1  0  0  0  0
  7  5  1  0  0  0  0
  8  4  2  0  0  0  0
  9 11  1  0  0  0  0
 10 15  1  0  0  0  0
 11 10  2  0  0  0  0
 12 14  1  0  0  0  0
 13 11  1  0  0  0  0
 13 12  2  0  0  0  0
 14 15  2  0  0  0  0
 14 16  1  0  0  0  0
 15 18  1  0  0  0  0
 16 17  1  0  0  0  0
 18 17  2  0  0  0  0
 19 21  2  0  0  0  0
 19 20  1  0  0  0  0
 20 13  1  0  0  0  0
 22 25  1  6  0  0  0
 22 27  1  0  0  0  0
 22 19  1  0  0  0  0
 23 24  1  0  0  0  0
 24 25  3  0  0  0  0
 26 28  1  0  0  0  0
 26 27  1  0  0  0  0
 28 27  1  0  0  0  0
 29 32  1  0  0  0  0
 29 30  1  1  0  0  0
 31 29  1  0  0  0  0
 31 32  1  0  0  0  0
 32 27  1  6  0  0  0
 33  3  1  0  0  0  0
 34 33  1  0  0  0  0
 35 42  1  0  0  0  0
 35 41  1  0  0  0  0
 36 38  2  0  0  0  0
 37 36  1  0  0  0  0
 38 40  2  0  0  0  0
 39 34  1  1  0  0  0
 40 39  1  0  0  0  0
 40 43  1  0  0  0  0
 41 39  1  0  0  0  0
 42 36  1  0  0  0  0
 43 47  1  6  0  0  0
 43 44  1  0  0  0  0
 44 45  2  0  0  0  0
 44 46  1  0  0  0  0
 47 48  1  0  0  0  0
 50 48  1  0  0  0  0
 50 49  1  0  0  0  0
M  END
>  <MODEL>
9

>  <REMARK>
 VINA RESULT:      -7.2      3.703      8.896
  Name = 
  15 active torsions:
  status: ('A' for Active; 'I' for Inactive)
    1  A    between atoms: C_3  and  C_16
    2  A    between atoms: C_3  and  C_20
    3  A    between atoms: C_3  and  C_46
    4  A    between atoms: C_5  and  O_23
    5  A    between atoms: C_8  and  C_13
    6  A    between atoms: C_8  and  O_25
    7  A    between atoms: C_8  and  C_30
    8  A    between atoms: C_11  and  O_23
    9  A    between atoms: C_20  and  C_38
   10  A    between atoms: C_21  and  O_25
   11  A    between atoms: C_21  and  C_41
   12  A    between atoms: C_22  and  O_33
   13  A    between atoms: C_24  and  N_36
   14  A    between atoms: C_26  and  C_44
   15  A    between atoms: O_33  and  C_44
                            x       y       z     vdW  Elec       q    Type
                         _______ _______ _______ _____ _____    ______ ____

>  <TORSDO>
F 15

$$$$
