=
 OpenBabel10222415273D

 31 35  0  0  1  0  0  0  0  0999 V2000
  184.9330  178.9210  141.1280 C   0  0  0  0  0  0  0  0  0  0  0  0
  184.0770  178.7670  143.3790 C   0  0  0  0  0  0  0  0  0  0  0  0
  183.8310  179.0550  142.0850 C   0  0  0  0  0  3  0  0  0  0  0  0
  181.7370  175.3730  137.2000 C   0  0  1  0  0  3  0  0  0  0  0  0
  188.6490  177.5350  140.3250 Cl  0  0  0  0  0  0  0  0  0  0  0  0
  186.2710  178.5550  139.3460 C   0  0  0  0  0  0  0  0  0  0  0  0
  186.2230  178.4450  141.5660 C   0  0  0  0  0  0  0  0  0  0  0  0
  187.0370  178.2230  140.3850 C   0  0  0  0  0  0  0  0  0  0  0  0
  184.0030  176.1980  136.3700 O   0  0  0  0  0  0  0  0  0  0  0  0
  186.5950  178.4210  137.8980 C   0  0  0  0  0  2  0  0  0  0  0  0
  184.9650  179.0210  139.8020 C   0  0  0  0  0  0  0  0  0  0  0  0
  185.7730  177.4180  137.2060 N   0  0  0  0  0  0  0  0  0  0  0  0
  182.3250  175.5880  138.5930 C   0  0  2  0  0  3  0  0  0  0  0  0
  181.2040  174.9690  139.8300 Cl  0  0  0  0  0  0  0  0  0  0  0  0
  182.6140  176.0010  136.1210 C   0  0  0  0  0  0  0  0  0  0  0  0
  182.2570  175.7360  134.6770 C   0  0  0  0  0  2  0  0  0  0  0  0
  184.4950  177.1410  137.2840 C   0  0  0  0  0  0  0  0  0  0  0  0
  185.4390  178.3010  143.7860 C   0  0  0  0  0  0  0  0  0  0  0  0
  183.5630  177.7610  138.2900 C   0  0  0  0  0  0  0  0  0  0  0  0
  185.6830  178.0440  144.9940 O   0  0  0  0  0  0  0  0  0  0  0  0
  181.9650  177.0950  135.3040 C   0  0  0  0  0  2  0  0  0  0  0  0
  182.6010  177.0330  138.8790 C   0  0  0  0  0  3  0  0  0  0  0  0
  181.6090  174.0040  136.9580 O   0  0  0  0  0  1  0  0  0  0  0  0
  183.8400  179.1350  138.8280 C   0  0  1  0  0  3  0  0  0  0  0  0
  186.4740  178.1240  142.7970 N   0  0  0  0  0  0  0  0  0  0  0  0
  181.6920  178.7930  144.0570 C   0  0  0  0  0  1  0  0  0  0  0  0
  183.0790  178.8860  144.3540 O   0  0  0  0  0  0  0  0  0  0  0  0
  182.6120  179.8900  139.3420 C   0  0  0  0  0  2  0  0  0  0  0  0
  181.5430  180.3960  137.9590 S   0  0  0  0  0  0  0  0  0  0  0  0
  180.3130  179.6860  140.2940 C   0  0  0  0  0  1  0  0  0  0  0  0
  180.0190  179.9200  138.8260 C   0  0  0  0  0  2  0  0  0  0  0  0
  1  7  1  0  0  0  0
  1  3  1  0  0  0  0
  2 18  1  0  0  0  0
  2 27  1  0  0  0  0
  3  2  2  0  0  0  0
  4 23  1  6  0  0  0
  4 13  1  0  0  0  0
  5  8  1  0  0  0  0
  6 11  1  0  0  0  0
  6  8  2  0  0  0  0
  7 25  2  0  0  0  0
  8  7  1  0  0  0  0
  9 17  1  0  0  0  0
 10  6  1  0  0  0  0
 11  1  2  0  0  0  0
 12 17  2  0  0  0  0
 12 10  1  0  0  0  0
 13 22  1  0  0  0  0
 13 14  1  1  0  0  0
 15  9  1  0  0  0  0
 15  4  1  0  0  0  0
 16 21  1  0  0  0  0
 16 15  1  0  0  0  0
 17 19  1  0  0  0  0
 18 20  2  0  0  0  0
 19 24  1  0  0  0  0
 19 22  2  0  0  0  0
 21 15  1  0  0  0  0
 24 28  1  1  0  0  0
 24 11  1  0  0  0  0
 25 18  1  0  0  0  0
 26 27  1  0  0  0  0
 29 31  1  0  0  0  0
 29 28  1  0  0  0  0
 31 30  1  0  0  0  0
M  END
>  <MODEL>
1

>  <REMARK>
 VINA RESULT:      -5.8      0.000      0.000
  Name = 
  4 active torsions:
  status: ('A' for Active; 'I' for Inactive)
    1  A    between atoms: C_2  and  O_26
    2  A    between atoms: S_5  and  C_6
    3  A    between atoms: S_5  and  C_27
    4  A    between atoms: C_6  and  C_30
                            x       y       z     vdW  Elec       q    Type
                         _______ _______ _______ _____ _____    ______ ____

>  <TORSDO>
F 4

$$$$
=
 OpenBabel10222415273D

 31 35  0  0  1  0  0  0  0  0999 V2000
  183.2510  179.0970  141.3910 C   0  0  0  0  0  0  0  0  0  0  0  0
  182.1610  178.9910  143.5410 C   0  0  0  0  0  0  0  0  0  0  0  0
  182.0330  179.1280  142.2060 C   0  0  0  0  0  3  0  0  0  0  0  0
  181.1340  174.7650  137.5190 C   0  0  1  0  0  3  0  0  0  0  0  0
  187.2050  178.2740  141.1340 Cl  0  0  0  0  0  0  0  0  0  0  0  0
  184.8350  178.8090  139.8080 C   0  0  0  0  0  0  0  0  0  0  0  0
  184.5360  178.8750  142.0100 C   0  0  0  0  0  0  0  0  0  0  0  0
  185.5110  178.6930  140.9510 C   0  0  0  0  0  0  0  0  0  0  0  0
  183.3330  175.8770  136.8580 O   0  0  0  0  0  0  0  0  0  0  0  0
  185.3500  178.6110  138.4230 C   0  0  0  0  0  2  0  0  0  0  0  0
  183.4280  179.0920  140.0730 C   0  0  0  0  0  0  0  0  0  0  0  0
  184.7810  177.4340  137.7520 N   0  0  0  0  0  0  0  0  0  0  0  0
  181.5090  175.1870  138.9390 C   0  0  2  0  0  3  0  0  0  0  0  0
  180.3530  174.4970  140.1040 Cl  0  0  0  0  0  0  0  0  0  0  0  0
  182.0310  175.4360  136.4830 C   0  0  0  0  0  0  0  0  0  0  0  0
  181.8970  174.9990  135.0430 C   0  0  0  0  0  2  0  0  0  0  0  0
  183.5600  176.9590  137.7200 C   0  0  0  0  0  0  0  0  0  0  0  0
  183.5190  178.7880  144.1360 C   0  0  0  0  0  0  0  0  0  0  0  0
  182.4290  177.5000  138.5530 C   0  0  0  0  0  0  0  0  0  0  0  0
  183.6500  178.6750  145.3830 O   0  0  0  0  0  0  0  0  0  0  0  0
  181.3270  176.3390  135.4950 C   0  0  0  0  0  2  0  0  0  0  0  0
  181.5250  176.6760  139.1070 C   0  0  0  0  0  3  0  0  0  0  0  0
  181.2470  173.3780  137.4040 O   0  0  0  0  0  1  0  0  0  0  0  0
  182.4260  178.9400  138.9770 C   0  0  1  0  0  3  0  0  0  0  0  0
  184.6810  178.7020  143.2870 N   0  0  0  0  0  0  0  0  0  0  0  0
  179.7430  178.6430  143.9650 C   0  0  0  0  0  1  0  0  0  0  0  0
  181.0450  179.0260  144.3870 O   0  0  0  0  0  0  0  0  0  0  0  0
  181.0440  179.5240  139.2780 C   0  0  0  0  0  2  0  0  0  0  0  0
  180.9500  181.2610  138.7450 S   0  0  0  0  0  0  0  0  0  0  0  0
  179.2920  181.1540  140.9160 C   0  0  0  0  0  1  0  0  0  0  0  0
  179.2870  181.4930  139.4390 C   0  0  0  0  0  2  0  0  0  0  0  0
  1  7  1  0  0  0  0
  1  3  1  0  0  0  0
  2 18  1  0  0  0  0
  2 27  1  0  0  0  0
  3  2  2  0  0  0  0
  4 23  1  1  0  0  0
  4 13  1  0  0  0  0
  6 11  1  0  0  0  0
  6  8  2  0  0  0  0
  7 25  2  0  0  0  0
  8  5  1  0  0  0  0
  8  7  1  0  0  0  0
  9 17  1  0  0  0  0
 10  6  1  0  0  0  0
 11  1  2  0  0  0  0
 12 10  1  0  0  0  0
 13 22  1  0  0  0  0
 13 14  1  1  0  0  0
 15  9  1  0  0  0  0
 15  4  1  0  0  0  0
 16 21  1  0  0  0  0
 16 15  1  0  0  0  0
 17 12  2  0  0  0  0
 17 19  1  0  0  0  0
 18 20  2  0  0  0  0
 19 24  1  0  0  0  0
 19 22  2  0  0  0  0
 21 15  1  0  0  0  0
 24 28  1  1  0  0  0
 24 11  1  0  0  0  0
 25 18  1  0  0  0  0
 26 27  1  0  0  0  0
 29 28  1  0  0  0  0
 29 31  1  0  0  0  0
 31 30  1  0  0  0  0
M  END
>  <MODEL>
2

>  <REMARK>
 VINA RESULT:      -5.7      1.248      1.523
  Name = 
  4 active torsions:
  status: ('A' for Active; 'I' for Inactive)
    1  A    between atoms: C_2  and  O_26
    2  A    between atoms: S_5  and  C_6
    3  A    between atoms: S_5  and  C_27
    4  A    between atoms: C_6  and  C_30
                            x       y       z     vdW  Elec       q    Type
                         _______ _______ _______ _____ _____    ______ ____

>  <TORSDO>
F 4

$$$$
=
 OpenBabel10222415273D

 31 35  0  0  1  0  0  0  0  0999 V2000
  184.0950  177.7220  137.8090 C   0  0  0  0  0  0  0  0  0  0  0  0
  186.4970  177.9220  137.6860 C   0  0  0  0  0  0  0  0  0  0  0  0
  185.3180  178.5150  137.9640 C   0  0  0  0  0  3  0  0  0  0  0  0
  181.9640  179.0020  143.4710 C   0  0  1  0  0  3  0  0  0  0  0  0
  182.3840  174.0890  137.3140 Cl  0  0  0  0  0  0  0  0  0  0  0  0
  182.0600  176.7570  137.9720 C   0  0  0  0  0  0  0  0  0  0  0  0
  184.1710  176.3360  137.4170 C   0  0  0  0  0  0  0  0  0  0  0  0
  182.8420  175.7660  137.5450 C   0  0  0  0  0  0  0  0  0  0  0  0
  180.3470  177.7880  141.9160 O   0  0  0  0  0  0  0  0  0  0  0  0
  180.6210  176.6800  138.3530 C   0  0  0  0  0  2  0  0  0  0  0  0
  182.8280  177.9910  138.1110 C   0  0  1  0  0  3  0  0  0  0  0  0
  180.3860  176.9000  139.7880 N   0  0  0  0  0  0  0  0  0  0  0  0
  183.0510  178.3990  142.5830 C   0  0  2  0  0  3  0  0  0  0  0  0
  184.6570  178.7320  143.2750 Cl  0  0  0  0  0  0  0  0  0  0  0  0
  180.5810  178.8410  142.8460 C   0  0  0  0  0  0  0  0  0  0  0  0
  179.3810  179.2390  143.6750 C   0  0  0  0  0  2  0  0  0  0  0  0
  180.9040  177.7600  140.6290 C   0  0  0  0  0  0  0  0  0  0  0  0
  186.5200  176.4880  137.2590 C   0  0  0  0  0  0  0  0  0  0  0  0
  182.0450  178.6810  140.2910 C   0  0  0  0  0  0  0  0  0  0  0  0
  187.6130  175.9310  136.9820 O   0  0  0  0  0  0  0  0  0  0  0  0
  179.8530  180.1280  142.5300 C   0  0  0  0  0  2  0  0  0  0  0  0
  183.0120  178.9400  141.1860 C   0  0  0  0  0  3  0  0  0  0  0  0
  181.9870  178.3750  144.7190 O   0  0  0  0  0  1  0  0  0  0  0  0
  182.2520  179.1370  138.8750 C   0  0  1  0  0  3  0  0  0  0  0  0
  185.2940  175.7320  137.1820 N   0  0  0  0  0  2  0  0  0  0  0  0
  188.6270  178.4080  138.8570 C   0  0  0  0  0  1  0  0  0  0  0  0
  187.7060  178.6190  137.7960 O   0  0  0  0  0  0  0  0  0  0  0  0
  183.0050  180.4600  138.7230 C   0  0  0  0  0  2  0  0  0  0  0  0
  181.8530  181.8150  138.3430 S   0  0  0  0  0  0  0  0  0  0  0  0
  180.5400  181.1180  136.0500 C   0  0  0  0  0  1  0  0  0  0  0  0
  180.6730  180.7170  137.5050 C   0  0  0  0  0  2  0  0  0  0  0  0
  1  3  1  0  0  0  0
  2 27  1  0  0  0  0
  2  3  2  0  0  0  0
  4 23  1  1  0  0  0
  5  8  1  0  0  0  0
  6 11  1  0  0  0  0
  6 10  1  0  0  0  0
  7  8  1  0  0  0  0
  7  1  2  0  0  0  0
  8  6  2  0  0  0  0
  9 15  1  0  0  0  0
 10 12  1  0  0  0  0
 11  1  1  1  0  0  0
 11 24  1  0  0  0  0
 12 17  2  0  0  0  0
 13 14  1  1  0  0  0
 13  4  1  0  0  0  0
 15  4  1  0  0  0  0
 15 16  1  0  0  0  0
 17  9  1  0  0  0  0
 18  2  1  0  0  0  0
 19 17  1  0  0  0  0
 19 22  2  0  0  0  0
 20 18  2  0  0  0  0
 21 15  1  0  0  0  0
 21 16  1  0  0  0  0
 22 13  1  0  0  0  0
 24 28  1  1  0  0  0
 24 19  1  0  0  0  0
 25 18  1  0  0  0  0
 25  7  1  0  0  0  0
 27 26  1  0  0  0  0
 29 28  1  0  0  0  0
 30 31  1  0  0  0  0
 31 29  1  0  0  0  0
M  END
>  <MODEL>
3

>  <REMARK>
 VINA RESULT:      -5.6      2.649      6.034
  Name = 
  4 active torsions:
  status: ('A' for Active; 'I' for Inactive)
    1  A    between atoms: C_2  and  O_26
    2  A    between atoms: S_5  and  C_6
    3  A    between atoms: S_5  and  C_27
    4  A    between atoms: C_6  and  C_30
                            x       y       z     vdW  Elec       q    Type
                         _______ _______ _______ _____ _____    ______ ____

>  <TORSDO>
F 4

$$$$
=
 OpenBabel10222415273D

 31 35  0  0  1  0  0  0  0  0999 V2000
  188.7680  178.0450  140.4950 C   0  0  0  0  0  0  0  0  0  0  0  0
  186.4780  178.2270  141.2330 C   0  0  0  0  0  0  0  0  0  0  0  0
  187.3560  178.3230  140.2150 C   0  0  0  0  0  3  0  0  0  0  0  0
  189.3880  173.9730  135.8840 C   0  0  1  0  0  3  0  0  0  0  0  0
  191.5480  176.5420  143.0230 Cl  0  0  0  0  0  0  0  0  0  0  0  0
  190.9370  177.4170  140.4700 C   0  0  0  0  0  0  0  0  0  0  0  0
  189.1810  177.6340  141.8160 C   0  0  0  0  0  0  0  0  0  0  0  0
  190.5750  177.2390  141.7400 C   0  0  0  0  0  0  0  0  0  0  0  0
  191.5410  174.6580  137.0670 O   0  0  0  0  0  0  0  0  0  0  0  0
  192.2420  177.0720  139.8390 C   0  0  0  0  0  2  0  0  0  0  0  0
  189.8230  177.9500  139.6910 C   0  0  0  0  0  0  0  0  0  0  0  0
  192.1450  175.9810  138.8580 N   0  0  0  0  0  0  0  0  0  0  0  0
  188.7050  174.3870  137.1870 C   0  0  2  0  0  3  0  0  0  0  0  0
  186.9780  173.9610  137.1310 Cl  0  0  0  0  0  0  0  0  0  0  0  0
  190.8430  174.4320  135.8470 C   0  0  0  0  0  0  0  0  0  0  0  0
  191.7040  173.9600  134.6980 C   0  0  0  0  0  2  0  0  0  0  0  0
  191.2530  175.7230  137.9330 C   0  0  0  0  0  0  0  0  0  0  0  0
  186.9610  177.8200  142.5900 C   0  0  0  0  0  0  0  0  0  0  0  0
  189.9670  176.4870  137.7720 C   0  0  0  0  0  0  0  0  0  0  0  0
  186.1510  177.7430  143.5500 O   0  0  0  0  0  0  0  0  0  0  0  0
  191.1960  175.3960  134.7370 C   0  0  0  0  0  2  0  0  0  0  0  0
  188.8260  175.8570  137.4510 C   0  0  0  0  0  3  0  0  0  0  0  0
  189.3350  172.5830  135.7570 O   0  0  0  0  0  1  0  0  0  0  0  0
  189.8850  177.9250  138.2000 C   0  0  1  0  0  3  0  0  0  0  0  0
  188.3500  177.4960  142.8010 N   0  0  0  0  0  0  0  0  0  0  0  0
  184.6290  179.3740  140.0440 C   0  0  0  0  0  1  0  0  0  0  0  0
  185.1150  178.4910  141.0470 O   0  0  0  0  0  0  0  0  0  0  0  0
  188.8090  178.7510  137.4920 C   0  0  0  0  0  2  0  0  0  0  0  0
  188.2350  177.9050  135.9880 S   0  0  0  0  0  0  0  0  0  0  0  0
  185.6800  177.0210  135.5850 C   0  0  0  0  0  1  0  0  0  0  0  0
  186.5150  177.8170  136.5680 C   0  0  0  0  0  2  0  0  0  0  0  0
  1  7  1  0  0  0  0
  2 18  1  0  0  0  0
  3  1  1  0  0  0  0
  3  2  2  0  0  0  0
  4 23  1  1  0  0  0
  4 13  1  0  0  0  0
  6  8  2  0  0  0  0
  7 25  2  0  0  0  0
  8  7  1  0  0  0  0
  8  5  1  0  0  0  0
  9 17  1  0  0  0  0
 10  6  1  0  0  0  0
 11  6  1  0  0  0  0
 11  1  2  0  0  0  0
 12 10  1  0  0  0  0
 13 14  1  6  0  0  0
 13 22  1  0  0  0  0
 15  4  1  0  0  0  0
 15  9  1  0  0  0  0
 16 21  1  0  0  0  0
 16 15  1  0  0  0  0
 17 12  2  0  0  0  0
 18 25  1  0  0  0  0
 18 20  2  0  0  0  0
 19 17  1  0  0  0  0
 19 24  1  0  0  0  0
 21 15  1  0  0  0  0
 22 19  2  0  0  0  0
 24 28  1  6  0  0  0
 24 11  1  0  0  0  0
 26 27  1  0  0  0  0
 27  2  1  0  0  0  0
 29 31  1  0  0  0  0
 29 28  1  0  0  0  0
 30 31  1  0  0  0  0
M  END
>  <MODEL>
4

>  <REMARK>
 VINA RESULT:      -4.7      4.447      6.139
  Name = 
  4 active torsions:
  status: ('A' for Active; 'I' for Inactive)
    1  A    between atoms: C_2  and  O_26
    2  A    between atoms: S_5  and  C_6
    3  A    between atoms: S_5  and  C_27
    4  A    between atoms: C_6  and  C_30
                            x       y       z     vdW  Elec       q    Type
                         _______ _______ _______ _____ _____    ______ ____

>  <TORSDO>
F 4

$$$$
=
 OpenBabel10222415273D

 31 35  0  0  1  0  0  0  0  0999 V2000
  180.2690  178.6020  139.2310 C   0  0  0  0  0  0  0  0  0  0  0  0
  180.2670  179.4520  141.4890 C   0  0  0  0  0  0  0  0  0  0  0  0
  180.5900  178.4450  140.6520 C   0  0  0  0  0  3  0  0  0  0  0  0
  185.9770  177.2340  137.2870 C   0  0  1  0  0  3  0  0  0  0  0  0
  179.1530  181.0380  136.1980 Cl  0  0  0  0  0  0  0  0  0  0  0  0
  180.2040  178.5980  136.9740 C   0  0  0  0  0  0  0  0  0  0  0  0
  179.6700  179.8230  138.7500 C   0  0  0  0  0  0  0  0  0  0  0  0
  179.6580  179.7690  137.3000 C   0  0  0  0  0  0  0  0  0  0  0  0
  184.1940  177.4210  135.4730 O   0  0  0  0  0  0  0  0  0  0  0  0
  180.5150  178.0890  135.6080 C   0  0  0  0  0  2  0  0  0  0  0  0
  180.5610  177.8480  138.1740 C   0  0  0  0  0  0  0  0  0  0  0  0
  181.9560  177.9680  135.3450 N   0  0  0  0  0  0  0  0  0  0  0  0
  185.0470  178.1350  138.0990 C   0  0  2  0  0  3  0  0  0  0  0  0
  185.8420  178.6210  139.6160 Cl  0  0  0  0  0  0  0  0  0  0  0  0
  185.2840  176.6990  136.0380 C   0  0  0  0  0  0  0  0  0  0  0  0
  186.1190  175.9250  135.0430 C   0  0  0  0  0  2  0  0  0  0  0  0
  182.9400  177.5290  136.0920 C   0  0  0  0  0  0  0  0  0  0  0  0
  179.6250  180.6880  140.9440 C   0  0  0  0  0  0  0  0  0  0  0  0
  182.7910  177.1620  137.5430 C   0  0  0  0  0  0  0  0  0  0  0  0
  179.3050  181.6260  141.7200 O   0  0  0  0  0  0  0  0  0  0  0  0
  185.1440  175.1960  135.9600 C   0  0  0  0  0  2  0  0  0  0  0  0
  183.7510  177.4620  138.4330 C   0  0  0  0  0  3  0  0  0  0  0  0
  187.1130  177.9580  136.9160 O   0  0  0  0  0  1  0  0  0  0  0  0
  181.4710  176.6710  138.0660 C   0  0  1  0  0  3  0  0  0  0  0  0
  179.3860  180.8210  139.5280 N   0  0  0  0  0  0  0  0  0  0  0  0
  179.7130  178.6320  143.7620 C   0  0  0  0  0  1  0  0  0  0  0  0
  180.5290  179.3690  142.8620 O   0  0  0  0  0  0  0  0  0  0  0  0
  181.5550  175.7990  139.3210 C   0  0  0  0  0  2  0  0  0  0  0  0
  180.2760  174.5050  139.2900 S   0  0  0  0  0  0  0  0  0  0  0  0
  179.2970  173.7260  141.7200 C   0  0  0  0  0  1  0  0  0  0  0  0
  179.6180  174.9710  140.9180 C   0  0  0  0  0  2  0  0  0  0  0  0
  1  3  1  0  0  0  0
  2 27  1  0  0  0  0
  3  2  2  0  0  0  0
  4 23  1  6  0  0  0
  4 13  1  0  0  0  0
  5  8  1  0  0  0  0
  6  8  2  0  0  0  0
  6 11  1  0  0  0  0
  7  1  1  0  0  0  0
  7 25  2  0  0  0  0
  8  7  1  0  0  0  0
  9 15  1  0  0  0  0
  9 17  1  0  0  0  0
 10  6  1  0  0  0  0
 11  1  2  0  0  0  0
 12 10  1  0  0  0  0
 12 17  2  0  0  0  0
 13 22  1  0  0  0  0
 13 14  1  1  0  0  0
 15  4  1  0  0  0  0
 16 21  1  0  0  0  0
 16 15  1  0  0  0  0
 17 19  1  0  0  0  0
 18  2  1  0  0  0  0
 18 20  2  0  0  0  0
 19 24  1  0  0  0  0
 19 22  2  0  0  0  0
 21 15  1  0  0  0  0
 24 11  1  0  0  0  0
 24 28  1  1  0  0  0
 25 18  1  0  0  0  0
 27 26  1  0  0  0  0
 29 28  1  0  0  0  0
 29 31  1  0  0  0  0
 31 30  1  0  0  0  0
M  END
>  <MODEL>
5

>  <REMARK>
 VINA RESULT:      -4.6      3.465      5.429
  Name = 
  4 active torsions:
  status: ('A' for Active; 'I' for Inactive)
    1  A    between atoms: C_2  and  O_26
    2  A    between atoms: S_5  and  C_6
    3  A    between atoms: S_5  and  C_27
    4  A    between atoms: C_6  and  C_30
                            x       y       z     vdW  Elec       q    Type
                         _______ _______ _______ _____ _____    ______ ____

>  <TORSDO>
F 4

$$$$
=
 OpenBabel10222415273D

 31 35  0  0  1  0  0  0  0  0999 V2000
  184.1200  175.7700  136.0280 C   0  0  0  0  0  0  0  0  0  0  0  0
  186.3420  176.5340  135.4810 C   0  0  0  0  0  0  0  0  0  0  0  0
  185.0470  176.8510  135.6830 C   0  0  0  0  0  3  0  0  0  0  0  0
  181.8570  178.6440  141.0130 C   0  0  1  0  0  3  0  0  0  0  0  0
  183.5830  171.9420  137.2270 Cl  0  0  0  0  0  0  0  0  0  0  0  0
  182.4810  174.4520  136.8500 C   0  0  0  0  0  0  0  0  0  0  0  0
  184.6040  174.4200  136.1920 C   0  0  0  0  0  0  0  0  0  0  0  0
  183.5150  173.6220  136.7250 C   0  0  0  0  0  0  0  0  0  0  0  0
  180.6440  176.5150  140.3040 O   0  0  0  0  0  0  0  0  0  0  0  0
  181.1450  174.1580  137.4420 C   0  0  0  0  0  2  0  0  0  0  0  0
  182.8400  175.7900  136.3880 C   0  0  1  0  0  3  0  0  0  0  0  0
  180.8930  174.8760  138.7000 N   0  0  0  0  0  0  0  0  0  0  0  0
  183.0510  178.0430  140.2730 C   0  0  2  0  0  3  0  0  0  0  0  0
  184.4980  179.0470  140.5370 Cl  0  0  0  0  0  0  0  0  0  0  0  0
  180.5720  177.8780  140.7120 C   0  0  0  0  0  0  0  0  0  0  0  0
  179.3310  178.2440  141.4930 C   0  0  0  0  0  2  0  0  0  0  0  0
  181.1480  176.1110  139.0590 C   0  0  0  0  0  0  0  0  0  0  0  0
  186.7890  175.1150  135.6390 C   0  0  0  0  0  0  0  0  0  0  0  0
  181.9440  177.0780  138.2260 C   0  0  0  0  0  0  0  0  0  0  0  0
  187.9920  174.8080  135.4380 O   0  0  0  0  0  0  0  0  0  0  0  0
  179.4780  178.6750  140.0380 C   0  0  0  0  0  2  0  0  0  0  0  0
  182.8100  177.9310  138.7990 C   0  0  0  0  0  3  0  0  0  0  0  0
  182.1040  178.6170  142.3880 O   0  0  0  0  0  1  0  0  0  0  0  0
  181.9640  176.9490  136.7310 C   0  0  1  0  0  3  0  0  0  0  0  0
  185.8510  174.0970  136.0420 N   0  0  0  0  0  2  0  0  0  0  0  0
  188.0720  178.2020  136.0930 C   0  0  0  0  0  1  0  0  0  0  0  0
  187.2840  177.5100  135.1330 O   0  0  0  0  0  0  0  0  0  0  0  0
  182.2740  178.2410  135.9720 C   0  0  0  0  0  2  0  0  0  0  0  0
  180.8900  178.6940  134.8810 S   0  0  0  0  0  0  0  0  0  0  0  0
  180.8280  180.5910  136.8470 C   0  0  0  0  0  1  0  0  0  0  0  0
  179.9700  179.5130  136.2170 C   0  0  0  0  0  2  0  0  0  0  0  0
  1  7  2  0  0  0  0
  2 18  1  0  0  0  0
  2  3  2  0  0  0  0
  3  1  1  0  0  0  0
  4 23  1  1  0  0  0
  6 10  1  0  0  0  0
  7  8  1  0  0  0  0
  8  6  2  0  0  0  0
  8  5  1  0  0  0  0
  9 15  1  0  0  0  0
 10 12  1  0  0  0  0
 11  1  1  1  0  0  0
 11 24  1  0  0  0  0
 11  6  1  0  0  0  0
 12 17  2  0  0  0  0
 13 14  1  6  0  0  0
 13  4  1  0  0  0  0
 15  4  1  0  0  0  0
 15 16  1  0  0  0  0
 17  9  1  0  0  0  0
 18 25  1  0  0  0  0
 19 22  2  0  0  0  0
 19 17  1  0  0  0  0
 20 18  2  0  0  0  0
 21 15  1  0  0  0  0
 21 16  1  0  0  0  0
 22 13  1  0  0  0  0
 24 28  1  6  0  0  0
 24 19  1  0  0  0  0
 25  7  1  0  0  0  0
 27  2  1  0  0  0  0
 27 26  1  0  0  0  0
 29 28  1  0  0  0  0
 29 31  1  0  0  0  0
 31 30  1  0  0  0  0
M  END
>  <MODEL>
6

>  <REMARK>
 VINA RESULT:      -4.5      3.136      6.375
  Name = 
  4 active torsions:
  status: ('A' for Active; 'I' for Inactive)
    1  A    between atoms: C_2  and  O_26
    2  A    between atoms: S_5  and  C_6
    3  A    between atoms: S_5  and  C_27
    4  A    between atoms: C_6  and  C_30
                            x       y       z     vdW  Elec       q    Type
                         _______ _______ _______ _____ _____    ______ ____

>  <TORSDO>
F 4

$$$$
=
 OpenBabel10222415273D

 31 35  0  0  1  0  0  0  0  0999 V2000
  184.4170  178.5940  138.5810 C   0  0  0  0  0  0  0  0  0  0  0  0
  184.8450  179.1370  140.8930 C   0  0  0  0  0  0  0  0  0  0  0  0
  183.9580  179.1010  139.8770 C   0  0  0  0  0  3  0  0  0  0  0  0
  179.7940  174.5300  137.9870 C   0  0  1  0  0  3  0  0  0  0  0  0
  187.2420  176.6280  136.4540 Cl  0  0  0  0  0  0  0  0  0  0  0  0
  184.6620  177.6210  136.5580 C   0  0  0  0  0  0  0  0  0  0  0  0
  185.7660  178.1050  138.4260 C   0  0  0  0  0  0  0  0  0  0  0  0
  185.8650  177.4890  137.1160 C   0  0  0  0  0  0  0  0  0  0  0  0
  181.2790  174.8410  135.9370 O   0  0  0  0  0  0  0  0  0  0  0  0
  184.2010  177.0750  135.2500 C   0  0  0  0  0  2  0  0  0  0  0  0
  183.7590  178.3380  137.4540 C   0  0  0  0  0  0  0  0  0  0  0  0
  183.1800  176.0260  135.3840 N   0  0  0  0  0  0  0  0  0  0  0  0
  181.0060  175.0350  138.7690 C   0  0  2  0  0  3  0  0  0  0  0  0
  180.7040  174.8960  140.5180 Cl  0  0  0  0  0  0  0  0  0  0  0  0
  179.9690  174.7460  136.4870 C   0  0  0  0  0  0  0  0  0  0  0  0
  178.9310  174.1540  135.5620 C   0  0  0  0  0  2  0  0  0  0  0  0
  182.1340  175.9280  136.1680 C   0  0  0  0  0  0  0  0  0  0  0  0
  186.2390  178.6410  140.6740 C   0  0  0  0  0  0  0  0  0  0  0  0
  181.8280  176.8940  137.2810 C   0  0  0  0  0  0  0  0  0  0  0  0
  187.0780  178.6860  141.6110 O   0  0  0  0  0  0  0  0  0  0  0  0
  178.9510  175.6540  135.8340 C   0  0  0  0  0  2  0  0  0  0  0  0
  181.3340  176.4620  138.4530 C   0  0  0  0  0  3  0  0  0  0  0  0
  179.6140  173.1690  138.2440 O   0  0  0  0  0  1  0  0  0  0  0  0
  182.2900  178.3200  137.1900 C   0  0  1  0  0  3  0  0  0  0  0  0
  186.6250  178.0930  139.3970 N   0  0  0  0  0  0  0  0  0  0  0  0
  183.8740  178.8130  143.1510 C   0  0  0  0  0  1  0  0  0  0  0  0
  184.4850  179.6230  142.1560 O   0  0  0  0  0  0  0  0  0  0  0  0
  181.4720  179.3190  138.0120 C   0  0  0  0  0  2  0  0  0  0  0  0
  179.9160  179.7290  137.1630 S   0  0  0  0  0  0  0  0  0  0  0  0
  180.7530  181.0420  134.9170 C   0  0  0  0  0  1  0  0  0  0  0  0
  180.6010  181.2350  136.4120 C   0  0  0  0  0  2  0  0  0  0  0  0
  1  3  1  0  0  0  0
  2 27  1  0  0  0  0
  3  2  2  0  0  0  0
  4 23  1  6  0  0  0
  4 13  1  0  0  0  0
  5  8  1  0  0  0  0
  6  8  2  0  0  0  0
  6 11  1  0  0  0  0
  7  1  1  0  0  0  0
  7 25  2  0  0  0  0
  8  7  1  0  0  0  0
  9 17  1  0  0  0  0
  9 15  1  0  0  0  0
 10 12  1  0  0  0  0
 10  6  1  0  0  0  0
 11  1  2  0  0  0  0
 12 17  2  0  0  0  0
 13 14  1  1  0  0  0
 15  4  1  0  0  0  0
 16 21  1  0  0  0  0
 16 15  1  0  0  0  0
 17 19  1  0  0  0  0
 18  2  1  0  0  0  0
 18 20  2  0  0  0  0
 19 22  2  0  0  0  0
 21 15  1  0  0  0  0
 22 13  1  0  0  0  0
 24 19  1  0  0  0  0
 24 11  1  0  0  0  0
 24 28  1  1  0  0  0
 25 18  1  0  0  0  0
 27 26  1  0  0  0  0
 29 28  1  0  0  0  0
 30 31  1  0  0  0  0
 31 29  1  0  0  0  0
M  END
>  <MODEL>
7

>  <REMARK>
 VINA RESULT:      -4.1      2.200      2.996
  Name = 
  4 active torsions:
  status: ('A' for Active; 'I' for Inactive)
    1  A    between atoms: C_2  and  O_26
    2  A    between atoms: S_5  and  C_6
    3  A    between atoms: S_5  and  C_27
    4  A    between atoms: C_6  and  C_30
                            x       y       z     vdW  Elec       q    Type
                         _______ _______ _______ _____ _____    ______ ____

>  <TORSDO>
F 4

$$$$
=
 OpenBabel10222415273D

 31 35  0  0  1  0  0  0  0  0999 V2000
  185.4640  178.5030  139.7300 C   0  0  0  0  0  0  0  0  0  0  0  0
  183.2810  178.4490  140.7580 C   0  0  0  0  0  0  0  0  0  0  0  0
  184.0060  178.4020  139.6210 C   0  0  0  0  0  3  0  0  0  0  0  0
  186.5550  173.4310  136.3670 C   0  0  1  0  0  3  0  0  0  0  0  0
  188.7590  178.4070  142.0770 Cl  0  0  0  0  0  0  0  0  0  0  0  0
  187.7050  178.3320  139.5190 C   0  0  0  0  0  0  0  0  0  0  0  0
  186.0920  178.5990  141.0260 C   0  0  0  0  0  0  0  0  0  0  0  0
  187.5260  178.4790  140.8310 C   0  0  0  0  0  0  0  0  0  0  0  0
  188.5950  174.8470  136.9460 O   0  0  0  0  0  0  0  0  0  0  0  0
  188.9850  178.0740  138.8000 C   0  0  0  0  0  2  0  0  0  0  0  0
  186.4250  178.3770  138.8190 C   0  0  0  0  0  0  0  0  0  0  0  0
  189.0480  176.7400  138.1840 N   0  0  0  0  0  0  0  0  0  0  0  0
  185.9280  174.0780  137.6010 C   0  0  2  0  0  3  0  0  0  0  0  0
  184.3530  173.3260  137.9500 Cl  0  0  0  0  0  0  0  0  0  0  0  0
  187.8490  174.1310  135.9660 C   0  0  0  0  0  0  0  0  0  0  0  0
  188.6770  173.5110  134.8640 C   0  0  0  0  0  2  0  0  0  0  0  0
  188.1540  176.0470  137.5240 C   0  0  0  0  0  0  0  0  0  0  0  0
  183.9800  178.5730  142.0750 C   0  0  0  0  0  0  0  0  0  0  0  0
  186.7150  176.4600  137.3760 C   0  0  0  0  0  0  0  0  0  0  0  0
  183.3120  178.6330  143.1390 O   0  0  0  0  0  0  0  0  0  0  0  0
  187.8530  174.7650  134.5940 C   0  0  0  0  0  2  0  0  0  0  0  0
  185.7270  175.5530  137.4310 C   0  0  0  0  0  3  0  0  0  0  0  0
  186.8170  172.0850  136.6340 O   0  0  0  0  0  1  0  0  0  0  0  0
  186.3410  177.9140  137.4030 C   0  0  1  0  0  3  0  0  0  0  0  0
  185.4210  178.6060  142.1340 N   0  0  0  0  0  0  0  0  0  0  0  0
  181.0760  179.2330  139.9400 C   0  0  0  0  0  1  0  0  0  0  0  0
  181.8830  178.3740  140.7330 O   0  0  0  0  0  0  0  0  0  0  0  0
  185.0360  178.2620  136.6840 C   0  0  0  0  0  2  0  0  0  0  0  0
  184.8580  177.2800  135.1630 S   0  0  0  0  0  0  0  0  0  0  0  0
  182.4000  177.7720  136.2500 C   0  0  0  0  0  1  0  0  0  0  0  0
  183.2180  176.6550  135.6330 C   0  0  0  0  0  2  0  0  0  0  0  0
  1  7  1  0  0  0  0
  2 18  1  0  0  0  0
  3  1  1  0  0  0  0
  3  2  2  0  0  0  0
  4 23  1  1  0  0  0
  4 13  1  0  0  0  0
  6  8  2  0  0  0  0
  7 25  2  0  0  0  0
  8  7  1  0  0  0  0
  8  5  1  0  0  0  0
  9 17  1  0  0  0  0
 10  6  1  0  0  0  0
 11  6  1  0  0  0  0
 11  1  2  0  0  0  0
 12 10  1  0  0  0  0
 13 14  1  6  0  0  0
 15  4  1  0  0  0  0
 15  9  1  0  0  0  0
 16 15  1  0  0  0  0
 17 12  2  0  0  0  0
 18 25  1  0  0  0  0
 18 20  2  0  0  0  0
 19 24  1  0  0  0  0
 19 22  2  0  0  0  0
 19 17  1  0  0  0  0
 21 16  1  0  0  0  0
 21 15  1  0  0  0  0
 22 13  1  0  0  0  0
 24 28  1  1  0  0  0
 24 11  1  0  0  0  0
 26 27  1  0  0  0  0
 27  2  1  0  0  0  0
 29 31  1  0  0  0  0
 29 28  1  0  0  0  0
 31 30  1  0  0  0  0
M  END
>  <MODEL>
8

>  <REMARK>
 VINA RESULT:      -4.0      2.982      3.922
  Name = 
  4 active torsions:
  status: ('A' for Active; 'I' for Inactive)
    1  A    between atoms: C_2  and  O_26
    2  A    between atoms: S_5  and  C_6
    3  A    between atoms: S_5  and  C_27
    4  A    between atoms: C_6  and  C_30
                            x       y       z     vdW  Elec       q    Type
                         _______ _______ _______ _____ _____    ______ ____

>  <TORSDO>
F 4

$$$$
=
 OpenBabel10222415273D

 31 35  0  0  1  0  0  0  0  0999 V2000
  184.9580  174.8200  136.7780 C   0  0  0  0  0  0  0  0  0  0  0  0
  187.2930  174.3820  137.2010 C   0  0  0  0  0  0  0  0  0  0  0  0
  186.3360  175.2950  136.9370 C   0  0  0  0  0  3  0  0  0  0  0  0
  182.5910  178.8310  140.8450 C   0  0  1  0  0  3  0  0  0  0  0  0
  182.2700  171.8290  137.2270 Cl  0  0  0  0  0  0  0  0  0  0  0  0
  182.7200  174.5190  136.7610 C   0  0  0  0  0  0  0  0  0  0  0  0
  184.6450  173.4230  136.9520 C   0  0  0  0  0  0  0  0  0  0  0  0
  183.1990  173.2890  136.9380 C   0  0  0  0  0  0  0  0  0  0  0  0
  180.9010  177.4890  139.4860 O   0  0  0  0  0  0  0  0  0  0  0  0
  181.2930  174.9490  136.7680 C   0  0  0  0  0  2  0  0  0  0  0  0
  183.8120  175.4790  136.6290 C   0  0  0  0  0  0  0  0  0  0  0  0
  180.9460  175.8030  137.9130 N   0  0  0  0  0  0  0  0  0  0  0  0
  183.5420  177.6740  140.5440 C   0  0  2  0  0  3  0  0  0  0  0  0
  185.0610  177.8830  141.4490 Cl  0  0  0  0  0  0  0  0  0  0  0  0
  181.3270  178.7500  139.9950 C   0  0  0  0  0  0  0  0  0  0  0  0
  180.2130  179.7280  140.2890 C   0  0  0  0  0  2  0  0  0  0  0  0
  181.5900  176.7910  138.4840 C   0  0  0  0  0  0  0  0  0  0  0  0
  186.9190  172.9410  137.3480 C   0  0  0  0  0  0  0  0  0  0  0  0
  182.9980  177.1880  138.1330 C   0  0  0  0  0  0  0  0  0  0  0  0
  187.8080  172.0800  137.5790 O   0  0  0  0  0  0  0  0  0  0  0  0
  181.0930  179.9130  139.0580 C   0  0  0  0  0  2  0  0  0  0  0  0
  183.8660  177.5670  139.0850 C   0  0  0  0  0  3  0  0  0  0  0  0
  182.2450  178.8040  142.1980 O   0  0  0  0  0  1  0  0  0  0  0  0
  183.5300  176.9400  136.7510 C   0  0  1  0  0  3  0  0  0  0  0  0
  185.5400  172.5320  137.2450 N   0  0  0  0  0  0  0  0  0  0  0  0
  189.3100  175.5980  136.4260 C   0  0  0  0  0  1  0  0  0  0  0  0
  188.6340  174.7570  137.3510 O   0  0  0  0  0  0  0  0  0  0  0  0
  184.6760  177.8590  136.3220 C   0  0  0  0  0  2  0  0  0  0  0  0
  185.1600  177.5230  134.6010 S   0  0  0  0  0  0  0  0  0  0  0  0
  187.0520  178.5630  136.2760 C   0  0  0  0  0  1  0  0  0  0  0  0
  186.8100  178.2530  134.8130 C   0  0  0  0  0  2  0  0  0  0  0  0
  1  3  1  0  0  0  0
  1  7  1  0  0  0  0
  2 18  1  0  0  0  0
  2 27  1  0  0  0  0
  3  2  2  0  0  0  0
  4 23  1  1  0  0  0
  6 10  1  0  0  0  0
  6  8  2  0  0  0  0
  7 25  2  0  0  0  0
  8  7  1  0  0  0  0
  8  5  1  0  0  0  0
  9 15  1  0  0  0  0
 10 12  1  0  0  0  0
 11 24  1  0  0  0  0
 11  6  1  0  0  0  0
 11  1  2  0  0  0  0
 12 17  2  0  0  0  0
 13  4  1  0  0  0  0
 13 14  1  1  0  0  0
 15 16  1  0  0  0  0
 15  4  1  0  0  0  0
 17  9  1  0  0  0  0
 18 20  2  0  0  0  0
 19 17  1  0  0  0  0
 19 22  2  0  0  0  0
 21 15  1  0  0  0  0
 21 16  1  0  0  0  0
 22 13  1  0  0  0  0
 24 28  1  1  0  0  0
 24 19  1  0  0  0  0
 25 18  1  0  0  0  0
 26 27  1  0  0  0  0
 29 31  1  0  0  0  0
 29 28  1  0  0  0  0
 31 30  1  0  0  0  0
M  END
>  <MODEL>
9

>  <REMARK>
 VINA RESULT:      -3.6      3.195      6.590
  Name = 
  4 active torsions:
  status: ('A' for Active; 'I' for Inactive)
    1  A    between atoms: C_2  and  O_26
    2  A    between atoms: S_5  and  C_6
    3  A    between atoms: S_5  and  C_27
    4  A    between atoms: C_6  and  C_30
                            x       y       z     vdW  Elec       q    Type
                         _______ _______ _______ _____ _____    ______ ____

>  <TORSDO>
F 4

$$$$
