=
 OpenBabel10222417023D

 55 61  0  0  1  0  0  0  0  0999 V2000
  184.5070  178.7110  141.8310 C   0  0  0  0  0  3  0  0  0  0  0  0
  182.0980  178.5580  141.5360 C   0  0  0  0  0  0  0  0  0  0  0  0
  184.6900  178.5870  140.4530 C   0  0  0  0  0  3  0  0  0  0  0  0
  183.5840  178.4480  139.6120 C   0  0  0  0  0  0  0  0  0  0  0  0
  183.2210  178.6880  142.3810 C   0  0  0  0  0  0  0  0  0  0  0  0
  182.2940  178.4460  140.1500 C   0  0  0  0  0  3  0  0  0  0  0  0
  180.7080  178.5660  142.1010 C   0  0  2  0  0  3  0  0  0  0  0  0
  179.8390  177.4910  141.4690 C   0  0  0  0  0  1  0  0  0  0  0  0
  180.1730  180.7510  142.8210 O   0  0  0  0  0  0  0  0  0  0  0  0
  180.0830  179.9160  141.9370 C   0  0  0  0  0  3  0  0  0  0  0  0
  183.7700  178.3270  138.1380 C   0  0  0  0  0  2  0  0  0  0  0  0
  185.2130  172.1940  136.3290 C   0  0  0  0  0  3  0  0  0  0  0  0
  188.1930  174.3970  136.3120 C   0  0  0  0  0  0  0  0  0  0  0  0
  183.8430  172.2540  136.6200 C   0  0  0  0  0  0  0  0  0  0  0  0
  187.3790  173.2620  136.1700 C   0  0  0  0  0  3  0  0  0  0  0  0
  182.2630  175.9500  137.9610 O   0  0  0  0  0  0  0  0  0  0  0  0
  185.4490  174.5440  136.9060 C   0  0  0  0  0  0  0  0  0  0  0  0
  183.2830  173.4610  137.0570 C   0  0  0  0  0  3  0  0  0  0  0  0
  186.0150  173.3280  136.4660 C   0  0  0  0  0  0  0  0  0  0  0  0
  186.2650  175.6830  137.0410 C   0  0  0  0  0  0  0  0  0  0  0  0
  187.6290  175.6020  136.7480 C   0  0  0  0  0  3  0  0  0  0  0  0
  183.4890  175.8760  137.6740 C   0  0  0  0  0  0  0  0  0  0  0  0
  184.0750  174.6060  137.2060 C   0  0  0  0  0  0  0  0  0  0  0  0
  184.3370  177.0280  137.7940 N   0  0  0  0  0  0  0  0  0  0  0  0
  185.7010  176.9270  137.4660 N   0  0  0  0  0  2  0  0  0  0  0  0
  181.7430  171.1700  136.4310 O   0  0  0  0  0  1  0  0  0  0  0  0
  182.9970  171.0600  136.4750 C   0  0  0  0  0  0  0  0  0  0  0  0
  183.5750  169.7980  136.3760 O   0  0  0  0  0  0  0  0  0  0  0  0
  189.5630  174.3530  136.0380 O   0  0  0  0  0  0  0  0  0  0  0  0
  190.4980  173.7230  136.9030 C   0  0  0  0  0  2  0  0  0  0  0  0
  191.4450  174.7650  137.4680 C   0  0  0  0  0  2  0  0  0  0  0  0
  190.8600  175.3990  138.5680 O   0  0  0  0  0  0  0  0  0  0  0  0
  190.7770  176.7070  138.2200 N   0  0  0  0  0  0  0  0  0  0  0  0
  189.2500  178.5660  138.4250 C   0  0  0  0  0  1  0  0  0  0  0  0
  189.7710  177.2960  139.0670 C   0  0  2  0  0  3  0  0  0  0  0  0
  191.0920  177.4430  139.3510 O   0  0  0  0  0  0  0  0  0  0  0  0
  183.0740  178.8530  143.8560 C   0  0  0  0  0  2  0  0  0  0  0  0
  184.2940  179.3330  144.4050 O   0  0  0  0  0  0  0  0  0  0  0  0
  184.9230  178.7310  145.5000 C   0  0  0  0  0  0  0  0  0  0  0  0
  184.4510  178.9280  146.6500 O   0  0  0  0  0  0  0  0  0  0  0  0
  186.1450  177.9130  145.3600 C   0  0  0  0  0  0  0  0  0  0  0  0
  186.8190  177.6430  146.3880 O   0  0  0  0  0  0  0  0  0  0  0  0
  186.5700  177.4060  144.1280 O   0  0  0  0  0  0  0  0  0  0  0  0
  187.6830  176.5280  143.9810 C   0  0  0  0  0  2  0  0  0  0  0  0
  188.6620  177.0400  142.9170 C   0  0  2  0  0  0  0  0  0  0  0  0
  189.5630  178.1800  143.3950 C   0  0  2  0  0  3  0  0  0  0  0  0
  191.5910  176.2970  144.0390 C   0  0  0  0  0  2  0  0  0  0  0  0
  187.9600  177.4630  141.7890 O   0  0  0  0  0  1  0  0  0  0  0  0
  192.2810  178.2840  145.1440 F   0  0  0  0  0  0  0  0  0  0  0  0
  191.2700  177.3380  145.1280 C   0  0  2  0  0  0  0  0  0  0  0  0
  191.2330  176.6470  146.4750 C   0  0  0  0  0  1  0  0  0  0  0  0
  190.7410  178.0600  142.6340 O   0  0  0  0  0  0  0  0  0  0  0  0
  191.0000  176.6750  142.6670 C   0  0  2  0  0  3  0  0  0  0  0  0
  189.6570  175.9780  142.5170 C   0  0  0  0  0  2  0  0  0  0  0  0
  189.9290  178.0590  144.8960 C   0  0  0  0  0  2  0  0  0  0  0  0
  1  5  1  0  0  0  0
  2  7  1  0  0  0  0
  2  5  2  0  0  0  0
  3  1  2  0  0  0  0
  4  6  2  0  0  0  0
  4  3  1  0  0  0  0
  5 37  1  0  0  0  0
  6  2  1  0  0  0  0
  7  8  1  6  0  0  0
 10  7  1  0  0  0  0
 10  9  2  0  0  0  0
 11  4  1  0  0  0  0
 12 19  2  0  0  0  0
 12 14  1  0  0  0  0
 13 21  1  0  0  0  0
 14 18  2  0  0  0  0
 15 13  2  0  0  0  0
 15 19  1  0  0  0  0
 17 20  1  0  0  0  0
 17 23  2  0  0  0  0
 18 23  1  0  0  0  0
 19 17  1  0  0  0  0
 20 25  1  0  0  0  0
 21 20  2  0  0  0  0
 22 24  1  0  0  0  0
 22 16  2  0  0  0  0
 23 22  1  0  0  0  0
 24 11  1  0  0  0  0
 25 24  1  0  0  0  0
 26 27  1  0  0  0  0
 27 14  1  0  0  0  0
 28 27  2  0  0  0  0
 29 13  1  0  0  0  0
 29 30  1  0  0  0  0
 30 31  1  0  0  0  0
 31 32  1  0  0  0  0
 33 32  1  0  0  0  0
 33 35  1  0  0  0  0
 33 36  1  0  0  0  0
 35 34  1  6  0  0  0
 35 36  1  0  0  0  0
 37 38  1  0  0  0  0
 38 39  1  0  0  0  0
 39 40  2  0  0  0  0
 41 39  1  0  0  0  0
 41 42  2  0  0  0  0
 43 41  1  0  0  0  0
 44 43  1  0  0  0  0
 45 48  1  6  0  0  0
 45 46  1  0  0  0  0
 45 44  1  0  0  0  0
 46 55  1  1  0  0  0
 47 50  1  0  0  0  0
 50 49  1  0  0  0  0
 50 51  1  1  0  0  0
 52 53  1  0  0  0  0
 52 46  1  0  0  0  0
 53 54  1  1  0  0  0
 53 47  1  0  0  0  0
 54 45  1  0  0  0  0
 55 50  1  0  0  0  0
M  END
>  <MODEL>
1

>  <REMARK>
 VINA RESULT:      -8.7      0.000      0.000
  Name = 
  17 active torsions:
  status: ('A' for Active; 'I' for Inactive)
    1  A    between atoms: C_2  and  C_8
    2  A    between atoms: C_2  and  O_48
    3  A    between atoms: O_3  and  C_4
    4  A    between atoms: O_3  and  C_8
    5  A    between atoms: C_4  and  C_7
    6  A    between atoms: C_5  and  C_16
    7  A    between atoms: C_5  and  C_47
    8  A    between atoms: C_6  and  C_22
    9  A    between atoms: C_6  and  N_52
   10  A    between atoms: N_10  and  O_28
   11  A    between atoms: C_11  and  O_36
   12  A    between atoms: C_12  and  C_39
   13  A    between atoms: O_28  and  C_34
   14  A    between atoms: C_34  and  C_44
   15  A    between atoms: O_36  and  C_44
   16  A    between atoms: C_43  and  O_48
   17  A    between atoms: C_43  and  C_49
                            x       y       z     vdW  Elec       q    Type
                         _______ _______ _______ _____ _____    ______ ____

>  <TORSDO>
F 17

$$$$
=
 OpenBabel10222417023D

 55 61  0  0  1  0  0  0  0  0999 V2000
  184.6130  178.9390  142.4390 C   0  0  0  0  0  3  0  0  0  0  0  0
  182.2060  178.8070  142.1150 C   0  0  0  0  0  0  0  0  0  0  0  0
  184.8000  179.0420  141.0590 C   0  0  0  0  0  3  0  0  0  0  0  0
  183.6960  179.0280  140.2030 C   0  0  0  0  0  0  0  0  0  0  0  0
  183.3270  178.8120  142.9730 C   0  0  0  0  0  0  0  0  0  0  0  0
  182.4060  178.9230  140.7300 C   0  0  0  0  0  3  0  0  0  0  0  0
  180.8160  178.7060  142.6700 C   0  0  2  0  0  3  0  0  0  0  0  0
  179.8770  177.9990  141.7050 C   0  0  0  0  0  1  0  0  0  0  0  0
  179.8150  180.7830  142.1580 O   0  0  0  0  0  0  0  0  0  0  0  0
  180.2920  180.0640  143.0190 C   0  0  0  0  0  3  0  0  0  0  0  0
  183.8860  179.1490  138.7300 C   0  0  0  0  0  2  0  0  0  0  0  0
  186.7480  173.9230  135.9950 C   0  0  0  0  0  3  0  0  0  0  0  0
  189.1970  176.5620  136.8760 C   0  0  0  0  0  0  0  0  0  0  0  0
  185.3700  173.6770  136.0760 C   0  0  0  0  0  0  0  0  0  0  0  0
  188.6540  175.3630  136.3880 C   0  0  0  0  0  3  0  0  0  0  0  0
  182.9260  176.6450  137.8570 O   0  0  0  0  0  0  0  0  0  0  0  0
  186.4310  176.0900  137.0530 C   0  0  0  0  0  0  0  0  0  0  0  0
  184.5290  174.6380  136.6500 C   0  0  0  0  0  3  0  0  0  0  0  0
  187.2800  175.1210  136.4760 C   0  0  0  0  0  0  0  0  0  0  0  0
  186.9760  177.2950  137.5350 C   0  0  0  0  0  0  0  0  0  0  0  0
  188.3530  177.5210  137.4470 C   0  0  0  0  0  3  0  0  0  0  0  0
  184.1660  176.8530  137.7540 C   0  0  0  0  0  0  0  0  0  0  0  0
  185.0480  175.8420  137.1430 C   0  0  0  0  0  0  0  0  0  0  0  0
  184.7410  178.0790  138.2290 N   0  0  0  0  0  0  0  0  0  0  0  0
  186.1250  178.2950  138.1030 N   0  0  0  0  0  2  0  0  0  0  0  0
  185.3620  171.3180  135.8360 O   0  0  0  0  0  1  0  0  0  0  0  0
  184.8070  172.4160  135.5700 C   0  0  0  0  0  0  0  0  0  0  0  0
  183.6490  172.4250  134.7970 O   0  0  0  0  0  0  0  0  0  0  0  0
  190.5690  176.8210  136.8140 O   0  0  0  0  0  0  0  0  0  0  0  0
  191.5450  175.8880  137.2570 C   0  0  0  0  0  2  0  0  0  0  0  0
  192.4910  176.5680  138.2280 C   0  0  0  0  0  2  0  0  0  0  0  0
  193.8160  176.3640  137.8310 O   0  0  0  0  0  0  0  0  0  0  0  0
  194.0240  175.0300  137.9630 N   0  0  0  0  0  0  0  0  0  0  0  0
  195.2420  173.2480  136.8830 C   0  0  0  0  0  1  0  0  0  0  0  0
  195.2220  174.7240  137.2230 C   0  0  2  0  0  3  0  0  0  0  0  0
  195.2600  174.8770  138.5720 O   0  0  0  0  0  0  0  0  0  0  0  0
  183.1760  178.7340  144.4560 C   0  0  0  0  0  2  0  0  0  0  0  0
  184.3430  179.2510  145.0800 O   0  0  0  0  0  0  0  0  0  0  0  0
  185.0580  178.5470  146.0560 C   0  0  0  0  0  0  0  0  0  0  0  0
  184.5590  178.4390  147.2070 O   0  0  0  0  0  0  0  0  0  0  0  0
  186.3920  177.9680  145.7980 C   0  0  0  0  0  0  0  0  0  0  0  0
  187.0530  177.5060  146.7640 O   0  0  0  0  0  0  0  0  0  0  0  0
  186.9400  177.8920  144.5130 O   0  0  0  0  0  0  0  0  0  0  0  0
  187.6400  176.7520  144.0230 C   0  0  0  0  0  2  0  0  0  0  0  0
  188.6080  177.1330  142.8960 C   0  0  2  0  0  0  0  0  0  0  0  0
  189.5920  178.2430  143.2670 C   0  0  2  0  0  3  0  0  0  0  0  0
  191.5270  176.2830  143.9680 C   0  0  0  0  0  2  0  0  0  0  0  0
  187.8920  177.5240  141.7660 O   0  0  0  0  0  1  0  0  0  0  0  0
  192.3740  178.2900  144.9140 F   0  0  0  0  0  0  0  0  0  0  0  0
  191.3090  177.4100  144.9950 C   0  0  2  0  0  0  0  0  0  0  0  0
  191.2810  176.8110  146.3860 C   0  0  0  0  0  1  0  0  0  0  0  0
  190.7320  178.0010  142.4770 O   0  0  0  0  0  0  0  0  0  0  0  0
  190.9090  176.6080  142.5940 C   0  0  2  0  0  3  0  0  0  0  0  0
  189.5220  175.9870  142.5350 C   0  0  0  0  0  2  0  0  0  0  0  0
  190.0060  178.1960  144.7590 C   0  0  0  0  0  2  0  0  0  0  0  0
  1  5  1  0  0  0  0
  2  7  1  0  0  0  0
  2  5  2  0  0  0  0
  3  1  2  0  0  0  0
  4  6  2  0  0  0  0
  4  3  1  0  0  0  0
  5 37  1  0  0  0  0
  6  2  1  0  0  0  0
  7  8  1  6  0  0  0
  7 10  1  0  0  0  0
  9 10  2  0  0  0  0
 11  4  1  0  0  0  0
 12 14  2  0  0  0  0
 12 19  1  0  0  0  0
 13 21  1  0  0  0  0
 14 18  1  0  0  0  0
 15 19  1  0  0  0  0
 15 13  2  0  0  0  0
 17 23  1  0  0  0  0
 17 20  1  0  0  0  0
 18 23  2  0  0  0  0
 19 17  2  0  0  0  0
 20 25  1  0  0  0  0
 21 20  2  0  0  0  0
 22 16  2  0  0  0  0
 22 24  1  0  0  0  0
 23 22  1  0  0  0  0
 24 11  1  0  0  0  0
 25 24  1  0  0  0  0
 27 26  1  0  0  0  0
 27 14  1  0  0  0  0
 28 27  2  0  0  0  0
 29 13  1  0  0  0  0
 29 30  1  0  0  0  0
 30 31  1  0  0  0  0
 32 33  1  0  0  0  0
 32 31  1  0  0  0  0
 33 36  1  0  0  0  0
 35 34  1  1  0  0  0
 35 33  1  0  0  0  0
 35 36  1  0  0  0  0
 37 38  1  0  0  0  0
 38 39  1  0  0  0  0
 39 40  2  0  0  0  0
 41 39  1  0  0  0  0
 41 42  2  0  0  0  0
 43 41  1  0  0  0  0
 44 43  1  0  0  0  0
 45 48  1  6  0  0  0
 45 46  1  0  0  0  0
 45 44  1  0  0  0  0
 46 55  1  1  0  0  0
 47 50  1  0  0  0  0
 49 50  1  0  0  0  0
 50 51  1  1  0  0  0
 52 53  1  0  0  0  0
 52 46  1  0  0  0  0
 53 54  1  1  0  0  0
 53 47  1  0  0  0  0
 54 45  1  0  0  0  0
 55 50  1  0  0  0  0
M  END
>  <MODEL>
2

>  <REMARK>
 VINA RESULT:      -8.3      1.546      2.182
  Name = 
  17 active torsions:
  status: ('A' for Active; 'I' for Inactive)
    1  A    between atoms: C_2  and  C_8
    2  A    between atoms: C_2  and  O_48
    3  A    between atoms: O_3  and  C_4
    4  A    between atoms: O_3  and  C_8
    5  A    between atoms: C_4  and  C_7
    6  A    between atoms: C_5  and  C_16
    7  A    between atoms: C_5  and  C_47
    8  A    between atoms: C_6  and  C_22
    9  A    between atoms: C_6  and  N_52
   10  A    between atoms: N_10  and  O_28
   11  A    between atoms: C_11  and  O_36
   12  A    between atoms: C_12  and  C_39
   13  A    between atoms: O_28  and  C_34
   14  A    between atoms: C_34  and  C_44
   15  A    between atoms: O_36  and  C_44
   16  A    between atoms: C_43  and  O_48
   17  A    between atoms: C_43  and  C_49
                            x       y       z     vdW  Elec       q    Type
                         _______ _______ _______ _____ _____    ______ ____

>  <TORSDO>
F 17

$$$$
=
 OpenBabel10222417023D

 55 61  0  0  1  0  0  0  0  0999 V2000
  185.1600  175.8640  136.7070 C   0  0  0  0  0  3  0  0  0  0  0  0
  187.3720  174.8560  136.6180 C   0  0  0  0  0  0  0  0  0  0  0  0
  185.6980  177.0080  137.3000 C   0  0  0  0  0  3  0  0  0  0  0  0
  187.0700  177.0820  137.5530 C   0  0  0  0  0  0  0  0  0  0  0  0
  185.9830  174.7840  136.3730 C   0  0  0  0  0  0  0  0  0  0  0  0
  187.9040  176.0160  137.2030 C   0  0  0  0  0  3  0  0  0  0  0  0
  188.2780  173.7230  136.2350 C   0  0  2  0  0  3  0  0  0  0  0  0
  188.1890  172.5740  137.2280 C   0  0  0  0  0  1  0  0  0  0  0  0
  190.5820  173.6830  136.7540 O   0  0  0  0  0  0  0  0  0  0  0  0
  189.6890  174.2020  136.1040 C   0  0  0  0  0  3  0  0  0  0  0  0
  187.6540  178.3040  138.1750 C   0  0  0  0  0  2  0  0  0  0  0  0
  185.9670  178.1110  144.5070 C   0  0  0  0  0  3  0  0  0  0  0  0
  189.4310  176.9190  143.9430 C   0  0  0  0  0  0  0  0  0  0  0  0
  184.8800  178.6160  143.7790 C   0  0  0  0  0  0  0  0  0  0  0  0
  188.2320  177.2610  144.5880 C   0  0  0  0  0  3  0  0  0  0  0  0
  185.3510  179.0960  139.5950 O   0  0  0  0  0  0  0  0  0  0  0  0
  187.2680  177.9320  142.4600 C   0  0  0  0  0  0  0  0  0  0  0  0
  184.9950  178.7800  142.3930 C   0  0  0  0  0  3  0  0  0  0  0  0
  187.1540  177.7670  143.8570 C   0  0  0  0  0  0  0  0  0  0  0  0
  188.4680  177.5830  141.8140 C   0  0  0  0  0  0  0  0  0  0  0  0
  189.5410  177.0840  142.5570 C   0  0  0  0  0  3  0  0  0  0  0  0
  186.3070  178.6250  140.2690 C   0  0  0  0  0  0  0  0  0  0  0  0
  186.1820  178.4460  141.7270 C   0  0  0  0  0  0  0  0  0  0  0  0
  187.5360  178.2520  139.6280 N   0  0  0  0  0  0  0  0  0  0  0  0
  188.5900  177.7250  140.3950 N   0  0  0  0  0  2  0  0  0  0  0  0
  182.5850  179.2090  143.7970 O   0  0  0  0  0  0  0  0  0  0  0  0
  183.6290  178.9780  144.4610 C   0  0  0  0  0  0  0  0  0  0  0  0
  183.5860  179.0580  145.8500 O   0  0  0  0  0  1  0  0  0  0  0  0
  190.5290  176.4250  144.6540 O   0  0  0  0  0  0  0  0  0  0  0  0
  191.2650  177.2190  145.5740 C   0  0  0  0  0  2  0  0  0  0  0  0
  191.4660  176.4430  146.8620 C   0  0  0  0  0  2  0  0  0  0  0  0
  190.2530  176.3260  147.5470 O   0  0  0  0  0  0  0  0  0  0  0  0
  189.6850  177.5560  147.4750 N   0  0  0  0  0  0  0  0  0  0  0  0
  187.5660  178.6270  147.9130 C   0  0  0  0  0  1  0  0  0  0  0  0
  188.5200  177.5230  148.3220 C   0  0  2  0  0  3  0  0  0  0  0  0
  189.6830  178.0710  148.7620 O   0  0  0  0  0  0  0  0  0  0  0  0
  185.3670  173.5950  135.7150 C   0  0  0  0  0  2  0  0  0  0  0  0
  184.0530  173.9200  135.2820 O   0  0  0  0  0  0  0  0  0  0  0  0
  182.9370  173.1320  135.5840 C   0  0  0  0  0  0  0  0  0  0  0  0
  182.9050  171.9460  135.1630 O   0  0  0  0  0  0  0  0  0  0  0  0
  181.7770  173.6540  136.3360 C   0  0  0  0  0  0  0  0  0  0  0  0
  180.6250  173.2470  136.0390 O   0  0  0  0  0  0  0  0  0  0  0  0
  181.9160  174.5710  137.3840 O   0  0  0  0  0  0  0  0  0  0  0  0
  181.2090  175.8060  137.4450 C   0  0  0  0  0  2  0  0  0  0  0  0
  181.3730  176.4760  138.8160 C   0  0  2  0  0  0  0  0  0  0  0  0
  182.3250  177.6720  138.8160 C   0  0  2  0  0  3  0  0  0  0  0  0
  180.1130  179.4220  138.4720 C   0  0  0  0  0  2  0  0  0  0  0  0
  181.8210  175.5420  139.7500 O   0  0  0  0  0  1  0  0  0  0  0  0
  181.9990  180.7740  137.9640 F   0  0  0  0  0  0  0  0  0  0  0  0
  181.3090  179.6560  137.5290 C   0  0  2  0  0  0  0  0  0  0  0  0
  180.7900  179.9210  136.1310 C   0  0  0  0  0  1  0  0  0  0  0  0
  181.8640  178.5070  139.8510 O   0  0  0  0  0  0  0  0  0  0  0  0
  180.4680  178.5070  139.6600 C   0  0  2  0  0  3  0  0  0  0  0  0
  180.0780  177.0830  139.2990 C   0  0  0  0  0  2  0  0  0  0  0  0
  182.2840  178.4650  137.4850 C   0  0  0  0  0  2  0  0  0  0  0  0
  1  3  1  0  0  0  0
  2  6  2  0  0  0  0
  3  4  2  0  0  0  0
  4 11  1  0  0  0  0
  5  2  1  0  0  0  0
  5  1  2  0  0  0  0
  6  4  1  0  0  0  0
  7  2  1  0  0  0  0
  7  8  1  1  0  0  0
 10  7  1  0  0  0  0
 10  9  2  0  0  0  0
 11 24  1  0  0  0  0
 13 15  1  0  0  0  0
 13 29  1  0  0  0  0
 14 27  1  0  0  0  0
 14 12  2  0  0  0  0
 16 22  2  0  0  0  0
 17 19  1  0  0  0  0
 18 14  1  0  0  0  0
 19 12  1  0  0  0  0
 19 15  2  0  0  0  0
 20 17  2  0  0  0  0
 20 21  1  0  0  0  0
 21 13  2  0  0  0  0
 22 23  1  0  0  0  0
 23 18  2  0  0  0  0
 23 17  1  0  0  0  0
 24 22  1  0  0  0  0
 24 25  1  0  0  0  0
 25 20  1  0  0  0  0
 26 27  2  0  0  0  0
 27 28  1  0  0  0  0
 29 30  1  0  0  0  0
 30 31  1  0  0  0  0
 31 32  1  0  0  0  0
 33 32  1  0  0  0  0
 33 35  1  0  0  0  0
 33 36  1  0  0  0  0
 35 34  1  6  0  0  0
 35 36  1  0  0  0  0
 37  5  1  0  0  0  0
 38 39  1  0  0  0  0
 38 37  1  0  0  0  0
 39 41  1  0  0  0  0
 40 39  2  0  0  0  0
 41 43  1  0  0  0  0
 42 41  2  0  0  0  0
 43 44  1  0  0  0  0
 44 45  1  0  0  0  0
 45 54  1  0  0  0  0
 45 48  1  1  0  0  0
 46 55  1  6  0  0  0
 46 45  1  0  0  0  0
 46 52  1  0  0  0  0
 50 51  1  6  0  0  0
 50 49  1  0  0  0  0
 50 47  1  0  0  0  0
 53 47  1  6  0  0  0
 53 52  1  0  0  0  0
 54 53  1  0  0  0  0
 55 50  1  0  0  0  0
M  END
>  <MODEL>
3

>  <REMARK>
 VINA RESULT:      -8.0      2.978      9.521
  Name = 
  17 active torsions:
  status: ('A' for Active; 'I' for Inactive)
    1  A    between atoms: C_2  and  C_8
    2  A    between atoms: C_2  and  O_48
    3  A    between atoms: O_3  and  C_4
    4  A    between atoms: O_3  and  C_8
    5  A    between atoms: C_4  and  C_7
    6  A    between atoms: C_5  and  C_16
    7  A    between atoms: C_5  and  C_47
    8  A    between atoms: C_6  and  C_22
    9  A    between atoms: C_6  and  N_52
   10  A    between atoms: N_10  and  O_28
   11  A    between atoms: C_11  and  O_36
   12  A    between atoms: C_12  and  C_39
   13  A    between atoms: O_28  and  C_34
   14  A    between atoms: C_34  and  C_44
   15  A    between atoms: O_36  and  C_44
   16  A    between atoms: C_43  and  O_48
   17  A    between atoms: C_43  and  C_49
                            x       y       z     vdW  Elec       q    Type
                         _______ _______ _______ _____ _____    ______ ____

>  <TORSDO>
F 17

$$$$
=
 OpenBabel10222417023D

 55 61  0  0  1  0  0  0  0  0999 V2000
  184.1050  178.4570  141.5280 C   0  0  0  0  0  3  0  0  0  0  0  0
  182.0500  178.7200  142.8030 C   0  0  0  0  0  0  0  0  0  0  0  0
  184.8480  178.4790  142.7110 C   0  0  0  0  0  3  0  0  0  0  0  0
  184.2000  178.6210  143.9390 C   0  0  0  0  0  0  0  0  0  0  0  0
  182.7130  178.5850  141.5640 C   0  0  0  0  0  0  0  0  0  0  0  0
  182.8070  178.7300  143.9850 C   0  0  0  0  0  3  0  0  0  0  0  0
  180.5540  178.8250  142.8650 C   0  0  2  0  0  3  0  0  0  0  0  0
  180.0930  180.2740  142.8660 C   0  0  0  0  0  1  0  0  0  0  0  0
  179.0290  178.5000  144.6380 O   0  0  0  0  0  0  0  0  0  0  0  0
  180.0280  178.1010  144.0640 C   0  0  0  0  0  3  0  0  0  0  0  0
  184.9840  178.6350  145.2060 C   0  0  0  0  0  2  0  0  0  0  0  0
  191.1970  176.5440  145.2560 C   0  0  0  0  0  3  0  0  0  0  0  0
  189.7850  176.6590  141.8310 C   0  0  0  0  0  0  0  0  0  0  0  0
  190.8180  176.8270  146.5770 C   0  0  0  0  0  0  0  0  0  0  0  0
  190.6800  176.4550  142.8930 C   0  0  0  0  0  3  0  0  0  0  0  0
  186.9130  178.3310  147.2400 O   0  0  0  0  0  0  0  0  0  0  0  0
  189.0020  177.2360  144.4690 C   0  0  0  0  0  0  0  0  0  0  0  0
  189.5320  177.3170  146.8360 C   0  0  0  0  0  3  0  0  0  0  0  0
  190.2980  176.7430  144.2060 C   0  0  0  0  0  0  0  0  0  0  0  0
  188.1030  177.4320  143.4050 C   0  0  0  0  0  0  0  0  0  0  0  0
  188.5000  177.1480  142.0960 C   0  0  0  0  0  3  0  0  0  0  0  0
  187.2700  178.0510  146.0630 C   0  0  0  0  0  0  0  0  0  0  0  0
  188.6210  177.5280  145.7930 C   0  0  0  0  0  0  0  0  0  0  0  0
  186.3640  178.2330  144.9640 N   0  0  0  0  0  0  0  0  0  0  0  0
  186.7790  177.9120  143.6590 N   0  0  0  0  0  2  0  0  0  0  0  0
  191.9810  177.5350  148.5170 O   0  0  0  0  0  1  0  0  0  0  0  0
  191.7630  176.6170  147.6840 C   0  0  0  0  0  0  0  0  0  0  0  0
  192.4190  175.3970  147.8260 O   0  0  0  0  0  0  0  0  0  0  0  0
  190.1480  176.3940  140.5080 O   0  0  0  0  0  0  0  0  0  0  0  0
  191.2470  177.0320  139.8730 C   0  0  0  0  0  2  0  0  0  0  0  0
  191.3690  176.5290  138.4470 C   0  0  0  0  0  2  0  0  0  0  0  0
  191.2460  175.1370  138.4170 O   0  0  0  0  0  0  0  0  0  0  0  0
  190.2640  174.8870  137.5150 N   0  0  0  0  0  0  0  0  0  0  0  0
  190.0050  174.0080  135.2820 C   0  0  0  0  0  1  0  0  0  0  0  0
  190.8030  173.9450  136.5680 C   0  0  2  0  0  3  0  0  0  0  0  0
  189.9980  173.5280  137.5800 O   0  0  0  0  0  0  0  0  0  0  0  0
  181.9590  178.5260  140.2770 C   0  0  0  0  0  2  0  0  0  0  0  0
  182.0600  177.2200  139.7270 O   0  0  0  0  0  0  0  0  0  0  0  0
  181.1680  176.7280  138.7670 C   0  0  0  0  0  0  0  0  0  0  0  0
  180.4210  177.5440  138.1660 O   0  0  0  0  0  0  0  0  0  0  0  0
  181.0400  175.2870  138.4690 C   0  0  0  0  0  0  0  0  0  0  0  0
  180.3070  174.5760  139.2050 O   0  0  0  0  0  0  0  0  0  0  0  0
  181.6850  174.6860  137.3830 O   0  0  0  0  0  0  0  0  0  0  0  0
  182.8780  175.1990  136.7970 C   0  0  0  0  0  2  0  0  0  0  0  0
  183.8540  174.0720  136.4400 C   0  0  2  0  0  0  0  0  0  0  0  0
  184.7890  174.4000  135.2760 C   0  0  2  0  0  3  0  0  0  0  0  0
  186.7790  175.2410  137.1210 C   0  0  0  0  0  2  0  0  0  0  0  0
  183.1470  172.9090  136.1360 O   0  0  0  0  0  1  0  0  0  0  0  0
  187.5330  176.0940  135.0360 F   0  0  0  0  0  0  0  0  0  0  0  0
  186.5000  176.2020  135.9500 C   0  0  2  0  0  0  0  0  0  0  0  0
  186.4650  177.6220  136.4750 C   0  0  0  0  0  1  0  0  0  0  0  0
  185.9530  173.6460  135.5160 O   0  0  0  0  0  0  0  0  0  0  0  0
  186.1790  173.8400  136.8930 C   0  0  2  0  0  3  0  0  0  0  0  0
  184.8170  173.7890  137.5680 C   0  0  0  0  0  2  0  0  0  0  0  0
  185.1730  175.9010  135.2270 C   0  0  0  0  0  2  0  0  0  0  0  0
  1  5  2  0  0  0  0
  1  3  1  0  0  0  0
  2  7  1  0  0  0  0
  2  6  2  0  0  0  0
  3  4  2  0  0  0  0
  4  6  1  0  0  0  0
  4 11  1  0  0  0  0
  5  2  1  0  0  0  0
  7  8  1  1  0  0  0
  7 10  1  0  0  0  0
 10  9  2  0  0  0  0
 12 14  1  0  0  0  0
 13 21  1  0  0  0  0
 13 15  2  0  0  0  0
 14 18  2  0  0  0  0
 14 27  1  0  0  0  0
 15 19  1  0  0  0  0
 17 23  2  0  0  0  0
 19 17  1  0  0  0  0
 19 12  2  0  0  0  0
 20 25  1  0  0  0  0
 20 17  1  0  0  0  0
 21 20  2  0  0  0  0
 22 16  2  0  0  0  0
 23 22  1  0  0  0  0
 23 18  1  0  0  0  0
 24 11  1  0  0  0  0
 24 22  1  0  0  0  0
 25 24  1  0  0  0  0
 27 28  2  0  0  0  0
 27 26  1  0  0  0  0
 29 13  1  0  0  0  0
 30 29  1  0  0  0  0
 31 30  1  0  0  0  0
 32 31  1  0  0  0  0
 33 36  1  0  0  0  0
 33 32  1  0  0  0  0
 35 34  1  6  0  0  0
 35 33  1  0  0  0  0
 35 36  1  0  0  0  0
 37  5  1  0  0  0  0
 38 37  1  0  0  0  0
 39 38  1  0  0  0  0
 40 39  2  0  0  0  0
 41 39  1  0  0  0  0
 41 42  2  0  0  0  0
 43 41  1  0  0  0  0
 44 43  1  0  0  0  0
 45 48  1  6  0  0  0
 45 44  1  0  0  0  0
 45 54  1  0  0  0  0
 46 55  1  1  0  0  0
 46 52  1  0  0  0  0
 46 45  1  0  0  0  0
 49 50  1  0  0  0  0
 50 51  1  1  0  0  0
 50 47  1  0  0  0  0
 52 53  1  0  0  0  0
 53 47  1  6  0  0  0
 53 54  1  0  0  0  0
 55 50  1  0  0  0  0
M  END
>  <MODEL>
4

>  <REMARK>
 VINA RESULT:      -8.0      2.779      8.279
  Name = 
  17 active torsions:
  status: ('A' for Active; 'I' for Inactive)
    1  A    between atoms: C_2  and  C_8
    2  A    between atoms: C_2  and  O_48
    3  A    between atoms: O_3  and  C_4
    4  A    between atoms: O_3  and  C_8
    5  A    between atoms: C_4  and  C_7
    6  A    between atoms: C_5  and  C_16
    7  A    between atoms: C_5  and  C_47
    8  A    between atoms: C_6  and  C_22
    9  A    between atoms: C_6  and  N_52
   10  A    between atoms: N_10  and  O_28
   11  A    between atoms: C_11  and  O_36
   12  A    between atoms: C_12  and  C_39
   13  A    between atoms: O_28  and  C_34
   14  A    between atoms: C_34  and  C_44
   15  A    between atoms: O_36  and  C_44
   16  A    between atoms: C_43  and  O_48
   17  A    between atoms: C_43  and  C_49
                            x       y       z     vdW  Elec       q    Type
                         _______ _______ _______ _____ _____    ______ ____

>  <TORSDO>
F 17

$$$$
=
 OpenBabel10222417023D

 55 61  0  0  1  0  0  0  0  0999 V2000
  183.8100  178.3040  141.4840 C   0  0  0  0  0  3  0  0  0  0  0  0
  181.8510  178.7940  142.8400 C   0  0  0  0  0  0  0  0  0  0  0  0
  184.6150  178.3380  142.6240 C   0  0  0  0  0  3  0  0  0  0  0  0
  184.0460  178.6000  143.8730 C   0  0  0  0  0  0  0  0  0  0  0  0
  182.4340  178.5380  141.5810 C   0  0  0  0  0  0  0  0  0  0  0  0
  182.6690  178.8150  143.9810 C   0  0  0  0  0  3  0  0  0  0  0  0
  180.3720  179.0140  142.9700 C   0  0  2  0  0  3  0  0  0  0  0  0
  180.0100  180.4850  142.8310 C   0  0  0  0  0  1  0  0  0  0  0  0
  179.5990  177.2840  144.3790 O   0  0  0  0  0  0  0  0  0  0  0  0
  179.8730  178.4670  144.2710 C   0  0  0  0  0  3  0  0  0  0  0  0
  184.8970  178.6270  145.0960 C   0  0  0  0  0  2  0  0  0  0  0  0
  191.1600  176.7330  144.6900 C   0  0  0  0  0  3  0  0  0  0  0  0
  189.6940  177.4510  141.3620 C   0  0  0  0  0  0  0  0  0  0  0  0
  190.7940  176.7520  146.0440 C   0  0  0  0  0  0  0  0  0  0  0  0
  190.6110  177.0760  142.3580 C   0  0  0  0  0  3  0  0  0  0  0  0
  186.8630  177.9990  147.0170 O   0  0  0  0  0  0  0  0  0  0  0  0
  188.9370  177.5010  144.0690 C   0  0  0  0  0  0  0  0  0  0  0  0
  189.5010  177.1500  146.4040 C   0  0  0  0  0  3  0  0  0  0  0  0
  190.2410  177.1010  143.7050 C   0  0  0  0  0  0  0  0  0  0  0  0
  188.0180  177.8690  143.0700 C   0  0  0  0  0  0  0  0  0  0  0  0
  188.4020  177.8460  141.7260 C   0  0  0  0  0  3  0  0  0  0  0  0
  187.2090  177.9550  145.8050 C   0  0  0  0  0  0  0  0  0  0  0  0
  188.5690  177.5290  145.4270 C   0  0  0  0  0  0  0  0  0  0  0  0
  186.2830  178.3160  144.7690 N   0  0  0  0  0  0  0  0  0  0  0  0
  186.6860  178.2570  143.4230 N   0  0  0  0  0  2  0  0  0  0  0  0
  192.4220  175.3000  146.9710 O   0  0  0  0  0  0  0  0  0  0  0  0
  191.7600  176.3650  147.0820 C   0  0  0  0  0  0  0  0  0  0  0  0
  191.9580  177.1770  148.1950 O   0  0  0  0  0  1  0  0  0  0  0  0
  190.0440  177.4490  140.0090 O   0  0  0  0  0  0  0  0  0  0  0  0
  189.3470  178.2150  139.0360 C   0  0  0  0  0  2  0  0  0  0  0  0
  189.3860  177.4950  137.7020 C   0  0  0  0  0  2  0  0  0  0  0  0
  190.4990  176.6520  137.6440 O   0  0  0  0  0  0  0  0  0  0  0  0
  189.9910  175.3950  137.6040 N   0  0  0  0  0  0  0  0  0  0  0  0
  190.0470  173.4380  136.1920 C   0  0  0  0  0  1  0  0  0  0  0  0
  190.8150  174.6450  136.6900 C   0  0  2  0  0  3  0  0  0  0  0  0
  190.9960  174.5430  138.0330 O   0  0  0  0  0  0  0  0  0  0  0  0
  181.6100  178.4620  140.3390 C   0  0  0  0  0  2  0  0  0  0  0  0
  181.4170  177.1000  139.9800 O   0  0  0  0  0  0  0  0  0  0  0  0
  180.1520  176.5090  139.8950 C   0  0  0  0  0  0  0  0  0  0  0  0
  179.1510  177.1700  140.2780 O   0  0  0  0  0  0  0  0  0  0  0  0
  179.9540  175.1250  139.4160 C   0  0  0  0  0  0  0  0  0  0  0  0
  179.7230  174.2170  140.2560 O   0  0  0  0  0  0  0  0  0  0  0  0
  179.9920  174.7900  138.0590 O   0  0  0  0  0  0  0  0  0  0  0  0
  181.2010  174.5570  137.3410 C   0  0  0  0  0  2  0  0  0  0  0  0
  181.0360  173.4210  136.3230 C   0  0  2  0  0  0  0  0  0  0  0  0
  182.2000  173.2890  135.3410 C   0  0  2  0  0  3  0  0  0  0  0  0
  183.3790  171.3200  137.0150 C   0  0  0  0  0  2  0  0  0  0  0  0
  179.8550  173.5970  135.6030 O   0  0  0  0  0  1  0  0  0  0  0  0
  185.1310  171.9370  135.5330 F   0  0  0  0  0  0  0  0  0  0  0  0
  184.3180  172.4420  136.5330 C   0  0  2  0  0  0  0  0  0  0  0  0
  185.1910  172.8850  137.6890 C   0  0  0  0  0  1  0  0  0  0  0  0
  182.2290  171.9270  134.9870 O   0  0  0  0  0  0  0  0  0  0  0  0
  182.0570  171.2750  136.2240 C   0  0  2  0  0  3  0  0  0  0  0  0
  181.0140  172.0690  136.9940 C   0  0  0  0  0  2  0  0  0  0  0  0
  183.5610  173.6640  135.9780 C   0  0  0  0  0  2  0  0  0  0  0  0
  1  5  2  0  0  0  0
  1  3  1  0  0  0  0
  2  7  1  0  0  0  0
  2  6  2  0  0  0  0
  3  4  2  0  0  0  0
  4  6  1  0  0  0  0
  4 11  1  0  0  0  0
  5  2  1  0  0  0  0
  7  8  1  1  0  0  0
  7 10  1  0  0  0  0
 10  9  2  0  0  0  0
 12 14  1  0  0  0  0
 13 21  1  0  0  0  0
 13 15  2  0  0  0  0
 14 18  2  0  0  0  0
 14 27  1  0  0  0  0
 15 19  1  0  0  0  0
 17 23  2  0  0  0  0
 19 17  1  0  0  0  0
 19 12  2  0  0  0  0
 20 25  1  0  0  0  0
 20 17  1  0  0  0  0
 21 20  2  0  0  0  0
 22 16  2  0  0  0  0
 23 22  1  0  0  0  0
 23 18  1  0  0  0  0
 24 11  1  0  0  0  0
 24 22  1  0  0  0  0
 25 24  1  0  0  0  0
 26 27  2  0  0  0  0
 27 28  1  0  0  0  0
 29 13  1  0  0  0  0
 30 29  1  0  0  0  0
 31 30  1  0  0  0  0
 32 31  1  0  0  0  0
 33 32  1  0  0  0  0
 33 36  1  0  0  0  0
 35 34  1  1  0  0  0
 35 33  1  0  0  0  0
 35 36  1  0  0  0  0
 37  5  1  0  0  0  0
 38 37  1  0  0  0  0
 39 38  1  0  0  0  0
 39 40  2  0  0  0  0
 41 39  1  0  0  0  0
 41 42  2  0  0  0  0
 43 41  1  0  0  0  0
 44 43  1  0  0  0  0
 45 48  1  6  0  0  0
 45 54  1  0  0  0  0
 45 44  1  0  0  0  0
 46 55  1  1  0  0  0
 46 45  1  0  0  0  0
 49 50  1  0  0  0  0
 50 47  1  0  0  0  0
 50 51  1  1  0  0  0
 52 46  1  0  0  0  0
 52 53  1  0  0  0  0
 53 54  1  1  0  0  0
 53 47  1  0  0  0  0
 55 50  1  0  0  0  0
M  END
>  <MODEL>
5

>  <REMARK>
 VINA RESULT:      -7.8      2.986      8.740
  Name = 
  17 active torsions:
  status: ('A' for Active; 'I' for Inactive)
    1  A    between atoms: C_2  and  C_8
    2  A    between atoms: C_2  and  O_48
    3  A    between atoms: O_3  and  C_4
    4  A    between atoms: O_3  and  C_8
    5  A    between atoms: C_4  and  C_7
    6  A    between atoms: C_5  and  C_16
    7  A    between atoms: C_5  and  C_47
    8  A    between atoms: C_6  and  C_22
    9  A    between atoms: C_6  and  N_52
   10  A    between atoms: N_10  and  O_28
   11  A    between atoms: C_11  and  O_36
   12  A    between atoms: C_12  and  C_39
   13  A    between atoms: O_28  and  C_34
   14  A    between atoms: C_34  and  C_44
   15  A    between atoms: O_36  and  C_44
   16  A    between atoms: C_43  and  O_48
   17  A    between atoms: C_43  and  C_49
                            x       y       z     vdW  Elec       q    Type
                         _______ _______ _______ _____ _____    ______ ____

>  <TORSDO>
F 17

$$$$
=
 OpenBabel10222417023D

 55 61  0  0  1  0  0  0  0  0999 V2000
  182.4670  178.6660  144.0960 C   0  0  0  0  0  3  0  0  0  0  0  0
  184.3940  178.6300  142.6120 C   0  0  0  0  0  0  0  0  0  0  0  0
  183.3140  178.6950  145.2060 C   0  0  0  0  0  3  0  0  0  0  0  0
  184.6990  178.6910  145.0260 C   0  0  0  0  0  0  0  0  0  0  0  0
  182.9950  178.6240  142.8020 C   0  0  0  0  0  0  0  0  0  0  0  0
  185.2360  178.6710  143.7350 C   0  0  0  0  0  3  0  0  0  0  0  0
  184.9810  178.6200  141.2310 C   0  0  2  0  0  3  0  0  0  0  0  0
  186.4720  178.9160  141.2540 C   0  0  0  0  0  1  0  0  0  0  0  0
  184.5210  179.6560  139.1590 O   0  0  0  0  0  0  0  0  0  0  0  0
  184.2610  179.5900  140.3490 C   0  0  0  0  0  3  0  0  0  0  0  0
  185.6100  178.7330  146.2040 C   0  0  0  0  0  2  0  0  0  0  0  0
  191.6810  176.3070  145.7210 C   0  0  0  0  0  3  0  0  0  0  0  0
  190.0020  176.5470  142.4260 C   0  0  0  0  0  0  0  0  0  0  0  0
  191.4280  176.5900  147.0710 C   0  0  0  0  0  0  0  0  0  0  0  0
  190.9690  176.2800  143.4080 C   0  0  0  0  0  3  0  0  0  0  0  0
  187.6790  178.2950  148.0690 O   0  0  0  0  0  0  0  0  0  0  0  0
  189.4700  177.1280  145.1250 C   0  0  0  0  0  0  0  0  0  0  0  0
  190.1970  177.1460  147.4410 C   0  0  0  0  0  3  0  0  0  0  0  0
  190.7120  176.5690  144.7510 C   0  0  0  0  0  0  0  0  0  0  0  0
  188.5000  177.3880  144.1400 C   0  0  0  0  0  0  0  0  0  0  0  0
  188.7720  177.1010  142.8000 C   0  0  0  0  0  3  0  0  0  0  0  0
  187.9230  178.0130  146.8640 C   0  0  0  0  0  0  0  0  0  0  0  0
  189.2160  177.4210  146.4780 C   0  0  0  0  0  0  0  0  0  0  0  0
  186.9420  178.2600  145.8450 N   0  0  0  0  0  0  0  0  0  0  0  0
  187.2300  177.9360  144.5080 N   0  0  0  0  0  2  0  0  0  0  0  0
  193.1170  175.2490  148.0550 O   0  0  0  0  0  0  0  0  0  0  0  0
  192.4470  176.3140  148.0940 C   0  0  0  0  0  0  0  0  0  0  0  0
  192.6870  177.2330  149.1120 O   0  0  0  0  0  1  0  0  0  0  0  0
  190.2400  176.2820  141.0740 O   0  0  0  0  0  0  0  0  0  0  0  0
  189.3980  176.7680  140.0380 C   0  0  0  0  0  2  0  0  0  0  0  0
  190.1200  177.8580  139.2690 C   0  0  0  0  0  2  0  0  0  0  0  0
  190.2100  177.5130  137.9180 O   0  0  0  0  0  0  0  0  0  0  0  0
  188.9350  177.2630  137.5300 N   0  0  0  0  0  0  0  0  0  0  0  0
  187.2100  178.2440  136.1550 C   0  0  0  0  0  1  0  0  0  0  0  0
  188.7010  178.0530  136.3480 C   0  0  2  0  0  3  0  0  0  0  0  0
  189.0030  176.7320  136.2510 O   0  0  0  0  0  0  0  0  0  0  0  0
  182.0500  178.6240  141.6460 C   0  0  0  0  0  2  0  0  0  0  0  0
  180.9180  179.4250  141.9590 O   0  0  0  0  0  0  0  0  0  0  0  0
  180.2880  180.2490  141.0190 C   0  0  0  0  0  0  0  0  0  0  0  0
  179.4430  181.0890  141.4250 O   0  0  0  0  0  0  0  0  0  0  0  0
  180.5440  180.1360  139.5680 C   0  0  0  0  0  0  0  0  0  0  0  0
  181.0910  181.0980  138.9690 O   0  0  0  0  0  0  0  0  0  0  0  0
  180.2210  178.9870  138.8380 O   0  0  0  0  0  0  0  0  0  0  0  0
  181.1590  178.2770  138.0350 C   0  0  0  0  0  2  0  0  0  0  0  0
  181.2660  176.8090  138.4680 C   0  0  2  0  0  0  0  0  0  0  0  0
  181.1340  175.8090  137.3200 C   0  0  2  0  0  3  0  0  0  0  0  0
  183.9640  175.7150  137.0850 C   0  0  0  0  0  2  0  0  0  0  0  0
  180.2960  176.5260  139.4290 O   0  0  0  0  0  1  0  0  0  0  0  0
  183.1880  174.7130  135.0760 F   0  0  0  0  0  0  0  0  0  0  0  0
  183.1860  175.9100  135.7700 C   0  0  2  0  0  0  0  0  0  0  0  0
  183.8910  176.9570  134.9310 C   0  0  0  0  0  1  0  0  0  0  0  0
  181.8810  174.6860  137.7240 O   0  0  0  0  0  0  0  0  0  0  0  0
  183.0580  175.2600  138.2450 C   0  0  2  0  0  3  0  0  0  0  0  0
  182.6310  176.4910  139.0290 C   0  0  0  0  0  2  0  0  0  0  0  0
  181.7250  176.3450  135.9930 C   0  0  0  0  0  2  0  0  0  0  0  0
  1  3  1  0  0  0  0
  2  5  1  0  0  0  0
  2  6  2  0  0  0  0
  4  3  2  0  0  0  0
  4 11  1  0  0  0  0
  5  1  2  0  0  0  0
  6  4  1  0  0  0  0
  7  8  1  1  0  0  0
  7  2  1  0  0  0  0
  9 10  2  0  0  0  0
 10  7  1  0  0  0  0
 12 14  1  0  0  0  0
 13 21  1  0  0  0  0
 13 15  2  0  0  0  0
 14 18  2  0  0  0  0
 14 27  1  0  0  0  0
 15 19  1  0  0  0  0
 17 23  2  0  0  0  0
 19 17  1  0  0  0  0
 19 12  2  0  0  0  0
 20 25  1  0  0  0  0
 20 17  1  0  0  0  0
 21 20  2  0  0  0  0
 22 16  2  0  0  0  0
 23 22  1  0  0  0  0
 23 18  1  0  0  0  0
 24 11  1  0  0  0  0
 24 22  1  0  0  0  0
 25 24  1  0  0  0  0
 26 27  2  0  0  0  0
 27 28  1  0  0  0  0
 29 13  1  0  0  0  0
 30 29  1  0  0  0  0
 31 30  1  0  0  0  0
 32 31  1  0  0  0  0
 33 32  1  0  0  0  0
 35 34  1  1  0  0  0
 35 33  1  0  0  0  0
 36 35  1  0  0  0  0
 36 33  1  0  0  0  0
 37 38  1  0  0  0  0
 37  5  1  0  0  0  0
 39 40  2  0  0  0  0
 39 38  1  0  0  0  0
 41 39  1  0  0  0  0
 42 41  2  0  0  0  0
 43 41  1  0  0  0  0
 44 45  1  0  0  0  0
 44 43  1  0  0  0  0
 45 54  1  0  0  0  0
 45 48  1  1  0  0  0
 46 55  1  6  0  0  0
 46 52  1  0  0  0  0
 46 45  1  0  0  0  0
 49 50  1  0  0  0  0
 50 51  1  6  0  0  0
 50 55  1  0  0  0  0
 50 47  1  0  0  0  0
 52 53  1  0  0  0  0
 53 47  1  6  0  0  0
 53 54  1  0  0  0  0
M  END
>  <MODEL>
6

>  <REMARK>
 VINA RESULT:      -7.8      3.278      8.923
  Name = 
  17 active torsions:
  status: ('A' for Active; 'I' for Inactive)
    1  A    between atoms: C_2  and  C_8
    2  A    between atoms: C_2  and  O_48
    3  A    between atoms: O_3  and  C_4
    4  A    between atoms: O_3  and  C_8
    5  A    between atoms: C_4  and  C_7
    6  A    between atoms: C_5  and  C_16
    7  A    between atoms: C_5  and  C_47
    8  A    between atoms: C_6  and  C_22
    9  A    between atoms: C_6  and  N_52
   10  A    between atoms: N_10  and  O_28
   11  A    between atoms: C_11  and  O_36
   12  A    between atoms: C_12  and  C_39
   13  A    between atoms: O_28  and  C_34
   14  A    between atoms: C_34  and  C_44
   15  A    between atoms: O_36  and  C_44
   16  A    between atoms: C_43  and  O_48
   17  A    between atoms: C_43  and  C_49
                            x       y       z     vdW  Elec       q    Type
                         _______ _______ _______ _____ _____    ______ ____

>  <TORSDO>
F 17

$$$$
=
 OpenBabel10222417023D

 55 61  0  0  1  0  0  0  0  0999 V2000
  184.2190  178.2560  141.4540 C   0  0  0  0  0  3  0  0  0  0  0  0
  182.1500  178.6240  142.6780 C   0  0  0  0  0  0  0  0  0  0  0  0
  184.9460  178.3480  142.6430 C   0  0  0  0  0  3  0  0  0  0  0  0
  184.2820  178.5770  143.8500 C   0  0  0  0  0  0  0  0  0  0  0  0
  182.8280  178.4020  141.4600 C   0  0  0  0  0  0  0  0  0  0  0  0
  182.8900  178.7030  143.8690 C   0  0  0  0  0  3  0  0  0  0  0  0
  180.6550  178.7490  142.7110 C   0  0  2  0  0  3  0  0  0  0  0  0
  180.1980  180.1320  142.2720 C   0  0  0  0  0  1  0  0  0  0  0  0
  179.6760  177.3220  144.3180 O   0  0  0  0  0  0  0  0  0  0  0  0
  180.1320  178.4270  144.0750 C   0  0  0  0  0  3  0  0  0  0  0  0
  185.0480  178.6660  145.1250 C   0  0  0  0  0  2  0  0  0  0  0  0
  191.2870  176.6540  145.2230 C   0  0  0  0  0  3  0  0  0  0  0  0
  190.1050  177.3890  141.7880 C   0  0  0  0  0  0  0  0  0  0  0  0
  190.8150  176.6840  146.5430 C   0  0  0  0  0  0  0  0  0  0  0  0
  190.9320  177.0000  142.8540 C   0  0  0  0  0  3  0  0  0  0  0  0
  186.8430  178.0070  147.1980 O   0  0  0  0  0  0  0  0  0  0  0  0
  189.1350  177.4610  144.4260 C   0  0  0  0  0  0  0  0  0  0  0  0
  189.5040  177.1070  146.7980 C   0  0  0  0  0  3  0  0  0  0  0  0
  190.4570  177.0360  144.1670 C   0  0  0  0  0  0  0  0  0  0  0  0
  188.3060  177.8440  143.3560 C   0  0  0  0  0  0  0  0  0  0  0  0
  188.7960  177.8100  142.0470 C   0  0  0  0  0  3  0  0  0  0  0  0
  187.2840  177.9520  146.0170 C   0  0  0  0  0  0  0  0  0  0  0  0
  188.6610  177.5000  145.7500 C   0  0  0  0  0  0  0  0  0  0  0  0
  186.4500  178.3280  144.9100 N   0  0  0  0  0  0  0  0  0  0  0  0
  186.9580  178.2570  143.6010 N   0  0  0  0  0  2  0  0  0  0  0  0
  192.3670  177.1410  148.2760 O   0  0  0  0  0  1  0  0  0  0  0  0
  191.6870  176.2810  147.6560 C   0  0  0  0  0  0  0  0  0  0  0  0
  191.7620  174.9450  148.0410 O   0  0  0  0  0  0  0  0  0  0  0  0
  190.5620  177.3770  140.4670 O   0  0  0  0  0  0  0  0  0  0  0  0
  189.7900  177.8790  139.3850 C   0  0  0  0  0  2  0  0  0  0  0  0
  190.0120  177.0120  138.1600 C   0  0  0  0  0  2  0  0  0  0  0  0
  191.1460  176.2140  138.3360 O   0  0  0  0  0  0  0  0  0  0  0  0
  190.6910  174.9370  138.2970 N   0  0  0  0  0  0  0  0  0  0  0  0
  189.7480  173.3740  136.7170 C   0  0  0  0  0  1  0  0  0  0  0  0
  190.6960  174.5390  136.9110 C   0  0  2  0  0  3  0  0  0  0  0  0
  191.7030  174.1680  137.7450 O   0  0  0  0  0  0  0  0  0  0  0  0
  182.0920  178.2660  140.1690 C   0  0  0  0  0  2  0  0  0  0  0  0
  182.8430  177.4530  139.2770 O   0  0  0  0  0  0  0  0  0  0  0  0
  183.3310  177.9200  138.0520 C   0  0  0  0  0  0  0  0  0  0  0  0
  182.5060  178.2890  137.1760 O   0  0  0  0  0  0  0  0  0  0  0  0
  184.7740  177.9520  137.7330 C   0  0  0  0  0  0  0  0  0  0  0  0
  185.5330  178.6820  138.4210 O   0  0  0  0  0  0  0  0  0  0  0  0
  185.3310  177.1810  136.7080 O   0  0  0  0  0  0  0  0  0  0  0  0
  184.8700  175.8780  136.3660 C   0  0  0  0  0  2  0  0  0  0  0  0
  185.9300  174.8120  136.6740 C   0  0  2  0  0  0  0  0  0  0  0  0
  185.4540  173.7160  137.6280 C   0  0  2  0  0  3  0  0  0  0  0  0
  184.7760  172.0830  135.4040 C   0  0  0  0  0  2  0  0  0  0  0  0
  187.0680  175.4140  137.2100 O   0  0  0  0  0  1  0  0  0  0  0  0
  183.6830  171.0400  137.2370 F   0  0  0  0  0  0  0  0  0  0  0  0
  183.6990  172.2100  136.4980 C   0  0  2  0  0  0  0  0  0  0  0  0
  182.3470  172.3860  135.8400 C   0  0  0  0  0  1  0  0  0  0  0  0
  186.2030  172.5770  137.2810 O   0  0  0  0  0  0  0  0  0  0  0  0
  186.1570  172.5830  135.8730 C   0  0  2  0  0  3  0  0  0  0  0  0
  186.3130  174.0320  135.4390 C   0  0  0  0  0  2  0  0  0  0  0  0
  183.9490  173.3900  137.4560 C   0  0  0  0  0  2  0  0  0  0  0  0
  1  5  2  0  0  0  0
  1  3  1  0  0  0  0
  2  7  1  0  0  0  0
  2  6  2  0  0  0  0
  3  4  2  0  0  0  0
  4  6  1  0  0  0  0
  4 11  1  0  0  0  0
  5  2  1  0  0  0  0
  7  8  1  1  0  0  0
  7 10  1  0  0  0  0
 10  9  2  0  0  0  0
 12 14  1  0  0  0  0
 13 21  1  0  0  0  0
 13 15  2  0  0  0  0
 14 18  2  0  0  0  0
 14 27  1  0  0  0  0
 15 19  1  0  0  0  0
 17 23  2  0  0  0  0
 19 17  1  0  0  0  0
 19 12  2  0  0  0  0
 20 25  1  0  0  0  0
 20 17  1  0  0  0  0
 21 20  2  0  0  0  0
 22 16  2  0  0  0  0
 23 22  1  0  0  0  0
 23 18  1  0  0  0  0
 24 11  1  0  0  0  0
 24 22  1  0  0  0  0
 25 24  1  0  0  0  0
 27 28  2  0  0  0  0
 27 26  1  0  0  0  0
 29 13  1  0  0  0  0
 30 29  1  0  0  0  0
 31 32  1  0  0  0  0
 31 30  1  0  0  0  0
 33 32  1  0  0  0  0
 35 34  1  1  0  0  0
 35 36  1  0  0  0  0
 35 33  1  0  0  0  0
 36 33  1  0  0  0  0
 37  5  1  0  0  0  0
 38 37  1  0  0  0  0
 39 38  1  0  0  0  0
 40 39  2  0  0  0  0
 41 39  1  0  0  0  0
 41 42  2  0  0  0  0
 43 41  1  0  0  0  0
 44 45  1  0  0  0  0
 44 43  1  0  0  0  0
 45 48  1  1  0  0  0
 45 46  1  0  0  0  0
 46 55  1  6  0  0  0
 47 50  1  0  0  0  0
 50 51  1  6  0  0  0
 50 49  1  0  0  0  0
 50 55  1  0  0  0  0
 52 46  1  0  0  0  0
 53 47  1  1  0  0  0
 53 52  1  0  0  0  0
 54 53  1  0  0  0  0
 54 45  1  0  0  0  0
M  END
>  <MODEL>
7

>  <REMARK>
 VINA RESULT:      -7.7      2.977      8.357
  Name = 
  17 active torsions:
  status: ('A' for Active; 'I' for Inactive)
    1  A    between atoms: C_2  and  C_8
    2  A    between atoms: C_2  and  O_48
    3  A    between atoms: O_3  and  C_4
    4  A    between atoms: O_3  and  C_8
    5  A    between atoms: C_4  and  C_7
    6  A    between atoms: C_5  and  C_16
    7  A    between atoms: C_5  and  C_47
    8  A    between atoms: C_6  and  C_22
    9  A    between atoms: C_6  and  N_52
   10  A    between atoms: N_10  and  O_28
   11  A    between atoms: C_11  and  O_36
   12  A    between atoms: C_12  and  C_39
   13  A    between atoms: O_28  and  C_34
   14  A    between atoms: C_34  and  C_44
   15  A    between atoms: O_36  and  C_44
   16  A    between atoms: C_43  and  O_48
   17  A    between atoms: C_43  and  C_49
                            x       y       z     vdW  Elec       q    Type
                         _______ _______ _______ _____ _____    ______ ____

>  <TORSDO>
F 17

$$$$
=
 OpenBabel10222417023D

 55 61  0  0  1  0  0  0  0  0999 V2000
  184.9350  178.7070  142.4540 C   0  0  0  0  0  3  0  0  0  0  0  0
  182.5160  178.9640  142.4920 C   0  0  0  0  0  0  0  0  0  0  0  0
  184.9170  178.6900  141.0580 C   0  0  0  0  0  3  0  0  0  0  0  0
  183.7050  178.8090  140.3740 C   0  0  0  0  0  0  0  0  0  0  0  0
  183.7440  178.8330  143.1770 C   0  0  0  0  0  0  0  0  0  0  0  0
  182.5120  178.9570  141.0880 C   0  0  0  0  0  3  0  0  0  0  0  0
  181.2310  179.1350  143.2480 C   0  0  2  0  0  3  0  0  0  0  0  0
  180.6680  177.7990  143.7070 C   0  0  0  0  0  1  0  0  0  0  0  0
  179.6900  180.8790  142.8490 O   0  0  0  0  0  0  0  0  0  0  0  0
  180.2300  179.8750  142.4180 C   0  0  0  0  0  3  0  0  0  0  0  0
  183.6780  178.8020  138.8850 C   0  0  0  0  0  2  0  0  0  0  0  0
  185.5450  173.0590  136.3350 C   0  0  0  0  0  3  0  0  0  0  0  0
  188.2740  175.5670  136.2870 C   0  0  0  0  0  0  0  0  0  0  0  0
  184.2110  172.9420  136.7490 C   0  0  0  0  0  0  0  0  0  0  0  0
  187.5680  174.3680  136.0990 C   0  0  0  0  0  3  0  0  0  0  0  0
  182.4070  176.3020  138.5950 O   0  0  0  0  0  0  0  0  0  0  0  0
  185.6000  175.3570  137.1280 C   0  0  0  0  0  0  0  0  0  0  0  0
  183.5780  174.0340  137.3550 C   0  0  0  0  0  3  0  0  0  0  0  0
  186.2390  174.2570  136.5180 C   0  0  0  0  0  0  0  0  0  0  0  0
  186.3060  176.5600  137.3080 C   0  0  0  0  0  0  0  0  0  0  0  0
  187.6370  176.6560  136.8910 C   0  0  0  0  0  3  0  0  0  0  0  0
  183.6000  176.3890  138.1960 C   0  0  0  0  0  0  0  0  0  0  0  0
  184.2620  175.2410  137.5520 C   0  0  0  0  0  0  0  0  0  0  0  0
  184.3360  177.6110  138.3600 N   0  0  0  0  0  0  0  0  0  0  0  0
  185.6640  177.6910  137.9060 N   0  0  0  0  0  2  0  0  0  0  0  0
  183.8920  170.8240  135.7320 O   0  0  0  0  0  0  0  0  0  0  0  0
  183.4780  171.6810  136.5560 C   0  0  0  0  0  0  0  0  0  0  0  0
  182.3240  171.4210  137.2900 O   0  0  0  0  0  1  0  0  0  0  0  0
  189.6080  175.6980  135.8910 O   0  0  0  0  0  0  0  0  0  0  0  0
  190.6540  175.9850  136.8080 C   0  0  0  0  0  2  0  0  0  0  0  0
  191.9110  175.2470  136.3890 C   0  0  0  0  0  2  0  0  0  0  0  0
  192.6300  176.0100  135.4640 O   0  0  0  0  0  0  0  0  0  0  0  0
  193.9260  175.6550  135.6410 N   0  0  0  0  0  0  0  0  0  0  0  0
  196.1180  176.2390  134.8140 C   0  0  0  0  0  1  0  0  0  0  0  0
  194.7260  176.7420  135.1350 C   0  0  2  0  0  3  0  0  0  0  0  0
  194.4940  176.6110  136.4680 O   0  0  0  0  0  0  0  0  0  0  0  0
  183.8160  178.8770  144.6670 C   0  0  0  0  0  2  0  0  0  0  0  0
  185.1740  178.9830  145.0740 O   0  0  0  0  0  0  0  0  0  0  0  0
  185.6250  178.5680  146.3320 C   0  0  0  0  0  0  0  0  0  0  0  0
  184.9110  178.8150  147.3390 O   0  0  0  0  0  0  0  0  0  0  0  0
  186.9250  177.8950  146.5250 C   0  0  0  0  0  0  0  0  0  0  0  0
  187.4060  177.8200  147.6860 O   0  0  0  0  0  0  0  0  0  0  0  0
  187.6330  177.3160  145.4670 O   0  0  0  0  0  0  0  0  0  0  0  0
  188.5920  178.0220  144.6840 C   0  0  0  0  0  2  0  0  0  0  0  0
  189.9290  177.2720  144.6290 C   0  0  2  0  0  0  0  0  0  0  0  0
  189.9640  176.1320  143.6100 C   0  0  2  0  0  3  0  0  0  0  0  0
  191.1210  177.8860  141.6980 C   0  0  0  0  0  2  0  0  0  0  0  0
  190.2400  176.7610  145.8890 O   0  0  0  0  0  1  0  0  0  0  0  0
  190.4090  176.0210  140.4100 F   0  0  0  0  0  0  0  0  0  0  0  0
  189.9270  177.0470  141.2050 C   0  0  2  0  0  0  0  0  0  0  0  0
  189.0210  177.9240  140.3660 C   0  0  0  0  0  1  0  0  0  0  0  0
  191.3120  176.0290  143.2210 O   0  0  0  0  0  0  0  0  0  0  0  0
  191.6920  177.3730  143.0340 C   0  0  2  0  0  3  0  0  0  0  0  0
  191.0520  178.1660  144.1630 C   0  0  0  0  0  2  0  0  0  0  0  0
  189.1070  176.4310  142.3540 C   0  0  0  0  0  2  0  0  0  0  0  0
  1  5  1  0  0  0  0
  2  5  2  0  0  0  0
  2  7  1  0  0  0  0
  3  1  2  0  0  0  0
  4  3  1  0  0  0  0
  4  6  2  0  0  0  0
  5 37  1  0  0  0  0
  6  2  1  0  0  0  0
  7  8  1  6  0  0  0
 10  9  2  0  0  0  0
 10  7  1  0  0  0  0
 11  4  1  0  0  0  0
 12 19  2  0  0  0  0
 12 14  1  0  0  0  0
 13 21  1  0  0  0  0
 14 18  2  0  0  0  0
 15 13  2  0  0  0  0
 15 19  1  0  0  0  0
 17 20  1  0  0  0  0
 17 23  2  0  0  0  0
 18 23  1  0  0  0  0
 19 17  1  0  0  0  0
 20 25  1  0  0  0  0
 21 20  2  0  0  0  0
 22 24  1  0  0  0  0
 22 16  2  0  0  0  0
 23 22  1  0  0  0  0
 24 11  1  0  0  0  0
 25 24  1  0  0  0  0
 26 27  2  0  0  0  0
 27 14  1  0  0  0  0
 27 28  1  0  0  0  0
 29 13  1  0  0  0  0
 29 30  1  0  0  0  0
 31 30  1  0  0  0  0
 32 33  1  0  0  0  0
 32 31  1  0  0  0  0
 33 36  1  0  0  0  0
 35 34  1  1  0  0  0
 35 33  1  0  0  0  0
 35 36  1  0  0  0  0
 37 38  1  0  0  0  0
 38 39  1  0  0  0  0
 39 41  1  0  0  0  0
 39 40  2  0  0  0  0
 41 42  2  0  0  0  0
 43 41  1  0  0  0  0
 44 43  1  0  0  0  0
 45 44  1  0  0  0  0
 45 48  1  1  0  0  0
 46 55  1  6  0  0  0
 46 45  1  0  0  0  0
 49 50  1  0  0  0  0
 50 51  1  6  0  0  0
 50 47  1  0  0  0  0
 50 55  1  0  0  0  0
 52 46  1  0  0  0  0
 53 47  1  6  0  0  0
 53 52  1  0  0  0  0
 53 54  1  0  0  0  0
 54 45  1  0  0  0  0
M  END
>  <MODEL>
8

>  <REMARK>
 VINA RESULT:      -7.6      1.917      2.608
  Name = 
  17 active torsions:
  status: ('A' for Active; 'I' for Inactive)
    1  A    between atoms: C_2  and  C_8
    2  A    between atoms: C_2  and  O_48
    3  A    between atoms: O_3  and  C_4
    4  A    between atoms: O_3  and  C_8
    5  A    between atoms: C_4  and  C_7
    6  A    between atoms: C_5  and  C_16
    7  A    between atoms: C_5  and  C_47
    8  A    between atoms: C_6  and  C_22
    9  A    between atoms: C_6  and  N_52
   10  A    between atoms: N_10  and  O_28
   11  A    between atoms: C_11  and  O_36
   12  A    between atoms: C_12  and  C_39
   13  A    between atoms: O_28  and  C_34
   14  A    between atoms: C_34  and  C_44
   15  A    between atoms: O_36  and  C_44
   16  A    between atoms: C_43  and  O_48
   17  A    between atoms: C_43  and  C_49
                            x       y       z     vdW  Elec       q    Type
                         _______ _______ _______ _____ _____    ______ ____

>  <TORSDO>
F 17

$$$$
=
 OpenBabel10222417023D

 55 61  0  0  1  0  0  0  0  0999 V2000
  188.0930  177.7390  143.4960 C   0  0  0  0  0  3  0  0  0  0  0  0
  189.4340  177.3120  145.4800 C   0  0  0  0  0  0  0  0  0  0  0  0
  189.2540  177.8380  142.7260 C   0  0  0  0  0  3  0  0  0  0  0  0
  190.5050  177.6760  143.3250 C   0  0  0  0  0  0  0  0  0  0  0  0
  188.1730  177.4860  144.8690 C   0  0  0  0  0  0  0  0  0  0  0  0
  190.5940  177.4030  144.6930 C   0  0  0  0  0  3  0  0  0  0  0  0
  189.5410  177.0060  146.9450 C   0  0  2  0  0  3  0  0  0  0  0  0
  189.2320  178.2270  147.7970 C   0  0  0  0  0  1  0  0  0  0  0  0
  191.6890  177.1240  147.9200 O   0  0  0  0  0  0  0  0  0  0  0  0
  190.8970  176.4630  147.2690 C   0  0  0  0  0  3  0  0  0  0  0  0
  191.7470  177.7700  142.5080 C   0  0  0  0  0  2  0  0  0  0  0  0
  191.5010  176.0820  136.1790 C   0  0  0  0  0  3  0  0  0  0  0  0
  188.1580  176.9380  137.5320 C   0  0  0  0  0  0  0  0  0  0  0  0
  192.8370  176.0160  136.5980 C   0  0  0  0  0  0  0  0  0  0  0  0
  189.1690  176.5350  136.6450 C   0  0  0  0  0  3  0  0  0  0  0  0
  193.7120  177.0950  140.6010 O   0  0  0  0  0  0  0  0  0  0  0  0
  190.8300  176.8180  138.3980 C   0  0  0  0  0  0  0  0  0  0  0  0
  193.1640  176.3570  137.9170 C   0  0  0  0  0  3  0  0  0  0  0  0
  190.4990  176.4760  137.0680 C   0  0  0  0  0  0  0  0  0  0  0  0
  189.8150  177.2140  139.2870 C   0  0  0  0  0  0  0  0  0  0  0  0
  188.4890  177.2750  138.8490 C   0  0  0  0  0  3  0  0  0  0  0  0
  192.5150  177.1260  140.2060 C   0  0  0  0  0  0  0  0  0  0  0  0
  192.1720  176.7610  138.8200 C   0  0  0  0  0  0  0  0  0  0  0  0
  191.4620  177.5170  141.1010 N   0  0  0  0  0  0  0  0  0  0  0  0
  190.1330  177.5430  140.6430 N   0  0  0  0  0  2  0  0  0  0  0  0
  193.6450  174.7670  134.7530 O   0  0  0  0  0  0  0  0  0  0  0  0
  193.8930  175.6000  135.6630 C   0  0  0  0  0  0  0  0  0  0  0  0
  195.1740  176.1330  135.7700 O   0  0  0  0  0  1  0  0  0  0  0  0
  186.8220  177.0200  137.1280 O   0  0  0  0  0  0  0  0  0  0  0  0
  186.3010  176.2610  136.0470 C   0  0  0  0  0  2  0  0  0  0  0  0
  185.1350  175.4210  136.5340 C   0  0  0  0  0  2  0  0  0  0  0  0
  185.3680  174.0710  136.2580 O   0  0  0  0  0  0  0  0  0  0  0  0
  184.3520  173.4050  136.8610 N   0  0  0  0  0  0  0  0  0  0  0  0
  183.3410  171.2130  136.8630 C   0  0  0  0  0  1  0  0  0  0  0  0
  184.6250  171.9990  136.6980 C   0  0  2  0  0  3  0  0  0  0  0  0
  184.9180  172.6340  137.8640 O   0  0  0  0  0  0  0  0  0  0  0  0
  186.9050  177.3590  145.6450 C   0  0  0  0  0  2  0  0  0  0  0  0
  185.7960  177.5460  144.7770 O   0  0  0  0  0  0  0  0  0  0  0  0
  184.9020  178.6140  144.9060 C   0  0  0  0  0  0  0  0  0  0  0  0
  185.0030  179.3660  145.9100 O   0  0  0  0  0  0  0  0  0  0  0  0
  183.8180  178.8630  143.9320 C   0  0  0  0  0  0  0  0  0  0  0  0
  182.6400  178.9980  144.3540 O   0  0  0  0  0  0  0  0  0  0  0  0
  184.0570  178.9770  142.5590 O   0  0  0  0  0  0  0  0  0  0  0  0
  183.0880  178.6600  141.5640 C   0  0  0  0  0  2  0  0  0  0  0  0
  183.6090  178.9750  140.1560 C   0  0  2  0  0  0  0  0  0  0  0  0
  183.8620  177.7390  139.2930 C   0  0  2  0  0  3  0  0  0  0  0  0
  181.2730  178.0110  138.1560 C   0  0  0  0  0  2  0  0  0  0  0  0
  184.7870  179.7160  140.2410 O   0  0  0  0  0  1  0  0  0  0  0  0
  181.9400  175.8150  137.5440 F   0  0  0  0  0  0  0  0  0  0  0  0
  181.6470  176.5990  138.6460 C   0  0  2  0  0  0  0  0  0  0  0  0
  180.4590  175.9960  139.3670 C   0  0  0  0  0  1  0  0  0  0  0  0
  183.6690  178.1710  137.9680 O   0  0  0  0  0  0  0  0  0  0  0  0
  182.4940  178.9440  138.0550 C   0  0  2  0  0  3  0  0  0  0  0  0
  182.5940  179.7430  139.3450 C   0  0  0  0  0  2  0  0  0  0  0  0
  182.8640  176.5920  139.5900 C   0  0  0  0  0  2  0  0  0  0  0  0
  1  5  1  0  0  0  0
  2  7  1  0  0  0  0
  3  4  1  0  0  0  0
  3  1  2  0  0  0  0
  4  6  2  0  0  0  0
  5  2  2  0  0  0  0
  5 37  1  0  0  0  0
  6  2  1  0  0  0  0
  7 10  1  0  0  0  0
  7  8  1  1  0  0  0
 10  9  2  0  0  0  0
 11  4  1  0  0  0  0
 12 14  2  0  0  0  0
 12 19  1  0  0  0  0
 13 21  1  0  0  0  0
 14 18  1  0  0  0  0
 15 19  1  0  0  0  0
 15 13  2  0  0  0  0
 17 23  1  0  0  0  0
 17 20  1  0  0  0  0
 18 23  2  0  0  0  0
 19 17  2  0  0  0  0
 20 25  1  0  0  0  0
 21 20  2  0  0  0  0
 22 16  2  0  0  0  0
 22 24  1  0  0  0  0
 23 22  1  0  0  0  0
 24 11  1  0  0  0  0
 25 24  1  0  0  0  0
 26 27  2  0  0  0  0
 27 28  1  0  0  0  0
 27 14  1  0  0  0  0
 29 13  1  0  0  0  0
 30 31  1  0  0  0  0
 30 29  1  0  0  0  0
 32 31  1  0  0  0  0
 32 33  1  0  0  0  0
 33 36  1  0  0  0  0
 35 33  1  0  0  0  0
 35 34  1  1  0  0  0
 35 36  1  0  0  0  0
 38 39  1  0  0  0  0
 38 37  1  0  0  0  0
 39 40  2  0  0  0  0
 41 42  2  0  0  0  0
 41 39  1  0  0  0  0
 43 41  1  0  0  0  0
 44 43  1  0  0  0  0
 45 48  1  1  0  0  0
 45 44  1  0  0  0  0
 46 55  1  1  0  0  0
 46 45  1  0  0  0  0
 47 50  1  0  0  0  0
 49 50  1  0  0  0  0
 50 51  1  1  0  0  0
 50 55  1  0  0  0  0
 52 53  1  0  0  0  0
 52 46  1  0  0  0  0
 53 47  1  1  0  0  0
 53 54  1  0  0  0  0
 54 45  1  0  0  0  0
M  END
>  <MODEL>
9

>  <REMARK>
 VINA RESULT:      -7.5      2.902      8.223
  Name = 
  17 active torsions:
  status: ('A' for Active; 'I' for Inactive)
    1  A    between atoms: C_2  and  C_8
    2  A    between atoms: C_2  and  O_48
    3  A    between atoms: O_3  and  C_4
    4  A    between atoms: O_3  and  C_8
    5  A    between atoms: C_4  and  C_7
    6  A    between atoms: C_5  and  C_16
    7  A    between atoms: C_5  and  C_47
    8  A    between atoms: C_6  and  C_22
    9  A    between atoms: C_6  and  N_52
   10  A    between atoms: N_10  and  O_28
   11  A    between atoms: C_11  and  O_36
   12  A    between atoms: C_12  and  C_39
   13  A    between atoms: O_28  and  C_34
   14  A    between atoms: C_34  and  C_44
   15  A    between atoms: O_36  and  C_44
   16  A    between atoms: C_43  and  O_48
   17  A    between atoms: C_43  and  C_49
                            x       y       z     vdW  Elec       q    Type
                         _______ _______ _______ _____ _____    ______ ____

>  <TORSDO>
F 17

$$$$
