=
 OpenBabel10222418323D

 65 68  0  0  1  0  0  0  0  0999 V2000
  191.2090  177.0880  143.0540 C   0  0  0  0  0  0  0  0  0  0  0  0
  189.9300  177.2100  142.6520 C   0  0  0  0  0  0  0  0  0  0  0  0
  192.0680  178.1790  142.9480 O   0  0  0  0  0  1  0  0  0  0  0  0
  191.7580  175.4900  144.9200 C   0  0  0  0  0  3  0  0  0  0  0  0
  191.7310  175.8390  143.6280 C   0  0  0  0  0  3  0  0  0  0  0  0
  192.2830  177.0230  146.6220 O   0  0  0  0  0  0  0  0  0  0  0  0
  190.0370  176.3980  146.5420 N   0  0  0  0  0  2  0  0  0  0  0  0
  191.3900  176.3150  146.0820 C   0  0  0  0  0  0  0  0  0  0  0  0
  189.6420  177.2990  147.6140 C   0  0  0  0  0  2  0  0  0  0  0  0
  188.2730  176.8950  148.1320 C   0  0  0  0  0  2  0  0  0  0  0  0
  187.6090  178.0800  148.8120 C   0  0  0  0  0  2  0  0  0  0  0  0
  186.3060  179.6080  147.9130 C   0  0  0  0  0  1  0  0  0  0  0  0
  187.6330  179.1890  147.9720 O   0  0  0  0  0  0  0  0  0  0  0  0
  188.9990  176.1590  142.6720 O   0  0  0  0  0  0  0  0  0  0  0  0
  187.6860  176.2580  143.1980 C   0  0  0  0  0  2  0  0  0  0  0  0
  187.7160  176.9940  144.5230 C   0  0  0  0  0  2  0  0  0  0  0  0
  185.5360  177.3380  145.6440 C   0  0  0  0  0  1  0  0  0  0  0  0
  186.5130  177.9050  144.6380 C   0  0  2  0  0  3  0  0  0  0  0  0
  185.8300  178.0450  143.2940 C   0  0  0  0  0  2  0  0  0  0  0  0
  184.3830  178.4810  143.4540 C   0  0  1  0  0  3  0  0  0  0  0  0
  184.3560  179.9220  143.9280 C   0  0  0  0  0  1  0  0  0  0  0  0
  184.1380  179.0730  141.2250 N   0  0  0  0  0  0  0  0  0  0  0  0
  183.7340  178.3830  142.1750 N   0  0  0  0  0  0  0  0  0  0  0  0
  183.4420  179.0610  139.9610 C   0  0  0  0  0  2  0  0  0  0  0  0
  181.7540  177.7710  138.9410 C   0  0  0  0  0  2  0  0  0  0  0  0
  181.9020  177.2950  137.5710 N   0  0  0  0  0  0  0  0  0  0  0  0
  183.9180  177.2770  138.5310 N   0  0  0  0  0  2  0  0  0  0  0  0
  183.1440  177.0430  137.3800 C   0  0  0  0  0  0  0  0  0  0  0  0
  183.0820  177.6940  139.5780 N   0  0  0  0  0  0  0  0  0  0  0  0
  184.1000  173.4760  135.6640 C   0  0  2  0  0  3  0  0  0  0  0  0
  184.8200  174.2180  136.8110 C   0  0  2  0  0  0  0  0  0  0  0  0
  181.6820  176.1460  134.8240 N   0  0  0  0  0  2  0  0  0  0  0  0
  184.0910  174.1200  138.0000 O   0  0  0  0  0  1  0  0  0  0  0  0
  182.7060  175.5830  135.3790 C   0  0  0  0  0  0  0  0  0  0  0  0
  185.0080  175.6880  136.4230 C   0  0  0  0  0  2  0  0  0  0  0  0
  182.8690  174.1620  135.2830 N   0  0  0  0  0  2  0  0  0  0  0  0
  183.7030  176.4270  136.1310 C   0  0  2  0  0  3  0  0  0  0  0  0
  186.2020  173.6300  137.0330 C   0  0  0  0  0  1  0  0  0  0  0  0
  183.7940  172.0270  136.0210 C   0  0  0  0  0  2  0  0  0  0  0  0
  182.4320  171.8600  136.2770 O   0  0  0  0  0  1  0  0  0  0  0  0
  189.3400  178.7860  142.0180 S   0  0  0  0  0  0  0  0  0  0  0  0
  190.1320  177.6950  139.6110 C   0  0  0  0  0  3  0  0  0  0  0  0
  188.6290  177.1460  137.7820 C   0  0  0  0  0  0  0  0  0  0  0  0
  187.5490  177.6020  138.5520 C   0  0  0  0  0  3  0  0  0  0  0  0
  189.0490  178.1220  140.3790 C   0  0  0  0  0  0  0  0  0  0  0  0
  189.9340  177.2010  138.3130 C   0  0  0  0  0  0  0  0  0  0  0  0
  187.7580  178.0850  139.8470 C   0  0  0  0  0  3  0  0  0  0  0  0
  188.1070  177.8510  135.5150 N   0  0  0  0  0  1  0  0  0  0  0  0
  188.3940  176.7060  136.3700 C   0  0  0  0  0  2  0  0  0  0  0  0
  191.1310  176.7980  137.5060 C   0  0  0  0  0  2  0  0  0  0  0  0
  192.1070  176.0210  138.3640 C   0  0  0  0  0  2  0  0  0  0  0  0
  193.2780  175.5660  137.5170 C   0  0  0  0  0  2  0  0  0  0  0  0
  192.9300  175.6270  136.1590 O   0  0  0  0  0  0  0  0  0  0  0  0
  192.7760  171.9920  135.1080 C   0  0  0  0  0  1  0  0  0  0  0  0
  192.4290  173.3050  135.7300 C   0  0  0  0  0  0  0  0  0  0  0  0
  191.3410  173.4150  136.3580 O   0  0  0  0  0  0  0  0  0  0  0  0
  193.3170  174.4340  135.6370 N   0  0  0  0  0  0  0  0  0  0  0  0
  194.6710  174.2540  135.0980 C   0  0  0  0  0  2  0  0  0  0  0  0
  196.5790  175.8980  135.2650 C   0  0  0  0  0  1  0  0  0  0  0  0
  195.7780  174.8250  135.9930 C   0  0  2  0  0  3  0  0  0  0  0  0
  195.5160  172.9680  138.6630 C   0  0  0  0  0  2  0  0  0  0  0  0
  195.8380  172.6280  137.2110 C   0  0  0  0  0  2  0  0  0  0  0  0
  196.2650  174.2290  139.0640 C   0  0  0  0  0  2  0  0  0  0  0  0
  196.6760  173.7410  136.6020 C   0  0  2  0  0  3  0  0  0  0  0  0
  197.6850  174.4170  137.9570 S   0  0  0  0  0  0  0  0  0  0  0  0
  1  5  1  0  0  0  0
  2 14  1  0  0  0  0
  2  1  2  0  0  0  0
  3  1  1  0  0  0  0
  4  8  1  0  0  0  0
  5  4  2  0  0  0  0
  7  9  1  0  0  0  0
  8  7  1  0  0  0  0
  8  6  2  0  0  0  0
  9 10  1  0  0  0  0
 10 11  1  0  0  0  0
 12 13  1  0  0  0  0
 13 11  1  0  0  0  0
 14 15  1  0  0  0  0
 15 16  1  0  0  0  0
 16 18  1  0  0  0  0
 18 17  1  1  0  0  0
 19 20  1  0  0  0  0
 19 18  1  0  0  0  0
 20 21  1  6  0  0  0
 22 23  2  0  0  0  0
 23 20  1  0  0  0  0
 24 22  1  0  0  0  0
 25 29  1  0  0  0  0
 26 25  1  0  0  0  0
 27 29  1  0  0  0  0
 28 26  2  0  0  0  0
 28 27  1  0  0  0  0
 29 24  1  0  0  0  0
 30 39  1  1  0  0  0
 30 31  1  0  0  0  0
 31 38  1  1  0  0  0
 31 33  1  0  0  0  0
 32 34  2  0  0  0  0
 34 37  1  0  0  0  0
 35 31  1  0  0  0  0
 36 34  1  0  0  0  0
 36 30  1  0  0  0  0
 37 35  1  0  0  0  0
 37 28  1  1  0  0  0
 39 40  1  0  0  0  0
 41  2  1  0  0  0  0
 42 45  1  0  0  0  0
 43 46  1  0  0  0  0
 43 44  2  0  0  0  0
 44 47  1  0  0  0  0
 45 41  1  0  0  0  0
 46 42  2  0  0  0  0
 47 45  2  0  0  0  0
 48 49  1  0  0  0  0
 49 43  1  0  0  0  0
 50 46  1  0  0  0  0
 50 51  1  0  0  0  0
 52 51  1  0  0  0  0
 53 52  1  0  0  0  0
 54 55  1  0  0  0  0
 55 56  2  0  0  0  0
 57 55  1  0  0  0  0
 57 53  1  0  0  0  0
 58 57  1  0  0  0  0
 58 60  1  0  0  0  0
 60 59  1  6  0  0  0
 61 63  1  0  0  0  0
 62 61  1  0  0  0  0
 64 60  1  1  0  0  0
 64 62  1  0  0  0  0
 64 65  1  0  0  0  0
 65 63  1  0  0  0  0
M  END
>  <MODEL>
1

>  <REMARK>
 VINA RESULT:      -5.6      0.000      0.000
  Name = 
  28 active torsions:
  status: ('A' for Active; 'I' for Inactive)
    1  A    between atoms: C_3  and  CA_18
    2  A    between atoms: N_6  and  C_13
    3  A    between atoms: C_7  and  N_57
    4  A    between atoms: C_7  and  C_65
    5  A    between atoms: C_10  and  C_46
    6  A    between atoms: C_13  and  N_53
    7  A    between atoms: C_14  and  C_56
    8  A    between atoms: C_15  and  C_19
    9  A    between atoms: C_20  and  S_23
   10  A    between atoms: C_21  and  C_33
   11  A    between atoms: C_21  and  C_52
   12  A    between atoms: S_23  and  C_61
   13  A    between atoms: O_24  and  C_47
   14  A    between atoms: O_24  and  C_61
   15  A    between atoms: N_27  and  C_33
   16  A    between atoms: C_30  and  C_32
   17  A    between atoms: C_30  and  C_35
   18  A    between atoms: C_32  and  C_40
   19  A    between atoms: C_34  and  C_37
   20  A    between atoms: C_34  and  C_42
   21  A    between atoms: C_35  and  C_47
   22  A    between atoms: C_37  and  C_51
   23  A    between atoms: C_38  and  C_58
   24  A    between atoms: C_40  and  N_49
   25  A    between atoms: O_48  and  C_52
   26  A    between atoms: C_50  and  C_65
   27  A    between atoms: C_51  and  O_60
   28  A    between atoms: N_57  and  O_60
                            x       y       z     vdW  Elec       q    Type
                         _______ _______ _______ _____ _____    ______ ____

>  <TORSDO>
F 28

$$$$
=
 OpenBabel10222418323D

 65 68  0  0  1  0  0  0  0  0999 V2000
  185.1970  176.2380  136.6080 C   0  0  0  0  0  0  0  0  0  0  0  0
  185.4520  177.4580  137.1170 C   0  0  0  0  0  0  0  0  0  0  0  0
  185.9030  175.7980  135.4910 O   0  0  0  0  0  1  0  0  0  0  0  0
  184.1490  174.0020  137.0970 C   0  0  0  0  0  3  0  0  0  0  0  0
  184.2050  175.3340  137.2090 C   0  0  0  0  0  3  0  0  0  0  0  0
  184.6080  172.9010  135.0720 O   0  0  0  0  0  0  0  0  0  0  0  0
  186.2500  172.6400  136.7080 N   0  0  0  0  0  2  0  0  0  0  0  0
  184.9870  173.1340  136.2520 C   0  0  0  0  0  0  0  0  0  0  0  0
  187.1390  171.8790  135.8420 C   0  0  0  0  0  2  0  0  0  0  0  0
  188.1820  172.8100  135.2500 C   0  0  0  0  0  2  0  0  0  0  0  0
  189.5690  172.2250  135.4540 C   0  0  0  0  0  2  0  0  0  0  0  0
  190.3160  174.1980  134.8300 C   0  0  0  0  0  1  0  0  0  0  0  0
  190.4770  172.8340  134.5950 O   0  0  0  0  0  0  0  0  0  0  0  0
  184.7640  178.0110  138.2080 O   0  0  0  0  0  0  0  0  0  0  0  0
  184.0690  179.2470  138.1770 C   0  0  0  0  0  2  0  0  0  0  0  0
  183.1790  179.3670  139.3990 C   0  0  0  0  0  2  0  0  0  0  0  0
  181.7200  180.5000  137.7510 C   0  0  0  0  0  1  0  0  0  0  0  0
  181.7460  179.6090  138.9740 C   0  0  2  0  0  3  0  0  0  0  0  0
  180.9690  180.2660  140.0950 C   0  0  0  0  0  2  0  0  0  0  0  0
  180.1450  179.2460  140.8640 C   0  0  1  0  0  3  0  0  0  0  0  0
  179.9540  178.0160  139.9950 C   0  0  0  0  0  1  0  0  0  0  0  0
  181.9270  179.4650  142.3340 N   0  0  0  0  0  0  0  0  0  0  0  0
  180.8640  178.8850  142.0560 N   0  0  0  0  0  0  0  0  0  0  0  0
  182.7110  179.0530  143.4730 C   0  0  0  0  0  2  0  0  0  0  0  0
  184.9230  179.8660  143.4830 C   0  0  0  0  0  2  0  0  0  0  0  0
  185.9010  179.3590  144.4380 N   0  0  0  0  0  0  0  0  0  0  0  0
  184.5520  177.6720  143.8680 N   0  0  0  0  0  2  0  0  0  0  0  0
  185.6420  178.1200  144.6370 C   0  0  0  0  0  0  0  0  0  0  0  0
  184.0810  178.7270  143.0710 N   0  0  0  0  0  0  0  0  0  0  0  0
  189.4980  177.1340  145.5010 C   0  0  2  0  0  3  0  0  0  0  0  0
  188.6950  176.8470  144.2130 C   0  0  2  0  0  0  0  0  0  0  0  0
  186.7050  178.5070  147.4990 N   0  0  0  0  0  2  0  0  0  0  0  0
  188.5430  178.0110  143.4540 O   0  0  0  0  0  1  0  0  0  0  0  0
  187.3020  177.9150  146.5160 C   0  0  0  0  0  0  0  0  0  0  0  0
  187.3240  176.2760  144.5890 C   0  0  0  0  0  2  0  0  0  0  0  0
  188.7330  177.9630  146.4270 N   0  0  0  0  0  2  0  0  0  0  0  0
  186.4850  177.2000  145.4710 C   0  0  2  0  0  3  0  0  0  0  0  0
  189.4040  175.8000  143.3720 C   0  0  0  0  0  1  0  0  0  0  0  0
  190.8400  177.7940  145.2050 C   0  0  0  0  0  2  0  0  0  0  0  0
  191.7950  177.4100  146.1490 O   0  0  0  0  0  1  0  0  0  0  0  0
  186.7250  178.4860  136.3710 S   0  0  0  0  0  0  0  0  0  0  0  0
  188.9430  177.0920  137.2360 C   0  0  0  0  0  3  0  0  0  0  0  0
  189.8400  177.1850  139.4920 C   0  0  0  0  0  0  0  0  0  0  0  0
  188.8250  178.0860  139.8430 C   0  0  0  0  0  3  0  0  0  0  0  0
  187.9520  178.0070  137.5860 C   0  0  0  0  0  0  0  0  0  0  0  0
  189.8960  176.6760  138.1780 C   0  0  0  0  0  0  0  0  0  0  0  0
  187.8850  178.4980  138.8940 C   0  0  0  0  0  3  0  0  0  0  0  0
  191.6010  177.7930  141.0540 N   0  0  0  0  0  1  0  0  0  0  0  0
  190.7890  176.6960  140.5430 C   0  0  0  0  0  2  0  0  0  0  0  0
  190.9130  175.6540  137.7700 C   0  0  0  0  0  2  0  0  0  0  0  0
  192.2130  175.8820  138.5120 C   0  0  0  0  0  2  0  0  0  0  0  0
  193.3590  175.2770  137.7260 C   0  0  0  0  0  2  0  0  0  0  0  0
  193.5420  175.9920  136.5330 O   0  0  0  0  0  0  0  0  0  0  0  0
  196.9380  176.4160  134.9100 C   0  0  0  0  0  1  0  0  0  0  0  0
  195.5190  176.6520  135.3140 C   0  0  0  0  0  0  0  0  0  0  0  0
  194.9350  177.6960  134.9160 O   0  0  0  0  0  0  0  0  0  0  0  0
  194.8080  175.7050  136.1330 N   0  0  0  0  0  0  0  0  0  0  0  0
  195.4060  174.3940  136.4180 C   0  0  0  0  0  2  0  0  0  0  0  0
  193.9610  173.3910  134.6080 C   0  0  0  0  0  1  0  0  0  0  0  0
  195.3480  173.4150  135.2400 C   0  0  2  0  0  3  0  0  0  0  0  0
  193.8640  170.7860  136.4760 C   0  0  0  0  0  2  0  0  0  0  0  0
  194.7900  170.9660  135.2780 C   0  0  0  0  0  2  0  0  0  0  0  0
  194.3940  171.5960  137.6490 C   0  0  0  0  0  2  0  0  0  0  0  0
  195.8460  172.0100  135.6020 C   0  0  2  0  0  3  0  0  0  0  0  0
  196.1640  171.8730  137.3890 S   0  0  0  0  0  0  0  0  0  0  0  0
  1  2  2  0  0  0  0
  1  5  1  0  0  0  0
  2 14  1  0  0  0  0
  3  1  1  0  0  0  0
  4  5  2  0  0  0  0
  6  8  2  0  0  0  0
  8  7  1  0  0  0  0
  8  4  1  0  0  0  0
  9  7  1  0  0  0  0
 10 11  1  0  0  0  0
 10  9  1  0  0  0  0
 13 12  1  0  0  0  0
 13 11  1  0  0  0  0
 15 14  1  0  0  0  0
 15 16  1  0  0  0  0
 18 17  1  6  0  0  0
 18 16  1  0  0  0  0
 18 19  1  0  0  0  0
 19 20  1  0  0  0  0
 20 21  1  6  0  0  0
 20 23  1  0  0  0  0
 22 24  1  0  0  0  0
 23 22  2  0  0  0  0
 25 26  1  0  0  0  0
 26 28  2  0  0  0  0
 27 28  1  0  0  0  0
 29 24  1  0  0  0  0
 29 25  1  0  0  0  0
 29 27  1  0  0  0  0
 30 39  1  6  0  0  0
 30 36  1  0  0  0  0
 31 38  1  6  0  0  0
 31 35  1  0  0  0  0
 31 30  1  0  0  0  0
 33 31  1  0  0  0  0
 34 32  2  0  0  0  0
 35 37  1  0  0  0  0
 36 34  1  0  0  0  0
 37 28  1  6  0  0  0
 37 34  1  0  0  0  0
 39 40  1  0  0  0  0
 41  2  1  0  0  0  0
 41 45  1  0  0  0  0
 42 45  2  0  0  0  0
 42 46  1  0  0  0  0
 43 44  1  0  0  0  0
 43 49  1  0  0  0  0
 45 47  1  0  0  0  0
 46 43  2  0  0  0  0
 47 44  2  0  0  0  0
 49 48  1  0  0  0  0
 50 46  1  0  0  0  0
 50 51  1  0  0  0  0
 52 51  1  0  0  0  0
 53 52  1  0  0  0  0
 54 55  1  0  0  0  0
 55 57  1  0  0  0  0
 56 55  2  0  0  0  0
 57 58  1  0  0  0  0
 57 53  1  0  0  0  0
 60 59  1  1  0  0  0
 60 58  1  0  0  0  0
 61 63  1  0  0  0  0
 62 64  1  0  0  0  0
 62 61  1  0  0  0  0
 64 60  1  1  0  0  0
 64 65  1  0  0  0  0
 65 63  1  0  0  0  0
M  END
>  <MODEL>
2

>  <REMARK>
 VINA RESULT:      -3.7      2.395      8.099
  Name = 
  28 active torsions:
  status: ('A' for Active; 'I' for Inactive)
    1  A    between atoms: C_3  and  CA_18
    2  A    between atoms: N_6  and  C_13
    3  A    between atoms: C_7  and  N_57
    4  A    between atoms: C_7  and  C_65
    5  A    between atoms: C_10  and  C_46
    6  A    between atoms: C_13  and  N_53
    7  A    between atoms: C_14  and  C_56
    8  A    between atoms: C_15  and  C_19
    9  A    between atoms: C_20  and  S_23
   10  A    between atoms: C_21  and  C_33
   11  A    between atoms: C_21  and  C_52
   12  A    between atoms: S_23  and  C_61
   13  A    between atoms: O_24  and  C_47
   14  A    between atoms: O_24  and  C_61
   15  A    between atoms: N_27  and  C_33
   16  A    between atoms: C_30  and  C_32
   17  A    between atoms: C_30  and  C_35
   18  A    between atoms: C_32  and  C_40
   19  A    between atoms: C_34  and  C_37
   20  A    between atoms: C_34  and  C_42
   21  A    between atoms: C_35  and  C_47
   22  A    between atoms: C_37  and  C_51
   23  A    between atoms: C_38  and  C_58
   24  A    between atoms: C_40  and  N_49
   25  A    between atoms: O_48  and  C_52
   26  A    between atoms: C_50  and  C_65
   27  A    between atoms: C_51  and  O_60
   28  A    between atoms: N_57  and  O_60
                            x       y       z     vdW  Elec       q    Type
                         _______ _______ _______ _____ _____    ______ ____

>  <TORSDO>
F 28

$$$$
=
 OpenBabel10222418323D

 65 68  0  0  1  0  0  0  0  0999 V2000
  186.6530  178.2740  146.3090 C   0  0  0  0  0  0  0  0  0  0  0  0
  186.6870  177.9550  145.0010 C   0  0  0  0  0  0  0  0  0  0  0  0
  186.4200  179.5930  146.6880 O   0  0  0  0  0  1  0  0  0  0  0  0
  187.9850  176.8650  147.9160 C   0  0  0  0  0  3  0  0  0  0  0  0
  186.8330  177.2640  147.3630 C   0  0  0  0  0  3  0  0  0  0  0  0
  190.1000  177.7720  148.3910 O   0  0  0  0  0  0  0  0  0  0  0  0
  189.8660  176.9500  146.2210 N   0  0  0  0  0  2  0  0  0  0  0  0
  189.3510  177.2470  147.5220 C   0  0  0  0  0  0  0  0  0  0  0  0
  191.2510  177.2170  145.8600 C   0  0  0  0  0  2  0  0  0  0  0  0
  191.3780  178.6520  145.3820 C   0  0  0  0  0  2  0  0  0  0  0  0
  190.2750  178.9630  144.3860 C   0  0  0  0  0  2  0  0  0  0  0  0
  192.0470  178.4310  143.1950 C   0  0  0  0  0  1  0  0  0  0  0  0
  190.7990  179.0420  143.0990 O   0  0  0  0  0  0  0  0  0  0  0  0
  186.9610  176.6660  144.5170 O   0  0  0  0  0  0  0  0  0  0  0  0
  187.0900  176.3350  143.1440 C   0  0  0  0  0  2  0  0  0  0  0  0
  188.2400  177.1120  142.5330 C   0  0  0  0  0  2  0  0  0  0  0  0
  190.2610  175.7030  142.7710 C   0  0  0  0  0  1  0  0  0  0  0  0
  189.1820  176.1670  141.8180 C   0  0  2  0  0  3  0  0  0  0  0  0
  189.8190  176.8580  140.6310 C   0  0  0  0  0  2  0  0  0  0  0  0
  188.7650  177.3670  139.6600 C   0  0  1  0  0  3  0  0  0  0  0  0
  189.0670  178.8170  139.3270 C   0  0  0  0  0  1  0  0  0  0  0  0
  189.6640  175.6590  138.3720 N   0  0  0  0  0  0  0  0  0  0  0  0
  188.8300  176.5750  138.4610 N   0  0  0  0  0  0  0  0  0  0  0  0
  189.8080  174.9160  137.1440 C   0  0  0  0  0  2  0  0  0  0  0  0
  191.2740  173.5310  135.9240 C   0  0  0  0  0  2  0  0  0  0  0  0
  192.7010  173.8240  135.8620 N   0  0  0  0  0  0  0  0  0  0  0  0
  191.9630  174.4080  137.8880 N   0  0  0  0  0  2  0  0  0  0  0  0
  193.0420  174.3320  136.9880 C   0  0  0  0  0  0  0  0  0  0  0  0
  190.8170  173.8640  137.2870 N   0  0  0  0  0  0  0  0  0  0  0  0
  196.9340  173.4210  136.2080 C   0  0  2  0  0  3  0  0  0  0  0  0
  195.8780  172.5780  136.9550 C   0  0  2  0  0  0  0  0  0  0  0  0
  194.9100  176.4950  135.8450 N   0  0  0  0  0  2  0  0  0  0  0  0
  194.9560  172.0300  136.0590 O   0  0  0  0  0  1  0  0  0  0  0  0
  195.2400  175.3160  136.2630 C   0  0  0  0  0  0  0  0  0  0  0  0
  195.1600  173.4610  137.9810 C   0  0  0  0  0  2  0  0  0  0  0  0
  196.3430  174.6340  135.6510 N   0  0  0  0  0  2  0  0  0  0  0  0
  194.4520  174.6720  137.3740 C   0  0  2  0  0  3  0  0  0  0  0  0
  196.5480  171.4520  137.7220 C   0  0  0  0  0  1  0  0  0  0  0  0
  197.6230  172.6280  135.1040 C   0  0  0  0  0  2  0  0  0  0  0  0
  198.9250  172.2910  135.4790 O   0  0  0  0  0  1  0  0  0  0  0  0
  186.3950  179.2280  143.7660 S   0  0  0  0  0  0  0  0  0  0  0  0
  183.9950  178.6210  142.5480 C   0  0  0  0  0  3  0  0  0  0  0  0
  181.8490  178.5440  143.6850 C   0  0  0  0  0  0  0  0  0  0  0  0
  182.4890  178.8850  144.8850 C   0  0  0  0  0  3  0  0  0  0  0  0
  184.6270  178.9350  143.7500 C   0  0  0  0  0  0  0  0  0  0  0  0
  182.6080  178.4190  142.5030 C   0  0  0  0  0  0  0  0  0  0  0  0
  183.8730  179.0780  144.9180 C   0  0  0  0  0  3  0  0  0  0  0  0
  179.7330  179.7350  143.5770 N   0  0  0  0  0  1  0  0  0  0  0  0
  180.3570  178.4200  143.6540 C   0  0  0  0  0  2  0  0  0  0  0  0
  181.9640  178.1310  141.1800 C   0  0  0  0  0  2  0  0  0  0  0  0
  182.8770  178.5540  140.0480 C   0  0  0  0  0  2  0  0  0  0  0  0
  182.2390  179.6930  139.2800 C   0  0  0  0  0  2  0  0  0  0  0  0
  182.1850  179.3710  137.9150 O   0  0  0  0  0  0  0  0  0  0  0  0
  179.0700  181.0960  136.6250 C   0  0  0  0  0  1  0  0  0  0  0  0
  180.4660  180.8570  137.1030 C   0  0  0  0  0  0  0  0  0  0  0  0
  181.2780  181.8210  137.1220 O   0  0  0  0  0  0  0  0  0  0  0  0
  180.8900  179.5580  137.5530 N   0  0  0  0  0  0  0  0  0  0  0  0
  179.8970  178.4910  137.7380 C   0  0  0  0  0  2  0  0  0  0  0  0
  179.3480  176.8770  135.8770 C   0  0  0  0  0  1  0  0  0  0  0  0
  180.2700  177.1690  137.0550 C   0  0  2  0  0  3  0  0  0  0  0  0
  182.3320  174.6560  137.3290 C   0  0  0  0  0  2  0  0  0  0  0  0
  181.8040  175.6590  138.3500 C   0  0  0  0  0  2  0  0  0  0  0  0
  181.1930  174.2070  136.4280 C   0  0  0  0  0  2  0  0  0  0  0  0
  180.3540  175.9910  138.0340 C   0  0  2  0  0  3  0  0  0  0  0  0
  179.6340  174.4870  137.3060 S   0  0  0  0  0  0  0  0  0  0  0  0
  1  3  1  0  0  0  0
  1  5  1  0  0  0  0
  2  1  2  0  0  0  0
  5  4  2  0  0  0  0
  7  8  1  0  0  0  0
  8  4  1  0  0  0  0
  8  6  2  0  0  0  0
  9  7  1  0  0  0  0
 10  9  1  0  0  0  0
 11 10  1  0  0  0  0
 13 12  1  0  0  0  0
 13 11  1  0  0  0  0
 14  2  1  0  0  0  0
 15 14  1  0  0  0  0
 16 15  1  0  0  0  0
 18 16  1  0  0  0  0
 18 17  1  1  0  0  0
 19 18  1  0  0  0  0
 20 21  1  6  0  0  0
 20 19  1  0  0  0  0
 22 23  2  0  0  0  0
 23 20  1  0  0  0  0
 24 29  1  0  0  0  0
 24 22  1  0  0  0  0
 25 29  1  0  0  0  0
 26 25  1  0  0  0  0
 26 28  2  0  0  0  0
 28 27  1  0  0  0  0
 29 27  1  0  0  0  0
 30 39  1  6  0  0  0
 30 31  1  0  0  0  0
 31 38  1  1  0  0  0
 31 35  1  0  0  0  0
 32 34  2  0  0  0  0
 33 31  1  0  0  0  0
 34 37  1  0  0  0  0
 36 30  1  0  0  0  0
 36 34  1  0  0  0  0
 37 28  1  6  0  0  0
 37 35  1  0  0  0  0
 39 40  1  0  0  0  0
 41  2  1  0  0  0  0
 42 45  1  0  0  0  0
 43 44  2  0  0  0  0
 44 47  1  0  0  0  0
 45 41  1  0  0  0  0
 45 47  2  0  0  0  0
 46 42  2  0  0  0  0
 46 43  1  0  0  0  0
 48 49  1  0  0  0  0
 49 43  1  0  0  0  0
 50 46  1  0  0  0  0
 51 50  1  0  0  0  0
 52 51  1  0  0  0  0
 53 52  1  0  0  0  0
 54 55  1  0  0  0  0
 55 56  2  0  0  0  0
 55 57  1  0  0  0  0
 57 58  1  0  0  0  0
 57 53  1  0  0  0  0
 60 59  1  6  0  0  0
 60 58  1  0  0  0  0
 61 62  1  0  0  0  0
 63 65  1  0  0  0  0
 63 61  1  0  0  0  0
 64 60  1  6  0  0  0
 64 62  1  0  0  0  0
 65 64  1  0  0  0  0
M  END
>  <MODEL>
3

>  <REMARK>
 VINA RESULT:      -3.7      3.127     10.243
  Name = 
  28 active torsions:
  status: ('A' for Active; 'I' for Inactive)
    1  A    between atoms: C_3  and  CA_18
    2  A    between atoms: N_6  and  C_13
    3  A    between atoms: C_7  and  N_57
    4  A    between atoms: C_7  and  C_65
    5  A    between atoms: C_10  and  C_46
    6  A    between atoms: C_13  and  N_53
    7  A    between atoms: C_14  and  C_56
    8  A    between atoms: C_15  and  C_19
    9  A    between atoms: C_20  and  S_23
   10  A    between atoms: C_21  and  C_33
   11  A    between atoms: C_21  and  C_52
   12  A    between atoms: S_23  and  C_61
   13  A    between atoms: O_24  and  C_47
   14  A    between atoms: O_24  and  C_61
   15  A    between atoms: N_27  and  C_33
   16  A    between atoms: C_30  and  C_32
   17  A    between atoms: C_30  and  C_35
   18  A    between atoms: C_32  and  C_40
   19  A    between atoms: C_34  and  C_37
   20  A    between atoms: C_34  and  C_42
   21  A    between atoms: C_35  and  C_47
   22  A    between atoms: C_37  and  C_51
   23  A    between atoms: C_38  and  C_58
   24  A    between atoms: C_40  and  N_49
   25  A    between atoms: O_48  and  C_52
   26  A    between atoms: C_50  and  C_65
   27  A    between atoms: C_51  and  O_60
   28  A    between atoms: N_57  and  O_60
                            x       y       z     vdW  Elec       q    Type
                         _______ _______ _______ _____ _____    ______ ____

>  <TORSDO>
F 28

$$$$
=
 OpenBabel10222418323D

 65 68  0  0  1  0  0  0  0  0999 V2000
  185.8490  179.0210  145.8900 C   0  0  0  0  0  0  0  0  0  0  0  0
  186.0940  178.5790  144.6420 C   0  0  0  0  0  0  0  0  0  0  0  0
  185.3590  180.3110  146.0770 O   0  0  0  0  0  1  0  0  0  0  0  0
  187.2280  177.7180  147.5450 C   0  0  0  0  0  3  0  0  0  0  0  0
  186.0610  178.1730  147.0730 C   0  0  0  0  0  3  0  0  0  0  0  0
  189.1380  178.9710  146.9940 O   0  0  0  0  0  0  0  0  0  0  0  0
  189.2390  176.7270  146.3650 N   0  0  0  0  0  2  0  0  0  0  0  0
  188.5600  177.8520  146.9330 C   0  0  0  0  0  0  0  0  0  0  0  0
  190.6020  176.8220  145.8630 C   0  0  0  0  0  2  0  0  0  0  0  0
  191.5680  176.8520  147.0340 C   0  0  0  0  0  2  0  0  0  0  0  0
  192.4170  175.5930  147.0320 C   0  0  0  0  0  2  0  0  0  0  0  0
  192.8310  176.6590  148.9110 C   0  0  0  0  0  1  0  0  0  0  0  0
  193.0810  175.4600  148.2480 O   0  0  0  0  0  0  0  0  0  0  0  0
  186.6320  177.3160  144.3500 O   0  0  0  0  0  0  0  0  0  0  0  0
  187.1210  176.9250  143.0770 C   0  0  0  0  0  2  0  0  0  0  0  0
  188.6190  177.1540  143.0090 C   0  0  0  0  0  2  0  0  0  0  0  0
  189.2710  174.7840  143.3000 C   0  0  0  0  0  1  0  0  0  0  0  0
  189.2950  175.9660  142.3570 C   0  0  2  0  0  3  0  0  0  0  0  0
  190.7280  176.3050  142.0060 C   0  0  0  0  0  2  0  0  0  0  0  0
  190.8580  177.7530  141.5600 C   0  0  1  0  0  3  0  0  0  0  0  0
  192.0780  178.3620  142.2270 C   0  0  0  0  0  1  0  0  0  0  0  0
  191.5400  176.8020  139.5570 N   0  0  0  0  0  0  0  0  0  0  0  0
  191.0280  177.7760  140.1330 N   0  0  0  0  0  0  0  0  0  0  0  0
  191.8060  176.8440  138.1400 C   0  0  0  0  0  2  0  0  0  0  0  0
  192.7100  175.7240  136.2740 C   0  0  0  0  0  2  0  0  0  0  0  0
  194.1040  175.2970  136.2620 N   0  0  0  0  0  0  0  0  0  0  0  0
  193.3360  175.0930  138.3490 N   0  0  0  0  0  2  0  0  0  0  0  0
  194.4180  174.9640  137.4580 C   0  0  0  0  0  0  0  0  0  0  0  0
  192.2020  175.5250  137.6450 N   0  0  0  0  0  0  0  0  0  0  0  0
  197.0310  171.9770  136.5450 C   0  0  2  0  0  3  0  0  0  0  0  0
  195.6490  171.8740  137.2270 C   0  0  2  0  0  0  0  0  0  0  0  0
  197.2550  175.6680  136.4940 N   0  0  0  0  0  2  0  0  0  0  0  0
  194.6220  172.0600  136.2960 O   0  0  0  0  0  1  0  0  0  0  0  0
  196.8000  174.4960  136.7970 C   0  0  0  0  0  0  0  0  0  0  0  0
  195.5540  172.9230  138.3380 C   0  0  0  0  0  2  0  0  0  0  0  0
  197.3050  173.3430  136.1100 N   0  0  0  0  0  2  0  0  0  0  0  0
  195.7350  174.3620  137.8550 C   0  0  2  0  0  3  0  0  0  0  0  0
  195.4820  170.5120  137.8770 C   0  0  0  0  0  1  0  0  0  0  0  0
  197.1600  171.0230  135.3640 C   0  0  0  0  0  2  0  0  0  0  0  0
  198.2250  170.1410  135.5580 O   0  0  0  0  0  1  0  0  0  0  0  0
  185.7520  179.6460  143.2350 S   0  0  0  0  0  0  0  0  0  0  0  0
  183.5620  178.7140  141.8390 C   0  0  0  0  0  3  0  0  0  0  0  0
  181.3970  178.2270  142.8290 C   0  0  0  0  0  0  0  0  0  0  0  0
  181.9000  178.6080  144.0810 C   0  0  0  0  0  3  0  0  0  0  0  0
  184.0620  179.0670  143.0920 C   0  0  0  0  0  0  0  0  0  0  0  0
  182.2330  178.2880  141.6950 C   0  0  0  0  0  0  0  0  0  0  0  0
  183.2280  179.0240  144.2130 C   0  0  0  0  0  3  0  0  0  0  0  0
  179.1120  178.8020  143.4270 N   0  0  0  0  0  1  0  0  0  0  0  0
  179.9510  177.8600  142.6960 C   0  0  0  0  0  2  0  0  0  0  0  0
  181.7250  177.9660  140.3220 C   0  0  0  0  0  2  0  0  0  0  0  0
  182.0290  179.1020  139.3690 C   0  0  0  0  0  2  0  0  0  0  0  0
  183.3470  178.8390  138.6690 C   0  0  0  0  0  2  0  0  0  0  0  0
  183.5570  177.4550  138.5620 O   0  0  0  0  0  0  0  0  0  0  0  0
  185.7770  177.3680  135.4950 C   0  0  0  0  0  1  0  0  0  0  0  0
  185.2740  177.6390  136.8760 C   0  0  0  0  0  0  0  0  0  0  0  0
  186.0270  178.2310  137.6950 O   0  0  0  0  0  0  0  0  0  0  0  0
  183.9480  177.2500  137.2780 N   0  0  0  0  0  0  0  0  0  0  0  0
  182.9960  176.7590  136.2730 C   0  0  0  0  0  2  0  0  0  0  0  0
  182.4460  174.9460  134.6050 C   0  0  0  0  0  1  0  0  0  0  0  0
  183.2050  175.2920  135.8810 C   0  0  2  0  0  3  0  0  0  0  0  0
  184.5700  172.4850  136.8330 C   0  0  0  0  0  2  0  0  0  0  0  0
  184.1800  173.7430  137.6030 C   0  0  0  0  0  2  0  0  0  0  0  0
  183.4680  172.1370  135.8440 C   0  0  0  0  0  2  0  0  0  0  0  0
  182.8960  174.3160  137.0240 C   0  0  2  0  0  3  0  0  0  0  0  0
  181.9300  172.8960  136.4240 S   0  0  0  0  0  0  0  0  0  0  0  0
  1  3  1  0  0  0  0
  1  5  1  0  0  0  0
  2  1  2  0  0  0  0
  5  4  2  0  0  0  0
  7  8  1  0  0  0  0
  8  6  2  0  0  0  0
  8  4  1  0  0  0  0
  9  7  1  0  0  0  0
  9 10  1  0  0  0  0
 11 10  1  0  0  0  0
 11 13  1  0  0  0  0
 13 12  1  0  0  0  0
 14  2  1  0  0  0  0
 15 14  1  0  0  0  0
 16 15  1  0  0  0  0
 18 16  1  0  0  0  0
 18 17  1  1  0  0  0
 19 18  1  0  0  0  0
 20 19  1  0  0  0  0
 20 21  1  1  0  0  0
 22 23  2  0  0  0  0
 23 20  1  0  0  0  0
 24 22  1  0  0  0  0
 25 29  1  0  0  0  0
 26 25  1  0  0  0  0
 26 28  2  0  0  0  0
 28 27  1  0  0  0  0
 29 24  1  0  0  0  0
 29 27  1  0  0  0  0
 30 39  1  6  0  0  0
 30 31  1  0  0  0  0
 31 38  1  1  0  0  0
 31 35  1  0  0  0  0
 32 34  2  0  0  0  0
 33 31  1  0  0  0  0
 34 37  1  0  0  0  0
 36 30  1  0  0  0  0
 36 34  1  0  0  0  0
 37 28  1  6  0  0  0
 37 35  1  0  0  0  0
 39 40  1  0  0  0  0
 41  2  1  0  0  0  0
 42 45  1  0  0  0  0
 43 44  2  0  0  0  0
 44 47  1  0  0  0  0
 45 41  1  0  0  0  0
 45 47  2  0  0  0  0
 46 42  2  0  0  0  0
 46 43  1  0  0  0  0
 49 43  1  0  0  0  0
 49 48  1  0  0  0  0
 50 46  1  0  0  0  0
 51 50  1  0  0  0  0
 52 51  1  0  0  0  0
 53 52  1  0  0  0  0
 54 55  1  0  0  0  0
 55 57  1  0  0  0  0
 55 56  2  0  0  0  0
 57 53  1  0  0  0  0
 58 57  1  0  0  0  0
 60 59  1  6  0  0  0
 60 58  1  0  0  0  0
 61 62  1  0  0  0  0
 63 65  1  0  0  0  0
 63 61  1  0  0  0  0
 64 60  1  6  0  0  0
 64 62  1  0  0  0  0
 65 64  1  0  0  0  0
M  END
>  <MODEL>
4

>  <REMARK>
 VINA RESULT:      -3.3      2.981      9.572
  Name = 
  28 active torsions:
  status: ('A' for Active; 'I' for Inactive)
    1  A    between atoms: C_3  and  CA_18
    2  A    between atoms: N_6  and  C_13
    3  A    between atoms: C_7  and  N_57
    4  A    between atoms: C_7  and  C_65
    5  A    between atoms: C_10  and  C_46
    6  A    between atoms: C_13  and  N_53
    7  A    between atoms: C_14  and  C_56
    8  A    between atoms: C_15  and  C_19
    9  A    between atoms: C_20  and  S_23
   10  A    between atoms: C_21  and  C_33
   11  A    between atoms: C_21  and  C_52
   12  A    between atoms: S_23  and  C_61
   13  A    between atoms: O_24  and  C_47
   14  A    between atoms: O_24  and  C_61
   15  A    between atoms: N_27  and  C_33
   16  A    between atoms: C_30  and  C_32
   17  A    between atoms: C_30  and  C_35
   18  A    between atoms: C_32  and  C_40
   19  A    between atoms: C_34  and  C_37
   20  A    between atoms: C_34  and  C_42
   21  A    between atoms: C_35  and  C_47
   22  A    between atoms: C_37  and  C_51
   23  A    between atoms: C_38  and  C_58
   24  A    between atoms: C_40  and  N_49
   25  A    between atoms: O_48  and  C_52
   26  A    between atoms: C_50  and  C_65
   27  A    between atoms: C_51  and  O_60
   28  A    between atoms: N_57  and  O_60
                            x       y       z     vdW  Elec       q    Type
                         _______ _______ _______ _____ _____    ______ ____

>  <TORSDO>
F 28

$$$$
=
 OpenBabel10222418323D

 65 68  0  0  1  0  0  0  0  0999 V2000
  179.9920  179.5580  138.9920 C   0  0  0  0  0  0  0  0  0  0  0  0
  179.8370  178.4730  139.7740 C   0  0  0  0  0  0  0  0  0  0  0  0
  179.4720  179.5530  137.7000 O   0  0  0  0  0  1  0  0  0  0  0  0
  180.5920  182.0030  138.9540 C   0  0  0  0  0  3  0  0  0  0  0  0
  180.6790  180.7700  139.4660 C   0  0  0  0  0  3  0  0  0  0  0  0
  178.9310  183.2320  137.8350 O   0  0  0  0  0  0  0  0  0  0  0  0
  180.3340  182.0060  136.4330 N   0  0  0  0  0  2  0  0  0  0  0  0
  179.8910  182.4210  137.7280 C   0  0  0  0  0  0  0  0  0  0  0  0
  179.7220  182.5060  135.2110 C   0  0  0  0  0  2  0  0  0  0  0  0
  179.8720  184.0160  135.1550 C   0  0  0  0  0  2  0  0  0  0  0  0
  181.1810  184.4280  135.8040 C   0  0  0  0  0  2  0  0  0  0  0  0
  179.7140  185.9500  136.4130 C   0  0  0  0  0  1  0  0  0  0  0  0
  180.9530  185.4160  136.7570 O   0  0  0  0  0  0  0  0  0  0  0  0
  180.3640  178.3610  141.0700 O   0  0  0  0  0  0  0  0  0  0  0  0
  181.7400  178.4840  141.3920 C   0  0  0  0  0  2  0  0  0  0  0  0
  181.8950  179.1970  142.7210 C   0  0  0  0  0  2  0  0  0  0  0  0
  183.6420  180.0030  144.2780 C   0  0  0  0  0  1  0  0  0  0  0  0
  183.2610  178.9070  143.3080 C   0  0  2  0  0  3  0  0  0  0  0  0
  184.2970  178.8200  142.2080 C   0  0  0  0  0  2  0  0  0  0  0  0
  185.4960  177.9930  142.6460 C   0  0  1  0  0  3  0  0  0  0  0  0
  186.7350  178.5180  141.9440 C   0  0  0  0  0  1  0  0  0  0  0  0
  186.3980  177.3590  144.6870 N   0  0  0  0  0  0  0  0  0  0  0  0
  185.6520  178.1360  144.0680 N   0  0  0  0  0  0  0  0  0  0  0  0
  186.4950  177.4250  146.1250 C   0  0  0  0  0  2  0  0  0  0  0  0
  188.1860  177.7800  147.7270 C   0  0  0  0  0  2  0  0  0  0  0  0
  189.5880  177.5540  147.3960 N   0  0  0  0  0  0  0  0  0  0  0  0
  188.5670  178.3500  145.5760 N   0  0  0  0  0  2  0  0  0  0  0  0
  189.7530  177.8750  146.1670 C   0  0  0  0  0  0  0  0  0  0  0  0
  187.5420  178.3620  146.5340 N   0  0  0  0  0  0  0  0  0  0  0  0
  191.5530  177.0830  142.6010 C   0  0  2  0  0  3  0  0  0  0  0  0
  190.9970  176.0880  143.6420 C   0  0  2  0  0  0  0  0  0  0  0  0
  191.1020  180.1590  144.6050 N   0  0  0  0  0  2  0  0  0  0  0  0
  189.5990  176.0670  143.6110 O   0  0  0  0  0  1  0  0  0  0  0  0
  191.1500  178.8940  144.3400 C   0  0  0  0  0  0  0  0  0  0  0  0
  191.4910  176.4850  145.0360 C   0  0  0  0  0  2  0  0  0  0  0  0
  191.2530  178.4620  142.9760 N   0  0  0  0  0  2  0  0  0  0  0  0
  191.0790  177.8940  145.4650 C   0  0  2  0  0  3  0  0  0  0  0  0
  191.5150  174.6880  143.3630 C   0  0  0  0  0  1  0  0  0  0  0  0
  191.0230  176.8030  141.1990 C   0  0  0  0  0  2  0  0  0  0  0  0
  192.0210  177.0150  140.2450 O   0  0  0  0  0  1  0  0  0  0  0  0
  178.9310  177.0490  139.1530 S   0  0  0  0  0  0  0  0  0  0  0  0
  181.5790  176.4950  138.6130 C   0  0  0  0  0  3  0  0  0  0  0  0
  182.4310  175.8030  136.4450 C   0  0  0  0  0  0  0  0  0  0  0  0
  181.1290  175.8710  135.9280 C   0  0  0  0  0  3  0  0  0  0  0  0
  180.2840  176.5350  138.0970 C   0  0  0  0  0  0  0  0  0  0  0  0
  182.6600  176.1270  137.7980 C   0  0  0  0  0  0  0  0  0  0  0  0
  180.0590  176.2330  136.7510 C   0  0  0  0  0  3  0  0  0  0  0  0
  183.2130  174.4260  134.6000 N   0  0  0  0  0  1  0  0  0  0  0  0
  183.5740  175.4910  135.5280 C   0  0  0  0  0  2  0  0  0  0  0  0
  184.0410  176.1450  138.3820 C   0  0  0  0  0  2  0  0  0  0  0  0
  184.3710  177.5260  138.9070 C   0  0  0  0  0  2  0  0  0  0  0  0
  185.2360  178.2590  137.9020 C   0  0  0  0  0  2  0  0  0  0  0  0
  185.8590  177.3330  137.0510 O   0  0  0  0  0  0  0  0  0  0  0  0
  189.3800  178.3990  137.9500 C   0  0  0  0  0  1  0  0  0  0  0  0
  187.9850  178.4160  137.4160 C   0  0  0  0  0  0  0  0  0  0  0  0
  187.5480  179.4720  136.8820 O   0  0  0  0  0  0  0  0  0  0  0  0
  187.1420  177.2520  137.4880 N   0  0  0  0  0  0  0  0  0  0  0  0
  187.7120  175.9650  137.9090 C   0  0  0  0  0  2  0  0  0  0  0  0
  187.5200  175.5520  135.4260 C   0  0  0  0  0  1  0  0  0  0  0  0
  188.0890  175.0410  136.7440 C   0  0  2  0  0  3  0  0  0  0  0  0
  188.6720  172.2900  135.0900 C   0  0  0  0  0  2  0  0  0  0  0  0
  188.8590  172.6570  136.5590 C   0  0  0  0  0  2  0  0  0  0  0  0
  187.3400  172.8360  134.6000 C   0  0  0  0  0  2  0  0  0  0  0  0
  187.7300  173.5720  137.0030 C   0  0  2  0  0  3  0  0  0  0  0  0
  186.2680  173.0810  136.0380 S   0  0  0  0  0  0  0  0  0  0  0  0
  1  5  1  0  0  0  0
  1  2  2  0  0  0  0
  2 14  1  0  0  0  0
  3  1  1  0  0  0  0
  4  5  2  0  0  0  0
  7  8  1  0  0  0  0
  8  6  2  0  0  0  0
  8  4  1  0  0  0  0
  9  7  1  0  0  0  0
 10  9  1  0  0  0  0
 10 11  1  0  0  0  0
 11 13  1  0  0  0  0
 12 13  1  0  0  0  0
 14 15  1  0  0  0  0
 15 16  1  0  0  0  0
 16 18  1  0  0  0  0
 18 17  1  1  0  0  0
 19 20  1  0  0  0  0
 19 18  1  0  0  0  0
 20 21  1  6  0  0  0
 20 23  1  0  0  0  0
 22 24  1  0  0  0  0
 23 22  2  0  0  0  0
 24 29  1  0  0  0  0
 26 25  1  0  0  0  0
 27 28  1  0  0  0  0
 27 29  1  0  0  0  0
 28 26  2  0  0  0  0
 29 25  1  0  0  0  0
 30 39  1  6  0  0  0
 30 36  1  0  0  0  0
 30 31  1  0  0  0  0
 31 38  1  6  0  0  0
 31 35  1  0  0  0  0
 33 31  1  0  0  0  0
 34 32  2  0  0  0  0
 34 37  1  0  0  0  0
 35 37  1  0  0  0  0
 36 34  1  0  0  0  0
 37 28  1  6  0  0  0
 40 39  1  0  0  0  0
 41  2  1  0  0  0  0
 43 46  1  0  0  0  0
 44 43  2  0  0  0  0
 44 47  1  0  0  0  0
 45 42  1  0  0  0  0
 45 41  1  0  0  0  0
 46 50  1  0  0  0  0
 46 42  2  0  0  0  0
 47 45  2  0  0  0  0
 48 49  1  0  0  0  0
 49 43  1  0  0  0  0
 50 51  1  0  0  0  0
 52 51  1  0  0  0  0
 53 57  1  0  0  0  0
 53 52  1  0  0  0  0
 55 57  1  0  0  0  0
 55 54  1  0  0  0  0
 56 55  2  0  0  0  0
 57 58  1  0  0  0  0
 60 59  1  6  0  0  0
 60 58  1  0  0  0  0
 61 62  1  0  0  0  0
 62 64  1  0  0  0  0
 63 61  1  0  0  0  0
 63 65  1  0  0  0  0
 64 60  1  6  0  0  0
 65 64  1  0  0  0  0
M  END
>  <MODEL>
5

>  <REMARK>
 VINA RESULT:      -3.3      4.149     10.102
  Name = 
  28 active torsions:
  status: ('A' for Active; 'I' for Inactive)
    1  A    between atoms: C_3  and  CA_18
    2  A    between atoms: N_6  and  C_13
    3  A    between atoms: C_7  and  N_57
    4  A    between atoms: C_7  and  C_65
    5  A    between atoms: C_10  and  C_46
    6  A    between atoms: C_13  and  N_53
    7  A    between atoms: C_14  and  C_56
    8  A    between atoms: C_15  and  C_19
    9  A    between atoms: C_20  and  S_23
   10  A    between atoms: C_21  and  C_33
   11  A    between atoms: C_21  and  C_52
   12  A    between atoms: S_23  and  C_61
   13  A    between atoms: O_24  and  C_47
   14  A    between atoms: O_24  and  C_61
   15  A    between atoms: N_27  and  C_33
   16  A    between atoms: C_30  and  C_32
   17  A    between atoms: C_30  and  C_35
   18  A    between atoms: C_32  and  C_40
   19  A    between atoms: C_34  and  C_37
   20  A    between atoms: C_34  and  C_42
   21  A    between atoms: C_35  and  C_47
   22  A    between atoms: C_37  and  C_51
   23  A    between atoms: C_38  and  C_58
   24  A    between atoms: C_40  and  N_49
   25  A    between atoms: O_48  and  C_52
   26  A    between atoms: C_50  and  C_65
   27  A    between atoms: C_51  and  O_60
   28  A    between atoms: N_57  and  O_60
                            x       y       z     vdW  Elec       q    Type
                         _______ _______ _______ _____ _____    ______ ____

>  <TORSDO>
F 28

$$$$
=
 OpenBabel10222418323D

 65 68  0  0  1  0  0  0  0  0999 V2000
  188.2900  177.6510  142.2710 C   0  0  0  0  0  0  0  0  0  0  0  0
  188.1940  177.8330  143.6020 C   0  0  0  0  0  0  0  0  0  0  0  0
  187.6380  176.5740  141.6770 O   0  0  0  0  0  1  0  0  0  0  0  0
  188.9050  178.7520  140.0920 C   0  0  0  0  0  3  0  0  0  0  0  0
  189.0470  178.5730  141.4110 C   0  0  0  0  0  3  0  0  0  0  0  0
  186.9380  178.4830  138.8350 O   0  0  0  0  0  0  0  0  0  0  0  0
  188.4940  176.7640  138.5760 N   0  0  0  0  0  2  0  0  0  0  0  0
  188.0500  177.9890  139.1680 C   0  0  0  0  0  0  0  0  0  0  0  0
  187.7060  176.0630  137.5720 C   0  0  0  0  0  2  0  0  0  0  0  0
  188.4870  174.8630  137.0680 C   0  0  0  0  0  2  0  0  0  0  0  0
  188.7360  175.0010  135.5760 C   0  0  0  0  0  2  0  0  0  0  0  0
  188.5560  172.8410  135.9520 C   0  0  0  0  0  1  0  0  0  0  0  0
  189.0380  173.7600  135.0230 O   0  0  0  0  0  0  0  0  0  0  0  0
  188.8510  178.8570  144.3020 O   0  0  0  0  0  0  0  0  0  0  0  0
  189.6860  178.6530  145.4300 C   0  0  0  0  0  2  0  0  0  0  0  0
  191.0440  178.1520  144.9800 C   0  0  0  0  0  2  0  0  0  0  0  0
  191.7370  175.9960  145.9800 C   0  0  0  0  0  1  0  0  0  0  0  0
  191.0140  176.6460  144.8210 C   0  0  2  0  0  3  0  0  0  0  0  0
  191.6750  176.2420  143.5210 C   0  0  0  0  0  2  0  0  0  0  0  0
  191.6710  177.3880  142.5220 C   0  0  1  0  0  3  0  0  0  0  0  0
  192.1960  178.6360  143.2070 C   0  0  0  0  0  1  0  0  0  0  0  0
  192.1670  177.2440  140.2600 N   0  0  0  0  0  0  0  0  0  0  0  0
  192.5370  177.0400  141.4270 N   0  0  0  0  0  0  0  0  0  0  0  0
  192.9790  176.8160  139.1470 C   0  0  0  0  0  2  0  0  0  0  0  0
  191.5430  176.5390  137.3000 C   0  0  0  0  0  2  0  0  0  0  0  0
  192.0590  176.0880  136.0130 N   0  0  0  0  0  0  0  0  0  0  0  0
  193.2230  175.0660  137.6210 N   0  0  0  0  0  2  0  0  0  0  0  0
  193.0160  175.2700  136.2440 C   0  0  0  0  0  0  0  0  0  0  0  0
  192.2800  175.8080  138.3480 N   0  0  0  0  0  0  0  0  0  0  0  0
  196.6400  173.6660  135.3040 C   0  0  2  0  0  3  0  0  0  0  0  0
  196.2210  175.1520  135.3300 C   0  0  2  0  0  0  0  0  0  0  0  0
  193.2870  172.2230  135.9000 N   0  0  0  0  0  2  0  0  0  0  0  0
  196.1060  175.6120  136.6460 O   0  0  0  0  0  1  0  0  0  0  0  0
  194.1790  173.1230  135.6380 C   0  0  0  0  0  0  0  0  0  0  0  0
  194.8880  175.3150  134.5940 C   0  0  0  0  0  2  0  0  0  0  0  0
  195.5680  172.8070  135.7980 N   0  0  0  0  0  2  0  0  0  0  0  0
  193.7440  174.4930  135.1860 C   0  0  2  0  0  3  0  0  0  0  0  0
  197.2450  176.0020  134.6000 C   0  0  0  0  0  1  0  0  0  0  0  0
  197.9130  173.4150  136.1020 C   0  0  0  0  0  2  0  0  0  0  0  0
  198.6100  172.3210  135.5850 O   0  0  0  0  0  1  0  0  0  0  0  0
  187.1990  176.7040  144.5860 S   0  0  0  0  0  0  0  0  0  0  0  0
  185.2020  177.5800  142.8950 C   0  0  0  0  0  3  0  0  0  0  0  0
  183.3370  178.9830  143.5700 C   0  0  0  0  0  0  0  0  0  0  0  0
  183.8350  178.9910  144.8810 C   0  0  0  0  0  3  0  0  0  0  0  0
  185.6770  177.5710  144.2060 C   0  0  0  0  0  0  0  0  0  0  0  0
  184.0310  178.2780  142.5650 C   0  0  0  0  0  0  0  0  0  0  0  0
  185.0000  178.2860  145.1980 C   0  0  0  0  0  3  0  0  0  0  0  0
  180.9090  179.0490  143.4560 N   0  0  0  0  0  1  0  0  0  0  0  0
  182.1330  179.8090  143.2340 C   0  0  0  0  0  2  0  0  0  0  0  0
  183.5840  178.2990  141.1340 C   0  0  0  0  0  2  0  0  0  0  0  0
  184.5420  179.1190  140.2970 C   0  0  0  0  0  2  0  0  0  0  0  0
  183.8430  179.5880  139.0370 C   0  0  0  0  0  2  0  0  0  0  0  0
  182.6870  180.3070  139.3780 O   0  0  0  0  0  0  0  0  0  0  0  0
  180.3450  181.3190  136.5790 C   0  0  0  0  0  1  0  0  0  0  0  0
  181.2010  181.3730  137.8040 C   0  0  0  0  0  0  0  0  0  0  0  0
  181.3270  182.4690  138.4140 O   0  0  0  0  0  0  0  0  0  0  0  0
  181.8660  180.1980  138.3020 N   0  0  0  0  0  0  0  0  0  0  0  0
  181.5530  178.8830  137.7280 C   0  0  0  0  0  2  0  0  0  0  0  0
  180.1800  178.4690  139.8050 C   0  0  0  0  0  1  0  0  0  0  0  0
  180.2850  178.2400  138.3020 C   0  0  2  0  0  3  0  0  0  0  0  0
  181.3280  175.4860  139.7060 C   0  0  0  0  0  2  0  0  0  0  0  0
  179.9620  175.9060  139.1730 C   0  0  0  0  0  2  0  0  0  0  0  0
  182.4080  175.9310  138.7320 C   0  0  0  0  0  2  0  0  0  0  0  0
  180.1420  176.7590  137.9280 C   0  0  2  0  0  3  0  0  0  0  0  0
  181.6440  176.1480  137.1040 S   0  0  0  0  0  0  0  0  0  0  0  0
  1  2  2  0  0  0  0
  2 14  1  0  0  0  0
  2 41  1  0  0  0  0
  3  1  1  0  0  0  0
  4  5  2  0  0  0  0
  5  1  1  0  0  0  0
  6  8  2  0  0  0  0
  7  8  1  0  0  0  0
  8  4  1  0  0  0  0
  9  7  1  0  0  0  0
 10  9  1  0  0  0  0
 11 10  1  0  0  0  0
 13 11  1  0  0  0  0
 13 12  1  0  0  0  0
 14 15  1  0  0  0  0
 16 15  1  0  0  0  0
 18 16  1  0  0  0  0
 18 17  1  1  0  0  0
 19 18  1  0  0  0  0
 20 21  1  1  0  0  0
 20 19  1  0  0  0  0
 22 23  2  0  0  0  0
 23 20  1  0  0  0  0
 24 22  1  0  0  0  0
 25 29  1  0  0  0  0
 26 28  2  0  0  0  0
 26 25  1  0  0  0  0
 27 29  1  0  0  0  0
 28 27  1  0  0  0  0
 29 24  1  0  0  0  0
 30 31  1  0  0  0  0
 30 36  1  0  0  0  0
 30 39  1  1  0  0  0
 31 38  1  6  0  0  0
 31 33  1  0  0  0  0
 34 36  1  0  0  0  0
 34 32  2  0  0  0  0
 35 37  1  0  0  0  0
 35 31  1  0  0  0  0
 37 34  1  0  0  0  0
 37 28  1  1  0  0  0
 40 39  1  0  0  0  0
 42 45  1  0  0  0  0
 43 44  2  0  0  0  0
 44 47  1  0  0  0  0
 45 41  1  0  0  0  0
 45 47  2  0  0  0  0
 46 42  2  0  0  0  0
 46 43  1  0  0  0  0
 49 48  1  0  0  0  0
 49 43  1  0  0  0  0
 50 46  1  0  0  0  0
 51 50  1  0  0  0  0
 52 53  1  0  0  0  0
 52 51  1  0  0  0  0
 54 55  1  0  0  0  0
 55 57  1  0  0  0  0
 55 56  2  0  0  0  0
 57 53  1  0  0  0  0
 58 57  1  0  0  0  0
 58 60  1  0  0  0  0
 60 59  1  1  0  0  0
 62 61  1  0  0  0  0
 63 61  1  0  0  0  0
 64 60  1  1  0  0  0
 64 62  1  0  0  0  0
 65 64  1  0  0  0  0
 65 63  1  0  0  0  0
M  END
>  <MODEL>
6

>  <REMARK>
 VINA RESULT:      -2.8      3.316     10.721
  Name = 
  28 active torsions:
  status: ('A' for Active; 'I' for Inactive)
    1  A    between atoms: C_3  and  CA_18
    2  A    between atoms: N_6  and  C_13
    3  A    between atoms: C_7  and  N_57
    4  A    between atoms: C_7  and  C_65
    5  A    between atoms: C_10  and  C_46
    6  A    between atoms: C_13  and  N_53
    7  A    between atoms: C_14  and  C_56
    8  A    between atoms: C_15  and  C_19
    9  A    between atoms: C_20  and  S_23
   10  A    between atoms: C_21  and  C_33
   11  A    between atoms: C_21  and  C_52
   12  A    between atoms: S_23  and  C_61
   13  A    between atoms: O_24  and  C_47
   14  A    between atoms: O_24  and  C_61
   15  A    between atoms: N_27  and  C_33
   16  A    between atoms: C_30  and  C_32
   17  A    between atoms: C_30  and  C_35
   18  A    between atoms: C_32  and  C_40
   19  A    between atoms: C_34  and  C_37
   20  A    between atoms: C_34  and  C_42
   21  A    between atoms: C_35  and  C_47
   22  A    between atoms: C_37  and  C_51
   23  A    between atoms: C_38  and  C_58
   24  A    between atoms: C_40  and  N_49
   25  A    between atoms: O_48  and  C_52
   26  A    between atoms: C_50  and  C_65
   27  A    between atoms: C_51  and  O_60
   28  A    between atoms: N_57  and  O_60
                            x       y       z     vdW  Elec       q    Type
                         _______ _______ _______ _____ _____    ______ ____

>  <TORSDO>
F 28

$$$$
