=
 OpenBabel10222416083D

 26 30  0  0  1  0  0  0  0  0999 V2000
  188.3650  177.3830  141.4560 C   0  0  2  0  0  3  0  0  0  0  0  0
  188.2510  178.6880  141.0210 C   0  0  0  0  0  2  0  0  0  0  0  0
  187.2340  178.1910  141.9970 N   0  0  0  0  0  0  0  0  0  0  0  0
  192.2740  176.3880  142.8820 O   0  0  0  0  0  1  0  0  0  0  0  0
  188.9460  176.4380  143.7570 C   0  0  2  0  0  3  0  0  0  0  0  0
  190.4470  178.9220  144.0350 C   0  0  0  0  0  0  0  0  0  0  0  0
  191.1110  180.0610  144.1550 C   0  0  0  0  0  2  0  0  0  0  0  0
  191.0850  176.1230  144.9460 C   0  0  0  0  0  2  0  0  0  0  0  0
  191.2640  175.6610  143.5140 C   0  0  1  0  0  3  0  0  0  0  0  0
  189.8320  178.2860  145.2380 C   0  0  0  0  0  2  0  0  0  0  0  0
  189.7150  176.7750  145.0350 C   0  0  1  0  0  3  0  0  0  0  0  0
  189.9320  175.8000  142.7750 C   0  0  2  0  0  3  0  0  0  0  0  0
  190.3280  178.3130  142.7860 O   0  0  0  0  0  0  0  0  0  0  0  0
  189.4260  177.2230  142.5390 C   0  0  1  0  0  0  0  0  0  0  0  0
  184.4780  179.2060  145.3990 N   0  0  0  0  0  0  0  0  0  0  0  0
  186.3200  178.1370  144.2620 N   0  0  0  0  0  2  0  0  0  0  0  0
  183.6870  178.8130  143.1530 C   0  0  0  0  0  2  0  0  0  0  0  0
  185.5300  178.4450  145.4250 C   0  0  0  0  0  0  0  0  0  0  0  0
  183.9340  179.8510  144.2200 C   0  0  0  0  0  2  0  0  0  0  0  0
  184.9130  178.6710  142.3140 C   0  0  0  0  0  0  0  0  0  0  0  0
  186.1040  178.3480  142.8530 C   0  0  0  0  0  0  0  0  0  0  0  0
  185.9700  177.8950  146.7330 C   0  0  0  0  0  1  0  0  0  0  0  0
  184.1310  178.4080  138.5080 C   0  0  0  0  0  1  0  0  0  0  0  0
  184.8270  178.8440  140.8870 N   0  0  0  0  0  2  0  0  0  0  0  0
  183.1420  177.2490  140.3600 N   0  0  0  0  0  2  0  0  0  0  0  0
  184.0170  178.1100  139.9590 C   0  0  0  0  0  0  0  0  0  0  0  0
  1  2  1  6  0  0  0
  1  3  1  0  0  0  0
  1 14  1  0  0  0  0
  2  3  1  0  0  0  0
  3 21  1  0  0  0  0
  4  9  1  0  0  0  0
  5 11  1  0  0  0  0
  6  7  2  0  0  0  0
  6 10  1  0  0  0  0
  8 11  1  0  0  0  0
  9  8  1  0  0  0  0
 11 10  1  0  0  0  0
 12  9  1  0  0  0  0
 12  5  1  0  0  0  0
 13  6  1  0  0  0  0
 14 12  1  0  0  0  0
 14 13  1  0  0  0  0
 14  5  1  0  0  0  0
 15 18  2  0  0  0  0
 16 18  1  0  0  0  0
 17 19  1  0  0  0  0
 18 22  1  0  0  0  0
 19 15  1  0  0  0  0
 20 21  2  0  0  0  0
 20 17  1  0  0  0  0
 21 16  1  0  0  0  0
 23 26  1  0  0  0  0
 24 20  1  0  0  0  0
 26 25  2  0  0  0  0
 26 24  1  0  0  0  0
M  END
>  <MODEL>
1

>  <REMARK>
 VINA RESULT:      -7.8      0.000      0.000
  Name = 
  3 active torsions:
  status: ('A' for Active; 'I' for Inactive)
    1  A    between atoms: C_2  and  C_26
    2  A    between atoms: N_12  and  C_21
    3  A    between atoms: N_18  and  C_19
                            x       y       z     vdW  Elec       q    Type
                         _______ _______ _______ _____ _____    ______ ____

>  <TORSDO>
F 3

$$$$
=
 OpenBabel10222416083D

 26 30  0  0  1  0  0  0  0  0999 V2000
  187.9480  176.3860  143.1670 C   0  0  2  0  0  3  0  0  0  0  0  0
  186.9640  177.3420  143.3110 C   0  0  0  0  0  2  0  0  0  0  0  0
  187.7440  176.9630  144.5270 N   0  0  0  0  0  0  0  0  0  0  0  0
  190.1920  178.4870  140.1920 O   0  0  0  0  0  1  0  0  0  0  0  0
  190.3810  175.9550  142.5150 C   0  0  2  0  0  3  0  0  0  0  0  0
  190.7740  178.6840  143.4640 C   0  0  0  0  0  0  0  0  0  0  0  0
  190.9420  179.9180  143.9140 C   0  0  0  0  0  2  0  0  0  0  0  0
  191.9920  177.2150  141.1350 C   0  0  0  0  0  2  0  0  0  0  0  0
  190.6610  177.1910  140.4100 C   0  0  1  0  0  3  0  0  0  0  0  0
  191.8730  177.6820  143.6050 C   0  0  0  0  0  2  0  0  0  0  0  0
  191.7590  176.6190  142.5120 C   0  0  1  0  0  3  0  0  0  0  0  0
  189.6640  176.3680  141.2270 C   0  0  2  0  0  3  0  0  0  0  0  0
  189.5730  178.3220  142.8540 O   0  0  0  0  0  0  0  0  0  0  0  0
  189.2300  176.9570  142.5700 C   0  0  1  0  0  0  0  0  0  0  0  0
  189.8300  177.8660  148.4050 N   0  0  0  0  0  0  0  0  0  0  0  0
  189.4820  176.8530  146.2410 N   0  0  0  0  0  0  0  0  0  0  0  0
  187.4490  177.4960  148.2600 C   0  0  0  0  0  2  0  0  0  0  0  0
  190.2530  177.1260  147.4250 C   0  0  0  0  0  0  0  0  0  0  0  0
  188.5370  178.5210  148.4680 C   0  0  0  0  0  2  0  0  0  0  0  0
  187.1460  177.3920  146.8020 C   0  0  1  0  0  3  0  0  0  0  0  0
  188.1010  177.0840  145.9030 C   0  0  0  0  0  0  0  0  0  0  0  0
  191.6250  176.5630  147.5100 C   0  0  0  0  0  1  0  0  0  0  0  0
  183.6860  178.8010  145.7020 C   0  0  0  0  0  1  0  0  0  0  0  0
  185.7980  177.5870  146.3360 N   0  0  0  0  0  2  0  0  0  0  0  0
  185.7180  179.9630  146.2270 N   0  0  0  0  0  2  0  0  0  0  0  0
  185.1100  178.8270  146.1260 C   0  0  0  0  0  0  0  0  0  0  0  0
  1  2  1  6  0  0  0
  1  3  1  0  0  0  0
  2  3  1  0  0  0  0
  3 21  1  0  0  0  0
  4  9  1  0  0  0  0
  5 14  1  0  0  0  0
  6 10  1  0  0  0  0
  6  7  2  0  0  0  0
  8 11  1  0  0  0  0
  9  8  1  0  0  0  0
  9 12  1  0  0  0  0
 11  5  1  0  0  0  0
 11 10  1  0  0  0  0
 12  5  1  0  0  0  0
 12 14  1  0  0  0  0
 13  6  1  0  0  0  0
 14 13  1  0  0  0  0
 14  1  1  0  0  0  0
 15 19  1  0  0  0  0
 16 18  1  0  0  0  0
 17 19  1  0  0  0  0
 18 22  1  0  0  0  0
 18 15  2  0  0  0  0
 20 17  1  0  0  0  0
 21 16  2  0  0  0  0
 21 20  1  0  0  0  0
 23 26  1  0  0  0  0
 24 20  1  0  0  0  0
 26 25  2  0  0  0  0
 26 24  1  0  0  0  0
M  END
>  <MODEL>
2

>  <REMARK>
 VINA RESULT:      -7.5      2.698      4.412
  Name = 
  3 active torsions:
  status: ('A' for Active; 'I' for Inactive)
    1  A    between atoms: C_2  and  C_26
    2  A    between atoms: N_12  and  C_21
    3  A    between atoms: N_18  and  C_19
                            x       y       z     vdW  Elec       q    Type
                         _______ _______ _______ _____ _____    ______ ____

>  <TORSDO>
F 3

$$$$
=
 OpenBabel10222416083D

 26 30  0  0  1  0  0  0  0  0999 V2000
  191.7040  176.6590  140.9390 C   0  0  2  0  0  3  0  0  0  0  0  0
  192.0940  177.7000  140.1230 C   0  0  0  0  0  2  0  0  0  0  0  0
  190.9820  176.8230  139.6440 N   0  0  0  0  0  0  0  0  0  0  0  0
  190.5990  179.2610  144.1500 O   0  0  0  0  0  1  0  0  0  0  0  0
  190.4180  176.0060  143.0480 C   0  0  2  0  0  3  0  0  0  0  0  0
  188.4360  177.8840  142.0250 C   0  0  0  0  0  0  0  0  0  0  0  0
  187.5380  178.7260  141.5400 C   0  0  0  0  0  2  0  0  0  0  0  0
  189.3560  177.3300  144.8380 C   0  0  0  0  0  2  0  0  0  0  0  0
  190.7180  177.9290  144.5480 C   0  0  1  0  0  3  0  0  0  0  0  0
  187.9970  176.6970  142.8170 C   0  0  0  0  0  2  0  0  0  0  0  0
  189.1020  176.2680  143.7830 C   0  0  1  0  0  3  0  0  0  0  0  0
  191.4130  177.0880  143.4760 C   0  0  2  0  0  3  0  0  0  0  0  0
  189.7950  178.1090  141.7990 O   0  0  0  0  0  0  0  0  0  0  0  0
  190.7990  177.1200  142.0770 C   0  0  1  0  0  0  0  0  0  0  0  0
  187.6610  176.8140  136.6160 N   0  0  0  0  0  0  0  0  0  0  0  0
  188.7580  177.2420  138.7240 N   0  0  0  0  0  2  0  0  0  0  0  0
  189.1130  174.9190  136.9640 C   0  0  0  0  0  2  0  0  0  0  0  0
  187.6560  177.3410  137.8040 C   0  0  0  0  0  0  0  0  0  0  0  0
  188.7510  176.0520  136.0370 C   0  0  0  0  0  2  0  0  0  0  0  0
  190.1600  175.3840  137.9220 C   0  0  0  0  0  0  0  0  0  0  0  0
  189.9600  176.4470  138.7240 C   0  0  0  0  0  0  0  0  0  0  0  0
  186.4660  178.1250  138.2220 C   0  0  0  0  0  1  0  0  0  0  0  0
  193.7560  173.9550  137.4890 C   0  0  0  0  0  1  0  0  0  0  0  0
  191.4020  174.6650  138.0270 N   0  0  0  0  0  2  0  0  0  0  0  0
  192.7210  175.8460  136.4380 N   0  0  0  0  0  2  0  0  0  0  0  0
  192.6000  174.8600  137.2640 C   0  0  0  0  0  0  0  0  0  0  0  0
  1  2  1  6  0  0  0
  1 14  1  0  0  0  0
  3  2  1  0  0  0  0
  3  1  1  0  0  0  0
  4  9  1  0  0  0  0
  5 12  1  0  0  0  0
  5 11  1  0  0  0  0
  6 10  1  0  0  0  0
  7  6  2  0  0  0  0
  9  8  1  0  0  0  0
 10 11  1  0  0  0  0
 11  8  1  0  0  0  0
 12  9  1  0  0  0  0
 13  6  1  0  0  0  0
 13 14  1  0  0  0  0
 14  5  1  0  0  0  0
 14 12  1  0  0  0  0
 15 18  2  0  0  0  0
 17 20  1  0  0  0  0
 18 22  1  0  0  0  0
 18 16  1  0  0  0  0
 19 15  1  0  0  0  0
 19 17  1  0  0  0  0
 20 24  1  0  0  0  0
 20 21  2  0  0  0  0
 21 16  1  0  0  0  0
 21  3  1  0  0  0  0
 25 26  2  0  0  0  0
 26 23  1  0  0  0  0
 26 24  1  0  0  0  0
M  END
>  <MODEL>
3

>  <REMARK>
 VINA RESULT:      -7.2      3.935      6.383
  Name = 
  3 active torsions:
  status: ('A' for Active; 'I' for Inactive)
    1  A    between atoms: C_2  and  C_26
    2  A    between atoms: N_12  and  C_21
    3  A    between atoms: N_18  and  C_19
                            x       y       z     vdW  Elec       q    Type
                         _______ _______ _______ _____ _____    ______ ____

>  <TORSDO>
F 3

$$$$
=
 OpenBabel10222416083D

 26 30  0  0  1  0  0  0  0  0999 V2000
  189.4010  178.0470  138.7810 C   0  0  2  0  0  3  0  0  0  0  0  0
  189.5530  177.0220  139.6920 C   0  0  0  0  0  2  0  0  0  0  0  0
  188.3950  177.9480  139.8780 N   0  0  0  0  0  0  0  0  0  0  0  0
  189.4660  176.1670  134.9390 O   0  0  0  0  0  1  0  0  0  0  0  0
  187.9490  178.6550  136.7700 C   0  0  2  0  0  3  0  0  0  0  0  0
  186.9380  175.9400  137.0940 C   0  0  0  0  0  0  0  0  0  0  0  0
  186.4760  174.7110  137.2630 C   0  0  0  0  0  2  0  0  0  0  0  0
  187.5270  177.5370  134.6110 C   0  0  0  0  0  2  0  0  0  0  0  0
  189.0160  177.4870  134.8900 C   0  0  1  0  0  3  0  0  0  0  0  0
  186.0380  177.0100  136.5700 C   0  0  0  0  0  2  0  0  0  0  0  0
  186.8590  178.0870  135.8590 C   0  0  1  0  0  3  0  0  0  0  0  0
  189.3020  178.2220  136.2000 C   0  0  2  0  0  3  0  0  0  0  0  0
  188.2670  176.2320  137.4000 O   0  0  0  0  0  0  0  0  0  0  0  0
  188.7650  177.5770  137.4770 C   0  0  1  0  0  0  0  0  0  0  0  0
  184.1270  178.6330  141.1110 N   0  0  0  0  0  0  0  0  0  0  0  0
  186.0760  178.6910  139.6860 N   0  0  0  0  0  0  0  0  0  0  0  0
  185.9890  178.9860  142.6060 C   0  0  0  0  0  2  0  0  0  0  0  0
  184.6790  178.8990  139.9650 C   0  0  0  0  0  0  0  0  0  0  0  0
  184.8140  178.1010  142.2730 C   0  0  0  0  0  2  0  0  0  0  0  0
  187.1940  178.4980  141.8710 C   0  0  1  0  0  3  0  0  0  0  0  0
  187.2030  178.3850  140.5280 C   0  0  0  0  0  0  0  0  0  0  0  0
  183.8160  179.4050  138.8680 C   0  0  0  0  0  1  0  0  0  0  0  0
  189.9660  176.8650  144.0650 C   0  0  0  0  0  1  0  0  0  0  0  0
  188.3920  178.1730  142.5990 N   0  0  0  0  0  2  0  0  0  0  0  0
  187.8920  175.9490  143.2810 N   0  0  0  0  0  2  0  0  0  0  0  0
  188.6840  176.9690  143.3210 C   0  0  0  0  0  0  0  0  0  0  0  0
  1  2  1  1  0  0  0
  1  3  1  0  0  0  0
  2  3  1  0  0  0  0
  3 21  1  0  0  0  0
  5 14  1  0  0  0  0
  6  7  2  0  0  0  0
  6 13  1  0  0  0  0
  8  9  1  0  0  0  0
  8 11  1  0  0  0  0
  9  4  1  0  0  0  0
  9 12  1  0  0  0  0
 10  6  1  0  0  0  0
 11 10  1  0  0  0  0
 11  5  1  0  0  0  0
 12  5  1  0  0  0  0
 12 14  1  0  0  0  0
 13 14  1  0  0  0  0
 14  1  1  0  0  0  0
 15 19  1  0  0  0  0
 16 18  1  0  0  0  0
 16 21  2  0  0  0  0
 18 15  2  0  0  0  0
 19 17  1  0  0  0  0
 20 24  1  0  0  0  0
 20 17  1  0  0  0  0
 21 20  1  0  0  0  0
 22 18  1  0  0  0  0
 24 26  1  0  0  0  0
 25 26  2  0  0  0  0
 26 23  1  0  0  0  0
M  END
>  <MODEL>
4

>  <REMARK>
 VINA RESULT:      -7.1      3.532      6.598
  Name = 
  3 active torsions:
  status: ('A' for Active; 'I' for Inactive)
    1  A    between atoms: C_2  and  C_26
    2  A    between atoms: N_12  and  C_21
    3  A    between atoms: N_18  and  C_19
                            x       y       z     vdW  Elec       q    Type
                         _______ _______ _______ _____ _____    ______ ____

>  <TORSDO>
F 3

$$$$
=
 OpenBabel10222416083D

 26 30  0  0  1  0  0  0  0  0999 V2000
  188.6010  178.6460  140.7140 C   0  0  2  0  0  3  0  0  0  0  0  0
  188.5190  177.6640  141.6790 C   0  0  0  0  0  2  0  0  0  0  0  0
  187.2660  178.4000  141.3320 N   0  0  0  0  0  0  0  0  0  0  0  0
  189.3690  175.5930  137.8160 O   0  0  0  0  0  1  0  0  0  0  0  0
  189.2310  179.0030  138.2640 C   0  0  2  0  0  3  0  0  0  0  0  0
  186.7200  177.6100  137.7560 C   0  0  0  0  0  0  0  0  0  0  0  0
  185.5700  176.9910  137.5400 C   0  0  0  0  0  2  0  0  0  0  0  0
  189.3690  177.4750  136.3310 C   0  0  0  0  0  2  0  0  0  0  0  0
  190.0150  176.7950  137.5220 C   0  0  1  0  0  3  0  0  0  0  0  0
  187.1970  178.6550  136.8020 C   0  0  0  0  0  2  0  0  0  0  0  0
  188.7220  178.7500  136.8430 C   0  0  1  0  0  3  0  0  0  0  0  0
  189.9850  177.7500  138.7170 C   0  0  2  0  0  3  0  0  0  0  0  0
  187.4890  177.2810  138.8730 O   0  0  0  0  0  0  0  0  0  0  0  0
  188.6090  178.0720  139.3010 C   0  0  1  0  0  0  0  0  0  0  0  0
  182.8620  178.7930  140.5250 N   0  0  0  0  0  0  0  0  0  0  0  0
  185.2240  179.2270  140.2760 N   0  0  0  0  0  0  0  0  0  0  0  0
  183.7690  178.6280  142.7560 C   0  0  0  0  0  2  0  0  0  0  0  0
  183.8420  179.3780  139.9040 C   0  0  0  0  0  0  0  0  0  0  0  0
  182.9960  177.9170  141.6730 C   0  0  0  0  0  2  0  0  0  0  0  0
  185.2260  178.3540  142.5780 C   0  0  1  0  0  3  0  0  0  0  0  0
  185.8650  178.6520  141.4310 C   0  0  0  0  0  0  0  0  0  0  0  0
  183.5250  180.2140  138.7180 C   0  0  0  0  0  1  0  0  0  0  0  0
  186.9740  177.5700  145.9690 C   0  0  0  0  0  1  0  0  0  0  0  0
  185.9850  177.7930  143.6650 N   0  0  0  0  0  2  0  0  0  0  0  0
  185.3300  179.2350  145.4400 N   0  0  0  0  0  2  0  0  0  0  0  0
  186.0710  178.2650  145.0150 C   0  0  0  0  0  0  0  0  0  0  0  0
  1  3  1  0  0  0  0
  1  2  1  1  0  0  0
  3 21  1  0  0  0  0
  3  2  1  0  0  0  0
  5 12  1  0  0  0  0
  5 14  1  0  0  0  0
  6 13  1  0  0  0  0
  7  6  2  0  0  0  0
  8 11  1  0  0  0  0
  8  9  1  0  0  0  0
  9  4  1  0  0  0  0
  9 12  1  0  0  0  0
 10 11  1  0  0  0  0
 10  6  1  0  0  0  0
 11  5  1  0  0  0  0
 12 14  1  0  0  0  0
 13 14  1  0  0  0  0
 14  1  1  0  0  0  0
 15 19  1  0  0  0  0
 16 21  2  0  0  0  0
 18 16  1  0  0  0  0
 18 15  2  0  0  0  0
 19 17  1  0  0  0  0
 20 17  1  0  0  0  0
 20 24  1  0  0  0  0
 21 20  1  0  0  0  0
 22 18  1  0  0  0  0
 24 26  1  0  0  0  0
 26 25  2  0  0  0  0
 26 23  1  0  0  0  0
M  END
>  <MODEL>
5

>  <REMARK>
 VINA RESULT:      -7.1      2.657      5.706
  Name = 
  3 active torsions:
  status: ('A' for Active; 'I' for Inactive)
    1  A    between atoms: C_2  and  C_26
    2  A    between atoms: N_12  and  C_21
    3  A    between atoms: N_18  and  C_19
                            x       y       z     vdW  Elec       q    Type
                         _______ _______ _______ _____ _____    ______ ____

>  <TORSDO>
F 3

$$$$
=
 OpenBabel10222416083D

 26 30  0  0  1  0  0  0  0  0999 V2000
  187.3890  178.2640  143.9050 C   0  0  2  0  0  3  0  0  0  0  0  0
  186.4400  177.2650  143.8490 C   0  0  0  0  0  2  0  0  0  0  0  0
  186.6350  178.1050  142.6290 N   0  0  0  0  0  0  0  0  0  0  0  0
  190.7240  176.9720  141.5570 O   0  0  0  0  0  1  0  0  0  0  0  0
  189.1140  176.4990  144.5620 C   0  0  2  0  0  3  0  0  0  0  0  0
  190.9840  178.7280  144.3740 C   0  0  0  0  0  0  0  0  0  0  0  0
  191.8190  179.7530  144.3020 C   0  0  0  0  0  2  0  0  0  0  0  0
  191.2850  175.8360  143.5920 C   0  0  0  0  0  2  0  0  0  0  0  0
  190.2890  176.0030  142.4610 C   0  0  1  0  0  3  0  0  0  0  0  0
  191.2320  177.6300  145.3560 C   0  0  0  0  0  2  0  0  0  0  0  0
  190.6050  176.3270  144.8590 C   0  0  1  0  0  3  0  0  0  0  0  0
  188.9240  176.3620  143.0490 C   0  0  2  0  0  3  0  0  0  0  0  0
  189.8750  178.6720  143.5290 O   0  0  0  0  0  0  0  0  0  0  0  0
  188.8060  177.7320  143.7180 C   0  0  1  0  0  0  0  0  0  0  0  0
  186.4550  178.2390  138.1400 N   0  0  0  0  0  0  0  0  0  0  0  0
  187.4590  178.2740  140.3350 N   0  0  0  0  0  0  0  0  0  0  0  0
  184.8570  179.3790  139.5430 C   0  0  0  0  0  2  0  0  0  0  0  0
  187.5100  178.2670  138.8970 C   0  0  0  0  0  0  0  0  0  0  0  0
  185.0820  178.2170  138.6090 C   0  0  0  0  0  2  0  0  0  0  0  0
  185.1720  178.9540  140.9390 C   0  0  1  0  0  3  0  0  0  0  0  0
  186.3800  178.4610  141.2710 C   0  0  0  0  0  0  0  0  0  0  0  0
  188.8450  178.2470  138.2460 C   0  0  0  0  0  1  0  0  0  0  0  0
  181.9380  178.9830  143.1090 C   0  0  0  0  0  1  0  0  0  0  0  0
  184.1810  179.1030  141.9730 N   0  0  0  0  0  2  0  0  0  0  0  0
  182.3530  177.9390  140.9890 N   0  0  0  0  0  2  0  0  0  0  0  0
  182.8160  178.6650  141.9530 C   0  0  0  0  0  0  0  0  0  0  0  0
  1  2  1  1  0  0  0
  3  2  1  0  0  0  0
  3  1  1  0  0  0  0
  4  9  1  0  0  0  0
  5 11  1  0  0  0  0
  6 10  1  0  0  0  0
  7  6  2  0  0  0  0
  8 11  1  0  0  0  0
  9 12  1  0  0  0  0
  9  8  1  0  0  0  0
 11 10  1  0  0  0  0
 12 14  1  0  0  0  0
 12  5  1  0  0  0  0
 13 14  1  0  0  0  0
 13  6  1  0  0  0  0
 14  1  1  0  0  0  0
 14  5  1  0  0  0  0
 15 19  1  0  0  0  0
 15 18  2  0  0  0  0
 16 21  2  0  0  0  0
 17 20  1  0  0  0  0
 18 16  1  0  0  0  0
 19 17  1  0  0  0  0
 20 21  1  0  0  0  0
 20 24  1  0  0  0  0
 21  3  1  0  0  0  0
 22 18  1  0  0  0  0
 25 26  2  0  0  0  0
 26 24  1  0  0  0  0
 26 23  1  0  0  0  0
M  END
>  <MODEL>
6

>  <REMARK>
 VINA RESULT:      -7.1      1.609      3.569
  Name = 
  3 active torsions:
  status: ('A' for Active; 'I' for Inactive)
    1  A    between atoms: C_2  and  C_26
    2  A    between atoms: N_12  and  C_21
    3  A    between atoms: N_18  and  C_19
                            x       y       z     vdW  Elec       q    Type
                         _______ _______ _______ _____ _____    ______ ____

>  <TORSDO>
F 3

$$$$
=
 OpenBabel10222416083D

 26 30  0  0  1  0  0  0  0  0999 V2000
  187.6440  177.5960  144.6070 C   0  0  2  0  0  3  0  0  0  0  0  0
  187.1320  176.3780  144.2080 C   0  0  0  0  0  2  0  0  0  0  0  0
  187.0370  177.5180  143.2470 N   0  0  0  0  0  0  0  0  0  0  0  0
  191.3900  179.6460  144.3400 O   0  0  0  0  0  1  0  0  0  0  0  0
  189.7120  176.8160  143.3270 C   0  0  2  0  0  3  0  0  0  0  0  0
  190.9340  176.7810  145.9740 C   0  0  0  0  0  0  0  0  0  0  0  0
  191.4710  176.7530  147.1830 C   0  0  0  0  0  2  0  0  0  0  0  0
  192.0550  177.5910  143.3000 C   0  0  0  0  0  2  0  0  0  0  0  0
  191.1510  178.8070  143.2500 C   0  0  1  0  0  3  0  0  0  0  0  0
  191.3790  175.8030  144.9360 C   0  0  0  0  0  2  0  0  0  0  0  0
  191.1650  176.3840  143.5380 C   0  0  1  0  0  3  0  0  0  0  0  0
  189.6940  178.3430  143.2130 C   0  0  2  0  0  3  0  0  0  0  0  0
  189.9560  177.7270  145.6680 O   0  0  0  0  0  0  0  0  0  0  0  0
  189.1620  177.6600  144.4730 C   0  0  1  0  0  0  0  0  0  0  0  0
  186.6700  178.4690  138.8690 N   0  0  0  0  0  0  0  0  0  0  0  0
  187.7560  178.1670  141.0040 N   0  0  0  0  0  0  0  0  0  0  0  0
  185.0590  179.2130  140.5050 C   0  0  0  0  0  2  0  0  0  0  0  0
  187.7510  178.4310  139.5890 C   0  0  0  0  0  0  0  0  0  0  0  0
  185.3210  178.2630  139.3630 C   0  0  0  0  0  2  0  0  0  0  0  0
  185.4560  178.5600  141.7870 C   0  0  1  0  0  3  0  0  0  0  0  0
  186.7060  178.1010  141.9880 C   0  0  0  0  0  0  0  0  0  0  0  0
  189.0570  178.6260  138.9100 C   0  0  0  0  0  1  0  0  0  0  0  0
  183.2980  178.9890  145.0000 C   0  0  0  0  0  1  0  0  0  0  0  0
  184.4990  178.4440  142.8560 N   0  0  0  0  0  2  0  0  0  0  0  0
  184.9320  180.4610  144.0430 N   0  0  0  0  0  2  0  0  0  0  0  0
  184.3050  179.3340  143.9630 C   0  0  0  0  0  0  0  0  0  0  0  0
  1  2  1  1  0  0  0
  3  2  1  0  0  0  0
  3  1  1  0  0  0  0
  5 11  1  0  0  0  0
  5 14  1  0  0  0  0
  6  7  2  0  0  0  0
  8 11  1  0  0  0  0
  9  8  1  0  0  0  0
  9  4  1  0  0  0  0
 10  6  1  0  0  0  0
 11 10  1  0  0  0  0
 12  9  1  0  0  0  0
 12  5  1  0  0  0  0
 12 14  1  0  0  0  0
 13  6  1  0  0  0  0
 14  1  1  0  0  0  0
 14 13  1  0  0  0  0
 15 19  1  0  0  0  0
 15 18  2  0  0  0  0
 16 21  2  0  0  0  0
 17 20  1  0  0  0  0
 18 16  1  0  0  0  0
 19 17  1  0  0  0  0
 20 21  1  0  0  0  0
 20 24  1  0  0  0  0
 21  3  1  0  0  0  0
 22 18  1  0  0  0  0
 24 26  1  0  0  0  0
 26 25  2  0  0  0  0
 26 23  1  0  0  0  0
M  END
>  <MODEL>
7

>  <REMARK>
 VINA RESULT:      -7.0      1.699      4.032
  Name = 
  3 active torsions:
  status: ('A' for Active; 'I' for Inactive)
    1  A    between atoms: C_2  and  C_26
    2  A    between atoms: N_12  and  C_21
    3  A    between atoms: N_18  and  C_19
                            x       y       z     vdW  Elec       q    Type
                         _______ _______ _______ _____ _____    ______ ____

>  <TORSDO>
F 3

$$$$
=
 OpenBabel10222416083D

 26 30  0  0  1  0  0  0  0  0999 V2000
  185.1110  178.5380  142.0430 C   0  0  2  0  0  3  0  0  0  0  0  0
  185.8050  179.6760  142.3990 C   0  0  0  0  0  2  0  0  0  0  0  0
  186.5970  178.5000  141.9280 N   0  0  0  0  0  0  0  0  0  0  0  0
  183.2950  180.6450  138.7920 O   0  0  0  0  0  1  0  0  0  0  0  0
  183.4390  177.5860  140.3630 C   0  0  2  0  0  3  0  0  0  0  0  0
  185.5300  178.2040  138.4280 C   0  0  0  0  0  0  0  0  0  0  0  0
  186.4950  178.4740  137.5630 C   0  0  0  0  0  2  0  0  0  0  0  0
  182.5350  178.4410  138.2320 C   0  0  0  0  0  2  0  0  0  0  0  0
  182.5240  179.5720  139.2420 C   0  0  1  0  0  3  0  0  0  0  0  0
  184.6250  177.0390  138.1970 C   0  0  0  0  0  2  0  0  0  0  0  0
  183.2740  177.2800  138.8730 C   0  0  1  0  0  3  0  0  0  0  0  0
  183.0320  179.0450  140.5840 C   0  0  2  0  0  3  0  0  0  0  0  0
  185.3570  179.0110  139.5520 O   0  0  0  0  0  0  0  0  0  0  0  0
  184.5050  178.6400  140.6470 C   0  0  1  0  0  0  0  0  0  0  0  0
  190.6160  177.4430  140.2140 N   0  0  0  0  0  0  0  0  0  0  0  0
  188.2730  178.0270  140.2140 N   0  0  0  0  0  0  0  0  0  0  0  0
  189.6930  176.3390  142.1520 C   0  0  0  0  0  2  0  0  0  0  0  0
  189.5320  177.7560  139.5710 C   0  0  0  0  0  0  0  0  0  0  0  0
  190.7320  177.3130  141.6540 C   0  0  0  0  0  2  0  0  0  0  0  0
  188.4420  177.0830  142.4820 C   0  0  1  0  0  3  0  0  0  0  0  0
  187.8090  177.8410  141.5650 C   0  0  0  0  0  0  0  0  0  0  0  0
  189.6020  177.8840  138.0920 C   0  0  0  0  0  1  0  0  0  0  0  0
  187.6630  177.1860  146.2960 C   0  0  0  0  0  1  0  0  0  0  0  0
  187.8670  176.9680  143.7960 N   0  0  0  0  0  2  0  0  0  0  0  0
  189.4280  178.2420  145.0630 N   0  0  0  0  0  2  0  0  0  0  0  0
  188.3870  177.4780  145.0320 C   0  0  0  0  0  0  0  0  0  0  0  0
  1  2  1  1  0  0  0
  3  1  1  0  0  0  0
  3  2  1  0  0  0  0
  4  9  1  0  0  0  0
  5 12  1  0  0  0  0
  5 14  1  0  0  0  0
  6 13  1  0  0  0  0
  7  6  2  0  0  0  0
  8 11  1  0  0  0  0
  8  9  1  0  0  0  0
  9 12  1  0  0  0  0
 10  6  1  0  0  0  0
 10 11  1  0  0  0  0
 11  5  1  0  0  0  0
 12 14  1  0  0  0  0
 13 14  1  0  0  0  0
 14  1  1  0  0  0  0
 15 19  1  0  0  0  0
 16 21  2  0  0  0  0
 17 20  1  0  0  0  0
 18 15  2  0  0  0  0
 18 16  1  0  0  0  0
 19 17  1  0  0  0  0
 20 24  1  0  0  0  0
 21  3  1  0  0  0  0
 21 20  1  0  0  0  0
 22 18  1  0  0  0  0
 24 26  1  0  0  0  0
 26 25  2  0  0  0  0
 26 23  1  0  0  0  0
M  END
>  <MODEL>
8

>  <REMARK>
 VINA RESULT:      -6.9      2.872      7.275
  Name = 
  3 active torsions:
  status: ('A' for Active; 'I' for Inactive)
    1  A    between atoms: C_2  and  C_26
    2  A    between atoms: N_12  and  C_21
    3  A    between atoms: N_18  and  C_19
                            x       y       z     vdW  Elec       q    Type
                         _______ _______ _______ _____ _____    ______ ____

>  <TORSDO>
F 3

$$$$
=
 OpenBabel10222416083D

 26 30  0  0  1  0  0  0  0  0999 V2000
  187.4780  177.5500  144.5390 C   0  0  2  0  0  3  0  0  0  0  0  0
  186.8400  176.3830  144.1720 C   0  0  0  0  0  2  0  0  0  0  0  0
  186.8540  177.5050  143.1850 N   0  0  0  0  0  0  0  0  0  0  0  0
  191.2970  175.7640  145.2650 O   0  0  0  0  0  1  0  0  0  0  0  0
  189.7210  178.7650  144.6740 C   0  0  2  0  0  3  0  0  0  0  0  0
  190.3820  177.1150  142.3630 C   0  0  0  0  0  0  0  0  0  0  0  0
  190.6620  176.3720  141.3040 C   0  0  0  0  0  2  0  0  0  0  0  0
  192.0570  177.9700  144.7140 C   0  0  0  0  0  2  0  0  0  0  0  0
  191.2420  177.1030  145.6540 C   0  0  1  0  0  3  0  0  0  0  0  0
  190.9780  178.4770  142.4980 C   0  0  0  0  0  2  0  0  0  0  0  0
  191.0780  178.8650  143.9740 C   0  0  1  0  0  3  0  0  0  0  0  0
  189.8020  177.6150  145.6810 C   0  0  2  0  0  3  0  0  0  0  0  0
  189.5330  176.6220  143.3540 O   0  0  0  0  0  0  0  0  0  0  0  0
  188.9930  177.4540  144.3940 C   0  0  1  0  0  0  0  0  0  0  0  0
  186.6700  178.4680  138.7990 N   0  0  0  0  0  0  0  0  0  0  0  0
  187.6660  178.1650  140.9770 N   0  0  0  0  0  0  0  0  0  0  0  0
  184.9870  179.1990  140.3660 C   0  0  0  0  0  2  0  0  0  0  0  0
  187.7190  178.4330  139.5640 C   0  0  0  0  0  0  0  0  0  0  0  0
  185.3030  178.2540  139.2330 C   0  0  0  0  0  2  0  0  0  0  0  0
  185.3320  178.5430  141.6620 C   0  0  1  0  0  3  0  0  0  0  0  0
  186.5750  178.0900  141.9150 C   0  0  0  0  0  0  0  0  0  0  0  0
  189.0520  178.6370  138.9420 C   0  0  0  0  0  1  0  0  0  0  0  0
  183.0970  178.8880  144.8330 C   0  0  0  0  0  1  0  0  0  0  0  0
  184.3310  178.4200  142.6890 N   0  0  0  0  0  2  0  0  0  0  0  0
  184.8710  180.2980  144.0470 N   0  0  0  0  0  2  0  0  0  0  0  0
  184.1640  179.2330  143.8580 C   0  0  0  0  0  0  0  0  0  0  0  0
  1  2  1  1  0  0  0
  3  2  1  0  0  0  0
  3  1  1  0  0  0  0
  4  9  1  0  0  0  0
  5 12  1  0  0  0  0
  6 10  1  0  0  0  0
  6 13  1  0  0  0  0
  7  6  2  0  0  0  0
  8  9  1  0  0  0  0
  9 12  1  0  0  0  0
 10 11  1  0  0  0  0
 11  5  1  0  0  0  0
 11  8  1  0  0  0  0
 13 14  1  0  0  0  0
 14  1  1  0  0  0  0
 14  5  1  0  0  0  0
 14 12  1  0  0  0  0
 15 19  1  0  0  0  0
 15 18  2  0  0  0  0
 16 21  2  0  0  0  0
 17 20  1  0  0  0  0
 18 16  1  0  0  0  0
 19 17  1  0  0  0  0
 20 21  1  0  0  0  0
 20 24  1  0  0  0  0
 21  3  1  0  0  0  0
 22 18  1  0  0  0  0
 24 26  1  0  0  0  0
 26 25  2  0  0  0  0
 26 23  1  0  0  0  0
M  END
>  <MODEL>
9

>  <REMARK>
 VINA RESULT:      -6.8      1.625      4.007
  Name = 
  3 active torsions:
  status: ('A' for Active; 'I' for Inactive)
    1  A    between atoms: C_2  and  C_26
    2  A    between atoms: N_12  and  C_21
    3  A    between atoms: N_18  and  C_19
                            x       y       z     vdW  Elec       q    Type
                         _______ _______ _______ _____ _____    ______ ____

>  <TORSDO>
F 3

$$$$
