=
 OpenBabel10222417073D

 64 69  0  0  1  0  0  0  0  0999 V2000
  187.8580  176.6870  144.0820 N   0  0  0  0  0  0  0  0  0  0  0  0
  189.1200  176.2560  142.0340 C   0  0  0  0  0  2  0  0  0  0  0  0
  190.3180  176.8470  142.7230 C   0  0  2  0  0  3  0  0  0  0  0  0
  190.1490  177.4340  143.9330 C   0  0  1  0  0  3  0  0  0  0  0  0
  188.1370  175.6870  143.0560 C   0  0  0  0  0  2  0  0  0  0  0  0
  188.7920  177.4720  144.5320 C   0  0  0  0  0  0  0  0  0  0  0  0
  191.3060  177.8240  144.8140 C   0  0  0  0  0  2  0  0  0  0  0  0
  192.1190  175.5610  145.3390 N   0  0  0  0  0  0  0  0  0  0  0  0
  192.6450  175.1740  148.7280 O   0  0  0  0  0  0  0  0  0  0  0  0
  192.3530  175.5610  147.5670 C   0  0  0  0  0  0  0  0  0  0  0  0
  192.5300  174.7680  146.4090 N   0  0  0  0  0  2  0  0  0  0  0  0
  191.8060  176.8970  147.2280 C   0  0  0  0  0  2  0  0  0  0  0  0
  191.6850  176.7130  145.7480 C   0  0  0  0  0  0  0  0  0  0  0  0
  191.5320  176.8080  142.0080 O   0  0  0  0  0  0  0  0  0  0  0  0
  192.5270  177.8170  140.0920 C   0  0  0  0  0  3  0  0  0  0  0  0
  192.1130  177.8920  141.3510 C   0  0  0  0  0  3  0  0  0  0  0  0
  192.3830  176.5860  139.2320 C   0  0  1  0  0  3  0  0  0  0  0  0
  190.9880  176.4350  138.6650 C   0  0  0  0  0  0  0  0  0  0  0  0
  190.4200  175.3080  138.7160 O   0  0  0  0  0  0  0  0  0  0  0  0
  190.2710  177.5920  138.2100 N   0  0  0  0  0  2  0  0  0  0  0  0
  188.6180  177.4820  136.2470 C   0  0  0  0  0  0  0  0  0  0  0  0
  187.2240  177.2260  135.8560 C   0  0  0  0  0  3  0  0  0  0  0  0
  187.9320  177.8480  138.5520 C   0  0  0  0  0  3  0  0  0  0  0  0
  186.2410  177.4150  136.7410 C   0  0  0  0  0  3  0  0  0  0  0  0
  189.5070  177.5580  135.3600 O   0  0  0  0  0  0  0  0  0  0  0  0
  186.5020  177.9940  138.1100 C   0  0  0  0  0  2  0  0  0  0  0  0
  188.9360  177.6550  137.6870 C   0  0  0  0  0  0  0  0  0  0  0  0
  193.4660  176.4640  138.1300 C   0  0  0  0  0  2  0  0  0  0  0  0
  194.8160  174.3970  138.5230 C   0  0  0  0  0  3  0  0  0  0  0  0
  194.6560  172.4820  137.0560 C   0  0  0  0  0  3  0  0  0  0  0  0
  193.6850  173.1350  136.2970 C   0  0  0  0  0  0  0  0  0  0  0  0
  193.8510  175.0640  137.7670 C   0  0  0  0  0  0  0  0  0  0  0  0
  193.2820  174.4350  136.6560 C   0  0  0  0  0  3  0  0  0  0  0  0
  195.2240  173.1080  138.1690 C   0  0  0  0  0  3  0  0  0  0  0  0
  191.8020  171.9870  135.1440 C   0  0  0  0  0  1  0  0  0  0  0  0
  193.1480  172.4690  135.1940 O   0  0  0  0  0  0  0  0  0  0  0  0
  188.4830  178.4510  145.6270 C   0  0  0  0  0  2  0  0  0  0  0  0
  187.4500  177.9090  146.6080 C   0  0  1  0  0  3  0  0  0  0  0  0
  189.1690  178.5950  148.2840 O   0  0  0  0  0  0  0  0  0  0  0  0
  187.4590  177.1930  148.9000 O   0  0  0  0  0  1  0  0  0  0  0  0
  188.0110  177.8780  147.9960 C   0  0  0  0  0  0  0  0  0  0  0  0
  186.1580  178.7220  146.5910 C   0  0  0  0  0  2  0  0  0  0  0  0
  185.3390  178.3460  145.3700 C   0  0  0  0  0  2  0  0  0  0  0  0
  185.3420  179.4770  144.3540 C   0  0  0  0  0  2  0  0  0  0  0  0
  182.9620  178.7970  144.4200 C   0  0  0  0  0  1  0  0  0  0  0  0
  184.0100  179.5450  143.6150 C   0  0  2  0  0  3  0  0  0  0  0  0
  183.0060  178.2510  141.6680 N   0  0  0  0  0  2  0  0  0  0  0  0
  184.0750  179.0500  142.1900 C   0  0  0  0  0  0  0  0  0  0  0  0
  184.9970  179.4370  141.4220 O   0  0  0  0  0  0  0  0  0  0  0  0
  182.7590  178.1200  137.7340 C   0  0  2  0  0  3  0  0  0  0  0  0
  182.6440  177.0250  139.1960 S   0  0  0  0  0  0  0  0  0  0  0  0
  181.0570  179.6210  138.7300 C   0  0  0  0  0  0  0  0  0  0  0  0
  181.6450  179.4280  140.0670 C   0  0  0  0  0  3  0  0  0  0  0  0
  181.5410  178.9910  137.6520 C   0  0  0  0  0  3  0  0  0  0  0  0
  182.4410  178.3900  140.3610 C   0  0  0  0  0  0  0  0  0  0  0  0
  182.8690  177.3540  136.5760 O   0  0  0  0  0  0  0  0  0  0  0  0
  182.4410  176.0750  136.9460 C   0  0  0  0  0  1  0  0  0  0  0  0
  179.9430  180.6010  138.5590 C   0  0  0  0  0  2  0  0  0  0  0  0
  181.6730  183.7400  137.3510 C   0  0  0  0  0  3  0  0  0  0  0  0
  181.0500  183.9370  136.1170 C   0  0  0  0  0  3  0  0  0  0  0  0
  180.3710  181.7270  137.6810 C   0  0  0  0  0  0  0  0  0  0  0  0
  179.7500  181.9280  136.4440 C   0  0  0  0  0  3  0  0  0  0  0  0
  180.0910  183.0310  135.6620 C   0  0  0  0  0  3  0  0  0  0  0  0
  181.3320  182.6380  138.1330 C   0  0  0  0  0  3  0  0  0  0  0  0
  1  6  2  0  0  0  0
  2  3  1  0  0  0  0
  2  5  1  0  0  0  0
  3 14  1  6  0  0  0
  3  4  1  0  0  0  0
  4  6  1  0  0  0  0
  4  7  1  1  0  0  0
  5  1  1  0  0  0  0
  6 37  1  0  0  0  0
  7 13  1  0  0  0  0
  8 13  2  0  0  0  0
  8 11  1  0  0  0  0
 10  9  2  0  0  0  0
 11 10  1  0  0  0  0
 12 10  1  0  0  0  0
 13 12  1  0  0  0  0
 15 16  2  0  0  0  0
 16 14  1  0  0  0  0
 17 28  1  6  0  0  0
 17 15  1  0  0  0  0
 18 19  2  0  0  0  0
 18 17  1  0  0  0  0
 20 18  1  0  0  0  0
 21 27  1  0  0  0  0
 22 21  1  0  0  0  0
 22 24  2  0  0  0  0
 24 26  1  0  0  0  0
 25 21  2  0  0  0  0
 26 23  1  0  0  0  0
 27 20  1  0  0  0  0
 27 23  2  0  0  0  0
 30 34  2  0  0  0  0
 31 33  2  0  0  0  0
 31 30  1  0  0  0  0
 32 28  1  0  0  0  0
 32 29  2  0  0  0  0
 33 32  1  0  0  0  0
 34 29  1  0  0  0  0
 35 36  1  0  0  0  0
 36 31  1  0  0  0  0
 38 37  1  6  0  0  0
 38 41  1  0  0  0  0
 41 39  2  0  0  0  0
 41 40  1  0  0  0  0
 42 38  1  0  0  0  0
 43 42  1  0  0  0  0
 44 43  1  0  0  0  0
 46 44  1  0  0  0  0
 46 45  1  1  0  0  0
 47 48  1  0  0  0  0
 48 46  1  0  0  0  0
 49 48  2  0  0  0  0
 50 56  1  6  0  0  0
 50 51  1  0  0  0  0
 51 55  1  0  0  0  0
 52 53  1  0  0  0  0
 53 55  2  0  0  0  0
 54 50  1  0  0  0  0
 54 52  2  0  0  0  0
 55 47  1  0  0  0  0
 56 57  1  0  0  0  0
 58 52  1  0  0  0  0
 59 64  1  0  0  0  0
 60 59  2  0  0  0  0
 61 64  2  0  0  0  0
 61 58  1  0  0  0  0
 62 61  1  0  0  0  0
 63 60  1  0  0  0  0
 63 62  2  0  0  0  0
M  END
>  <MODEL>
1

>  <REMARK>
 VINA RESULT:      -7.5      0.000      0.000
  Name = 
  22 active torsions:
  status: ('A' for Active; 'I' for Inactive)
    1  A    between atoms: C_4  and  C_13
    2  A    between atoms: C_4  and  C_55
    3  A    between atoms: C_8  and  C_45
    4  A    between atoms: C_13  and  C_36
    5  A    between atoms: C_13  and  C_53
    6  A    between atoms: C_14  and  C_53
    7  A    between atoms: C_14  and  C_59
    8  A    between atoms: C_15  and  C_26
    9  A    between atoms: C_15  and  C_45
   10  A    between atoms: O_21  and  C_31
   11  A    between atoms: O_21  and  C_54
   12  A    between atoms: C_22  and  O_32
   13  A    between atoms: C_23  and  C_35
   14  A    between atoms: O_25  and  C_27
   15  A    between atoms: C_29  and  C_35
   16  A    between atoms: N_30  and  C_58
   17  A    between atoms: C_33  and  C_62
   18  A    between atoms: C_34  and  C_56
   19  A    between atoms: C_45  and  C_46
   20  A    between atoms: C_56  and  C_61
   21  A    between atoms: C_59  and  C_62
   22  A    between atoms: N_63  and  C_64
                            x       y       z     vdW  Elec       q    Type
                         _______ _______ _______ _____ _____    ______ ____

>  <TORSDO>
F 22

$$$$
=
 OpenBabel10222417073D

 64 69  0  0  1  0  0  0  0  0999 V2000
  187.7760  176.5400  144.0240 N   0  0  0  0  0  0  0  0  0  0  0  0
  189.1820  175.9960  142.1000 C   0  0  0  0  0  2  0  0  0  0  0  0
  190.3180  176.6650  142.8220 C   0  0  2  0  0  3  0  0  0  0  0  0
  190.0560  177.3320  143.9720 C   0  0  1  0  0  3  0  0  0  0  0  0
  188.1450  175.4770  143.0940 C   0  0  0  0  0  2  0  0  0  0  0  0
  188.6610  177.3780  144.4760 C   0  0  0  0  0  0  0  0  0  0  0  0
  191.1420  177.8140  144.8970 C   0  0  0  0  0  2  0  0  0  0  0  0
  192.1390  175.6260  145.4230 N   0  0  0  0  0  0  0  0  0  0  0  0
  192.5920  175.2410  148.8230 O   0  0  0  0  0  0  0  0  0  0  0  0
  192.3030  175.6160  147.6570 C   0  0  0  0  0  0  0  0  0  0  0  0
  192.5860  174.8590  146.4970 N   0  0  0  0  0  2  0  0  0  0  0  0
  191.6480  176.9030  147.3150 C   0  0  0  0  0  2  0  0  0  0  0  0
  191.5910  176.7290  145.8310 C   0  0  0  0  0  0  0  0  0  0  0  0
  191.5780  176.6070  142.1930 O   0  0  0  0  0  0  0  0  0  0  0  0
  192.4510  177.8530  140.3580 C   0  0  0  0  0  3  0  0  0  0  0  0
  192.2640  177.7000  141.6630 C   0  0  0  0  0  3  0  0  0  0  0  0
  191.9180  176.9020  139.3160 C   0  0  1  0  0  3  0  0  0  0  0  0
  190.4810  177.1940  138.9440 C   0  0  0  0  0  0  0  0  0  0  0  0
  189.7790  177.9120  139.7120 O   0  0  0  0  0  0  0  0  0  0  0  0
  189.9730  176.7810  137.6670 N   0  0  0  0  0  2  0  0  0  0  0  0
  188.1680  178.3430  136.7190 C   0  0  0  0  0  0  0  0  0  0  0  0
  186.9680  178.4270  135.8730 C   0  0  0  0  0  3  0  0  0  0  0  0
  187.8700  175.9400  136.9480 C   0  0  0  0  0  3  0  0  0  0  0  0
  186.1990  177.3490  135.7030 C   0  0  0  0  0  3  0  0  0  0  0  0
  188.7410  179.4000  137.0890 O   0  0  0  0  0  0  0  0  0  0  0  0
  186.4570  176.0600  136.4450 C   0  0  0  0  0  2  0  0  0  0  0  0
  188.6640  177.0030  137.1230 C   0  0  0  0  0  0  0  0  0  0  0  0
  192.8210  176.7810  138.0620 C   0  0  0  0  0  2  0  0  0  0  0  0
  192.3900  174.6520  136.8240 C   0  0  0  0  0  3  0  0  0  0  0  0
  193.8570  172.7420  137.0420 C   0  0  0  0  0  3  0  0  0  0  0  0
  194.6840  173.4660  137.8990 C   0  0  0  0  0  0  0  0  0  0  0  0
  193.2070  175.3850  137.6860 C   0  0  0  0  0  0  0  0  0  0  0  0
  194.3560  174.7950  138.2230 C   0  0  0  0  0  3  0  0  0  0  0  0
  192.7090  173.3290  136.5020 C   0  0  0  0  0  3  0  0  0  0  0  0
  196.4180  171.6830  137.8150 C   0  0  0  0  0  1  0  0  0  0  0  0
  195.8190  172.8350  138.4140 O   0  0  0  0  0  0  0  0  0  0  0  0
  188.2580  178.4250  145.4740 C   0  0  0  0  0  2  0  0  0  0  0  0
  187.1970  177.9160  146.4430 C   0  0  1  0  0  3  0  0  0  0  0  0
  187.7950  178.7710  148.7120 O   0  0  0  0  0  1  0  0  0  0  0  0
  188.2890  176.6060  148.1320 O   0  0  0  0  0  0  0  0  0  0  0  0
  187.7850  177.7140  147.8050 C   0  0  0  0  0  0  0  0  0  0  0  0
  186.0000  178.8600  146.5320 C   0  0  0  0  0  2  0  0  0  0  0  0
  185.4640  179.1310  145.1380 C   0  0  0  0  0  2  0  0  0  0  0  0
  184.0250  178.6520  145.0160 C   0  0  0  0  0  2  0  0  0  0  0  0
  181.8530  179.0400  143.8940 C   0  0  0  0  0  1  0  0  0  0  0  0
  183.3510  179.2680  143.7950 C   0  0  2  0  0  3  0  0  0  0  0  0
  183.1760  177.7960  141.7270 N   0  0  0  0  0  2  0  0  0  0  0  0
  183.9030  178.7770  142.4780 C   0  0  0  0  0  0  0  0  0  0  0  0
  184.9290  179.3120  141.9770 O   0  0  0  0  0  0  0  0  0  0  0  0
  181.7280  178.8730  138.2200 C   0  0  2  0  0  3  0  0  0  0  0  0
  182.9320  179.4250  139.4830 S   0  0  0  0  0  0  0  0  0  0  0  0
  182.8380  176.6590  138.1360 C   0  0  0  0  0  0  0  0  0  0  0  0
  183.0370  176.6840  139.5960 C   0  0  0  0  0  3  0  0  0  0  0  0
  182.2680  177.6810  137.4870 C   0  0  0  0  0  3  0  0  0  0  0  0
  182.9950  177.8190  140.3080 C   0  0  0  0  0  0  0  0  0  0  0  0
  181.4780  179.9070  137.3210 O   0  0  0  0  0  0  0  0  0  0  0  0
  181.5540  181.0760  138.0840 C   0  0  0  0  0  1  0  0  0  0  0  0
  183.2090  175.4300  137.3720 C   0  0  0  0  0  2  0  0  0  0  0  0
  180.8150  172.8900  135.9140 C   0  0  0  0  0  3  0  0  0  0  0  0
  179.7320  173.0020  136.7880 C   0  0  0  0  0  3  0  0  0  0  0  0
  182.0230  174.5430  137.2060 C   0  0  0  0  0  0  0  0  0  0  0  0
  180.9360  174.6520  138.0790 C   0  0  0  0  0  3  0  0  0  0  0  0
  179.7930  173.8810  137.8720 C   0  0  0  0  0  3  0  0  0  0  0  0
  181.9580  173.6600  136.1210 C   0  0  0  0  0  3  0  0  0  0  0  0
  1  6  2  0  0  0  0
  2  3  1  0  0  0  0
  2  5  1  0  0  0  0
  3 14  1  6  0  0  0
  3  4  1  0  0  0  0
  4  6  1  0  0  0  0
  4  7  1  1  0  0  0
  5  1  1  0  0  0  0
  6 37  1  0  0  0  0
  7 13  1  0  0  0  0
  8 13  2  0  0  0  0
  8 11  1  0  0  0  0
 10  9  2  0  0  0  0
 11 10  1  0  0  0  0
 12 10  1  0  0  0  0
 13 12  1  0  0  0  0
 15 16  2  0  0  0  0
 16 14  1  0  0  0  0
 17 28  1  6  0  0  0
 17 15  1  0  0  0  0
 18 17  1  0  0  0  0
 18 19  2  0  0  0  0
 20 18  1  0  0  0  0
 21 25  2  0  0  0  0
 21 27  1  0  0  0  0
 22 21  1  0  0  0  0
 23 27  2  0  0  0  0
 24 22  2  0  0  0  0
 24 26  1  0  0  0  0
 26 23  1  0  0  0  0
 27 20  1  0  0  0  0
 29 32  1  0  0  0  0
 30 31  2  0  0  0  0
 31 33  1  0  0  0  0
 31 36  1  0  0  0  0
 32 28  1  0  0  0  0
 32 33  2  0  0  0  0
 34 29  2  0  0  0  0
 34 30  1  0  0  0  0
 35 36  1  0  0  0  0
 38 37  1  6  0  0  0
 38 42  1  0  0  0  0
 38 41  1  0  0  0  0
 41 40  2  0  0  0  0
 41 39  1  0  0  0  0
 43 42  1  0  0  0  0
 44 43  1  0  0  0  0
 46 45  1  6  0  0  0
 46 44  1  0  0  0  0
 47 48  1  0  0  0  0
 48 46  1  0  0  0  0
 49 48  2  0  0  0  0
 50 56  1  6  0  0  0
 50 51  1  0  0  0  0
 51 55  1  0  0  0  0
 52 53  1  0  0  0  0
 53 55  2  0  0  0  0
 54 52  2  0  0  0  0
 54 50  1  0  0  0  0
 55 47  1  0  0  0  0
 56 57  1  0  0  0  0
 58 52  1  0  0  0  0
 59 64  2  0  0  0  0
 59 60  1  0  0  0  0
 60 63  2  0  0  0  0
 61 58  1  0  0  0  0
 61 62  2  0  0  0  0
 63 62  1  0  0  0  0
 64 61  1  0  0  0  0
M  END
>  <MODEL>
2

>  <REMARK>
 VINA RESULT:      -6.7      1.513      3.433
  Name = 
  22 active torsions:
  status: ('A' for Active; 'I' for Inactive)
    1  A    between atoms: C_4  and  C_13
    2  A    between atoms: C_4  and  C_55
    3  A    between atoms: C_8  and  C_45
    4  A    between atoms: C_13  and  C_36
    5  A    between atoms: C_13  and  C_53
    6  A    between atoms: C_14  and  C_53
    7  A    between atoms: C_14  and  C_59
    8  A    between atoms: C_15  and  C_26
    9  A    between atoms: C_15  and  C_45
   10  A    between atoms: O_21  and  C_31
   11  A    between atoms: O_21  and  C_54
   12  A    between atoms: C_22  and  O_32
   13  A    between atoms: C_23  and  C_35
   14  A    between atoms: O_25  and  C_27
   15  A    between atoms: C_29  and  C_35
   16  A    between atoms: N_30  and  C_58
   17  A    between atoms: C_33  and  C_62
   18  A    between atoms: C_34  and  C_56
   19  A    between atoms: C_45  and  C_46
   20  A    between atoms: C_56  and  C_61
   21  A    between atoms: C_59  and  C_62
   22  A    between atoms: N_63  and  C_64
                            x       y       z     vdW  Elec       q    Type
                         _______ _______ _______ _____ _____    ______ ____

>  <TORSDO>
F 22

$$$$
=
 OpenBabel10222417073D

 64 69  0  0  1  0  0  0  0  0999 V2000
  188.9960  178.4620  142.6100 N   0  0  0  0  0  0  0  0  0  0  0  0
  186.9490  178.7810  141.3120 C   0  0  0  0  0  2  0  0  0  0  0  0
  186.2340  177.9780  142.3620 C   0  0  2  0  0  3  0  0  0  0  0  0
  186.9650  177.3700  143.3280 C   0  0  1  0  0  3  0  0  0  0  0  0
  188.1900  179.4500  141.9000 C   0  0  0  0  0  2  0  0  0  0  0  0
  188.4410  177.5200  143.3140 C   0  0  0  0  0  0  0  0  0  0  0  0
  186.3420  176.7630  144.5560 C   0  0  0  0  0  2  0  0  0  0  0  0
  185.4860  178.4910  146.0850 N   0  0  0  0  0  0  0  0  0  0  0  0
  187.5960  178.9360  148.7800 O   0  0  0  0  0  0  0  0  0  0  0  0
  187.0250  178.6030  147.7090 C   0  0  0  0  0  0  0  0  0  0  0  0
  185.7790  179.1270  147.2900 N   0  0  0  0  0  2  0  0  0  0  0  0
  187.5460  177.6090  146.7400 C   0  0  0  0  0  2  0  0  0  0  0  0
  186.4400  177.6850  145.7360 C   0  0  0  0  0  0  0  0  0  0  0  0
  184.8380  177.8560  142.2120 O   0  0  0  0  0  0  0  0  0  0  0  0
  183.0390  179.2130  141.4320 C   0  0  0  0  0  3  0  0  0  0  0  0
  183.9180  178.8920  142.3740 C   0  0  0  0  0  3  0  0  0  0  0  0
  182.9120  178.4830  140.1190 C   0  0  1  0  0  3  0  0  0  0  0  0
  184.0660  178.7650  139.1830 C   0  0  0  0  0  0  0  0  0  0  0  0
  184.5470  179.9320  139.1300 O   0  0  0  0  0  0  0  0  0  0  0  0
  184.6960  177.6850  138.4780 N   0  0  0  0  0  2  0  0  0  0  0  0
  185.7210  177.4880  136.1300 C   0  0  0  0  0  0  0  0  0  0  0  0
  186.8330  177.8990  135.2600 C   0  0  0  0  0  3  0  0  0  0  0  0
  187.0090  178.0890  138.1040 C   0  0  0  0  0  3  0  0  0  0  0  0
  188.0040  178.2470  135.7990 C   0  0  0  0  0  3  0  0  0  0  0  0
  184.7180  176.9180  135.6280 O   0  0  0  0  0  0  0  0  0  0  0  0
  188.2670  178.1250  137.2810 C   0  0  0  0  0  2  0  0  0  0  0  0
  185.8210  177.7480  137.5890 C   0  0  0  0  0  0  0  0  0  0  0  0
  182.6570  176.9620  140.2720 C   0  0  0  0  0  2  0  0  0  0  0  0
  180.3900  177.0840  139.2230 C   0  0  0  0  0  3  0  0  0  0  0  0
  179.5650  175.3250  137.7850 C   0  0  0  0  0  3  0  0  0  0  0  0
  180.7680  174.6340  137.9260 C   0  0  0  0  0  0  0  0  0  0  0  0
  181.5970  176.3990  139.3780 C   0  0  0  0  0  0  0  0  0  0  0  0
  181.7900  175.1760  138.7290 C   0  0  0  0  0  3  0  0  0  0  0  0
  179.3710  176.5490  138.4310 C   0  0  0  0  0  3  0  0  0  0  0  0
  180.2370  172.2180  137.6570 C   0  0  0  0  0  1  0  0  0  0  0  0
  180.9140  173.4140  137.2620 O   0  0  0  0  0  0  0  0  0  0  0  0
  189.3000  176.5530  144.0770 C   0  0  0  0  0  2  0  0  0  0  0  0
  190.7150  177.0810  144.2850 C   0  0  1  0  0  3  0  0  0  0  0  0
  192.0300  175.6710  145.8710 O   0  0  0  0  0  0  0  0  0  0  0  0
  190.8340  177.4680  146.6510 O   0  0  0  0  0  1  0  0  0  0  0  0
  191.1940  176.7660  145.6670 C   0  0  0  0  0  0  0  0  0  0  0  0
  191.6950  176.5200  143.2580 C   0  0  0  0  0  2  0  0  0  0  0  0
  192.0220  177.5890  142.2320 C   0  0  0  0  0  2  0  0  0  0  0  0
  192.5470  176.9590  140.9510 C   0  0  0  0  0  2  0  0  0  0  0  0
  190.2440  176.7270  140.0720 C   0  0  0  0  0  1  0  0  0  0  0  0
  191.6290  177.2760  139.7760 C   0  0  2  0  0  3  0  0  0  0  0  0
  193.4940  176.3030  138.3430 N   0  0  0  0  0  2  0  0  0  0  0  0
  192.1480  176.7870  138.4450 C   0  0  0  0  0  0  0  0  0  0  0  0
  191.3720  176.6840  137.4570 O   0  0  0  0  0  0  0  0  0  0  0  0
  195.8340  173.8680  136.3060 C   0  0  2  0  0  3  0  0  0  0  0  0
  195.4700  174.3690  138.0280 S   0  0  0  0  0  0  0  0  0  0  0  0
  193.4310  173.3780  135.9460 C   0  0  0  0  0  0  0  0  0  0  0  0
  193.0540  174.5600  136.7410 C   0  0  0  0  0  3  0  0  0  0  0  0
  194.7120  173.0290  135.7710 C   0  0  0  0  0  3  0  0  0  0  0  0
  193.8960  175.1460  137.6050 C   0  0  0  0  0  0  0  0  0  0  0  0
  197.0240  173.1460  136.2640 O   0  0  0  0  0  0  0  0  0  0  0  0
  198.0010  174.0810  135.9080 C   0  0  0  0  0  1  0  0  0  0  0  0
  192.3640  172.5950  135.2550 C   0  0  0  0  0  2  0  0  0  0  0  0
  188.7660  173.3790  136.1190 C   0  0  0  0  0  3  0  0  0  0  0  0
  188.5520  174.5390  135.3700 C   0  0  0  0  0  3  0  0  0  0  0  0
  191.0570  173.3060  135.3420 C   0  0  0  0  0  0  0  0  0  0  0  0
  190.8390  174.4680  134.5940 C   0  0  0  0  0  3  0  0  0  0  0  0
  189.5880  175.0840  134.6090 C   0  0  0  0  0  3  0  0  0  0  0  0
  190.0160  172.7630  136.1030 C   0  0  0  0  0  3  0  0  0  0  0  0
  1  6  2  0  0  0  0
  2  5  1  0  0  0  0
  2  3  1  0  0  0  0
  3 14  1  6  0  0  0
  3  4  1  0  0  0  0
  4  7  1  1  0  0  0
  5  1  1  0  0  0  0
  6  4  1  0  0  0  0
  6 37  1  0  0  0  0
  7 13  1  0  0  0  0
  8 11  1  0  0  0  0
 10  9  2  0  0  0  0
 11 10  1  0  0  0  0
 12 10  1  0  0  0  0
 13  8  2  0  0  0  0
 13 12  1  0  0  0  0
 14 16  1  0  0  0  0
 15 16  2  0  0  0  0
 17 28  1  1  0  0  0
 17 15  1  0  0  0  0
 18 17  1  0  0  0  0
 19 18  2  0  0  0  0
 20 18  1  0  0  0  0
 21 27  1  0  0  0  0
 22 24  2  0  0  0  0
 22 21  1  0  0  0  0
 24 26  1  0  0  0  0
 25 21  2  0  0  0  0
 26 23  1  0  0  0  0
 27 23  2  0  0  0  0
 27 20  1  0  0  0  0
 29 32  1  0  0  0  0
 30 31  2  0  0  0  0
 30 34  1  0  0  0  0
 31 33  1  0  0  0  0
 32 28  1  0  0  0  0
 33 32  2  0  0  0  0
 34 29  2  0  0  0  0
 36 35  1  0  0  0  0
 36 31  1  0  0  0  0
 37 38  1  0  0  0  0
 38 42  1  6  0  0  0
 38 41  1  0  0  0  0
 41 39  2  0  0  0  0
 41 40  1  0  0  0  0
 43 42  1  0  0  0  0
 44 43  1  0  0  0  0
 46 45  1  1  0  0  0
 46 44  1  0  0  0  0
 47 48  1  0  0  0  0
 48 46  1  0  0  0  0
 49 48  2  0  0  0  0
 50 56  1  1  0  0  0
 50 51  1  0  0  0  0
 52 53  1  0  0  0  0
 53 55  2  0  0  0  0
 54 52  2  0  0  0  0
 54 50  1  0  0  0  0
 55 51  1  0  0  0  0
 55 47  1  0  0  0  0
 57 56  1  0  0  0  0
 58 61  1  0  0  0  0
 58 52  1  0  0  0  0
 60 59  2  0  0  0  0
 61 64  2  0  0  0  0
 62 63  2  0  0  0  0
 62 61  1  0  0  0  0
 63 60  1  0  0  0  0
 64 59  1  0  0  0  0
M  END
>  <MODEL>
3

>  <REMARK>
 VINA RESULT:      -6.0      3.177      9.598
  Name = 
  22 active torsions:
  status: ('A' for Active; 'I' for Inactive)
    1  A    between atoms: C_4  and  C_13
    2  A    between atoms: C_4  and  C_55
    3  A    between atoms: C_8  and  C_45
    4  A    between atoms: C_13  and  C_36
    5  A    between atoms: C_13  and  C_53
    6  A    between atoms: C_14  and  C_53
    7  A    between atoms: C_14  and  C_59
    8  A    between atoms: C_15  and  C_26
    9  A    between atoms: C_15  and  C_45
   10  A    between atoms: O_21  and  C_31
   11  A    between atoms: O_21  and  C_54
   12  A    between atoms: C_22  and  O_32
   13  A    between atoms: C_23  and  C_35
   14  A    between atoms: O_25  and  C_27
   15  A    between atoms: C_29  and  C_35
   16  A    between atoms: N_30  and  C_58
   17  A    between atoms: C_33  and  C_62
   18  A    between atoms: C_34  and  C_56
   19  A    between atoms: C_45  and  C_46
   20  A    between atoms: C_56  and  C_61
   21  A    between atoms: C_59  and  C_62
   22  A    between atoms: N_63  and  C_64
                            x       y       z     vdW  Elec       q    Type
                         _______ _______ _______ _____ _____    ______ ____

>  <TORSDO>
F 22

$$$$
=
 OpenBabel10222417073D

 64 69  0  0  1  0  0  0  0  0999 V2000
  189.7670  177.8000  136.5640 N   0  0  0  0  0  0  0  0  0  0  0  0
  187.3480  177.5010  136.3800 C   0  0  0  0  0  2  0  0  0  0  0  0
  187.5650  176.0560  136.7340 C   0  0  2  0  0  3  0  0  0  0  0  0
  188.8340  175.5870  136.8120 C   0  0  1  0  0  3  0  0  0  0  0  0
  188.4760  178.3660  136.9410 C   0  0  0  0  0  2  0  0  0  0  0  0
  189.9610  176.5150  136.5460 C   0  0  0  0  0  0  0  0  0  0  0  0
  189.1680  174.2420  137.4000 C   0  0  0  0  0  2  0  0  0  0  0  0
  189.5260  172.9050  135.3650 N   0  0  0  0  0  0  0  0  0  0  0  0
  187.4970  170.1140  135.3270 O   0  0  0  0  0  0  0  0  0  0  0  0
  188.0960  171.1940  135.5690 C   0  0  0  0  0  0  0  0  0  0  0  0
  189.1060  171.7330  134.7390 N   0  0  0  0  0  2  0  0  0  0  0  0
  187.8580  172.0500  136.7570 C   0  0  0  0  0  2  0  0  0  0  0  0
  188.8460  173.1300  136.4460 C   0  0  0  0  0  0  0  0  0  0  0  0
  186.4040  175.2710  136.8870 O   0  0  0  0  0  0  0  0  0  0  0  0
  184.1990  175.0330  136.0130 C   0  0  0  0  0  3  0  0  0  0  0  0
  185.5150  174.9410  135.8640 C   0  0  0  0  0  3  0  0  0  0  0  0
  183.5290  175.5330  137.2680 C   0  0  1  0  0  3  0  0  0  0  0  0
  183.2040  177.0100  137.2030 C   0  0  0  0  0  0  0  0  0  0  0  0
  184.0790  177.8160  136.7790 O   0  0  0  0  0  0  0  0  0  0  0  0
  181.8700  177.4620  137.4820 N   0  0  0  0  0  2  0  0  0  0  0  0
  181.6300  179.8150  138.4840 C   0  0  0  0  0  0  0  0  0  0  0  0
  181.3650  181.2300  138.1900 C   0  0  0  0  0  3  0  0  0  0  0  0
  180.6430  179.1600  136.3600 C   0  0  0  0  0  3  0  0  0  0  0  0
  180.6530  181.5620  137.1090 C   0  0  0  0  0  3  0  0  0  0  0  0
  182.0660  179.4880  139.6190 O   0  0  0  0  0  0  0  0  0  0  0  0
  180.0090  180.5180  136.2290 C   0  0  0  0  0  2  0  0  0  0  0  0
  181.3640  178.8030  137.4300 C   0  0  0  0  0  0  0  0  0  0  0  0
  182.2980  174.6940  137.6950 C   0  0  0  0  0  2  0  0  0  0  0  0
  180.8010  174.3810  135.7170 C   0  0  0  0  0  3  0  0  0  0  0  0
  180.5290  172.2220  134.6640 C   0  0  0  0  0  3  0  0  0  0  0  0
  181.4420  171.6630  135.5580 C   0  0  0  0  0  0  0  0  0  0  0  0
  181.7110  173.8320  136.6220 C   0  0  0  0  0  0  0  0  0  0  0  0
  182.0350  172.4740  136.5430 C   0  0  0  0  0  3  0  0  0  0  0  0
  180.2050  173.5790  134.7390 C   0  0  0  0  0  3  0  0  0  0  0  0
  182.9820  169.8010  134.9630 C   0  0  0  0  0  1  0  0  0  0  0  0
  181.7310  170.3010  135.4430 O   0  0  0  0  0  0  0  0  0  0  0  0
  191.3180  175.9680  136.2070 C   0  0  0  0  0  2  0  0  0  0  0  0
  192.0630  175.4750  137.4420 C   0  0  1  0  0  3  0  0  0  0  0  0
  194.2980  174.3710  137.5970 O   0  0  0  0  0  1  0  0  0  0  0  0
  192.6490  173.4490  136.2940 O   0  0  0  0  0  0  0  0  0  0  0  0
  193.0050  174.3690  137.0790 C   0  0  0  0  0  0  0  0  0  0  0  0
  192.8280  176.5970  138.1380 C   0  0  0  0  0  2  0  0  0  0  0  0
  191.8730  177.4020  139.0010 C   0  0  0  0  0  2  0  0  0  0  0  0
  191.5600  176.6580  140.2900 C   0  0  0  0  0  2  0  0  0  0  0  0
  191.3940  177.2020  142.7000 C   0  0  0  0  0  1  0  0  0  0  0  0
  190.9170  177.5900  141.3110 C   0  0  2  0  0  3  0  0  0  0  0  0
  188.6280  176.9090  142.1870 N   0  0  0  0  0  2  0  0  0  0  0  0
  189.4100  177.6380  141.2330 C   0  0  0  0  0  0  0  0  0  0  0  0
  188.8380  178.4100  140.4170 O   0  0  0  0  0  0  0  0  0  0  0  0
  185.4130  179.1160  142.7760 C   0  0  2  0  0  3  0  0  0  0  0  0
  185.9800  177.6740  141.8030 S   0  0  0  0  0  0  0  0  0  0  0  0
  186.1850  178.0110  144.8560 C   0  0  0  0  0  0  0  0  0  0  0  0
  187.3760  177.4940  144.1590 C   0  0  0  0  0  3  0  0  0  0  0  0
  185.2540  178.7300  144.2170 C   0  0  0  0  0  3  0  0  0  0  0  0
  187.4440  177.4000  142.8240 C   0  0  0  0  0  0  0  0  0  0  0  0
  184.1990  179.5790  142.2750 O   0  0  0  0  0  0  0  0  0  0  0  0
  183.2980  179.4540  143.3370 C   0  0  0  0  0  1  0  0  0  0  0  0
  186.0510  177.7940  146.3280 C   0  0  0  0  0  2  0  0  0  0  0  0
  189.7200  177.1670  147.0000 C   0  0  0  0  0  3  0  0  0  0  0  0
  189.8610  177.7170  148.2770 C   0  0  0  0  0  3  0  0  0  0  0  0
  187.3900  177.8230  146.9820 C   0  0  0  0  0  0  0  0  0  0  0  0
  187.5360  178.3720  148.2590 C   0  0  0  0  0  3  0  0  0  0  0  0
  188.7710  178.3210  148.9060 C   0  0  0  0  0  3  0  0  0  0  0  0
  188.4860  177.2180  146.3550 C   0  0  0  0  0  3  0  0  0  0  0  0
  1  5  1  0  0  0  0
  2  3  1  0  0  0  0
  2  5  1  0  0  0  0
  3  4  1  0  0  0  0
  3 14  1  6  0  0  0
  4  7  1  1  0  0  0
  6  1  2  0  0  0  0
  6  4  1  0  0  0  0
  8 13  2  0  0  0  0
  9 10  2  0  0  0  0
 10 12  1  0  0  0  0
 11  8  1  0  0  0  0
 11 10  1  0  0  0  0
 13 12  1  0  0  0  0
 13  7  1  0  0  0  0
 16 15  2  0  0  0  0
 16 14  1  0  0  0  0
 17 15  1  6  0  0  0
 17 28  1  0  0  0  0
 18 17  1  0  0  0  0
 18 20  1  0  0  0  0
 19 18  2  0  0  0  0
 21 25  2  0  0  0  0
 22 21  1  0  0  0  0
 23 27  2  0  0  0  0
 24 22  2  0  0  0  0
 26 23  1  0  0  0  0
 26 24  1  0  0  0  0
 27 20  1  0  0  0  0
 27 21  1  0  0  0  0
 29 32  1  0  0  0  0
 30 34  1  0  0  0  0
 30 31  2  0  0  0  0
 31 33  1  0  0  0  0
 32 28  1  0  0  0  0
 33 32  2  0  0  0  0
 34 29  2  0  0  0  0
 35 36  1  0  0  0  0
 36 31  1  0  0  0  0
 37  6  1  0  0  0  0
 38 37  1  6  0  0  0
 38 42  1  0  0  0  0
 40 41  2  0  0  0  0
 41 38  1  0  0  0  0
 41 39  1  0  0  0  0
 42 43  1  0  0  0  0
 43 44  1  0  0  0  0
 44 46  1  0  0  0  0
 46 45  1  1  0  0  0
 47 55  1  0  0  0  0
 48 46  1  0  0  0  0
 48 47  1  0  0  0  0
 49 48  2  0  0  0  0
 50 56  1  6  0  0  0
 50 54  1  0  0  0  0
 51 50  1  0  0  0  0
 51 55  1  0  0  0  0
 52 58  1  0  0  0  0
 53 52  1  0  0  0  0
 54 52  2  0  0  0  0
 55 53  2  0  0  0  0
 56 57  1  0  0  0  0
 58 61  1  0  0  0  0
 59 60  1  0  0  0  0
 60 63  2  0  0  0  0
 61 62  2  0  0  0  0
 62 63  1  0  0  0  0
 64 61  1  0  0  0  0
 64 59  2  0  0  0  0
M  END
>  <MODEL>
4

>  <REMARK>
 VINA RESULT:      -5.5      2.888     10.137
  Name = 
  22 active torsions:
  status: ('A' for Active; 'I' for Inactive)
    1  A    between atoms: C_4  and  C_13
    2  A    between atoms: C_4  and  C_55
    3  A    between atoms: C_8  and  C_45
    4  A    between atoms: C_13  and  C_36
    5  A    between atoms: C_13  and  C_53
    6  A    between atoms: C_14  and  C_53
    7  A    between atoms: C_14  and  C_59
    8  A    between atoms: C_15  and  C_26
    9  A    between atoms: C_15  and  C_45
   10  A    between atoms: O_21  and  C_31
   11  A    between atoms: O_21  and  C_54
   12  A    between atoms: C_22  and  O_32
   13  A    between atoms: C_23  and  C_35
   14  A    between atoms: O_25  and  C_27
   15  A    between atoms: C_29  and  C_35
   16  A    between atoms: N_30  and  C_58
   17  A    between atoms: C_33  and  C_62
   18  A    between atoms: C_34  and  C_56
   19  A    between atoms: C_45  and  C_46
   20  A    between atoms: C_56  and  C_61
   21  A    between atoms: C_59  and  C_62
   22  A    between atoms: N_63  and  C_64
                            x       y       z     vdW  Elec       q    Type
                         _______ _______ _______ _____ _____    ______ ____

>  <TORSDO>
F 22

$$$$
=
 OpenBabel10222417073D

 64 69  0  0  1  0  0  0  0  0999 V2000
  190.8030  176.8380  141.8780 N   0  0  0  0  0  0  0  0  0  0  0  0
  189.2630  178.6060  142.5680 C   0  0  0  0  0  2  0  0  0  0  0  0
  188.3770  178.1930  141.4260 C   0  0  2  0  0  3  0  0  0  0  0  0
  188.8400  177.2770  140.5410 C   0  0  1  0  0  3  0  0  0  0  0  0
  190.1290  177.4340  143.0270 C   0  0  0  0  0  2  0  0  0  0  0  0
  190.2010  176.7150  140.7320 C   0  0  0  0  0  0  0  0  0  0  0  0
  187.9540  176.6120  139.5220 C   0  0  0  0  0  2  0  0  0  0  0  0
  188.2430  178.6790  138.2180 N   0  0  0  0  0  0  0  0  0  0  0  0
  186.8240  178.3920  135.0850 O   0  0  0  0  0  0  0  0  0  0  0  0
  187.2290  178.2480  136.2670 C   0  0  0  0  0  0  0  0  0  0  0  0
  187.9690  179.2300  136.9670 N   0  0  0  0  0  2  0  0  0  0  0  0
  187.0180  177.0370  137.0980 C   0  0  0  0  0  2  0  0  0  0  0  0
  187.7120  177.5020  138.3390 C   0  0  0  0  0  0  0  0  0  0  0  0
  187.1410  178.8610  141.3210 O   0  0  0  0  0  0  0  0  0  0  0  0
  185.7140  180.0300  142.8320 C   0  0  0  0  0  3  0  0  0  0  0  0
  186.7790  180.0010  142.0390 C   0  0  0  0  0  3  0  0  0  0  0  0
  184.8150  178.8440  143.0750 C   0  0  1  0  0  3  0  0  0  0  0  0
  184.0110  178.4650  141.8500 C   0  0  0  0  0  0  0  0  0  0  0  0
  184.4060  177.5100  141.1240 O   0  0  0  0  0  0  0  0  0  0  0  0
  182.7420  179.0890  141.6060 N   0  0  0  0  0  2  0  0  0  0  0  0
  180.4570  178.2900  140.7450 C   0  0  0  0  0  0  0  0  0  0  0  0
  179.4830  178.3780  139.6470 C   0  0  0  0  0  3  0  0  0  0  0  0
  182.2150  179.1290  139.2890 C   0  0  0  0  0  3  0  0  0  0  0  0
  179.8970  178.6880  138.4160 C   0  0  0  0  0  3  0  0  0  0  0  0
  180.1200  177.7520  141.8310 O   0  0  0  0  0  0  0  0  0  0  0  0
  181.3610  178.8440  138.0830 C   0  0  0  0  0  2  0  0  0  0  0  0
  181.8230  178.8330  140.5340 C   0  0  0  0  0  0  0  0  0  0  0  0
  185.5470  177.6200  143.6810 C   0  0  0  0  0  2  0  0  0  0  0  0
  185.2810  178.2670  146.0820 C   0  0  0  0  0  3  0  0  0  0  0  0
  187.1670  178.3190  147.5950 C   0  0  0  0  0  3  0  0  0  0  0  0
  188.0070  177.8770  146.5740 C   0  0  0  0  0  0  0  0  0  0  0  0
  186.1140  177.8300  145.0500 C   0  0  0  0  0  0  0  0  0  0  0  0
  187.4760  177.6320  145.2940 C   0  0  0  0  0  3  0  0  0  0  0  0
  185.8040  178.5160  147.3540 C   0  0  0  0  0  3  0  0  0  0  0  0
  189.9800  176.4110  146.9660 C   0  0  0  0  0  1  0  0  0  0  0  0
  189.3620  177.6960  146.8630 O   0  0  0  0  0  0  0  0  0  0  0  0
  190.9040  176.0460  139.5860 C   0  0  0  0  0  2  0  0  0  0  0  0
  191.4700  177.0530  138.5920 C   0  0  1  0  0  3  0  0  0  0  0  0
  193.6220  177.2350  139.8470 O   0  0  0  0  0  1  0  0  0  0  0  0
  193.6400  176.8890  137.5780 O   0  0  0  0  0  0  0  0  0  0  0  0
  192.9670  177.0450  138.6320 C   0  0  0  0  0  0  0  0  0  0  0  0
  190.9900  176.7870  137.1680 C   0  0  0  0  0  2  0  0  0  0  0  0
  191.0750  175.3010  136.8730 C   0  0  0  0  0  2  0  0  0  0  0  0
  189.7020  174.6560  136.9740 C   0  0  0  0  0  2  0  0  0  0  0  0
  190.6060  173.8140  134.8280 C   0  0  0  0  0  1  0  0  0  0  0  0
  189.4890  173.6530  135.8450 C   0  0  2  0  0  3  0  0  0  0  0  0
  187.1960  172.6650  135.3570 N   0  0  0  0  0  2  0  0  0  0  0  0
  188.1290  173.7410  135.1960 C   0  0  0  0  0  0  0  0  0  0  0  0
  187.7630  174.8030  134.6240 O   0  0  0  0  0  0  0  0  0  0  0  0
  183.3110  172.0770  135.0220 C   0  0  2  0  0  3  0  0  0  0  0  0
  184.7920  171.3340  135.7980 S   0  0  0  0  0  0  0  0  0  0  0  0
  183.8410  174.2460  136.0960 C   0  0  0  0  0  0  0  0  0  0  0  0
  185.2790  174.0350  135.8530 C   0  0  0  0  0  3  0  0  0  0  0  0
  182.9280  173.3310  135.7500 C   0  0  0  0  0  3  0  0  0  0  0  0
  185.7960  172.8230  135.6060 C   0  0  0  0  0  0  0  0  0  0  0  0
  182.2540  171.1710  135.0550 O   0  0  0  0  0  0  0  0  0  0  0  0
  181.6600  171.3540  136.3080 C   0  0  0  0  0  1  0  0  0  0  0  0
  183.3840  175.5460  136.6730 C   0  0  0  0  0  2  0  0  0  0  0  0
  180.4700  174.8810  138.9910 C   0  0  0  0  0  3  0  0  0  0  0  0
  179.3890  175.0280  138.1190 C   0  0  0  0  0  3  0  0  0  0  0  0
  181.9910  175.4260  137.1880 C   0  0  0  0  0  0  0  0  0  0  0  0
  180.9050  175.5720  136.3190 C   0  0  0  0  0  3  0  0  0  0  0  0
  179.6050  175.3750  136.7840 C   0  0  0  0  0  3  0  0  0  0  0  0
  181.7690  175.0780  138.5250 C   0  0  0  0  0  3  0  0  0  0  0  0
  1  5  1  0  0  0  0
  2  5  1  0  0  0  0
  3 14  1  6  0  0  0
  3  2  1  0  0  0  0
  4  7  1  1  0  0  0
  4  6  1  0  0  0  0
  4  3  1  0  0  0  0
  6  1  2  0  0  0  0
  8 13  2  0  0  0  0
  9 10  2  0  0  0  0
 10 11  1  0  0  0  0
 10 12  1  0  0  0  0
 11  8  1  0  0  0  0
 12 13  1  0  0  0  0
 13  7  1  0  0  0  0
 14 16  1  0  0  0  0
 16 15  2  0  0  0  0
 17 15  1  6  0  0  0
 17 28  1  0  0  0  0
 18 17  1  0  0  0  0
 19 18  2  0  0  0  0
 20 18  1  0  0  0  0
 21 25  2  0  0  0  0
 22 21  1  0  0  0  0
 23 27  2  0  0  0  0
 24 22  2  0  0  0  0
 26 24  1  0  0  0  0
 26 23  1  0  0  0  0
 27 21  1  0  0  0  0
 27 20  1  0  0  0  0
 28 32  1  0  0  0  0
 29 34  1  0  0  0  0
 31 36  1  0  0  0  0
 31 30  1  0  0  0  0
 32 33  1  0  0  0  0
 32 29  2  0  0  0  0
 33 31  2  0  0  0  0
 34 30  2  0  0  0  0
 36 35  1  0  0  0  0
 37  6  1  0  0  0  0
 38 42  1  6  0  0  0
 38 41  1  0  0  0  0
 38 37  1  0  0  0  0
 40 41  2  0  0  0  0
 41 39  1  0  0  0  0
 43 44  1  0  0  0  0
 43 42  1  0  0  0  0
 46 45  1  6  0  0  0
 46 44  1  0  0  0  0
 47 55  1  0  0  0  0
 48 47  1  0  0  0  0
 48 46  1  0  0  0  0
 49 48  2  0  0  0  0
 50 56  1  1  0  0  0
 50 54  1  0  0  0  0
 50 51  1  0  0  0  0
 52 58  1  0  0  0  0
 53 52  1  0  0  0  0
 54 52  2  0  0  0  0
 55 51  1  0  0  0  0
 55 53  2  0  0  0  0
 56 57  1  0  0  0  0
 58 61  1  0  0  0  0
 60 59  2  0  0  0  0
 61 64  2  0  0  0  0
 62 63  2  0  0  0  0
 62 61  1  0  0  0  0
 63 60  1  0  0  0  0
 64 59  1  0  0  0  0
M  END
>  <MODEL>
5

>  <REMARK>
 VINA RESULT:      -5.5      2.784      9.095
  Name = 
  22 active torsions:
  status: ('A' for Active; 'I' for Inactive)
    1  A    between atoms: C_4  and  C_13
    2  A    between atoms: C_4  and  C_55
    3  A    between atoms: C_8  and  C_45
    4  A    between atoms: C_13  and  C_36
    5  A    between atoms: C_13  and  C_53
    6  A    between atoms: C_14  and  C_53
    7  A    between atoms: C_14  and  C_59
    8  A    between atoms: C_15  and  C_26
    9  A    between atoms: C_15  and  C_45
   10  A    between atoms: O_21  and  C_31
   11  A    between atoms: O_21  and  C_54
   12  A    between atoms: C_22  and  O_32
   13  A    between atoms: C_23  and  C_35
   14  A    between atoms: O_25  and  C_27
   15  A    between atoms: C_29  and  C_35
   16  A    between atoms: N_30  and  C_58
   17  A    between atoms: C_33  and  C_62
   18  A    between atoms: C_34  and  C_56
   19  A    between atoms: C_45  and  C_46
   20  A    between atoms: C_56  and  C_61
   21  A    between atoms: C_59  and  C_62
   22  A    between atoms: N_63  and  C_64
                            x       y       z     vdW  Elec       q    Type
                         _______ _______ _______ _____ _____    ______ ____

>  <TORSDO>
F 22

$$$$
=
 OpenBabel10222417073D

 64 69  0  0  1  0  0  0  0  0999 V2000
  190.0840  178.2670  137.0590 N   0  0  0  0  0  0  0  0  0  0  0  0
  187.6530  178.2340  136.8030 C   0  0  0  0  0  2  0  0  0  0  0  0
  187.7100  176.7540  137.0610 C   0  0  2  0  0  3  0  0  0  0  0  0
  188.9220  176.1520  137.1330 C   0  0  1  0  0  3  0  0  0  0  0  0
  188.8470  178.9380  137.4460 C   0  0  0  0  0  2  0  0  0  0  0  0
  190.1450  176.9720  136.9560 C   0  0  0  0  0  0  0  0  0  0  0  0
  189.1000  174.7430  137.6340 C   0  0  0  0  0  2  0  0  0  0  0  0
  189.4440  173.5960  135.4840 N   0  0  0  0  0  0  0  0  0  0  0  0
  187.3410  170.8790  135.1630 O   0  0  0  0  0  0  0  0  0  0  0  0
  187.9660  171.9130  135.5120 C   0  0  0  0  0  0  0  0  0  0  0  0
  188.9990  172.5010  134.7460 N   0  0  0  0  0  2  0  0  0  0  0  0
  187.7390  172.6600  136.7740 C   0  0  0  0  0  2  0  0  0  0  0  0
  188.7590  173.7350  136.5760 C   0  0  0  0  0  0  0  0  0  0  0  0
  186.4720  176.0850  137.1340 O   0  0  0  0  0  0  0  0  0  0  0  0
  184.7390  174.7420  136.1980 C   0  0  0  0  0  3  0  0  0  0  0  0
  185.7800  175.5520  136.0470 C   0  0  0  0  0  3  0  0  0  0  0  0
  184.1730  174.3440  137.5380 C   0  0  1  0  0  3  0  0  0  0  0  0
  182.8180  174.9640  137.8030 C   0  0  0  0  0  0  0  0  0  0  0  0
  181.9640  175.0030  136.8730 O   0  0  0  0  0  0  0  0  0  0  0  0
  182.4640  175.3680  139.1340 N   0  0  0  0  0  2  0  0  0  0  0  0
  180.1870  175.1430  140.3020 C   0  0  0  0  0  0  0  0  0  0  0  0
  179.1190  175.8600  141.0130 C   0  0  0  0  0  3  0  0  0  0  0  0
  181.0110  177.2340  139.3730 C   0  0  0  0  0  3  0  0  0  0  0  0
  178.9360  177.1650  140.7940 C   0  0  0  0  0  3  0  0  0  0  0  0
  180.1970  173.8840  140.3050 O   0  0  0  0  0  0  0  0  0  0  0  0
  179.7230  177.9150  139.7460 C   0  0  0  0  0  2  0  0  0  0  0  0
  181.2230  175.9290  139.5860 C   0  0  0  0  0  0  0  0  0  0  0  0
  184.1590  172.8130  137.7810 C   0  0  0  0  0  2  0  0  0  0  0  0
  183.8500  171.4210  135.7260 C   0  0  0  0  0  3  0  0  0  0  0  0
  181.6660  170.6330  135.0490 C   0  0  0  0  0  3  0  0  0  0  0  0
  181.0940  171.2300  136.1720 C   0  0  0  0  0  0  0  0  0  0  0  0
  183.2880  172.0280  136.8510 C   0  0  0  0  0  0  0  0  0  0  0  0
  181.9110  171.9320  137.0770 C   0  0  0  0  0  3  0  0  0  0  0  0
  183.0420  170.7260  134.8220 C   0  0  0  0  0  3  0  0  0  0  0  0
  178.9830  171.8570  137.3300 C   0  0  0  0  0  1  0  0  0  0  0  0
  179.7150  171.1100  136.3550 O   0  0  0  0  0  0  0  0  0  0  0  0
  191.4490  176.3110  136.6100 C   0  0  0  0  0  2  0  0  0  0  0  0
  192.1100  175.6720  137.8250 C   0  0  1  0  0  3  0  0  0  0  0  0
  192.1810  173.3910  136.8120 O   0  0  0  0  0  0  0  0  0  0  0  0
  194.0940  174.3310  137.6620 O   0  0  0  0  0  1  0  0  0  0  0  0
  192.8600  174.4400  137.4270 C   0  0  0  0  0  0  0  0  0  0  0  0
  193.0470  176.6390  138.5440 C   0  0  0  0  0  2  0  0  0  0  0  0
  192.2600  177.4510  139.5570 C   0  0  0  0  0  2  0  0  0  0  0  0
  192.3560  176.8230  140.9380 C   0  0  0  0  0  2  0  0  0  0  0  0
  191.6370  176.9410  143.3040 C   0  0  0  0  0  1  0  0  0  0  0  0
  191.4180  177.5190  141.9170 C   0  0  2  0  0  3  0  0  0  0  0  0
  188.9990  176.9120  142.4190 N   0  0  0  0  0  2  0  0  0  0  0  0
  189.9640  177.4640  141.5140 C   0  0  0  0  0  0  0  0  0  0  0  0
  189.5760  178.0130  140.4470 O   0  0  0  0  0  0  0  0  0  0  0  0
  185.8490  179.2480  142.0000 C   0  0  2  0  0  3  0  0  0  0  0  0
  186.6190  177.7650  141.2550 S   0  0  0  0  0  0  0  0  0  0  0  0
  185.9190  178.1610  144.2260 C   0  0  0  0  0  0  0  0  0  0  0  0
  187.2420  177.5860  143.9220 C   0  0  0  0  0  3  0  0  0  0  0  0
  185.2520  178.8990  143.3310 C   0  0  0  0  0  3  0  0  0  0  0  0
  187.7010  177.4600  142.6680 C   0  0  0  0  0  0  0  0  0  0  0  0
  184.8590  179.7440  141.1550 O   0  0  0  0  0  0  0  0  0  0  0  0
  184.6300  178.7220  140.2290 C   0  0  0  0  0  1  0  0  0  0  0  0
  185.3450  177.9810  145.5930 C   0  0  0  0  0  2  0  0  0  0  0  0
  187.5550  179.0310  148.4780 C   0  0  0  0  0  3  0  0  0  0  0  0
  188.5530  178.0560  148.4260 C   0  0  0  0  0  3  0  0  0  0  0  0
  186.4290  177.9700  146.6160 C   0  0  0  0  0  0  0  0  0  0  0  0
  187.4300  176.9960  146.5680 C   0  0  0  0  0  3  0  0  0  0  0  0
  188.4900  177.0370  147.4730 C   0  0  0  0  0  3  0  0  0  0  0  0
  186.4960  178.9900  147.5730 C   0  0  0  0  0  3  0  0  0  0  0  0
  1  5  1  0  0  0  0
  2  3  1  0  0  0  0
  2  5  1  0  0  0  0
  3  4  1  0  0  0  0
  3 14  1  6  0  0  0
  4  7  1  1  0  0  0
  6  1  2  0  0  0  0
  6  4  1  0  0  0  0
  8 13  2  0  0  0  0
  9 10  2  0  0  0  0
 10 12  1  0  0  0  0
 11  8  1  0  0  0  0
 11 10  1  0  0  0  0
 13 12  1  0  0  0  0
 13  7  1  0  0  0  0
 16 15  2  0  0  0  0
 16 14  1  0  0  0  0
 17 15  1  6  0  0  0
 17 28  1  0  0  0  0
 17 18  1  0  0  0  0
 18 20  1  0  0  0  0
 19 18  2  0  0  0  0
 20 27  1  0  0  0  0
 21 25  2  0  0  0  0
 21 22  1  0  0  0  0
 23 27  2  0  0  0  0
 23 26  1  0  0  0  0
 24 22  2  0  0  0  0
 26 24  1  0  0  0  0
 27 21  1  0  0  0  0
 29 32  1  0  0  0  0
 30 31  2  0  0  0  0
 31 36  1  0  0  0  0
 31 33  1  0  0  0  0
 32 33  2  0  0  0  0
 32 28  1  0  0  0  0
 34 30  1  0  0  0  0
 34 29  2  0  0  0  0
 36 35  1  0  0  0  0
 37  6  1  0  0  0  0
 38 37  1  6  0  0  0
 38 42  1  0  0  0  0
 39 41  2  0  0  0  0
 41 40  1  0  0  0  0
 41 38  1  0  0  0  0
 42 43  1  0  0  0  0
 43 44  1  0  0  0  0
 44 46  1  0  0  0  0
 46 45  1  1  0  0  0
 47 55  1  0  0  0  0
 48 46  1  0  0  0  0
 48 47  1  0  0  0  0
 49 48  2  0  0  0  0
 50 56  1  6  0  0  0
 50 54  1  0  0  0  0
 51 50  1  0  0  0  0
 51 55  1  0  0  0  0
 52 58  1  0  0  0  0
 53 52  1  0  0  0  0
 54 52  2  0  0  0  0
 55 53  2  0  0  0  0
 57 56  1  0  0  0  0
 58 61  1  0  0  0  0
 60 59  1  0  0  0  0
 61 64  1  0  0  0  0
 62 61  2  0  0  0  0
 62 63  1  0  0  0  0
 63 60  2  0  0  0  0
 64 59  2  0  0  0  0
M  END
>  <MODEL>
6

>  <REMARK>
 VINA RESULT:      -5.3      3.393      9.955
  Name = 
  22 active torsions:
  status: ('A' for Active; 'I' for Inactive)
    1  A    between atoms: C_4  and  C_13
    2  A    between atoms: C_4  and  C_55
    3  A    between atoms: C_8  and  C_45
    4  A    between atoms: C_13  and  C_36
    5  A    between atoms: C_13  and  C_53
    6  A    between atoms: C_14  and  C_53
    7  A    between atoms: C_14  and  C_59
    8  A    between atoms: C_15  and  C_26
    9  A    between atoms: C_15  and  C_45
   10  A    between atoms: O_21  and  C_31
   11  A    between atoms: O_21  and  C_54
   12  A    between atoms: C_22  and  O_32
   13  A    between atoms: C_23  and  C_35
   14  A    between atoms: O_25  and  C_27
   15  A    between atoms: C_29  and  C_35
   16  A    between atoms: N_30  and  C_58
   17  A    between atoms: C_33  and  C_62
   18  A    between atoms: C_34  and  C_56
   19  A    between atoms: C_45  and  C_46
   20  A    between atoms: C_56  and  C_61
   21  A    between atoms: C_59  and  C_62
   22  A    between atoms: N_63  and  C_64
                            x       y       z     vdW  Elec       q    Type
                         _______ _______ _______ _____ _____    ______ ____

>  <TORSDO>
F 22

$$$$
=
 OpenBabel10222417073D

 64 69  0  0  1  0  0  0  0  0999 V2000
  183.5120  178.8370  140.9960 N   0  0  0  0  0  0  0  0  0  0  0  0
  184.6870  177.7110  139.1710 C   0  0  0  0  0  2  0  0  0  0  0  0
  183.3450  177.4900  138.5300 C   0  0  2  0  0  3  0  0  0  0  0  0
  182.2290  177.8070  139.2290 C   0  0  1  0  0  3  0  0  0  0  0  0
  184.6500  178.9340  140.0860 C   0  0  0  0  0  2  0  0  0  0  0  0
  182.3700  178.3600  140.5980 C   0  0  0  0  0  0  0  0  0  0  0  0
  180.8640  177.8650  138.5960 C   0  0  0  0  0  2  0  0  0  0  0  0
  179.5850  179.9110  139.0870 N   0  0  0  0  0  0  0  0  0  0  0  0
  180.5840  182.5260  137.0680 O   0  0  0  0  0  0  0  0  0  0  0  0
  180.3940  181.4260  137.6490 C   0  0  0  0  0  0  0  0  0  0  0  0
  179.4750  181.2480  138.7090 N   0  0  0  0  0  2  0  0  0  0  0  0
  181.1070  180.1630  137.3340 C   0  0  0  0  0  2  0  0  0  0  0  0
  180.4370  179.2800  138.3390 C   0  0  0  0  0  0  0  0  0  0  0  0
  183.3540  176.8880  137.2560 O   0  0  0  0  0  0  0  0  0  0  0  0
  184.2770  177.1020  135.0680 C   0  0  0  0  0  3  0  0  0  0  0  0
  183.5090  177.5660  136.0460 C   0  0  0  0  0  3  0  0  0  0  0  0
  185.0250  175.7940  135.1350 C   0  0  1  0  0  3  0  0  0  0  0  0
  186.5260  175.9830  135.1630 C   0  0  0  0  0  0  0  0  0  0  0  0
  187.0090  177.1170  134.8870 O   0  0  0  0  0  0  0  0  0  0  0  0
  187.3720  174.9260  135.6380 N   0  0  0  0  0  0  0  0  0  0  0  0
  189.6080  173.6980  135.9400 C   0  0  0  0  0  0  0  0  0  0  0  0
  191.0630  173.7730  135.7380 C   0  0  0  0  0  3  0  0  0  0  0  0
  189.4280  176.1150  135.7310 C   0  0  0  0  0  2  0  0  0  0  0  0
  191.6650  174.9640  135.6810 C   0  0  0  0  0  3  0  0  0  0  0  0
  189.0810  172.5990  136.2520 O   0  0  0  0  0  0  0  0  0  0  0  0
  190.9130  176.2490  135.9300 C   0  0  0  0  0  2  0  0  0  0  0  0
  188.8000  174.9340  135.7790 C   0  0  0  0  0  0  0  0  0  0  0  0
  184.5440  174.8580  136.2740 C   0  0  0  0  0  2  0  0  0  0  0  0
  182.3270  173.9090  135.6120 C   0  0  0  0  0  3  0  0  0  0  0  0
  182.0550  171.5600  135.1080 C   0  0  0  0  0  3  0  0  0  0  0  0
  183.4170  171.3490  135.3230 C   0  0  0  0  0  0  0  0  0  0  0  0
  183.6900  173.7090  135.8370 C   0  0  0  0  0  0  0  0  0  0  0  0
  184.2380  172.4310  135.6900 C   0  0  0  0  0  3  0  0  0  0  0  0
  181.5060  172.8370  135.2520 C   0  0  0  0  0  3  0  0  0  0  0  0
  185.3160  169.7480  135.1640 C   0  0  0  0  0  1  0  0  0  0  0  0
  183.9190  170.0540  135.1680 O   0  0  0  0  0  0  0  0  0  0  0  0
  181.2040  178.3260  141.5450 C   0  0  0  0  0  2  0  0  0  0  0  0
  181.5210  179.0090  142.8710 C   0  0  1  0  0  3  0  0  0  0  0  0
  179.6810  180.1070  144.1530 O   0  0  0  0  0  0  0  0  0  0  0  0
  179.9590  177.8310  144.2630 O   0  0  0  0  0  1  0  0  0  0  0  0
  180.3440  178.9360  143.7930 C   0  0  0  0  0  0  0  0  0  0  0  0
  182.7470  178.4040  143.5500 C   0  0  0  0  0  2  0  0  0  0  0  0
  183.3490  179.4170  144.5070 C   0  0  0  0  0  2  0  0  0  0  0  0
  184.8630  179.2810  144.5480 C   0  0  0  0  0  2  0  0  0  0  0  0
  185.4600  179.2520  146.9510 C   0  0  0  0  0  1  0  0  0  0  0  0
  185.2950  178.3930  145.7090 C   0  0  2  0  0  3  0  0  0  0  0  0
  186.7830  177.1020  144.0980 N   0  0  0  0  0  2  0  0  0  0  0  0
  186.5350  177.5780  145.4270 C   0  0  0  0  0  0  0  0  0  0  0  0
  187.4120  177.4220  146.3200 O   0  0  0  0  0  0  0  0  0  0  0  0
  189.4230  177.3260  141.1770 C   0  0  2  0  0  3  0  0  0  0  0  0
  188.3870  178.4030  142.2320 S   0  0  0  0  0  0  0  0  0  0  0  0
  190.3570  176.2460  143.2030 C   0  0  0  0  0  0  0  0  0  0  0  0
  189.0350  176.2850  143.8530 C   0  0  0  0  0  3  0  0  0  0  0  0
  190.5540  176.7580  141.9820 C   0  0  0  0  0  3  0  0  0  0  0  0
  188.0580  177.1100  143.4490 C   0  0  0  0  0  0  0  0  0  0  0  0
  189.9280  178.0570  140.1040 O   0  0  0  0  0  0  0  0  0  0  0  0
  190.1090  177.1200  139.0820 C   0  0  0  0  0  1  0  0  0  0  0  0
  191.4860  175.5500  143.8890 C   0  0  0  0  0  2  0  0  0  0  0  0
  192.4310  175.6260  147.5510 C   0  0  0  0  0  3  0  0  0  0  0  0
  191.5950  176.6380  148.0280 C   0  0  0  0  0  3  0  0  0  0  0  0
  191.5660  175.9710  145.3160 C   0  0  0  0  0  0  0  0  0  0  0  0
  190.7310  176.9840  145.7980 C   0  0  0  0  0  3  0  0  0  0  0  0
  190.7460  177.3180  147.1520 C   0  0  0  0  0  3  0  0  0  0  0  0
  192.4150  175.2920  146.1980 C   0  0  0  0  0  3  0  0  0  0  0  0
  2  5  1  0  0  0  0
  3 14  1  1  0  0  0
  3  2  1  0  0  0  0
  3  4  1  0  0  0  0
  4  7  1  6  0  0  0
  4  6  1  0  0  0  0
  5  1  1  0  0  0  0
  6  1  2  0  0  0  0
  6 37  1  0  0  0  0
  9 10  2  0  0  0  0
 10 11  1  0  0  0  0
 11  8  1  0  0  0  0
 12 10  1  0  0  0  0
 12 13  1  0  0  0  0
 13  7  1  0  0  0  0
 13  8  2  0  0  0  0
 15 16  2  0  0  0  0
 16 14  1  0  0  0  0
 17 15  1  1  0  0  0
 17 18  1  0  0  0  0
 17 28  1  0  0  0  0
 18 20  1  0  0  0  0
 19 18  2  0  0  0  0
 20 27  2  0  0  0  0
 21 25  2  0  0  0  0
 22 21  1  0  0  0  0
 23 27  1  0  0  0  0
 23 26  1  0  0  0  0
 24 22  2  0  0  0  0
 24 26  1  0  0  0  0
 27 21  1  0  0  0  0
 29 32  1  0  0  0  0
 30 34  1  0  0  0  0
 30 31  2  0  0  0  0
 31 33  1  0  0  0  0
 32 28  1  0  0  0  0
 33 32  2  0  0  0  0
 34 29  2  0  0  0  0
 35 36  1  0  0  0  0
 36 31  1  0  0  0  0
 38 37  1  6  0  0  0
 38 42  1  0  0  0  0
 38 41  1  0  0  0  0
 41 39  2  0  0  0  0
 41 40  1  0  0  0  0
 42 43  1  0  0  0  0
 43 44  1  0  0  0  0
 44 46  1  0  0  0  0
 46 45  1  1  0  0  0
 47 48  1  0  0  0  0
 48 46  1  0  0  0  0
 48 49  2  0  0  0  0
 50 56  1  6  0  0  0
 50 54  1  0  0  0  0
 50 51  1  0  0  0  0
 51 55  1  0  0  0  0
 52 53  1  0  0  0  0
 52 58  1  0  0  0  0
 54 52  2  0  0  0  0
 55 53  2  0  0  0  0
 55 47  1  0  0  0  0
 57 56  1  0  0  0  0
 58 61  1  0  0  0  0
 59 60  1  0  0  0  0
 61 62  2  0  0  0  0
 61 64  1  0  0  0  0
 62 63  1  0  0  0  0
 63 60  2  0  0  0  0
 64 59  2  0  0  0  0
M  END
>  <MODEL>
7

>  <REMARK>
 VINA RESULT:      -5.3      3.000     10.030
  Name = 
  22 active torsions:
  status: ('A' for Active; 'I' for Inactive)
    1  A    between atoms: C_4  and  C_13
    2  A    between atoms: C_4  and  C_55
    3  A    between atoms: C_8  and  C_45
    4  A    between atoms: C_13  and  C_36
    5  A    between atoms: C_13  and  C_53
    6  A    between atoms: C_14  and  C_53
    7  A    between atoms: C_14  and  C_59
    8  A    between atoms: C_15  and  C_26
    9  A    between atoms: C_15  and  C_45
   10  A    between atoms: O_21  and  C_31
   11  A    between atoms: O_21  and  C_54
   12  A    between atoms: C_22  and  O_32
   13  A    between atoms: C_23  and  C_35
   14  A    between atoms: O_25  and  C_27
   15  A    between atoms: C_29  and  C_35
   16  A    between atoms: N_30  and  C_58
   17  A    between atoms: C_33  and  C_62
   18  A    between atoms: C_34  and  C_56
   19  A    between atoms: C_45  and  C_46
   20  A    between atoms: C_56  and  C_61
   21  A    between atoms: C_59  and  C_62
   22  A    between atoms: N_63  and  C_64
                            x       y       z     vdW  Elec       q    Type
                         _______ _______ _______ _____ _____    ______ ____

>  <TORSDO>
F 22

$$$$
=
 OpenBabel10222417073D

 64 69  0  0  1  0  0  0  0  0999 V2000
  189.7890  176.6950  142.0690 N   0  0  0  0  0  0  0  0  0  0  0  0
  188.5300  177.4720  140.1230 C   0  0  0  0  0  2  0  0  0  0  0  0
  189.8500  177.7030  139.4420 C   0  0  2  0  0  3  0  0  0  0  0  0
  190.9890  177.5680  140.1640 C   0  0  1  0  0  3  0  0  0  0  0  0
  188.6610  176.3900  141.1940 C   0  0  0  0  0  2  0  0  0  0  0  0
  190.8920  177.1970  141.5970 C   0  0  0  0  0  0  0  0  0  0  0  0
  192.3530  177.5270  139.5290 C   0  0  0  0  0  2  0  0  0  0  0  0
  191.6920  175.2990  138.7170 N   0  0  0  0  0  0  0  0  0  0  0  0
  193.8370  174.1750  136.2590 O   0  0  0  0  0  0  0  0  0  0  0  0
  193.2330  174.7940  137.1720 C   0  0  0  0  0  0  0  0  0  0  0  0
  192.0530  174.3220  137.7920 N   0  0  0  0  0  2  0  0  0  0  0  0
  193.6420  176.1100  137.7220 C   0  0  0  0  0  2  0  0  0  0  0  0
  192.5510  176.2700  138.7330 C   0  0  0  0  0  0  0  0  0  0  0  0
  189.7930  178.1240  138.0980 O   0  0  0  0  0  0  0  0  0  0  0  0
  187.8930  178.7600  136.8060 C   0  0  0  0  0  3  0  0  0  0  0  0
  188.9150  179.0810  137.5900 C   0  0  0  0  0  3  0  0  0  0  0  0
  187.5470  177.3450  136.4150 C   0  0  1  0  0  3  0  0  0  0  0  0
  186.0620  177.0670  136.4940 C   0  0  0  0  0  0  0  0  0  0  0  0
  185.2490  177.9360  136.0690 O   0  0  0  0  0  0  0  0  0  0  0  0
  185.5960  175.7750  136.9100 N   0  0  0  0  0  2  0  0  0  0  0  0
  183.8490  173.8960  136.8000 C   0  0  0  0  0  0  0  0  0  0  0  0
  182.5160  173.4590  137.2430 C   0  0  0  0  0  3  0  0  0  0  0  0
  183.2960  176.2060  137.3240 C   0  0  0  0  0  3  0  0  0  0  0  0
  181.5940  174.3690  137.5680 C   0  0  0  0  0  3  0  0  0  0  0  0
  184.6220  173.0680  136.2520 O   0  0  0  0  0  0  0  0  0  0  0  0
  181.8360  175.8480  137.3890 C   0  0  0  0  0  2  0  0  0  0  0  0
  184.2410  175.3130  137.0050 C   0  0  0  0  0  0  0  0  0  0  0  0
  188.1390  176.9130  135.0500 C   0  0  0  0  0  2  0  0  0  0  0  0
  190.1010  175.4100  134.6690 C   0  0  0  0  0  3  0  0  0  0  0  0
  189.9170  173.0080  134.8860 C   0  0  0  0  0  3  0  0  0  0  0  0
  188.5770  173.1370  135.2510 C   0  0  0  0  0  0  0  0  0  0  0  0
  188.7590  175.5510  135.0260 C   0  0  0  0  0  0  0  0  0  0  0  0
  187.9960  174.4160  135.3200 C   0  0  0  0  0  3  0  0  0  0  0  0
  190.6820  174.1400  134.5940 C   0  0  0  0  0  3  0  0  0  0  0  0
  187.9660  170.7740  134.7660 C   0  0  0  0  0  1  0  0  0  0  0  0
  187.8530  171.9760  135.5320 O   0  0  0  0  0  0  0  0  0  0  0  0
  192.0530  177.4470  142.5170 C   0  0  0  0  0  2  0  0  0  0  0  0
  191.6010  177.8360  143.9190 C   0  0  1  0  0  3  0  0  0  0  0  0
  189.4010  179.0030  143.7410 O   0  0  0  0  0  0  0  0  0  0  0  0
  191.3350  180.2220  143.9450 O   0  0  0  0  0  1  0  0  0  0  0  0
  190.7840  179.0900  143.8780 C   0  0  0  0  0  0  0  0  0  0  0  0
  190.8060  176.7230  144.5970 C   0  0  0  0  0  2  0  0  0  0  0  0
  190.3090  177.2050  145.9480 C   0  0  0  0  0  2  0  0  0  0  0  0
  188.8740  176.7590  146.1800 C   0  0  0  0  0  2  0  0  0  0  0  0
  188.1540  177.8380  148.2890 C   0  0  0  0  0  1  0  0  0  0  0  0
  188.0440  177.8910  146.7750 C   0  0  2  0  0  3  0  0  0  0  0  0
  186.1140  178.9880  145.5330 N   0  0  0  0  0  2  0  0  0  0  0  0
  186.6040  177.8970  146.3220 C   0  0  0  0  0  0  0  0  0  0  0  0
  185.8670  176.8930  146.5250 O   0  0  0  0  0  0  0  0  0  0  0  0
  184.9050  179.1920  141.7840 C   0  0  2  0  0  3  0  0  0  0  0  0
  185.9300  178.1510  142.8860 S   0  0  0  0  0  0  0  0  0  0  0  0
  183.0110  178.9970  143.3700 C   0  0  0  0  0  0  0  0  0  0  0  0
  183.9350  179.1000  144.5130 C   0  0  0  0  0  3  0  0  0  0  0  0
  183.4530  179.0010  142.1070 C   0  0  0  0  0  3  0  0  0  0  0  0
  185.2490  178.8590  144.4010 C   0  0  0  0  0  0  0  0  0  0  0  0
  185.1430  178.8530  140.4550 O   0  0  0  0  0  0  0  0  0  0  0  0
  183.9010  178.9770  139.8230 C   0  0  0  0  0  1  0  0  0  0  0  0
  181.5400  178.9650  143.6240 C   0  0  0  0  0  2  0  0  0  0  0  0
  179.9940  179.4460  140.2050 C   0  0  0  0  0  3  0  0  0  0  0  0
  179.2700  178.2600  140.0640 C   0  0  0  0  0  3  0  0  0  0  0  0
  180.7990  178.6920  142.3600 C   0  0  0  0  0  0  0  0  0  0  0  0
  180.0720  177.5060  142.2140 C   0  0  0  0  0  3  0  0  0  0  0  0
  179.3100  177.2890  141.0660 C   0  0  0  0  0  3  0  0  0  0  0  0
  180.7550  179.6620  141.3520 C   0  0  0  0  0  3  0  0  0  0  0  0
  2  5  1  0  0  0  0
  3 14  1  1  0  0  0
  3  2  1  0  0  0  0
  3  4  1  0  0  0  0
  4  7  1  6  0  0  0
  4  6  1  0  0  0  0
  5  1  1  0  0  0  0
  6  1  2  0  0  0  0
  6 37  1  0  0  0  0
  8 13  2  0  0  0  0
  9 10  2  0  0  0  0
 10 12  1  0  0  0  0
 10 11  1  0  0  0  0
 11  8  1  0  0  0  0
 12 13  1  0  0  0  0
 13  7  1  0  0  0  0
 15 16  2  0  0  0  0
 16 14  1  0  0  0  0
 17 28  1  6  0  0  0
 17 18  1  0  0  0  0
 17 15  1  0  0  0  0
 18 20  1  0  0  0  0
 19 18  2  0  0  0  0
 20 27  1  0  0  0  0
 21 27  1  0  0  0  0
 21 22  1  0  0  0  0
 22 24  2  0  0  0  0
 23 26  1  0  0  0  0
 25 21  2  0  0  0  0
 26 24  1  0  0  0  0
 27 23  2  0  0  0  0
 29 32  1  0  0  0  0
 30 31  2  0  0  0  0
 31 33  1  0  0  0  0
 31 36  1  0  0  0  0
 32 28  1  0  0  0  0
 32 33  2  0  0  0  0
 34 29  2  0  0  0  0
 34 30  1  0  0  0  0
 35 36  1  0  0  0  0
 38 37  1  6  0  0  0
 38 42  1  0  0  0  0
 39 41  2  0  0  0  0
 41 38  1  0  0  0  0
 41 40  1  0  0  0  0
 42 43  1  0  0  0  0
 43 44  1  0  0  0  0
 44 46  1  0  0  0  0
 46 45  1  1  0  0  0
 47 48  1  0  0  0  0
 48 49  2  0  0  0  0
 48 46  1  0  0  0  0
 50 56  1  6  0  0  0
 50 54  1  0  0  0  0
 50 51  1  0  0  0  0
 51 55  1  0  0  0  0
 52 58  1  0  0  0  0
 52 53  1  0  0  0  0
 54 52  2  0  0  0  0
 55 53  2  0  0  0  0
 55 47  1  0  0  0  0
 57 56  1  0  0  0  0
 59 64  1  0  0  0  0
 60 59  2  0  0  0  0
 60 63  1  0  0  0  0
 61 58  1  0  0  0  0
 62 61  1  0  0  0  0
 63 62  2  0  0  0  0
 64 61  2  0  0  0  0
M  END
>  <MODEL>
8

>  <REMARK>
 VINA RESULT:      -5.2      2.755      5.827
  Name = 
  22 active torsions:
  status: ('A' for Active; 'I' for Inactive)
    1  A    between atoms: C_4  and  C_13
    2  A    between atoms: C_4  and  C_55
    3  A    between atoms: C_8  and  C_45
    4  A    between atoms: C_13  and  C_36
    5  A    between atoms: C_13  and  C_53
    6  A    between atoms: C_14  and  C_53
    7  A    between atoms: C_14  and  C_59
    8  A    between atoms: C_15  and  C_26
    9  A    between atoms: C_15  and  C_45
   10  A    between atoms: O_21  and  C_31
   11  A    between atoms: O_21  and  C_54
   12  A    between atoms: C_22  and  O_32
   13  A    between atoms: C_23  and  C_35
   14  A    between atoms: O_25  and  C_27
   15  A    between atoms: C_29  and  C_35
   16  A    between atoms: N_30  and  C_58
   17  A    between atoms: C_33  and  C_62
   18  A    between atoms: C_34  and  C_56
   19  A    between atoms: C_45  and  C_46
   20  A    between atoms: C_56  and  C_61
   21  A    between atoms: C_59  and  C_62
   22  A    between atoms: N_63  and  C_64
                            x       y       z     vdW  Elec       q    Type
                         _______ _______ _______ _____ _____    ______ ____

>  <TORSDO>
F 22

$$$$
=
 OpenBabel10222417073D

 64 69  0  0  1  0  0  0  0  0999 V2000
  187.6300  176.9580  143.8620 N   0  0  0  0  0  0  0  0  0  0  0  0
  188.2470  177.0670  141.4990 C   0  0  0  0  0  2  0  0  0  0  0  0
  189.6210  177.4850  141.9430 C   0  0  2  0  0  3  0  0  0  0  0  0
  189.8280  177.7500  143.2550 C   0  0  1  0  0  3  0  0  0  0  0  0
  187.5560  176.2480  142.5880 C   0  0  0  0  0  2  0  0  0  0  0  0
  188.6950  177.6190  144.2040 C   0  0  0  0  0  0  0  0  0  0  0  0
  191.2040  177.9260  143.8400 C   0  0  0  0  0  2  0  0  0  0  0  0
  191.7230  176.5840  145.8380 N   0  0  0  0  0  0  0  0  0  0  0  0
  192.4090  173.3070  145.0020 O   0  0  0  0  0  0  0  0  0  0  0  0
  192.1490  174.5380  145.0340 C   0  0  0  0  0  0  0  0  0  0  0  0
  192.0460  175.2870  146.2290 N   0  0  0  0  0  2  0  0  0  0  0  0
  191.8910  175.3840  143.8430 C   0  0  0  0  0  2  0  0  0  0  0  0
  191.6650  176.6840  144.5460 C   0  0  0  0  0  0  0  0  0  0  0  0
  190.5840  177.6420  140.9260 O   0  0  0  0  0  0  0  0  0  0  0  0
  192.9160  177.4460  140.4720 C   0  0  0  0  0  3  0  0  0  0  0  0
  191.9120  178.0170  141.1270 C   0  0  0  0  0  3  0  0  0  0  0  0
  192.7340  176.3750  139.4250 C   0  0  1  0  0  3  0  0  0  0  0  0
  191.3560  176.4010  138.8010 C   0  0  0  0  0  0  0  0  0  0  0  0
  190.4590  175.6350  139.2540 O   0  0  0  0  0  0  0  0  0  0  0  0
  191.0390  177.3870  137.8070 N   0  0  0  0  0  2  0  0  0  0  0  0
  188.8070  178.6340  137.5510 C   0  0  0  0  0  0  0  0  0  0  0  0
  187.7280  178.9980  136.6220 C   0  0  0  0  0  3  0  0  0  0  0  0
  189.5100  176.8340  136.0740 C   0  0  0  0  0  3  0  0  0  0  0  0
  187.4800  178.2280  135.5590 C   0  0  0  0  0  3  0  0  0  0  0  0
  188.8750  179.1970  138.6740 O   0  0  0  0  0  0  0  0  0  0  0  0
  188.2020  176.9210  135.3350 C   0  0  0  0  0  2  0  0  0  0  0  0
  189.7870  177.5960  137.1390 C   0  0  0  0  0  0  0  0  0  0  0  0
  193.8500  176.3570  138.3500 C   0  0  0  0  0  2  0  0  0  0  0  0
  193.5660  174.8240  136.3950 C   0  0  0  0  0  3  0  0  0  0  0  0
  194.3840  172.5490  136.4420 C   0  0  0  0  0  3  0  0  0  0  0  0
  194.8960  172.7510  137.7230 C   0  0  0  0  0  0  0  0  0  0  0  0
  194.0690  175.0370  137.6800 C   0  0  0  0  0  0  0  0  0  0  0  0
  194.7360  174.0030  138.3450 C   0  0  0  0  0  3  0  0  0  0  0  0
  193.7180  173.5810  135.7740 C   0  0  0  0  0  3  0  0  0  0  0  0
  195.0670  170.3440  138.3280 C   0  0  0  0  0  1  0  0  0  0  0  0
  195.5510  171.6890  138.3490 O   0  0  0  0  0  0  0  0  0  0  0  0
  188.7580  178.2910  145.5460 C   0  0  0  0  0  2  0  0  0  0  0  0
  188.1880  177.4160  146.6550 C   0  0  1  0  0  3  0  0  0  0  0  0
  187.8610  177.5850  149.1250 O   0  0  0  0  0  1  0  0  0  0  0  0
  189.5940  178.7010  148.1160 O   0  0  0  0  0  0  0  0  0  0  0  0
  188.6000  177.9340  147.9970 C   0  0  0  0  0  0  0  0  0  0  0  0
  186.6670  177.3160  146.5840 C   0  0  0  0  0  2  0  0  0  0  0  0
  186.0960  178.6280  146.0760 C   0  0  0  0  0  2  0  0  0  0  0  0
  184.7910  178.3910  145.3320 C   0  0  0  0  0  2  0  0  0  0  0  0
  183.2160  180.0350  144.3580 C   0  0  0  0  0  1  0  0  0  0  0  0
  184.6010  179.4250  144.2280 C   0  0  2  0  0  3  0  0  0  0  0  0
  183.9240  177.9450  142.2720 N   0  0  0  0  0  2  0  0  0  0  0  0
  184.8440  178.8880  142.8380 C   0  0  0  0  0  0  0  0  0  0  0  0
  185.7750  179.3550  142.1280 O   0  0  0  0  0  0  0  0  0  0  0  0
  181.4240  177.6470  139.2360 C   0  0  2  0  0  3  0  0  0  0  0  0
  181.9030  178.8100  140.5650 S   0  0  0  0  0  0  0  0  0  0  0  0
  183.7910  177.4980  138.5190 C   0  0  0  0  0  0  0  0  0  0  0  0
  184.2360  177.5140  139.9240 C   0  0  0  0  0  3  0  0  0  0  0  0
  182.4970  177.5960  138.1900 C   0  0  0  0  0  3  0  0  0  0  0  0
  183.4590  177.9640  140.9190 C   0  0  0  0  0  0  0  0  0  0  0  0
  180.2230  178.0540  138.6610 O   0  0  0  0  0  0  0  0  0  0  0  0
  180.1570  177.3710  137.4420 C   0  0  0  0  0  1  0  0  0  0  0  0
  184.8010  177.2880  137.4380 C   0  0  0  0  0  2  0  0  0  0  0  0
  183.8910  173.8390  136.1780 C   0  0  0  0  0  3  0  0  0  0  0  0
  184.9990  173.0960  136.5930 C   0  0  0  0  0  3  0  0  0  0  0  0
  184.8990  175.8420  137.0910 C   0  0  0  0  0  0  0  0  0  0  0  0
  186.0060  175.0940  137.5050 C   0  0  0  0  0  3  0  0  0  0  0  0
  186.0570  173.7230  137.2540 C   0  0  0  0  0  3  0  0  0  0  0  0
  183.8410  175.2090  136.4290 C   0  0  0  0  0  3  0  0  0  0  0  0
  1  6  2  0  0  0  0
  2  3  1  0  0  0  0
  2  5  1  0  0  0  0
  3 14  1  6  0  0  0
  3  4  1  0  0  0  0
  4  7  1  1  0  0  0
  4  6  1  0  0  0  0
  5  1  1  0  0  0  0
  6 37  1  0  0  0  0
  7 13  1  0  0  0  0
  8 11  1  0  0  0  0
  9 10  2  0  0  0  0
 10 11  1  0  0  0  0
 12 13  1  0  0  0  0
 12 10  1  0  0  0  0
 13  8  2  0  0  0  0
 14 16  1  0  0  0  0
 15 16  2  0  0  0  0
 17 28  1  6  0  0  0
 17 15  1  0  0  0  0
 18 19  2  0  0  0  0
 18 17  1  0  0  0  0
 20 18  1  0  0  0  0
 21 25  2  0  0  0  0
 22 21  1  0  0  0  0
 23 27  2  0  0  0  0
 24 22  2  0  0  0  0
 26 24  1  0  0  0  0
 26 23  1  0  0  0  0
 27 21  1  0  0  0  0
 27 20  1  0  0  0  0
 29 32  1  0  0  0  0
 30 31  2  0  0  0  0
 31 33  1  0  0  0  0
 31 36  1  0  0  0  0
 32 33  2  0  0  0  0
 32 28  1  0  0  0  0
 34 29  2  0  0  0  0
 34 30  1  0  0  0  0
 35 36  1  0  0  0  0
 38 37  1  6  0  0  0
 38 41  1  0  0  0  0
 41 40  2  0  0  0  0
 41 39  1  0  0  0  0
 42 38  1  0  0  0  0
 43 42  1  0  0  0  0
 44 43  1  0  0  0  0
 46 45  1  6  0  0  0
 46 44  1  0  0  0  0
 47 48  1  0  0  0  0
 48 46  1  0  0  0  0
 49 48  2  0  0  0  0
 50 56  1  6  0  0  0
 50 51  1  0  0  0  0
 51 55  1  0  0  0  0
 52 53  1  0  0  0  0
 53 55  2  0  0  0  0
 54 52  2  0  0  0  0
 54 50  1  0  0  0  0
 55 47  1  0  0  0  0
 57 56  1  0  0  0  0
 58 52  1  0  0  0  0
 59 64  2  0  0  0  0
 59 60  1  0  0  0  0
 60 63  2  0  0  0  0
 61 58  1  0  0  0  0
 61 62  2  0  0  0  0
 63 62  1  0  0  0  0
 64 61  1  0  0  0  0
M  END
>  <MODEL>
9

>  <REMARK>
 VINA RESULT:      -5.0      2.299      3.642
  Name = 
  22 active torsions:
  status: ('A' for Active; 'I' for Inactive)
    1  A    between atoms: C_4  and  C_13
    2  A    between atoms: C_4  and  C_55
    3  A    between atoms: C_8  and  C_45
    4  A    between atoms: C_13  and  C_36
    5  A    between atoms: C_13  and  C_53
    6  A    between atoms: C_14  and  C_53
    7  A    between atoms: C_14  and  C_59
    8  A    between atoms: C_15  and  C_26
    9  A    between atoms: C_15  and  C_45
   10  A    between atoms: O_21  and  C_31
   11  A    between atoms: O_21  and  C_54
   12  A    between atoms: C_22  and  O_32
   13  A    between atoms: C_23  and  C_35
   14  A    between atoms: O_25  and  C_27
   15  A    between atoms: C_29  and  C_35
   16  A    between atoms: N_30  and  C_58
   17  A    between atoms: C_33  and  C_62
   18  A    between atoms: C_34  and  C_56
   19  A    between atoms: C_45  and  C_46
   20  A    between atoms: C_56  and  C_61
   21  A    between atoms: C_59  and  C_62
   22  A    between atoms: N_63  and  C_64
                            x       y       z     vdW  Elec       q    Type
                         _______ _______ _______ _____ _____    ______ ____

>  <TORSDO>
F 22

$$$$
