=
 OpenBabel10222419163D

 35 36  0  0  1  0  0  0  0  0999 V2000
  188.4750  177.5660  144.9630 C   0  0  0  0  0  0  0  0  0  0  0  0
  188.4410  177.2450  143.4970 C   0  0  1  0  0  3  0  0  0  0  0  0
  186.6080  177.6960  146.6090 N   0  0  0  0  0  0  0  0  0  0  0  0
  187.0140  177.7460  143.1500 C   0  0  0  0  0  0  0  0  0  0  0  0
  186.6760  178.5930  141.9820 N   0  0  0  0  0  2  0  0  0  0  0  0
  187.1910  178.1510  145.3020 C   0  0  2  0  0  3  0  0  0  0  0  0
  186.3060  177.9980  144.2210 N   0  0  0  0  0  0  0  0  0  0  0  0
  189.3890  177.3610  145.9160 C   0  0  0  0  0  3  0  0  0  0  0  0
  185.2610  178.1850  146.9040 C   0  0  0  0  0  1  0  0  0  0  0  0
  188.9890  177.6340  147.4300 C   0  0  0  0  0  3  0  0  0  0  0  0
  187.6320  177.7750  147.6750 C   0  0  0  0  0  3  0  0  0  0  0  0
  189.4740  177.8030  142.5050 C   0  0  0  0  0  2  0  0  0  0  0  0
  190.1680  175.6230  142.5280 O   0  0  0  0  0  0  0  0  0  0  0  0
  190.7640  176.6370  140.5670 N   0  0  0  0  0  2  0  0  0  0  0  0
  190.1790  176.6560  141.8610 C   0  0  0  0  0  0  0  0  0  0  0  0
  190.8130  174.9470  138.1340 O   0  0  0  0  0  0  0  0  0  0  0  0
  190.0630  175.9590  138.2440 C   0  0  0  0  0  0  0  0  0  0  0  0
  189.8610  176.6090  139.5020 N   0  0  0  0  0  2  0  0  0  0  0  0
  189.2830  176.4190  137.0480 C   0  0  0  0  0  2  0  0  0  0  0  0
  187.7960  176.1310  137.2480 C   0  0  0  0  0  2  0  0  0  0  0  0
  187.5700  178.7150  138.1940 O   0  0  0  0  0  1  0  0  0  0  0  0
  187.4780  178.2420  135.7320 O   0  0  0  0  0  0  0  0  0  0  0  0
  185.2430  177.4380  137.2090 O   0  0  0  0  0  1  0  0  0  0  0  0
  186.9280  177.6950  137.0180 P   0  0  0  0  0  0  0  0  0  0  0  0
  185.3980  179.2570  141.7380 C   0  0  0  0  0  2  0  0  0  0  0  0
  184.7950  178.7680  140.4750 C   0  0  0  0  0  2  0  0  0  0  0  0
  183.6860  177.7770  140.8200 C   0  0  0  0  0  2  0  0  0  0  0  0
  182.6530  177.6290  139.6600 C   0  0  0  0  0  2  0  0  0  0  0  0
  181.2090  177.5340  140.1460 C   0  0  0  0  0  2  0  0  0  0  0  0
  180.7470  178.5930  141.0610 C   0  0  0  0  0  2  0  0  0  0  0  0
  179.3490  176.9320  142.0550 O   0  0  0  0  0  1  0  0  0  0  0  0
  179.7120  178.2720  142.1350 C   0  0  1  0  0  3  0  0  0  0  0  0
  180.3070  178.4870  143.5350 C   0  0  0  0  0  2  0  0  0  0  0  0
  181.5730  179.2650  143.3870 C   0  0  0  0  0  2  0  0  0  0  0  0
  182.7300  178.7820  144.2970 C   0  0  0  0  0  1  0  0  0  0  0  0
  1  6  1  0  0  0  0
  1  8  2  0  0  0  0
  2 12  1  6  0  0  0
  2  1  1  0  0  0  0
  3  9  1  0  0  0  0
  3 11  1  0  0  0  0
  4  2  1  0  0  0  0
  4  7  2  0  0  0  0
  5  4  1  0  0  0  0
  6  7  1  6  0  0  0
  6  3  1  0  0  0  0
  8 10  1  0  0  0  0
 10 11  2  0  0  0  0
 14 15  1  0  0  0  0
 15 12  1  0  0  0  0
 15 13  2  0  0  0  0
 16 17  2  0  0  0  0
 17 18  1  0  0  0  0
 18 14  1  0  0  0  0
 19 20  1  0  0  0  0
 19 17  1  0  0  0  0
 22 24  2  0  0  0  0
 24 23  1  0  0  0  0
 24 20  1  0  0  0  0
 24 21  1  0  0  0  0
 25  5  1  0  0  0  0
 26 27  1  0  0  0  0
 26 25  1  0  0  0  0
 28 29  1  0  0  0  0
 28 27  1  0  0  0  0
 29 30  1  0  0  0  0
 30 32  1  0  0  0  0
 32 31  1  1  0  0  0
 32 33  1  0  0  0  0
 34 33  1  0  0  0  0
 34 35  1  0  0  0  0
M  END
>  <MODEL>
1

>  <REMARK>
 VINA RESULT:      -7.4      0.000      0.000
  Name = 
  15 active torsions:
  status: ('A' for Active; 'I' for Inactive)
    1  A    between atoms: C_1  and  C_14
    2  A    between atoms: C_1  and  C_32
    3  A    between atoms: C_5  and  C_22
    4  A    between atoms: C_6  and  C_31
    5  A    between atoms: C_7  and  C_16
    6  A    between atoms: C_7  and  C_27
    7  A    between atoms: N_12  and  C_32
    8  A    between atoms: C_14  and  C_16
    9  A    between atoms: C_18  and  C_28
   10  A    between atoms: C_22  and  C_30
   11  A    between atoms: N_25  and  N_26
   12  A    between atoms: C_27  and  C_29
   13  A    between atoms: C_28  and  C_34
   14  A    between atoms: C_29  and  C_31
   15  A    between atoms: C_34  and  P_35
                            x       y       z     vdW  Elec       q    Type
                         _______ _______ _______ _____ _____    ______ ____

>  <TORSDO>
F 15

$$$$
=
 OpenBabel10222419163D

 35 36  0  0  1  0  0  0  0  0999 V2000
  188.4640  177.6250  145.0560 C   0  0  0  0  0  0  0  0  0  0  0  0
  188.4330  177.3050  143.5900 C   0  0  1  0  0  3  0  0  0  0  0  0
  186.6000  177.7070  146.7080 N   0  0  0  0  0  0  0  0  0  0  0  0
  186.9940  177.7720  143.2480 C   0  0  0  0  0  0  0  0  0  0  0  0
  186.6320  178.6130  142.0830 N   0  0  0  0  0  2  0  0  0  0  0  0
  187.1680  178.1780  145.4000 C   0  0  2  0  0  3  0  0  0  0  0  0
  186.2830  178.0050  144.3220 N   0  0  0  0  0  0  0  0  0  0  0  0
  189.3860  177.4400  146.0060 C   0  0  0  0  0  3  0  0  0  0  0  0
  185.2420  178.1630  147.0080 C   0  0  0  0  0  1  0  0  0  0  0  0
  188.9830  177.7010  147.5220 C   0  0  0  0  0  3  0  0  0  0  0  0
  187.6240  177.8090  147.7720 C   0  0  0  0  0  3  0  0  0  0  0  0
  189.4490  177.8890  142.5960 C   0  0  0  0  0  2  0  0  0  0  0  0
  190.0310  175.6770  142.5250 O   0  0  0  0  0  0  0  0  0  0  0  0
  190.9940  176.8190  140.7940 N   0  0  0  0  0  2  0  0  0  0  0  0
  190.2010  176.7620  141.9700 C   0  0  0  0  0  0  0  0  0  0  0  0
  191.0030  175.0170  138.4410 O   0  0  0  0  0  0  0  0  0  0  0  0
  190.5110  176.1810  138.4040 C   0  0  0  0  0  0  0  0  0  0  0  0
  190.2830  176.9370  139.5970 N   0  0  0  0  0  2  0  0  0  0  0  0
  190.0560  176.7360  137.0870 C   0  0  0  0  0  2  0  0  0  0  0  0
  189.3870  178.0940  137.2920 C   0  0  0  0  0  2  0  0  0  0  0  0
  186.9980  178.5360  138.6050 O   0  0  0  0  0  1  0  0  0  0  0  0
  187.1360  178.7150  136.1070 O   0  0  0  0  0  0  0  0  0  0  0  0
  187.3050  176.1260  137.1520 O   0  0  0  0  0  1  0  0  0  0  0  0
  187.6070  177.8140  137.2110 P   0  0  0  0  0  0  0  0  0  0  0  0
  185.3370  179.2460  141.8440 C   0  0  0  0  0  2  0  0  0  0  0  0
  184.4480  178.3330  141.0860 C   0  0  0  0  0  2  0  0  0  0  0  0
  183.0290  178.4780  141.6310 C   0  0  0  0  0  2  0  0  0  0  0  0
  183.0210  178.8940  143.1350 C   0  0  0  0  0  2  0  0  0  0  0  0
  181.6240  178.9100  143.7500 C   0  0  0  0  0  2  0  0  0  0  0  0
  180.5070  178.5330  142.8650 C   0  0  0  0  0  2  0  0  0  0  0  0
  179.9660  180.8560  142.7550 O   0  0  0  0  0  1  0  0  0  0  0  0
  179.4970  179.5900  142.4250 C   0  0  1  0  0  3  0  0  0  0  0  0
  179.3250  179.5640  140.8990 C   0  0  0  0  0  2  0  0  0  0  0  0
  180.0910  180.7110  140.3250 C   0  0  0  0  0  2  0  0  0  0  0  0
  181.0460  180.3260  139.1680 C   0  0  0  0  0  1  0  0  0  0  0  0
  1  6  1  0  0  0  0
  1  8  2  0  0  0  0
  2 12  1  6  0  0  0
  2  1  1  0  0  0  0
  3  9  1  0  0  0  0
  3 11  1  0  0  0  0
  4  2  1  0  0  0  0
  4  7  2  0  0  0  0
  5  4  1  0  0  0  0
  6  7  1  6  0  0  0
  6  3  1  0  0  0  0
  8 10  1  0  0  0  0
 10 11  2  0  0  0  0
 14 15  1  0  0  0  0
 15 13  2  0  0  0  0
 15 12  1  0  0  0  0
 17 16  2  0  0  0  0
 17 18  1  0  0  0  0
 18 14  1  0  0  0  0
 19 20  1  0  0  0  0
 19 17  1  0  0  0  0
 22 24  2  0  0  0  0
 23 24  1  0  0  0  0
 24 20  1  0  0  0  0
 24 21  1  0  0  0  0
 25  5  1  0  0  0  0
 26 27  1  0  0  0  0
 26 25  1  0  0  0  0
 27 28  1  0  0  0  0
 28 29  1  0  0  0  0
 30 29  1  0  0  0  0
 32 31  1  6  0  0  0
 32 30  1  0  0  0  0
 33 32  1  0  0  0  0
 34 33  1  0  0  0  0
 35 34  1  0  0  0  0
M  END
>  <MODEL>
2

>  <REMARK>
 VINA RESULT:      -7.3      1.198      1.871
  Name = 
  15 active torsions:
  status: ('A' for Active; 'I' for Inactive)
    1  A    between atoms: C_1  and  C_14
    2  A    between atoms: C_1  and  C_32
    3  A    between atoms: C_5  and  C_22
    4  A    between atoms: C_6  and  C_31
    5  A    between atoms: C_7  and  C_16
    6  A    between atoms: C_7  and  C_27
    7  A    between atoms: N_12  and  C_32
    8  A    between atoms: C_14  and  C_16
    9  A    between atoms: C_18  and  C_28
   10  A    between atoms: C_22  and  C_30
   11  A    between atoms: N_25  and  N_26
   12  A    between atoms: C_27  and  C_29
   13  A    between atoms: C_28  and  C_34
   14  A    between atoms: C_29  and  C_31
   15  A    between atoms: C_34  and  P_35
                            x       y       z     vdW  Elec       q    Type
                         _______ _______ _______ _____ _____    ______ ____

>  <TORSDO>
F 15

$$$$
=
 OpenBabel10222419163D

 35 36  0  0  1  0  0  0  0  0999 V2000
  184.0780  178.7300  142.4720 C   0  0  0  0  0  0  0  0  0  0  0  0
  184.9750  178.9130  141.2820 C   0  0  1  0  0  3  0  0  0  0  0  0
  184.5380  179.1190  144.8890 N   0  0  0  0  0  0  0  0  0  0  0  0
  186.3530  178.6690  141.9510 C   0  0  0  0  0  0  0  0  0  0  0  0
  187.4180  177.7990  141.3990 N   0  0  0  0  0  2  0  0  0  0  0  0
  184.9300  178.4400  143.6090 C   0  0  2  0  0  3  0  0  0  0  0  0
  186.2730  178.6610  143.2570 N   0  0  0  0  0  0  0  0  0  0  0  0
  182.7560  178.8400  142.6370 C   0  0  0  0  0  3  0  0  0  0  0  0
  185.4590  178.9310  146.0110 C   0  0  0  0  0  1  0  0  0  0  0  0
  182.1650  178.7930  144.1130 C   0  0  0  0  0  3  0  0  0  0  0  0
  183.0890  178.9420  145.1340 C   0  0  0  0  0  3  0  0  0  0  0  0
  184.8310  178.0750  140.0020 C   0  0  0  0  0  2  0  0  0  0  0  0
  184.6570  180.0870  138.9260 O   0  0  0  0  0  0  0  0  0  0  0  0
  185.9120  178.6220  137.6970 N   0  0  0  0  0  0  0  0  0  0  0  0
  185.1180  178.9510  138.8280 C   0  0  0  0  0  0  0  0  0  0  0  0
  188.1140  178.3280  135.7360 O   0  0  0  0  0  0  0  0  0  0  0  0
  188.2860  178.1800  136.9790 C   0  0  0  0  0  0  0  0  0  0  0  0
  187.2890  178.5710  137.9270 N   0  0  0  0  0  0  0  0  0  0  0  0
  189.6130  177.6830  137.4740 C   0  0  0  0  0  2  0  0  0  0  0  0
  190.2650  176.7890  136.4210 C   0  0  0  0  0  2  0  0  0  0  0  0
  190.6770  174.9600  138.4480 O   0  0  0  0  0  1  0  0  0  0  0  0
  191.9190  174.7640  136.2780 O   0  0  0  0  0  0  0  0  0  0  0  0
  192.6980  176.8750  137.9380 O   0  0  0  0  0  1  0  0  0  0  0  0
  191.5230  175.8170  137.2720 P   0  0  0  0  0  0  0  0  0  0  0  0
  188.6340  177.3770  142.0930 C   0  0  0  0  0  2  0  0  0  0  0  0
  189.7960  177.4270  141.1740 C   0  0  0  0  0  2  0  0  0  0  0  0
  191.0410  176.9960  141.9450 C   0  0  0  0  0  2  0  0  0  0  0  0
  190.6880  176.0650  143.1470 C   0  0  0  0  0  2  0  0  0  0  0  0
  191.7040  176.1380  144.2850 C   0  0  0  0  0  2  0  0  0  0  0  0
  191.3790  177.0370  145.4070 C   0  0  0  0  0  2  0  0  0  0  0  0
  191.8070  177.0950  147.7550 O   0  0  0  0  0  1  0  0  0  0  0  0
  191.0540  176.4540  146.7780 C   0  0  1  0  0  3  0  0  0  0  0  0
  189.5780  176.6950  147.1270 C   0  0  0  0  0  2  0  0  0  0  0  0
  189.5030  177.8660  148.0510 C   0  0  0  0  0  2  0  0  0  0  0  0
  188.1070  178.0960  148.6810 C   0  0  0  0  0  1  0  0  0  0  0  0
  1  8  2  0  0  0  0
  2 12  1  6  0  0  0
  2  4  1  0  0  0  0
  2  1  1  0  0  0  0
  3 11  1  0  0  0  0
  3  9  1  0  0  0  0
  4  7  2  0  0  0  0
  5  4  1  0  0  0  0
  5 25  1  0  0  0  0
  6  1  1  6  0  0  0
  6  3  1  0  0  0  0
  7  6  1  0  0  0  0
  8 10  1  0  0  0  0
 10 11  2  0  0  0  0
 14 18  2  0  0  0  0
 14 15  1  0  0  0  0
 15 13  2  0  0  0  0
 15 12  1  0  0  0  0
 16 17  2  0  0  0  0
 17 19  1  0  0  0  0
 17 18  1  0  0  0  0
 20 24  1  0  0  0  0
 20 19  1  0  0  0  0
 22 24  2  0  0  0  0
 24 23  1  0  0  0  0
 24 21  1  0  0  0  0
 26 27  1  0  0  0  0
 26 25  1  0  0  0  0
 27 28  1  0  0  0  0
 28 29  1  0  0  0  0
 29 30  1  0  0  0  0
 30 32  1  0  0  0  0
 32 33  1  0  0  0  0
 32 31  1  1  0  0  0
 33 34  1  0  0  0  0
 34 35  1  0  0  0  0
M  END
>  <MODEL>
3

>  <REMARK>
 VINA RESULT:      -6.9      2.488      6.749
  Name = 
  15 active torsions:
  status: ('A' for Active; 'I' for Inactive)
    1  A    between atoms: C_1  and  C_14
    2  A    between atoms: C_1  and  C_32
    3  A    between atoms: C_5  and  C_22
    4  A    between atoms: C_6  and  C_31
    5  A    between atoms: C_7  and  C_16
    6  A    between atoms: C_7  and  C_27
    7  A    between atoms: N_12  and  C_32
    8  A    between atoms: C_14  and  C_16
    9  A    between atoms: C_18  and  C_28
   10  A    between atoms: C_22  and  C_30
   11  A    between atoms: N_25  and  N_26
   12  A    between atoms: C_27  and  C_29
   13  A    between atoms: C_28  and  C_34
   14  A    between atoms: C_29  and  C_31
   15  A    between atoms: C_34  and  P_35
                            x       y       z     vdW  Elec       q    Type
                         _______ _______ _______ _____ _____    ______ ____

>  <TORSDO>
F 15

$$$$
=
 OpenBabel10222419163D

 35 36  0  0  1  0  0  0  0  0999 V2000
  182.3030  178.6390  141.3500 C   0  0  0  0  0  0  0  0  0  0  0  0
  183.6500  179.2820  141.5100 C   0  0  1  0  0  3  0  0  0  0  0  0
  180.3690  178.5770  142.9210 N   0  0  0  0  0  0  0  0  0  0  0  0
  183.7900  179.2190  143.0540 C   0  0  0  0  0  0  0  0  0  0  0  0
  185.0020  178.7600  143.7740 N   0  0  0  0  0  2  0  0  0  0  0  0
  181.8260  178.3070  142.6790 C   0  0  2  0  0  3  0  0  0  0  0  0
  182.6630  178.9030  143.6390 N   0  0  0  0  0  0  0  0  0  0  0  0
  181.5300  178.4040  140.2850 C   0  0  0  0  0  3  0  0  0  0  0  0
  179.9060  178.3610  144.2920 C   0  0  0  0  0  1  0  0  0  0  0  0
  180.0410  177.8960  140.5180 C   0  0  0  0  0  3  0  0  0  0  0  0
  179.5610  178.0230  141.8120 C   0  0  0  0  0  3  0  0  0  0  0  0
  184.9120  178.7390  140.8220 C   0  0  0  0  0  2  0  0  0  0  0  0
  184.1720  180.0920  139.1310 O   0  0  0  0  0  0  0  0  0  0  0  0
  185.5510  178.4600  138.3140 N   0  0  0  0  0  2  0  0  0  0  0  0
  184.8530  179.0960  139.3740 C   0  0  0  0  0  0  0  0  0  0  0  0
  187.7440  176.6510  137.4790 O   0  0  0  0  0  0  0  0  0  0  0  0
  187.9540  177.7350  138.0950 C   0  0  0  0  0  0  0  0  0  0  0  0
  186.9240  178.7130  138.2640 N   0  0  0  0  0  2  0  0  0  0  0  0
  189.3450  178.0470  138.5630 C   0  0  0  0  0  2  0  0  0  0  0  0
  189.4250  177.9340  140.0850 C   0  0  0  0  0  2  0  0  0  0  0  0
  192.0550  177.5930  140.8550 O   0  0  0  0  0  1  0  0  0  0  0  0
  190.2550  176.0920  141.7510 O   0  0  0  0  0  1  0  0  0  0  0  0
  190.9270  175.7140  139.0630 O   0  0  0  0  0  0  0  0  0  0  0  0
  190.6870  176.6980  140.4470 P   0  0  0  0  0  0  0  0  0  0  0  0
  185.1020  178.4860  145.2060 C   0  0  0  0  0  2  0  0  0  0  0  0
  186.4970  178.1350  145.5670 C   0  0  0  0  0  2  0  0  0  0  0  0
  186.7290  178.5200  147.0260 C   0  0  0  0  0  2  0  0  0  0  0  0
  187.6040  177.4670  147.7750 C   0  0  0  0  0  2  0  0  0  0  0  0
  189.1020  177.7480  147.6780 C   0  0  0  0  0  3  0  0  0  0  0  0
  189.9340  176.6970  147.0650 C   0  0  0  0  0  3  0  0  0  0  0  0
  192.2760  176.2880  147.2900 O   0  0  0  0  0  1  0  0  0  0  0  0
  191.3410  177.0310  146.5770 C   0  0  1  0  0  3  0  0  0  0  0  0
  191.5010  176.6460  145.0990 C   0  0  0  0  0  2  0  0  0  0  0  0
  191.7540  177.8940  144.3180 C   0  0  0  0  0  2  0  0  0  0  0  0
  190.5020  178.7810  144.1080 C   0  0  0  0  0  1  0  0  0  0  0  0
  1  2  1  0  0  0  0
  2 12  1  6  0  0  0
  2  4  1  0  0  0  0
  3  9  1  0  0  0  0
  4  7  2  0  0  0  0
  4  5  1  0  0  0  0
  5 25  1  0  0  0  0
  6  1  1  6  0  0  0
  6  3  1  0  0  0  0
  6  7  1  0  0  0  0
  8 10  1  0  0  0  0
  8  1  2  0  0  0  0
 10 11  2  0  0  0  0
 11  3  1  0  0  0  0
 13 15  2  0  0  0  0
 14 15  1  0  0  0  0
 15 12  1  0  0  0  0
 16 17  2  0  0  0  0
 17 18  1  0  0  0  0
 17 19  1  0  0  0  0
 18 14  1  0  0  0  0
 19 20  1  0  0  0  0
 20 24  1  0  0  0  0
 23 24  2  0  0  0  0
 24 21  1  0  0  0  0
 24 22  1  0  0  0  0
 25 26  1  0  0  0  0
 26 27  1  0  0  0  0
 27 28  1  0  0  0  0
 29 28  1  0  0  0  0
 30 29  2  0  0  0  0
 32 30  1  0  0  0  0
 32 31  1  1  0  0  0
 33 32  1  0  0  0  0
 34 33  1  0  0  0  0
 35 34  1  0  0  0  0
M  END
>  <MODEL>
4

>  <REMARK>
 VINA RESULT:      -6.9      2.533      7.561
  Name = 
  15 active torsions:
  status: ('A' for Active; 'I' for Inactive)
    1  A    between atoms: C_1  and  C_14
    2  A    between atoms: C_1  and  C_32
    3  A    between atoms: C_5  and  C_22
    4  A    between atoms: C_6  and  C_31
    5  A    between atoms: C_7  and  C_16
    6  A    between atoms: C_7  and  C_27
    7  A    between atoms: N_12  and  C_32
    8  A    between atoms: C_14  and  C_16
    9  A    between atoms: C_18  and  C_28
   10  A    between atoms: C_22  and  C_30
   11  A    between atoms: N_25  and  N_26
   12  A    between atoms: C_27  and  C_29
   13  A    between atoms: C_28  and  C_34
   14  A    between atoms: C_29  and  C_31
   15  A    between atoms: C_34  and  P_35
                            x       y       z     vdW  Elec       q    Type
                         _______ _______ _______ _____ _____    ______ ____

>  <TORSDO>
F 15

$$$$
=
 OpenBabel10222419163D

 35 36  0  0  1  0  0  0  0  0999 V2000
  188.9220  177.3060  146.2500 C   0  0  0  0  0  0  0  0  0  0  0  0
  187.6450  178.0230  145.9200 C   0  0  1  0  0  3  0  0  0  0  0  0
  191.0790  177.2400  145.0050 N   0  0  0  0  0  0  0  0  0  0  0  0
  187.7530  178.0560  144.3730 C   0  0  0  0  0  0  0  0  0  0  0  0
  186.6560  177.7010  143.4410 N   0  0  0  0  0  2  0  0  0  0  0  0
  189.5930  177.0290  144.9940 C   0  0  2  0  0  3  0  0  0  0  0  0
  188.9460  177.7190  143.9540 N   0  0  0  0  0  0  0  0  0  0  0  0
  189.5020  176.9730  147.4060 C   0  0  0  0  0  3  0  0  0  0  0  0
  191.7490  177.0810  143.7130 C   0  0  0  0  0  1  0  0  0  0  0  0
  190.9880  176.4060  147.3790 C   0  0  0  0  0  3  0  0  0  0  0  0
  191.6760  176.5830  146.1890 C   0  0  0  0  0  3  0  0  0  0  0  0
  186.2680  177.5050  146.3630 C   0  0  0  0  0  2  0  0  0  0  0  0
  185.9120  179.5680  147.2850 O   0  0  0  0  0  0  0  0  0  0  0  0
  184.0670  178.8740  146.1270 N   0  0  0  0  0  2  0  0  0  0  0  0
  185.3820  178.6770  146.6240 C   0  0  0  0  0  0  0  0  0  0  0  0
  181.7360  178.6380  144.3110 O   0  0  0  0  0  0  0  0  0  0  0  0
  182.9140  178.8160  143.8870 C   0  0  0  0  0  0  0  0  0  0  0  0
  183.9800  179.1820  144.7670 N   0  0  0  0  0  2  0  0  0  0  0  0
  183.1710  178.7500  142.4100 C   0  0  0  0  0  2  0  0  0  0  0  0
  181.8650  178.9380  141.6400 C   0  0  0  0  0  2  0  0  0  0  0  0
  183.3580  177.0050  140.3530 O   0  0  0  0  0  1  0  0  0  0  0  0
  180.8620  177.0660  140.1100 O   0  0  0  0  0  1  0  0  0  0  0  0
  182.2600  179.1060  138.8040 O   0  0  0  0  0  0  0  0  0  0  0  0
  182.0290  178.0100  140.1040 P   0  0  0  0  0  0  0  0  0  0  0  0
  186.7770  177.5140  141.9970 C   0  0  0  0  0  2  0  0  0  0  0  0
  186.9200  178.8240  141.3180 C   0  0  0  0  0  2  0  0  0  0  0  0
  188.2510  178.8380  140.5700 C   0  0  0  0  0  2  0  0  0  0  0  0
  188.8330  177.4010  140.3880 C   0  0  0  0  0  2  0  0  0  0  0  0
  188.9980  176.9970  138.9240 C   0  0  0  0  0  2  0  0  0  0  0  0
  189.5770  178.0070  138.0200 C   0  0  0  0  0  2  0  0  0  0  0  0
  188.9140  177.4030  135.8080 O   0  0  0  0  0  1  0  0  0  0  0  0
  188.8250  178.4150  136.7570 C   0  0  1  0  0  3  0  0  0  0  0  0
  187.3330  178.6100  137.0600 C   0  0  0  0  0  2  0  0  0  0  0  0
  186.5800  177.4800  136.4350 C   0  0  0  0  0  2  0  0  0  0  0  0
  185.2350  177.1490  137.1270 C   0  0  0  0  0  1  0  0  0  0  0  0
  1  8  2  0  0  0  0
  2  1  1  0  0  0  0
  2 12  1  6  0  0  0
  3 11  1  0  0  0  0
  4  2  1  0  0  0  0
  5  4  1  0  0  0  0
  6  7  1  6  0  0  0
  6  3  1  0  0  0  0
  6  1  1  0  0  0  0
  7  4  2  0  0  0  0
  9  3  1  0  0  0  0
 10  8  1  0  0  0  0
 11 10  2  0  0  0  0
 12 15  1  0  0  0  0
 14 15  1  0  0  0  0
 15 13  2  0  0  0  0
 17 16  2  0  0  0  0
 17 18  1  0  0  0  0
 18 14  1  0  0  0  0
 19 17  1  0  0  0  0
 20 19  1  0  0  0  0
 23 24  2  0  0  0  0
 24 22  1  0  0  0  0
 24 21  1  0  0  0  0
 24 20  1  0  0  0  0
 25  5  1  0  0  0  0
 26 25  1  0  0  0  0
 27 26  1  0  0  0  0
 28 27  1  0  0  0  0
 29 28  1  0  0  0  0
 30 29  1  0  0  0  0
 32 31  1  6  0  0  0
 32 33  1  0  0  0  0
 32 30  1  0  0  0  0
 34 33  1  0  0  0  0
 34 35  1  0  0  0  0
M  END
>  <MODEL>
5

>  <REMARK>
 VINA RESULT:      -6.9      2.705      6.766
  Name = 
  15 active torsions:
  status: ('A' for Active; 'I' for Inactive)
    1  A    between atoms: C_1  and  C_14
    2  A    between atoms: C_1  and  C_32
    3  A    between atoms: C_5  and  C_22
    4  A    between atoms: C_6  and  C_31
    5  A    between atoms: C_7  and  C_16
    6  A    between atoms: C_7  and  C_27
    7  A    between atoms: N_12  and  C_32
    8  A    between atoms: C_14  and  C_16
    9  A    between atoms: C_18  and  C_28
   10  A    between atoms: C_22  and  C_30
   11  A    between atoms: N_25  and  N_26
   12  A    between atoms: C_27  and  C_29
   13  A    between atoms: C_28  and  C_34
   14  A    between atoms: C_29  and  C_31
   15  A    between atoms: C_34  and  P_35
                            x       y       z     vdW  Elec       q    Type
                         _______ _______ _______ _____ _____    ______ ____

>  <TORSDO>
F 15

$$$$
=
 OpenBabel10222419163D

 35 36  0  0  1  0  0  0  0  0999 V2000
  188.2870  177.5400  144.9130 C   0  0  0  0  0  0  0  0  0  0  0  0
  188.1850  177.1600  143.4650 C   0  0  1  0  0  3  0  0  0  0  0  0
  186.4950  177.7840  146.6260 N   0  0  0  0  0  0  0  0  0  0  0  0
  186.7580  177.6820  143.1550 C   0  0  0  0  0  0  0  0  0  0  0  0
  186.3910  178.4890  141.9670 N   0  0  0  0  0  2  0  0  0  0  0  0
  187.0330  178.1710  145.2790 C   0  0  2  0  0  3  0  0  0  0  0  0
  186.1000  177.9960  144.2420 N   0  0  0  0  0  0  0  0  0  0  0  0
  189.2360  177.3510  145.8360 C   0  0  0  0  0  3  0  0  0  0  0  0
  185.1720  178.3190  146.9550 C   0  0  0  0  0  1  0  0  0  0  0  0
  188.9050  177.6960  147.3530 C   0  0  0  0  0  3  0  0  0  0  0  0
  187.5630  177.8820  147.6460 C   0  0  0  0  0  3  0  0  0  0  0  0
  189.1890  177.6500  142.4090 C   0  0  0  0  0  2  0  0  0  0  0  0
  189.9380  175.5130  142.7330 O   0  0  0  0  0  0  0  0  0  0  0  0
  190.9170  176.4380  140.8850 N   0  0  0  0  0  0  0  0  0  0  0  0
  190.0600  176.5040  142.0150 C   0  0  0  0  0  0  0  0  0  0  0  0
  192.0920  176.4380  138.1650 O   0  0  0  0  0  0  0  0  0  0  0  0
  190.8510  176.5580  138.3690 C   0  0  0  0  0  0  0  0  0  0  0  0
  190.2740  176.3020  139.6530 N   0  0  0  0  0  0  0  0  0  0  0  0
  189.9500  176.8690  137.2100 C   0  0  0  0  0  2  0  0  0  0  0  0
  188.4880  176.8030  137.6480 C   0  0  0  0  0  2  0  0  0  0  0  0
  186.5410  178.6340  138.3410 O   0  0  0  0  0  1  0  0  0  0  0  0
  188.7790  179.4010  137.5060 O   0  0  0  0  0  1  0  0  0  0  0  0
  187.0990  178.2430  135.5930 O   0  0  0  0  0  0  0  0  0  0  0  0
  187.7340  178.3720  137.1810 P   0  0  0  0  0  0  0  0  0  0  0  0
  185.1200  179.1740  141.7480 C   0  0  0  0  0  2  0  0  0  0  0  0
  184.0080  178.1940  141.6940 C   0  0  0  0  0  2  0  0  0  0  0  0
  183.6900  177.9050  140.2300 C   0  0  0  0  0  2  0  0  0  0  0  0
  182.3010  177.2140  140.0600 C   0  0  0  0  0  2  0  0  0  0  0  0
  182.3250  176.0400  139.0840 C   0  0  0  0  0  2  0  0  0  0  0  0
  183.5460  175.8770  138.2740 C   0  0  0  0  0  2  0  0  0  0  0  0
  183.9610  177.0580  136.2410 O   0  0  0  0  0  1  0  0  0  0  0  0
  183.4520  175.8690  136.7510 C   0  0  1  0  0  3  0  0  0  0  0  0
  184.3060  174.7330  136.1680 C   0  0  0  0  0  2  0  0  0  0  0  0
  185.3650  174.3890  137.1630 C   0  0  0  0  0  2  0  0  0  0  0  0
  185.3960  172.8950  137.5720 C   0  0  0  0  0  1  0  0  0  0  0  0
  1  6  1  0  0  0  0
  1  8  2  0  0  0  0
  2 12  1  6  0  0  0
  2  1  1  0  0  0  0
  3  9  1  0  0  0  0
  3 11  1  0  0  0  0
  4  2  1  0  0  0  0
  4  7  2  0  0  0  0
  5  4  1  0  0  0  0
  6  7  1  6  0  0  0
  6  3  1  0  0  0  0
  8 10  1  0  0  0  0
 10 11  2  0  0  0  0
 14 15  1  0  0  0  0
 15 12  1  0  0  0  0
 15 13  2  0  0  0  0
 16 17  2  0  0  0  0
 17 18  1  0  0  0  0
 18 14  2  0  0  0  0
 19 20  1  0  0  0  0
 19 17  1  0  0  0  0
 23 24  2  0  0  0  0
 24 22  1  0  0  0  0
 24 20  1  0  0  0  0
 24 21  1  0  0  0  0
 25  5  1  0  0  0  0
 26 25  1  0  0  0  0
 27 26  1  0  0  0  0
 28 27  1  0  0  0  0
 29 28  1  0  0  0  0
 30 29  1  0  0  0  0
 32 31  1  6  0  0  0
 32 30  1  0  0  0  0
 33 32  1  0  0  0  0
 33 34  1  0  0  0  0
 34 35  1  0  0  0  0
M  END
>  <MODEL>
6

>  <REMARK>
 VINA RESULT:      -6.8      1.893      3.406
  Name = 
  15 active torsions:
  status: ('A' for Active; 'I' for Inactive)
    1  A    between atoms: C_1  and  C_14
    2  A    between atoms: C_1  and  C_32
    3  A    between atoms: C_5  and  C_22
    4  A    between atoms: C_6  and  C_31
    5  A    between atoms: C_7  and  C_16
    6  A    between atoms: C_7  and  C_27
    7  A    between atoms: N_12  and  C_32
    8  A    between atoms: C_14  and  C_16
    9  A    between atoms: C_18  and  C_28
   10  A    between atoms: C_22  and  C_30
   11  A    between atoms: N_25  and  N_26
   12  A    between atoms: C_27  and  C_29
   13  A    between atoms: C_28  and  C_34
   14  A    between atoms: C_29  and  C_31
   15  A    between atoms: C_34  and  P_35
                            x       y       z     vdW  Elec       q    Type
                         _______ _______ _______ _____ _____    ______ ____

>  <TORSDO>
F 15

$$$$
=
 OpenBabel10222419163D

 35 36  0  0  1  0  0  0  0  0999 V2000
  184.1040  178.5050  141.5370 C   0  0  0  0  0  0  0  0  0  0  0  0
  185.3760  178.7660  142.2890 C   0  0  1  0  0  3  0  0  0  0  0  0
  181.7840  179.2800  142.0120 N   0  0  0  0  0  0  0  0  0  0  0  0
  184.8030  178.9570  143.7180 C   0  0  0  0  0  0  0  0  0  0  0  0
  185.3520  178.3230  144.9400 N   0  0  0  0  0  2  0  0  0  0  0  0
  183.0180  178.5750  142.4960 C   0  0  2  0  0  3  0  0  0  0  0  0
  183.5010  179.0830  143.7140 N   0  0  0  0  0  0  0  0  0  0  0  0
  183.8410  178.2990  140.2420 C   0  0  0  0  0  3  0  0  0  0  0  0
  180.7290  179.4620  143.0100 C   0  0  0  0  0  1  0  0  0  0  0  0
  182.3240  178.2790  139.7650 C   0  0  0  0  0  3  0  0  0  0  0  0
  181.4030  178.7740  140.6740 C   0  0  0  0  0  3  0  0  0  0  0  0
  186.5500  177.7750  142.2970 C   0  0  0  0  0  2  0  0  0  0  0  0
  188.6660  178.6130  142.5310 O   0  0  0  0  0  0  0  0  0  0  0  0
  187.9410  178.8450  140.3740 N   0  0  0  0  0  2  0  0  0  0  0  0
  187.7490  178.4560  141.7260 C   0  0  0  0  0  0  0  0  0  0  0  0
  190.4880  177.4610  139.7560 O   0  0  0  0  0  0  0  0  0  0  0  0
  189.4560  177.3400  139.0360 C   0  0  0  0  0  0  0  0  0  0  0  0
  188.1750  177.8000  139.4770 N   0  0  0  0  0  2  0  0  0  0  0  0
  189.5600  176.5980  137.7360 C   0  0  0  0  0  2  0  0  0  0  0  0
  188.1920  176.0470  137.3350 C   0  0  0  0  0  2  0  0  0  0  0  0
  187.4760  175.5900  134.7080 O   0  0  0  0  0  0  0  0  0  0  0  0
  186.3670  177.4050  136.0380 O   0  0  0  0  0  1  0  0  0  0  0  0
  189.0200  177.8880  135.2960 O   0  0  0  0  0  1  0  0  0  0  0  0
  187.7410  176.8550  135.7870 P   0  0  0  0  0  0  0  0  0  0  0  0
  184.7230  178.3050  146.2590 C   0  0  0  0  0  2  0  0  0  0  0  0
  185.7090  178.6640  147.3060 C   0  0  0  0  0  2  0  0  0  0  0  0
  187.0660  178.0890  146.9100 C   0  0  0  0  0  2  0  0  0  0  0  0
  187.9380  177.7370  148.1560 C   0  0  0  0  0  2  0  0  0  0  0  0
  189.4380  177.7820  147.8750 C   0  0  0  0  0  3  0  0  0  0  0  0
  189.9720  176.7540  146.9630 C   0  0  0  0  0  3  0  0  0  0  0  0
  192.0260  175.7380  146.2930 O   0  0  0  0  0  1  0  0  0  0  0  0
  191.3410  176.9480  146.3180 C   0  0  1  0  0  3  0  0  0  0  0  0
  191.1870  177.4000  144.8590 C   0  0  0  0  0  2  0  0  0  0  0  0
  191.4940  176.2360  143.9750 C   0  0  0  0  0  2  0  0  0  0  0  0
  190.2900  175.7280  143.1450 C   0  0  0  0  0  1  0  0  0  0  0  0
  1  2  1  0  0  0  0
  2 12  1  1  0  0  0
  2  4  1  0  0  0  0
  3  6  1  0  0  0  0
  3  9  1  0  0  0  0
  4  5  1  0  0  0  0
  5 25  1  0  0  0  0
  6  1  1  6  0  0  0
  6  7  1  0  0  0  0
  7  4  2  0  0  0  0
  8  1  2  0  0  0  0
 10  8  1  0  0  0  0
 10 11  2  0  0  0  0
 11  3  1  0  0  0  0
 14 15  1  0  0  0  0
 15 12  1  0  0  0  0
 15 13  2  0  0  0  0
 17 18  1  0  0  0  0
 17 16  2  0  0  0  0
 18 14  1  0  0  0  0
 19 17  1  0  0  0  0
 20 19  1  0  0  0  0
 21 24  2  0  0  0  0
 23 24  1  0  0  0  0
 24 22  1  0  0  0  0
 24 20  1  0  0  0  0
 25 26  1  0  0  0  0
 27 26  1  0  0  0  0
 27 28  1  0  0  0  0
 29 28  1  0  0  0  0
 30 29  2  0  0  0  0
 32 31  1  6  0  0  0
 32 30  1  0  0  0  0
 33 32  1  0  0  0  0
 34 33  1  0  0  0  0
 35 34  1  0  0  0  0
M  END
>  <MODEL>
7

>  <REMARK>
 VINA RESULT:      -6.7      2.303      6.849
  Name = 
  15 active torsions:
  status: ('A' for Active; 'I' for Inactive)
    1  A    between atoms: C_1  and  C_14
    2  A    between atoms: C_1  and  C_32
    3  A    between atoms: C_5  and  C_22
    4  A    between atoms: C_6  and  C_31
    5  A    between atoms: C_7  and  C_16
    6  A    between atoms: C_7  and  C_27
    7  A    between atoms: N_12  and  C_32
    8  A    between atoms: C_14  and  C_16
    9  A    between atoms: C_18  and  C_28
   10  A    between atoms: C_22  and  C_30
   11  A    between atoms: N_25  and  N_26
   12  A    between atoms: C_27  and  C_29
   13  A    between atoms: C_28  and  C_34
   14  A    between atoms: C_29  and  C_31
   15  A    between atoms: C_34  and  P_35
                            x       y       z     vdW  Elec       q    Type
                         _______ _______ _______ _____ _____    ______ ____

>  <TORSDO>
F 15

$$$$
=
 OpenBabel10222419163D

 35 36  0  0  1  0  0  0  0  0999 V2000
  183.9120  178.0430  138.1780 C   0  0  0  0  0  0  0  0  0  0  0  0
  185.1180  178.5850  138.8890 C   0  0  1  0  0  3  0  0  0  0  0  0
  181.5090  178.6530  138.4270 N   0  0  0  0  0  0  0  0  0  0  0  0
  184.4670  179.0030  140.2330 C   0  0  0  0  0  0  0  0  0  0  0  0
  185.0190  178.6940  141.5730 N   0  0  0  0  0  2  0  0  0  0  0  0
  182.7830  178.1940  139.0760 C   0  0  2  0  0  3  0  0  0  0  0  0
  183.1590  178.9890  140.1730 N   0  0  0  0  0  0  0  0  0  0  0  0
  183.7280  177.5510  136.9490 C   0  0  0  0  0  3  0  0  0  0  0  0
  180.3980  178.9250  139.3410 C   0  0  0  0  0  1  0  0  0  0  0  0
  182.2430  177.2740  136.4510 C   0  0  0  0  0  3  0  0  0  0  0  0
  181.2390  177.8470  137.2150 C   0  0  0  0  0  3  0  0  0  0  0  0
  186.3810  177.7440  139.1310 C   0  0  0  0  0  2  0  0  0  0  0  0
  187.0760  179.0650  137.3970 O   0  0  0  0  0  0  0  0  0  0  0  0
  188.6820  177.5280  137.9320 N   0  0  0  0  0  2  0  0  0  0  0  0
  187.3990  178.1100  138.1020 C   0  0  0  0  0  0  0  0  0  0  0  0
  190.8240  175.8470  139.1030 O   0  0  0  0  0  0  0  0  0  0  0  0
  190.4690  176.9490  139.6120 C   0  0  0  0  0  0  0  0  0  0  0  0
  189.6260  177.8630  138.9060 N   0  0  0  0  0  2  0  0  0  0  0  0
  191.0380  177.3510  140.9410 C   0  0  0  0  0  2  0  0  0  0  0  0
  190.4480  176.4810  142.0500 C   0  0  0  0  0  2  0  0  0  0  0  0
  188.4150  178.3500  142.0590 O   0  0  0  0  0  0  0  0  0  0  0  0
  188.5970  176.6490  143.8940 O   0  0  0  0  0  1  0  0  0  0  0  0
  190.5350  178.6650  143.9080 O   0  0  0  0  0  1  0  0  0  0  0  0
  189.4800  177.5740  143.1080 P   0  0  0  0  0  0  0  0  0  0  0  0
  184.3370  178.8810  142.8520 C   0  0  0  0  0  2  0  0  0  0  0  0
  185.2730  178.6390  143.9760 C   0  0  0  0  0  2  0  0  0  0  0  0
  184.5700  179.0100  145.2790 C   0  0  0  0  0  2  0  0  0  0  0  0
  185.1570  178.2360  146.5000 C   0  0  0  0  0  2  0  0  0  0  0  0
  186.5970  178.6260  146.8270 C   0  0  0  0  0  3  0  0  0  0  0  0
  187.5040  177.5360  147.2260 C   0  0  0  0  0  3  0  0  0  0  0  0
  189.3330  178.3790  148.5090 O   0  0  0  0  0  1  0  0  0  0  0  0
  189.0080  177.7850  147.2940 C   0  0  1  0  0  3  0  0  0  0  0  0
  189.7750  176.4560  147.2310 C   0  0  0  0  0  2  0  0  0  0  0  0
  191.2060  176.7590  146.9270 C   0  0  0  0  0  2  0  0  0  0  0  0
  192.1920  175.6220  147.2960 C   0  0  0  0  0  1  0  0  0  0  0  0
  1  2  1  0  0  0  0
  2 12  1  1  0  0  0
  2  4  1  0  0  0  0
  3  6  1  0  0  0  0
  3  9  1  0  0  0  0
  4  5  1  0  0  0  0
  5 25  1  0  0  0  0
  6  1  1  6  0  0  0
  6  7  1  0  0  0  0
  7  4  2  0  0  0  0
  8  1  2  0  0  0  0
 10  8  1  0  0  0  0
 10 11  2  0  0  0  0
 11  3  1  0  0  0  0
 13 15  2  0  0  0  0
 14 15  1  0  0  0  0
 14 18  1  0  0  0  0
 15 12  1  0  0  0  0
 16 17  2  0  0  0  0
 17 19  1  0  0  0  0
 18 17  1  0  0  0  0
 19 20  1  0  0  0  0
 20 24  1  0  0  0  0
 21 24  2  0  0  0  0
 24 22  1  0  0  0  0
 24 23  1  0  0  0  0
 25 26  1  0  0  0  0
 26 27  1  0  0  0  0
 27 28  1  0  0  0  0
 28 29  1  0  0  0  0
 29 30  2  0  0  0  0
 30 32  1  0  0  0  0
 32 31  1  1  0  0  0
 33 32  1  0  0  0  0
 34 33  1  0  0  0  0
 34 35  1  0  0  0  0
M  END
>  <MODEL>
8

>  <REMARK>
 VINA RESULT:      -6.7      2.856      7.578
  Name = 
  15 active torsions:
  status: ('A' for Active; 'I' for Inactive)
    1  A    between atoms: C_1  and  C_14
    2  A    between atoms: C_1  and  C_32
    3  A    between atoms: C_5  and  C_22
    4  A    between atoms: C_6  and  C_31
    5  A    between atoms: C_7  and  C_16
    6  A    between atoms: C_7  and  C_27
    7  A    between atoms: N_12  and  C_32
    8  A    between atoms: C_14  and  C_16
    9  A    between atoms: C_18  and  C_28
   10  A    between atoms: C_22  and  C_30
   11  A    between atoms: N_25  and  N_26
   12  A    between atoms: C_27  and  C_29
   13  A    between atoms: C_28  and  C_34
   14  A    between atoms: C_29  and  C_31
   15  A    between atoms: C_34  and  P_35
                            x       y       z     vdW  Elec       q    Type
                         _______ _______ _______ _____ _____    ______ ____

>  <TORSDO>
F 15

$$$$
=
 OpenBabel10222419163D

 35 36  0  0  1  0  0  0  0  0999 V2000
  188.5400  177.5060  145.2850 C   0  0  0  0  0  0  0  0  0  0  0  0
  188.5510  177.1170  143.8350 C   0  0  1  0  0  3  0  0  0  0  0  0
  186.6160  177.7980  146.8420 N   0  0  0  0  0  0  0  0  0  0  0  0
  187.1640  177.6630  143.4050 C   0  0  0  0  0  0  0  0  0  0  0  0
  186.9140  178.4670  142.1850 N   0  0  0  0  0  2  0  0  0  0  0  0
  187.2720  178.1630  145.5420 C   0  0  2  0  0  3  0  0  0  0  0  0
  186.4250  177.9980  144.4320 N   0  0  0  0  0  0  0  0  0  0  0  0
  189.4040  177.3070  146.2840 C   0  0  0  0  0  3  0  0  0  0  0  0
  185.2820  178.3600  147.0560 C   0  0  0  0  0  1  0  0  0  0  0  0
  188.9550  177.6710  147.7660 C   0  0  0  0  0  3  0  0  0  0  0  0
  187.5980  177.8830  147.9460 C   0  0  0  0  0  3  0  0  0  0  0  0
  189.6480  177.5800  142.8640 C   0  0  0  0  0  2  0  0  0  0  0  0
  190.0110  175.3210  142.8070 O   0  0  0  0  0  0  0  0  0  0  0  0
  190.9650  176.3370  140.9930 N   0  0  0  0  0  0  0  0  0  0  0  0
  190.2470  176.3750  142.2180 C   0  0  0  0  0  0  0  0  0  0  0  0
  191.8560  176.6100  138.1800 O   0  0  0  0  0  0  0  0  0  0  0  0
  190.6770  176.8780  138.5490 C   0  0  0  0  0  0  0  0  0  0  0  0
  190.1920  176.5030  139.8410 N   0  0  0  0  0  0  0  0  0  0  0  0
  189.7340  177.5060  137.5660 C   0  0  0  0  0  2  0  0  0  0  0  0
  188.6330  178.2650  138.3050 C   0  0  0  0  0  2  0  0  0  0  0  0
  185.9100  178.7230  138.3330 O   0  0  0  0  0  1  0  0  0  0  0  0
  187.1590  178.5720  136.1630 O   0  0  0  0  0  0  0  0  0  0  0  0
  186.8330  176.1640  137.5490 O   0  0  0  0  0  1  0  0  0  0  0  0
  187.0810  177.8600  137.4830 P   0  0  0  0  0  0  0  0  0  0  0  0
  185.6780  179.1750  141.8570 C   0  0  0  0  0  2  0  0  0  0  0  0
  184.5340  178.2310  141.8310 C   0  0  0  0  0  2  0  0  0  0  0  0
  183.4300  178.7860  142.7260 C   0  0  0  0  0  2  0  0  0  0  0  0
  182.0180  178.6170  142.0830 C   0  0  0  0  0  2  0  0  0  0  0  0
  182.0300  178.7300  140.5610 C   0  0  0  0  0  2  0  0  0  0  0  0
  181.2510  177.7250  139.8160 C   0  0  0  0  0  2  0  0  0  0  0  0
  181.0270  175.6540  138.6480 O   0  0  0  0  0  1  0  0  0  0  0  0
  181.8770  176.3750  139.4790 C   0  0  1  0  0  3  0  0  0  0  0  0
  183.1900  176.5710  138.7070 C   0  0  0  0  0  2  0  0  0  0  0  0
  182.8660  177.1920  137.3870 C   0  0  0  0  0  2  0  0  0  0  0  0
  183.5040  176.4760  136.1710 C   0  0  0  0  0  1  0  0  0  0  0  0
  1  6  1  0  0  0  0
  1  8  2  0  0  0  0
  2 12  1  6  0  0  0
  2  1  1  0  0  0  0
  3  9  1  0  0  0  0
  3 11  1  0  0  0  0
  4  2  1  0  0  0  0
  4  7  2  0  0  0  0
  5  4  1  0  0  0  0
  6  7  1  6  0  0  0
  6  3  1  0  0  0  0
  8 10  1  0  0  0  0
 10 11  2  0  0  0  0
 14 15  1  0  0  0  0
 15 13  2  0  0  0  0
 15 12  1  0  0  0  0
 16 17  2  0  0  0  0
 17 18  1  0  0  0  0
 18 14  2  0  0  0  0
 19 20  1  0  0  0  0
 19 17  1  0  0  0  0
 22 24  2  0  0  0  0
 24 23  1  0  0  0  0
 24 20  1  0  0  0  0
 24 21  1  0  0  0  0
 25  5  1  0  0  0  0
 26 25  1  0  0  0  0
 26 27  1  0  0  0  0
 28 27  1  0  0  0  0
 29 28  1  0  0  0  0
 30 29  1  0  0  0  0
 32 31  1  6  0  0  0
 32 30  1  0  0  0  0
 33 32  1  0  0  0  0
 34 33  1  0  0  0  0
 35 34  1  0  0  0  0
M  END
>  <MODEL>
9

>  <REMARK>
 VINA RESULT:      -6.7      1.430      2.523
  Name = 
  15 active torsions:
  status: ('A' for Active; 'I' for Inactive)
    1  A    between atoms: C_1  and  C_14
    2  A    between atoms: C_1  and  C_32
    3  A    between atoms: C_5  and  C_22
    4  A    between atoms: C_6  and  C_31
    5  A    between atoms: C_7  and  C_16
    6  A    between atoms: C_7  and  C_27
    7  A    between atoms: N_12  and  C_32
    8  A    between atoms: C_14  and  C_16
    9  A    between atoms: C_18  and  C_28
   10  A    between atoms: C_22  and  C_30
   11  A    between atoms: N_25  and  N_26
   12  A    between atoms: C_27  and  C_29
   13  A    between atoms: C_28  and  C_34
   14  A    between atoms: C_29  and  C_31
   15  A    between atoms: C_34  and  P_35
                            x       y       z     vdW  Elec       q    Type
                         _______ _______ _______ _____ _____    ______ ____

>  <TORSDO>
F 15

$$$$
