=
 OpenBabel10222420183D

 27 29  0  0  1  0  0  0  0  0999 V2000
  188.4210  175.5920  143.2170 O   0  0  0  0  0  0  0  0  0  0  0  0
  188.3420  176.8490  143.2730 C   0  0  0  0  0  0  0  0  0  0  0  0
  189.4460  177.6500  142.8420 N   0  0  0  0  0  2  0  0  0  0  0  0
  186.0710  177.8250  142.8940 C   0  0  0  0  0  3  0  0  0  0  0  0
  187.2080  177.9280  147.3080 C   0  0  0  0  0  3  0  0  0  0  0  0
  184.8840  178.4270  143.3520 C   0  0  0  0  0  0  0  0  0  0  0  0
  185.7520  178.3580  145.5950 C   0  0  0  0  0  0  0  0  0  0  0  0
  185.8430  178.5230  147.0690 C   0  0  2  0  0  3  0  0  0  0  0  0
  186.9040  177.7700  145.1470 C   0  0  0  0  0  0  0  0  0  0  0  0
  183.5530  179.2890  145.2040 O   0  0  0  0  0  1  0  0  0  0  0  0
  187.7890  177.5130  146.2230 N   0  0  0  0  0  0  0  0  0  0  0  0
  187.1070  177.4830  143.7870 C   0  0  0  0  0  0  0  0  0  0  0  0
  184.7170  178.6980  144.7240 C   0  0  0  0  0  0  0  0  0  0  0  0
  183.8170  178.7690  142.3720 C   0  0  0  0  0  1  0  0  0  0  0  0
  185.8660  179.8810  147.3900 O   0  0  0  0  0  1  0  0  0  0  0  0
  190.6660  177.0790  142.2880 C   0  0  0  0  0  2  0  0  0  0  0  0
  190.7070  176.4420  139.9070 C   0  0  2  0  0  3  0  0  0  0  0  0
  189.5990  177.4550  140.0890 C   0  0  0  0  0  2  0  0  0  0  0  0
  190.8850  177.5920  140.8780 C   0  0  1  0  0  3  0  0  0  0  0  0
  191.5110  174.5070  137.9910 O   0  0  0  0  0  0  0  0  0  0  0  0
  191.4320  176.7340  138.6830 N   0  0  0  0  0  2  0  0  0  0  0  0
  191.8080  175.7100  137.7600 C   0  0  0  0  0  0  0  0  0  0  0  0
  194.6570  176.8560  135.4730 C   0  0  0  0  0  3  0  0  0  0  0  0
  193.8990  176.5050  136.6270 N   0  0  0  0  0  2  0  0  0  0  0  0
  192.5440  176.0590  136.5390 C   0  0  0  0  0  0  0  0  0  0  0  0
  195.8470  177.2440  135.5950 O   0  0  0  0  0  0  0  0  0  0  0  0
  191.9780  175.9640  135.4170 O   0  0  0  0  0  0  0  0  0  0  0  0
  1  2  2  0  0  0  0
  2 12  1  0  0  0  0
  3  2  1  0  0  0  0
  4  6  2  0  0  0  0
  4 12  1  0  0  0  0
  6 13  1  0  0  0  0
  7  8  1  0  0  0  0
  8  5  1  0  0  0  0
  8 15  1  6  0  0  0
  9  7  1  0  0  0  0
  9 11  1  0  0  0  0
 11  5  2  0  0  0  0
 12  9  2  0  0  0  0
 13 10  1  0  0  0  0
 13  7  2  0  0  0  0
 14  6  1  0  0  0  0
 16  3  1  0  0  0  0
 17 21  1  6  0  0  0
 17 18  1  0  0  0  0
 17 19  1  0  0  0  0
 18 19  1  0  0  0  0
 19 16  1  1  0  0  0
 22 20  2  0  0  0  0
 22 21  1  0  0  0  0
 23 26  2  0  0  0  0
 23 24  1  0  0  0  0
 25 24  1  0  0  0  0
 25 22  1  0  0  0  0
 27 25  2  0  0  0  0
M  END
>  <MODEL>
1

>  <REMARK>
 VINA RESULT:      -8.7      0.000      0.000
  Name = 
  5 active torsions:
  status: ('A' for Active; 'I' for Inactive)
    1  A    between atoms: C_1  and  N_11
    2  A    between atoms: C_10  and  C_21
    3  A    between atoms: C_15  and  C_16
    4  A    between atoms: C_18  and  N_22
    5  A    between atoms: C_18  and  C_26
                            x       y       z     vdW  Elec       q    Type
                         _______ _______ _______ _____ _____    ______ ____

>  <TORSDO>
F 5

$$$$
=
 OpenBabel10222420183D

 27 29  0  0  1  0  0  0  0  0999 V2000
  189.2540  175.6410  143.1200 O   0  0  0  0  0  0  0  0  0  0  0  0
  188.9880  176.8680  143.2330 C   0  0  0  0  0  0  0  0  0  0  0  0
  189.6730  177.8210  142.4140 N   0  0  0  0  0  2  0  0  0  0  0  0
  186.7160  177.7650  143.7650 C   0  0  0  0  0  3  0  0  0  0  0  0
  189.1420  177.0340  147.5550 C   0  0  0  0  0  3  0  0  0  0  0  0
  185.7280  178.1900  144.6730 C   0  0  0  0  0  0  0  0  0  0  0  0
  187.2370  177.7170  146.4870 C   0  0  0  0  0  0  0  0  0  0  0  0
  187.7730  177.5840  147.8660 C   0  0  2  0  0  3  0  0  0  0  0  0
  188.1940  177.3020  145.6010 C   0  0  0  0  0  0  0  0  0  0  0  0
  185.0290  178.5780  146.9770 O   0  0  0  0  0  1  0  0  0  0  0  0
  189.3630  176.8840  146.2840 N   0  0  0  0  0  0  0  0  0  0  0  0
  187.9720  177.3100  144.2140 C   0  0  0  0  0  0  0  0  0  0  0  0
  185.9870  178.1660  146.0570 C   0  0  0  0  0  0  0  0  0  0  0  0
  184.4160  178.6610  144.1510 C   0  0  0  0  0  1  0  0  0  0  0  0
  187.9010  178.8460  148.4450 O   0  0  0  0  0  1  0  0  0  0  0  0
  190.6480  177.4370  141.4040 C   0  0  0  0  0  2  0  0  0  0  0  0
  189.8920  177.8250  139.0900 C   0  0  2  0  0  3  0  0  0  0  0  0
  190.9150  176.7120  139.0550 C   0  0  0  0  0  2  0  0  0  0  0  0
  189.9460  176.8110  140.2150 C   0  0  1  0  0  3  0  0  0  0  0  0
  188.6740  179.6330  137.2700 O   0  0  0  0  0  0  0  0  0  0  0  0
  188.7900  177.4960  138.2020 N   0  0  0  0  0  2  0  0  0  0  0  0
  188.2210  178.4560  137.3100 C   0  0  0  0  0  0  0  0  0  0  0  0
  184.8320  177.0690  136.1930 C   0  0  0  0  0  3  0  0  0  0  0  0
  185.9420  177.4600  136.9960 N   0  0  0  0  0  2  0  0  0  0  0  0
  187.1060  178.0730  136.4370 C   0  0  0  0  0  0  0  0  0  0  0  0
  183.8280  176.5320  136.7260 O   0  0  0  0  0  0  0  0  0  0  0  0
  187.1770  178.2880  135.1960 O   0  0  0  0  0  0  0  0  0  0  0  0
  1  2  2  0  0  0  0
  2 12  1  0  0  0  0
  3  2  1  0  0  0  0
  4 12  2  0  0  0  0
  4  6  1  0  0  0  0
  5  8  1  0  0  0  0
  6 13  2  0  0  0  0
  7  8  1  0  0  0  0
  8 15  1  6  0  0  0
  9 11  1  0  0  0  0
  9  7  2  0  0  0  0
 11  5  2  0  0  0  0
 12  9  1  0  0  0  0
 13  7  1  0  0  0  0
 13 10  1  0  0  0  0
 14  6  1  0  0  0  0
 16  3  1  0  0  0  0
 17 21  1  6  0  0  0
 17 19  1  0  0  0  0
 18 17  1  0  0  0  0
 18 19  1  0  0  0  0
 19 16  1  1  0  0  0
 20 22  2  0  0  0  0
 22 21  1  0  0  0  0
 23 26  2  0  0  0  0
 23 24  1  0  0  0  0
 25 24  1  0  0  0  0
 25 22  1  0  0  0  0
 27 25  2  0  0  0  0
M  END
>  <MODEL>
2

>  <REMARK>
 VINA RESULT:      -8.6      3.088      4.243
  Name = 
  5 active torsions:
  status: ('A' for Active; 'I' for Inactive)
    1  A    between atoms: C_1  and  N_11
    2  A    between atoms: C_10  and  C_21
    3  A    between atoms: C_15  and  C_16
    4  A    between atoms: C_18  and  N_22
    5  A    between atoms: C_18  and  C_26
                            x       y       z     vdW  Elec       q    Type
                         _______ _______ _______ _____ _____    ______ ____

>  <TORSDO>
F 5

$$$$
=
 OpenBabel10222420183D

 27 29  0  0  1  0  0  0  0  0999 V2000
  188.8710  175.6610  143.1510 O   0  0  0  0  0  0  0  0  0  0  0  0
  188.8830  176.8990  143.3880 C   0  0  0  0  0  0  0  0  0  0  0  0
  189.8400  177.7370  142.7330 N   0  0  0  0  0  2  0  0  0  0  0  0
  188.1910  177.4510  145.7260 C   0  0  0  0  0  3  0  0  0  0  0  0
  185.0470  178.7820  142.7060 C   0  0  0  0  0  3  0  0  0  0  0  0
  187.2870  177.9890  146.6610 C   0  0  0  0  0  0  0  0  0  0  0  0
  185.8110  178.5700  144.8520 C   0  0  0  0  0  0  0  0  0  0  0  0
  184.6330  179.1030  144.1200 C   0  0  2  0  0  3  0  0  0  0  0  0
  186.6940  178.0480  143.9450 C   0  0  0  0  0  0  0  0  0  0  0  0
  185.1670  179.1010  147.1240 O   0  0  0  0  0  1  0  0  0  0  0  0
  186.2010  178.1910  142.6250 N   0  0  0  0  0  0  0  0  0  0  0  0
  187.9110  177.4720  144.3450 C   0  0  0  0  0  0  0  0  0  0  0  0
  186.0770  178.5600  146.2220 C   0  0  0  0  0  0  0  0  0  0  0  0
  187.6270  177.9450  148.1100 C   0  0  0  0  0  1  0  0  0  0  0  0
  183.4980  178.3620  144.4500 O   0  0  0  0  0  1  0  0  0  0  0  0
  190.7900  177.2330  141.7510 C   0  0  0  0  0  2  0  0  0  0  0  0
  189.7680  177.9560  139.6270 C   0  0  2  0  0  3  0  0  0  0  0  0
  190.9090  177.0230  139.2900 C   0  0  0  0  0  2  0  0  0  0  0  0
  190.0540  176.7600  140.5130 C   0  0  1  0  0  3  0  0  0  0  0  0
  188.9590  179.5080  137.3920 O   0  0  0  0  0  0  0  0  0  0  0  0
  188.6310  177.6560  138.7730 N   0  0  0  0  0  2  0  0  0  0  0  0
  188.2780  178.4820  137.6620 C   0  0  0  0  0  0  0  0  0  0  0  0
  184.8600  177.0840  136.6510 C   0  0  0  0  0  3  0  0  0  0  0  0
  186.0100  177.4420  137.4120 N   0  0  0  0  0  2  0  0  0  0  0  0
  187.1170  178.1360  136.8330 C   0  0  0  0  0  0  0  0  0  0  0  0
  183.9080  176.4730  137.2000 O   0  0  0  0  0  0  0  0  0  0  0  0
  187.1010  178.4540  135.6130 O   0  0  0  0  0  0  0  0  0  0  0  0
  1  2  2  0  0  0  0
  2 12  1  0  0  0  0
  3  2  1  0  0  0  0
  4  6  1  0  0  0  0
  5  8  1  0  0  0  0
  6 14  1  0  0  0  0
  7 13  1  0  0  0  0
  8 15  1  1  0  0  0
  8  7  1  0  0  0  0
  9 12  1  0  0  0  0
  9  7  2  0  0  0  0
 11  5  2  0  0  0  0
 11  9  1  0  0  0  0
 12  4  2  0  0  0  0
 13  6  2  0  0  0  0
 13 10  1  0  0  0  0
 16  3  1  0  0  0  0
 17 21  1  6  0  0  0
 17 19  1  0  0  0  0
 18 17  1  0  0  0  0
 18 19  1  0  0  0  0
 19 16  1  1  0  0  0
 20 22  2  0  0  0  0
 22 21  1  0  0  0  0
 23 26  2  0  0  0  0
 23 24  1  0  0  0  0
 25 24  1  0  0  0  0
 25 22  1  0  0  0  0
 27 25  2  0  0  0  0
M  END
>  <MODEL>
3

>  <REMARK>
 VINA RESULT:      -8.3      2.964      4.717
  Name = 
  5 active torsions:
  status: ('A' for Active; 'I' for Inactive)
    1  A    between atoms: C_1  and  N_11
    2  A    between atoms: C_10  and  C_21
    3  A    between atoms: C_15  and  C_16
    4  A    between atoms: C_18  and  N_22
    5  A    between atoms: C_18  and  C_26
                            x       y       z     vdW  Elec       q    Type
                         _______ _______ _______ _____ _____    ______ ____

>  <TORSDO>
F 5

$$$$
=
 OpenBabel10222420183D

 27 29  0  0  1  0  0  0  0  0999 V2000
  188.4510  175.6160  142.7490 O   0  0  0  0  0  0  0  0  0  0  0  0
  188.2660  176.8380  143.0020 C   0  0  0  0  0  0  0  0  0  0  0  0
  188.2380  177.7870  141.9310 N   0  0  0  0  0  2  0  0  0  0  0  0
  189.0950  177.0330  145.3520 C   0  0  0  0  0  3  0  0  0  0  0  0
  184.9610  178.8970  144.8900 C   0  0  0  0  0  3  0  0  0  0  0  0
  188.9510  177.4390  146.6920 C   0  0  0  0  0  0  0  0  0  0  0  0
  186.7820  178.3330  146.1550 C   0  0  0  0  0  0  0  0  0  0  0  0
  185.4650  179.0020  146.3070 C   0  0  2  0  0  3  0  0  0  0  0  0
  186.9270  177.9380  144.8510 C   0  0  0  0  0  0  0  0  0  0  0  0
  187.6110  178.5160  148.4210 O   0  0  0  0  0  1  0  0  0  0  0  0
  185.7890  178.2980  144.0880 N   0  0  0  0  0  0  0  0  0  0  0  0
  188.0820  177.2770  144.4030 C   0  0  0  0  0  0  0  0  0  0  0  0
  187.7780  178.1010  147.1040 C   0  0  0  0  0  0  0  0  0  0  0  0
  190.0490  177.1610  147.6580 C   0  0  0  0  0  1  0  0  0  0  0  0
  184.6470  178.2460  147.1470 O   0  0  0  0  0  1  0  0  0  0  0  0
  188.3700  177.4040  140.5330 C   0  0  0  0  0  2  0  0  0  0  0  0
  190.0300  176.6660  138.8660 C   0  0  2  0  0  3  0  0  0  0  0  0
  189.8740  178.1640  138.7230 C   0  0  0  0  0  2  0  0  0  0  0  0
  189.8170  177.5260  140.0960 C   0  0  1  0  0  3  0  0  0  0  0  0
  191.4450  176.2990  136.4320 O   0  0  0  0  0  0  0  0  0  0  0  0
  191.4360  176.3150  138.7660 N   0  0  0  0  0  2  0  0  0  0  0  0
  192.0880  176.1440  137.5060 C   0  0  0  0  0  0  0  0  0  0  0  0
  195.3780  174.3490  138.2870 C   0  0  0  0  0  3  0  0  0  0  0  0
  194.0070  174.7350  138.2930 N   0  0  0  0  0  2  0  0  0  0  0  0
  193.5100  175.7860  137.4610 C   0  0  0  0  0  0  0  0  0  0  0  0
  195.7730  173.4190  139.0360 O   0  0  0  0  0  0  0  0  0  0  0  0
  194.2890  176.4060  136.6870 O   0  0  0  0  0  0  0  0  0  0  0  0
  1  2  2  0  0  0  0
  2 12  1  0  0  0  0
  3  2  1  0  0  0  0
  4  6  1  0  0  0  0
  5  8  1  0  0  0  0
  6 13  2  0  0  0  0
  6 14  1  0  0  0  0
  7  8  1  0  0  0  0
  7 13  1  0  0  0  0
  8 15  1  1  0  0  0
  9  7  2  0  0  0  0
 11  9  1  0  0  0  0
 11  5  2  0  0  0  0
 12  9  1  0  0  0  0
 12  4  2  0  0  0  0
 13 10  1  0  0  0  0
 16  3  1  0  0  0  0
 17 21  1  1  0  0  0
 17 19  1  0  0  0  0
 18 17  1  0  0  0  0
 18 19  1  0  0  0  0
 19 16  1  6  0  0  0
 20 22  2  0  0  0  0
 22 21  1  0  0  0  0
 23 24  1  0  0  0  0
 23 26  2  0  0  0  0
 25 22  1  0  0  0  0
 25 24  1  0  0  0  0
 27 25  2  0  0  0  0
M  END
>  <MODEL>
4

>  <REMARK>
 VINA RESULT:      -8.3      1.904      3.132
  Name = 
  5 active torsions:
  status: ('A' for Active; 'I' for Inactive)
    1  A    between atoms: C_1  and  N_11
    2  A    between atoms: C_10  and  C_21
    3  A    between atoms: C_15  and  C_16
    4  A    between atoms: C_18  and  N_22
    5  A    between atoms: C_18  and  C_26
                            x       y       z     vdW  Elec       q    Type
                         _______ _______ _______ _____ _____    ______ ____

>  <TORSDO>
F 5

$$$$
=
 OpenBabel10222420183D

 27 29  0  0  1  0  0  0  0  0999 V2000
  188.6810  175.8000  142.7540 O   0  0  0  0  0  0  0  0  0  0  0  0
  188.5180  176.9660  143.2050 C   0  0  0  0  0  0  0  0  0  0  0  0
  188.3120  178.0540  142.2990 N   0  0  0  0  0  2  0  0  0  0  0  0
  187.4090  177.7240  145.3140 C   0  0  0  0  0  3  0  0  0  0  0  0
  191.6580  176.2710  146.1010 C   0  0  0  0  0  3  0  0  0  0  0  0
  187.4030  177.9530  146.7020 C   0  0  0  0  0  0  0  0  0  0  0  0
  189.6650  177.1400  146.8150 C   0  0  0  0  0  0  0  0  0  0  0  0
  190.9850  176.7390  147.3660 C   0  0  2  0  0  3  0  0  0  0  0  0
  189.6670  176.9150  145.4640 C   0  0  0  0  0  0  0  0  0  0  0  0
  188.5670  177.8700  148.8440 O   0  0  0  0  0  1  0  0  0  0  0  0
  190.9090  176.3780  145.0450 N   0  0  0  0  0  0  0  0  0  0  0  0
  188.5460  177.1970  144.6660 C   0  0  0  0  0  0  0  0  0  0  0  0
  188.5460  177.6570  147.4690 C   0  0  0  0  0  0  0  0  0  0  0  0
  186.1790  178.5090  147.3420 C   0  0  0  0  0  1  0  0  0  0  0  0
  191.6510  177.8620  147.8580 O   0  0  0  0  0  1  0  0  0  0  0  0
  188.2330  177.8760  140.8560 C   0  0  0  0  0  2  0  0  0  0  0  0
  189.8150  176.9000  139.2360 C   0  0  2  0  0  3  0  0  0  0  0  0
  189.4710  178.2930  138.7560 C   0  0  0  0  0  2  0  0  0  0  0  0
  189.6110  178.0180  140.2390 C   0  0  1  0  0  3  0  0  0  0  0  0
  191.0150  175.8280  136.8970 O   0  0  0  0  0  0  0  0  0  0  0  0
  191.2380  176.6690  139.0630 N   0  0  0  0  0  2  0  0  0  0  0  0
  191.7780  176.1240  137.8570 C   0  0  0  0  0  0  0  0  0  0  0  0
  195.2230  174.5020  138.2550 C   0  0  0  0  0  3  0  0  0  0  0  0
  193.8250  174.7600  138.3430 N   0  0  0  0  0  2  0  0  0  0  0  0
  193.2240  175.9050  137.7360 C   0  0  0  0  0  0  0  0  0  0  0  0
  195.7110  173.4830  138.8050 O   0  0  0  0  0  0  0  0  0  0  0  0
  193.9310  176.7300  137.0940 O   0  0  0  0  0  0  0  0  0  0  0  0
  1  2  2  0  0  0  0
  2 12  1  0  0  0  0
  3  2  1  0  0  0  0
  4  6  1  0  0  0  0
  5  8  1  0  0  0  0
  6 14  1  0  0  0  0
  6 13  2  0  0  0  0
  7  8  1  0  0  0  0
  7 13  1  0  0  0  0
  8 15  1  6  0  0  0
  9  7  2  0  0  0  0
 11  9  1  0  0  0  0
 11  5  2  0  0  0  0
 12  4  2  0  0  0  0
 12  9  1  0  0  0  0
 13 10  1  0  0  0  0
 16  3  1  0  0  0  0
 17 21  1  6  0  0  0
 17 19  1  0  0  0  0
 18 17  1  0  0  0  0
 18 19  1  0  0  0  0
 19 16  1  1  0  0  0
 20 22  2  0  0  0  0
 22 21  1  0  0  0  0
 23 24  1  0  0  0  0
 23 26  2  0  0  0  0
 25 22  1  0  0  0  0
 25 24  1  0  0  0  0
 27 25  2  0  0  0  0
M  END
>  <MODEL>
5

>  <REMARK>
 VINA RESULT:      -8.1      2.491      3.478
  Name = 
  5 active torsions:
  status: ('A' for Active; 'I' for Inactive)
    1  A    between atoms: C_1  and  N_11
    2  A    between atoms: C_10  and  C_21
    3  A    between atoms: C_15  and  C_16
    4  A    between atoms: C_18  and  N_22
    5  A    between atoms: C_18  and  C_26
                            x       y       z     vdW  Elec       q    Type
                         _______ _______ _______ _____ _____    ______ ____

>  <TORSDO>
F 5

$$$$
=
 OpenBabel10222420183D

 27 29  0  0  1  0  0  0  0  0999 V2000
  189.8880  178.9920  142.3930 O   0  0  0  0  0  0  0  0  0  0  0  0
  189.7310  177.8150  142.8160 C   0  0  0  0  0  0  0  0  0  0  0  0
  189.9160  176.7100  141.9260 N   0  0  0  0  0  2  0  0  0  0  0  0
  188.0420  177.8830  144.6590 C   0  0  0  0  0  3  0  0  0  0  0  0
  192.0520  176.2960  146.1380 C   0  0  0  0  0  3  0  0  0  0  0  0
  187.6510  177.6770  145.9950 C   0  0  0  0  0  0  0  0  0  0  0  0
  189.8700  176.8870  146.4900 C   0  0  0  0  0  0  0  0  0  0  0  0
  191.0300  176.3490  147.2450 C   0  0  2  0  0  3  0  0  0  0  0  0
  190.2460  177.0860  145.1880 C   0  0  0  0  0  0  0  0  0  0  0  0
  188.2150  176.9540  148.2550 O   0  0  0  0  0  1  0  0  0  0  0  0
  191.5990  176.7130  144.9940 N   0  0  0  0  0  0  0  0  0  0  0  0
  189.3520  177.5890  144.2280 C   0  0  0  0  0  0  0  0  0  0  0  0
  188.5760  177.1700  146.9290 C   0  0  0  0  0  0  0  0  0  0  0  0
  186.2560  178.0000  146.4020 C   0  0  0  0  0  1  0  0  0  0  0  0
  191.4360  177.2740  148.2070 O   0  0  0  0  0  1  0  0  0  0  0  0
  190.3310  176.8740  140.5400 C   0  0  0  0  0  2  0  0  0  0  0  0
  188.7840  178.2080  139.1590 C   0  0  2  0  0  3  0  0  0  0  0  0
  189.5190  177.2620  138.2360 C   0  0  0  0  0  2  0  0  0  0  0  0
  189.1230  176.8060  139.6250 C   0  0  1  0  0  3  0  0  0  0  0  0
  186.6550  178.9210  140.8970 O   0  0  0  0  0  0  0  0  0  0  0  0
  187.3820  178.2590  138.7810 N   0  0  0  0  0  2  0  0  0  0  0  0
  186.3580  178.6260  139.7080 C   0  0  0  0  0  0  0  0  0  0  0  0
  182.9040  179.9900  138.7780 C   0  0  0  0  0  3  0  0  0  0  0  0
  184.2650  179.9050  139.1920 N   0  0  0  0  0  2  0  0  0  0  0  0
  184.9560  178.6570  139.2750 C   0  0  0  0  0  0  0  0  0  0  0  0
  182.3330  181.1090  138.7180 O   0  0  0  0  0  0  0  0  0  0  0  0
  184.3670  177.5830  138.9780 O   0  0  0  0  0  0  0  0  0  0  0  0
  1  2  2  0  0  0  0
  2 12  1  0  0  0  0
  3  2  1  0  0  0  0
  4  6  1  0  0  0  0
  5  8  1  0  0  0  0
  6 14  1  0  0  0  0
  6 13  2  0  0  0  0
  7 13  1  0  0  0  0
  7  8  1  0  0  0  0
  8 15  1  1  0  0  0
  9  7  2  0  0  0  0
 11  9  1  0  0  0  0
 11  5  2  0  0  0  0
 12  4  2  0  0  0  0
 12  9  1  0  0  0  0
 13 10  1  0  0  0  0
 16  3  1  0  0  0  0
 17 21  1  6  0  0  0
 17 19  1  0  0  0  0
 18 17  1  0  0  0  0
 18 19  1  0  0  0  0
 19 16  1  1  0  0  0
 21 22  1  0  0  0  0
 22 20  2  0  0  0  0
 23 24  1  0  0  0  0
 24 25  1  0  0  0  0
 25 22  1  0  0  0  0
 26 23  2  0  0  0  0
 27 25  2  0  0  0  0
M  END
>  <MODEL>
6

>  <REMARK>
 VINA RESULT:      -8.1      3.972      6.170
  Name = 
  5 active torsions:
  status: ('A' for Active; 'I' for Inactive)
    1  A    between atoms: C_1  and  N_11
    2  A    between atoms: C_10  and  C_21
    3  A    between atoms: C_15  and  C_16
    4  A    between atoms: C_18  and  N_22
    5  A    between atoms: C_18  and  C_26
                            x       y       z     vdW  Elec       q    Type
                         _______ _______ _______ _____ _____    ______ ____

>  <TORSDO>
F 5

$$$$
=
 OpenBabel10222420183D

 27 29  0  0  1  0  0  0  0  0999 V2000
  188.4610  175.6240  143.2090 O   0  0  0  0  0  0  0  0  0  0  0  0
  188.4050  176.8840  143.2320 C   0  0  0  0  0  0  0  0  0  0  0  0
  189.5340  177.6520  142.8050 N   0  0  0  0  0  2  0  0  0  0  0  0
  186.8840  177.5980  145.0840 C   0  0  0  0  0  3  0  0  0  0  0  0
  185.2760  178.8960  141.0200 C   0  0  0  0  0  3  0  0  0  0  0  0
  185.7210  178.2290  145.5640 C   0  0  0  0  0  0  0  0  0  0  0  0
  185.1180  178.7720  143.2990 C   0  0  0  0  0  0  0  0  0  0  0  0
  184.3610  179.3150  142.1420 C   0  0  2  0  0  3  0  0  0  0  0  0
  186.2510  178.1600  142.8350 C   0  0  0  0  0  0  0  0  0  0  0  0
  183.6670  179.4610  145.1090 O   0  0  0  0  0  1  0  0  0  0  0  0
  186.3280  178.2490  141.4230 N   0  0  0  0  0  0  0  0  0  0  0  0
  187.1730  177.5530  143.7050 C   0  0  0  0  0  0  0  0  0  0  0  0
  184.8220  178.8280  144.6620 C   0  0  0  0  0  0  0  0  0  0  0  0
  185.4600  178.2530  147.0300 C   0  0  0  0  0  1  0  0  0  0  0  0
  183.1420  178.6460  142.0210 O   0  0  0  0  0  1  0  0  0  0  0  0
  190.7530  177.0450  142.2910 C   0  0  0  0  0  2  0  0  0  0  0  0
  190.7290  176.4930  139.8890 C   0  0  2  0  0  3  0  0  0  0  0  0
  189.7640  177.6380  140.1030 C   0  0  0  0  0  2  0  0  0  0  0  0
  191.0500  177.5740  140.9020 C   0  0  1  0  0  3  0  0  0  0  0  0
  191.3890  174.5100  137.9670 O   0  0  0  0  0  0  0  0  0  0  0  0
  191.4970  176.7300  138.6780 N   0  0  0  0  0  2  0  0  0  0  0  0
  191.7950  175.6840  137.7510 C   0  0  0  0  0  0  0  0  0  0  0  0
  194.7370  176.7090  135.5260 C   0  0  0  0  0  3  0  0  0  0  0  0
  193.9340  176.4130  136.6650 N   0  0  0  0  0  2  0  0  0  0  0  0
  192.5790  175.9760  136.5460 C   0  0  0  0  0  0  0  0  0  0  0  0
  195.9260  177.0920  135.6770 O   0  0  0  0  0  0  0  0  0  0  0  0
  192.0530  175.8390  135.4080 O   0  0  0  0  0  0  0  0  0  0  0  0
  1  2  2  0  0  0  0
  2 12  1  0  0  0  0
  3  2  1  0  0  0  0
  4  6  1  0  0  0  0
  5 11  2  0  0  0  0
  5  8  1  0  0  0  0
  6 14  1  0  0  0  0
  7 13  1  0  0  0  0
  8 15  1  6  0  0  0
  8  7  1  0  0  0  0
  9  7  2  0  0  0  0
  9 12  1  0  0  0  0
 11  9  1  0  0  0  0
 12  4  2  0  0  0  0
 13 10  1  0  0  0  0
 13  6  2  0  0  0  0
 16  3  1  0  0  0  0
 17 21  1  6  0  0  0
 17 18  1  0  0  0  0
 17 19  1  0  0  0  0
 18 19  1  0  0  0  0
 19 16  1  1  0  0  0
 22 20  2  0  0  0  0
 22 21  1  0  0  0  0
 23 26  2  0  0  0  0
 23 24  1  0  0  0  0
 25 24  1  0  0  0  0
 25 22  1  0  0  0  0
 27 25  2  0  0  0  0
M  END
>  <MODEL>
7

>  <REMARK>
 VINA RESULT:      -8.0      1.050      2.601
  Name = 
  5 active torsions:
  status: ('A' for Active; 'I' for Inactive)
    1  A    between atoms: C_1  and  N_11
    2  A    between atoms: C_10  and  C_21
    3  A    between atoms: C_15  and  C_16
    4  A    between atoms: C_18  and  N_22
    5  A    between atoms: C_18  and  C_26
                            x       y       z     vdW  Elec       q    Type
                         _______ _______ _______ _____ _____    ______ ____

>  <TORSDO>
F 5

$$$$
=
 OpenBabel10222420183D

 27 29  0  0  1  0  0  0  0  0999 V2000
  189.0030  178.6120  142.1440 O   0  0  0  0  0  0  0  0  0  0  0  0
  189.6610  177.8070  142.8570 C   0  0  0  0  0  0  0  0  0  0  0  0
  190.7590  177.0890  142.2860 N   0  0  0  0  0  2  0  0  0  0  0  0
  187.9850  177.9300  144.7070 C   0  0  0  0  0  3  0  0  0  0  0  0
  191.9840  176.3230  146.1930 C   0  0  0  0  0  3  0  0  0  0  0  0
  187.5990  177.7540  146.0500 C   0  0  0  0  0  0  0  0  0  0  0  0
  189.8110  176.9470  146.5470 C   0  0  0  0  0  0  0  0  0  0  0  0
  190.9700  176.4090  147.3050 C   0  0  2  0  0  3  0  0  0  0  0  0
  190.1820  177.1170  145.2390 C   0  0  0  0  0  0  0  0  0  0  0  0
  188.1680  177.0670  148.3190 O   0  0  0  0  0  1  0  0  0  0  0  0
  191.5290  176.7240  145.0450 N   0  0  0  0  0  0  0  0  0  0  0  0
  189.2890  177.6120  144.2750 C   0  0  0  0  0  0  0  0  0  0  0  0
  188.5230  177.2540  146.9870 C   0  0  0  0  0  0  0  0  0  0  0  0
  186.2110  178.1020  146.4590 C   0  0  0  0  0  1  0  0  0  0  0  0
  191.3930  177.3470  148.2470 O   0  0  0  0  0  1  0  0  0  0  0  0
  191.1950  177.2750  140.9100 C   0  0  0  0  0  2  0  0  0  0  0  0
  189.8670  177.6620  138.8690 C   0  0  2  0  0  3  0  0  0  0  0  0
  190.8150  176.5170  138.5870 C   0  0  0  0  0  2  0  0  0  0  0  0
  190.1880  176.6580  139.9590 C   0  0  1  0  0  3  0  0  0  0  0  0
  188.3480  179.4160  137.2330 O   0  0  0  0  0  0  0  0  0  0  0  0
  188.5620  177.3560  138.3090 N   0  0  0  0  0  2  0  0  0  0  0  0
  187.8490  178.2880  137.4920 C   0  0  0  0  0  0  0  0  0  0  0  0
  184.1220  177.4230  137.3680 C   0  0  0  0  0  3  0  0  0  0  0  0
  185.4210  177.7690  137.8390 N   0  0  0  0  0  2  0  0  0  0  0  0
  186.5320  177.9310  136.9540 C   0  0  0  0  0  0  0  0  0  0  0  0
  183.1720  177.2900  138.1810 O   0  0  0  0  0  0  0  0  0  0  0  0
  186.3840  177.7690  135.7120 O   0  0  0  0  0  0  0  0  0  0  0  0
  1  2  2  0  0  0  0
  2 12  1  0  0  0  0
  3  2  1  0  0  0  0
  4  6  1  0  0  0  0
  5  8  1  0  0  0  0
  6 14  1  0  0  0  0
  6 13  2  0  0  0  0
  7 13  1  0  0  0  0
  7  8  1  0  0  0  0
  8 15  1  1  0  0  0
  9  7  2  0  0  0  0
 11  9  1  0  0  0  0
 11  5  2  0  0  0  0
 12  4  2  0  0  0  0
 12  9  1  0  0  0  0
 13 10  1  0  0  0  0
 16  3  1  0  0  0  0
 17 21  1  6  0  0  0
 17 19  1  0  0  0  0
 18 17  1  0  0  0  0
 18 19  1  0  0  0  0
 19 16  1  1  0  0  0
 20 22  2  0  0  0  0
 22 21  1  0  0  0  0
 23 24  1  0  0  0  0
 23 26  2  0  0  0  0
 25 22  1  0  0  0  0
 25 24  1  0  0  0  0
 27 25  2  0  0  0  0
M  END
>  <MODEL>
8

>  <REMARK>
 VINA RESULT:      -7.9      3.641      5.357
  Name = 
  5 active torsions:
  status: ('A' for Active; 'I' for Inactive)
    1  A    between atoms: C_1  and  N_11
    2  A    between atoms: C_10  and  C_21
    3  A    between atoms: C_15  and  C_16
    4  A    between atoms: C_18  and  N_22
    5  A    between atoms: C_18  and  C_26
                            x       y       z     vdW  Elec       q    Type
                         _______ _______ _______ _____ _____    ______ ____

>  <TORSDO>
F 5

$$$$
=
 OpenBabel10222420183D

 27 29  0  0  1  0  0  0  0  0999 V2000
  188.6590  175.8800  142.6550 O   0  0  0  0  0  0  0  0  0  0  0  0
  188.3220  177.0950  142.6920 C   0  0  0  0  0  0  0  0  0  0  0  0
  188.7850  177.9900  141.6760 N   0  0  0  0  0  2  0  0  0  0  0  0
  187.8830  177.4690  145.1240 C   0  0  0  0  0  3  0  0  0  0  0  0
  184.4150  178.9530  142.5640 C   0  0  0  0  0  3  0  0  0  0  0  0
  187.0800  177.9240  146.1870 C   0  0  0  0  0  0  0  0  0  0  0  0
  185.4110  178.6050  144.5950 C   0  0  0  0  0  0  0  0  0  0  0  0
  184.1550  179.1670  144.0330 C   0  0  2  0  0  3  0  0  0  0  0  0
  186.1950  178.1630  143.5620 C   0  0  0  0  0  0  0  0  0  0  0  0
  185.0130  178.9640  146.9540 O   0  0  0  0  0  1  0  0  0  0  0  0
  185.5590  178.3900  142.3170 N   0  0  0  0  0  0  0  0  0  0  0  0
  187.4530  177.5820  143.7860 C   0  0  0  0  0  0  0  0  0  0  0  0
  185.8250  178.5030  145.9230 C   0  0  0  0  0  0  0  0  0  0  0  0
  187.5770  177.7850  147.5840 C   0  0  0  0  0  1  0  0  0  0  0  0
  183.0700  178.3840  144.4310 O   0  0  0  0  0  1  0  0  0  0  0  0
  189.6040  177.5550  140.5540 C   0  0  0  0  0  2  0  0  0  0  0  0
  187.9980  178.1420  138.7780 C   0  0  2  0  0  3  0  0  0  0  0  0
  189.2040  177.5140  138.1140 C   0  0  0  0  0  2  0  0  0  0  0  0
  188.7230  176.9960  139.4540 C   0  0  1  0  0  3  0  0  0  0  0  0
  185.4180  179.2870  139.0780 O   0  0  0  0  0  0  0  0  0  0  0  0
  186.7870  177.6390  138.1530 N   0  0  0  0  0  2  0  0  0  0  0  0
  185.5160  178.2640  138.3470 C   0  0  0  0  0  0  0  0  0  0  0  0
  183.3000  176.5620  135.7300 C   0  0  0  0  0  3  0  0  0  0  0  0
  184.4290  177.1120  136.4050 N   0  0  0  0  0  2  0  0  0  0  0  0
  184.3230  177.7130  137.6970 C   0  0  0  0  0  0  0  0  0  0  0  0
  183.4380  176.0430  134.5940 O   0  0  0  0  0  0  0  0  0  0  0  0
  183.2070  177.7710  138.2810 O   0  0  0  0  0  0  0  0  0  0  0  0
  1  2  2  0  0  0  0
  2 12  1  0  0  0  0
  3  2  1  0  0  0  0
  4  6  1  0  0  0  0
  5  8  1  0  0  0  0
  6 14  1  0  0  0  0
  7 13  1  0  0  0  0
  8 15  1  1  0  0  0
  8  7  1  0  0  0  0
  9 12  1  0  0  0  0
  9  7  2  0  0  0  0
 11  5  2  0  0  0  0
 11  9  1  0  0  0  0
 12  4  2  0  0  0  0
 13  6  2  0  0  0  0
 13 10  1  0  0  0  0
 16  3  1  0  0  0  0
 17 21  1  6  0  0  0
 17 19  1  0  0  0  0
 18 17  1  0  0  0  0
 18 19  1  0  0  0  0
 19 16  1  1  0  0  0
 21 22  1  0  0  0  0
 22 20  2  0  0  0  0
 23 24  1  0  0  0  0
 24 25  1  0  0  0  0
 25 27  2  0  0  0  0
 25 22  1  0  0  0  0
 26 23  2  0  0  0  0
M  END
>  <MODEL>
9

>  <REMARK>
 VINA RESULT:      -7.7      3.726      5.630
  Name = 
  5 active torsions:
  status: ('A' for Active; 'I' for Inactive)
    1  A    between atoms: C_1  and  N_11
    2  A    between atoms: C_10  and  C_21
    3  A    between atoms: C_15  and  C_16
    4  A    between atoms: C_18  and  N_22
    5  A    between atoms: C_18  and  C_26
                            x       y       z     vdW  Elec       q    Type
                         _______ _______ _______ _____ _____    ______ ____

>  <TORSDO>
F 5

$$$$
