=
 OpenBabel10222421213D

 39 43  0  0  1  0  0  0  0  0999 V2000
  187.3640  178.0420  137.6930 C   0  0  0  0  0  3  0  0  0  0  0  0
  187.6730  178.1680  140.1410 C   0  0  0  0  0  3  0  0  0  0  0  0
  188.6890  177.3320  137.4870 C   0  0  0  0  0  3  0  0  0  0  0  0
  189.8100  177.2070  141.0820 C   0  0  0  0  0  0  0  0  0  0  0  0
  190.8530  176.6210  140.4920 C   0  0  0  0  0  2  0  0  0  0  0  0
  188.8520  177.5610  140.0470 C   0  0  0  0  0  0  0  0  0  0  0  0
  186.9050  178.4180  138.9010 C   0  0  0  0  0  3  0  0  0  0  0  0
  189.4130  177.1340  138.7910 C   0  0  0  0  0  0  0  0  0  0  0  0
  190.5990  176.5720  139.0340 C   0  0  0  0  0  0  0  0  0  0  0  0
  192.7990  176.5510  137.8610 C   0  0  0  0  0  3  0  0  0  0  0  0
  193.6950  176.0080  136.9360 C   0  0  0  0  0  3  0  0  0  0  0  0
  191.5300  175.9820  138.0450 C   0  0  0  0  0  0  0  0  0  0  0  0
  193.3330  174.8820  136.1900 C   0  0  0  0  0  0  0  0  0  0  0  0
  192.0700  174.3100  136.3620 C   0  0  0  0  0  3  0  0  0  0  0  0
  191.1750  174.8570  137.2860 C   0  0  0  0  0  3  0  0  0  0  0  0
  194.2800  174.3070  135.1960 C   0  0  0  0  0  2  0  0  0  0  0  0
  195.5510  175.0110  135.2610 N   0  0  0  0  0  2  0  0  0  0  0  0
  196.5660  174.0110  135.5500 C   0  0  0  0  0  2  0  0  0  0  0  0
  197.6740  174.5950  136.4220 C   0  0  1  0  0  3  0  0  0  0  0  0
  197.4740  175.9700  136.5750 O   0  0  0  0  0  1  0  0  0  0  0  0
  196.3640  173.3610  138.1840 C   0  0  0  0  0  3  0  0  0  0  0  0
  197.7470  173.9030  137.7860 C   0  0  2  0  0  3  0  0  0  0  0  0
  199.0240  175.5560  139.0160 O   0  0  0  0  0  0  0  0  0  0  0  0
  197.9740  174.8800  138.8580 C   0  0  0  0  0  0  0  0  0  0  0  0
  195.8740  174.1010  139.3600 N   0  0  0  0  0  0  0  0  0  0  0  0
  196.8990  174.9540  139.7020 O   0  0  0  0  0  0  0  0  0  0  0  0
  189.1490  177.3350  144.7370 C   0  0  0  0  0  0  0  0  0  0  0  0
  189.6730  177.4430  142.5280 C   0  0  0  0  0  0  0  0  0  0  0  0
  188.9190  176.6520  143.4830 C   0  0  0  0  0  0  0  0  0  0  0  0
  189.9040  178.3630  144.5220 N   0  0  0  0  0  0  0  0  0  0  0  0
  190.2330  178.4270  143.1550 N   0  0  0  0  0  0  0  0  0  0  0  0
  188.2290  175.6190  143.2750 O   0  0  0  0  0  0  0  0  0  0  0  0
  188.5810  176.9890  146.0730 C   0  0  0  0  0  2  0  0  0  0  0  0
  186.6060  178.2740  145.4870 C   0  0  0  0  0  3  0  0  0  0  0  0
  187.4720  177.9240  146.4500 C   0  0  0  0  0  0  0  0  0  0  0  0
  184.2050  178.8960  145.1070 C   0  0  0  0  0  1  0  0  0  0  0  0
  185.5130  179.1490  145.6020 O   0  0  0  0  0  0  0  0  0  0  0  0
  187.3610  178.4100  147.8380 C   0  0  0  0  0  3  0  0  0  0  0  0
  188.3470  178.2980  148.7210 C   0  0  0  0  0  2  0  0  0  0  0  0
  1  7  1  0  0  0  0
  3  1  2  0  0  0  0
  3  8  1  0  0  0  0
  4 28  1  0  0  0  0
  5  4  1  0  0  0  0
  6  2  1  0  0  0  0
  6  4  2  0  0  0  0
  7  2  2  0  0  0  0
  8  9  2  0  0  0  0
  8  6  1  0  0  0  0
  9  5  1  0  0  0  0
 10 12  1  0  0  0  0
 11 10  2  0  0  0  0
 12  9  1  0  0  0  0
 13 14  2  0  0  0  0
 13 11  1  0  0  0  0
 14 15  1  0  0  0  0
 15 12  2  0  0  0  0
 16 17  1  0  0  0  0
 16 13  1  0  0  0  0
 17 18  1  0  0  0  0
 18 19  1  0  0  0  0
 19 20  1  1  0  0  0
 21 25  2  0  0  0  0
 22 19  1  6  0  0  0
 22 21  1  0  0  0  0
 22 24  1  0  0  0  0
 24 23  2  0  0  0  0
 24 26  1  0  0  0  0
 25 26  1  0  0  0  0
 27 33  1  0  0  0  0
 28 31  2  0  0  0  0
 28 29  1  0  0  0  0
 29 27  1  0  0  0  0
 30 27  2  0  0  0  0
 31 30  1  0  0  0  0
 32 29  2  0  0  0  0
 33 35  1  0  0  0  0
 34 37  1  0  0  0  0
 34 35  2  0  0  0  0
 35 38  1  0  0  0  0
 36 37  1  0  0  0  0
 38 39  2  0  0  0  0
M  END
>  <MODEL>
1

>  <REMARK>
 VINA RESULT:      -8.6      0.000      0.000
  Name = 
  11 active torsions:
  status: ('A' for Active; 'I' for Inactive)
    1  A    between atoms: C_2  and  C_4
    2  A    between atoms: C_2  and  C_35
    3  A    between atoms: C_5  and  C_22
    4  A    between atoms: C_10  and  C_35
    5  A    between atoms: C_11  and  O_30
    6  A    between atoms: C_12  and  C_22
    7  A    between atoms: C_12  and  N_39
    8  A    between atoms: C_13  and  C_38
    9  A    between atoms: C_15  and  C_23
   10  A    between atoms: C_16  and  C_25
   11  A    between atoms: C_23  and  N_39
                            x       y       z     vdW  Elec       q    Type
                         _______ _______ _______ _____ _____    ______ ____

>  <TORSDO>
F 11

$$$$
=
 OpenBabel10222421213D

 39 43  0  0  1  0  0  0  0  0999 V2000
  181.0210  178.9390  144.0240 C   0  0  0  0  0  3  0  0  0  0  0  0
  181.8360  178.7970  141.6960 C   0  0  0  0  0  3  0  0  0  0  0  0
  182.4120  178.7580  144.6020 C   0  0  0  0  0  2  0  0  0  0  0  0
  184.3120  178.4260  141.3660 C   0  0  0  0  0  0  0  0  0  0  0  0
  185.3110  178.2820  142.2380 C   0  0  0  0  0  3  0  0  0  0  0  0
  183.0850  178.6210  142.1200 C   0  0  0  0  0  0  0  0  0  0  0  0
  180.7640  178.9580  142.7030 C   0  0  0  0  0  3  0  0  0  0  0  0
  183.4380  178.5830  143.5160 C   0  0  0  0  0  0  0  0  0  0  0  0
  184.7540  178.3840  143.6070 C   0  0  0  0  0  0  0  0  0  0  0  0
  186.4930  177.2440  144.9830 C   0  0  0  0  0  3  0  0  0  0  0  0
  187.2680  177.1330  146.1410 C   0  0  0  0  0  3  0  0  0  0  0  0
  185.5620  178.2850  144.8440 C   0  0  0  0  0  0  0  0  0  0  0  0
  187.1260  178.0690  147.1700 C   0  0  0  0  0  0  0  0  0  0  0  0
  186.1980  179.1060  147.0440 C   0  0  0  0  0  3  0  0  0  0  0  0
  185.4220  179.2130  145.8870 C   0  0  0  0  0  3  0  0  0  0  0  0
  187.9420  177.9480  148.4090 C   0  0  0  0  0  2  0  0  0  0  0  0
  189.3310  178.2640  148.1180 N   0  0  0  0  0  2  0  0  0  0  0  0
  189.8810  177.1150  147.4180 C   0  0  0  0  0  2  0  0  0  0  0  0
  190.9420  177.5470  146.4100 C   0  0  1  0  0  3  0  0  0  0  0  0
  192.0460  176.6940  146.4960 O   0  0  0  0  0  1  0  0  0  0  0  0
  190.7090  176.2570  144.2610 C   0  0  0  0  0  3  0  0  0  0  0  0
  190.3900  177.5760  144.9810 C   0  0  2  0  0  3  0  0  0  0  0  0
  191.1400  179.7780  144.2970 O   0  0  0  0  0  0  0  0  0  0  0  0
  191.1380  178.5270  144.1500 C   0  0  0  0  0  0  0  0  0  0  0  0
  191.6540  176.5220  143.1610 N   0  0  0  0  0  0  0  0  0  0  0  0
  191.8270  177.8880  143.1550 O   0  0  0  0  0  0  0  0  0  0  0  0
  184.3090  177.9000  137.6870 C   0  0  0  0  0  0  0  0  0  0  0  0
  184.4510  178.3920  139.9010 C   0  0  0  0  0  0  0  0  0  0  0  0
  183.8350  177.4550  138.9790 C   0  0  0  0  0  0  0  0  0  0  0  0
  185.0860  178.9200  137.8540 N   0  0  0  0  0  0  0  0  0  0  0  0
  185.1700  179.2290  139.2240 N   0  0  0  0  0  0  0  0  0  0  0  0
  183.0720  176.4870  139.2370 O   0  0  0  0  0  0  0  0  0  0  0  0
  184.0300  177.2800  136.3590 C   0  0  0  0  0  2  0  0  0  0  0  0
  185.3070  175.2170  136.4540 C   0  0  0  0  0  3  0  0  0  0  0  0
  185.1790  176.4320  135.9020 C   0  0  0  0  0  0  0  0  0  0  0  0
  186.0880  172.8960  135.9030 C   0  0  0  0  0  1  0  0  0  0  0  0
  186.3120  174.2680  136.2010 O   0  0  0  0  0  0  0  0  0  0  0  0
  186.1060  176.9430  134.8750 C   0  0  0  0  0  3  0  0  0  0  0  0
  187.1500  177.7120  135.1670 C   0  0  0  0  0  2  0  0  0  0  0  0
  1  3  1  0  0  0  0
  2  6  2  0  0  0  0
  2  7  1  0  0  0  0
  4  6  1  0  0  0  0
  4  5  2  0  0  0  0
  5  9  1  0  0  0  0
  6  8  1  0  0  0  0
  7  1  2  0  0  0  0
  8  9  2  0  0  0  0
  8  3  1  0  0  0  0
  9 12  1  0  0  0  0
 10 11  1  0  0  0  0
 11 13  2  0  0  0  0
 12 10  2  0  0  0  0
 12 15  1  0  0  0  0
 13 16  1  0  0  0  0
 14 13  1  0  0  0  0
 15 14  2  0  0  0  0
 17 16  1  0  0  0  0
 18 17  1  0  0  0  0
 19 20  1  6  0  0  0
 19 18  1  0  0  0  0
 21 22  1  0  0  0  0
 22 19  1  1  0  0  0
 24 23  2  0  0  0  0
 24 22  1  0  0  0  0
 25 21  2  0  0  0  0
 26 25  1  0  0  0  0
 26 24  1  0  0  0  0
 27 30  2  0  0  0  0
 27 29  1  0  0  0  0
 28  4  1  0  0  0  0
 29 32  2  0  0  0  0
 29 28  1  0  0  0  0
 30 31  1  0  0  0  0
 31 28  2  0  0  0  0
 33 27  1  0  0  0  0
 35 33  1  0  0  0  0
 35 34  2  0  0  0  0
 36 37  1  0  0  0  0
 37 34  1  0  0  0  0
 38 39  2  0  0  0  0
 38 35  1  0  0  0  0
M  END
>  <MODEL>
2

>  <REMARK>
 VINA RESULT:      -8.4      5.755      9.983
  Name = 
  11 active torsions:
  status: ('A' for Active; 'I' for Inactive)
    1  A    between atoms: C_2  and  C_4
    2  A    between atoms: C_2  and  C_35
    3  A    between atoms: C_5  and  C_22
    4  A    between atoms: C_10  and  C_35
    5  A    between atoms: C_11  and  O_30
    6  A    between atoms: C_12  and  C_22
    7  A    between atoms: C_12  and  N_39
    8  A    between atoms: C_13  and  C_38
    9  A    between atoms: C_15  and  C_23
   10  A    between atoms: C_16  and  C_25
   11  A    between atoms: C_23  and  N_39
                            x       y       z     vdW  Elec       q    Type
                         _______ _______ _______ _____ _____    ______ ____

>  <TORSDO>
F 11

$$$$
=
 OpenBabel10222421213D

 39 43  0  0  1  0  0  0  0  0999 V2000
  191.3180  176.7730  145.4590 C   0  0  0  0  0  3  0  0  0  0  0  0
  188.9460  177.4450  145.6120 C   0  0  0  0  0  3  0  0  0  0  0  0
  191.3040  176.7910  143.9420 C   0  0  0  0  0  3  0  0  0  0  0  0
  187.7050  177.7860  143.4390 C   0  0  0  0  0  0  0  0  0  0  0  0
  188.0940  177.6670  142.1690 C   0  0  0  0  0  3  0  0  0  0  0  0
  188.8440  177.4730  144.2860 C   0  0  2  0  0  3  0  0  0  0  0  0
  190.2450  177.0730  146.2140 C   0  0  0  0  0  3  0  0  0  0  0  0
  189.9450  177.1600  143.4120 C   0  0  0  0  0  0  0  0  0  0  0  0
  189.5200  177.2700  142.1520 C   0  0  0  0  0  0  0  0  0  0  0  0
  189.7040  176.4440  139.8060 C   0  0  0  0  0  3  0  0  0  0  0  0
  190.4290  176.2310  138.6300 C   0  0  0  0  0  3  0  0  0  0  0  0
  190.3090  177.0510  140.9170 C   0  0  0  0  0  0  0  0  0  0  0  0
  191.7660  176.6310  138.5500 C   0  0  0  0  0  0  0  0  0  0  0  0
  192.3800  177.2320  139.6530 C   0  0  0  0  0  3  0  0  0  0  0  0
  191.6540  177.4410  140.8290 C   0  0  0  0  0  3  0  0  0  0  0  0
  192.5450  176.3950  137.3040 C   0  0  0  0  0  2  0  0  0  0  0  0
  193.9650  176.3390  137.6130 N   0  0  0  0  0  2  0  0  0  0  0  0
  194.3230  174.9310  137.6650 C   0  0  0  0  0  2  0  0  0  0  0  0
  195.6550  174.6810  136.9640 C   0  0  1  0  0  3  0  0  0  0  0  0
  196.1270  175.8760  136.4150 O   0  0  0  0  0  1  0  0  0  0  0  0
  196.3370  174.4060  139.3730 C   0  0  0  0  0  3  0  0  0  0  0  0
  196.6920  174.0740  137.9140 C   0  0  2  0  0  3  0  0  0  0  0  0
  198.7270  174.7280  136.7710 O   0  0  0  0  0  0  0  0  0  0  0  0
  197.9840  174.7600  137.7870 C   0  0  0  0  0  0  0  0  0  0  0  0
  197.3670  175.3000  139.9310 N   0  0  0  0  0  0  0  0  0  0  0  0
  198.3090  175.4300  138.9350 O   0  0  0  0  0  0  0  0  0  0  0  0
  184.2630  179.0370  144.0730 C   0  0  0  0  0  0  0  0  0  0  0  0
  186.3550  178.1690  143.8830 C   0  0  0  0  0  0  0  0  0  0  0  0
  185.4070  179.0210  143.1880 C   0  0  0  0  0  0  0  0  0  0  0  0
  184.5290  178.3180  145.1160 N   0  0  0  0  0  0  0  0  0  0  0  0
  185.8220  177.7760  144.9950 N   0  0  0  0  0  0  0  0  0  0  0  0
  185.5430  179.6060  142.0820 O   0  0  0  0  0  0  0  0  0  0  0  0
  182.9890  179.7920  143.8910 C   0  0  0  0  0  2  0  0  0  0  0  0
  182.1060  178.7010  141.9100 C   0  0  0  0  0  3  0  0  0  0  0  0
  181.9490  178.9490  143.2190 C   0  0  0  0  0  0  0  0  0  0  0  0
  180.3640  178.5180  140.1120 C   0  0  0  0  0  1  0  0  0  0  0  0
  181.2520  177.9630  141.0740 O   0  0  0  0  0  0  0  0  0  0  0  0
  180.8160  178.4190  144.0000 C   0  0  0  0  0  3  0  0  0  0  0  0
  179.5870  178.9160  143.9130 C   0  0  0  0  0  2  0  0  0  0  0  0
  1  7  1  0  0  0  0
  2  7  2  0  0  0  0
  3  1  2  0  0  0  0
  4 28  1  0  0  0  0
  4  6  1  0  0  0  0
  5  4  2  0  0  0  0
  6  2  1  1  0  0  0
  8  3  1  0  0  0  0
  8  6  1  0  0  0  0
  9  5  1  0  0  0  0
  9  8  2  0  0  0  0
 10 12  1  0  0  0  0
 11 10  2  0  0  0  0
 12  9  1  0  0  0  0
 13 11  1  0  0  0  0
 13 14  2  0  0  0  0
 14 15  1  0  0  0  0
 15 12  2  0  0  0  0
 16 17  1  0  0  0  0
 16 13  1  0  0  0  0
 17 18  1  0  0  0  0
 19 20  1  1  0  0  0
 19 18  1  0  0  0  0
 21 25  2  0  0  0  0
 22 19  1  6  0  0  0
 22 21  1  0  0  0  0
 23 24  2  0  0  0  0
 24 22  1  0  0  0  0
 24 26  1  0  0  0  0
 26 25  1  0  0  0  0
 27 30  2  0  0  0  0
 28 31  2  0  0  0  0
 29 28  1  0  0  0  0
 29 27  1  0  0  0  0
 31 30  1  0  0  0  0
 32 29  2  0  0  0  0
 33 27  1  0  0  0  0
 34 35  2  0  0  0  0
 35 33  1  0  0  0  0
 35 38  1  0  0  0  0
 36 37  1  0  0  0  0
 37 34  1  0  0  0  0
 39 38  2  0  0  0  0
M  END
>  <MODEL>
3

>  <REMARK>
 VINA RESULT:      -8.3      2.622      4.893
  Name = 
  11 active torsions:
  status: ('A' for Active; 'I' for Inactive)
    1  A    between atoms: C_2  and  C_4
    2  A    between atoms: C_2  and  C_35
    3  A    between atoms: C_5  and  C_22
    4  A    between atoms: C_10  and  C_35
    5  A    between atoms: C_11  and  O_30
    6  A    between atoms: C_12  and  C_22
    7  A    between atoms: C_12  and  N_39
    8  A    between atoms: C_13  and  C_38
    9  A    between atoms: C_15  and  C_23
   10  A    between atoms: C_16  and  C_25
   11  A    between atoms: C_23  and  N_39
                            x       y       z     vdW  Elec       q    Type
                         _______ _______ _______ _____ _____    ______ ____

>  <TORSDO>
F 11

$$$$
=
 OpenBabel10222421213D

 39 43  0  0  1  0  0  0  0  0999 V2000
  187.3560  177.8070  137.4300 C   0  0  0  0  0  3  0  0  0  0  0  0
  187.6420  178.1210  139.8640 C   0  0  0  0  0  3  0  0  0  0  0  0
  188.6860  177.0910  137.2910 C   0  0  0  0  0  3  0  0  0  0  0  0
  189.7750  177.2450  140.8940 C   0  0  0  0  0  0  0  0  0  0  0  0
  190.8260  176.6220  140.3600 C   0  0  0  0  0  2  0  0  0  0  0  0
  188.8250  177.5150  139.8270 C   0  0  0  0  0  0  0  0  0  0  0  0
  186.8840  178.2720  138.6030 C   0  0  0  0  0  3  0  0  0  0  0  0
  189.3990  176.9960  138.6120 C   0  0  0  0  0  0  0  0  0  0  0  0
  190.5860  176.4610  138.9070 C   0  0  0  0  0  0  0  0  0  0  0  0
  192.6240  176.5210  137.4730 C   0  0  0  0  0  3  0  0  0  0  0  0
  193.5290  175.9180  136.5940 C   0  0  0  0  0  3  0  0  0  0  0  0
  191.5290  175.8020  137.9750 C   0  0  0  0  0  0  0  0  0  0  0  0
  193.3510  174.5840  136.2140 C   0  0  0  0  0  0  0  0  0  0  0  0
  192.2600  173.8610  136.7040 C   0  0  0  0  0  3  0  0  0  0  0  0
  191.3550  174.4670  137.5800 C   0  0  0  0  0  3  0  0  0  0  0  0
  194.3050  173.9420  135.2700 C   0  0  0  0  0  2  0  0  0  0  0  0
  194.7140  172.6460  135.7880 N   0  0  0  0  0  2  0  0  0  0  0  0
  196.1530  172.5580  135.5960 C   0  0  0  0  0  2  0  0  0  0  0  0
  196.8950  172.8200  136.9030 C   0  0  1  0  0  3  0  0  0  0  0  0
  198.2190  172.3890  136.7850 O   0  0  0  0  0  1  0  0  0  0  0  0
  198.2610  174.8770  137.3950 C   0  0  0  0  0  3  0  0  0  0  0  0
  196.8400  174.2990  137.3000 C   0  0  2  0  0  3  0  0  0  0  0  0
  195.2390  174.1760  139.1160 O   0  0  0  0  0  0  0  0  0  0  0  0
  196.3910  174.4520  138.6890 C   0  0  0  0  0  0  0  0  0  0  0  0
  198.5490  175.2260  138.7980 N   0  0  0  0  0  0  0  0  0  0  0  0
  197.3820  174.9670  139.4800 O   0  0  0  0  0  0  0  0  0  0  0  0
  189.0480  177.6690  144.5140 C   0  0  0  0  0  0  0  0  0  0  0  0
  189.6240  177.5890  142.3170 C   0  0  0  0  0  0  0  0  0  0  0  0
  188.8000  176.9170  143.3050 C   0  0  0  0  0  0  0  0  0  0  0  0
  189.8730  178.6290  144.2490 N   0  0  0  0  0  0  0  0  0  0  0  0
  190.2340  178.5770  142.8900 N   0  0  0  0  0  0  0  0  0  0  0  0
  188.0480  175.9180  143.1500 O   0  0  0  0  0  0  0  0  0  0  0  0
  188.4310  177.4540  145.8560 C   0  0  0  0  0  2  0  0  0  0  0  0
  190.6320  176.9080  146.7240 C   0  0  0  0  0  3  0  0  0  0  0  0
  189.4600  177.5220  146.9440 C   0  0  0  0  0  0  0  0  0  0  0  0
  192.4360  175.6280  147.9100 C   0  0  0  0  0  1  0  0  0  0  0  0
  191.7260  176.8200  147.6020 O   0  0  0  0  0  0  0  0  0  0  0  0
  189.1650  178.2540  148.1890 C   0  0  0  0  0  3  0  0  0  0  0  0
  188.1090  177.9840  148.9500 C   0  0  0  0  0  2  0  0  0  0  0  0
  1  7  1  0  0  0  0
  3  1  2  0  0  0  0
  3  8  1  0  0  0  0
  4 28  1  0  0  0  0
  5  4  1  0  0  0  0
  6  2  1  0  0  0  0
  6  4  2  0  0  0  0
  7  2  2  0  0  0  0
  8  9  2  0  0  0  0
  8  6  1  0  0  0  0
  9  5  1  0  0  0  0
 10 12  1  0  0  0  0
 11 10  2  0  0  0  0
 12  9  1  0  0  0  0
 13 11  1  0  0  0  0
 13 14  2  0  0  0  0
 14 15  1  0  0  0  0
 15 12  2  0  0  0  0
 16 17  1  0  0  0  0
 16 13  1  0  0  0  0
 18 17  1  0  0  0  0
 18 19  1  0  0  0  0
 19 20  1  6  0  0  0
 21 25  2  0  0  0  0
 22 19  1  1  0  0  0
 22 21  1  0  0  0  0
 22 24  1  0  0  0  0
 24 23  2  0  0  0  0
 24 26  1  0  0  0  0
 25 26  1  0  0  0  0
 27 33  1  0  0  0  0
 28 31  2  0  0  0  0
 28 29  1  0  0  0  0
 29 27  1  0  0  0  0
 30 27  2  0  0  0  0
 31 30  1  0  0  0  0
 32 29  2  0  0  0  0
 33 35  1  0  0  0  0
 34 35  2  0  0  0  0
 34 37  1  0  0  0  0
 35 38  1  0  0  0  0
 37 36  1  0  0  0  0
 38 39  2  0  0  0  0
M  END
>  <MODEL>
4

>  <REMARK>
 VINA RESULT:      -8.1      1.634      2.411
  Name = 
  11 active torsions:
  status: ('A' for Active; 'I' for Inactive)
    1  A    between atoms: C_2  and  C_4
    2  A    between atoms: C_2  and  C_35
    3  A    between atoms: C_5  and  C_22
    4  A    between atoms: C_10  and  C_35
    5  A    between atoms: C_11  and  O_30
    6  A    between atoms: C_12  and  C_22
    7  A    between atoms: C_12  and  N_39
    8  A    between atoms: C_13  and  C_38
    9  A    between atoms: C_15  and  C_23
   10  A    between atoms: C_16  and  C_25
   11  A    between atoms: C_23  and  N_39
                            x       y       z     vdW  Elec       q    Type
                         _______ _______ _______ _____ _____    ______ ____

>  <TORSDO>
F 11

$$$$
=
 OpenBabel10222421213D

 39 43  0  0  1  0  0  0  0  0999 V2000
  188.0950  177.4470  146.8050 C   0  0  0  0  0  3  0  0  0  0  0  0
  189.5530  177.2660  144.8190 C   0  0  0  0  0  3  0  0  0  0  0  0
  186.8700  177.7630  145.9680 C   0  0  0  0  0  3  0  0  0  0  0  0
  188.4850  177.6710  142.5670 C   0  0  0  0  0  0  0  0  0  0  0  0
  187.2350  177.9810  142.2220 C   0  0  0  0  0  3  0  0  0  0  0  0
  188.5330  177.5490  144.0140 C   0  0  2  0  0  3  0  0  0  0  0  0
  189.3130  177.2200  146.2780 C   0  0  0  0  0  3  0  0  0  0  0  0
  187.2030  177.8090  144.5030 C   0  0  0  0  0  0  0  0  0  0  0  0
  186.4180  178.0670  143.4540 C   0  0  0  0  0  0  0  0  0  0  0  0
  184.3620  178.7700  144.6770 C   0  0  0  0  0  3  0  0  0  0  0  0
  182.9980  179.0740  144.7180 C   0  0  0  0  0  3  0  0  0  0  0  0
  184.9710  178.3810  143.4740 C   0  0  0  0  0  0  0  0  0  0  0  0
  182.2300  179.0000  143.5520 C   0  0  0  0  0  0  0  0  0  0  0  0
  182.8250  178.6080  142.3500 C   0  0  0  0  0  3  0  0  0  0  0  0
  184.1880  178.3020  142.3130 C   0  0  0  0  0  3  0  0  0  0  0  0
  180.7750  179.3110  143.5940 C   0  0  0  0  0  2  0  0  0  0  0  0
  180.4280  180.1920  142.4900 N   0  0  0  0  0  2  0  0  0  0  0  0
  179.2960  179.5820  141.8120 C   0  0  0  0  0  2  0  0  0  0  0  0
  179.4780  179.6270  140.2970 C   0  0  1  0  0  3  0  0  0  0  0  0
  180.7520  180.1160  139.9930 O   0  0  0  0  0  1  0  0  0  0  0  0
  179.9130  177.1560  140.5120 C   0  0  0  0  0  3  0  0  0  0  0  0
  179.2580  178.2540  139.6570 C   0  0  2  0  0  3  0  0  0  0  0  0
  179.8190  178.7790  137.3580 O   0  0  0  0  0  0  0  0  0  0  0  0
  180.0280  178.1250  138.4140 C   0  0  0  0  0  0  0  0  0  0  0  0
  181.0300  176.5590  139.7590 N   0  0  0  0  0  0  0  0  0  0  0  0
  181.0040  177.1720  138.5270 O   0  0  0  0  0  0  0  0  0  0  0  0
  190.9260  177.2710  139.7930 C   0  0  0  0  0  0  0  0  0  0  0  0
  189.6050  177.4900  141.6290 C   0  0  0  0  0  0  0  0  0  0  0  0
  189.5470  177.4670  140.1790 C   0  0  0  0  0  0  0  0  0  0  0  0
  191.6520  177.1810  140.8600 N   0  0  0  0  0  0  0  0  0  0  0  0
  190.8350  177.3220  141.9970 N   0  0  0  0  0  0  0  0  0  0  0  0
  188.5390  177.5870  139.4330 O   0  0  0  0  0  0  0  0  0  0  0  0
  191.4670  177.1250  138.4090 C   0  0  0  0  0  2  0  0  0  0  0  0
  190.3960  175.0700  137.6840 C   0  0  0  0  0  3  0  0  0  0  0  0
  191.5440  175.6840  138.0050 C   0  0  0  0  0  0  0  0  0  0  0  0
  190.1740  173.2570  135.9640 C   0  0  0  0  0  1  0  0  0  0  0  0
  190.2240  173.7290  137.3030 O   0  0  0  0  0  0  0  0  0  0  0  0
  192.8510  175.0020  137.9630 C   0  0  0  0  0  3  0  0  0  0  0  0
  193.5260  174.8100  136.8340 C   0  0  0  0  0  2  0  0  0  0  0  0
  2  7  2  0  0  0  0
  3  1  2  0  0  0  0
  4  6  1  0  0  0  0
  5  4  2  0  0  0  0
  5  9  1  0  0  0  0
  6  8  1  0  0  0  0
  6  2  1  1  0  0  0
  7  1  1  0  0  0  0
  8  3  1  0  0  0  0
  9 12  1  0  0  0  0
  9  8  2  0  0  0  0
 10 11  1  0  0  0  0
 12 10  2  0  0  0  0
 13 16  1  0  0  0  0
 13 11  2  0  0  0  0
 14 13  1  0  0  0  0
 15 14  2  0  0  0  0
 15 12  1  0  0  0  0
 17 16  1  0  0  0  0
 18 17  1  0  0  0  0
 19 20  1  1  0  0  0
 19 18  1  0  0  0  0
 22 19  1  1  0  0  0
 22 21  1  0  0  0  0
 23 24  2  0  0  0  0
 24 26  1  0  0  0  0
 24 22  1  0  0  0  0
 25 21  2  0  0  0  0
 26 25  1  0  0  0  0
 27 29  1  0  0  0  0
 27 30  2  0  0  0  0
 28 31  2  0  0  0  0
 28  4  1  0  0  0  0
 29 28  1  0  0  0  0
 30 31  1  0  0  0  0
 32 29  2  0  0  0  0
 33 27  1  0  0  0  0
 34 35  2  0  0  0  0
 35 33  1  0  0  0  0
 36 37  1  0  0  0  0
 37 34  1  0  0  0  0
 38 35  1  0  0  0  0
 39 38  2  0  0  0  0
M  END
>  <MODEL>
5

>  <REMARK>
 VINA RESULT:      -8.1      4.521     11.954
  Name = 
  11 active torsions:
  status: ('A' for Active; 'I' for Inactive)
    1  A    between atoms: C_2  and  C_4
    2  A    between atoms: C_2  and  C_35
    3  A    between atoms: C_5  and  C_22
    4  A    between atoms: C_10  and  C_35
    5  A    between atoms: C_11  and  O_30
    6  A    between atoms: C_12  and  C_22
    7  A    between atoms: C_12  and  N_39
    8  A    between atoms: C_13  and  C_38
    9  A    between atoms: C_15  and  C_23
   10  A    between atoms: C_16  and  C_25
   11  A    between atoms: C_23  and  N_39
                            x       y       z     vdW  Elec       q    Type
                         _______ _______ _______ _____ _____    ______ ____

>  <TORSDO>
F 11

$$$$
=
 OpenBabel10222421213D

 39 43  0  0  1  0  0  0  0  0999 V2000
  187.9720  177.7250  146.7610 C   0  0  0  0  0  3  0  0  0  0  0  0
  185.6820  178.1920  145.9590 C   0  0  0  0  0  3  0  0  0  0  0  0
  188.5310  177.6570  145.3520 C   0  0  0  0  0  3  0  0  0  0  0  0
  185.3380  178.2990  143.4600 C   0  0  0  0  0  0  0  0  0  0  0  0
  186.1850  178.1440  142.4410 C   0  0  0  0  0  3  0  0  0  0  0  0
  186.0880  178.1370  144.6940 C   0  0  2  0  0  3  0  0  0  0  0  0
  186.6760  177.9710  147.0320 C   0  0  0  0  0  3  0  0  0  0  0  0
  187.4550  177.8740  144.3240 C   0  0  0  0  0  0  0  0  0  0  0  0
  187.5330  177.8750  142.9920 C   0  0  0  0  0  0  0  0  0  0  0  0
  188.6570  177.7710  140.7690 C   0  0  0  0  0  3  0  0  0  0  0  0
  189.7870  177.5740  139.9690 C   0  0  0  0  0  3  0  0  0  0  0  0
  188.7420  177.6580  142.1640 C   0  0  0  0  0  0  0  0  0  0  0  0
  191.0170  177.2690  140.5590 C   0  0  0  0  0  0  0  0  0  0  0  0
  191.1120  177.1480  141.9480 C   0  0  0  0  0  3  0  0  0  0  0  0
  189.9800  177.3430  142.7450 C   0  0  0  0  0  3  0  0  0  0  0  0
  192.2190  177.0470  139.7110 C   0  0  0  0  0  2  0  0  0  0  0  0
  191.8110  176.7340  138.3500 N   0  0  0  0  0  2  0  0  0  0  0  0
  193.0140  176.3330  137.6380 C   0  0  0  0  0  2  0  0  0  0  0  0
  193.2090  174.8210  137.7060 C   0  0  1  0  0  3  0  0  0  0  0  0
  192.4180  174.2020  136.7340 O   0  0  0  0  0  1  0  0  0  0  0  0
  194.7910  172.9840  137.0250 C   0  0  0  0  0  3  0  0  0  0  0  0
  194.6800  174.4300  137.5370 C   0  0  2  0  0  3  0  0  0  0  0  0
  195.5690  175.2600  139.6340 O   0  0  0  0  0  0  0  0  0  0  0  0
  195.3430  174.3080  138.8400 C   0  0  0  0  0  0  0  0  0  0  0  0
  195.4070  172.1470  138.0700 N   0  0  0  0  0  0  0  0  0  0  0  0
  195.7230  173.0170  139.0890 O   0  0  0  0  0  0  0  0  0  0  0  0
  181.8060  179.0590  142.5860 C   0  0  0  0  0  0  0  0  0  0  0  0
  183.9000  178.5860  143.3330 C   0  0  0  0  0  0  0  0  0  0  0  0
  183.1610  178.8710  142.1170 C   0  0  0  0  0  0  0  0  0  0  0  0
  181.7840  178.9170  143.8720 N   0  0  0  0  0  0  0  0  0  0  0  0
  183.0790  178.6180  144.3340 N   0  0  0  0  0  0  0  0  0  0  0  0
  183.5920  178.9410  140.9350 O   0  0  0  0  0  0  0  0  0  0  0  0
  180.6090  179.4200  141.7720 C   0  0  0  0  0  2  0  0  0  0  0  0
  179.4710  177.2800  141.6320 C   0  0  0  0  0  3  0  0  0  0  0  0
  180.1220  178.2500  140.9730 C   0  0  0  0  0  0  0  0  0  0  0  0
  179.6660  174.8680  140.9660 C   0  0  0  0  0  1  0  0  0  0  0  0
  178.9500  176.0890  141.0990 O   0  0  0  0  0  0  0  0  0  0  0  0
  180.3570  178.2050  139.5180 C   0  0  0  0  0  3  0  0  0  0  0  0
  181.2890  177.4380  138.9630 C   0  0  0  0  0  2  0  0  0  0  0  0
  1  7  1  0  0  0  0
  2  7  2  0  0  0  0
  3  1  2  0  0  0  0
  4  6  1  0  0  0  0
  5  9  1  0  0  0  0
  5  4  2  0  0  0  0
  6  2  1  6  0  0  0
  8  6  1  0  0  0  0
  8  3  1  0  0  0  0
  9  8  2  0  0  0  0
 10 12  1  0  0  0  0
 11 13  1  0  0  0  0
 11 10  2  0  0  0  0
 12 15  2  0  0  0  0
 12  9  1  0  0  0  0
 13 14  2  0  0  0  0
 14 15  1  0  0  0  0
 16 13  1  0  0  0  0
 17 16  1  0  0  0  0
 18 19  1  0  0  0  0
 18 17  1  0  0  0  0
 19 20  1  6  0  0  0
 21 22  1  0  0  0  0
 21 25  2  0  0  0  0
 22 19  1  1  0  0  0
 22 24  1  0  0  0  0
 24 26  1  0  0  0  0
 24 23  2  0  0  0  0
 25 26  1  0  0  0  0
 27 30  2  0  0  0  0
 28  4  1  0  0  0  0
 28 31  2  0  0  0  0
 29 27  1  0  0  0  0
 29 28  1  0  0  0  0
 30 31  1  0  0  0  0
 32 29  2  0  0  0  0
 33 27  1  0  0  0  0
 35 34  2  0  0  0  0
 35 33  1  0  0  0  0
 36 37  1  0  0  0  0
 37 34  1  0  0  0  0
 38 35  1  0  0  0  0
 39 38  2  0  0  0  0
M  END
>  <MODEL>
6

>  <REMARK>
 VINA RESULT:      -8.1      3.828      6.571
  Name = 
  11 active torsions:
  status: ('A' for Active; 'I' for Inactive)
    1  A    between atoms: C_2  and  C_4
    2  A    between atoms: C_2  and  C_35
    3  A    between atoms: C_5  and  C_22
    4  A    between atoms: C_10  and  C_35
    5  A    between atoms: C_11  and  O_30
    6  A    between atoms: C_12  and  C_22
    7  A    between atoms: C_12  and  N_39
    8  A    between atoms: C_13  and  C_38
    9  A    between atoms: C_15  and  C_23
   10  A    between atoms: C_16  and  C_25
   11  A    between atoms: C_23  and  N_39
                            x       y       z     vdW  Elec       q    Type
                         _______ _______ _______ _____ _____    ______ ____

>  <TORSDO>
F 11

$$$$
=
 OpenBabel10222421213D

 39 43  0  0  1  0  0  0  0  0999 V2000
  187.3710  178.0130  146.8480 C   0  0  0  0  0  3  0  0  0  0  0  0
  185.0700  178.4300  146.0510 C   0  0  0  0  0  3  0  0  0  0  0  0
  187.9050  177.8280  145.4400 C   0  0  0  0  0  3  0  0  0  0  0  0
  184.6810  178.3380  143.5580 C   0  0  0  0  0  0  0  0  0  0  0  0
  185.5090  178.0940  142.5410 C   0  0  0  0  0  3  0  0  0  0  0  0
  185.4530  178.2700  144.7880 C   0  0  2  0  0  3  0  0  0  0  0  0
  186.0820  178.2890  147.1210 C   0  0  0  0  0  3  0  0  0  0  0  0
  186.8110  177.9680  144.4170 C   0  0  0  0  0  0  0  0  0  0  0  0
  186.8650  177.8610  143.0870 C   0  0  0  0  0  0  0  0  0  0  0  0
  188.2440  178.2500  141.0460 C   0  0  0  0  0  3  0  0  0  0  0  0
  189.3640  177.9920  140.2510 C   0  0  0  0  0  3  0  0  0  0  0  0
  188.0580  177.5690  142.2590 C   0  0  0  0  0  0  0  0  0  0  0  0
  190.3160  177.0560  140.6650 C   0  0  0  0  0  0  0  0  0  0  0  0
  190.1380  176.3690  141.8690 C   0  0  0  0  0  3  0  0  0  0  0  0
  189.0150  176.6260  142.6610 C   0  0  0  0  0  3  0  0  0  0  0  0
  191.5040  176.7710  139.8150 C   0  0  0  0  0  2  0  0  0  0  0  0
  191.1280  175.8890  138.7220 N   0  0  0  0  0  2  0  0  0  0  0  0
  190.9880  176.7260  137.5420 C   0  0  0  0  0  2  0  0  0  0  0  0
  189.7840  176.2970  136.7090 C   0  0  1  0  0  3  0  0  0  0  0  0
  188.8270  175.7040  137.5380 O   0  0  0  0  0  1  0  0  0  0  0  0
  189.0510  178.7010  136.8540 C   0  0  0  0  0  3  0  0  0  0  0  0
  189.1780  177.4740  135.9380 C   0  0  2  0  0  3  0  0  0  0  0  0
  187.3430  176.3380  134.8330 O   0  0  0  0  0  0  0  0  0  0  0  0
  187.7660  177.2230  135.6230 C   0  0  0  0  0  0  0  0  0  0  0  0
  187.6240  179.0020  137.0650 N   0  0  0  0  0  0  0  0  0  0  0  0
  186.9440  178.0980  136.2800 O   0  0  0  0  0  0  0  0  0  0  0  0
  181.1490  179.1020  142.6920 C   0  0  0  0  0  0  0  0  0  0  0  0
  183.2430  178.6230  143.4340 C   0  0  0  0  0  0  0  0  0  0  0  0
  182.5040  178.9220  142.2210 C   0  0  0  0  0  0  0  0  0  0  0  0
  181.1260  178.9440  143.9760 N   0  0  0  0  0  0  0  0  0  0  0  0
  182.4210  178.6420  144.4350 N   0  0  0  0  0  0  0  0  0  0  0  0
  182.9360  179.0070  141.0410 O   0  0  0  0  0  0  0  0  0  0  0  0
  179.9510  179.4710  141.8810 C   0  0  0  0  0  2  0  0  0  0  0  0
  179.3830  177.1680  141.3640 C   0  0  0  0  0  3  0  0  0  0  0  0
  179.6160  178.4000  140.8880 C   0  0  0  0  0  0  0  0  0  0  0  0
  179.4740  174.6910  140.9690 C   0  0  0  0  0  1  0  0  0  0  0  0
  179.0780  176.0120  140.6250 O   0  0  0  0  0  0  0  0  0  0  0  0
  179.5410  178.7270  139.4520 C   0  0  0  0  0  3  0  0  0  0  0  0
  180.2130  179.7360  138.9080 C   0  0  0  0  0  2  0  0  0  0  0  0
  1  7  1  0  0  0  0
  2  7  2  0  0  0  0
  3  1  2  0  0  0  0
  4  6  1  0  0  0  0
  5  9  1  0  0  0  0
  5  4  2  0  0  0  0
  6  2  1  1  0  0  0
  8  6  1  0  0  0  0
  8  3  1  0  0  0  0
  9  8  2  0  0  0  0
 10 12  1  0  0  0  0
 11 13  1  0  0  0  0
 11 10  2  0  0  0  0
 12 15  2  0  0  0  0
 12  9  1  0  0  0  0
 13 14  2  0  0  0  0
 14 15  1  0  0  0  0
 16 13  1  0  0  0  0
 17 16  1  0  0  0  0
 18 17  1  0  0  0  0
 19 20  1  1  0  0  0
 19 18  1  0  0  0  0
 21 25  2  0  0  0  0
 22 19  1  1  0  0  0
 22 21  1  0  0  0  0
 23 24  2  0  0  0  0
 24 22  1  0  0  0  0
 24 26  1  0  0  0  0
 26 25  1  0  0  0  0
 27 30  2  0  0  0  0
 28  4  1  0  0  0  0
 28 31  2  0  0  0  0
 29 27  1  0  0  0  0
 29 28  1  0  0  0  0
 30 31  1  0  0  0  0
 32 29  2  0  0  0  0
 33 27  1  0  0  0  0
 35 34  2  0  0  0  0
 35 33  1  0  0  0  0
 37 36  1  0  0  0  0
 37 34  1  0  0  0  0
 38 35  1  0  0  0  0
 39 38  2  0  0  0  0
M  END
>  <MODEL>
7

>  <REMARK>
 VINA RESULT:      -8.0      4.567      8.159
  Name = 
  11 active torsions:
  status: ('A' for Active; 'I' for Inactive)
    1  A    between atoms: C_2  and  C_4
    2  A    between atoms: C_2  and  C_35
    3  A    between atoms: C_5  and  C_22
    4  A    between atoms: C_10  and  C_35
    5  A    between atoms: C_11  and  O_30
    6  A    between atoms: C_12  and  C_22
    7  A    between atoms: C_12  and  N_39
    8  A    between atoms: C_13  and  C_38
    9  A    between atoms: C_15  and  C_23
   10  A    between atoms: C_16  and  C_25
   11  A    between atoms: C_23  and  N_39
                            x       y       z     vdW  Elec       q    Type
                         _______ _______ _______ _____ _____    ______ ____

>  <TORSDO>
F 11

$$$$
=
 OpenBabel10222421213D

 39 43  0  0  1  0  0  0  0  0999 V2000
  186.4490  178.0560  146.6030 C   0  0  0  0  0  3  0  0  0  0  0  0
  184.2700  178.6080  145.5770 C   0  0  0  0  0  3  0  0  0  0  0  0
  187.1330  177.9180  145.2560 C   0  0  0  0  0  3  0  0  0  0  0  0
  184.1660  178.6550  143.0540 C   0  0  0  0  0  0  0  0  0  0  0  0
  185.0950  178.4270  142.1250 C   0  0  0  0  0  3  0  0  0  0  0  0
  184.7890  178.4940  144.3570 C   0  0  2  0  0  3  0  0  0  0  0  0
  185.1480  178.3720  146.7440 C   0  0  0  0  0  3  0  0  0  0  0  0
  186.1690  178.1540  144.1250 C   0  0  0  0  0  0  0  0  0  0  0  0
  186.3710  178.1110  142.8060 C   0  0  0  0  0  0  0  0  0  0  0  0
  187.8850  178.3770  140.8430 C   0  0  0  0  0  3  0  0  0  0  0  0
  189.0760  178.1100  140.1630 C   0  0  0  0  0  3  0  0  0  0  0  0
  187.6390  177.8100  142.1030 C   0  0  0  0  0  0  0  0  0  0  0  0
  190.0400  177.2770  140.7400 C   0  0  0  0  0  0  0  0  0  0  0  0
  189.8020  176.7030  141.9920 C   0  0  0  0  0  3  0  0  0  0  0  0
  188.6090  176.9690  142.6690 C   0  0  0  0  0  3  0  0  0  0  0  0
  191.3040  176.9810  140.0140 C   0  0  0  0  0  2  0  0  0  0  0  0
  191.0540  176.0050  138.9660 N   0  0  0  0  0  2  0  0  0  0  0  0
  191.4020  176.6470  137.7090 C   0  0  0  0  0  2  0  0  0  0  0  0
  192.6170  175.9770  137.0730 C   0  0  1  0  0  3  0  0  0  0  0  0
  193.7570  176.7490  137.3120 O   0  0  0  0  0  1  0  0  0  0  0  0
  194.3100  174.2250  137.7080 C   0  0  0  0  0  3  0  0  0  0  0  0
  192.8120  174.5480  137.5890 C   0  0  2  0  0  3  0  0  0  0  0  0
  191.2220  173.3830  136.1790 O   0  0  0  0  0  0  0  0  0  0  0  0
  192.4020  173.5650  136.5790 C   0  0  0  0  0  0  0  0  0  0  0  0
  194.6590  173.1800  136.7290 N   0  0  0  0  0  0  0  0  0  0  0  0
  193.4680  172.8340  136.1310 O   0  0  0  0  0  0  0  0  0  0  0  0
  180.6740  179.2190  141.9150 C   0  0  0  0  0  0  0  0  0  0  0  0
  182.7620  179.0060  142.7850 C   0  0  0  0  0  0  0  0  0  0  0  0
  181.9520  178.5950  141.6530 C   0  0  0  0  0  0  0  0  0  0  0  0
  180.7530  179.8930  143.0170 N   0  0  0  0  0  0  0  0  0  0  0  0
  182.0440  179.7560  143.5590 N   0  0  0  0  0  0  0  0  0  0  0  0
  182.2780  177.8710  140.6760 O   0  0  0  0  0  0  0  0  0  0  0  0
  179.4540  179.1780  141.0560 C   0  0  0  0  0  2  0  0  0  0  0  0
  180.0230  181.1730  139.7950 C   0  0  0  0  0  3  0  0  0  0  0  0
  179.6850  179.8760  139.7500 C   0  0  0  0  0  0  0  0  0  0  0  0
  181.5360  182.2840  138.1280 C   0  0  0  0  0  1  0  0  0  0  0  0
  180.2630  182.0290  138.7070 O   0  0  0  0  0  0  0  0  0  0  0  0
  179.5490  179.1310  138.4850 C   0  0  0  0  0  3  0  0  0  0  0  0
  180.5940  178.6950  137.7900 C   0  0  0  0  0  2  0  0  0  0  0  0
  1  7  1  0  0  0  0
  2  7  2  0  0  0  0
  3  1  2  0  0  0  0
  4  6  1  0  0  0  0
  5  9  1  0  0  0  0
  5  4  2  0  0  0  0
  6  2  1  6  0  0  0
  8  6  1  0  0  0  0
  8  3  1  0  0  0  0
  9  8  2  0  0  0  0
 10 12  1  0  0  0  0
 11 13  1  0  0  0  0
 11 10  2  0  0  0  0
 12 15  2  0  0  0  0
 12  9  1  0  0  0  0
 13 14  2  0  0  0  0
 14 15  1  0  0  0  0
 16 13  1  0  0  0  0
 17 16  1  0  0  0  0
 18 17  1  0  0  0  0
 19 20  1  1  0  0  0
 19 18  1  0  0  0  0
 22 19  1  6  0  0  0
 22 21  1  0  0  0  0
 23 24  2  0  0  0  0
 24 22  1  0  0  0  0
 25 21  2  0  0  0  0
 26 24  1  0  0  0  0
 26 25  1  0  0  0  0
 27 30  2  0  0  0  0
 28  4  1  0  0  0  0
 28 31  2  0  0  0  0
 29 27  1  0  0  0  0
 29 28  1  0  0  0  0
 30 31  1  0  0  0  0
 32 29  2  0  0  0  0
 33 27  1  0  0  0  0
 35 34  2  0  0  0  0
 35 33  1  0  0  0  0
 36 37  1  0  0  0  0
 37 34  1  0  0  0  0
 38 35  1  0  0  0  0
 39 38  2  0  0  0  0
M  END
>  <MODEL>
8

>  <REMARK>
 VINA RESULT:      -8.0      4.424      7.475
  Name = 
  11 active torsions:
  status: ('A' for Active; 'I' for Inactive)
    1  A    between atoms: C_2  and  C_4
    2  A    between atoms: C_2  and  C_35
    3  A    between atoms: C_5  and  C_22
    4  A    between atoms: C_10  and  C_35
    5  A    between atoms: C_11  and  O_30
    6  A    between atoms: C_12  and  C_22
    7  A    between atoms: C_12  and  N_39
    8  A    between atoms: C_13  and  C_38
    9  A    between atoms: C_15  and  C_23
   10  A    between atoms: C_16  and  C_25
   11  A    between atoms: C_23  and  N_39
                            x       y       z     vdW  Elec       q    Type
                         _______ _______ _______ _____ _____    ______ ____

>  <TORSDO>
F 11

$$$$
=
 OpenBabel10222421213D

 39 43  0  0  1  0  0  0  0  0999 V2000
  187.1980  178.3390  136.8340 C   0  0  0  0  0  3  0  0  0  0  0  0
  189.5030  177.4970  136.5470 C   0  0  0  0  0  3  0  0  0  0  0  0
  187.2490  178.1820  138.3420 C   0  0  0  0  0  2  0  0  0  0  0  0
  190.7430  176.8050  138.6350 C   0  0  0  0  0  0  0  0  0  0  0  0
  190.3830  176.8010  139.9190 C   0  0  0  0  0  3  0  0  0  0  0  0
  189.6260  177.3170  137.8590 C   0  0  0  0  0  0  0  0  0  0  0  0
  188.2260  178.0290  136.0220 C   0  0  0  0  0  3  0  0  0  0  0  0
  188.5700  177.6200  138.7900 C   0  0  0  0  0  0  0  0  0  0  0  0
  189.0000  177.3220  140.0180 C   0  0  0  0  0  0  0  0  0  0  0  0
  188.5000  176.5880  142.3480 C   0  0  0  0  0  3  0  0  0  0  0  0
  187.8130  176.7190  143.5590 C   0  0  0  0  0  3  0  0  0  0  0  0
  188.2580  177.4780  141.2900 C   0  0  0  0  0  0  0  0  0  0  0  0
  186.8820  177.7480  143.7270 C   0  0  0  0  0  0  0  0  0  0  0  0
  186.6290  178.6360  142.6780 C   0  0  0  0  0  3  0  0  0  0  0  0
  187.3150  178.5010  141.4670 C   0  0  0  0  0  3  0  0  0  0  0  0
  186.1400  177.8840  145.0100 C   0  0  0  0  0  2  0  0  0  0  0  0
  186.8730  177.2180  146.0750 N   0  0  0  0  0  2  0  0  0  0  0  0
  187.2150  178.2430  147.0480 C   0  0  0  0  0  2  0  0  0  0  0  0
  188.7110  178.2280  147.3520 C   0  0  1  0  0  3  0  0  0  0  0  0
  188.9100  177.9560  148.7080 O   0  0  0  0  0  1  0  0  0  0  0  0
  190.3750  176.3390  147.3490 C   0  0  0  0  0  3  0  0  0  0  0  0
  189.4570  177.2140  146.4800 C   0  0  2  0  0  3  0  0  0  0  0  0
  190.1810  178.6720  144.6840 O   0  0  0  0  0  0  0  0  0  0  0  0
  190.4480  177.8840  145.6290 C   0  0  0  0  0  0  0  0  0  0  0  0
  191.7800  176.6240  147.0090 N   0  0  0  0  0  0  0  0  0  0  0  0
  191.7240  177.5240  145.9690 O   0  0  0  0  0  0  0  0  0  0  0  0
  193.7410  175.3630  136.9780 C   0  0  0  0  0  0  0  0  0  0  0  0
  192.0480  176.3640  138.1170 C   0  0  0  0  0  0  0  0  0  0  0  0
  192.2990  175.3830  137.0770 C   0  0  0  0  0  0  0  0  0  0  0  0
  194.2320  176.1940  137.8400 N   0  0  0  0  0  0  0  0  0  0  0  0
  193.1840  176.8180  138.5410 N   0  0  0  0  0  0  0  0  0  0  0  0
  191.4640  174.7080  136.4180 O   0  0  0  0  0  0  0  0  0  0  0  0
  194.5760  174.5000  136.0910 C   0  0  0  0  0  2  0  0  0  0  0  0
  194.8260  172.5640  137.5360 C   0  0  0  0  0  3  0  0  0  0  0  0
  195.4370  173.5710  136.8920 C   0  0  0  0  0  0  0  0  0  0  0  0
  195.7170  170.2580  137.9700 C   0  0  0  0  0  1  0  0  0  0  0  0
  195.4210  171.5930  138.3580 O   0  0  0  0  0  0  0  0  0  0  0  0
  196.8960  173.7770  136.9390 C   0  0  0  0  0  3  0  0  0  0  0  0
  197.5000  174.4220  137.9320 C   0  0  0  0  0  2  0  0  0  0  0  0
  1  3  1  0  0  0  0
  2  6  2  0  0  0  0
  3  8  1  0  0  0  0
  4  5  2  0  0  0  0
  5  9  1  0  0  0  0
  6  4  1  0  0  0  0
  6  8  1  0  0  0  0
  7  2  1  0  0  0  0
  7  1  2  0  0  0  0
  8  9  2  0  0  0  0
  9 12  1  0  0  0  0
 10 11  1  0  0  0  0
 11 13  2  0  0  0  0
 12 15  1  0  0  0  0
 12 10  2  0  0  0  0
 13 16  1  0  0  0  0
 14 13  1  0  0  0  0
 15 14  2  0  0  0  0
 16 17  1  0  0  0  0
 17 18  1  0  0  0  0
 18 19  1  0  0  0  0
 19 20  1  1  0  0  0
 22 21  1  0  0  0  0
 22 19  1  1  0  0  0
 23 24  2  0  0  0  0
 24 26  1  0  0  0  0
 24 22  1  0  0  0  0
 25 21  2  0  0  0  0
 26 25  1  0  0  0  0
 27 29  1  0  0  0  0
 27 30  2  0  0  0  0
 28 31  2  0  0  0  0
 28  4  1  0  0  0  0
 29 28  1  0  0  0  0
 30 31  1  0  0  0  0
 32 29  2  0  0  0  0
 33 35  1  0  0  0  0
 33 27  1  0  0  0  0
 34 37  1  0  0  0  0
 35 38  1  0  0  0  0
 35 34  2  0  0  0  0
 36 37  1  0  0  0  0
 38 39  2  0  0  0  0
M  END
>  <MODEL>
9

>  <REMARK>
 VINA RESULT:      -8.0      2.396      9.954
  Name = 
  11 active torsions:
  status: ('A' for Active; 'I' for Inactive)
    1  A    between atoms: C_2  and  C_4
    2  A    between atoms: C_2  and  C_35
    3  A    between atoms: C_5  and  C_22
    4  A    between atoms: C_10  and  C_35
    5  A    between atoms: C_11  and  O_30
    6  A    between atoms: C_12  and  C_22
    7  A    between atoms: C_12  and  N_39
    8  A    between atoms: C_13  and  C_38
    9  A    between atoms: C_15  and  C_23
   10  A    between atoms: C_16  and  C_25
   11  A    between atoms: C_23  and  N_39
                            x       y       z     vdW  Elec       q    Type
                         _______ _______ _______ _____ _____    ______ ____

>  <TORSDO>
F 11

$$$$
