=
 OpenBabel10222420233D

 47 54  0  0  1  0  0  0  0  0999 V2000
  182.9410  178.5340  140.4460 C   0  0  0  0  0  0  0  0  0  0  0  0
  182.8180  178.7140  141.9000 C   0  0  0  0  0  0  0  0  0  0  0  0
  184.4440  178.4750  138.5400 O   0  0  0  0  0  0  0  0  0  0  0  0
  182.0460  178.8030  143.8970 C   0  0  0  0  0  3  0  0  0  0  0  0
  182.4890  177.4570  137.5620 C   0  0  0  0  0  3  0  0  0  0  0  0
  183.8040  177.6610  137.5980 C   0  0  0  0  0  0  0  0  0  0  0  0
  181.6820  178.4480  139.6930 C   0  0  0  0  0  3  0  0  0  0  0  0
  183.3950  179.1200  143.9680 C   0  0  0  0  0  0  0  0  0  0  0  0
  185.2230  179.3650  142.1300 C   0  0  0  0  0  2  0  0  0  0  0  0
  181.7370  178.5760  142.6330 O   0  0  0  0  0  0  0  0  0  0  0  0
  181.4560  177.9890  138.4660 C   0  0  0  0  0  0  0  0  0  0  0  0
  185.4200  178.6180  140.7990 C   0  0  0  0  0  2  0  0  0  0  0  0
  183.8790  179.0460  142.6860 C   0  0  0  0  0  0  0  0  0  0  0  0
  184.1830  178.5500  139.9080 C   0  0  0  0  0  0  0  0  0  0  0  0
  184.6590  174.9090  137.4250 O   0  0  0  0  0  0  0  0  0  0  0  0
  184.5880  177.0780  136.5520 N   0  0  0  0  0  2  0  0  0  0  0  0
  185.1060  175.7460  136.5910 C   0  0  0  0  0  0  0  0  0  0  0  0
  186.1150  175.3800  135.7020 O   0  0  0  0  0  0  0  0  0  0  0  0
  187.4450  175.1300  136.1390 C   0  0  2  0  0  3  0  0  0  0  0  0
  187.6610  178.1520  135.4380 O   0  0  0  0  0  1  0  0  0  0  0  0
  188.5480  177.7630  138.6520 C   0  0  2  0  0  3  0  0  0  0  0  0
  189.0890  178.3570  137.3620 C   0  0  1  0  0  0  0  0  0  0  0  0
  190.0520  177.8240  138.4020 C   0  0  0  0  0  2  0  0  0  0  0  0
  187.9730  176.3220  136.8910 C   0  0  0  0  0  0  0  0  0  0  0  0
  188.6130  177.4750  136.2050 C   0  0  1  0  0  3  0  0  0  0  0  0
  188.8880  179.7350  137.3140 O   0  0  0  0  0  1  0  0  0  0  0  0
  187.9670  176.4600  138.2150 C   0  0  0  0  0  3  0  0  0  0  0  0
  188.3070  174.7230  134.9830 C   0  0  0  0  0  3  0  0  0  0  0  0
  189.3610  173.9340  135.1740 C   0  0  0  0  0  2  0  0  0  0  0  0
  180.1280  177.9750  138.0410 O   0  0  0  0  0  0  0  0  0  0  0  0
  179.2230  177.1630  138.6150 O   0  0  0  0  0  1  0  0  0  0  0  0
  184.1800  179.3430  145.2140 C   0  0  0  0  0  2  0  0  0  0  0  0
  184.5960  178.0020  145.7940 C   0  0  0  0  0  2  0  0  0  0  0  0
  187.0290  178.2600  146.2720 C   0  0  0  0  0  3  0  0  0  0  0  0
  185.7670  178.1550  146.7120 C   0  0  0  0  0  3  0  0  0  0  0  0
  189.3950  176.7240  145.6430 C   0  0  0  0  0  2  0  0  0  0  0  0
  191.5310  177.4840  144.4660 C   0  0  1  0  0  3  0  0  0  0  0  0
  189.3980  177.6690  143.1700 C   0  0  1  0  0  0  0  0  0  0  0  0
  191.8610  176.1420  143.7940 C   0  0  0  0  0  2  0  0  0  0  0  0
  190.7130  178.3670  143.5190 C   0  0  0  0  0  2  0  0  0  0  0  0
  187.2410  176.8060  144.2960 C   0  0  0  0  0  2  0  0  0  0  0  0
  189.7300  176.3600  142.4300 C   0  0  0  0  0  2  0  0  0  0  0  0
  187.3840  178.2320  144.8130 C   0  0  2  0  0  3  0  0  0  0  0  0
  190.6130  175.4220  143.2610 C   0  0  0  0  0  2  0  0  0  0  0  0
  188.6250  177.3950  144.4930 C   0  0  1  0  0  0  0  0  0  0  0  0
  190.7980  177.3250  145.8050 C   0  0  0  0  0  2  0  0  0  0  0  0
  188.6370  178.5740  142.2070 C   0  0  0  0  0  1  0  0  0  0  0  0
  1  2  1  0  0  0  0
  2 10  1  0  0  0  0
  2 13  2  0  0  0  0
  3 14  1  0  0  0  0
  4  8  2  0  0  0  0
  5  6  2  0  0  0  0
  5 11  1  0  0  0  0
  6  3  1  0  0  0  0
  7  1  1  0  0  0  0
  8 32  1  0  0  0  0
  9 13  1  0  0  0  0
 10  4  1  0  0  0  0
 11  7  2  0  0  0  0
 12  9  1  0  0  0  0
 13  8  1  0  0  0  0
 14  1  2  0  0  0  0
 14 12  1  0  0  0  0
 16 17  1  0  0  0  0
 16  6  1  0  0  0  0
 17 15  2  0  0  0  0
 18 19  1  0  0  0  0
 18 17  1  0  0  0  0
 19 28  1  6  0  0  0
 19 24  1  0  0  0  0
 21 27  1  6  0  0  0
 22 26  1  6  0  0  0
 22 23  1  0  0  0  0
 22 21  1  0  0  0  0
 23 21  1  0  0  0  0
 24 27  2  0  0  0  0
 25 20  1  6  0  0  0
 25 24  1  0  0  0  0
 25 22  1  0  0  0  0
 28 29  2  0  0  0  0
 30 11  1  0  0  0  0
 30 31  1  0  0  0  0
 32 33  1  0  0  0  0
 33 35  1  0  0  0  0
 34 35  2  0  0  0  0
 36 46  1  0  0  0  0
 37 40  1  6  0  0  0
 37 46  1  0  0  0  0
 38 47  1  6  0  0  0
 38 40  1  0  0  0  0
 38 45  1  0  0  0  0
 39 37  1  0  0  0  0
 41 43  1  0  0  0  0
 42 38  1  0  0  0  0
 42 44  1  0  0  0  0
 43 34  1  1  0  0  0
 44 39  1  0  0  0  0
 45 41  1  6  0  0  0
 45 43  1  0  0  0  0
 45 36  1  0  0  0  0
M  END
>  <MODEL>
1

>  <REMARK>
 VINA RESULT:      -9.2      0.000      0.000
  Name = 
  10 active torsions:
  status: ('A' for Active; 'I' for Inactive)
    1  A    between atoms: C_2  and  C_16
    2  A    between atoms: C_2  and  C_32
    3  A    between atoms: C_3  and  C_25
    4  A    between atoms: O_13  and  C_40
    5  A    between atoms: C_16  and  C_26
    6  A    between atoms: C_20  and  C_36
    7  A    between atoms: O_23  and  C_36
    8  A    between atoms: O_23  and  C_39
    9  A    between atoms: C_27  and  C_36
   10  A    between atoms: N_28  and  C_29
                            x       y       z     vdW  Elec       q    Type
                         _______ _______ _______ _____ _____    ______ ____

>  <TORSDO>
F 10

$$$$
=
 OpenBabel10222420233D

 47 54  0  0  1  0  0  0  0  0999 V2000
  188.2980  177.3810  144.1400 C   0  0  0  0  0  0  0  0  0  0  0  0
  187.1960  177.8660  144.9840 C   0  0  0  0  0  0  0  0  0  0  0  0
  189.0090  176.7820  141.8960 O   0  0  0  0  0  0  0  0  0  0  0  0
  186.0500  178.5850  146.6460 C   0  0  0  0  0  3  0  0  0  0  0  0
  191.1540  176.9500  142.9840 C   0  0  0  0  0  3  0  0  0  0  0  0
  190.3940  176.9760  141.8910 C   0  0  0  0  0  0  0  0  0  0  0  0
  189.5070  176.9320  144.8440 C   0  0  0  0  0  3  0  0  0  0  0  0
  185.1950  178.5330  145.5540 C   0  0  0  0  0  0  0  0  0  0  0  0
  185.5570  177.7460  143.0980 C   0  0  0  0  0  2  0  0  0  0  0  0
  187.2420  178.1650  146.2630 O   0  0  0  0  0  0  0  0  0  0  0  0
  190.7390  176.7440  144.3810 C   0  0  0  0  0  0  0  0  0  0  0  0
  186.7930  177.8250  142.1860 C   0  0  0  0  0  2  0  0  0  0  0  0
  185.9450  178.0850  144.4950 C   0  0  0  0  0  0  0  0  0  0  0  0
  188.0860  177.3010  142.8050 C   0  0  0  0  0  0  0  0  0  0  0  0
  189.3160  178.2200  139.5180 O   0  0  0  0  0  0  0  0  0  0  0  0
  191.0590  177.1260  140.6320 N   0  0  0  0  0  2  0  0  0  0  0  0
  190.4250  177.6180  139.4490 C   0  0  0  0  0  0  0  0  0  0  0  0
  191.0410  177.4220  138.2130 O   0  0  0  0  0  0  0  0  0  0  0  0
  190.5730  176.4480  137.2880 C   0  0  2  0  0  3  0  0  0  0  0  0
  189.4340  177.6990  134.6790 O   0  0  0  0  0  1  0  0  0  0  0  0
  186.8460  176.7230  136.5820 C   0  0  2  0  0  3  0  0  0  0  0  0
  187.3630  177.9630  135.8710 C   0  0  1  0  0  0  0  0  0  0  0  0
  186.5270  178.1120  137.1250 C   0  0  0  0  0  2  0  0  0  0  0  0
  189.1780  176.7900  136.8400 C   0  0  0  0  0  0  0  0  0  0  0  0
  188.8910  177.9420  135.9440 C   0  0  1  0  0  3  0  0  0  0  0  0
  186.7270  178.1490  134.6460 O   0  0  0  0  0  1  0  0  0  0  0  0
  188.0720  176.1510  137.2130 C   0  0  0  0  0  3  0  0  0  0  0  0
  190.6930  175.0730  137.8730 C   0  0  0  0  0  3  0  0  0  0  0  0
  191.2350  174.0860  137.1660 C   0  0  0  0  0  2  0  0  0  0  0  0
  191.7050  176.3720  145.3140 O   0  0  0  0  0  0  0  0  0  0  0  0
  191.7960  176.9890  146.5050 O   0  0  0  0  0  1  0  0  0  0  0  0
  183.7860  179.0180  145.5170 C   0  0  0  0  0  2  0  0  0  0  0  0
  183.3670  179.2350  144.0730 C   0  0  0  0  0  2  0  0  0  0  0  0
  181.4230  178.6760  142.6160 C   0  0  0  0  0  3  0  0  0  0  0  0
  181.9930  178.6950  143.8280 C   0  0  0  0  0  3  0  0  0  0  0  0
  180.9230  177.1400  140.2180 C   0  0  0  0  0  2  0  0  0  0  0  0
  182.6020  175.9900  138.6750 C   0  0  1  0  0  3  0  0  0  0  0  0
  182.8120  178.4700  138.9260 C   0  0  1  0  0  0  0  0  0  0  0  0
  181.8030  176.1550  137.3730 C   0  0  0  0  0  2  0  0  0  0  0  0
  183.5840  177.1520  138.8500 C   0  0  0  0  0  2  0  0  0  0  0  0
  181.0610  179.6720  140.3930 C   0  0  0  0  0  2  0  0  0  0  0  0
  182.0720  178.6720  137.5910 C   0  0  0  0  0  2  0  0  0  0  0  0
  182.1130  179.1970  141.3870 C   0  0  2  0  0  3  0  0  0  0  0  0
  181.1080  177.5220  137.2740 C   0  0  0  0  0  2  0  0  0  0  0  0
  181.8190  178.3870  140.1220 C   0  0  1  0  0  0  0  0  0  0  0  0
  181.7120  175.8580  139.9180 C   0  0  0  0  0  2  0  0  0  0  0  0
  183.8330  179.5950  139.0720 C   0  0  0  0  0  1  0  0  0  0  0  0
  1  7  1  0  0  0  0
  1  2  1  0  0  0  0
  2 10  1  0  0  0  0
  3 14  1  0  0  0  0
  5 11  1  0  0  0  0
  6  3  1  0  0  0  0
  6  5  2  0  0  0  0
  8  4  2  0  0  0  0
  9 13  1  0  0  0  0
 10  4  1  0  0  0  0
 11  7  2  0  0  0  0
 11 30  1  0  0  0  0
 12 14  1  0  0  0  0
 12  9  1  0  0  0  0
 13  2  2  0  0  0  0
 13  8  1  0  0  0  0
 14  1  2  0  0  0  0
 16  6  1  0  0  0  0
 17 15  2  0  0  0  0
 17 16  1  0  0  0  0
 18 17  1  0  0  0  0
 19 28  1  1  0  0  0
 19 18  1  0  0  0  0
 21 23  1  1  0  0  0
 21 27  1  0  0  0  0
 22 26  1  6  0  0  0
 22 25  1  0  0  0  0
 22 21  1  0  0  0  0
 22 23  1  0  0  0  0
 24 27  2  0  0  0  0
 24 19  1  0  0  0  0
 25 20  1  6  0  0  0
 25 24  1  0  0  0  0
 29 28  2  0  0  0  0
 30 31  1  0  0  0  0
 32  8  1  0  0  0  0
 33 32  1  0  0  0  0
 34 35  2  0  0  0  0
 35 33  1  0  0  0  0
 37 39  1  6  0  0  0
 37 40  1  0  0  0  0
 37 46  1  0  0  0  0
 38 47  1  1  0  0  0
 38 45  1  0  0  0  0
 40 38  1  0  0  0  0
 41 43  1  0  0  0  0
 42 38  1  0  0  0  0
 43 34  1  1  0  0  0
 44 39  1  0  0  0  0
 44 42  1  0  0  0  0
 45 36  1  1  0  0  0
 45 41  1  0  0  0  0
 45 43  1  0  0  0  0
 46 36  1  0  0  0  0
M  END
>  <MODEL>
2

>  <REMARK>
 VINA RESULT:      -9.0      2.982      7.110
  Name = 
  10 active torsions:
  status: ('A' for Active; 'I' for Inactive)
    1  A    between atoms: C_2  and  C_16
    2  A    between atoms: C_2  and  C_32
    3  A    between atoms: C_3  and  C_25
    4  A    between atoms: O_13  and  C_40
    5  A    between atoms: C_16  and  C_26
    6  A    between atoms: C_20  and  C_36
    7  A    between atoms: O_23  and  C_36
    8  A    between atoms: O_23  and  C_39
    9  A    between atoms: C_27  and  C_36
   10  A    between atoms: N_28  and  C_29
                            x       y       z     vdW  Elec       q    Type
                         _______ _______ _______ _____ _____    ______ ____

>  <TORSDO>
F 10

$$$$
=
 OpenBabel10222420233D

 47 54  0  0  1  0  0  0  0  0999 V2000
  183.7520  178.4380  139.6800 C   0  0  0  0  0  0  0  0  0  0  0  0
  183.0930  178.5260  140.9920 C   0  0  0  0  0  0  0  0  0  0  0  0
  185.8420  178.6220  138.4560 O   0  0  0  0  0  0  0  0  0  0  0  0
  181.6440  178.4340  142.5680 C   0  0  0  0  0  3  0  0  0  0  0  0
  184.4920  177.4870  136.8120 C   0  0  0  0  0  3  0  0  0  0  0  0
  185.6760  177.8080  137.3310 C   0  0  0  0  0  0  0  0  0  0  0  0
  182.8690  178.2810  138.5170 C   0  0  0  0  0  3  0  0  0  0  0  0
  182.8340  178.8670  143.1340 C   0  0  0  0  0  0  0  0  0  0  0  0
  185.1690  179.3790  142.0980 C   0  0  0  0  0  2  0  0  0  0  0  0
  181.8400  178.2500  141.2750 O   0  0  0  0  0  0  0  0  0  0  0  0
  183.1520  177.8720  137.2850 C   0  0  0  0  0  0  0  0  0  0  0  0
  185.9120  178.7280  140.9190 C   0  0  0  0  0  2  0  0  0  0  0  0
  183.7550  178.9080  142.1170 C   0  0  0  0  0  0  0  0  0  0  0  0
  185.0970  178.5970  139.6350 C   0  0  0  0  0  0  0  0  0  0  0  0
  186.9150  175.2100  137.5600 O   0  0  0  0  0  0  0  0  0  0  0  0
  186.8420  177.3570  136.6340 N   0  0  0  0  0  2  0  0  0  0  0  0
  187.4970  176.1140  136.8960 C   0  0  0  0  0  0  0  0  0  0  0  0
  188.7890  175.9080  136.4150 O   0  0  0  0  0  0  0  0  0  0  0  0
  189.5310  174.7370  136.7330 C   0  0  2  0  0  3  0  0  0  0  0  0
  190.7030  176.4550  139.0450 O   0  0  0  0  0  1  0  0  0  0  0  0
  193.2610  175.0000  137.4300 C   0  0  2  0  0  3  0  0  0  0  0  0
  192.7930  176.3810  137.8590 C   0  0  1  0  0  0  0  0  0  0  0  0
  193.6450  176.2310  136.6160 C   0  0  0  0  0  2  0  0  0  0  0  0
  190.9360  175.1080  137.1240 C   0  0  0  0  0  0  0  0  0  0  0  0
  191.2660  176.4070  137.7670 C   0  0  1  0  0  3  0  0  0  0  0  0
  193.4270  176.7900  139.0300 O   0  0  0  0  0  1  0  0  0  0  0  0
  192.0160  174.3600  136.9110 C   0  0  0  0  0  3  0  0  0  0  0  0
  189.4640  173.7540  135.6050 C   0  0  0  0  0  3  0  0  0  0  0  0
  188.9950  172.5260  135.8090 C   0  0  0  0  0  2  0  0  0  0  0  0
  182.0780  177.7610  136.4030 O   0  0  0  0  0  0  0  0  0  0  0  0
  181.5000  178.8500  135.8690 O   0  0  0  0  0  1  0  0  0  0  0  0
  183.0870  179.0910  144.5860 C   0  0  0  0  0  2  0  0  0  0  0  0
  184.5400  179.4820  144.7890 C   0  0  0  0  0  2  0  0  0  0  0  0
  186.3210  177.9320  145.5890 C   0  0  0  0  0  3  0  0  0  0  0  0
  185.1890  178.6130  145.8190 C   0  0  0  0  0  3  0  0  0  0  0  0
  188.9480  176.7270  145.6200 C   0  0  0  0  0  2  0  0  0  0  0  0
  191.1990  177.7810  145.0290 C   0  0  1  0  0  3  0  0  0  0  0  0
  189.4710  177.7150  143.2200 C   0  0  1  0  0  0  0  0  0  0  0  0
  191.8640  176.5060  144.4850 C   0  0  0  0  0  2  0  0  0  0  0  0
  190.5480  178.5700  143.8890 C   0  0  0  0  0  2  0  0  0  0  0  0
  187.2270  176.5580  143.7580 C   0  0  0  0  0  2  0  0  0  0  0  0
  190.1510  176.4750  142.6100 C   0  0  0  0  0  2  0  0  0  0  0  0
  187.0440  177.9800  144.2740 C   0  0  2  0  0  3  0  0  0  0  0  0
  190.9010  175.6430  143.6560 C   0  0  0  0  0  2  0  0  0  0  0  0
  188.4230  177.3170  144.3000 C   0  0  1  0  0  0  0  0  0  0  0  0
  190.1710  177.5010  146.1330 C   0  0  0  0  0  2  0  0  0  0  0  0
  188.8760  178.5340  142.0790 C   0  0  0  0  0  1  0  0  0  0  0  0
  1  2  1  0  0  0  0
  2 10  1  0  0  0  0
  2 13  2  0  0  0  0
  3 14  1  0  0  0  0
  4  8  2  0  0  0  0
  5 11  1  0  0  0  0
  5  6  2  0  0  0  0
  6  3  1  0  0  0  0
  7  1  1  0  0  0  0
  8 32  1  0  0  0  0
  9 13  1  0  0  0  0
 10  4  1  0  0  0  0
 11  7  2  0  0  0  0
 12  9  1  0  0  0  0
 13  8  1  0  0  0  0
 14  1  2  0  0  0  0
 14 12  1  0  0  0  0
 16 17  1  0  0  0  0
 16  6  1  0  0  0  0
 17 15  2  0  0  0  0
 18 19  1  0  0  0  0
 18 17  1  0  0  0  0
 19 28  1  6  0  0  0
 19 24  1  0  0  0  0
 21 23  1  6  0  0  0
 21 22  1  0  0  0  0
 22 26  1  1  0  0  0
 23 22  1  0  0  0  0
 24 25  1  0  0  0  0
 25 22  1  0  0  0  0
 25 20  1  1  0  0  0
 27 24  2  0  0  0  0
 27 21  1  0  0  0  0
 28 29  2  0  0  0  0
 30 11  1  0  0  0  0
 31 30  1  0  0  0  0
 32 33  1  0  0  0  0
 33 35  1  0  0  0  0
 34 35  2  0  0  0  0
 36 46  1  0  0  0  0
 37 40  1  6  0  0  0
 37 46  1  0  0  0  0
 38 47  1  6  0  0  0
 38 40  1  0  0  0  0
 38 45  1  0  0  0  0
 39 37  1  0  0  0  0
 41 43  1  0  0  0  0
 42 38  1  0  0  0  0
 42 44  1  0  0  0  0
 43 45  1  0  0  0  0
 43 34  1  1  0  0  0
 44 39  1  0  0  0  0
 45 41  1  6  0  0  0
 45 36  1  0  0  0  0
M  END
>  <MODEL>
3

>  <REMARK>
 VINA RESULT:      -9.0      1.944      2.361
  Name = 
  10 active torsions:
  status: ('A' for Active; 'I' for Inactive)
    1  A    between atoms: C_2  and  C_16
    2  A    between atoms: C_2  and  C_32
    3  A    between atoms: C_3  and  C_25
    4  A    between atoms: O_13  and  C_40
    5  A    between atoms: C_16  and  C_26
    6  A    between atoms: C_20  and  C_36
    7  A    between atoms: O_23  and  C_36
    8  A    between atoms: O_23  and  C_39
    9  A    between atoms: C_27  and  C_36
   10  A    between atoms: N_28  and  C_29
                            x       y       z     vdW  Elec       q    Type
                         _______ _______ _______ _____ _____    ______ ____

>  <TORSDO>
F 10

$$$$
=
 OpenBabel10222420233D

 47 54  0  0  1  0  0  0  0  0999 V2000
  188.4350  177.3920  143.8300 C   0  0  0  0  0  0  0  0  0  0  0  0
  187.3160  177.8250  144.6800 C   0  0  0  0  0  0  0  0  0  0  0  0
  189.2080  176.9930  141.5630 O   0  0  0  0  0  0  0  0  0  0  0  0
  186.1310  178.4120  146.3670 C   0  0  0  0  0  3  0  0  0  0  0  0
  191.3180  176.9920  142.7300 C   0  0  0  0  0  3  0  0  0  0  0  0
  190.5980  177.1460  141.6210 C   0  0  0  0  0  0  0  0  0  0  0  0
  189.6060  176.8420  144.5250 C   0  0  0  0  0  3  0  0  0  0  0  0
  185.3150  178.4910  145.2470 C   0  0  0  0  0  0  0  0  0  0  0  0
  185.7420  177.9350  142.7390 C   0  0  0  0  0  2  0  0  0  0  0  0
  187.3240  177.9970  145.9830 O   0  0  0  0  0  0  0  0  0  0  0  0
  190.8480  176.6650  144.0860 C   0  0  0  0  0  0  0  0  0  0  0  0
  187.0120  178.0660  141.8800 C   0  0  0  0  0  2  0  0  0  0  0  0
  186.0890  178.1260  144.1750 C   0  0  0  0  0  0  0  0  0  0  0  0
  188.2680  177.4480  142.4870 C   0  0  0  0  0  0  0  0  0  0  0  0
  190.3090  175.7080  139.1340 O   0  0  0  0  0  0  0  0  0  0  0  0
  191.3100  177.3980  140.4050 N   0  0  0  0  0  2  0  0  0  0  0  0
  191.2340  176.5620  139.2480 C   0  0  0  0  0  0  0  0  0  0  0  0
  192.1950  176.6930  138.2470 O   0  0  0  0  0  0  0  0  0  0  0  0
  192.4030  175.6810  137.2700 C   0  0  2  0  0  3  0  0  0  0  0  0
  194.8460  177.2500  136.1570 O   0  0  0  0  0  1  0  0  0  0  0  0
  195.9880  174.4640  137.6410 C   0  0  2  0  0  3  0  0  0  0  0  0
  196.0690  175.1860  136.3060 C   0  0  1  0  0  0  0  0  0  0  0  0
  196.1860  173.6760  136.3500 C   0  0  0  0  0  2  0  0  0  0  0  0
  193.8700  175.3570  137.1670 C   0  0  0  0  0  0  0  0  0  0  0  0
  194.7200  175.8620  136.0570 C   0  0  1  0  0  3  0  0  0  0  0  0
  197.2470  175.9220  136.1970 O   0  0  0  0  0  1  0  0  0  0  0  0
  194.5450  174.5740  138.0060 C   0  0  0  0  0  3  0  0  0  0  0  0
  191.7870  176.0800  135.9640 C   0  0  0  0  0  3  0  0  0  0  0  0
  190.7880  175.3700  135.4460 C   0  0  0  0  0  2  0  0  0  0  0  0
  191.7710  176.1760  145.0100 O   0  0  0  0  0  0  0  0  0  0  0  0
  192.0030  176.8180  146.1680 O   0  0  0  0  0  1  0  0  0  0  0  0
  183.9210  179.0180  145.2120 C   0  0  0  0  0  2  0  0  0  0  0  0
  183.5420  179.3440  143.7770 C   0  0  0  0  0  2  0  0  0  0  0  0
  181.6500  178.7170  142.2810 C   0  0  0  0  0  3  0  0  0  0  0  0
  182.1130  178.9910  143.5080 C   0  0  0  0  0  3  0  0  0  0  0  0
  180.5720  177.2910  140.0080 C   0  0  0  0  0  2  0  0  0  0  0  0
  181.6010  175.3540  138.7000 C   0  0  1  0  0  3  0  0  0  0  0  0
  182.8820  177.5040  138.7320 C   0  0  1  0  0  0  0  0  0  0  0  0
  180.9850  175.7030  137.3350 C   0  0  0  0  0  2  0  0  0  0  0  0
  182.9910  175.9820  138.8330 C   0  0  0  0  0  2  0  0  0  0  0  0
  181.8120  179.5090  139.9550 C   0  0  0  0  0  2  0  0  0  0  0  0
  182.3350  177.8540  137.3350 C   0  0  0  0  0  2  0  0  0  0  0  0
  182.5240  178.7390  141.0600 C   0  0  2  0  0  3  0  0  0  0  0  0
  180.9690  177.2140  137.0610 C   0  0  0  0  0  2  0  0  0  0  0  0
  181.9290  178.0000  139.8580 C   0  0  1  0  0  0  0  0  0  0  0  0
  180.7180  175.7680  139.8850 C   0  0  0  0  0  2  0  0  0  0  0  0
  184.2910  178.0760  138.8420 C   0  0  0  0  0  1  0  0  0  0  0  0
  1  7  1  0  0  0  0
  1  2  1  0  0  0  0
  2 10  1  0  0  0  0
  3  6  1  0  0  0  0
  3 14  1  0  0  0  0
  5 11  1  0  0  0  0
  6  5  2  0  0  0  0
  8  4  2  0  0  0  0
  9 13  1  0  0  0  0
 10  4  1  0  0  0  0
 11  7  2  0  0  0  0
 11 30  1  0  0  0  0
 12 14  1  0  0  0  0
 12  9  1  0  0  0  0
 13  2  2  0  0  0  0
 13  8  1  0  0  0  0
 14  1  2  0  0  0  0
 15 17  2  0  0  0  0
 16  6  1  0  0  0  0
 17 16  1  0  0  0  0
 18 17  1  0  0  0  0
 19 28  1  6  0  0  0
 19 18  1  0  0  0  0
 21 23  1  6  0  0  0
 21 27  1  0  0  0  0
 22 26  1  6  0  0  0
 22 23  1  0  0  0  0
 22 21  1  0  0  0  0
 24 19  1  0  0  0  0
 24 27  2  0  0  0  0
 25 20  1  1  0  0  0
 25 22  1  0  0  0  0
 25 24  1  0  0  0  0
 29 28  2  0  0  0  0
 30 31  1  0  0  0  0
 32  8  1  0  0  0  0
 33 32  1  0  0  0  0
 34 35  2  0  0  0  0
 35 33  1  0  0  0  0
 37 39  1  6  0  0  0
 37 40  1  0  0  0  0
 37 46  1  0  0  0  0
 38 40  1  0  0  0  0
 38 47  1  1  0  0  0
 38 45  1  0  0  0  0
 41 43  1  0  0  0  0
 42 38  1  0  0  0  0
 43 34  1  1  0  0  0
 44 39  1  0  0  0  0
 44 42  1  0  0  0  0
 45 41  1  6  0  0  0
 45 36  1  0  0  0  0
 45 43  1  0  0  0  0
 46 36  1  0  0  0  0
M  END
>  <MODEL>
4

>  <REMARK>
 VINA RESULT:      -9.0      4.095      7.801
  Name = 
  10 active torsions:
  status: ('A' for Active; 'I' for Inactive)
    1  A    between atoms: C_2  and  C_16
    2  A    between atoms: C_2  and  C_32
    3  A    between atoms: C_3  and  C_25
    4  A    between atoms: O_13  and  C_40
    5  A    between atoms: C_16  and  C_26
    6  A    between atoms: C_20  and  C_36
    7  A    between atoms: O_23  and  C_36
    8  A    between atoms: O_23  and  C_39
    9  A    between atoms: C_27  and  C_36
   10  A    between atoms: N_28  and  C_29
                            x       y       z     vdW  Elec       q    Type
                         _______ _______ _______ _____ _____    ______ ____

>  <TORSDO>
F 10

$$$$
=
 OpenBabel10222420233D

 47 54  0  0  1  0  0  0  0  0999 V2000
  186.3250  178.3630  143.2830 C   0  0  0  0  0  0  0  0  0  0  0  0
  187.7100  177.8820  143.4010 C   0  0  0  0  0  0  0  0  0  0  0  0
  184.6060  179.2160  141.7950 O   0  0  0  0  0  0  0  0  0  0  0  0
  189.5340  177.0510  144.1600 C   0  0  0  0  0  3  0  0  0  0  0  0
  183.2550  178.6370  143.7060 C   0  0  0  0  0  3  0  0  0  0  0  0
  183.3940  178.8670  142.4020 C   0  0  0  0  0  0  0  0  0  0  0  0
  185.5930  178.5560  144.5420 C   0  0  0  0  0  3  0  0  0  0  0  0
  189.7540  177.3680  142.8280 C   0  0  0  0  0  0  0  0  0  0  0  0
  188.2330  178.4790  141.0290 C   0  0  0  0  0  2  0  0  0  0  0  0
  188.2940  177.3860  144.4690 O   0  0  0  0  0  0  0  0  0  0  0  0
  184.2870  178.6710  144.7560 C   0  0  0  0  0  0  0  0  0  0  0  0
  186.7130  178.4010  140.8070 C   0  0  0  0  0  2  0  0  0  0  0  0
  188.5750  177.8860  142.3510 C   0  0  0  0  0  0  0  0  0  0  0  0
  185.8650  178.6720  142.0470 C   0  0  0  0  0  0  0  0  0  0  0  0
  182.7970  176.9910  140.2900 O   0  0  0  0  0  0  0  0  0  0  0  0
  182.2100  178.8390  141.6000 N   0  0  0  0  0  2  0  0  0  0  0  0
  182.0310  177.9790  140.4720 C   0  0  0  0  0  0  0  0  0  0  0  0
  181.0040  178.2460  139.5670 O   0  0  0  0  0  0  0  0  0  0  0  0
  181.2650  178.7510  138.2630 C   0  0  2  0  0  3  0  0  0  0  0  0
  180.0330  176.5900  136.3970 O   0  0  0  0  0  1  0  0  0  0  0  0
  183.3670  176.5090  136.0210 C   0  0  2  0  0  3  0  0  0  0  0  0
  182.2130  175.5780  136.3530 C   0  0  1  0  0  0  0  0  0  0  0  0
  183.5900  175.2930  136.9150 C   0  0  0  0  0  2  0  0  0  0  0  0
  181.8690  177.6720  137.4040 C   0  0  0  0  0  0  0  0  0  0  0  0
  181.1850  176.3760  137.1580 C   0  0  1  0  0  3  0  0  0  0  0  0
  181.8100  174.8520  135.2340 O   0  0  0  0  0  1  0  0  0  0  0  0
  183.0630  177.7340  136.8190 C   0  0  0  0  0  3  0  0  0  0  0  0
  182.1020  179.9910  138.3420 C   0  0  0  0  0  3  0  0  0  0  0  0
  181.5270  181.1900  138.3840 C   0  0  0  0  0  2  0  0  0  0  0  0
  183.8800  178.7810  146.0850 O   0  0  0  0  0  0  0  0  0  0  0  0
  184.7540  178.6270  147.0950 O   0  0  0  0  0  1  0  0  0  0  0  0
  190.9830  177.0600  142.0430 C   0  0  0  0  0  2  0  0  0  0  0  0
  190.5870  176.5600  140.6640 C   0  0  0  0  0  2  0  0  0  0  0  0
  191.4270  176.7420  138.3240 C   0  0  0  0  0  3  0  0  0  0  0  0
  191.5340  177.0640  139.6200 C   0  0  0  0  0  3  0  0  0  0  0  0
  189.4850  178.0660  136.6410 C   0  0  0  0  0  2  0  0  0  0  0  0
  186.9510  178.2150  136.9330 C   0  0  1  0  0  3  0  0  0  0  0  0
  187.9280  175.9250  136.6880 C   0  0  1  0  0  0  0  0  0  0  0  0
  186.5940  178.2590  135.4390 C   0  0  0  0  0  2  0  0  0  0  0  0
  186.9100  176.7740  137.4490 C   0  0  0  0  0  2  0  0  0  0  0  0
  190.4720  175.7520  136.2820 C   0  0  0  0  0  2  0  0  0  0  0  0
  187.5250  175.9080  135.2020 C   0  0  0  0  0  2  0  0  0  0  0  0
  190.3440  175.8450  137.7980 C   0  0  2  0  0  3  0  0  0  0  0  0
  187.4620  177.3140  134.5940 C   0  0  0  0  0  2  0  0  0  0  0  0
  189.3380  176.5550  136.8890 C   0  0  1  0  0  0  0  0  0  0  0  0
  188.3130  178.8510  137.2470 C   0  0  0  0  0  2  0  0  0  0  0  0
  187.8280  174.4980  137.2180 C   0  0  0  0  0  1  0  0  0  0  0  0
  1  2  1  0  0  0  0
  1  7  1  0  0  0  0
  2 10  1  0  0  0  0
  3 14  1  0  0  0  0
  3  6  1  0  0  0  0
  4 10  1  0  0  0  0
  5 11  1  0  0  0  0
  6  5  2  0  0  0  0
  7 11  2  0  0  0  0
  8  4  2  0  0  0  0
  9 13  1  0  0  0  0
 11 30  1  0  0  0  0
 12  9  1  0  0  0  0
 12 14  1  0  0  0  0
 13  8  1  0  0  0  0
 13  2  2  0  0  0  0
 14  1  2  0  0  0  0
 15 17  2  0  0  0  0
 16  6  1  0  0  0  0
 17 16  1  0  0  0  0
 18 17  1  0  0  0  0
 19 28  1  1  0  0  0
 19 18  1  0  0  0  0
 21 22  1  0  0  0  0
 21 27  1  1  0  0  0
 21 23  1  0  0  0  0
 22 26  1  6  0  0  0
 22 23  1  0  0  0  0
 22 25  1  0  0  0  0
 24 19  1  0  0  0  0
 25 20  1  6  0  0  0
 25 24  1  0  0  0  0
 27 24  2  0  0  0  0
 28 29  2  0  0  0  0
 30 31  1  0  0  0  0
 32  8  1  0  0  0  0
 33 32  1  0  0  0  0
 34 35  2  0  0  0  0
 35 33  1  0  0  0  0
 36 45  1  0  0  0  0
 36 46  1  0  0  0  0
 37 39  1  6  0  0  0
 37 46  1  0  0  0  0
 37 40  1  0  0  0  0
 38 45  1  0  0  0  0
 38 47  1  1  0  0  0
 38 40  1  0  0  0  0
 41 43  1  0  0  0  0
 42 38  1  0  0  0  0
 43 34  1  6  0  0  0
 44 42  1  0  0  0  0
 44 39  1  0  0  0  0
 45 41  1  6  0  0  0
 45 43  1  0  0  0  0
M  END
>  <MODEL>
5

>  <REMARK>
 VINA RESULT:      -8.6      2.343      7.306
  Name = 
  10 active torsions:
  status: ('A' for Active; 'I' for Inactive)
    1  A    between atoms: C_2  and  C_16
    2  A    between atoms: C_2  and  C_32
    3  A    between atoms: C_3  and  C_25
    4  A    between atoms: O_13  and  C_40
    5  A    between atoms: C_16  and  C_26
    6  A    between atoms: C_20  and  C_36
    7  A    between atoms: O_23  and  C_36
    8  A    between atoms: O_23  and  C_39
    9  A    between atoms: C_27  and  C_36
   10  A    between atoms: N_28  and  C_29
                            x       y       z     vdW  Elec       q    Type
                         _______ _______ _______ _____ _____    ______ ____

>  <TORSDO>
F 10

$$$$
=
 OpenBabel10222420233D

 47 54  0  0  1  0  0  0  0  0999 V2000
  188.7600  176.9480  138.0460 C   0  0  0  0  0  0  0  0  0  0  0  0
  187.7910  176.4910  137.0390 C   0  0  0  0  0  0  0  0  0  0  0  0
  189.1240  178.3040  140.0270 O   0  0  0  0  0  0  0  0  0  0  0  0
  186.8640  175.4580  135.4050 C   0  0  0  0  0  3  0  0  0  0  0  0
  191.1230  176.9580  140.0700 C   0  0  0  0  0  3  0  0  0  0  0  0
  190.2100  177.7100  140.6790 C   0  0  0  0  0  0  0  0  0  0  0  0
  190.1640  176.5860  137.8080 C   0  0  0  0  0  3  0  0  0  0  0  0
  185.9070  176.3040  135.9480 C   0  0  0  0  0  0  0  0  0  0  0  0
  186.0130  178.0280  137.8970 C   0  0  0  0  0  2  0  0  0  0  0  0
  187.9870  175.6090  136.0850 O   0  0  0  0  0  0  0  0  0  0  0  0
  191.1920  176.5740  138.6500 C   0  0  0  0  0  0  0  0  0  0  0  0
  186.8160  178.0170  139.2100 C   0  0  0  0  0  2  0  0  0  0  0  0
  186.5090  176.9470  137.0000 C   0  0  0  0  0  0  0  0  0  0  0  0
  188.3060  177.7320  139.0530 C   0  0  0  0  0  0  0  0  0  0  0  0
  189.1980  176.1750  142.9060 O   0  0  0  0  0  0  0  0  0  0  0  0
  190.4110  177.9920  142.0680 N   0  0  0  0  0  2  0  0  0  0  0  0
  189.7660  177.2820  143.1280 C   0  0  0  0  0  0  0  0  0  0  0  0
  189.7620  177.8270  144.4110 O   0  0  0  0  0  0  0  0  0  0  0  0
  189.3980  177.0590  145.5510 C   0  0  2  0  0  3  0  0  0  0  0  0
  186.4520  177.1260  144.5560 O   0  0  0  0  0  1  0  0  0  0  0  0
  186.5060  178.2390  147.7230 C   0  0  2  0  0  3  0  0  0  0  0  0
  186.0250  178.6710  146.3480 C   0  0  1  0  0  0  0  0  0  0  0  0
  186.4290  179.7190  147.3630 C   0  0  0  0  0  2  0  0  0  0  0  0
  188.1250  177.5960  146.1500 C   0  0  0  0  0  0  0  0  0  0  0  0
  187.0260  178.1500  145.3160 C   0  0  1  0  0  3  0  0  0  0  0  0
  184.6640  178.4220  146.1850 O   0  0  0  0  0  1  0  0  0  0  0  0
  187.8610  177.6740  147.4520 C   0  0  0  0  0  3  0  0  0  0  0  0
  190.5360  176.9960  146.5240 C   0  0  0  0  0  3  0  0  0  0  0  0
  191.6790  176.4070  146.1850 C   0  0  0  0  0  2  0  0  0  0  0  0
  192.4070  176.1150  138.1430 O   0  0  0  0  0  0  0  0  0  0  0  0
  193.5610  176.7470  138.4200 O   0  0  0  0  0  1  0  0  0  0  0  0
  184.4720  176.3740  135.5530 C   0  0  0  0  0  2  0  0  0  0  0  0
  183.7090  175.2460  136.2270 C   0  0  0  0  0  2  0  0  0  0  0  0
  181.4210  175.9140  136.9570 C   0  0  0  0  0  3  0  0  0  0  0  0
  182.2350  175.4020  136.0230 C   0  0  0  0  0  3  0  0  0  0  0  0
  180.4620  178.5240  137.7460 C   0  0  0  0  0  2  0  0  0  0  0  0
  181.8080  180.6060  138.3590 C   0  0  1  0  0  3  0  0  0  0  0  0
  182.1590  178.5750  139.7770 C   0  0  1  0  0  0  0  0  0  0  0  0
  180.8090  181.1830  139.3730 C   0  0  0  0  0  2  0  0  0  0  0  0
  182.8520  179.7410  139.0710 C   0  0  0  0  0  2  0  0  0  0  0  0
  180.7300  176.4910  139.2490 C   0  0  0  0  0  2  0  0  0  0  0  0
  181.2140  179.1540  140.8460 C   0  0  0  0  0  2  0  0  0  0  0  0
  181.9150  176.3790  138.2960 C   0  0  2  0  0  3  0  0  0  0  0  0
  180.1640  180.1000  140.2520 C   0  0  0  0  0  2  0  0  0  0  0  0
  181.3790  177.7520  138.7110 C   0  0  1  0  0  0  0  0  0  0  0  0
  181.1350  179.8050  137.2360 C   0  0  0  0  0  2  0  0  0  0  0  0
  183.2350  177.7630  140.4920 C   0  0  0  0  0  1  0  0  0  0  0  0
  1 14  2  0  0  0  0
  2  1  1  0  0  0  0
  3  6  1  0  0  0  0
  4  8  2  0  0  0  0
  4 10  1  0  0  0  0
  5  6  2  0  0  0  0
  6 16  1  0  0  0  0
  7  1  1  0  0  0  0
  7 11  2  0  0  0  0
  8 13  1  0  0  0  0
  9 12  1  0  0  0  0
 10  2  1  0  0  0  0
 11  5  1  0  0  0  0
 13  2  2  0  0  0  0
 13  9  1  0  0  0  0
 14 12  1  0  0  0  0
 14  3  1  0  0  0  0
 15 17  2  0  0  0  0
 16 17  1  0  0  0  0
 17 18  1  0  0  0  0
 18 19  1  0  0  0  0
 19 24  1  0  0  0  0
 19 28  1  1  0  0  0
 21 23  1  1  0  0  0
 22 26  1  6  0  0  0
 22 23  1  0  0  0  0
 22 21  1  0  0  0  0
 24 27  2  0  0  0  0
 25 20  1  1  0  0  0
 25 24  1  0  0  0  0
 25 22  1  0  0  0  0
 27 21  1  0  0  0  0
 29 28  2  0  0  0  0
 30 31  1  0  0  0  0
 30 11  1  0  0  0  0
 32  8  1  0  0  0  0
 32 33  1  0  0  0  0
 35 33  1  0  0  0  0
 35 34  2  0  0  0  0
 37 46  1  6  0  0  0
 37 40  1  0  0  0  0
 37 39  1  0  0  0  0
 38 47  1  1  0  0  0
 38 42  1  0  0  0  0
 39 44  1  0  0  0  0
 40 38  1  0  0  0  0
 43 34  1  6  0  0  0
 43 45  1  0  0  0  0
 43 41  1  0  0  0  0
 44 42  1  0  0  0  0
 45 36  1  6  0  0  0
 45 41  1  0  0  0  0
 45 38  1  0  0  0  0
 46 36  1  0  0  0  0
M  END
>  <MODEL>
6

>  <REMARK>
 VINA RESULT:      -8.5      2.977      9.499
  Name = 
  10 active torsions:
  status: ('A' for Active; 'I' for Inactive)
    1  A    between atoms: C_2  and  C_16
    2  A    between atoms: C_2  and  C_32
    3  A    between atoms: C_3  and  C_25
    4  A    between atoms: O_13  and  C_40
    5  A    between atoms: C_16  and  C_26
    6  A    between atoms: C_20  and  C_36
    7  A    between atoms: O_23  and  C_36
    8  A    between atoms: O_23  and  C_39
    9  A    between atoms: C_27  and  C_36
   10  A    between atoms: N_28  and  C_29
                            x       y       z     vdW  Elec       q    Type
                         _______ _______ _______ _____ _____    ______ ____

>  <TORSDO>
F 10

$$$$
=
 OpenBabel10222420233D

 47 54  0  0  1  0  0  0  0  0999 V2000
  186.8860  178.2560  138.6110 C   0  0  0  0  0  0  0  0  0  0  0  0
  185.8820  178.4560  139.6670 C   0  0  0  0  0  0  0  0  0  0  0  0
  189.2500  178.0910  138.0790 O   0  0  0  0  0  0  0  0  0  0  0  0
  184.0280  178.6080  140.7310 C   0  0  0  0  0  3  0  0  0  0  0  0
  188.3010  177.1860  136.0560 C   0  0  0  0  0  3  0  0  0  0  0  0
  189.3070  177.3100  136.9200 C   0  0  0  0  0  0  0  0  0  0  0  0
  186.3830  178.2410  137.2310 C   0  0  0  0  0  3  0  0  0  0  0  0
  185.0440  178.8430  141.6470 C   0  0  0  0  0  0  0  0  0  0  0  0
  187.6320  178.9610  141.3830 C   0  0  0  0  0  2  0  0  0  0  0  0
  184.5750  178.3900  139.5490 O   0  0  0  0  0  0  0  0  0  0  0  0
  186.9590  177.7870  136.1220 C   0  0  0  0  0  0  0  0  0  0  0  0
  188.5860  178.1930  140.4510 C   0  0  0  0  0  2  0  0  0  0  0  0
  186.2240  178.7290  140.9560 C   0  0  0  0  0  0  0  0  0  0  0  0
  188.1880  178.1930  138.9780 C   0  0  0  0  0  0  0  0  0  0  0  0
  190.6840  175.3100  138.4820 O   0  0  0  0  0  0  0  0  0  0  0  0
  190.5430  176.6720  136.5850 N   0  0  0  0  0  2  0  0  0  0  0  0
  191.2530  175.7970  137.4640 C   0  0  0  0  0  0  0  0  0  0  0  0
  192.5860  175.4890  137.1920 O   0  0  0  0  0  0  0  0  0  0  0  0
  193.0860  174.1620  137.2990 C   0  0  2  0  0  3  0  0  0  0  0  0
  195.3730  176.0210  136.3060 O   0  0  0  0  0  1  0  0  0  0  0  0
  196.6470  173.9500  138.6200 C   0  0  2  0  0  3  0  0  0  0  0  0
  196.9000  174.3870  137.1870 C   0  0  1  0  0  0  0  0  0  0  0  0
  197.2930  172.9910  137.6250 C   0  0  0  0  0  2  0  0  0  0  0  0
  194.5690  174.1890  137.5550 C   0  0  0  0  0  0  0  0  0  0  0  0
  195.5440  174.6520  136.5310 C   0  0  1  0  0  3  0  0  0  0  0  0
  197.9060  175.3490  137.1200 O   0  0  0  0  0  1  0  0  0  0  0  0
  195.1650  173.7780  138.6710 C   0  0  0  0  0  3  0  0  0  0  0  0
  192.7020  173.3600  136.0930 C   0  0  0  0  0  3  0  0  0  0  0  0
  193.2370  172.1600  135.8850 C   0  0  0  0  0  2  0  0  0  0  0  0
  186.2000  177.8490  134.9550 O   0  0  0  0  0  0  0  0  0  0  0  0
  185.0930  177.1020  134.8040 O   0  0  0  0  0  1  0  0  0  0  0  0
  184.8760  179.0280  143.1160 C   0  0  0  0  0  2  0  0  0  0  0  0
  185.3500  177.7780  143.8380 C   0  0  0  0  0  2  0  0  0  0  0  0
  187.0550  178.2500  145.5950 C   0  0  0  0  0  3  0  0  0  0  0  0
  185.7720  178.0970  145.2380 C   0  0  0  0  0  3  0  0  0  0  0  0
  189.1930  176.5160  146.4770 C   0  0  0  0  0  2  0  0  0  0  0  0
  191.6720  177.0550  146.7700 C   0  0  1  0  0  3  0  0  0  0  0  0
  190.7230  177.3190  144.4700 C   0  0  1  0  0  0  0  0  0  0  0  0
  192.2100  175.6570  146.4240 C   0  0  0  0  0  2  0  0  0  0  0  0
  191.6440  177.9400  145.5210 C   0  0  0  0  0  2  0  0  0  0  0  0
  188.2470  176.6760  144.1230 C   0  0  0  0  0  2  0  0  0  0  0  0
  191.3040  175.9500  144.0690 C   0  0  0  0  0  2  0  0  0  0  0  0
  188.1890  178.1150  144.6200 C   0  0  2  0  0  3  0  0  0  0  0  0
  191.4470  175.0000  145.2640 C   0  0  0  0  0  2  0  0  0  0  0  0
  189.3020  177.1750  145.0910 C   0  0  1  0  0  0  0  0  0  0  0  0
  190.2860  177.0240  147.4270 C   0  0  0  0  0  2  0  0  0  0  0  0
  190.7510  178.2200  143.2400 C   0  0  0  0  0  1  0  0  0  0  0  0
  1 14  2  0  0  0  0
  1  2  1  0  0  0  0
  2 13  2  0  0  0  0
  3 14  1  0  0  0  0
  4  8  2  0  0  0  0
  5 11  1  0  0  0  0
  5  6  2  0  0  0  0
  6  3  1  0  0  0  0
  7  1  1  0  0  0  0
  8 32  1  0  0  0  0
 10  2  1  0  0  0  0
 10  4  1  0  0  0  0
 11  7  2  0  0  0  0
 12  9  1  0  0  0  0
 13  9  1  0  0  0  0
 13  8  1  0  0  0  0
 14 12  1  0  0  0  0
 16  6  1  0  0  0  0
 16 17  1  0  0  0  0
 17 15  2  0  0  0  0
 18 19  1  0  0  0  0
 18 17  1  0  0  0  0
 19 28  1  6  0  0  0
 19 24  1  0  0  0  0
 21 23  1  6  0  0  0
 21 27  1  0  0  0  0
 22 26  1  6  0  0  0
 22 23  1  0  0  0  0
 22 21  1  0  0  0  0
 24 27  2  0  0  0  0
 25 20  1  1  0  0  0
 25 22  1  0  0  0  0
 25 24  1  0  0  0  0
 29 28  2  0  0  0  0
 30 11  1  0  0  0  0
 31 30  1  0  0  0  0
 32 33  1  0  0  0  0
 33 35  1  0  0  0  0
 35 34  2  0  0  0  0
 36 46  1  0  0  0  0
 37 40  1  6  0  0  0
 37 46  1  0  0  0  0
 38 47  1  6  0  0  0
 38 45  1  0  0  0  0
 38 40  1  0  0  0  0
 39 37  1  0  0  0  0
 41 43  1  0  0  0  0
 42 38  1  0  0  0  0
 42 44  1  0  0  0  0
 43 45  1  0  0  0  0
 43 34  1  1  0  0  0
 44 39  1  0  0  0  0
 45 41  1  6  0  0  0
 45 36  1  0  0  0  0
M  END
>  <MODEL>
7

>  <REMARK>
 VINA RESULT:      -8.2      3.764      5.084
  Name = 
  10 active torsions:
  status: ('A' for Active; 'I' for Inactive)
    1  A    between atoms: C_2  and  C_16
    2  A    between atoms: C_2  and  C_32
    3  A    between atoms: C_3  and  C_25
    4  A    between atoms: O_13  and  C_40
    5  A    between atoms: C_16  and  C_26
    6  A    between atoms: C_20  and  C_36
    7  A    between atoms: O_23  and  C_36
    8  A    between atoms: O_23  and  C_39
    9  A    between atoms: C_27  and  C_36
   10  A    between atoms: N_28  and  C_29
                            x       y       z     vdW  Elec       q    Type
                         _______ _______ _______ _____ _____    ______ ____

>  <TORSDO>
F 10

$$$$
=
 OpenBabel10222420233D

 47 54  0  0  1  0  0  0  0  0999 V2000
  187.4660  177.9840  142.7170 C   0  0  0  0  0  0  0  0  0  0  0  0
  188.7510  177.4510  142.2410 C   0  0  0  0  0  0  0  0  0  0  0  0
  185.4600  179.2260  142.1410 O   0  0  0  0  0  0  0  0  0  0  0  0
  190.6190  176.4070  142.1210 C   0  0  0  0  0  3  0  0  0  0  0  0
  184.7530  178.2320  144.2210 C   0  0  0  0  0  3  0  0  0  0  0  0
  184.4830  178.7730  143.0350 C   0  0  0  0  0  0  0  0  0  0  0  0
  187.2120  177.8800  144.1600 C   0  0  0  0  0  3  0  0  0  0  0  0
  190.4250  177.0370  140.9000 C   0  0  0  0  0  0  0  0  0  0  0  0
  188.5320  178.6000  140.0300 C   0  0  0  0  0  2  0  0  0  0  0  0
  189.5930  176.6900  142.9040 O   0  0  0  0  0  0  0  0  0  0  0  0
  186.0680  177.9760  144.8300 C   0  0  0  0  0  0  0  0  0  0  0  0
  187.0240  178.6220  140.3340 C   0  0  0  0  0  2  0  0  0  0  0  0
  189.2200  177.6890  140.9860 C   0  0  0  0  0  0  0  0  0  0  0  0
  186.6640  178.6020  141.8160 C   0  0  0  0  0  0  0  0  0  0  0  0
  183.1390  177.8650  140.6460 O   0  0  0  0  0  0  0  0  0  0  0  0
  183.1060  178.9770  142.7040 N   0  0  0  0  0  2  0  0  0  0  0  0
  182.5290  178.6330  141.4420 C   0  0  0  0  0  0  0  0  0  0  0  0
  181.2860  179.1600  141.0940 O   0  0  0  0  0  0  0  0  0  0  0  0
  180.7590  179.0320  139.7790 C   0  0  2  0  0  3  0  0  0  0  0  0
  179.0840  181.5600  140.4650 O   0  0  0  0  0  1  0  0  0  0  0  0
  181.1800  182.3490  137.9640 C   0  0  2  0  0  3  0  0  0  0  0  0
  179.6970  182.3900  138.2940 C   0  0  1  0  0  0  0  0  0  0  0  0
  180.1400  182.2320  136.8540 C   0  0  0  0  0  2  0  0  0  0  0  0
  180.6400  180.3890  139.1370 C   0  0  0  0  0  0  0  0  0  0  0  0
  179.3740  181.1680  139.1550 C   0  0  1  0  0  3  0  0  0  0  0  0
  179.3050  183.6600  138.7120 O   0  0  0  0  0  1  0  0  0  0  0  0
  181.6070  181.0090  138.4660 C   0  0  0  0  0  3  0  0  0  0  0  0
  179.4700  178.2680  139.8040 C   0  0  0  0  0  3  0  0  0  0  0  0
  179.2370  177.3740  140.7610 C   0  0  0  0  0  2  0  0  0  0  0  0
  186.1340  177.7650  146.2070 O   0  0  0  0  0  0  0  0  0  0  0  0
  185.8500  178.7500  147.0760 O   0  0  0  0  0  1  0  0  0  0  0  0
  191.2880  176.8970  139.6930 C   0  0  0  0  0  2  0  0  0  0  0  0
  190.5510  176.0890  138.6390 C   0  0  0  0  0  2  0  0  0  0  0  0
  190.5820  175.8300  136.1600 C   0  0  0  0  0  3  0  0  0  0  0  0
  191.1060  176.3560  137.2750 C   0  0  0  0  0  3  0  0  0  0  0  0
  188.0790  177.1270  135.5180 C   0  0  0  0  0  2  0  0  0  0  0  0
  185.9420  177.2600  136.9110 C   0  0  1  0  0  3  0  0  0  0  0  0
  186.7290  174.9750  136.2630 C   0  0  1  0  0  0  0  0  0  0  0  0
  184.9540  177.2910  135.7340 C   0  0  0  0  0  2  0  0  0  0  0  0
  186.1500  175.8230  137.3960 C   0  0  0  0  0  2  0  0  0  0  0  0
  188.8240  174.8170  134.7630 C   0  0  0  0  0  2  0  0  0  0  0  0
  185.7040  174.9440  135.1140 C   0  0  0  0  0  2  0  0  0  0  0  0
  189.3860  174.9200  136.1760 C   0  0  2  0  0  3  0  0  0  0  0  0
  185.3620  176.3460  134.5940 C   0  0  0  0  0  2  0  0  0  0  0  0
  188.0730  175.6170  135.8100 C   0  0  1  0  0  0  0  0  0  0  0  0
  187.2940  177.9080  136.5810 C   0  0  0  0  0  2  0  0  0  0  0  0
  186.8900  173.5520  136.7870 C   0  0  0  0  0  1  0  0  0  0  0  0
  1  7  1  0  0  0  0
  2  1  1  0  0  0  0
  2 10  1  0  0  0  0
  3  6  1  0  0  0  0
  4 10  1  0  0  0  0
  5 11  1  0  0  0  0
  6  5  2  0  0  0  0
  7 11  2  0  0  0  0
  8 13  1  0  0  0  0
  8  4  2  0  0  0  0
  9 12  1  0  0  0  0
  9 13  1  0  0  0  0
 11 30  1  0  0  0  0
 12 14  1  0  0  0  0
 13  2  2  0  0  0  0
 14  3  1  0  0  0  0
 14  1  2  0  0  0  0
 15 17  2  0  0  0  0
 16  6  1  0  0  0  0
 17 16  1  0  0  0  0
 18 17  1  0  0  0  0
 19 28  1  1  0  0  0
 19 18  1  0  0  0  0
 21 23  1  6  0  0  0
 21 22  1  0  0  0  0
 21 27  1  0  0  0  0
 22 26  1  1  0  0  0
 22 25  1  0  0  0  0
 23 22  1  0  0  0  0
 24 25  1  0  0  0  0
 24 19  1  0  0  0  0
 25 20  1  1  0  0  0
 27 24  2  0  0  0  0
 28 29  2  0  0  0  0
 30 31  1  0  0  0  0
 32  8  1  0  0  0  0
 33 32  1  0  0  0  0
 34 35  2  0  0  0  0
 35 33  1  0  0  0  0
 36 45  1  0  0  0  0
 36 46  1  0  0  0  0
 37 39  1  6  0  0  0
 37 40  1  0  0  0  0
 38 47  1  1  0  0  0
 38 40  1  0  0  0  0
 41 43  1  0  0  0  0
 42 38  1  0  0  0  0
 43 34  1  6  0  0  0
 44 42  1  0  0  0  0
 44 39  1  0  0  0  0
 45 41  1  6  0  0  0
 45 43  1  0  0  0  0
 45 38  1  0  0  0  0
 46 37  1  0  0  0  0
M  END
>  <MODEL>
8

>  <REMARK>
 VINA RESULT:      -7.7      2.922      8.607
  Name = 
  10 active torsions:
  status: ('A' for Active; 'I' for Inactive)
    1  A    between atoms: C_2  and  C_16
    2  A    between atoms: C_2  and  C_32
    3  A    between atoms: C_3  and  C_25
    4  A    between atoms: O_13  and  C_40
    5  A    between atoms: C_16  and  C_26
    6  A    between atoms: C_20  and  C_36
    7  A    between atoms: O_23  and  C_36
    8  A    between atoms: O_23  and  C_39
    9  A    between atoms: C_27  and  C_36
   10  A    between atoms: N_28  and  C_29
                            x       y       z     vdW  Elec       q    Type
                         _______ _______ _______ _____ _____    ______ ____

>  <TORSDO>
F 10

$$$$
=
 OpenBabel10222420233D

 47 54  0  0  1  0  0  0  0  0999 V2000
  187.0270  177.3600  137.6440 C   0  0  0  0  0  0  0  0  0  0  0  0
  185.9680  176.8140  136.7820 C   0  0  0  0  0  0  0  0  0  0  0  0
  187.5460  178.7280  139.5830 O   0  0  0  0  0  0  0  0  0  0  0  0
  184.9160  175.7070  135.2790 C   0  0  0  0  0  3  0  0  0  0  0  0
  189.6550  177.5970  139.2920 C   0  0  0  0  0  3  0  0  0  0  0  0
  188.7730  178.2440  140.0510 C   0  0  0  0  0  0  0  0  0  0  0  0
  188.4080  177.1500  137.1910 C   0  0  0  0  0  3  0  0  0  0  0  0
  183.9710  176.4420  135.9800 C   0  0  0  0  0  0  0  0  0  0  0  0
  184.1930  178.1490  137.9350 C   0  0  0  0  0  2  0  0  0  0  0  0
  186.1070  175.9680  135.7870 O   0  0  0  0  0  0  0  0  0  0  0  0
  189.5480  177.2370  137.8690 C   0  0  0  0  0  0  0  0  0  0  0  0
  185.1820  178.2080  139.1120 C   0  0  0  0  0  2  0  0  0  0  0  0
  184.6560  177.1350  136.9470 C   0  0  0  0  0  0  0  0  0  0  0  0
  186.6530  178.0820  138.7280 C   0  0  0  0  0  0  0  0  0  0  0  0
  188.8680  176.3670  142.2430 O   0  0  0  0  0  0  0  0  0  0  0  0
  189.1520  178.5310  141.4000 N   0  0  0  0  0  2  0  0  0  0  0  0
  189.0400  177.5970  142.4770 C   0  0  0  0  0  0  0  0  0  0  0  0
  189.1170  178.0570  143.7910 O   0  0  0  0  0  0  0  0  0  0  0  0
  188.8310  177.2130  144.8990 C   0  0  2  0  0  3  0  0  0  0  0  0
  185.8490  177.5050  144.0680 O   0  0  0  0  0  1  0  0  0  0  0  0
  186.0890  178.1970  147.3440 C   0  0  2  0  0  3  0  0  0  0  0  0
  185.5630  178.8190  146.0610 C   0  0  1  0  0  0  0  0  0  0  0  0
  186.0540  179.7130  147.1800 C   0  0  0  0  0  2  0  0  0  0  0  0
  187.6090  177.7090  145.6230 C   0  0  0  0  0  0  0  0  0  0  0  0
  186.4960  178.4020  144.9220 C   0  0  1  0  0  3  0  0  0  0  0  0
  184.1870  178.6370  145.9360 O   0  0  0  0  0  1  0  0  0  0  0  0
  187.4070  177.6270  146.9360 C   0  0  0  0  0  3  0  0  0  0  0  0
  190.0360  177.0810  145.7800 C   0  0  0  0  0  3  0  0  0  0  0  0
  191.2430  177.3970  145.3200 C   0  0  0  0  0  2  0  0  0  0  0  0
  190.7130  176.9130  137.1750 O   0  0  0  0  0  0  0  0  0  0  0  0
  190.7850  175.8070  136.4150 O   0  0  0  0  0  1  0  0  0  0  0  0
  182.4930  176.3660  135.8060 C   0  0  0  0  0  2  0  0  0  0  0  0
  182.0840  177.2050  134.6070 C   0  0  0  0  0  2  0  0  0  0  0  0
  180.8430  178.7070  136.1620 C   0  0  0  0  0  3  0  0  0  0  0  0
  181.5570  178.5370  135.0410 C   0  0  0  0  0  3  0  0  0  0  0  0
  180.4990  179.4810  138.9260 C   0  0  0  0  0  2  0  0  0  0  0  0
  181.7390  178.6310  140.9920 C   0  0  1  0  0  3  0  0  0  0  0  0
  180.4520  176.9400  139.6710 C   0  0  1  0  0  0  0  0  0  0  0  0
  180.5770  178.7900  141.9850 C   0  0  0  0  0  2  0  0  0  0  0  0
  181.7590  177.2130  140.4160 C   0  0  0  0  0  2  0  0  0  0  0  0
  179.1010  177.7910  137.6420 C   0  0  0  0  0  2  0  0  0  0  0  0
  179.2950  177.0250  140.6840 C   0  0  0  0  0  2  0  0  0  0  0  0
  180.5040  177.5750  137.0880 C   0  0  2  0  0  3  0  0  0  0  0  0
  179.2230  178.3890  141.3810 C   0  0  0  0  0  2  0  0  0  0  0  0
  180.3020  178.0040  138.5440 C   0  0  1  0  0  0  0  0  0  0  0  0
  181.7070  179.6630  139.8560 C   0  0  0  0  0  2  0  0  0  0  0  0
  180.5110  175.5110  139.1430 C   0  0  0  0  0  1  0  0  0  0  0  0
  1 14  2  0  0  0  0
  2 13  2  0  0  0  0
  2  1  1  0  0  0  0
  3  6  1  0  0  0  0
  4 10  1  0  0  0  0
  4  8  2  0  0  0  0
  5  6  2  0  0  0  0
  6 16  1  0  0  0  0
  7  1  1  0  0  0  0
  7 11  2  0  0  0  0
  8 13  1  0  0  0  0
  9 12  1  0  0  0  0
 10  2  1  0  0  0  0
 11  5  1  0  0  0  0
 13  9  1  0  0  0  0
 14 12  1  0  0  0  0
 14  3  1  0  0  0  0
 15 17  2  0  0  0  0
 16 17  1  0  0  0  0
 17 18  1  0  0  0  0
 18 19  1  0  0  0  0
 19 24  1  0  0  0  0
 19 28  1  1  0  0  0
 21 27  1  6  0  0  0
 22 26  1  6  0  0  0
 22 23  1  0  0  0  0
 22 21  1  0  0  0  0
 23 21  1  0  0  0  0
 24 27  2  0  0  0  0
 25 20  1  6  0  0  0
 25 24  1  0  0  0  0
 25 22  1  0  0  0  0
 29 28  2  0  0  0  0
 30 11  1  0  0  0  0
 31 30  1  0  0  0  0
 32  8  1  0  0  0  0
 33 35  1  0  0  0  0
 33 32  1  0  0  0  0
 35 34  2  0  0  0  0
 36 46  1  0  0  0  0
 37 46  1  6  0  0  0
 37 39  1  0  0  0  0
 38 47  1  6  0  0  0
 38 40  1  0  0  0  0
 38 42  1  0  0  0  0
 40 37  1  0  0  0  0
 42 44  1  0  0  0  0
 43 34  1  6  0  0  0
 43 41  1  0  0  0  0
 43 45  1  0  0  0  0
 44 39  1  0  0  0  0
 45 41  1  6  0  0  0
 45 36  1  0  0  0  0
 45 38  1  0  0  0  0
M  END
>  <MODEL>
9

>  <REMARK>
 VINA RESULT:      -7.7      2.606      9.165
  Name = 
  10 active torsions:
  status: ('A' for Active; 'I' for Inactive)
    1  A    between atoms: C_2  and  C_16
    2  A    between atoms: C_2  and  C_32
    3  A    between atoms: C_3  and  C_25
    4  A    between atoms: O_13  and  C_40
    5  A    between atoms: C_16  and  C_26
    6  A    between atoms: C_20  and  C_36
    7  A    between atoms: O_23  and  C_36
    8  A    between atoms: O_23  and  C_39
    9  A    between atoms: C_27  and  C_36
   10  A    between atoms: N_28  and  C_29
                            x       y       z     vdW  Elec       q    Type
                         _______ _______ _______ _____ _____    ______ ____

>  <TORSDO>
F 10

$$$$
