=
 OpenBabel10222416113D

 26 31  0  0  1  0  0  0  0  0999 V2000
  187.7070  177.4960  142.3820 C   0  0  1  0  0  3  0  0  0  0  0  0
  187.8980  177.7840  139.7290 C   0  0  2  0  0  3  0  0  0  0  0  0
  189.1390  177.2880  142.3770 N   0  0  0  0  0  0  0  0  0  0  0  0
  186.8830  177.6040  143.4290 C   0  0  0  0  0  2  0  0  0  0  0  0
  188.8090  178.5120  140.5080 C   0  0  2  0  0  0  0  0  0  0  0  0
  188.8490  178.6810  139.0150 C   0  0  1  0  0  3  0  0  0  0  0  0
  189.7520  177.6500  141.1610 O   0  0  0  0  0  0  0  0  0  0  0  0
  187.5970  178.0890  141.1690 N   0  0  2  0  0  0  0  0  0  0  0  0
  192.2620  176.1520  146.9800 N   0  0  0  0  0  0  0  0  0  0  0  0
  190.4710  177.4620  147.2740 C   0  0  0  0  0  3  0  0  0  0  0  0
  189.5120  177.5840  144.9020 C   0  0  0  0  0  3  0  0  0  0  0  0
  191.0230  176.2200  143.4190 C   0  0  0  0  0  3  0  0  0  0  0  0
  189.9350  177.0180  143.5460 C   0  0  0  0  0  0  0  0  0  0  0  0
  191.6090  176.8020  147.8610 N   0  0  0  0  0  2  0  0  0  0  0  0
  191.9010  175.8590  144.5570 C   0  0  0  0  0  3  0  0  0  0  0  0
  190.4630  177.1820  145.9810 C   0  0  0  0  0  0  0  0  0  0  0  0
  191.5910  176.3440  145.7510 C   0  0  0  0  0  0  0  0  0  0  0  0
  181.2170  179.6580  143.3770 Cl  0  0  0  0  0  0  0  0  0  0  0  0
  183.6010  179.0450  144.5620 C   0  0  0  0  0  3  0  0  0  0  0  0
  184.7490  178.1180  142.1890 C   0  0  0  0  0  3  0  0  0  0  0  0
  184.9150  178.5680  144.5610 C   0  0  0  0  0  3  0  0  0  0  0  0
  183.4360  178.5960  142.1890 C   0  0  0  0  0  3  0  0  0  0  0  0
  185.4990  178.1050  143.3760 C   0  0  0  0  0  0  0  0  0  0  0  0
  182.8620  179.0600  143.3760 C   0  0  0  0  0  0  0  0  0  0  0  0
  189.9260  177.8580  138.3870 C   0  0  0  0  0  3  0  0  0  0  0  0
  189.8400  177.5230  137.1540 N   0  0  0  0  0  2  0  0  0  0  0  0
  1  4  1  1  0  0  0
  2  5  1  0  0  0  0
  2  8  1  0  0  0  0
  3  1  1  0  0  0  0
  3 13  1  0  0  0  0
  5  7  1  0  0  0  0
  5  8  1  0  0  0  0
  6  2  1  0  0  0  0
  6  5  1  0  0  0  0
  7  3  1  0  0  0  0
  8  1  1  0  0  0  0
  9 14  1  0  0  0  0
 10 14  1  0  0  0  0
 11 16  1  0  0  0  0
 12 13  1  0  0  0  0
 12 15  2  0  0  0  0
 13 11  2  0  0  0  0
 15 17  1  0  0  0  0
 16 10  2  0  0  0  0
 17 16  1  0  0  0  0
 17  9  2  0  0  0  0
 20 23  1  0  0  0  0
 21 19  1  0  0  0  0
 22 20  2  0  0  0  0
 22 24  1  0  0  0  0
 23  4  1  0  0  0  0
 23 21  2  0  0  0  0
 24 18  1  0  0  0  0
 24 19  2  0  0  0  0
 25  6  1  0  0  0  0
 26 25  2  0  0  0  0
M  END
>  <MODEL>
1

>  <REMARK>
 VINA RESULT:      -9.3      0.000      0.000
  Name = 
  3 active torsions:
  status: ('A' for Active; 'I' for Inactive)
    1  A    between atoms: C_4  and  C_21
    2  A    between atoms: N_12  and  C_14
    3  A    between atoms: C_17  and  C_19
                            x       y       z     vdW  Elec       q    Type
                         _______ _______ _______ _____ _____    ______ ____

>  <TORSDO>
F 3

$$$$
=
 OpenBabel10222416113D

 26 31  0  0  1  0  0  0  0  0999 V2000
  188.6850  177.9030  142.9280 C   0  0  1  0  0  3  0  0  0  0  0  0
  190.4410  177.7430  140.9170 C   0  0  2  0  0  3  0  0  0  0  0  0
  187.6720  178.1030  141.9150 N   0  0  0  0  0  0  0  0  0  0  0  0
  188.5280  177.7490  144.2460 C   0  0  0  0  0  2  0  0  0  0  0  0
  189.2750  176.9730  140.7970 C   0  0  2  0  0  0  0  0  0  0  0  0
  190.3120  176.8770  139.7120 C   0  0  1  0  0  3  0  0  0  0  0  0
  188.1150  177.7970  140.6130 O   0  0  0  0  0  0  0  0  0  0  0  0
  189.6450  177.3700  142.1350 N   0  0  2  0  0  0  0  0  0  0  0  0
  182.1580  178.9910  142.9360 N   0  0  0  0  0  0  0  0  0  0  0  0
  183.4760  178.6790  144.7170 C   0  0  0  0  0  3  0  0  0  0  0  0
  185.7700  178.3510  143.6260 C   0  0  0  0  0  3  0  0  0  0  0  0
  185.4370  178.5170  141.1340 C   0  0  0  0  0  3  0  0  0  0  0  0
  186.2720  178.3120  142.1820 C   0  0  0  0  0  0  0  0  0  0  0  0
  182.1530  178.9300  144.2090 N   0  0  0  0  0  2  0  0  0  0  0  0
  183.9840  178.7620  141.2920 C   0  0  0  0  0  3  0  0  0  0  0  0
  184.2960  178.5860  143.6840 C   0  0  0  0  0  0  0  0  0  0  0  0
  183.4940  178.7830  142.5240 C   0  0  0  0  0  0  0  0  0  0  0  0
  192.6560  175.7890  148.1770 Cl  0  0  0  0  0  0  0  0  0  0  0  0
  190.1920  176.7240  147.4590 C   0  0  0  0  0  3  0  0  0  0  0  0
  190.8450  176.8900  144.7470 C   0  0  0  0  0  3  0  0  0  0  0  0
  189.2430  177.1750  146.5370 C   0  0  0  0  0  3  0  0  0  0  0  0
  191.7950  176.4380  145.6670 C   0  0  0  0  0  3  0  0  0  0  0  0
  189.5600  177.2590  145.1770 C   0  0  0  0  0  0  0  0  0  0  0  0
  191.4670  176.3540  147.0240 C   0  0  0  0  0  0  0  0  0  0  0  0
  189.9650  177.7230  138.5300 C   0  0  0  0  0  3  0  0  0  0  0  0
  190.0780  177.2470  137.3460 N   0  0  0  0  0  2  0  0  0  0  0  0
  1  4  1  1  0  0  0
  2  8  1  0  0  0  0
  3 13  1  0  0  0  0
  3  1  1  0  0  0  0
  4 23  1  0  0  0  0
  5  2  1  0  0  0  0
  5  8  1  0  0  0  0
  6  5  1  0  0  0  0
  6  2  1  0  0  0  0
  7  5  1  0  0  0  0
  7  3  1  0  0  0  0
  8  1  1  0  0  0  0
  9 14  1  0  0  0  0
 11 16  1  0  0  0  0
 12 15  2  0  0  0  0
 12 13  1  0  0  0  0
 13 11  2  0  0  0  0
 14 10  1  0  0  0  0
 15 17  1  0  0  0  0
 16 10  2  0  0  0  0
 17  9  2  0  0  0  0
 17 16  1  0  0  0  0
 20 23  2  0  0  0  0
 20 22  1  0  0  0  0
 21 19  2  0  0  0  0
 22 24  2  0  0  0  0
 23 21  1  0  0  0  0
 24 19  1  0  0  0  0
 24 18  1  0  0  0  0
 25  6  1  0  0  0  0
 26 25  2  0  0  0  0
M  END
>  <MODEL>
2

>  <REMARK>
 VINA RESULT:      -9.2      3.226      6.520
  Name = 
  3 active torsions:
  status: ('A' for Active; 'I' for Inactive)
    1  A    between atoms: C_4  and  C_21
    2  A    between atoms: N_12  and  C_14
    3  A    between atoms: C_17  and  C_19
                            x       y       z     vdW  Elec       q    Type
                         _______ _______ _______ _____ _____    ______ ____

>  <TORSDO>
F 3

$$$$
=
 OpenBabel10222416113D

 26 31  0  0  1  0  0  0  0  0999 V2000
  188.4240  178.0070  143.1080 C   0  0  1  0  0  3  0  0  0  0  0  0
  190.0650  177.9110  140.9970 C   0  0  2  0  0  3  0  0  0  0  0  0
  187.3550  178.2320  142.1590 N   0  0  0  0  0  0  0  0  0  0  0  0
  188.3420  177.8160  144.4280 C   0  0  0  0  0  2  0  0  0  0  0  0
  188.8960  177.1400  140.9210 C   0  0  2  0  0  0  0  0  0  0  0  0
  189.8700  177.0790  139.7770 C   0  0  1  0  0  3  0  0  0  0  0  0
  187.7250  177.9640  140.8270 O   0  0  0  0  0  0  0  0  0  0  0  0
  189.3390  177.5000  142.2470 N   0  0  2  0  0  0  0  0  0  0  0  0
  181.9050  178.9400  143.5820 N   0  0  0  0  0  0  0  0  0  0  0  0
  182.3520  178.6730  141.4060 C   0  0  0  0  0  3  0  0  0  0  0  0
  184.8990  178.4020  141.4200 C   0  0  0  0  0  2  0  0  0  0  0  0
  185.6520  178.5820  143.8170 C   0  0  0  0  0  3  0  0  0  0  0  0
  185.9720  178.4270  142.5100 C   0  0  0  0  0  0  0  0  0  0  0  0
  181.3620  178.8780  142.4300 N   0  0  0  0  0  0  0  0  0  0  0  0
  184.2610  178.7680  144.2940 C   0  0  0  0  0  3  0  0  0  0  0  0
  183.5360  178.6140  141.9920 C   0  0  0  0  0  0  0  0  0  0  0  0
  183.2950  178.7780  143.3860 C   0  0  0  0  0  0  0  0  0  0  0  0
  192.6890  175.7630  148.0640 Cl  0  0  0  0  0  0  0  0  0  0  0  0
  190.1890  176.7160  147.5130 C   0  0  0  0  0  3  0  0  0  0  0  0
  190.6830  176.9440  144.7720 C   0  0  0  0  0  3  0  0  0  0  0  0
  189.1880  177.1890  146.6590 C   0  0  0  0  0  3  0  0  0  0  0  0
  191.6830  176.4700  145.6240 C   0  0  0  0  0  3  0  0  0  0  0  0
  189.4260  177.3030  145.2850 C   0  0  0  0  0  0  0  0  0  0  0  0
  191.4360  176.3560  146.9950 C   0  0  0  0  0  0  0  0  0  0  0  0
  189.4560  177.9560  138.6420 C   0  0  0  0  0  3  0  0  0  0  0  0
  189.8390  177.6840  137.4500 N   0  0  0  0  0  2  0  0  0  0  0  0
  1  4  1  1  0  0  0
  2  8  1  0  0  0  0
  3 13  1  0  0  0  0
  3  1  1  0  0  0  0
  4 23  1  0  0  0  0
  5  2  1  0  0  0  0
  5  8  1  0  0  0  0
  6  5  1  0  0  0  0
  6  2  1  0  0  0  0
  7  5  1  0  0  0  0
  7  3  1  0  0  0  0
  8  1  1  0  0  0  0
 10 16  2  0  0  0  0
 10 14  1  0  0  0  0
 11 16  1  0  0  0  0
 11 13  1  0  0  0  0
 12 15  1  0  0  0  0
 13 12  2  0  0  0  0
 14  9  2  0  0  0  0
 16 17  1  0  0  0  0
 17  9  1  0  0  0  0
 17 15  2  0  0  0  0
 20 23  2  0  0  0  0
 20 22  1  0  0  0  0
 21 19  2  0  0  0  0
 22 24  2  0  0  0  0
 23 21  1  0  0  0  0
 24 19  1  0  0  0  0
 24 18  1  0  0  0  0
 25  6  1  0  0  0  0
 26 25  2  0  0  0  0
M  END
>  <MODEL>
3

>  <REMARK>
 VINA RESULT:      -9.1      3.255      6.766
  Name = 
  3 active torsions:
  status: ('A' for Active; 'I' for Inactive)
    1  A    between atoms: C_4  and  C_21
    2  A    between atoms: N_12  and  C_14
    3  A    between atoms: C_17  and  C_19
                            x       y       z     vdW  Elec       q    Type
                         _______ _______ _______ _____ _____    ______ ____

>  <TORSDO>
F 3

$$$$
=
 OpenBabel10222416113D

 26 31  0  0  1  0  0  0  0  0999 V2000
  188.2650  177.4650  142.5700 C   0  0  1  0  0  3  0  0  0  0  0  0
  185.7400  178.1800  142.0540 C   0  0  2  0  0  3  0  0  0  0  0  0
  188.5080  177.6160  141.1520 N   0  0  0  0  0  0  0  0  0  0  0  0
  189.1440  177.2120  143.5450 C   0  0  0  0  0  2  0  0  0  0  0  0
  186.7470  178.9850  141.5030 C   0  0  2  0  0  0  0  0  0  0  0  0
  185.3130  179.3780  141.2770 C   0  0  1  0  0  3  0  0  0  0  0  0
  187.4740  178.2930  140.4770 O   0  0  0  0  0  0  0  0  0  0  0  0
  187.1210  178.1860  142.6450 N   0  0  2  0  0  0  0  0  0  0  0  0
  193.5080  176.7530  138.6040 N   0  0  0  0  0  0  0  0  0  0  0  0
  191.6750  176.2530  137.4220 C   0  0  0  0  0  3  0  0  0  0  0  0
  189.8060  176.8530  139.0690 C   0  0  0  0  0  2  0  0  0  0  0  0
  190.9110  177.6780  141.1770 C   0  0  0  0  0  3  0  0  0  0  0  0
  189.7730  177.3790  140.5040 C   0  0  0  0  0  0  0  0  0  0  0  0
  193.1120  176.3100  137.4770 N   0  0  0  0  0  0  0  0  0  0  0  0
  192.2640  177.4940  140.6020 C   0  0  0  0  0  3  0  0  0  0  0  0
  191.2080  176.6850  138.5820 C   0  0  0  0  0  0  0  0  0  0  0  0
  192.3490  177.0190  139.3680 C   0  0  0  0  0  0  0  0  0  0  0  0
  187.9310  177.8780  149.4120 Cl  0  0  0  0  0  0  0  0  0  0  0  0
  187.2820  177.7960  146.7590 C   0  0  0  0  0  3  0  0  0  0  0  0
  189.9010  177.2510  145.9500 C   0  0  0  0  0  3  0  0  0  0  0  0
  187.5750  177.6370  145.4010 C   0  0  0  0  0  3  0  0  0  0  0  0
  189.6080  177.4090  147.3070 C   0  0  0  0  0  3  0  0  0  0  0  0
  188.8840  177.3610  144.9870 C   0  0  0  0  0  0  0  0  0  0  0  0
  188.2980  177.6800  147.7120 C   0  0  0  0  0  0  0  0  0  0  0  0
  184.8190  178.9460  139.9360 C   0  0  0  0  0  3  0  0  0  0  0  0
  184.4070  179.8190  139.0930 N   0  0  0  0  0  2  0  0  0  0  0  0
  1  8  1  0  0  0  0
  1  4  1  1  0  0  0
  2  8  1  0  0  0  0
  3  1  1  0  0  0  0
  4 23  1  0  0  0  0
  5  2  1  0  0  0  0
  5  8  1  0  0  0  0
  6  5  1  0  0  0  0
  6  2  1  0  0  0  0
  7  3  1  0  0  0  0
  7  5  1  0  0  0  0
  9 17  1  0  0  0  0
 10 14  1  0  0  0  0
 10 16  2  0  0  0  0
 11 13  1  0  0  0  0
 13  3  1  0  0  0  0
 13 12  2  0  0  0  0
 14  9  2  0  0  0  0
 15 12  1  0  0  0  0
 16 11  1  0  0  0  0
 16 17  1  0  0  0  0
 17 15  2  0  0  0  0
 19 24  1  0  0  0  0
 20 22  1  0  0  0  0
 21 19  2  0  0  0  0
 22 24  2  0  0  0  0
 23 21  1  0  0  0  0
 23 20  2  0  0  0  0
 24 18  1  0  0  0  0
 25  6  1  0  0  0  0
 26 25  2  0  0  0  0
M  END
>  <MODEL>
4

>  <REMARK>
 VINA RESULT:      -9.0      3.254      5.727
  Name = 
  3 active torsions:
  status: ('A' for Active; 'I' for Inactive)
    1  A    between atoms: C_4  and  C_21
    2  A    between atoms: N_12  and  C_14
    3  A    between atoms: C_17  and  C_19
                            x       y       z     vdW  Elec       q    Type
                         _______ _______ _______ _____ _____    ______ ____

>  <TORSDO>
F 3

$$$$
=
 OpenBabel10222416113D

 26 31  0  0  1  0  0  0  0  0999 V2000
  189.2480  176.8440  143.4820 C   0  0  1  0  0  3  0  0  0  0  0  0
  191.3080  176.0290  144.9810 C   0  0  2  0  0  3  0  0  0  0  0  0
  188.5770  177.1560  144.7250 N   0  0  0  0  0  0  0  0  0  0  0  0
  188.8480  177.0950  142.2310 C   0  0  0  0  0  2  0  0  0  0  0  0
  190.7590  177.2820  145.2930 C   0  0  2  0  0  0  0  0  0  0  0  0
  191.9490  176.8050  146.0790 C   0  0  1  0  0  3  0  0  0  0  0  0
  189.4380  177.1570  145.8400 O   0  0  0  0  0  0  0  0  0  0  0  0
  190.5150  176.7910  143.9570 N   0  0  2  0  0  0  0  0  0  0  0  0
  183.3110  179.2300  145.1730 N   0  0  0  0  0  0  0  0  0  0  0  0
  183.9920  178.6420  143.1240 C   0  0  0  0  0  3  0  0  0  0  0  0
  186.3690  177.8020  143.5790 C   0  0  0  0  0  2  0  0  0  0  0  0
  186.7860  178.0560  146.0510 C   0  0  0  0  0  3  0  0  0  0  0  0
  187.2460  177.6960  144.8280 C   0  0  0  0  0  0  0  0  0  0  0  0
  182.9420  179.1730  143.9540 N   0  0  0  0  0  0  0  0  0  0  0  0
  185.4270  178.6030  146.2760 C   0  0  0  0  0  3  0  0  0  0  0  0
  185.0290  178.3770  143.9020 C   0  0  0  0  0  0  0  0  0  0  0  0
  184.6350  178.7360  145.2230 C   0  0  0  0  0  0  0  0  0  0  0  0
  192.2110  176.7230  137.2430 Cl  0  0  0  0  0  0  0  0  0  0  0  0
  189.8680  176.6140  138.6450 C   0  0  0  0  0  3  0  0  0  0  0  0
  191.0870  177.2360  141.0810 C   0  0  0  0  0  3  0  0  0  0  0  0
  189.0990  176.7050  139.8080 C   0  0  0  0  0  3  0  0  0  0  0  0
  191.8570  177.1470  139.9180 C   0  0  0  0  0  3  0  0  0  0  0  0
  189.7010  177.0190  141.0320 C   0  0  0  0  0  0  0  0  0  0  0  0
  191.2470  176.8360  138.6990 C   0  0  0  0  0  0  0  0  0  0  0  0
  191.5530  176.2180  147.3950 C   0  0  0  0  0  3  0  0  0  0  0  0
  192.4370  175.6790  148.1480 N   0  0  0  0  0  2  0  0  0  0  0  0
  1  4  1  6  0  0  0
  1  8  1  0  0  0  0
  1  3  1  0  0  0  0
  2  5  1  0  0  0  0
  2  6  1  0  0  0  0
  3 13  1  0  0  0  0
  3  7  1  0  0  0  0
  5  7  1  0  0  0  0
  5  6  1  0  0  0  0
  6 25  1  0  0  0  0
  8  2  1  0  0  0  0
  8  5  1  0  0  0  0
  9 17  1  0  0  0  0
 10 16  2  0  0  0  0
 10 14  1  0  0  0  0
 11 16  1  0  0  0  0
 11 13  1  0  0  0  0
 12 15  1  0  0  0  0
 13 12  2  0  0  0  0
 14  9  2  0  0  0  0
 16 17  1  0  0  0  0
 17 15  2  0  0  0  0
 18 24  1  0  0  0  0
 19 24  2  0  0  0  0
 19 21  1  0  0  0  0
 21 23  2  0  0  0  0
 22 20  2  0  0  0  0
 23 20  1  0  0  0  0
 23  4  1  0  0  0  0
 24 22  1  0  0  0  0
 25 26  2  0  0  0  0
M  END
>  <MODEL>
5

>  <REMARK>
 VINA RESULT:      -9.0      3.461      7.286
  Name = 
  3 active torsions:
  status: ('A' for Active; 'I' for Inactive)
    1  A    between atoms: C_4  and  C_21
    2  A    between atoms: N_12  and  C_14
    3  A    between atoms: C_17  and  C_19
                            x       y       z     vdW  Elec       q    Type
                         _______ _______ _______ _____ _____    ______ ____

>  <TORSDO>
F 3

$$$$
=
 OpenBabel10222416113D

 26 31  0  0  1  0  0  0  0  0999 V2000
  188.5140  178.1440  141.7610 C   0  0  1  0  0  3  0  0  0  0  0  0
  185.9970  179.0490  141.7460 C   0  0  2  0  0  3  0  0  0  0  0  0
  188.3580  177.9850  143.1910 N   0  0  0  0  0  0  0  0  0  0  0  0
  189.5390  177.7740  140.9880 C   0  0  0  0  0  2  0  0  0  0  0  0
  186.2320  177.8540  142.4420 C   0  0  2  0  0  0  0  0  0  0  0  0
  184.8230  178.3740  142.3670 C   0  0  1  0  0  3  0  0  0  0  0  0
  187.0200  178.0760  143.6200 O   0  0  0  0  0  0  0  0  0  0  0  0
  187.2020  178.2070  141.4320 N   0  0  2  0  0  0  0  0  0  0  0  0
  192.3730  176.0030  146.6810 N   0  0  0  0  0  0  0  0  0  0  0  0
  190.7190  177.1850  147.6160 C   0  0  0  0  0  3  0  0  0  0  0  0
  189.2740  177.7680  145.5830 C   0  0  0  0  0  3  0  0  0  0  0  0
  190.3970  176.7680  143.5620 C   0  0  0  0  0  3  0  0  0  0  0  0
  189.3810  177.5000  144.0810 C   0  0  0  0  0  0  0  0  0  0  0  0
  191.9410  176.4450  147.7960 N   0  0  0  0  0  2  0  0  0  0  0  0
  191.4910  176.2020  144.3860 C   0  0  0  0  0  3  0  0  0  0  0  0
  190.4250  177.1750  146.3260 C   0  0  0  0  0  0  0  0  0  0  0  0
  191.4580  176.4270  145.6910 C   0  0  0  0  0  0  0  0  0  0  0  0
  189.3470  177.5940  134.9660 Cl  0  0  0  0  0  0  0  0  0  0  0  0
  189.0070  178.7790  137.4040 C   0  0  0  0  0  3  0  0  0  0  0  0
  189.9120  176.5450  138.8180 C   0  0  0  0  0  3  0  0  0  0  0  0
  189.0580  178.8090  138.8000 C   0  0  0  0  0  3  0  0  0  0  0  0
  189.8620  176.5140  137.4220 C   0  0  0  0  0  3  0  0  0  0  0  0
  189.5130  177.6960  139.5170 C   0  0  0  0  0  0  0  0  0  0  0  0
  189.4100  177.6320  136.7150 C   0  0  0  0  0  0  0  0  0  0  0  0
  184.4300  179.1090  143.6070 C   0  0  0  0  0  3  0  0  0  0  0  0
  183.2850  178.8990  144.1400 N   0  0  0  0  0  2  0  0  0  0  0  0
  1  4  1  6  0  0  0
  1  3  1  0  0  0  0
  2  6  1  0  0  0  0
  2  5  1  0  0  0  0
  3  7  1  0  0  0  0
  3 13  1  0  0  0  0
  5  7  1  0  0  0  0
  6  5  1  0  0  0  0
  6 25  1  0  0  0  0
  8  2  1  0  0  0  0
  8  1  1  0  0  0  0
  8  5  1  0  0  0  0
  9 14  1  0  0  0  0
 10 14  1  0  0  0  0
 11 16  1  0  0  0  0
 12 13  1  0  0  0  0
 12 15  2  0  0  0  0
 13 11  2  0  0  0  0
 15 17  1  0  0  0  0
 16 10  2  0  0  0  0
 17 16  1  0  0  0  0
 17  9  2  0  0  0  0
 18 24  1  0  0  0  0
 19 21  1  0  0  0  0
 20 23  1  0  0  0  0
 21 23  2  0  0  0  0
 22 20  2  0  0  0  0
 23  4  1  0  0  0  0
 24 19  2  0  0  0  0
 24 22  1  0  0  0  0
 25 26  2  0  0  0  0
M  END
>  <MODEL>
6

>  <REMARK>
 VINA RESULT:      -8.9      2.827      5.317
  Name = 
  3 active torsions:
  status: ('A' for Active; 'I' for Inactive)
    1  A    between atoms: C_4  and  C_21
    2  A    between atoms: N_12  and  C_14
    3  A    between atoms: C_17  and  C_19
                            x       y       z     vdW  Elec       q    Type
                         _______ _______ _______ _____ _____    ______ ____

>  <TORSDO>
F 3

$$$$
=
 OpenBabel10222416113D

 26 31  0  0  1  0  0  0  0  0999 V2000
  187.7310  178.1390  142.7270 C   0  0  1  0  0  3  0  0  0  0  0  0
  188.7930  177.9780  145.1760 C   0  0  2  0  0  3  0  0  0  0  0  0
  189.0210  177.7090  142.2320 N   0  0  0  0  0  0  0  0  0  0  0  0
  186.5960  178.3270  142.0460 C   0  0  0  0  0  2  0  0  0  0  0  0
  188.9920  176.8770  144.3300 C   0  0  2  0  0  0  0  0  0  0  0  0
  189.5300  176.8090  145.7330 C   0  0  1  0  0  3  0  0  0  0  0  0
  189.8640  177.2010  143.2380 O   0  0  0  0  0  0  0  0  0  0  0  0
  187.8750  177.7360  144.0110 N   0  0  2  0  0  0  0  0  0  0  0  0
  190.3830  177.0310  136.7620 N   0  0  0  0  0  0  0  0  0  0  0  0
  188.6250  178.3420  137.2080 C   0  0  0  0  0  3  0  0  0  0  0  0
  188.5360  178.2530  139.7670 C   0  0  0  0  0  3  0  0  0  0  0  0
  190.4140  176.7530  140.5230 C   0  0  0  0  0  3  0  0  0  0  0  0
  189.3500  177.5300  140.8410 C   0  0  0  0  0  0  0  0  0  0  0  0
  189.4850  177.7530  136.2160 N   0  0  0  0  0  0  0  0  0  0  0  0
  190.8550  176.5150  139.1280 C   0  0  0  0  0  3  0  0  0  0  0  0
  189.0430  177.9400  138.3970 C   0  0  0  0  0  0  0  0  0  0  0  0
  190.1680  177.1010  138.1570 C   0  0  1  0  0  3  0  0  0  0  0  0
  181.0590  178.9610  144.3430 Cl  0  0  0  0  0  0  0  0  0  0  0  0
  182.8580  178.6270  142.3140 C   0  0  0  0  0  3  0  0  0  0  0  0
  185.0660  178.6330  144.0260 C   0  0  0  0  0  3  0  0  0  0  0  0
  184.1470  178.4790  141.7930 C   0  0  0  0  0  3  0  0  0  0  0  0
  183.7780  178.7800  144.5480 C   0  0  0  0  0  3  0  0  0  0  0  0
  185.2580  178.4770  142.6440 C   0  0  0  0  0  0  0  0  0  0  0  0
  182.6730  178.7760  143.6900 C   0  0  0  0  0  0  0  0  0  0  0  0
  190.9890  177.1260  145.7880 C   0  0  0  0  0  3  0  0  0  0  0  0
  191.6880  176.7520  146.7940 N   0  0  0  0  0  2  0  0  0  0  0  0
  1  4  1  6  0  0  0
  1  8  1  0  0  0  0
  2  6  1  0  0  0  0
  3  1  1  0  0  0  0
  3  7  1  0  0  0  0
  4 23  1  0  0  0  0
  5  2  1  0  0  0  0
  5  6  1  0  0  0  0
  6 25  1  0  0  0  0
  7  5  1  0  0  0  0
  8  5  1  0  0  0  0
  8  2  1  0  0  0  0
  9 17  1  0  0  0  0
 10 16  2  0  0  0  0
 11 13  2  0  0  0  0
 12 13  1  0  0  0  0
 13  3  1  0  0  0  0
 14  9  2  0  0  0  0
 14 10  1  0  0  0  0
 15 12  2  0  0  0  0
 16 11  1  0  0  0  0
 17 16  1  0  0  0  0
 17 15  1  0  0  0  0
 19 24  1  0  0  0  0
 20 22  1  0  0  0  0
 21 19  2  0  0  0  0
 21 23  1  0  0  0  0
 23 20  2  0  0  0  0
 24 18  1  0  0  0  0
 24 22  2  0  0  0  0
 25 26  2  0  0  0  0
M  END
>  <MODEL>
7

>  <REMARK>
 VINA RESULT:      -8.9      1.190      5.696
  Name = 
  3 active torsions:
  status: ('A' for Active; 'I' for Inactive)
    1  A    between atoms: C_4  and  C_21
    2  A    between atoms: N_12  and  C_14
    3  A    between atoms: C_17  and  C_19
                            x       y       z     vdW  Elec       q    Type
                         _______ _______ _______ _____ _____    ______ ____

>  <TORSDO>
F 3

$$$$
=
 OpenBabel10222416113D

 26 31  0  0  1  0  0  0  0  0999 V2000
  187.2250  177.6430  142.6120 C   0  0  1  0  0  3  0  0  0  0  0  0
  187.7910  177.7740  140.0010 C   0  0  2  0  0  3  0  0  0  0  0  0
  188.6480  177.4960  142.8270 N   0  0  0  0  0  0  0  0  0  0  0  0
  186.2540  177.7800  143.5200 C   0  0  0  0  0  2  0  0  0  0  0  0
  188.5540  178.5880  140.8520 C   0  0  2  0  0  0  0  0  0  0  0  0
  188.8060  178.6650  139.3720 C   0  0  1  0  0  3  0  0  0  0  0  0
  189.4190  177.8080  141.6900 O   0  0  0  0  0  0  0  0  0  0  0  0
  187.2730  178.1550  141.3590 N   0  0  2  0  0  0  0  0  0  0  0  0
  191.1210  176.9240  147.9050 N   0  0  0  0  0  0  0  0  0  0  0  0
  192.1560  175.9680  146.1670 C   0  0  0  0  0  3  0  0  0  0  0  0
  190.5960  176.5730  144.2260 C   0  0  0  0  0  3  0  0  0  0  0  0
  188.6890  177.9040  145.1940 C   0  0  0  0  0  3  0  0  0  0  0  0
  189.2730  177.3320  144.1130 C   0  0  0  0  0  0  0  0  0  0  0  0
  192.1450  176.2390  147.5800 N   0  0  0  0  0  2  0  0  0  0  0  0
  189.2540  177.8180  146.5620 C   0  0  0  0  0  3  0  0  0  0  0  0
  191.0780  176.5250  145.6390 C   0  0  0  0  0  0  0  0  0  0  0  0
  190.3890  177.1510  146.7170 C   0  0  0  0  0  0  0  0  0  0  0  0
  180.6480  179.5590  142.2000 Cl  0  0  0  0  0  0  0  0  0  0  0  0
  183.1080  178.5320  141.6030 C   0  0  0  0  0  3  0  0  0  0  0  0
  184.0330  178.7390  144.2320 C   0  0  0  0  0  3  0  0  0  0  0  0
  184.4060  178.1210  141.9220 C   0  0  0  0  0  3  0  0  0  0  0  0
  182.7360  179.1490  143.9140 C   0  0  0  0  0  3  0  0  0  0  0  0
  184.8760  178.2180  143.2370 C   0  0  0  0  0  0  0  0  0  0  0  0
  182.2730  179.0450  142.5990 C   0  0  0  0  0  0  0  0  0  0  0  0
  189.9890  177.8520  138.9620 C   0  0  0  0  0  3  0  0  0  0  0  0
  189.8780  176.9860  138.0250 N   0  0  0  0  0  2  0  0  0  0  0  0
  1  3  1  0  0  0  0
  1  4  1  1  0  0  0
  2  5  1  0  0  0  0
  2  8  1  0  0  0  0
  3 13  1  0  0  0  0
  5  8  1  0  0  0  0
  5  7  1  0  0  0  0
  6  2  1  0  0  0  0
  6  5  1  0  0  0  0
  7  3  1  0  0  0  0
  8  1  1  0  0  0  0
 10 14  1  0  0  0  0
 11 16  1  0  0  0  0
 12 15  2  0  0  0  0
 13 11  2  0  0  0  0
 13 12  1  0  0  0  0
 14  9  1  0  0  0  0
 15 17  1  0  0  0  0
 16 10  2  0  0  0  0
 16 17  1  0  0  0  0
 17  9  2  0  0  0  0
 18 24  1  0  0  0  0
 19 21  2  0  0  0  0
 19 24  1  0  0  0  0
 21 23  1  0  0  0  0
 22 20  1  0  0  0  0
 23  4  1  0  0  0  0
 23 20  2  0  0  0  0
 24 22  2  0  0  0  0
 25  6  1  0  0  0  0
 26 25  2  0  0  0  0
M  END
>  <MODEL>
8

>  <REMARK>
 VINA RESULT:      -8.9      0.753      1.706
  Name = 
  3 active torsions:
  status: ('A' for Active; 'I' for Inactive)
    1  A    between atoms: C_4  and  C_21
    2  A    between atoms: N_12  and  C_14
    3  A    between atoms: C_17  and  C_19
                            x       y       z     vdW  Elec       q    Type
                         _______ _______ _______ _____ _____    ______ ____

>  <TORSDO>
F 3

$$$$
=
 OpenBabel10222416113D

 26 31  0  0  1  0  0  0  0  0999 V2000
  185.9590  178.4900  143.6420 C   0  0  1  0  0  3  0  0  0  0  0  0
  185.8900  178.9780  146.2710 C   0  0  2  0  0  3  0  0  0  0  0  0
  187.3440  178.1160  143.8340 N   0  0  0  0  0  0  0  0  0  0  0  0
  185.2150  178.3970  142.5360 C   0  0  0  0  0  2  0  0  0  0  0  0
  186.4440  177.7520  145.8730 C   0  0  2  0  0  0  0  0  0  0  0  0
  186.3410  178.0470  147.3430 C   0  0  1  0  0  3  0  0  0  0  0  0
  187.6910  177.9340  145.1870 O   0  0  0  0  0  0  0  0  0  0  0  0
  185.5540  178.3890  144.9300 N   0  0  2  0  0  0  0  0  0  0  0  0
  190.9000  176.4360  139.7390 N   0  0  0  0  0  0  0  0  0  0  0  0
  189.3390  177.9350  139.1670 C   0  0  0  0  0  3  0  0  0  0  0  0
  188.1000  178.2780  141.3830 C   0  0  0  0  0  3  0  0  0  0  0  0
  189.2000  176.7850  143.0880 C   0  0  0  0  0  3  0  0  0  0  0  0
  188.2320  177.6830  142.7860 C   0  0  0  0  0  0  0  0  0  0  0  0
  190.4580  177.1240  138.7610 N   0  0  0  0  0  0  0  0  0  0  0  0
  190.1800  176.2850  142.0940 C   0  0  0  0  0  3  0  0  0  0  0  0
  189.1170  177.7050  140.4510 C   0  0  0  0  0  0  0  0  0  0  0  0
  190.0950  176.7530  140.8570 C   0  0  1  0  0  3  0  0  0  0  0  0
  179.2180  178.8710  142.1560 Cl  0  0  0  0  0  0  0  0  0  0  0  0
  181.7140  178.3630  141.1660 C   0  0  0  0  0  3  0  0  0  0  0  0
  182.9840  178.8950  143.5980 C   0  0  0  0  0  3  0  0  0  0  0  0
  183.1040  178.2540  141.2680 C   0  0  0  0  0  3  0  0  0  0  0  0
  181.5940  179.0030  143.4980 C   0  0  0  0  0  3  0  0  0  0  0  0
  183.7480  178.5160  142.4820 C   0  0  0  0  0  0  0  0  0  0  0  0
  180.9590  178.7360  142.2810 C   0  0  0  0  0  0  0  0  0  0  0  0
  187.6350  178.5350  147.9080 C   0  0  0  0  0  3  0  0  0  0  0  0
  188.2140  177.8780  148.8440 N   0  0  0  0  0  2  0  0  0  0  0  0
  1  4  1  6  0  0  0
  1  3  1  0  0  0  0
  1  8  1  0  0  0  0
  2  6  1  0  0  0  0
  3  7  1  0  0  0  0
  5  2  1  0  0  0  0
  5  6  1  0  0  0  0
  6 25  1  0  0  0  0
  7  5  1  0  0  0  0
  8  5  1  0  0  0  0
  8  2  1  0  0  0  0
  9 17  1  0  0  0  0
 10 16  2  0  0  0  0
 11 13  2  0  0  0  0
 13 12  1  0  0  0  0
 13  3  1  0  0  0  0
 14 10  1  0  0  0  0
 14  9  2  0  0  0  0
 15 12  2  0  0  0  0
 16 17  1  0  0  0  0
 16 11  1  0  0  0  0
 17 15  1  0  0  0  0
 18 24  1  0  0  0  0
 19 21  2  0  0  0  0
 19 24  1  0  0  0  0
 21 23  1  0  0  0  0
 22 20  1  0  0  0  0
 23  4  1  0  0  0  0
 23 20  2  0  0  0  0
 24 22  2  0  0  0  0
 25 26  2  0  0  0  0
M  END
>  <MODEL>
9

>  <REMARK>
 VINA RESULT:      -8.8      2.319      5.555
  Name = 
  3 active torsions:
  status: ('A' for Active; 'I' for Inactive)
    1  A    between atoms: C_4  and  C_21
    2  A    between atoms: N_12  and  C_14
    3  A    between atoms: C_17  and  C_19
                            x       y       z     vdW  Elec       q    Type
                         _______ _______ _______ _____ _____    ______ ____

>  <TORSDO>
F 3

$$$$
