=
 OpenBabel10222418553D

 43 50  0  0  1  0  0  0  0  0999 V2000
  191.4900  176.4950  147.1250 C   0  0  0  0  0  0  0  0  0  0  0  0
  187.2120  177.8480  144.7720 C   0  0  0  0  0  0  0  0  0  0  0  0
  187.7910  177.9340  142.0200 C   0  0  0  0  0  0  0  0  0  0  0  0
  189.2130  177.1550  146.6220 C   0  0  0  0  0  0  0  0  0  0  0  0
  191.8010  176.5110  145.7630 C   0  0  0  0  0  3  0  0  0  0  0  0
  192.4650  176.1610  148.0540 O   0  0  0  0  0  1  0  0  0  0  0  0
  189.5190  177.1760  145.2390 C   0  0  0  0  0  0  0  0  0  0  0  0
  190.1990  176.8160  147.5530 C   0  0  0  0  0  3  0  0  0  0  0  0
  190.8230  176.8500  144.8250 C   0  0  0  0  0  3  0  0  0  0  0  0
  188.7850  177.5740  142.9350 C   0  0  0  0  0  3  0  0  0  0  0  0
  188.5160  177.5270  144.3110 C   0  0  0  0  0  0  0  0  0  0  0  0
  186.9370  177.8160  146.1460 C   0  0  0  0  0  3  0  0  0  0  0  0
  186.2030  178.1930  143.8570 C   0  0  0  0  0  0  0  0  0  0  0  0
  186.5090  178.2420  142.4890 C   0  0  0  0  0  3  0  0  0  0  0  0
  187.9300  177.4740  147.0630 C   0  0  0  0  0  3  0  0  0  0  0  0
  188.0920  177.9940  140.5800 C   0  0  0  0  0  0  0  0  0  0  0  0
  189.1790  177.2250  140.0460 N   0  0  0  0  0  2  0  0  0  0  0  0
  187.3940  178.7240  139.8220 O   0  0  0  0  0  0  0  0  0  0  0  0
  189.6010  177.2300  138.6780 C   0  0  0  0  0  0  0  0  0  0  0  0
  189.0290  177.9590  137.8220 O   0  0  0  0  0  0  0  0  0  0  0  0
  190.7180  176.3420  138.2580 C   0  0  0  0  0  2  0  0  0  0  0  0
  190.4470  175.8050  136.9310 N   0  0  0  0  0  0  0  0  0  0  0  0
  191.1720  173.4650  136.5700 C   0  0  0  0  0  2  0  0  0  0  0  0
  192.9180  175.4810  136.4010 C   0  0  2  0  0  3  0  0  0  0  0  0
  189.2960  174.9170  137.0770 C   0  0  0  0  0  2  0  0  0  0  0  0
  191.5480  174.9220  136.5680 C   0  0  2  0  0  0  0  0  0  0  0  0
  192.0530  175.2840  135.3060 O   0  0  0  0  0  0  0  0  0  0  0  0
  189.6650  173.5190  136.5880 C   0  0  0  0  0  2  0  0  0  0  0  0
  193.9240  174.4210  136.4350 N   0  0  0  0  0  0  0  0  0  0  0  0
  195.5670  175.8260  135.1580 C   0  0  0  0  0  2  0  0  0  0  0  0
  196.1920  174.6080  137.2260 C   0  0  0  0  0  3  0  0  0  0  0  0
  196.2320  174.5830  135.7150 C   0  0  1  0  0  3  0  0  0  0  0  0
  194.7360  174.5960  137.6340 C   0  0  0  0  0  3  0  0  0  0  0  0
  194.7910  174.5140  135.2480 C   0  0  1  0  0  3  0  0  0  0  0  0
  184.9200  178.5170  144.3370 O   0  0  0  0  0  0  0  0  0  0  0  0
  182.5330  178.5760  141.4680 C   0  0  0  0  0  3  0  0  0  0  0  0
  181.3270  178.7610  142.1500 C   0  0  0  0  0  0  0  0  0  0  0  0
  182.5280  178.7930  144.2540 C   0  0  0  0  0  3  0  0  0  0  0  0
  183.7330  178.4990  142.1790 C   0  0  0  0  0  3  0  0  0  0  0  0
  183.7410  178.6150  143.5790 C   0  0  0  0  0  0  0  0  0  0  0  0
  181.3260  178.8740  143.5440 C   0  0  0  0  0  3  0  0  0  0  0  0
  179.0780  178.0740  142.0020 O   0  0  0  0  0  1  0  0  0  0  0  0
  180.0510  178.8640  141.3930 C   0  0  0  0  0  2  0  0  0  0  0  0
  1  8  1  0  0  0  0
  1  6  1  0  0  0  0
  2 12  1  0  0  0  0
  3 14  2  0  0  0  0
  3 10  1  0  0  0  0
  4 15  1  0  0  0  0
  4  8  2  0  0  0  0
  5  1  2  0  0  0  0
  7  4  1  0  0  0  0
  9  7  2  0  0  0  0
  9  5  1  0  0  0  0
 10 11  2  0  0  0  0
 11  2  1  0  0  0  0
 11  7  1  0  0  0  0
 12 15  2  0  0  0  0
 13 35  1  0  0  0  0
 13  2  2  0  0  0  0
 14 13  1  0  0  0  0
 16  3  1  0  0  0  0
 17 16  1  0  0  0  0
 18 16  2  0  0  0  0
 19 17  1  0  0  0  0
 20 19  2  0  0  0  0
 21 19  1  0  0  0  0
 22 25  1  0  0  0  0
 22 21  1  0  0  0  0
 23 28  1  0  0  0  0
 24 29  1  6  0  0  0
 24 26  1  0  0  0  0
 26 23  1  1  0  0  0
 26 22  1  0  0  0  0
 27 24  1  0  0  0  0
 27 26  1  0  0  0  0
 28 25  1  0  0  0  0
 29 33  1  0  0  0  0
 31 33  2  0  0  0  0
 32 30  1  6  0  0  0
 32 31  1  0  0  0  0
 34 30  1  1  0  0  0
 34 32  1  0  0  0  0
 34 29  1  0  0  0  0
 36 37  2  0  0  0  0
 36 39  1  0  0  0  0
 37 41  1  0  0  0  0
 39 40  2  0  0  0  0
 40 38  1  0  0  0  0
 40 35  1  0  0  0  0
 41 38  2  0  0  0  0
 43 42  1  0  0  0  0
 43 37  1  0  0  0  0
M  END
>  <MODEL>
1

>  <REMARK>
 VINA RESULT:     -11.6      0.000      0.000
  Name = 
  7 active torsions:
  status: ('A' for Active; 'I' for Inactive)
    1  A    between atoms: O_1  and  C_34
    2  A    between atoms: O_1  and  C_35
    3  A    between atoms: C_2  and  C_13
    4  A    between atoms: C_3  and  N_4
    5  A    between atoms: C_3  and  C_12
    6  A    between atoms: N_11  and  C_14
    7  A    between atoms: C_19  and  C_37
                            x       y       z     vdW  Elec       q    Type
                         _______ _______ _______ _____ _____    ______ ____

>  <TORSDO>
F 7

$$$$
=
 OpenBabel10222418553D

 43 50  0  0  1  0  0  0  0  0999 V2000
  191.3560  176.6280  146.9480 C   0  0  0  0  0  0  0  0  0  0  0  0
  187.0310  177.8360  144.6030 C   0  0  0  0  0  0  0  0  0  0  0  0
  187.6430  178.1310  141.8720 C   0  0  0  0  0  0  0  0  0  0  0  0
  189.0480  177.1650  146.4440 C   0  0  0  0  0  0  0  0  0  0  0  0
  191.6860  176.7490  145.5960 C   0  0  0  0  0  3  0  0  0  0  0  0
  192.3380  176.3020  147.8730 O   0  0  0  0  0  1  0  0  0  0  0  0
  189.3720  177.2920  145.0710 C   0  0  0  0  0  0  0  0  0  0  0  0
  190.0410  176.8350  147.3710 C   0  0  0  0  0  3  0  0  0  0  0  0
  190.7000  177.0790  144.6620 C   0  0  0  0  0  3  0  0  0  0  0  0
  188.6460  177.7820  142.7820 C   0  0  0  0  0  3  0  0  0  0  0  0
  188.3610  177.6330  144.1470 C   0  0  0  0  0  0  0  0  0  0  0  0
  186.7390  177.7020  145.9670 C   0  0  0  0  0  3  0  0  0  0  0  0
  186.0150  178.1700  143.6910 C   0  0  0  0  0  0  0  0  0  0  0  0
  186.3370  178.3240  142.3350 C   0  0  0  0  0  3  0  0  0  0  0  0
  187.7400  177.3700  146.8800 C   0  0  0  0  0  3  0  0  0  0  0  0
  187.9600  178.3000  140.4440 C   0  0  0  0  0  0  0  0  0  0  0  0
  186.9860  177.9470  139.4510 N   0  0  0  0  0  2  0  0  0  0  0  0
  189.0870  178.7530  140.1000 O   0  0  0  0  0  0  0  0  0  0  0  0
  187.1850  178.0220  138.0360 C   0  0  0  0  0  0  0  0  0  0  0  0
  188.2850  178.4030  137.5510 O   0  0  0  0  0  0  0  0  0  0  0  0
  186.0650  177.6670  137.1240 C   0  0  0  0  0  2  0  0  0  0  0  0
  185.9610  176.2180  137.0130 N   0  0  0  0  0  0  0  0  0  0  0  0
  184.2590  175.4000  135.4120 C   0  0  0  0  0  2  0  0  0  0  0  0
  183.5620  176.1800  137.8710 C   0  0  2  0  0  3  0  0  0  0  0  0
  186.6170  175.8570  135.7580 C   0  0  0  0  0  2  0  0  0  0  0  0
  184.5590  175.8800  136.8060 C   0  0  2  0  0  0  0  0  0  0  0  0
  184.1590  174.9100  137.7420 O   0  0  0  0  0  0  0  0  0  0  0  0
  185.6330  175.0980  134.8710 C   0  0  0  0  0  2  0  0  0  0  0  0
  182.2010  176.1440  137.3410 N   0  0  0  0  0  0  0  0  0  0  0  0
  181.2390  175.6780  139.6120 C   0  0  0  0  0  2  0  0  0  0  0  0
  180.3150  177.4270  138.1150 C   0  0  0  0  0  3  0  0  0  0  0  0
  180.1460  176.0110  138.6160 C   0  0  1  0  0  3  0  0  0  0  0  0
  181.6480  177.4920  137.4040 C   0  0  0  0  0  3  0  0  0  0  0  0
  181.3680  175.2420  138.1540 C   0  0  1  0  0  3  0  0  0  0  0  0
  184.7060  178.3780  144.1660 O   0  0  0  0  0  0  0  0  0  0  0  0
  182.3960  178.7190  141.2550 C   0  0  0  0  0  3  0  0  0  0  0  0
  181.1970  178.9970  141.9180 C   0  0  0  0  0  0  0  0  0  0  0  0
  182.3520  178.8730  144.0450 C   0  0  0  0  0  3  0  0  0  0  0  0
  183.5680  178.5160  141.9870 C   0  0  0  0  0  3  0  0  0  0  0  0
  183.5570  178.6000  143.3890 C   0  0  0  0  0  0  0  0  0  0  0  0
  181.1770  179.0790  143.3140 C   0  0  0  0  0  3  0  0  0  0  0  0
  179.9460  180.5390  140.6500 O   0  0  0  0  0  1  0  0  0  0  0  0
  179.9530  179.2340  141.1390 C   0  0  0  0  0  2  0  0  0  0  0  0
  1  8  1  0  0  0  0
  1  6  1  0  0  0  0
  2 12  1  0  0  0  0
  3 14  2  0  0  0  0
  3 10  1  0  0  0  0
  4 15  1  0  0  0  0
  4  8  2  0  0  0  0
  5  1  2  0  0  0  0
  7  4  1  0  0  0  0
  9  7  2  0  0  0  0
  9  5  1  0  0  0  0
 10 11  2  0  0  0  0
 11  2  1  0  0  0  0
 11  7  1  0  0  0  0
 12 15  2  0  0  0  0
 13 35  1  0  0  0  0
 13  2  2  0  0  0  0
 14 13  1  0  0  0  0
 16  3  1  0  0  0  0
 17 16  1  0  0  0  0
 18 16  2  0  0  0  0
 19 17  1  0  0  0  0
 20 19  2  0  0  0  0
 21 19  1  0  0  0  0
 22 21  1  0  0  0  0
 24 29  1  6  0  0  0
 25 22  1  0  0  0  0
 26 23  1  6  0  0  0
 26 22  1  0  0  0  0
 26 27  1  0  0  0  0
 26 24  1  0  0  0  0
 27 24  1  0  0  0  0
 28 23  1  0  0  0  0
 28 25  1  0  0  0  0
 29 33  1  0  0  0  0
 29 34  1  0  0  0  0
 32 31  1  6  0  0  0
 32 30  1  0  0  0  0
 33 31  2  0  0  0  0
 34 32  1  0  0  0  0
 34 30  1  1  0  0  0
 36 37  2  0  0  0  0
 36 39  1  0  0  0  0
 37 41  1  0  0  0  0
 39 40  2  0  0  0  0
 40 38  1  0  0  0  0
 40 35  1  0  0  0  0
 41 38  2  0  0  0  0
 42 43  1  0  0  0  0
 43 37  1  0  0  0  0
M  END
>  <MODEL>
2

>  <REMARK>
 VINA RESULT:     -11.6      3.976      6.157
  Name = 
  7 active torsions:
  status: ('A' for Active; 'I' for Inactive)
    1  A    between atoms: O_1  and  C_34
    2  A    between atoms: O_1  and  C_35
    3  A    between atoms: C_2  and  C_13
    4  A    between atoms: C_3  and  N_4
    5  A    between atoms: C_3  and  C_12
    6  A    between atoms: N_11  and  C_14
    7  A    between atoms: C_19  and  C_37
                            x       y       z     vdW  Elec       q    Type
                         _______ _______ _______ _____ _____    ______ ____

>  <TORSDO>
F 7

$$$$
=
 OpenBabel10222418553D

 43 50  0  0  1  0  0  0  0  0999 V2000
  190.3010  176.9440  146.6660 C   0  0  0  0  0  0  0  0  0  0  0  0
  188.2630  178.1200  142.1800 C   0  0  0  0  0  0  0  0  0  0  0  0
  185.4940  178.4000  142.5940 C   0  0  0  0  0  0  0  0  0  0  0  0
  189.9590  177.4580  144.3240 C   0  0  0  0  0  0  0  0  0  0  0  0
  188.9340  177.0950  146.9060 C   0  0  0  0  0  3  0  0  0  0  0  0
  191.1540  176.6130  147.7100 O   0  0  0  0  0  1  0  0  0  0  0  0
  188.5690  177.6120  144.5550 C   0  0  0  0  0  0  0  0  0  0  0  0
  190.8130  177.1260  145.3790 C   0  0  0  0  0  3  0  0  0  0  0  0
  188.0710  177.4260  145.8570 C   0  0  0  0  0  3  0  0  0  0  0  0
  186.3350  178.0860  143.6660 C   0  0  0  0  0  3  0  0  0  0  0  0
  187.7180  177.9400  143.4780 C   0  0  0  0  0  0  0  0  0  0  0  0
  189.6410  177.9640  141.9800 C   0  0  0  0  0  3  0  0  0  0  0  0
  187.4260  178.4530  141.1010 C   0  0  0  0  0  0  0  0  0  0  0  0
  186.0460  178.5790  141.3210 C   0  0  0  0  0  3  0  0  0  0  0  0
  190.4810  177.6350  143.0430 C   0  0  0  0  0  3  0  0  0  0  0  0
  184.0420  178.5340  142.8020 C   0  0  0  0  0  0  0  0  0  0  0  0
  183.1720  178.6880  141.6720 N   0  0  0  0  0  2  0  0  0  0  0  0
  183.5710  178.5140  143.9730 O   0  0  0  0  0  0  0  0  0  0  0  0
  181.7540  178.8710  141.7400 C   0  0  0  0  0  0  0  0  0  0  0  0
  181.1570  178.9290  142.8490 O   0  0  0  0  0  0  0  0  0  0  0  0
  180.9710  178.9690  140.4790 C   0  0  0  0  0  2  0  0  0  0  0  0
  181.7980  179.5540  139.4310 N   0  0  0  0  0  0  0  0  0  0  0  0
  181.0020  179.1710  137.1190 C   0  0  0  0  0  2  0  0  0  0  0  0
  182.3780  177.2870  138.4240 C   0  0  2  0  0  3  0  0  0  0  0  0
  181.0860  180.7420  138.9660 C   0  0  0  0  0  2  0  0  0  0  0  0
  181.7890  178.6490  138.2900 C   0  0  2  0  0  0  0  0  0  0  0  0
  183.1090  178.3690  137.8930 O   0  0  0  0  0  0  0  0  0  0  0  0
  180.8370  180.6290  137.4640 C   0  0  0  0  0  2  0  0  0  0  0  0
  181.9290  176.4140  137.3410 N   0  0  0  0  0  0  0  0  0  0  0  0
  183.9000  174.8880  137.6430 C   0  0  0  0  0  2  0  0  0  0  0  0
  181.5790  174.0330  137.4570 C   0  0  0  0  0  3  0  0  0  0  0  0
  182.8730  174.2730  136.7140 C   0  0  1  0  0  3  0  0  0  0  0  0
  181.0680  175.3830  137.9090 C   0  0  0  0  0  3  0  0  0  0  0  0
  183.0890  175.7730  136.6990 C   0  0  1  0  0  3  0  0  0  0  0  0
  187.9860  178.6170  139.8200 O   0  0  0  0  0  0  0  0  0  0  0  0
  186.3590  177.5000  136.6520 C   0  0  0  0  0  3  0  0  0  0  0  0
  187.1480  176.3860  136.3460 C   0  0  0  0  0  0  0  0  0  0  0  0
  188.4570  176.7690  138.3480 C   0  0  0  0  0  3  0  0  0  0  0  0
  186.6220  178.2460  137.8030 C   0  0  0  0  0  3  0  0  0  0  0  0
  187.6690  177.8810  138.6670 C   0  0  0  0  0  0  0  0  0  0  0  0
  188.1940  176.0180  137.1980 C   0  0  0  0  0  3  0  0  0  0  0  0
  186.6500  174.2470  135.4930 O   0  0  0  0  0  1  0  0  0  0  0  0
  186.8560  175.5780  135.1320 C   0  0  0  0  0  2  0  0  0  0  0  0
  1  5  1  0  0  0  0
  1  6  1  0  0  0  0
  2 11  1  0  0  0  0
  3 16  1  0  0  0  0
  3 10  1  0  0  0  0
  4  7  2  0  0  0  0
  4  8  1  0  0  0  0
  7  9  1  0  0  0  0
  8  1  2  0  0  0  0
  9  5  2  0  0  0  0
 11 10  2  0  0  0  0
 11  7  1  0  0  0  0
 12  2  1  0  0  0  0
 12 15  2  0  0  0  0
 13 14  1  0  0  0  0
 13  2  2  0  0  0  0
 14  3  2  0  0  0  0
 15  4  1  0  0  0  0
 16 18  2  0  0  0  0
 17 19  1  0  0  0  0
 17 16  1  0  0  0  0
 19 20  2  0  0  0  0
 21 19  1  0  0  0  0
 22 21  1  0  0  0  0
 23 28  1  0  0  0  0
 24 29  1  6  0  0  0
 25 22  1  0  0  0  0
 26 23  1  6  0  0  0
 26 24  1  0  0  0  0
 26 22  1  0  0  0  0
 27 26  1  0  0  0  0
 27 24  1  0  0  0  0
 28 25  1  0  0  0  0
 29 33  1  0  0  0  0
 31 33  2  0  0  0  0
 32 31  1  1  0  0  0
 32 30  1  0  0  0  0
 34 32  1  0  0  0  0
 34 29  1  0  0  0  0
 34 30  1  1  0  0  0
 35 13  1  0  0  0  0
 36 39  1  0  0  0  0
 37 36  2  0  0  0  0
 37 41  1  0  0  0  0
 38 40  1  0  0  0  0
 39 40  2  0  0  0  0
 40 35  1  0  0  0  0
 41 38  2  0  0  0  0
 43 42  1  0  0  0  0
 43 37  1  0  0  0  0
M  END
>  <MODEL>
3

>  <REMARK>
 VINA RESULT:     -11.3      4.012      8.176
  Name = 
  7 active torsions:
  status: ('A' for Active; 'I' for Inactive)
    1  A    between atoms: O_1  and  C_34
    2  A    between atoms: O_1  and  C_35
    3  A    between atoms: C_2  and  C_13
    4  A    between atoms: C_3  and  N_4
    5  A    between atoms: C_3  and  C_12
    6  A    between atoms: N_11  and  C_14
    7  A    between atoms: C_19  and  C_37
                            x       y       z     vdW  Elec       q    Type
                         _______ _______ _______ _____ _____    ______ ____

>  <TORSDO>
F 7

$$$$
=
 OpenBabel10222418553D

 43 50  0  0  1  0  0  0  0  0999 V2000
  187.8940  177.5490  147.6050 C   0  0  0  0  0  0  0  0  0  0  0  0
  186.6090  178.4860  142.7960 C   0  0  0  0  0  0  0  0  0  0  0  0
  188.8010  177.7240  141.2050 C   0  0  0  0  0  0  0  0  0  0  0  0
  186.7190  178.2080  145.5920 C   0  0  0  0  0  0  0  0  0  0  0  0
  188.9900  177.1450  146.8400 C   0  0  0  0  0  3  0  0  0  0  0  0
  187.9310  177.4250  148.9870 O   0  0  0  0  0  1  0  0  0  0  0  0
  187.8260  177.8030  144.8060 C   0  0  0  0  0  0  0  0  0  0  0  0
  186.7610  178.0790  146.9830 C   0  0  0  0  0  3  0  0  0  0  0  0
  188.9580  177.2710  145.4490 C   0  0  0  0  0  3  0  0  0  0  0  0
  188.8550  177.5700  142.5940 C   0  0  0  0  0  3  0  0  0  0  0  0
  187.7720  177.9460  143.4040 C   0  0  0  0  0  0  0  0  0  0  0  0
  185.5270  178.8770  143.5970 C   0  0  0  0  0  3  0  0  0  0  0  0
  186.5410  178.6280  141.3990 C   0  0  0  0  0  0  0  0  0  0  0  0
  187.6460  178.2530  140.6200 C   0  0  0  0  0  3  0  0  0  0  0  0
  185.5830  178.7400  144.9830 C   0  0  0  0  0  3  0  0  0  0  0  0
  189.9510  177.3410  140.3690 C   0  0  0  0  0  0  0  0  0  0  0  0
  189.7310  176.6850  139.1120 N   0  0  0  0  0  2  0  0  0  0  0  0
  191.1240  177.5880  140.7630 O   0  0  0  0  0  0  0  0  0  0  0  0
  190.7600  176.2240  138.2300 C   0  0  0  0  0  0  0  0  0  0  0  0
  191.9790  176.3530  138.5250 O   0  0  0  0  0  0  0  0  0  0  0  0
  190.3800  175.6020  136.9330 C   0  0  0  0  0  2  0  0  0  0  0  0
  190.3190  174.1540  137.0800 N   0  0  0  0  0  0  0  0  0  0  0  0
  189.4230  172.9300  135.1230 C   0  0  0  0  0  2  0  0  0  0  0  0
  187.7800  174.0970  136.8780 C   0  0  2  0  0  3  0  0  0  0  0  0
  191.4310  173.6170  136.2990 C   0  0  0  0  0  2  0  0  0  0  0  0
  189.1250  173.6800  136.3920 C   0  0  2  0  0  0  0  0  0  0  0  0
  188.3650  172.8730  137.2580 O   0  0  0  0  0  0  0  0  0  0  0  0
  190.8960  172.6360  135.2590 C   0  0  0  0  0  2  0  0  0  0  0  0
  186.7590  173.8620  135.8580 N   0  0  0  0  0  0  0  0  0  0  0  0
  184.9780  173.5390  137.5980 C   0  0  0  0  0  2  0  0  0  0  0  0
  184.6550  175.0140  135.6300 C   0  0  0  0  0  3  0  0  0  0  0  0
  184.3720  173.6480  136.2120 C   0  0  1  0  0  3  0  0  0  0  0  0
  186.1570  175.1440  135.5080 C   0  0  0  0  0  3  0  0  0  0  0  0
  185.7160  172.9680  136.3880 C   0  0  1  0  0  3  0  0  0  0  0  0
  185.3820  179.1750  140.8180 O   0  0  0  0  0  0  0  0  0  0  0  0
  183.6360  177.8000  137.8190 C   0  0  0  0  0  3  0  0  0  0  0  0
  182.6030  177.0880  138.4370 C   0  0  0  0  0  0  0  0  0  0  0  0
  183.4260  177.7860  140.6060 C   0  0  0  0  0  3  0  0  0  0  0  0
  184.5620  178.5010  138.5960 C   0  0  0  0  0  3  0  0  0  0  0  0
  184.4590  178.5070  139.9970 C   0  0  0  0  0  0  0  0  0  0  0  0
  182.4950  177.0860  139.8310 C   0  0  0  0  0  3  0  0  0  0  0  0
  181.5170  175.0350  138.0400 O   0  0  0  0  0  1  0  0  0  0  0  0
  181.6040  176.3590  137.6100 C   0  0  0  0  0  2  0  0  0  0  0  0
  1  6  1  0  0  0  0
  2 11  1  0  0  0  0
  2 12  1  0  0  0  0
  3 10  1  0  0  0  0
  4  8  2  0  0  0  0
  5  1  2  0  0  0  0
  7  9  2  0  0  0  0
  7  4  1  0  0  0  0
  8  1  1  0  0  0  0
  9  5  1  0  0  0  0
 10 11  2  0  0  0  0
 11  7  1  0  0  0  0
 12 15  2  0  0  0  0
 13  2  2  0  0  0  0
 14  3  2  0  0  0  0
 14 13  1  0  0  0  0
 15  4  1  0  0  0  0
 16 18  2  0  0  0  0
 16  3  1  0  0  0  0
 17 16  1  0  0  0  0
 19 20  2  0  0  0  0
 19 17  1  0  0  0  0
 21 22  1  0  0  0  0
 21 19  1  0  0  0  0
 23 28  1  0  0  0  0
 24 29  1  6  0  0  0
 24 27  1  0  0  0  0
 25 22  1  0  0  0  0
 26 23  1  6  0  0  0
 26 24  1  0  0  0  0
 26 22  1  0  0  0  0
 26 27  1  0  0  0  0
 28 25  1  0  0  0  0
 29 34  1  0  0  0  0
 32 31  1  6  0  0  0
 32 34  1  0  0  0  0
 32 30  1  0  0  0  0
 33 31  2  0  0  0  0
 33 29  1  0  0  0  0
 34 30  1  1  0  0  0
 35 13  1  0  0  0  0
 36 37  2  0  0  0  0
 36 39  1  0  0  0  0
 37 41  1  0  0  0  0
 39 40  2  0  0  0  0
 40 38  1  0  0  0  0
 40 35  1  0  0  0  0
 41 38  2  0  0  0  0
 43 42  1  0  0  0  0
 43 37  1  0  0  0  0
M  END
>  <MODEL>
4

>  <REMARK>
 VINA RESULT:     -11.1      2.745      4.849
  Name = 
  7 active torsions:
  status: ('A' for Active; 'I' for Inactive)
    1  A    between atoms: O_1  and  C_34
    2  A    between atoms: O_1  and  C_35
    3  A    between atoms: C_2  and  C_13
    4  A    between atoms: C_3  and  N_4
    5  A    between atoms: C_3  and  C_12
    6  A    between atoms: N_11  and  C_14
    7  A    between atoms: C_19  and  C_37
                            x       y       z     vdW  Elec       q    Type
                         _______ _______ _______ _____ _____    ______ ____

>  <TORSDO>
F 7

$$$$
=
 OpenBabel10222418553D

 43 50  0  0  1  0  0  0  0  0999 V2000
  181.3220  179.0010  142.5090 C   0  0  0  0  0  0  0  0  0  0  0  0
  186.0140  178.3390  144.3000 C   0  0  0  0  0  0  0  0  0  0  0  0
  187.6930  177.9820  142.0700 C   0  0  0  0  0  0  0  0  0  0  0  0
  183.2550  178.7520  143.9480 C   0  0  0  0  0  0  0  0  0  0  0  0
  182.1330  178.8450  141.3830 C   0  0  0  0  0  3  0  0  0  0  0  0
  179.9580  179.2000  142.3560 O   0  0  0  0  0  1  0  0  0  0  0  0
  184.0870  178.5920  142.8120 C   0  0  0  0  0  0  0  0  0  0  0  0
  181.8820  178.9550  143.7880 C   0  0  0  0  0  3  0  0  0  0  0  0
  183.5080  178.6420  141.5320 C   0  0  0  0  0  3  0  0  0  0  0  0
  186.3240  178.2020  141.8900 C   0  0  0  0  0  3  0  0  0  0  0  0
  185.4710  178.3800  142.9900 C   0  0  0  0  0  0  0  0  0  0  0  0
  185.1690  178.5030  145.4060 C   0  0  0  0  0  3  0  0  0  0  0  0
  187.3930  178.1350  144.4890 C   0  0  0  0  0  0  0  0  0  0  0  0
  188.2150  177.9490  143.3680 C   0  0  0  0  0  3  0  0  0  0  0  0
  183.8010  178.7070  145.2300 C   0  0  0  0  0  3  0  0  0  0  0  0
  188.5730  177.7800  140.9070 C   0  0  0  0  0  0  0  0  0  0  0  0
  188.0030  177.6070  139.6020 N   0  0  0  0  0  2  0  0  0  0  0  0
  189.8250  177.7580  141.0640 O   0  0  0  0  0  0  0  0  0  0  0  0
  188.7430  177.3600  138.4030 C   0  0  0  0  0  0  0  0  0  0  0  0
  189.9990  177.2550  138.4220 O   0  0  0  0  0  0  0  0  0  0  0  0
  188.0160  177.2490  137.1090 C   0  0  0  0  0  2  0  0  0  0  0  0
  187.6600  175.8570  136.8630 N   0  0  0  0  0  0  0  0  0  0  0  0
  185.9760  175.4970  135.0850 C   0  0  0  0  0  2  0  0  0  0  0  0
  185.2330  176.2060  137.5520 C   0  0  2  0  0  3  0  0  0  0  0  0
  188.3410  175.4760  135.6270 C   0  0  0  0  0  2  0  0  0  0  0  0
  186.2420  175.8050  136.5330 C   0  0  2  0  0  0  0  0  0  0  0  0
  185.5970  174.8600  137.3500 O   0  0  0  0  0  0  0  0  0  0  0  0
  187.3120  174.9840  134.6120 C   0  0  0  0  0  2  0  0  0  0  0  0
  183.9360  176.4670  136.9300 N   0  0  0  0  0  0  0  0  0  0  0  0
  182.7190  175.9870  139.0740 C   0  0  0  0  0  2  0  0  0  0  0  0
  182.2460  178.0000  137.7030 C   0  0  0  0  0  3  0  0  0  0  0  0
  181.7890  176.6000  138.0450 C   0  0  1  0  0  3  0  0  0  0  0  0
  183.6250  177.8820  137.0930 C   0  0  0  0  0  3  0  0  0  0  0  0
  182.8920  175.6650  137.5900 C   0  0  1  0  0  3  0  0  0  0  0  0
  187.9090  178.0880  145.7970 O   0  0  0  0  0  0  0  0  0  0  0  0
  191.2360  176.3980  145.7310 C   0  0  0  0  0  3  0  0  0  0  0  0
  191.5330  176.3770  147.0970 C   0  0  0  0  0  0  0  0  0  0  0  0
  189.4240  177.4730  147.5670 C   0  0  0  0  0  3  0  0  0  0  0  0
  190.0360  176.9580  145.2860 C   0  0  0  0  0  3  0  0  0  0  0  0
  189.1150  177.4930  146.2020 C   0  0  0  0  0  0  0  0  0  0  0  0
  190.6230  176.9110  148.0150 C   0  0  0  0  0  3  0  0  0  0  0  0
  193.1340  176.2860  148.8240 O   0  0  0  0  0  1  0  0  0  0  0  0
  192.8010  175.7640  147.5740 C   0  0  0  0  0  2  0  0  0  0  0  0
  1  8  1  0  0  0  0
  2 13  1  0  0  0  0
  2 12  1  0  0  0  0
  3 14  1  0  0  0  0
  4 15  1  0  0  0  0
  5  9  1  0  0  0  0
  5  1  2  0  0  0  0
  6  1  1  0  0  0  0
  7 11  1  0  0  0  0
  7  4  1  0  0  0  0
  8  4  2  0  0  0  0
  9  7  2  0  0  0  0
 10  3  2  0  0  0  0
 10 11  1  0  0  0  0
 11  2  2  0  0  0  0
 13 35  1  0  0  0  0
 14 13  2  0  0  0  0
 15 12  2  0  0  0  0
 16 18  2  0  0  0  0
 16  3  1  0  0  0  0
 17 16  1  0  0  0  0
 19 20  2  0  0  0  0
 19 17  1  0  0  0  0
 21 19  1  0  0  0  0
 22 21  1  0  0  0  0
 24 29  1  6  0  0  0
 25 22  1  0  0  0  0
 26 23  1  6  0  0  0
 26 22  1  0  0  0  0
 26 27  1  0  0  0  0
 26 24  1  0  0  0  0
 27 24  1  0  0  0  0
 28 23  1  0  0  0  0
 28 25  1  0  0  0  0
 29 33  1  0  0  0  0
 29 34  1  0  0  0  0
 32 31  1  6  0  0  0
 32 30  1  0  0  0  0
 33 31  2  0  0  0  0
 34 32  1  0  0  0  0
 34 30  1  1  0  0  0
 35 40  1  0  0  0  0
 36 37  1  0  0  0  0
 37 43  1  0  0  0  0
 37 41  2  0  0  0  0
 38 41  1  0  0  0  0
 39 36  2  0  0  0  0
 39 40  1  0  0  0  0
 40 38  2  0  0  0  0
 43 42  1  0  0  0  0
M  END
>  <MODEL>
5

>  <REMARK>
 VINA RESULT:     -10.9      3.190      8.220
  Name = 
  7 active torsions:
  status: ('A' for Active; 'I' for Inactive)
    1  A    between atoms: O_1  and  C_34
    2  A    between atoms: O_1  and  C_35
    3  A    between atoms: C_2  and  C_13
    4  A    between atoms: C_3  and  N_4
    5  A    between atoms: C_3  and  C_12
    6  A    between atoms: N_11  and  C_14
    7  A    between atoms: C_19  and  C_37
                            x       y       z     vdW  Elec       q    Type
                         _______ _______ _______ _____ _____    ______ ____

>  <TORSDO>
F 7

$$$$
=
 OpenBabel10222418553D

 43 50  0  0  1  0  0  0  0  0999 V2000
  180.0850  175.0770  137.6830 C   0  0  0  0  0  0  0  0  0  0  0  0
  184.2230  177.6990  138.9720 C   0  0  0  0  0  0  0  0  0  0  0  0
  184.0220  178.2320  141.7280 C   0  0  0  0  0  0  0  0  0  0  0  0
  182.1980  176.2610  137.6530 C   0  0  0  0  0  0  0  0  0  0  0  0
  179.9670  175.3100  139.0550 C   0  0  0  0  0  3  0  0  0  0  0  0
  179.0940  174.3740  137.0130 O   0  0  0  0  0  1  0  0  0  0  0  0
  182.0880  176.5050  139.0440 C   0  0  0  0  0  0  0  0  0  0  0  0
  181.1980  175.5510  136.9840 C   0  0  0  0  0  3  0  0  0  0  0  0
  180.9620  176.0200  139.7330 C   0  0  0  0  0  3  0  0  0  0  0  0
  183.0200  177.5030  141.0790 C   0  0  0  0  0  3  0  0  0  0  0  0
  183.1020  177.2300  139.7050 C   0  0  0  0  0  0  0  0  0  0  0  0
  184.3080  177.4420  137.5970 C   0  0  0  0  0  3  0  0  0  0  0  0
  185.2430  178.4180  139.6210 C   0  0  0  0  0  0  0  0  0  0  0  0
  185.1240  178.6840  140.9930 C   0  0  0  0  0  3  0  0  0  0  0  0
  183.3030  176.7300  136.9430 C   0  0  0  0  0  3  0  0  0  0  0  0
  183.9150  178.5260  143.1670 C   0  0  0  0  0  0  0  0  0  0  0  0
  185.1050  178.6940  143.9500 N   0  0  0  0  0  2  0  0  0  0  0  0
  182.7780  178.6270  143.7040 O   0  0  0  0  0  0  0  0  0  0  0  0
  185.1380  178.9370  145.3600 C   0  0  0  0  0  0  0  0  0  0  0  0
  184.0760  179.0040  146.0360 O   0  0  0  0  0  0  0  0  0  0  0  0
  186.4500  179.1380  146.0330 C   0  0  0  0  0  2  0  0  0  0  0  0
  186.8700  177.8990  146.6740 N   0  0  0  0  0  0  0  0  0  0  0  0
  189.1610  177.9170  147.6110 C   0  0  0  0  0  2  0  0  0  0  0  0
  188.7520  177.5030  145.0030 C   0  0  2  0  0  3  0  0  0  0  0  0
  186.7970  178.1400  148.1130 C   0  0  0  0  0  2  0  0  0  0  0  0
  188.2890  177.7080  146.4040 C   0  0  2  0  0  0  0  0  0  0  0  0
  188.5040  176.4230  145.8740 O   0  0  0  0  0  0  0  0  0  0  0  0
  188.1640  177.8780  148.7420 C   0  0  0  0  0  2  0  0  0  0  0  0
  190.1910  177.7280  144.8890 N   0  0  0  0  0  0  0  0  0  0  0  0
  190.4030  175.9970  143.0830 C   0  0  0  0  0  2  0  0  0  0  0  0
  191.4170  178.2520  142.8820 C   0  0  0  0  0  3  0  0  0  0  0  0
  191.6800  176.8020  143.2170 C   0  0  1  0  0  3  0  0  0  0  0  0
  190.4160  178.7690  143.8920 C   0  0  0  0  0  3  0  0  0  0  0  0
  190.8600  176.4910  144.4540 C   0  0  1  0  0  3  0  0  0  0  0  0
  186.3410  178.8830  138.8730 O   0  0  0  0  0  0  0  0  0  0  0  0
  189.6990  177.4980  139.7280 C   0  0  0  0  0  3  0  0  0  0  0  0
  190.0840  176.9910  138.4820 C   0  0  0  0  0  0  0  0  0  0  0  0
  187.9940  177.7600  137.5290 C   0  0  0  0  0  3  0  0  0  0  0  0
  188.4620  178.1320  139.8710 C   0  0  0  0  0  3  0  0  0  0  0  0
  187.6020  178.2760  138.7690 C   0  0  0  0  0  0  0  0  0  0  0  0
  189.2330  177.1280  137.3820 C   0  0  0  0  0  3  0  0  0  0  0  0
  191.2520  174.9490  138.3420 O   0  0  0  0  0  1  0  0  0  0  0  0
  191.4090  176.3340  138.3240 C   0  0  0  0  0  2  0  0  0  0  0  0
  1  5  1  0  0  0  0
  2 13  2  0  0  0  0
  2 11  1  0  0  0  0
  3 16  1  0  0  0  0
  4  7  2  0  0  0  0
  5  9  2  0  0  0  0
  6  1  1  0  0  0  0
  7 11  1  0  0  0  0
  7  9  1  0  0  0  0
  8  4  1  0  0  0  0
  8  1  2  0  0  0  0
 10  3  1  0  0  0  0
 11 10  2  0  0  0  0
 12  2  1  0  0  0  0
 13 14  1  0  0  0  0
 14  3  2  0  0  0  0
 15 12  2  0  0  0  0
 15  4  1  0  0  0  0
 16 18  2  0  0  0  0
 16 17  1  0  0  0  0
 17 19  1  0  0  0  0
 19 21  1  0  0  0  0
 19 20  2  0  0  0  0
 21 22  1  0  0  0  0
 22 25  1  0  0  0  0
 23 28  1  0  0  0  0
 24 29  1  1  0  0  0
 24 27  1  0  0  0  0
 24 26  1  0  0  0  0
 25 28  1  0  0  0  0
 26 22  1  0  0  0  0
 26 23  1  1  0  0  0
 27 26  1  0  0  0  0
 30 32  1  0  0  0  0
 31 33  2  0  0  0  0
 32 31  1  6  0  0  0
 32 34  1  0  0  0  0
 33 29  1  0  0  0  0
 34 30  1  6  0  0  0
 34 29  1  0  0  0  0
 35 13  1  0  0  0  0
 36 39  1  0  0  0  0
 37 36  2  0  0  0  0
 38 40  1  0  0  0  0
 40 35  1  0  0  0  0
 40 39  2  0  0  0  0
 41 38  2  0  0  0  0
 41 37  1  0  0  0  0
 43 42  1  0  0  0  0
 43 37  1  0  0  0  0
M  END
>  <MODEL>
6

>  <REMARK>
 VINA RESULT:     -10.8      3.366      9.797
  Name = 
  7 active torsions:
  status: ('A' for Active; 'I' for Inactive)
    1  A    between atoms: O_1  and  C_34
    2  A    between atoms: O_1  and  C_35
    3  A    between atoms: C_2  and  C_13
    4  A    between atoms: C_3  and  N_4
    5  A    between atoms: C_3  and  C_12
    6  A    between atoms: N_11  and  C_14
    7  A    between atoms: C_19  and  C_37
                            x       y       z     vdW  Elec       q    Type
                         _______ _______ _______ _____ _____    ______ ____

>  <TORSDO>
F 7

$$$$
=
 OpenBabel10222418553D

 43 50  0  0  1  0  0  0  0  0999 V2000
  188.2500  177.4320  147.1950 C   0  0  0  0  0  0  0  0  0  0  0  0
  187.7590  178.2780  142.2240 C   0  0  0  0  0  0  0  0  0  0  0  0
  184.9980  178.3430  141.6800 C   0  0  0  0  0  0  0  0  0  0  0  0
  188.6780  177.8330  144.8440 C   0  0  0  0  0  0  0  0  0  0  0  0
  186.8740  177.4780  146.9580 C   0  0  0  0  0  3  0  0  0  0  0  0
  188.7240  177.2090  148.4800 O   0  0  0  0  0  1  0  0  0  0  0  0
  187.2850  177.8800  144.5930 C   0  0  0  0  0  0  0  0  0  0  0  0
  189.1490  177.6100  146.1410 C   0  0  0  0  0  3  0  0  0  0  0  0
  186.3930  177.7000  145.6650 C   0  0  0  0  0  3  0  0  0  0  0  0
  185.4510  178.1370  142.9870 C   0  0  0  0  0  3  0  0  0  0  0  0
  186.8230  178.0990  143.2770 C   0  0  0  0  0  0  0  0  0  0  0  0
  189.1310  178.2290  142.5020 C   0  0  0  0  0  3  0  0  0  0  0  0
  187.3110  178.5030  140.9110 C   0  0  0  0  0  0  0  0  0  0  0  0
  185.9320  178.5220  140.6530 C   0  0  0  0  0  3  0  0  0  0  0  0
  189.5870  178.0070  143.8010 C   0  0  0  0  0  3  0  0  0  0  0  0
  183.5560  178.3640  141.3870 C   0  0  0  0  0  0  0  0  0  0  0  0
  183.0810  177.9120  140.1110 N   0  0  0  0  0  2  0  0  0  0  0  0
  182.7430  178.7800  142.2590 O   0  0  0  0  0  0  0  0  0  0  0  0
  181.7140  177.9220  139.6860 C   0  0  0  0  0  0  0  0  0  0  0  0
  180.8020  178.3670  140.4350 O   0  0  0  0  0  0  0  0  0  0  0  0
  181.3640  177.3760  138.3470 C   0  0  0  0  0  2  0  0  0  0  0  0
  182.2780  177.9080  137.3450 N   0  0  0  0  0  0  0  0  0  0  0  0
  182.2020  176.7800  135.1420 C   0  0  0  0  0  2  0  0  0  0  0  0
  183.5860  175.7280  137.1730 C   0  0  2  0  0  3  0  0  0  0  0  0
  181.4610  178.7000  136.4280 C   0  0  0  0  0  2  0  0  0  0  0  0
  182.7610  176.7950  136.5390 C   0  0  2  0  0  0  0  0  0  0  0  0
  184.1670  176.8160  136.4910 O   0  0  0  0  0  0  0  0  0  0  0  0
  181.6330  178.1700  135.0060 C   0  0  0  0  0  2  0  0  0  0  0  0
  183.6340  174.5340  136.3310 N   0  0  0  0  0  0  0  0  0  0  0  0
  185.8690  173.8690  137.2600 C   0  0  0  0  0  2  0  0  0  0  0  0
  183.9860  172.2660  137.0630 C   0  0  0  0  0  3  0  0  0  0  0  0
  185.2700  172.7510  136.4290 C   0  0  1  0  0  3  0  0  0  0  0  0
  183.0220  173.4310  137.0640 C   0  0  0  0  0  3  0  0  0  0  0  0
  185.0320  174.1920  136.0240 C   0  0  1  0  0  3  0  0  0  0  0  0
  188.2550  178.6670  139.8800 O   0  0  0  0  0  0  0  0  0  0  0  0
  188.9480  175.9460  137.4220 C   0  0  0  0  0  3  0  0  0  0  0  0
  190.2820  175.6610  137.7340 C   0  0  0  0  0  0  0  0  0  0  0  0
  190.2340  177.3590  139.4610 C   0  0  0  0  0  3  0  0  0  0  0  0
  188.2630  176.9360  138.1290 C   0  0  0  0  0  3  0  0  0  0  0  0
  188.8980  177.6460  139.1610 C   0  0  0  0  0  0  0  0  0  0  0  0
  190.9220  176.3660  138.7570 C   0  0  0  0  0  3  0  0  0  0  0  0
  190.3810  173.3660  137.2130 O   0  0  0  0  0  1  0  0  0  0  0  0
  191.0070  174.5930  136.9970 C   0  0  0  0  0  2  0  0  0  0  0  0
  1  6  1  0  0  0  0
  2 12  1  0  0  0  0
  2 11  1  0  0  0  0
  3 10  1  0  0  0  0
  4  8  1  0  0  0  0
  5  1  1  0  0  0  0
  7  4  2  0  0  0  0
  7  9  1  0  0  0  0
  8  1  2  0  0  0  0
  9  5  2  0  0  0  0
 10 11  2  0  0  0  0
 11  7  1  0  0  0  0
 12 15  2  0  0  0  0
 13  2  2  0  0  0  0
 14 13  1  0  0  0  0
 14  3  2  0  0  0  0
 15  4  1  0  0  0  0
 16  3  1  0  0  0  0
 16 18  2  0  0  0  0
 17 16  1  0  0  0  0
 19 17  1  0  0  0  0
 19 20  2  0  0  0  0
 21 19  1  0  0  0  0
 22 21  1  0  0  0  0
 24 29  1  6  0  0  0
 25 22  1  0  0  0  0
 26 23  1  6  0  0  0
 26 24  1  0  0  0  0
 26 22  1  0  0  0  0
 27 26  1  0  0  0  0
 27 24  1  0  0  0  0
 28 23  1  0  0  0  0
 28 25  1  0  0  0  0
 29 33  1  0  0  0  0
 31 33  2  0  0  0  0
 32 31  1  1  0  0  0
 32 30  1  0  0  0  0
 34 29  1  0  0  0  0
 34 32  1  0  0  0  0
 34 30  1  1  0  0  0
 35 13  1  0  0  0  0
 36 37  2  0  0  0  0
 36 39  1  0  0  0  0
 37 41  1  0  0  0  0
 39 40  2  0  0  0  0
 40 38  1  0  0  0  0
 40 35  1  0  0  0  0
 41 38  2  0  0  0  0
 43 42  1  0  0  0  0
 43 37  1  0  0  0  0
M  END
>  <MODEL>
7

>  <REMARK>
 VINA RESULT:     -10.6      3.549      7.762
  Name = 
  7 active torsions:
  status: ('A' for Active; 'I' for Inactive)
    1  A    between atoms: O_1  and  C_34
    2  A    between atoms: O_1  and  C_35
    3  A    between atoms: C_2  and  C_13
    4  A    between atoms: C_3  and  N_4
    5  A    between atoms: C_3  and  C_12
    6  A    between atoms: N_11  and  C_14
    7  A    between atoms: C_19  and  C_37
                            x       y       z     vdW  Elec       q    Type
                         _______ _______ _______ _____ _____    ______ ____

>  <TORSDO>
F 7

$$$$
=
 OpenBabel10222418553D

 43 50  0  0  1  0  0  0  0  0999 V2000
  188.0270  177.4330  146.8380 C   0  0  0  0  0  0  0  0  0  0  0  0
  185.3780  178.5030  142.6550 C   0  0  0  0  0  0  0  0  0  0  0  0
  187.1600  178.2880  140.4870 C   0  0  0  0  0  0  0  0  0  0  0  0
  186.2700  178.0250  145.2780 C   0  0  0  0  0  0  0  0  0  0  0  0
  188.9290  177.3000  145.7800 C   0  0  0  0  0  3  0  0  0  0  0  0
  188.4490  177.2060  148.1400 O   0  0  0  0  0  1  0  0  0  0  0  0
  187.1780  177.8950  144.1980 C   0  0  0  0  0  0  0  0  0  0  0  0
  186.7010  177.7930  146.5870 C   0  0  0  0  0  3  0  0  0  0  0  0
  188.5090  177.5300  144.4680 C   0  0  0  0  0  3  0  0  0  0  0  0
  187.6040  178.0350  141.7890 C   0  0  0  0  0  3  0  0  0  0  0  0
  186.7310  178.1390  142.8820 C   0  0  0  0  0  0  0  0  0  0  0  0
  184.5010  178.6220  143.7410 C   0  0  0  0  0  3  0  0  0  0  0  0
  184.9200  178.7420  141.3470 C   0  0  0  0  0  0  0  0  0  0  0  0
  185.8220  178.6410  140.2780 C   0  0  0  0  0  3  0  0  0  0  0  0
  184.9440  178.3860  145.0420 C   0  0  0  0  0  3  0  0  0  0  0  0
  188.0910  178.1910  139.3510 C   0  0  0  0  0  0  0  0  0  0  0  0
  187.8930  177.1810  138.3510 N   0  0  0  0  0  2  0  0  0  0  0  0
  189.0600  178.9950  139.2620 O   0  0  0  0  0  0  0  0  0  0  0  0
  188.7480  176.9540  137.2260 C   0  0  0  0  0  0  0  0  0  0  0  0
  189.7860  177.6460  137.0450 O   0  0  0  0  0  0  0  0  0  0  0  0
  188.3900  175.8970  136.2420 C   0  0  0  0  0  2  0  0  0  0  0  0
  188.3230  174.6040  136.9110 N   0  0  0  0  0  0  0  0  0  0  0  0
  187.5960  172.7140  135.4880 C   0  0  0  0  0  2  0  0  0  0  0  0
  185.8090  174.3900  136.5570 C   0  0  2  0  0  3  0  0  0  0  0  0
  189.4980  173.8550  136.4710 C   0  0  0  0  0  2  0  0  0  0  0  0
  187.1910  173.8690  136.3620 C   0  0  2  0  0  0  0  0  0  0  0  0
  186.3670  173.4130  137.4060 O   0  0  0  0  0  0  0  0  0  0  0  0
  189.0530  172.5420  135.8320 C   0  0  0  0  0  2  0  0  0  0  0  0
  184.8760  173.7600  135.6240 N   0  0  0  0  0  0  0  0  0  0  0  0
  182.9680  174.0050  137.2380 C   0  0  0  0  0  2  0  0  0  0  0  0
  182.7790  174.6600  134.8520 C   0  0  0  0  0  3  0  0  0  0  0  0
  182.4730  173.5830  135.8690 C   0  0  1  0  0  3  0  0  0  0  0  0
  184.2830  174.8030  134.7940 C   0  0  0  0  0  3  0  0  0  0  0  0
  183.8090  173.0710  136.3690 C   0  0  1  0  0  3  0  0  0  0  0  0
  183.5770  179.1120  141.1450 O   0  0  0  0  0  0  0  0  0  0  0  0
  181.5340  176.3580  139.6720 C   0  0  0  0  0  3  0  0  0  0  0  0
  180.3300  176.5450  140.3580 C   0  0  0  0  0  0  0  0  0  0  0  0
  181.3000  178.4290  141.5330 C   0  0  0  0  0  3  0  0  0  0  0  0
  182.6170  177.2040  139.9190 C   0  0  0  0  0  3  0  0  0  0  0  0
  182.5060  178.2540  140.8470 C   0  0  0  0  0  0  0  0  0  0  0  0
  180.2120  177.5850  141.2850 C   0  0  0  0  0  3  0  0  0  0  0  0
  179.3970  174.4000  140.6360 O   0  0  0  0  0  1  0  0  0  0  0  0
  179.1690  175.6580  140.0800 C   0  0  0  0  0  2  0  0  0  0  0  0
  1  6  1  0  0  0  0
  2 11  1  0  0  0  0
  2 12  1  0  0  0  0
  3 10  1  0  0  0  0
  4  8  2  0  0  0  0
  5  1  2  0  0  0  0
  7  9  2  0  0  0  0
  7  4  1  0  0  0  0
  8  1  1  0  0  0  0
  9  5  1  0  0  0  0
 10 11  2  0  0  0  0
 11  7  1  0  0  0  0
 12 15  2  0  0  0  0
 13  2  2  0  0  0  0
 14  3  2  0  0  0  0
 14 13  1  0  0  0  0
 15  4  1  0  0  0  0
 16  3  1  0  0  0  0
 17 16  1  0  0  0  0
 18 16  2  0  0  0  0
 19 17  1  0  0  0  0
 20 19  2  0  0  0  0
 21 22  1  0  0  0  0
 21 19  1  0  0  0  0
 23 28  1  0  0  0  0
 24 29  1  6  0  0  0
 24 27  1  0  0  0  0
 25 22  1  0  0  0  0
 26 23  1  6  0  0  0
 26 24  1  0  0  0  0
 26 22  1  0  0  0  0
 26 27  1  0  0  0  0
 28 25  1  0  0  0  0
 29 34  1  0  0  0  0
 32 31  1  6  0  0  0
 32 34  1  0  0  0  0
 32 30  1  0  0  0  0
 33 31  2  0  0  0  0
 33 29  1  0  0  0  0
 34 30  1  1  0  0  0
 35 13  1  0  0  0  0
 36 39  2  0  0  0  0
 36 37  1  0  0  0  0
 37 41  2  0  0  0  0
 39 40  1  0  0  0  0
 40 35  1  0  0  0  0
 40 38  2  0  0  0  0
 41 38  1  0  0  0  0
 43 37  1  0  0  0  0
 43 42  1  0  0  0  0
M  END
>  <MODEL>
8

>  <REMARK>
 VINA RESULT:     -10.5      3.092      5.404
  Name = 
  7 active torsions:
  status: ('A' for Active; 'I' for Inactive)
    1  A    between atoms: O_1  and  C_34
    2  A    between atoms: O_1  and  C_35
    3  A    between atoms: C_2  and  C_13
    4  A    between atoms: C_3  and  N_4
    5  A    between atoms: C_3  and  C_12
    6  A    between atoms: N_11  and  C_14
    7  A    between atoms: C_19  and  C_37
                            x       y       z     vdW  Elec       q    Type
                         _______ _______ _______ _____ _____    ______ ____

>  <TORSDO>
F 7

$$$$
=
 OpenBabel10222418553D

 43 50  0  0  1  0  0  0  0  0999 V2000
  187.9850  177.7100  148.1420 C   0  0  0  0  0  0  0  0  0  0  0  0
  189.8340  177.5940  143.4270 C   0  0  0  0  0  0  0  0  0  0  0  0
  187.7230  178.3070  141.7080 C   0  0  0  0  0  0  0  0  0  0  0  0
  189.4220  177.4730  146.2060 C   0  0  0  0  0  0  0  0  0  0  0  0
  186.9230  178.0850  147.3150 C   0  0  0  0  0  3  0  0  0  0  0  0
  187.8000  177.6390  149.5150 O   0  0  0  0  0  1  0  0  0  0  0  0
  188.3520  177.8510  145.3580 C   0  0  0  0  0  0  0  0  0  0  0  0
  189.2310  177.4050  147.5890 C   0  0  0  0  0  3  0  0  0  0  0  0
  187.1040  178.1550  145.9310 C   0  0  0  0  0  3  0  0  0  0  0  0
  187.5180  178.2620  143.0910 C   0  0  0  0  0  3  0  0  0  0  0  0
  188.5570  177.9070  143.9630 C   0  0  0  0  0  0  0  0  0  0  0  0
  190.8760  177.2260  144.2890 C   0  0  0  0  0  3  0  0  0  0  0  0
  190.0520  177.6530  142.0400 C   0  0  0  0  0  0  0  0  0  0  0  0
  188.9880  178.0000  141.1950 C   0  0  0  0  0  3  0  0  0  0  0  0
  190.6700  177.1650  145.6670 C   0  0  0  0  0  3  0  0  0  0  0  0
  186.6180  178.6650  140.8030 C   0  0  0  0  0  0  0  0  0  0  0  0
  186.6780  178.2860  139.4210 N   0  0  0  0  0  2  0  0  0  0  0  0
  185.6250  179.3040  141.2470 O   0  0  0  0  0  0  0  0  0  0  0  0
  185.6950  178.6100  138.4320 C   0  0  0  0  0  0  0  0  0  0  0  0
  184.6780  179.2960  138.7240 O   0  0  0  0  0  0  0  0  0  0  0  0
  185.8680  178.1070  137.0430 C   0  0  0  0  0  2  0  0  0  0  0  0
  187.0530  177.2610  136.9690 N   0  0  0  0  0  0  0  0  0  0  0  0
  187.3130  175.9890  134.8620 C   0  0  0  0  0  2  0  0  0  0  0  0
  185.6880  175.1170  136.7950 C   0  0  2  0  0  3  0  0  0  0  0  0
  187.9980  177.9590  136.1010 C   0  0  0  0  0  2  0  0  0  0  0  0
  186.7010  176.0540  136.2340 C   0  0  2  0  0  0  0  0  0  0  0  0
  187.0710  174.9180  136.9770 O   0  0  0  0  0  0  0  0  0  0  0  0
  188.3780  177.0550  134.9310 C   0  0  0  0  0  2  0  0  0  0  0  0
  185.1880  174.2080  135.7650 N   0  0  0  0  0  0  0  0  0  0  0  0
  184.5600  172.4820  137.4770 C   0  0  0  0  0  2  0  0  0  0  0  0
  183.0070  173.1880  135.6750 C   0  0  0  0  0  3  0  0  0  0  0  0
  183.9930  172.1300  136.1160 C   0  0  1  0  0  3  0  0  0  0  0  0
  183.7710  174.4870  135.5550 C   0  0  0  0  0  3  0  0  0  0  0  0
  185.3440  172.8130  136.2080 C   0  0  1  0  0  3  0  0  0  0  0  0
  191.3230  177.3290  141.5280 O   0  0  0  0  0  0  0  0  0  0  0  0
  193.1730  176.6930  138.3500 C   0  0  0  0  0  3  0  0  0  0  0  0
  192.1560  176.1210  137.5790 C   0  0  0  0  0  0  0  0  0  0  0  0
  190.6160  176.3750  139.4330 C   0  0  0  0  0  3  0  0  0  0  0  0
  192.9100  177.1030  139.6590 C   0  0  0  0  0  3  0  0  0  0  0  0
  191.6260  176.9550  140.2090 C   0  0  0  0  0  0  0  0  0  0  0  0
  190.8760  175.9670  138.1200 C   0  0  0  0  0  3  0  0  0  0  0  0
  193.5790  176.3390  135.7150 O   0  0  0  0  0  1  0  0  0  0  0  0
  192.4280  175.7040  136.1780 C   0  0  0  0  0  2  0  0  0  0  0  0
  1  6  1  0  0  0  0
  2 11  1  0  0  0  0
  2 12  1  0  0  0  0
  3 10  1  0  0  0  0
  4  8  2  0  0  0  0
  5  1  2  0  0  0  0
  7  9  2  0  0  0  0
  7  4  1  0  0  0  0
  8  1  1  0  0  0  0
  9  5  1  0  0  0  0
 10 11  2  0  0  0  0
 11  7  1  0  0  0  0
 12 15  2  0  0  0  0
 13  2  2  0  0  0  0
 14  3  2  0  0  0  0
 14 13  1  0  0  0  0
 15  4  1  0  0  0  0
 16 18  2  0  0  0  0
 16  3  1  0  0  0  0
 17 16  1  0  0  0  0
 19 20  2  0  0  0  0
 19 17  1  0  0  0  0
 21 19  1  0  0  0  0
 22 21  1  0  0  0  0
 23 28  1  0  0  0  0
 24 29  1  6  0  0  0
 24 27  1  0  0  0  0
 25 22  1  0  0  0  0
 26 23  1  6  0  0  0
 26 24  1  0  0  0  0
 26 22  1  0  0  0  0
 26 27  1  0  0  0  0
 28 25  1  0  0  0  0
 29 34  1  0  0  0  0
 32 31  1  6  0  0  0
 32 34  1  0  0  0  0
 32 30  1  0  0  0  0
 33 31  2  0  0  0  0
 33 29  1  0  0  0  0
 34 30  1  1  0  0  0
 35 13  1  0  0  0  0
 36 39  1  0  0  0  0
 37 41  1  0  0  0  0
 37 36  2  0  0  0  0
 38 40  1  0  0  0  0
 39 40  2  0  0  0  0
 40 35  1  0  0  0  0
 41 38  2  0  0  0  0
 42 43  1  0  0  0  0
 43 37  1  0  0  0  0
M  END
>  <MODEL>
9

>  <REMARK>
 VINA RESULT:     -10.5      3.243      7.369
  Name = 
  7 active torsions:
  status: ('A' for Active; 'I' for Inactive)
    1  A    between atoms: O_1  and  C_34
    2  A    between atoms: O_1  and  C_35
    3  A    between atoms: C_2  and  C_13
    4  A    between atoms: C_3  and  N_4
    5  A    between atoms: C_3  and  C_12
    6  A    between atoms: N_11  and  C_14
    7  A    between atoms: C_19  and  C_37
                            x       y       z     vdW  Elec       q    Type
                         _______ _______ _______ _____ _____    ______ ____

>  <TORSDO>
F 7

$$$$
