=
 OpenBabel10222419453D

 33 38  0  0  1  0  0  0  0  0999 V2000
  189.3980  178.1010  142.8660 N   0  0  1  0  0  0  0  0  0  0  0  0
  190.8160  178.3800  143.0910 C   0  0  0  0  0  2  0  0  0  0  0  0
  190.1630  175.8350  137.0490 C   0  0  0  0  0  0  0  0  0  0  0  0
  188.7360  175.9290  136.7080 C   0  0  0  0  0  0  0  0  0  0  0  0
  192.0860  176.4020  138.3060 C   0  0  0  0  0  2  0  0  0  0  0  0
  190.6050  176.3730  138.1750 C   0  0  0  0  0  0  0  0  0  0  0  0
  187.6400  177.7200  141.1130 C   0  0  1  0  0  3  0  0  0  0  0  0
  191.7110  177.2670  142.5510 C   0  0  2  0  0  3  0  0  0  0  0  0
  192.4770  177.7280  141.3340 C   0  0  0  0  0  2  0  0  0  0  0  0
  187.2210  178.4060  139.4980 S   0  0  0  0  0  0  0  0  0  0  0  0
  186.6650  177.8710  143.3520 C   0  0  0  0  0  0  0  0  0  0  0  0
  184.5420  178.8370  146.1930 O   0  0  0  0  0  0  0  0  0  0  0  0
  189.0800  178.1530  141.4270 C   0  0  2  0  0  3  0  0  0  0  0  0
  186.7140  178.2520  142.1090 N   0  0  0  0  0  0  0  0  0  0  0  0
  191.2880  176.8000  141.1570 C   0  0  2  0  0  3  0  0  0  0  0  0
  189.0220  176.8050  143.4450 C   0  0  0  0  0  2  0  0  0  0  0  0
  185.5160  178.2920  145.6110 C   0  0  0  0  0  0  0  0  0  0  0  0
  191.4080  175.2390  135.9230 S   0  0  0  0  0  0  0  0  0  0  0  0
  186.4390  177.5230  146.3740 N   0  0  0  0  0  1  0  0  0  0  0  0
  187.8880  176.7560  137.5160 N   0  0  0  0  0  0  0  0  0  0  0  0
  185.6820  178.4800  144.2000 N   0  0  0  0  0  2  0  0  0  0  0  0
  192.6500  176.1410  136.9140 C   0  0  2  0  0  3  0  0  0  0  0  0
  187.5490  176.7590  143.8770 C   0  0  0  0  0  2  0  0  0  0  0  0
  188.2750  175.3560  135.6860 O   0  0  0  0  0  0  0  0  0  0  0  0
  189.6180  176.7910  139.2520 C   0  0  2  0  0  3  0  0  0  0  0  0
  188.2960  177.2540  138.6490 C   0  0  0  0  0  0  0  0  0  0  0  0
  190.1710  177.5960  140.4560 C   0  0  1  0  0  3  0  0  0  0  0  0
  193.9940  175.4160  136.9530 C   0  0  0  0  0  2  0  0  0  0  0  0
  195.2800  175.3160  138.9770 O   0  0  0  0  0  1  0  0  0  0  0  0
  194.2490  174.6920  138.2740 C   0  0  2  0  0  3  0  0  0  0  0  0
  194.0770  172.6200  136.9040 O   0  0  0  0  0  0  0  0  0  0  0  0
  194.6050  173.2670  138.0130 C   0  0  0  0  0  0  0  0  0  0  0  0
  195.3960  172.6540  138.7780 O   0  0  0  0  0  1  0  0  0  0  0  0
  1  2  1  6  0  0  0
  1 16  1  0  0  0  0
  3  6  2  0  0  0  0
  4  3  1  0  0  0  0
  4 20  1  0  0  0  0
  6  5  1  0  0  0  0
  6 25  1  0  0  0  0
  7 10  1  6  0  0  0
  7 13  1  0  0  0  0
  7 14  1  0  0  0  0
  8  9  1  6  0  0  0
  8  2  1  0  0  0  0
 11 23  1  0  0  0  0
 11 21  1  0  0  0  0
 13  1  1  0  0  0  0
 14 11  2  0  0  0  0
 15  9  1  0  0  0  0
 15  8  1  0  0  0  0
 16 23  1  0  0  0  0
 17 12  2  0  0  0  0
 17 19  1  0  0  0  0
 18 22  1  0  0  0  0
 18  3  1  0  0  0  0
 20 26  2  0  0  0  0
 21 17  1  0  0  0  0
 22 28  1  0  0  0  0
 22  5  1  0  0  0  0
 24  4  2  0  0  0  0
 25 27  1  0  0  0  0
 26 25  1  0  0  0  0
 26 10  1  0  0  0  0
 27 15  1  0  0  0  0
 27 13  1  0  0  0  0
 28 30  1  0  0  0  0
 30 29  1  0  0  0  0
 31 32  2  0  0  0  0
 32 30  1  0  0  0  0
 32 33  1  0  0  0  0
M  END
>  <MODEL>
1

>  <REMARK>
 VINA RESULT:      -8.1      0.000      0.000
  Name = 
  3 active torsions:
  status: ('A' for Active; 'I' for Inactive)
    1  A    between atoms: C_12  and  C_14
    2  A    between atoms: C_12  and  C_31
    3  A    between atoms: C_14  and  C_26
                            x       y       z     vdW  Elec       q    Type
                         _______ _______ _______ _____ _____    ______ ____

>  <TORSDO>
F 3

$$$$
=
 OpenBabel10222419453D

 33 38  0  0  1  0  0  0  0  0999 V2000
  190.6240  177.1110  137.5100 N   0  0  1  0  0  0  0  0  0  0  0  0
  189.4230  177.7350  136.9560 C   0  0  0  0  0  2  0  0  0  0  0  0
  188.6440  177.2230  143.4780 C   0  0  0  0  0  0  0  0  0  0  0  0
  189.9780  176.9660  144.0390 C   0  0  0  0  0  0  0  0  0  0  0  0
  187.1570  177.9280  141.7770 C   0  0  0  0  0  2  0  0  0  0  0  0
  188.5130  177.4760  142.1840 C   0  0  0  0  0  0  0  0  0  0  0  0
  191.9860  176.7850  139.5950 C   0  0  1  0  0  3  0  0  0  0  0  0
  188.1490  177.2020  137.6060 C   0  0  2  0  0  3  0  0  0  0  0  0
  187.5060  178.2500  138.4820 C   0  0  0  0  0  2  0  0  0  0  0  0
  192.4940  177.7890  141.0050 S   0  0  0  0  0  0  0  0  0  0  0  0
  193.1220  175.8830  137.6250 C   0  0  0  0  0  0  0  0  0  0  0  0
  195.6660  175.1500  135.0750 O   0  0  0  0  0  0  0  0  0  0  0  0
  190.8260  177.5250  138.9110 C   0  0  2  0  0  3  0  0  0  0  0  0
  193.1150  176.6430  138.6810 N   0  0  0  0  0  0  0  0  0  0  0  0
  188.2660  177.1050  139.1280 C   0  0  2  0  0  3  0  0  0  0  0  0
  190.5540  175.6490  137.3930 C   0  0  0  0  0  2  0  0  0  0  0  0
  194.5190  175.1610  135.5930 C   0  0  0  0  0  0  0  0  0  0  0  0
  187.1830  177.4510  144.4720 S   0  0  0  0  0  0  0  0  0  0  0  0
  193.4440  174.5200  134.9140 N   0  0  0  0  0  1  0  0  0  0  0  0
  191.1260  177.1720  143.2070 N   0  0  0  0  0  0  0  0  0  0  0  0
  194.3220  175.8400  136.8400 N   0  0  0  0  0  2  0  0  0  0  0  0
  186.4290  178.3260  143.0570 C   0  0  2  0  0  3  0  0  0  0  0  0
  191.9420  175.0020  137.2740 C   0  0  0  0  0  2  0  0  0  0  0  0
  190.1200  176.6420  145.2470 O   0  0  0  0  0  0  0  0  0  0  0  0
  189.6660  177.1870  141.2380 C   0  0  2  0  0  3  0  0  0  0  0  0
  191.0150  177.3770  141.9250 C   0  0  0  0  0  0  0  0  0  0  0  0
  189.5350  177.6880  139.7760 C   0  0  1  0  0  3  0  0  0  0  0  0
  184.9220  178.0920  142.9700 C   0  0  0  0  0  2  0  0  0  0  0  0
  184.9410  180.3320  143.8330 O   0  0  0  0  0  1  0  0  0  0  0  0
  184.0990  179.2930  143.4330 C   0  0  2  0  0  3  0  0  0  0  0  0
  183.7050  178.9150  145.8620 O   0  0  0  0  0  1  0  0  0  0  0  0
  183.2120  178.8960  144.5640 C   0  0  0  0  0  0  0  0  0  0  0  0
  182.0150  178.5660  144.3550 O   0  0  0  0  0  0  0  0  0  0  0  0
  1  2  1  1  0  0  0
  1 13  1  0  0  0  0
  3  4  1  0  0  0  0
  3 18  1  0  0  0  0
  4 24  2  0  0  0  0
  5  6  1  0  0  0  0
  5 22  1  0  0  0  0
  6  3  2  0  0  0  0
  7 14  1  6  0  0  0
  7 10  1  0  0  0  0
  8  2  1  6  0  0  0
  8  9  1  0  0  0  0
  8 15  1  0  0  0  0
  9 15  1  0  0  0  0
 10 26  1  0  0  0  0
 11 14  2  0  0  0  0
 12 17  2  0  0  0  0
 13  7  1  0  0  0  0
 13 27  1  0  0  0  0
 15 27  1  0  0  0  0
 16  1  1  0  0  0  0
 17 21  1  0  0  0  0
 19 17  1  0  0  0  0
 20  4  1  0  0  0  0
 21 11  1  0  0  0  0
 22 18  1  0  0  0  0
 23 16  1  0  0  0  0
 23 11  1  0  0  0  0
 25 26  1  0  0  0  0
 25  6  1  0  0  0  0
 26 20  2  0  0  0  0
 27 25  1  0  0  0  0
 28 22  1  0  0  0  0
 28 30  1  0  0  0  0
 30 29  1  0  0  0  0
 30 32  1  0  0  0  0
 32 31  1  0  0  0  0
 33 32  2  0  0  0  0
M  END
>  <MODEL>
2

>  <REMARK>
 VINA RESULT:      -7.9      3.022      9.286
  Name = 
  3 active torsions:
  status: ('A' for Active; 'I' for Inactive)
    1  A    between atoms: C_12  and  C_14
    2  A    between atoms: C_12  and  C_31
    3  A    between atoms: C_14  and  C_26
                            x       y       z     vdW  Elec       q    Type
                         _______ _______ _______ _____ _____    ______ ____

>  <TORSDO>
F 3

$$$$
=
 OpenBabel10222419453D

 33 38  0  0  1  0  0  0  0  0999 V2000
  189.1730  178.0750  142.7480 N   0  0  1  0  0  0  0  0  0  0  0  0
  190.6240  178.2610  142.7900 C   0  0  0  0  0  2  0  0  0  0  0  0
  189.0180  176.0420  136.7980 C   0  0  0  0  0  0  0  0  0  0  0  0
  187.5680  176.2340  136.6570 C   0  0  0  0  0  0  0  0  0  0  0  0
  191.1230  176.4390  137.8060 C   0  0  0  0  0  2  0  0  0  0  0  0
  189.6390  176.5000  137.8750 C   0  0  0  0  0  0  0  0  0  0  0  0
  187.1790  177.8780  141.2350 C   0  0  1  0  0  3  0  0  0  0  0  0
  191.3680  177.1260  142.0930 C   0  0  2  0  0  3  0  0  0  0  0  0
  191.9930  177.5970  140.8020 C   0  0  0  0  0  2  0  0  0  0  0  0
  186.5940  178.6610  139.7180 S   0  0  0  0  0  0  0  0  0  0  0  0
  186.5200  177.9800  143.5890 C   0  0  0  0  0  0  0  0  0  0  0  0
  184.8570  178.9340  146.7250 O   0  0  0  0  0  0  0  0  0  0  0  0
  188.6720  178.2130  141.3680 C   0  0  2  0  0  3  0  0  0  0  0  0
  186.4280  178.4150  142.3660 N   0  0  0  0  0  0  0  0  0  0  0  0
  190.7350  176.7490  140.7520 C   0  0  2  0  0  3  0  0  0  0  0  0
  188.7970  176.7780  143.3220 C   0  0  0  0  0  2  0  0  0  0  0  0
  185.7080  178.3610  145.9970 C   0  0  0  0  0  0  0  0  0  0  0  0
  190.0640  175.4290  135.4930 S   0  0  0  0  0  0  0  0  0  0  0  0
  186.6740  177.5060  146.5990 N   0  0  0  0  0  1  0  0  0  0  0  0
  186.8880  177.0690  137.6020 N   0  0  0  0  0  0  0  0  0  0  0  0
  185.6980  178.6050  144.5840 N   0  0  0  0  0  2  0  0  0  0  0  0
  191.4800  176.2100  136.3410 C   0  0  2  0  0  3  0  0  0  0  0  0
  187.3930  176.7960  143.9470 C   0  0  0  0  0  2  0  0  0  0  0  0
  186.9410  175.7360  135.6850 O   0  0  0  0  0  0  0  0  0  0  0  0
  188.8310  176.9240  139.0900 C   0  0  2  0  0  3  0  0  0  0  0  0
  187.4720  177.4890  138.6890 C   0  0  0  0  0  0  0  0  0  0  0  0
  189.5880  177.6390  140.2390 C   0  0  1  0  0  3  0  0  0  0  0  0
  192.7690  175.4090  136.1720 C   0  0  0  0  0  2  0  0  0  0  0  0
  194.9730  176.3580  136.1730 O   0  0  0  0  0  1  0  0  0  0  0  0
  193.9290  175.9500  137.0050 C   0  0  2  0  0  3  0  0  0  0  0  0
  195.2650  175.2530  138.9870 O   0  0  0  0  0  1  0  0  0  0  0  0
  194.4140  174.9010  137.9470 C   0  0  0  0  0  0  0  0  0  0  0  0
  194.0400  173.7050  137.8220 O   0  0  0  0  0  0  0  0  0  0  0  0
  1  2  1  6  0  0  0
  1 16  1  0  0  0  0
  3  6  2  0  0  0  0
  4  3  1  0  0  0  0
  4 20  1  0  0  0  0
  5  6  1  0  0  0  0
  6 25  1  0  0  0  0
  7 10  1  6  0  0  0
  7 13  1  0  0  0  0
  7 14  1  0  0  0  0
  8  9  1  6  0  0  0
  8  2  1  0  0  0  0
 11 23  1  0  0  0  0
 11 21  1  0  0  0  0
 13  1  1  0  0  0  0
 14 11  2  0  0  0  0
 15  9  1  0  0  0  0
 15  8  1  0  0  0  0
 16 23  1  0  0  0  0
 17 19  1  0  0  0  0
 17 12  2  0  0  0  0
 18 22  1  0  0  0  0
 18  3  1  0  0  0  0
 20 26  2  0  0  0  0
 21 17  1  0  0  0  0
 22  5  1  0  0  0  0
 24  4  2  0  0  0  0
 25 27  1  0  0  0  0
 26 25  1  0  0  0  0
 26 10  1  0  0  0  0
 27 15  1  0  0  0  0
 27 13  1  0  0  0  0
 28 22  1  0  0  0  0
 28 30  1  0  0  0  0
 29 30  1  0  0  0  0
 30 32  1  0  0  0  0
 32 31  1  0  0  0  0
 33 32  2  0  0  0  0
M  END
>  <MODEL>
3

>  <REMARK>
 VINA RESULT:      -7.9      0.918      1.244
  Name = 
  3 active torsions:
  status: ('A' for Active; 'I' for Inactive)
    1  A    between atoms: C_12  and  C_14
    2  A    between atoms: C_12  and  C_31
    3  A    between atoms: C_14  and  C_26
                            x       y       z     vdW  Elec       q    Type
                         _______ _______ _______ _____ _____    ______ ____

>  <TORSDO>
F 3

$$$$
=
 OpenBabel10222419453D

 33 38  0  0  1  0  0  0  0  0999 V2000
  190.4660  176.7510  136.8640 N   0  0  1  0  0  0  0  0  0  0  0  0
  189.4270  177.4740  136.1310 C   0  0  0  0  0  2  0  0  0  0  0  0
  187.9430  177.6950  142.5470 C   0  0  0  0  0  0  0  0  0  0  0  0
  189.1650  177.3170  143.2710 C   0  0  0  0  0  0  0  0  0  0  0  0
  186.7470  178.4260  140.6400 C   0  0  0  0  0  2  0  0  0  0  0  0
  187.9780  177.8380  141.2310 C   0  0  0  0  0  0  0  0  0  0  0  0
  191.5550  176.4460  139.1060 C   0  0  1  0  0  3  0  0  0  0  0  0
  188.0320  177.1790  136.6770 C   0  0  2  0  0  3  0  0  0  0  0  0
  187.4620  178.3830  137.3890 C   0  0  0  0  0  2  0  0  0  0  0  0
  192.0600  177.5030  140.4790 S   0  0  0  0  0  0  0  0  0  0  0  0
  192.7400  175.2180  137.3540 C   0  0  0  0  0  0  0  0  0  0  0  0
  195.3920  173.9120  135.1690 O   0  0  0  0  0  0  0  0  0  0  0  0
  190.5860  177.2650  138.2400 C   0  0  2  0  0  3  0  0  0  0  0  0
  192.7370  176.0680  138.3390 N   0  0  0  0  0  0  0  0  0  0  0  0
  187.9830  177.2130  138.2060 C   0  0  2  0  0  3  0  0  0  0  0  0
  190.2000  175.3070  136.8590 C   0  0  0  0  0  2  0  0  0  0  0  0
  194.2130  174.1250  135.5550 C   0  0  0  0  0  0  0  0  0  0  0  0
  186.4390  178.2090  143.3510 S   0  0  0  0  0  0  0  0  0  0  0  0
  193.1300  173.5710  134.8150 N   0  0  0  0  0  1  0  0  0  0  0  0
  190.4080  177.2880  142.5580 N   0  0  0  0  0  0  0  0  0  0  0  0
  193.9930  174.9400  136.7130 N   0  0  0  0  0  2  0  0  0  0  0  0
  185.9610  179.0370  141.7950 C   0  0  2  0  0  3  0  0  0  0  0  0
  191.4870  174.4710  136.9470 C   0  0  0  0  0  2  0  0  0  0  0  0
  189.1400  177.0930  144.5100 O   0  0  0  0  0  0  0  0  0  0  0  0
  189.1660  177.3090  140.4450 C   0  0  2  0  0  3  0  0  0  0  0  0
  190.4530  177.3820  141.2590 C   0  0  0  0  0  0  0  0  0  0  0  0
  189.2520  177.6820  138.9410 C   0  0  1  0  0  3  0  0  0  0  0  0
  184.4520  179.0000  141.5600 C   0  0  0  0  0  2  0  0  0  0  0  0
  184.2460  180.1270  139.4520 O   0  0  0  0  0  1  0  0  0  0  0  0
  184.0750  178.8950  140.0840 C   0  0  2  0  0  3  0  0  0  0  0  0
  181.8410  178.4130  141.0740 O   0  0  0  0  0  1  0  0  0  0  0  0
  182.6570  178.4510  139.9510 C   0  0  0  0  0  0  0  0  0  0  0  0
  182.1890  178.1310  138.8260 O   0  0  0  0  0  0  0  0  0  0  0  0
  1  2  1  1  0  0  0
  1 13  1  0  0  0  0
  3  4  1  0  0  0  0
  3 18  1  0  0  0  0
  4 24  2  0  0  0  0
  5  6  1  0  0  0  0
  5 22  1  0  0  0  0
  6  3  2  0  0  0  0
  7 14  1  6  0  0  0
  7 10  1  0  0  0  0
  8  2  1  1  0  0  0
  8  9  1  0  0  0  0
  8 15  1  0  0  0  0
  9 15  1  0  0  0  0
 10 26  1  0  0  0  0
 11 14  2  0  0  0  0
 12 17  2  0  0  0  0
 13 27  1  0  0  0  0
 13  7  1  0  0  0  0
 15 27  1  0  0  0  0
 16  1  1  0  0  0  0
 16 23  1  0  0  0  0
 17 21  1  0  0  0  0
 19 17  1  0  0  0  0
 20  4  1  0  0  0  0
 21 11  1  0  0  0  0
 22 18  1  0  0  0  0
 23 11  1  0  0  0  0
 25  6  1  0  0  0  0
 25 26  1  0  0  0  0
 26 20  2  0  0  0  0
 27 25  1  0  0  0  0
 28 22  1  0  0  0  0
 29 30  1  0  0  0  0
 30 28  1  0  0  0  0
 32 30  1  0  0  0  0
 32 31  1  0  0  0  0
 33 32  2  0  0  0  0
M  END
>  <MODEL>
4

>  <REMARK>
 VINA RESULT:      -7.4      3.530      9.059
  Name = 
  3 active torsions:
  status: ('A' for Active; 'I' for Inactive)
    1  A    between atoms: C_12  and  C_14
    2  A    between atoms: C_12  and  C_31
    3  A    between atoms: C_14  and  C_26
                            x       y       z     vdW  Elec       q    Type
                         _______ _______ _______ _____ _____    ______ ____

>  <TORSDO>
F 3

$$$$
=
 OpenBabel10222419453D

 33 38  0  0  1  0  0  0  0  0999 V2000
  183.8110  178.5030  140.0390 N   0  0  1  0  0  0  0  0  0  0  0  0
  183.6010  179.2380  141.2870 C   0  0  0  0  0  2  0  0  0  0  0  0
  189.9360  177.4470  141.0050 C   0  0  0  0  0  0  0  0  0  0  0  0
  190.2010  177.0700  139.6090 C   0  0  0  0  0  0  0  0  0  0  0  0
  188.6820  178.4920  142.7190 C   0  0  0  0  0  2  0  0  0  0  0  0
  188.7570  177.9540  141.3350 C   0  0  0  0  0  0  0  0  0  0  0  0
  185.5310  177.7550  138.3690 C   0  0  1  0  0  3  0  0  0  0  0  0
  184.3420  178.5990  142.4590 C   0  0  2  0  0  3  0  0  0  0  0  0
  185.5020  179.4580  142.9020 C   0  0  0  0  0  2  0  0  0  0  0  0
  187.0020  178.4530  137.5920 S   0  0  0  0  0  0  0  0  0  0  0  0
  183.2600  177.2510  137.6130 C   0  0  0  0  0  0  0  0  0  0  0  0
  180.2220  177.0140  135.5570 O   0  0  0  0  0  0  0  0  0  0  0  0
  185.2110  178.6280  139.5920 C   0  0  2  0  0  3  0  0  0  0  0  0
  184.4290  177.7860  137.4120 N   0  0  0  0  0  0  0  0  0  0  0  0
  185.7740  178.2000  142.0980 C   0  0  2  0  0  3  0  0  0  0  0  0
  183.4270  177.0950  140.1910 C   0  0  0  0  0  2  0  0  0  0  0  0
  180.9190  176.9330  136.6010 C   0  0  0  0  0  0  0  0  0  0  0  0
  191.1880  177.4890  142.2700 S   0  0  0  0  0  0  0  0  0  0  0  0
  180.3220  176.4510  137.8010 N   0  0  0  0  0  1  0  0  0  0  0  0
  189.2420  177.4260  138.6050 N   0  0  0  0  0  0  0  0  0  0  0  0
  182.2890  177.3520  136.5610 N   0  0  0  0  0  2  0  0  0  0  0  0
  190.1190  178.6350  143.2080 C   0  0  2  0  0  3  0  0  0  0  0  0
  182.9500  176.4690  138.8710 C   0  0  0  0  0  2  0  0  0  0  0  0
  191.2810  176.5110  139.2840 O   0  0  0  0  0  0  0  0  0  0  0  0
  187.5910  177.8460  140.3670 C   0  0  2  0  0  3  0  0  0  0  0  0
  188.0620  177.8820  138.9170 C   0  0  0  0  0  0  0  0  0  0  0  0
  186.2980  178.6300  140.7150 C   0  0  1  0  0  3  0  0  0  0  0  0
  190.2450  178.4390  144.7170 C   0  0  0  0  0  2  0  0  0  0  0  0
  188.9940  176.8300  145.9840 O   0  0  0  0  0  1  0  0  0  0  0  0
  190.1030  176.9810  145.1500 C   0  0  2  0  0  3  0  0  0  0  0  0
  191.6800  177.1270  147.0710 O   0  0  0  0  0  1  0  0  0  0  0  0
  191.3360  176.5380  145.8610 C   0  0  0  0  0  0  0  0  0  0  0  0
  192.0560  175.6200  145.3860 O   0  0  0  0  0  0  0  0  0  0  0  0
  1 16  1  1  0  0  0
  1  2  1  0  0  0  0
  3  6  2  0  0  0  0
  3 18  1  0  0  0  0
  4  3  1  0  0  0  0
  5 22  1  0  0  0  0
  6  5  1  0  0  0  0
  7 14  1  6  0  0  0
  7 13  1  0  0  0  0
  8  2  1  6  0  0  0
  8  9  1  0  0  0  0
 10  7  1  0  0  0  0
 10 26  1  0  0  0  0
 11 23  1  0  0  0  0
 12 17  2  0  0  0  0
 13  1  1  0  0  0  0
 13 27  1  0  0  0  0
 14 11  2  0  0  0  0
 15  8  1  0  0  0  0
 15  9  1  0  0  0  0
 17 19  1  0  0  0  0
 18 22  1  0  0  0  0
 20 26  2  0  0  0  0
 20  4  1  0  0  0  0
 21 17  1  0  0  0  0
 21 11  1  0  0  0  0
 22 28  1  0  0  0  0
 23 16  1  0  0  0  0
 24  4  2  0  0  0  0
 25 27  1  0  0  0  0
 25  6  1  0  0  0  0
 26 25  1  0  0  0  0
 27 15  1  0  0  0  0
 28 30  1  0  0  0  0
 30 32  1  0  0  0  0
 30 29  1  0  0  0  0
 32 31  1  0  0  0  0
 33 32  2  0  0  0  0
M  END
>  <MODEL>
5

>  <REMARK>
 VINA RESULT:      -7.1      4.144      6.975
  Name = 
  3 active torsions:
  status: ('A' for Active; 'I' for Inactive)
    1  A    between atoms: C_12  and  C_14
    2  A    between atoms: C_12  and  C_31
    3  A    between atoms: C_14  and  C_26
                            x       y       z     vdW  Elec       q    Type
                         _______ _______ _______ _____ _____    ______ ____

>  <TORSDO>
F 3

$$$$
=
 OpenBabel10222419453D

 33 38  0  0  1  0  0  0  0  0999 V2000
  184.2930  179.1580  142.2390 N   0  0  1  0  0  0  0  0  0  0  0  0
  184.3050  179.5100  143.6590 C   0  0  0  0  0  2  0  0  0  0  0  0
  190.0540  176.6330  142.2130 C   0  0  0  0  0  0  0  0  0  0  0  0
  190.1700  176.6470  140.7470 C   0  0  0  0  0  0  0  0  0  0  0  0
  189.1390  177.3480  144.2750 C   0  0  0  0  0  2  0  0  0  0  0  0
  189.0350  177.2470  142.7950 C   0  0  0  0  0  0  0  0  0  0  0  0
  185.7300  178.6110  140.2530 C   0  0  1  0  0  3  0  0  0  0  0  0
  184.9290  178.4120  144.5160 C   0  0  2  0  0  3  0  0  0  0  0  0
  186.2700  178.8430  145.0600 C   0  0  0  0  0  2  0  0  0  0  0  0
  187.2890  179.1940  139.5560 S   0  0  0  0  0  0  0  0  0  0  0  0
  183.3750  178.8320  139.6290 C   0  0  0  0  0  0  0  0  0  0  0  0
  180.2820  179.8480  137.9240 O   0  0  0  0  0  0  0  0  0  0  0  0
  185.6650  179.1220  141.7000 C   0  0  2  0  0  3  0  0  0  0  0  0
  184.6260  179.1520  139.4660 N   0  0  0  0  0  0  0  0  0  0  0  0
  186.2180  177.8560  143.9070 C   0  0  2  0  0  3  0  0  0  0  0  0
  183.6060  177.8780  142.0250 C   0  0  0  0  0  2  0  0  0  0  0  0
  180.9840  179.3170  138.8220 C   0  0  0  0  0  0  0  0  0  0  0  0
  191.3330  176.0360  143.2980 S   0  0  0  0  0  0  0  0  0  0  0  0
  180.3420  178.6300  139.8910 N   0  0  0  0  0  1  0  0  0  0  0  0
  189.2770  177.4760  139.9930 N   0  0  0  0  0  0  0  0  0  0  0  0
  182.4110  179.4400  138.7590 N   0  0  0  0  0  2  0  0  0  0  0  0
  190.5890  177.0410  144.6300 C   0  0  2  0  0  3  0  0  0  0  0  0
  182.9470  177.7890  140.6390 C   0  0  0  0  0  2  0  0  0  0  0  0
  191.0810  176.0030  140.1650 O   0  0  0  0  0  0  0  0  0  0  0  0
  187.8360  177.6760  141.9650 C   0  0  2  0  0  3  0  0  0  0  0  0
  188.2440  178.0480  140.5440 C   0  0  0  0  0  0  0  0  0  0  0  0
  186.7700  178.5650  142.6560 C   0  0  1  0  0  3  0  0  0  0  0  0
  190.7290  176.3790  145.9990 C   0  0  0  0  0  2  0  0  0  0  0  0
  191.7240  177.0000  148.0930 O   0  0  0  0  0  1  0  0  0  0  0  0
  190.7680  177.3820  147.1510 C   0  0  2  0  0  3  0  0  0  0  0  0
  189.0620  178.6280  148.4690 O   0  0  0  0  0  1  0  0  0  0  0  0
  189.4270  177.4680  147.7980 C   0  0  0  0  0  0  0  0  0  0  0  0
  188.6160  176.5080  147.7220 O   0  0  0  0  0  0  0  0  0  0  0  0
  1 16  1  1  0  0  0
  1  2  1  0  0  0  0
  3  6  2  0  0  0  0
  3 18  1  0  0  0  0
  4  3  1  0  0  0  0
  5 22  1  0  0  0  0
  6  5  1  0  0  0  0
  7 14  1  6  0  0  0
  7 13  1  0  0  0  0
  8  2  1  6  0  0  0
  8  9  1  0  0  0  0
 10  7  1  0  0  0  0
 10 26  1  0  0  0  0
 11 23  1  0  0  0  0
 12 17  2  0  0  0  0
 13  1  1  0  0  0  0
 13 27  1  0  0  0  0
 14 11  2  0  0  0  0
 15  8  1  0  0  0  0
 15  9  1  0  0  0  0
 17 19  1  0  0  0  0
 18 22  1  0  0  0  0
 20 26  2  0  0  0  0
 20  4  1  0  0  0  0
 21 17  1  0  0  0  0
 21 11  1  0  0  0  0
 22 28  1  0  0  0  0
 23 16  1  0  0  0  0
 24  4  2  0  0  0  0
 25 27  1  0  0  0  0
 25  6  1  0  0  0  0
 26 25  1  0  0  0  0
 27 15  1  0  0  0  0
 28 30  1  0  0  0  0
 30 32  1  0  0  0  0
 30 29  1  0  0  0  0
 32 31  1  0  0  0  0
 33 32  2  0  0  0  0
M  END
>  <MODEL>
6

>  <REMARK>
 VINA RESULT:      -7.0      4.050      7.137
  Name = 
  3 active torsions:
  status: ('A' for Active; 'I' for Inactive)
    1  A    between atoms: C_12  and  C_14
    2  A    between atoms: C_12  and  C_31
    3  A    between atoms: C_14  and  C_26
                            x       y       z     vdW  Elec       q    Type
                         _______ _______ _______ _____ _____    ______ ____

>  <TORSDO>
F 3

$$$$
=
 OpenBabel10222419453D

 33 38  0  0  1  0  0  0  0  0999 V2000
  189.9670  177.7650  143.0600 N   0  0  1  0  0  0  0  0  0  0  0  0
  191.3560  177.8190  142.6030 C   0  0  0  0  0  2  0  0  0  0  0  0
  187.4840  177.1510  137.3140 C   0  0  0  0  0  0  0  0  0  0  0  0
  186.1200  177.4860  137.7500 C   0  0  0  0  0  0  0  0  0  0  0  0
  189.8400  177.1390  137.5380 C   0  0  0  0  0  2  0  0  0  0  0  0
  188.4970  177.3030  138.1540 C   0  0  0  0  0  0  0  0  0  0  0  0
  187.5720  178.0770  142.3720 C   0  0  1  0  0  3  0  0  0  0  0  0
  191.6320  176.8150  141.4870 C   0  0  2  0  0  3  0  0  0  0  0  0
  191.8470  177.5150  140.1670 C   0  0  0  0  0  2  0  0  0  0  0  0
  186.6370  179.2280  141.3430 S   0  0  0  0  0  0  0  0  0  0  0  0
  187.7770  177.6960  144.7800 C   0  0  0  0  0  0  0  0  0  0  0  0
  187.4500  178.0450  148.4240 O   0  0  0  0  0  0  0  0  0  0  0  0
  189.0550  178.2510  142.0090 C   0  0  2  0  0  3  0  0  0  0  0  0
  187.3450  178.4030  143.7760 N   0  0  0  0  0  0  0  0  0  0  0  0
  190.5300  176.8040  140.4250 C   0  0  2  0  0  3  0  0  0  0  0  0
  189.6110  176.4060  143.4850 C   0  0  0  0  0  2  0  0  0  0  0  0
  187.9020  177.5860  147.3440 C   0  0  0  0  0  0  0  0  0  0  0  0
  187.9140  176.7670  135.6290 S   0  0  0  0  0  0  0  0  0  0  0  0
  188.8690  176.5410  147.3840 N   0  0  0  0  0  1  0  0  0  0  0  0
  185.9420  178.1380  139.0140 N   0  0  0  0  0  0  0  0  0  0  0  0
  187.4510  178.1430  146.1020 N   0  0  0  0  0  2  0  0  0  0  0  0
  189.6380  177.2200  136.0290 C   0  0  2  0  0  3  0  0  0  0  0  0
  188.5240  176.3950  144.5710 C   0  0  0  0  0  2  0  0  0  0  0  0
  185.1310  177.2740  137.0010 O   0  0  0  0  0  0  0  0  0  0  0  0
  188.2260  177.5040  139.6360 C   0  0  2  0  0  3  0  0  0  0  0  0
  186.9190  178.2530  139.8690 C   0  0  0  0  0  0  0  0  0  0  0  0
  189.4310  177.8770  140.5380 C   0  0  1  0  0  3  0  0  0  0  0  0
  190.6500  176.3770  135.2570 C   0  0  0  0  0  2  0  0  0  0  0  0
  192.9140  175.6960  135.6730 O   0  0  0  0  0  1  0  0  0  0  0  0
  191.6100  175.6080  136.1630 C   0  0  2  0  0  3  0  0  0  0  0  0
  191.5380  173.3030  135.2250 O   0  0  0  0  0  0  0  0  0  0  0  0
  191.1960  174.1780  136.2480 C   0  0  0  0  0  0  0  0  0  0  0  0
  190.5600  173.7530  137.2480 O   0  0  0  0  0  1  0  0  0  0  0  0
  1  2  1  6  0  0  0
  1 16  1  0  0  0  0
  3  4  1  0  0  0  0
  3  6  2  0  0  0  0
  4 20  1  0  0  0  0
  5  6  1  0  0  0  0
  6 25  1  0  0  0  0
  7 10  1  6  0  0  0
  7 14  1  0  0  0  0
  8  9  1  6  0  0  0
  8  2  1  0  0  0  0
  9 15  1  0  0  0  0
 11 21  1  0  0  0  0
 13  7  1  0  0  0  0
 13  1  1  0  0  0  0
 14 11  2  0  0  0  0
 15 27  1  0  0  0  0
 15  8  1  0  0  0  0
 16 23  1  0  0  0  0
 17 19  1  0  0  0  0
 17 12  2  0  0  0  0
 18 22  1  0  0  0  0
 18  3  1  0  0  0  0
 20 26  2  0  0  0  0
 21 17  1  0  0  0  0
 22  5  1  0  0  0  0
 23 11  1  0  0  0  0
 24  4  2  0  0  0  0
 25 26  1  0  0  0  0
 25 27  1  0  0  0  0
 26 10  1  0  0  0  0
 27 13  1  0  0  0  0
 28 22  1  0  0  0  0
 28 30  1  0  0  0  0
 29 30  1  0  0  0  0
 30 32  1  0  0  0  0
 31 32  2  0  0  0  0
 32 33  1  0  0  0  0
M  END
>  <MODEL>
7

>  <REMARK>
 VINA RESULT:      -6.6      2.313      2.709
  Name = 
  3 active torsions:
  status: ('A' for Active; 'I' for Inactive)
    1  A    between atoms: C_12  and  C_14
    2  A    between atoms: C_12  and  C_31
    3  A    between atoms: C_14  and  C_26
                            x       y       z     vdW  Elec       q    Type
                         _______ _______ _______ _____ _____    ______ ____

>  <TORSDO>
F 3

$$$$
=
 OpenBabel10222419453D

 33 38  0  0  1  0  0  0  0  0999 V2000
  188.1770  177.1150  146.4900 N   0  0  1  0  0  0  0  0  0  0  0  0
  186.8280  177.0850  147.0560 C   0  0  0  0  0  2  0  0  0  0  0  0
  186.3330  178.6020  140.6640 C   0  0  0  0  0  0  0  0  0  0  0  0
  187.6220  178.2500  140.0510 C   0  0  0  0  0  0  0  0  0  0  0  0
  184.7050  178.5140  142.3800 C   0  0  0  0  0  2  0  0  0  0  0  0
  186.1090  178.3050  141.9350 C   0  0  0  0  0  0  0  0  0  0  0  0
  189.5090  176.9740  144.3660 C   0  0  1  0  0  3  0  0  0  0  0  0
  185.9610  178.2270  146.5340 C   0  0  2  0  0  3  0  0  0  0  0  0
  184.8870  177.7130  145.6060 C   0  0  0  0  0  2  0  0  0  0  0  0
  189.4600  176.0070  142.8430 S   0  0  0  0  0  0  0  0  0  0  0  0
  190.9560  177.0070  146.3380 C   0  0  0  0  0  0  0  0  0  0  0  0
  193.5620  176.1600  148.7880 O   0  0  0  0  0  0  0  0  0  0  0  0
  188.1430  176.8090  145.0490 C   0  0  2  0  0  3  0  0  0  0  0  0
  190.5760  176.4610  145.2200 N   0  0  0  0  0  0  0  0  0  0  0  0
  186.0970  178.4190  145.0220 C   0  0  2  0  0  3  0  0  0  0  0  0
  188.8190  178.4120  146.7420 C   0  0  0  0  0  2  0  0  0  0  0  0
  192.5460  176.7530  148.3400 C   0  0  0  0  0  0  0  0  0  0  0  0
  184.9340  179.2060  139.7420 S   0  0  0  0  0  0  0  0  0  0  0  0
  191.9180  177.7520  149.1360 N   0  0  0  0  0  1  0  0  0  0  0  0
  188.5370  177.4330  140.7910 N   0  0  0  0  0  0  0  0  0  0  0  0
  192.0360  176.3890  147.0510 N   0  0  0  0  0  2  0  0  0  0  0  0
  183.8650  178.6510  141.1150 C   0  0  2  0  0  3  0  0  0  0  0  0
  190.3480  178.3020  146.8360 C   0  0  0  0  0  2  0  0  0  0  0  0
  187.8920  178.5950  138.8700 O   0  0  0  0  0  0  0  0  0  0  0  0
  187.2670  177.9060  142.8340 C   0  0  2  0  0  3  0  0  0  0  0  0
  188.3520  177.1700  142.0540 C   0  0  0  0  0  0  0  0  0  0  0  0
  186.9240  177.3740  144.2500 C   0  0  1  0  0  3  0  0  0  0  0  0
  182.6560  179.5640  141.3120 C   0  0  0  0  0  2  0  0  0  0  0  0
  180.4670  178.9270  140.5650 O   0  0  0  0  0  1  0  0  0  0  0  0
  181.3700  178.8020  141.6220 C   0  0  2  0  0  3  0  0  0  0  0  0
  180.0570  180.5240  142.8510 O   0  0  0  0  0  0  0  0  0  0  0  0
  180.7560  179.3240  142.8760 C   0  0  0  0  0  0  0  0  0  0  0  0
  180.8480  178.6770  143.9530 O   0  0  0  0  0  1  0  0  0  0  0  0
  1 16  1  6  0  0  0
  1  2  1  0  0  0  0
  3  6  2  0  0  0  0
  4  3  1  0  0  0  0
  4 20  1  0  0  0  0
  6  5  1  0  0  0  0
  6 25  1  0  0  0  0
  7 10  1  6  0  0  0
  7 13  1  0  0  0  0
  7 14  1  0  0  0  0
  8  9  1  6  0  0  0
  8  2  1  0  0  0  0
 11 23  1  0  0  0  0
 11 21  1  0  0  0  0
 13  1  1  0  0  0  0
 14 11  2  0  0  0  0
 15  9  1  0  0  0  0
 15  8  1  0  0  0  0
 16 23  1  0  0  0  0
 17 12  2  0  0  0  0
 17 19  1  0  0  0  0
 18  3  1  0  0  0  0
 18 22  1  0  0  0  0
 20 26  2  0  0  0  0
 21 17  1  0  0  0  0
 22 28  1  0  0  0  0
 22  5  1  0  0  0  0
 24  4  2  0  0  0  0
 25 27  1  0  0  0  0
 26 25  1  0  0  0  0
 26 10  1  0  0  0  0
 27 15  1  0  0  0  0
 27 13  1  0  0  0  0
 28 30  1  0  0  0  0
 29 30  1  0  0  0  0
 30 32  1  0  0  0  0
 31 32  2  0  0  0  0
 32 33  1  0  0  0  0
M  END
>  <MODEL>
8

>  <REMARK>
 VINA RESULT:      -6.6      4.738      8.614
  Name = 
  3 active torsions:
  status: ('A' for Active; 'I' for Inactive)
    1  A    between atoms: C_12  and  C_14
    2  A    between atoms: C_12  and  C_31
    3  A    between atoms: C_14  and  C_26
                            x       y       z     vdW  Elec       q    Type
                         _______ _______ _______ _____ _____    ______ ____

>  <TORSDO>
F 3

$$$$
=
 OpenBabel10222419453D

 33 38  0  0  1  0  0  0  0  0999 V2000
  186.8640  178.6110  142.6660 N   0  0  1  0  0  0  0  0  0  0  0  0
  187.3840  178.9540  141.3420 C   0  0  0  0  0  2  0  0  0  0  0  0
  180.8560  178.2090  140.8500 C   0  0  0  0  0  0  0  0  0  0  0  0
  180.3260  178.2540  142.2200 C   0  0  0  0  0  0  0  0  0  0  0  0
  182.5150  178.5790  139.2030 C   0  0  0  0  0  2  0  0  0  0  0  0
  182.1430  178.4400  140.6360 C   0  0  0  0  0  0  0  0  0  0  0  0
  184.8120  178.5790  144.1140 C   0  0  1  0  0  3  0  0  0  0  0  0
  186.7170  178.1400  140.2370 C   0  0  2  0  0  3  0  0  0  0  0  0
  185.8110  179.0060  139.3950 C   0  0  0  0  0  2  0  0  0  0  0  0
  183.3960  179.6560  144.4160 S   0  0  0  0  0  0  0  0  0  0  0  0
  186.8180  177.9790  145.3790 C   0  0  0  0  0  0  0  0  0  0  0  0
  189.4300  177.8670  147.9620 O   0  0  0  0  0  0  0  0  0  0  0  0
  185.4610  179.0450  142.8020 C   0  0  2  0  0  3  0  0  0  0  0  0
  185.7500  178.7050  145.2250 N   0  0  0  0  0  0  0  0  0  0  0  0
  185.1990  178.0550  140.4080 C   0  0  2  0  0  3  0  0  0  0  0  0
  187.0020  177.1730  142.9250 C   0  0  0  0  0  2  0  0  0  0  0  0
  188.8890  177.6130  146.8550 C   0  0  0  0  0  0  0  0  0  0  0  0
  179.8290  178.0910  139.3990 S   0  0  0  0  0  0  0  0  0  0  0  0
  189.5560  176.7530  145.9370 N   0  0  0  0  0  1  0  0  0  0  0  0
  181.1780  178.7230  143.2730 N   0  0  0  0  0  0  0  0  0  0  0  0
  187.6280  178.2160  146.5390 N   0  0  0  0  0  2  0  0  0  0  0  0
  181.2150  178.7880  138.4350 C   0  0  2  0  0  3  0  0  0  0  0  0
  187.1590  176.8570  144.4200 C   0  0  0  0  0  2  0  0  0  0  0  0
  179.1270  177.9570  142.4600 O   0  0  0  0  0  0  0  0  0  0  0  0
  183.1160  178.4290  141.8030 C   0  0  2  0  0  3  0  0  0  0  0  0
  182.4540  178.9110  143.0890 C   0  0  0  0  0  0  0  0  0  0  0  0
  184.5670  178.9030  141.5270 C   0  0  1  0  0  3  0  0  0  0  0  0
  181.2760  178.2210  137.0180 C   0  0  0  0  0  2  0  0  0  0  0  0
  183.0660  177.5030  135.5900 O   0  0  0  0  0  1  0  0  0  0  0  0
  182.4330  177.2470  136.8070 C   0  0  2  0  0  3  0  0  0  0  0  0
  181.6270  175.2430  138.0460 O   0  0  0  0  0  1  0  0  0  0  0  0
  181.9300  175.8440  136.8310 C   0  0  0  0  0  0  0  0  0  0  0  0
  181.7560  175.2070  135.7580 O   0  0  0  0  0  0  0  0  0  0  0  0
  1  2  1  6  0  0  0
  1 13  1  0  0  0  0
  1 16  1  0  0  0  0
  3  4  1  0  0  0  0
  4 24  2  0  0  0  0
  4 20  1  0  0  0  0
  5  6  1  0  0  0  0
  6  3  2  0  0  0  0
  6 25  1  0  0  0  0
  7 10  1  1  0  0  0
  7 14  1  0  0  0  0
  8  9  1  6  0  0  0
  8 15  1  0  0  0  0
  8  2  1  0  0  0  0
  9 15  1  0  0  0  0
 11 21  1  0  0  0  0
 13  7  1  0  0  0  0
 14 11  2  0  0  0  0
 15 27  1  0  0  0  0
 16 23  1  0  0  0  0
 17 12  2  0  0  0  0
 18  3  1  0  0  0  0
 19 17  1  0  0  0  0
 21 17  1  0  0  0  0
 22  5  1  0  0  0  0
 22 18  1  0  0  0  0
 23 11  1  0  0  0  0
 25 26  1  0  0  0  0
 26 20  2  0  0  0  0
 26 10  1  0  0  0  0
 27 25  1  0  0  0  0
 27 13  1  0  0  0  0
 28 22  1  0  0  0  0
 29 30  1  0  0  0  0
 30 32  1  0  0  0  0
 30 28  1  0  0  0  0
 32 31  1  0  0  0  0
 33 32  2  0  0  0  0
M  END
>  <MODEL>
9

>  <REMARK>
 VINA RESULT:      -6.2      6.099      8.459
  Name = 
  3 active torsions:
  status: ('A' for Active; 'I' for Inactive)
    1  A    between atoms: C_12  and  C_14
    2  A    between atoms: C_12  and  C_31
    3  A    between atoms: C_14  and  C_26
                            x       y       z     vdW  Elec       q    Type
                         _______ _______ _______ _____ _____    ______ ____

>  <TORSDO>
F 3

$$$$
