=
 OpenBabel10222416153D

 44 49  0  0  1  0  0  0  0  0999 V2000
  185.5290  178.5150  139.7130 N   0  0  0  0  0  0  0  0  0  0  0  0
  188.5380  177.1670  138.4330 C   0  0  0  0  0  3  0  0  0  0  0  0
  185.9770  176.3920  136.9270 C   0  0  0  0  0  3  0  0  0  0  0  0
  186.1640  177.5050  137.6830 C   0  0  0  0  0  0  0  0  0  0  0  0
  186.2340  178.6890  138.4400 C   0  0  2  0  0  3  0  0  0  0  0  0
  187.1700  174.4460  136.2160 F   0  0  0  0  0  0  0  0  0  0  0  0
  187.1820  175.6040  136.9200 C   0  0  0  0  0  0  0  0  0  0  0  0
  188.4170  175.9720  137.6280 C   0  0  0  0  0  0  0  0  0  0  0  0
  187.3780  177.8720  138.3960 C   0  0  0  0  0  0  0  0  0  0  0  0
  189.4980  175.0840  137.5330 O   0  0  0  0  0  0  0  0  0  0  0  0
  192.0450  175.9050  134.7300 C   0  0  0  0  0  2  0  0  0  0  0  0
  189.9000  174.8550  134.6750 O   0  0  0  0  0  0  0  0  0  0  0  0
  190.8220  175.3320  135.3910 C   0  0  0  0  0  0  0  0  0  0  0  0
  193.1170  175.7840  136.9740 C   0  0  0  0  0  3  0  0  0  0  0  0
  193.2370  175.9230  135.6510 C   0  0  0  0  0  3  0  0  0  0  0  0
  191.8050  175.5410  137.6020 C   0  0  0  0  0  3  0  0  0  0  0  0
  190.7060  175.3410  136.8690 C   0  0  0  0  0  0  0  0  0  0  0  0
  186.3990  178.8950  140.8370 C   0  0  0  0  0  2  0  0  0  0  0  0
  186.2280  178.0040  142.0660 C   0  0  0  0  0  2  0  0  0  0  0  0
  185.3430  178.7060  143.0770 C   0  0  0  0  0  2  0  0  0  0  0  0
  187.2780  177.3500  146.0990 C   0  0  1  0  0  3  0  0  0  0  0  0
  184.9280  179.0300  145.5480 C   0  0  1  0  0  3  0  0  0  0  0  0
  186.7160  178.3090  147.1470 C   0  0  0  0  0  2  0  0  0  0  0  0
  185.2180  178.4790  146.9430 C   0  0  0  0  0  2  0  0  0  0  0  0
  187.0140  177.9060  144.7030 C   0  0  0  0  0  2  0  0  0  0  0  0
  185.5160  178.1070  144.4650 C   0  0  2  0  0  3  0  0  0  0  0  0
  183.5460  179.1480  145.3930 O   0  0  0  0  0  1  0  0  0  0  0  0
  188.7750  177.1960  146.2950 C   0  0  0  0  0  2  0  0  0  0  0  0
  189.4870  177.7820  145.1750 N   0  0  0  0  0  2  0  0  0  0  0  0
  190.8290  177.2210  145.1920 C   0  0  0  0  0  2  0  0  0  0  0  0
  191.5320  177.9190  142.9140 C   0  0  0  0  0  2  0  0  0  0  0  0
  190.9540  177.6780  141.5960 N   0  0  0  0  0  0  0  0  0  0  0  0
  190.2290  176.4140  141.6730 C   0  0  0  0  0  2  0  0  0  0  0  0
  192.0600  177.4730  140.6780 C   0  0  0  0  0  1  0  0  0  0  0  0
  190.0380  176.0770  143.1300 C   0  0  0  0  0  2  0  0  0  0  0  0
  191.2040  176.7410  143.8030 C   0  0  2  0  0  3  0  0  0  0  0  0
  184.3520  179.3800  139.7130 C   0  0  0  0  0  2  0  0  0  0  0  0
  179.7630  176.0630  138.8580 C   0  0  0  0  0  1  0  0  0  0  0  0
  181.9630  179.1480  139.2470 C   0  0  0  0  0  3  0  0  0  0  0  0
  180.6690  178.3830  139.1630 C   0  0  0  0  0  2  0  0  0  0  0  0
  183.1140  178.5600  139.5800 C   0  0  0  0  0  0  0  0  0  0  0  0
  182.1040  176.3470  139.6220 C   0  0  0  0  0  3  0  0  0  0  0  0
  180.8830  176.9320  139.1540 N   0  0  0  0  0  0  0  0  0  0  0  0
  183.1750  177.1100  139.8330 C   0  0  0  0  0  3  0  0  0  0  0  0
  1 37  1  0  0  0  0
  1 18  1  0  0  0  0
  3  4  1  0  0  0  0
  4  9  2  0  0  0  0
  4  5  1  0  0  0  0
  5  1  1  1  0  0  0
  6  7  1  0  0  0  0
  7  3  2  0  0  0  0
  7  8  1  0  0  0  0
  8  2  2  0  0  0  0
  9  2  1  0  0  0  0
  9  5  1  0  0  0  0
 10  8  1  0  0  0  0
 11 13  1  0  0  0  0
 11 15  1  0  0  0  0
 12 13  2  0  0  0  0
 13 17  1  0  0  0  0
 14 16  1  0  0  0  0
 15 14  2  0  0  0  0
 17 10  1  0  0  0  0
 17 16  2  0  0  0  0
 18 19  1  0  0  0  0
 19 20  1  0  0  0  0
 21 28  1  1  0  0  0
 21 23  1  0  0  0  0
 22 27  1  6  0  0  0
 22 24  1  0  0  0  0
 24 23  1  0  0  0  0
 25 21  1  0  0  0  0
 26 20  1  6  0  0  0
 26 25  1  0  0  0  0
 26 22  1  0  0  0  0
 29 30  1  0  0  0  0
 29 28  1  0  0  0  0
 31 36  1  0  0  0  0
 32 33  1  0  0  0  0
 32 31  1  0  0  0  0
 33 35  1  0  0  0  0
 34 32  1  0  0  0  0
 35 36  1  0  0  0  0
 36 30  1  1  0  0  0
 38 43  1  0  0  0  0
 39 41  2  0  0  0  0
 40 39  1  0  0  0  0
 41 37  1  0  0  0  0
 41 44  1  0  0  0  0
 42 44  2  0  0  0  0
 43 40  1  0  0  0  0
 43 42  1  0  0  0  0
M  END
>  <MODEL>
1

>  <REMARK>
 VINA RESULT:      -8.0      0.000      0.000
  Name = 
  13 active torsions:
  status: ('A' for Active; 'I' for Inactive)
    1  A    between atoms: C_6  and  C_9
    2  A    between atoms: O_7  and  C_38
    3  A    between atoms: O_7  and  C_39
    4  A    between atoms: N_8  and  C_9
    5  A    between atoms: N_8  and  C_27
    6  A    between atoms: C_15  and  C_33
    7  A    between atoms: C_16  and  C_30
    8  A    between atoms: C_16  and  N_41
    9  A    between atoms: C_21  and  N_41
   10  A    between atoms: C_24  and  C_30
   11  A    between atoms: C_24  and  C_37
   12  A    between atoms: C_27  and  C_43
   13  A    between atoms: C_33  and  N_41
                            x       y       z     vdW  Elec       q    Type
                         _______ _______ _______ _____ _____    ______ ____

>  <TORSDO>
F 13

$$$$
=
 OpenBabel10222416153D

 44 49  0  0  1  0  0  0  0  0999 V2000
  184.6270  179.0750  141.5770 N   0  0  0  0  0  0  0  0  0  0  0  0
  186.5130  177.2660  143.9600 C   0  0  0  0  0  3  0  0  0  0  0  0
  184.5700  179.3540  145.0970 C   0  0  0  0  0  3  0  0  0  0  0  0
  184.4660  178.7210  143.9000 C   0  0  0  0  0  0  0  0  0  0  0  0
  184.2510  178.1360  142.6380 C   0  0  2  0  0  3  0  0  0  0  0  0
  186.0130  179.4300  147.0020 F   0  0  0  0  0  0  0  0  0  0  0  0
  185.7480  178.8940  145.7860 C   0  0  0  0  0  0  0  0  0  0  0  0
  186.6780  177.8850  145.2560 C   0  0  0  0  0  0  0  0  0  0  0  0
  185.3870  177.7320  143.3610 C   0  0  0  0  0  0  0  0  0  0  0  0
  187.7890  177.5600  146.0480 O   0  0  0  0  0  0  0  0  0  0  0  0
  191.5920  176.8610  145.8000 C   0  0  0  0  0  2  0  0  0  0  0  0
  190.0520  176.6630  147.6150 O   0  0  0  0  0  0  0  0  0  0  0  0
  190.2350  177.0330  146.4230 C   0  0  0  0  0  0  0  0  0  0  0  0
  190.8050  178.4340  144.0390 C   0  0  0  0  0  3  0  0  0  0  0  0
  191.8130  177.7990  144.6420 C   0  0  0  0  0  3  0  0  0  0  0  0
  189.4170  178.2960  144.5170 C   0  0  0  0  0  3  0  0  0  0  0  0
  189.1270  177.6230  145.6350 C   0  0  0  0  0  0  0  0  0  0  0  0
  186.0860  179.2560  141.5470 C   0  0  0  0  0  2  0  0  0  0  0  0
  186.7590  178.5720  140.3590 C   0  0  0  0  0  2  0  0  0  0  0  0
  188.1830  178.2040  140.7310 C   0  0  0  0  0  2  0  0  0  0  0  0
  189.3030  177.1240  137.2240 C   0  0  1  0  0  3  0  0  0  0  0  0
  190.2830  177.0090  139.9950 C   0  0  1  0  0  3  0  0  0  0  0  0
  190.7810  176.9050  137.5410 C   0  0  0  0  0  2  0  0  0  0  0  0
  190.9230  176.1880  138.8760 C   0  0  0  0  0  2  0  0  0  0  0  0
  188.6620  177.9640  138.3250 C   0  0  0  0  0  2  0  0  0  0  0  0
  188.8000  177.2840  139.6870 C   0  0  2  0  0  3  0  0  0  0  0  0
  190.4140  176.3080  141.1940 O   0  0  0  0  0  1  0  0  0  0  0  0
  189.1650  177.8530  135.9010 C   0  0  0  0  0  2  0  0  0  0  0  0
  188.2620  177.1310  135.0240 N   0  0  0  0  0  2  0  0  0  0  0  0
  186.9990  177.8500  135.0380 C   0  0  0  0  0  2  0  0  0  0  0  0
  184.6850  177.0460  134.6300 C   0  0  0  0  0  2  0  0  0  0  0  0
  183.4860  177.0560  135.4620 N   0  0  0  0  0  0  0  0  0  0  0  0
  183.9300  177.0230  136.8520 C   0  0  0  0  0  2  0  0  0  0  0  0
  182.7850  175.8090  135.2140 C   0  0  0  0  0  1  0  0  0  0  0  0
  185.3940  177.3820  136.8790 C   0  0  0  0  0  2  0  0  0  0  0  0
  185.8920  176.9400  135.5340 C   0  0  2  0  0  3  0  0  0  0  0  0
  184.1920  178.5230  140.2960 C   0  0  0  0  0  2  0  0  0  0  0  0
  179.2890  180.7870  138.3920 C   0  0  0  0  0  1  0  0  0  0  0  0
  183.0050  180.0740  138.8250 C   0  0  0  0  0  3  0  0  0  0  0  0
  181.7970  180.8450  138.3640 C   0  0  0  0  0  2  0  0  0  0  0  0
  182.9490  179.2090  139.8390 C   0  0  0  0  0  0  0  0  0  0  0  0
  180.5390  179.4550  140.0680 C   0  0  0  0  0  3  0  0  0  0  0  0
  180.5500  180.2990  138.9100 N   0  0  0  0  0  0  0  0  0  0  0  0
  181.6750  178.9310  140.5240 C   0  0  0  0  0  3  0  0  0  0  0  0
  2  8  1  0  0  0  0
  3  7  1  0  0  0  0
  4  3  2  0  0  0  0
  5  1  1  6  0  0  0
  5  9  1  0  0  0  0
  5  4  1  0  0  0  0
  7  6  1  0  0  0  0
  8  7  2  0  0  0  0
  8 10  1  0  0  0  0
  9  4  1  0  0  0  0
  9  2  2  0  0  0  0
 11 13  1  0  0  0  0
 13 12  2  0  0  0  0
 14 16  1  0  0  0  0
 14 15  2  0  0  0  0
 15 11  1  0  0  0  0
 16 17  2  0  0  0  0
 17 10  1  0  0  0  0
 17 13  1  0  0  0  0
 18  1  1  0  0  0  0
 19 20  1  0  0  0  0
 19 18  1  0  0  0  0
 21 28  1  6  0  0  0
 21 23  1  0  0  0  0
 21 25  1  0  0  0  0
 22 27  1  1  0  0  0
 23 24  1  0  0  0  0
 24 22  1  0  0  0  0
 25 26  1  0  0  0  0
 26 22  1  0  0  0  0
 26 20  1  1  0  0  0
 29 30  1  0  0  0  0
 29 28  1  0  0  0  0
 31 32  1  0  0  0  0
 31 36  1  0  0  0  0
 32 33  1  0  0  0  0
 33 35  1  0  0  0  0
 34 32  1  0  0  0  0
 36 30  1  6  0  0  0
 36 35  1  0  0  0  0
 37  1  1  0  0  0  0
 38 43  1  0  0  0  0
 39 41  2  0  0  0  0
 40 39  1  0  0  0  0
 40 43  1  0  0  0  0
 41 37  1  0  0  0  0
 41 44  1  0  0  0  0
 42 44  2  0  0  0  0
 43 42  1  0  0  0  0
M  END
>  <MODEL>
2

>  <REMARK>
 VINA RESULT:      -8.0      3.159      7.949
  Name = 
  13 active torsions:
  status: ('A' for Active; 'I' for Inactive)
    1  A    between atoms: C_6  and  C_9
    2  A    between atoms: O_7  and  C_38
    3  A    between atoms: O_7  and  C_39
    4  A    between atoms: N_8  and  C_9
    5  A    between atoms: N_8  and  C_27
    6  A    between atoms: C_15  and  C_33
    7  A    between atoms: C_16  and  C_30
    8  A    between atoms: C_16  and  N_41
    9  A    between atoms: C_21  and  N_41
   10  A    between atoms: C_24  and  C_30
   11  A    between atoms: C_24  and  C_37
   12  A    between atoms: C_27  and  C_43
   13  A    between atoms: C_33  and  N_41
                            x       y       z     vdW  Elec       q    Type
                         _______ _______ _______ _____ _____    ______ ____

>  <TORSDO>
F 13

$$$$
=
 OpenBabel10222416153D

 44 49  0  0  1  0  0  0  0  0999 V2000
  189.0510  177.2410  138.4060 N   0  0  0  0  0  0  0  0  0  0  0  0
  192.3540  176.0480  137.9900 C   0  0  0  0  0  3  0  0  0  0  0  0
  190.2050  174.6590  136.2920 C   0  0  0  0  0  3  0  0  0  0  0  0
  190.1480  175.9190  136.7950 C   0  0  0  0  0  0  0  0  0  0  0  0
  189.9680  177.2340  137.2630 C   0  0  2  0  0  3  0  0  0  0  0  0
  191.6760  172.7740  136.2540 F   0  0  0  0  0  0  0  0  0  0  0  0
  191.4530  174.0440  136.6680 C   0  0  0  0  0  0  0  0  0  0  0  0
  192.4930  174.7060  137.4700 C   0  0  0  0  0  0  0  0  0  0  0  0
  191.1660  176.5770  137.5990 C   0  0  0  0  0  0  0  0  0  0  0  0
  193.6450  173.9610  137.7630 O   0  0  0  0  0  0  0  0  0  0  0  0
  197.5010  174.3370  137.8470 C   0  0  0  0  0  2  0  0  0  0  0  0
  195.8870  174.0950  139.5910 O   0  0  0  0  0  0  0  0  0  0  0  0
  196.0890  174.2430  138.3550 C   0  0  0  0  0  0  0  0  0  0  0  0
  196.5130  175.2130  135.7370 C   0  0  0  0  0  3  0  0  0  0  0  0
  197.5840  175.0330  136.5140 C   0  0  0  0  0  3  0  0  0  0  0  0
  195.1700  174.7900  136.1750 C   0  0  0  0  0  3  0  0  0  0  0  0
  194.9530  174.3130  137.4040 C   0  0  0  0  0  0  0  0  0  0  0  0
  189.7840  177.5180  139.6510 C   0  0  0  0  0  2  0  0  0  0  0  0
  188.8710  177.7600  140.8520 C   0  0  0  0  0  2  0  0  0  0  0  0
  189.1590  176.7200  141.9180 C   0  0  0  0  0  2  0  0  0  0  0  0
  188.7910  177.8460  145.5670 C   0  0  1  0  0  3  0  0  0  0  0  0
  190.8480  176.7120  143.7970 C   0  0  1  0  0  3  0  0  0  0  0  0
  190.0220  177.1340  146.1240 C   0  0  0  0  0  2  0  0  0  0  0  0
  191.1930  177.2970  145.1650 C   0  0  0  0  0  2  0  0  0  0  0  0
  188.4250  177.2500  144.2110 C   0  0  0  0  0  2  0  0  0  0  0  0
  189.5840  177.3790  143.2220 C   0  0  2  0  0  3  0  0  0  0  0  0
  191.9350  176.9020  142.9430 O   0  0  0  0  0  1  0  0  0  0  0  0
  187.6220  177.6670  146.5180 C   0  0  0  0  0  2  0  0  0  0  0  0
  186.3730  177.6610  145.7780 N   0  0  0  0  0  2  0  0  0  0  0  0
  185.7160  178.9280  146.0550 C   0  0  0  0  0  2  0  0  0  0  0  0
  183.4420  178.9310  145.0580 C   0  0  0  0  0  2  0  0  0  0  0  0
  182.9310  178.4250  143.7890 N   0  0  0  0  0  0  0  0  0  0  0  0
  184.0370  178.4610  142.8370 C   0  0  0  0  0  2  0  0  0  0  0  0
  181.9390  179.3760  143.3190 C   0  0  0  0  0  1  0  0  0  0  0  0
  185.3150  178.6240  143.6200 C   0  0  0  0  0  2  0  0  0  0  0  0
  184.8820  179.3480  144.8610 C   0  0  2  0  0  3  0  0  0  0  0  0
  188.0590  178.2930  138.1960 C   0  0  0  0  0  2  0  0  0  0  0  0
  183.0010  176.0640  136.7010 C   0  0  0  0  0  1  0  0  0  0  0  0
  185.6160  178.3260  138.2970 C   0  0  0  0  0  3  0  0  0  0  0  0
  184.2460  177.7350  138.0970 C   0  0  0  0  0  2  0  0  0  0  0  0
  186.7250  177.6910  137.9120 C   0  0  0  0  0  0  0  0  0  0  0  0
  185.4680  175.8880  136.8690 C   0  0  0  0  0  3  0  0  0  0  0  0
  184.2630  176.6020  137.1670 N   0  0  0  0  0  0  0  0  0  0  0  0
  186.6490  176.3920  137.2200 C   0  0  0  0  0  3  0  0  0  0  0  0
  1 18  1  0  0  0  0
  3  7  2  0  0  0  0
  3  4  1  0  0  0  0
  4  5  1  0  0  0  0
  4  9  2  0  0  0  0
  5  9  1  0  0  0  0
  5  1  1  1  0  0  0
  6  7  1  0  0  0  0
  7  8  1  0  0  0  0
  8 10  1  0  0  0  0
  8  2  2  0  0  0  0
  9  2  1  0  0  0  0
 11 13  1  0  0  0  0
 13 12  2  0  0  0  0
 14 16  1  0  0  0  0
 14 15  2  0  0  0  0
 15 11  1  0  0  0  0
 16 17  2  0  0  0  0
 17 10  1  0  0  0  0
 17 13  1  0  0  0  0
 18 19  1  0  0  0  0
 19 20  1  0  0  0  0
 21 23  1  0  0  0  0
 21 28  1  1  0  0  0
 22 27  1  6  0  0  0
 22 24  1  0  0  0  0
 24 23  1  0  0  0  0
 25 21  1  0  0  0  0
 26 20  1  6  0  0  0
 26 22  1  0  0  0  0
 26 25  1  0  0  0  0
 29 30  1  0  0  0  0
 29 28  1  0  0  0  0
 32 31  1  0  0  0  0
 33 35  1  0  0  0  0
 33 32  1  0  0  0  0
 34 32  1  0  0  0  0
 35 36  1  0  0  0  0
 36 31  1  0  0  0  0
 36 30  1  1  0  0  0
 37  1  1  0  0  0  0
 38 43  1  0  0  0  0
 40 39  1  0  0  0  0
 41 37  1  0  0  0  0
 41 39  2  0  0  0  0
 42 43  1  0  0  0  0
 42 44  2  0  0  0  0
 43 40  1  0  0  0  0
 44 41  1  0  0  0  0
M  END
>  <MODEL>
3

>  <REMARK>
 VINA RESULT:      -8.0      2.714      5.197
  Name = 
  13 active torsions:
  status: ('A' for Active; 'I' for Inactive)
    1  A    between atoms: C_6  and  C_9
    2  A    between atoms: O_7  and  C_38
    3  A    between atoms: O_7  and  C_39
    4  A    between atoms: N_8  and  C_9
    5  A    between atoms: N_8  and  C_27
    6  A    between atoms: C_15  and  C_33
    7  A    between atoms: C_16  and  C_30
    8  A    between atoms: C_16  and  N_41
    9  A    between atoms: C_21  and  N_41
   10  A    between atoms: C_24  and  C_30
   11  A    between atoms: C_24  and  C_37
   12  A    between atoms: C_27  and  C_43
   13  A    between atoms: C_33  and  N_41
                            x       y       z     vdW  Elec       q    Type
                         _______ _______ _______ _____ _____    ______ ____

>  <TORSDO>
F 13

$$$$
=
 OpenBabel10222416153D

 44 49  0  0  1  0  0  0  0  0999 V2000
  182.6670  176.0240  138.1390 N   0  0  0  0  0  0  0  0  0  0  0  0
  185.2600  178.3960  138.5370 C   0  0  0  0  0  3  0  0  0  0  0  0
  185.2130  176.9010  135.8550 C   0  0  0  0  0  3  0  0  0  0  0  0
  184.1540  177.1180  136.6780 C   0  0  0  0  0  0  0  0  0  0  0  0
  182.9850  177.2750  137.4450 C   0  0  2  0  0  3  0  0  0  0  0  0
  187.5560  177.3640  135.7340 F   0  0  0  0  0  0  0  0  0  0  0  0
  186.3970  177.4920  136.4240 C   0  0  0  0  0  0  0  0  0  0  0  0
  186.4270  178.2210  137.7010 C   0  0  0  0  0  0  0  0  0  0  0  0
  184.1770  177.8270  137.9480 C   0  0  0  0  0  0  0  0  0  0  0  0
  187.6670  178.7220  138.1230 O   0  0  0  0  0  0  0  0  0  0  0  0
  189.1080  177.2680  141.4140 C   0  0  0  0  0  2  0  0  0  0  0  0
  187.5650  179.0430  140.9990 O   0  0  0  0  0  0  0  0  0  0  0  0
  188.3520  178.1930  140.5020 C   0  0  0  0  0  0  0  0  0  0  0  0
  190.5560  176.7750  139.4500 C   0  0  0  0  0  3  0  0  0  0  0  0
  190.3550  176.7220  140.7700 C   0  0  0  0  0  3  0  0  0  0  0  0
  189.5870  177.4320  138.5540 C   0  0  0  0  0  3  0  0  0  0  0  0
  188.5300  178.0940  139.0330 C   0  0  0  0  0  0  0  0  0  0  0  0
  182.0570  176.3050  139.4480 C   0  0  0  0  0  2  0  0  0  0  0  0
  180.8390  177.2230  139.3670 C   0  0  0  0  0  2  0  0  0  0  0  0
  181.1160  178.4950  140.1440 C   0  0  0  0  0  2  0  0  0  0  0  0
  183.4700  178.5710  143.1730 C   0  0  1  0  0  3  0  0  0  0  0  0
  180.5900  178.7470  142.6020 C   0  0  1  0  0  3  0  0  0  0  0  0
  182.4910  179.1800  144.1750 C   0  0  0  0  0  2  0  0  0  0  0  0
  181.1210  178.5350  144.0180 C   0  0  0  0  0  2  0  0  0  0  0  0
  182.9580  178.8010  141.7540 C   0  0  0  0  0  2  0  0  0  0  0  0
  181.5730  178.1800  141.5610 C   0  0  2  0  0  3  0  0  0  0  0  0
  179.3470  178.1220  142.4940 O   0  0  0  0  0  1  0  0  0  0  0  0
  184.8290  179.2280  143.3210 C   0  0  0  0  0  2  0  0  0  0  0  0
  185.4910  178.7410  144.5180 N   0  0  0  0  0  2  0  0  0  0  0  0
  186.5090  177.7990  144.0800 C   0  0  0  0  0  2  0  0  0  0  0  0
  187.0000  178.0710  146.5000 C   0  0  0  0  0  2  0  0  0  0  0  0
  188.2550  178.1290  147.2410 N   0  0  0  0  0  0  0  0  0  0  0  0
  189.2370  177.3630  146.4800 C   0  0  0  0  0  2  0  0  0  0  0  0
  188.0440  177.4200  148.4910 C   0  0  0  0  0  1  0  0  0  0  0  0
  188.6910  177.1620  145.0890 C   0  0  0  0  0  2  0  0  0  0  0  0
  187.2020  177.1940  145.2850 C   0  0  2  0  0  3  0  0  0  0  0  0
  181.7150  175.2720  137.3250 C   0  0  0  0  0  2  0  0  0  0  0  0
  183.7330  170.0240  136.2410 C   0  0  0  0  0  1  0  0  0  0  0  0
  181.3190  172.9030  136.8660 C   0  0  0  0  0  3  0  0  0  0  0  0
  181.7380  171.4630  136.7310 C   0  0  0  0  0  2  0  0  0  0  0  0
  182.1960  173.8730  137.1360 C   0  0  0  0  0  0  0  0  0  0  0  0
  184.0920  172.3550  137.0020 C   0  0  0  0  0  3  0  0  0  0  0  0
  183.1900  171.3190  136.5970 N   0  0  0  0  0  0  0  0  0  0  0  0
  183.6330  173.5770  137.2650 C   0  0  0  0  0  3  0  0  0  0  0  0
  1 18  1  0  0  0  0
  3  7  2  0  0  0  0
  3  4  1  0  0  0  0
  4  5  1  0  0  0  0
  4  9  2  0  0  0  0
  5  9  1  0  0  0  0
  5  1  1  1  0  0  0
  6  7  1  0  0  0  0
  7  8  1  0  0  0  0
  8 10  1  0  0  0  0
  8  2  2  0  0  0  0
  9  2  1  0  0  0  0
 10 17  1  0  0  0  0
 13 12  2  0  0  0  0
 13 11  1  0  0  0  0
 14 15  2  0  0  0  0
 15 11  1  0  0  0  0
 16 17  2  0  0  0  0
 16 14  1  0  0  0  0
 17 13  1  0  0  0  0
 19 18  1  0  0  0  0
 19 20  1  0  0  0  0
 21 28  1  6  0  0  0
 21 23  1  0  0  0  0
 22 27  1  1  0  0  0
 22 24  1  0  0  0  0
 24 23  1  0  0  0  0
 25 21  1  0  0  0  0
 26 20  1  6  0  0  0
 26 25  1  0  0  0  0
 26 22  1  0  0  0  0
 28 29  1  0  0  0  0
 30 29  1  0  0  0  0
 31 32  1  0  0  0  0
 32 34  1  0  0  0  0
 33 32  1  0  0  0  0
 35 36  1  0  0  0  0
 35 33  1  0  0  0  0
 36 30  1  6  0  0  0
 36 31  1  0  0  0  0
 37  1  1  0  0  0  0
 38 43  1  0  0  0  0
 39 41  2  0  0  0  0
 40 39  1  0  0  0  0
 41 44  1  0  0  0  0
 41 37  1  0  0  0  0
 42 44  2  0  0  0  0
 43 40  1  0  0  0  0
 43 42  1  0  0  0  0
M  END
>  <MODEL>
4

>  <REMARK>
 VINA RESULT:      -7.9      2.991      5.177
  Name = 
  13 active torsions:
  status: ('A' for Active; 'I' for Inactive)
    1  A    between atoms: C_6  and  C_9
    2  A    between atoms: O_7  and  C_38
    3  A    between atoms: O_7  and  C_39
    4  A    between atoms: N_8  and  C_9
    5  A    between atoms: N_8  and  C_27
    6  A    between atoms: C_15  and  C_33
    7  A    between atoms: C_16  and  C_30
    8  A    between atoms: C_16  and  N_41
    9  A    between atoms: C_21  and  N_41
   10  A    between atoms: C_24  and  C_30
   11  A    between atoms: C_24  and  C_37
   12  A    between atoms: C_27  and  C_43
   13  A    between atoms: C_33  and  N_41
                            x       y       z     vdW  Elec       q    Type
                         _______ _______ _______ _____ _____    ______ ____

>  <TORSDO>
F 13

$$$$
=
 OpenBabel10222416153D

 44 49  0  0  1  0  0  0  0  0999 V2000
  184.3130  176.5560  137.1060 N   0  0  0  0  0  0  0  0  0  0  0  0
  186.9900  178.4610  138.4140 C   0  0  0  0  0  3  0  0  0  0  0  0
  187.7780  175.9020  136.9100 C   0  0  0  0  0  3  0  0  0  0  0  0
  186.6390  176.6210  136.7390 C   0  0  0  0  0  0  0  0  0  0  0  0
  185.4220  177.2770  136.4740 C   0  0  2  0  0  3  0  0  0  0  0  0
  189.7760  175.9320  138.2230 F   0  0  0  0  0  0  0  0  0  0  0  0
  188.5970  176.5250  137.9180 C   0  0  0  0  0  0  0  0  0  0  0  0
  188.2340  177.7570  138.6340 C   0  0  0  0  0  0  0  0  0  0  0  0
  186.2660  177.8340  137.4520 C   0  0  0  0  0  0  0  0  0  0  0  0
  189.1370  178.2240  139.6010 O   0  0  0  0  0  0  0  0  0  0  0  0
  191.0830  176.8370  142.6510 C   0  0  0  0  0  2  0  0  0  0  0  0
  191.7470  177.2550  140.3960 O   0  0  0  0  0  0  0  0  0  0  0  0
  190.8000  177.2300  141.2280 C   0  0  0  0  0  0  0  0  0  0  0  0
  188.6220  176.5500  142.8910 C   0  0  0  0  0  3  0  0  0  0  0  0
  189.8530  176.3320  143.3600 C   0  0  0  0  0  3  0  0  0  0  0  0
  188.4020  177.2480  141.6110 C   0  0  0  0  0  3  0  0  0  0  0  0
  189.4220  177.5920  140.8190 C   0  0  0  0  0  0  0  0  0  0  0  0
  183.4660  177.4850  137.8690 C   0  0  0  0  0  2  0  0  0  0  0  0
  183.4270  177.1800  139.3660 C   0  0  0  0  0  2  0  0  0  0  0  0
  183.3160  178.4800  140.1400 C   0  0  0  0  0  2  0  0  0  0  0  0
  184.1850  178.5420  143.8760 C   0  0  1  0  0  3  0  0  0  0  0  0
  181.8410  178.9260  142.1420 C   0  0  1  0  0  3  0  0  0  0  0  0
  182.9450  179.2910  144.3600 C   0  0  0  0  0  2  0  0  0  0  0  0
  181.7080  178.7560  143.6540 C   0  0  0  0  0  2  0  0  0  0  0  0
  184.3390  178.7270  142.3690 C   0  0  0  0  0  2  0  0  0  0  0  0
  183.1050  178.2150  141.6240 C   0  0  2  0  0  3  0  0  0  0  0  0
  180.7000  178.4030  141.5320 O   0  0  0  0  0  1  0  0  0  0  0  0
  185.4180  179.0890  144.5700 C   0  0  0  0  0  2  0  0  0  0  0  0
  185.2330  179.0660  146.0100 N   0  0  0  0  0  2  0  0  0  0  0  0
  185.9080  177.8750  146.5000 C   0  0  0  0  0  2  0  0  0  0  0  0
  188.1910  176.8990  146.5660 C   0  0  0  0  0  2  0  0  0  0  0  0
  189.2180  176.8870  147.6020 N   0  0  0  0  0  0  0  0  0  0  0  0
  189.0190  178.0820  148.4160 C   0  0  0  0  0  2  0  0  0  0  0  0
  190.4980  177.0420  146.9330 C   0  0  0  0  0  1  0  0  0  0  0  0
  187.6420  178.6200  148.1190 C   0  0  0  0  0  2  0  0  0  0  0  0
  187.3800  178.1670  146.7120 C   0  0  2  0  0  3  0  0  0  0  0  0
  183.5080  175.9340  136.0560 C   0  0  0  0  0  2  0  0  0  0  0  0
  183.6620  170.2120  136.2190 C   0  0  0  0  0  1  0  0  0  0  0  0
  184.0190  173.8620  137.2490 C   0  0  0  0  0  3  0  0  0  0  0  0
  184.2490  172.3770  137.3430 C   0  0  0  0  0  2  0  0  0  0  0  0
  183.6570  174.4520  136.1080 C   0  0  0  0  0  0  0  0  0  0  0  0
  183.4430  172.3260  134.9430 C   0  0  0  0  0  3  0  0  0  0  0  0
  183.7170  171.6590  136.1810 N   0  0  0  0  0  0  0  0  0  0  0  0
  183.4140  173.6570  134.8920 C   0  0  0  0  0  3  0  0  0  0  0  0
  1 18  1  0  0  0  0
  2  8  1  0  0  0  0
  3  7  1  0  0  0  0
  4  3  2  0  0  0  0
  4  9  1  0  0  0  0
  5  4  1  0  0  0  0
  5  1  1  1  0  0  0
  5  9  1  0  0  0  0
  7  6  1  0  0  0  0
  7  8  2  0  0  0  0
  8 10  1  0  0  0  0
  9  2  2  0  0  0  0
 10 17  1  0  0  0  0
 11 15  1  0  0  0  0
 12 13  2  0  0  0  0
 13 11  1  0  0  0  0
 14 15  2  0  0  0  0
 16 14  1  0  0  0  0
 17 13  1  0  0  0  0
 17 16  2  0  0  0  0
 18 19  1  0  0  0  0
 19 20  1  0  0  0  0
 21 23  1  0  0  0  0
 21 28  1  1  0  0  0
 22 27  1  6  0  0  0
 22 24  1  0  0  0  0
 24 23  1  0  0  0  0
 25 21  1  0  0  0  0
 26 20  1  6  0  0  0
 26 22  1  0  0  0  0
 26 25  1  0  0  0  0
 28 29  1  0  0  0  0
 29 30  1  0  0  0  0
 31 36  1  0  0  0  0
 31 32  1  0  0  0  0
 32 33  1  0  0  0  0
 34 32  1  0  0  0  0
 35 33  1  0  0  0  0
 36 30  1  1  0  0  0
 36 35  1  0  0  0  0
 37 41  1  0  0  0  0
 37  1  1  0  0  0  0
 39 40  1  0  0  0  0
 41 39  2  0  0  0  0
 42 43  1  0  0  0  0
 43 38  1  0  0  0  0
 43 40  1  0  0  0  0
 44 42  2  0  0  0  0
 44 41  1  0  0  0  0
M  END
>  <MODEL>
5

>  <REMARK>
 VINA RESULT:      -7.9      2.842      5.170
  Name = 
  13 active torsions:
  status: ('A' for Active; 'I' for Inactive)
    1  A    between atoms: C_6  and  C_9
    2  A    between atoms: O_7  and  C_38
    3  A    between atoms: O_7  and  C_39
    4  A    between atoms: N_8  and  C_9
    5  A    between atoms: N_8  and  C_27
    6  A    between atoms: C_15  and  C_33
    7  A    between atoms: C_16  and  C_30
    8  A    between atoms: C_16  and  N_41
    9  A    between atoms: C_21  and  N_41
   10  A    between atoms: C_24  and  C_30
   11  A    between atoms: C_24  and  C_37
   12  A    between atoms: C_27  and  C_43
   13  A    between atoms: C_33  and  N_41
                            x       y       z     vdW  Elec       q    Type
                         _______ _______ _______ _____ _____    ______ ____

>  <TORSDO>
F 13

$$$$
=
 OpenBabel10222416153D

 44 49  0  0  1  0  0  0  0  0999 V2000
  189.8570  177.1840  142.7400 N   0  0  0  0  0  0  0  0  0  0  0  0
  189.8010  176.8980  139.2150 C   0  0  0  0  0  3  0  0  0  0  0  0
  187.5860  178.6270  140.4530 C   0  0  0  0  0  3  0  0  0  0  0  0
  188.8030  178.3630  140.9950 C   0  0  0  0  0  0  0  0  0  0  0  0
  190.0270  178.1610  141.6600 C   0  0  2  0  0  3  0  0  0  0  0  0
  186.3130  178.1230  138.4930 F   0  0  0  0  0  0  0  0  0  0  0  0
  187.4730  177.9720  139.1750 C   0  0  0  0  0  0  0  0  0  0  0  0
  188.5330  177.1520  138.5680 C   0  0  0  0  0  0  0  0  0  0  0  0
  189.8520  177.5440  140.4080 C   0  0  0  0  0  0  0  0  0  0  0  0
  188.2560  176.5690  137.3230 O   0  0  0  0  0  0  0  0  0  0  0  0
  188.2220  172.7240  136.8430 C   0  0  0  0  0  2  0  0  0  0  0  0
  189.8770  174.3740  136.3550 O   0  0  0  0  0  0  0  0  0  0  0  0
  188.7020  174.1450  136.7480 C   0  0  0  0  0  0  0  0  0  0  0  0
  185.9270  173.6780  136.9870 C   0  0  0  0  0  3  0  0  0  0  0  0
  186.7200  172.6220  136.7860 C   0  0  0  0  0  3  0  0  0  0  0  0
  186.4860  175.0220  137.2170 C   0  0  0  0  0  3  0  0  0  0  0  0
  187.7980  175.2590  137.1240 C   0  0  0  0  0  0  0  0  0  0  0  0
  188.6800  176.3390  142.4860 C   0  0  0  0  0  2  0  0  0  0  0  0
  187.6520  176.3740  143.6160 C   0  0  0  0  0  2  0  0  0  0  0  0
  188.1310  177.3170  144.7020 C   0  0  0  0  0  2  0  0  0  0  0  0
  184.7350  179.0870  144.4690 C   0  0  1  0  0  3  0  0  0  0  0  0
  186.4500  177.8460  146.5110 C   0  0  1  0  0  3  0  0  0  0  0  0
  184.1740  178.6260  145.8130 C   0  0  0  0  0  2  0  0  0  0  0  0
  185.2520  178.7180  146.8830 C   0  0  0  0  0  2  0  0  0  0  0  0
  185.9170  178.2050  144.0790 C   0  0  0  0  0  2  0  0  0  0  0  0
  187.0170  178.2570  145.1400 C   0  0  2  0  0  3  0  0  0  0  0  0
  187.4220  177.9770  147.5040 O   0  0  0  0  0  1  0  0  0  0  0  0
  183.6630  178.9780  143.4010 C   0  0  0  0  0  2  0  0  0  0  0  0
  184.2660  179.0260  142.0810 N   0  0  0  0  0  2  0  0  0  0  0  0
  183.7570  177.8800  141.3460 C   0  0  0  0  0  2  0  0  0  0  0  0
  182.1140  179.1030  139.9410 C   0  0  0  0  0  2  0  0  0  0  0  0
  181.2980  178.6860  138.8060 N   0  0  0  0  0  0  0  0  0  0  0  0
  182.0130  177.6020  138.1410 C   0  0  0  0  0  2  0  0  0  0  0  0
  181.2630  179.8010  137.8760 C   0  0  0  0  0  1  0  0  0  0  0  0
  183.0720  177.0960  139.0870 C   0  0  0  0  0  2  0  0  0  0  0  0
  183.3910  178.2940  139.9340 C   0  0  2  0  0  3  0  0  0  0  0  0
  191.0460  176.3370  142.7880 C   0  0  0  0  0  2  0  0  0  0  0  0
  192.8080  175.6290  148.1900 C   0  0  0  0  0  1  0  0  0  0  0  0
  192.0590  174.9390  144.5200 C   0  0  0  0  0  3  0  0  0  0  0  0
  192.4120  174.5900  145.9410 C   0  0  0  0  0  2  0  0  0  0  0  0
  191.4300  176.0740  144.2040 C   0  0  0  0  0  0  0  0  0  0  0  0
  191.5200  176.8950  146.4930 C   0  0  0  0  0  3  0  0  0  0  0  0
  192.2960  175.7420  146.8400 N   0  0  0  0  0  0  0  0  0  0  0  0
  191.0970  177.0650  145.2420 C   0  0  0  0  0  3  0  0  0  0  0  0
  1 37  1  0  0  0  0
  2  9  1  0  0  0  0
  3  4  1  0  0  0  0
  4  5  1  0  0  0  0
  5  1  1  1  0  0  0
  6  7  1  0  0  0  0
  7  3  2  0  0  0  0
  8  7  1  0  0  0  0
  8  2  2  0  0  0  0
  9  4  2  0  0  0  0
  9  5  1  0  0  0  0
 10  8  1  0  0  0  0
 12 13  2  0  0  0  0
 13 11  1  0  0  0  0
 13 17  1  0  0  0  0
 14 16  1  0  0  0  0
 15 11  1  0  0  0  0
 15 14  2  0  0  0  0
 17 16  2  0  0  0  0
 17 10  1  0  0  0  0
 18  1  1  0  0  0  0
 18 19  1  0  0  0  0
 19 20  1  0  0  0  0
 21 28  1  6  0  0  0
 21 23  1  0  0  0  0
 22 24  1  0  0  0  0
 22 27  1  1  0  0  0
 23 24  1  0  0  0  0
 25 21  1  0  0  0  0
 25 26  1  0  0  0  0
 26 20  1  6  0  0  0
 26 22  1  0  0  0  0
 29 28  1  0  0  0  0
 30 29  1  0  0  0  0
 32 31  1  0  0  0  0
 33 32  1  0  0  0  0
 33 35  1  0  0  0  0
 34 32  1  0  0  0  0
 35 36  1  0  0  0  0
 36 31  1  0  0  0  0
 36 30  1  1  0  0  0
 37 41  1  0  0  0  0
 39 40  1  0  0  0  0
 40 43  1  0  0  0  0
 41 39  2  0  0  0  0
 41 44  1  0  0  0  0
 42 43  1  0  0  0  0
 43 38  1  0  0  0  0
 44 42  2  0  0  0  0
M  END
>  <MODEL>
6

>  <REMARK>
 VINA RESULT:      -7.8      2.135      7.222
  Name = 
  13 active torsions:
  status: ('A' for Active; 'I' for Inactive)
    1  A    between atoms: C_6  and  C_9
    2  A    between atoms: O_7  and  C_38
    3  A    between atoms: O_7  and  C_39
    4  A    between atoms: N_8  and  C_9
    5  A    between atoms: N_8  and  C_27
    6  A    between atoms: C_15  and  C_33
    7  A    between atoms: C_16  and  C_30
    8  A    between atoms: C_16  and  N_41
    9  A    between atoms: C_21  and  N_41
   10  A    between atoms: C_24  and  C_30
   11  A    between atoms: C_24  and  C_37
   12  A    between atoms: C_27  and  C_43
   13  A    between atoms: C_33  and  N_41
                            x       y       z     vdW  Elec       q    Type
                         _______ _______ _______ _____ _____    ______ ____

>  <TORSDO>
F 13

$$$$
=
 OpenBabel10222416153D

 44 49  0  0  1  0  0  0  0  0999 V2000
  189.3690  177.0510  138.1460 N   0  0  0  0  0  0  0  0  0  0  0  0
  192.6840  175.8210  138.0930 C   0  0  0  0  0  3  0  0  0  0  0  0
  190.7610  174.5740  136.0500 C   0  0  0  0  0  3  0  0  0  0  0  0
  190.6520  175.8040  136.6160 C   0  0  0  0  0  0  0  0  0  0  0  0
  190.4280  177.0930  137.1350 C   0  0  2  0  0  3  0  0  0  0  0  0
  192.2020  172.6670  136.0910 F   0  0  0  0  0  0  0  0  0  0  0  0
  191.9410  173.9150  136.5470 C   0  0  0  0  0  0  0  0  0  0  0  0
  192.8750  174.5090  137.5160 C   0  0  0  0  0  0  0  0  0  0  0  0
  191.5640  176.3940  137.5840 C   0  0  0  0  0  0  0  0  0  0  0  0
  193.9700  173.7260  137.9110 O   0  0  0  0  0  0  0  0  0  0  0  0
  197.7300  174.5000  138.4420 C   0  0  0  0  0  2  0  0  0  0  0  0
  195.8170  174.8770  139.8210 O   0  0  0  0  0  0  0  0  0  0  0  0
  196.2500  174.4900  138.7010 C   0  0  0  0  0  0  0  0  0  0  0  0
  197.1460  174.2600  136.0330 C   0  0  0  0  0  3  0  0  0  0  0  0
  198.0520  174.5500  136.9710 C   0  0  0  0  0  3  0  0  0  0  0  0
  195.7530  173.9330  136.3910 C   0  0  0  0  0  3  0  0  0  0  0  0
  195.3150  174.0210  137.6500 C   0  0  0  0  0  0  0  0  0  0  0  0
  189.8220  177.6920  139.3910 C   0  0  0  0  0  2  0  0  0  0  0  0
  189.0540  177.2290  140.6270 C   0  0  0  0  0  2  0  0  0  0  0  0
  188.4540  178.4340  141.3250 C   0  0  0  0  0  2  0  0  0  0  0  0
  185.9240  177.9750  144.1740 C   0  0  1  0  0  3  0  0  0  0  0  0
  185.9940  179.0020  141.4180 C   0  0  1  0  0  3  0  0  0  0  0  0
  184.8510  178.9240  143.6460 C   0  0  0  0  0  2  0  0  0  0  0  0
  184.6790  178.7300  142.1460 C   0  0  0  0  0  2  0  0  0  0  0  0
  187.2480  178.2570  143.4680 C   0  0  0  0  0  2  0  0  0  0  0  0
  187.1110  178.0890  141.9540 C   0  0  2  0  0  3  0  0  0  0  0  0
  185.8000  178.7910  140.0530 O   0  0  0  0  0  1  0  0  0  0  0  0
  186.1050  178.1830  145.6660 C   0  0  0  0  0  2  0  0  0  0  0  0
  186.9460  177.1360  146.2170 N   0  0  0  0  0  2  0  0  0  0  0  0
  188.1800  177.7730  146.6480 C   0  0  0  0  0  2  0  0  0  0  0  0
  190.3270  176.8720  147.5110 C   0  0  0  0  0  2  0  0  0  0  0  0
  191.6850  176.9050  146.9790 N   0  0  0  0  0  0  0  0  0  0  0  0
  191.5730  176.9850  145.5260 C   0  0  0  0  0  2  0  0  0  0  0  0
  192.2940  175.6220  147.2840 C   0  0  0  0  0  1  0  0  0  0  0  0
  190.1590  177.3890  145.1920 C   0  0  0  0  0  2  0  0  0  0  0  0
  189.3590  176.8670  146.3500 C   0  0  2  0  0  3  0  0  0  0  0  0
  188.2110  177.7790  137.6340 C   0  0  0  0  0  2  0  0  0  0  0  0
  184.1460  174.3470  135.5140 C   0  0  0  0  0  1  0  0  0  0  0  0
  187.1640  175.5740  137.4880 C   0  0  0  0  0  3  0  0  0  0  0  0
  186.2420  174.5520  136.8780 C   0  0  0  0  0  2  0  0  0  0  0  0
  187.2320  176.8280  137.0340 C   0  0  0  0  0  0  0  0  0  0  0  0
  185.4110  176.4780  135.4580 C   0  0  0  0  0  3  0  0  0  0  0  0
  185.2380  175.1650  136.0030 N   0  0  0  0  0  0  0  0  0  0  0  0
  186.3600  177.2810  135.9370 C   0  0  0  0  0  3  0  0  0  0  0  0
  1 18  1  0  0  0  0
  3  7  2  0  0  0  0
  3  4  1  0  0  0  0
  4  5  1  0  0  0  0
  4  9  2  0  0  0  0
  5  9  1  0  0  0  0
  5  1  1  1  0  0  0
  6  7  1  0  0  0  0
  7  8  1  0  0  0  0
  8 10  1  0  0  0  0
  8  2  2  0  0  0  0
  9  2  1  0  0  0  0
 11 13  1  0  0  0  0
 13 12  2  0  0  0  0
 14 16  1  0  0  0  0
 14 15  2  0  0  0  0
 15 11  1  0  0  0  0
 16 17  2  0  0  0  0
 17 10  1  0  0  0  0
 17 13  1  0  0  0  0
 18 19  1  0  0  0  0
 19 20  1  0  0  0  0
 21 28  1  1  0  0  0
 22 27  1  6  0  0  0
 22 26  1  0  0  0  0
 22 24  1  0  0  0  0
 23 21  1  0  0  0  0
 24 23  1  0  0  0  0
 25 21  1  0  0  0  0
 26 20  1  6  0  0  0
 26 25  1  0  0  0  0
 28 29  1  0  0  0  0
 29 30  1  0  0  0  0
 32 34  1  0  0  0  0
 32 31  1  0  0  0  0
 33 32  1  0  0  0  0
 35 33  1  0  0  0  0
 35 36  1  0  0  0  0
 36 30  1  1  0  0  0
 36 31  1  0  0  0  0
 37  1  1  0  0  0  0
 38 43  1  0  0  0  0
 40 39  1  0  0  0  0
 41 39  2  0  0  0  0
 41 37  1  0  0  0  0
 42 44  2  0  0  0  0
 42 43  1  0  0  0  0
 43 40  1  0  0  0  0
 44 41  1  0  0  0  0
M  END
>  <MODEL>
7

>  <REMARK>
 VINA RESULT:      -7.6      2.908      4.856
  Name = 
  13 active torsions:
  status: ('A' for Active; 'I' for Inactive)
    1  A    between atoms: C_6  and  C_9
    2  A    between atoms: O_7  and  C_38
    3  A    between atoms: O_7  and  C_39
    4  A    between atoms: N_8  and  C_9
    5  A    between atoms: N_8  and  C_27
    6  A    between atoms: C_15  and  C_33
    7  A    between atoms: C_16  and  C_30
    8  A    between atoms: C_16  and  N_41
    9  A    between atoms: C_21  and  N_41
   10  A    between atoms: C_24  and  C_30
   11  A    between atoms: C_24  and  C_37
   12  A    between atoms: C_27  and  C_43
   13  A    between atoms: C_33  and  N_41
                            x       y       z     vdW  Elec       q    Type
                         _______ _______ _______ _____ _____    ______ ____

>  <TORSDO>
F 13

$$$$
=
 OpenBabel10222416153D

 44 49  0  0  1  0  0  0  0  0999 V2000
  188.8680  177.4760  138.8510 N   0  0  0  0  0  0  0  0  0  0  0  0
  187.9780  177.4980  142.2730 C   0  0  0  0  0  3  0  0  0  0  0  0
  190.9670  177.1340  141.6690 C   0  0  0  0  0  3  0  0  0  0  0  0
  190.0490  177.7370  140.8710 C   0  0  0  0  0  0  0  0  0  0  0  0
  189.1940  178.3810  139.9560 C   0  0  2  0  0  3  0  0  0  0  0  0
  191.1030  176.0430  143.7930 F   0  0  0  0  0  0  0  0  0  0  0  0
  190.3310  176.6800  142.8790 C   0  0  0  0  0  0  0  0  0  0  0  0
  188.9030  176.8610  143.1840 C   0  0  0  0  0  0  0  0  0  0  0  0
  188.6330  177.9100  141.1580 C   0  0  0  0  0  0  0  0  0  0  0  0
  188.4380  176.3430  144.4020 O   0  0  0  0  0  0  0  0  0  0  0  0
  188.9680  178.2630  147.7260 C   0  0  0  0  0  2  0  0  0  0  0  0
  190.1680  176.4600  146.7200 O   0  0  0  0  0  0  0  0  0  0  0  0
  189.1620  177.2180  146.6630 C   0  0  0  0  0  0  0  0  0  0  0  0
  186.6280  178.4420  146.8950 C   0  0  0  0  0  3  0  0  0  0  0  0
  187.5290  178.6950  147.8470 C   0  0  0  0  0  3  0  0  0  0  0  0
  186.9820  177.6660  145.6920 C   0  0  0  0  0  3  0  0  0  0  0  0
  188.1820  177.0930  145.5570 C   0  0  0  0  0  0  0  0  0  0  0  0
  187.4500  177.6070  138.4820 C   0  0  0  0  0  2  0  0  0  0  0  0
  187.2320  178.3000  137.1390 C   0  0  0  0  0  2  0  0  0  0  0  0
  186.1110  177.6050  136.3910 C   0  0  0  0  0  2  0  0  0  0  0  0
  183.0160  176.6410  138.4430 C   0  0  1  0  0  3  0  0  0  0  0  0
  185.0400  175.3450  136.7470 C   0  0  1  0  0  3  0  0  0  0  0  0
  182.7740  175.2710  137.8130 C   0  0  0  0  0  2  0  0  0  0  0  0
  184.0980  174.5390  137.6400 C   0  0  0  0  0  2  0  0  0  0  0  0
  183.9370  177.4610  137.5440 C   0  0  0  0  0  2  0  0  0  0  0  0
  185.2740  176.7500  137.3320 C   0  0  2  0  0  3  0  0  0  0  0  0
  186.2460  174.6530  136.6330 O   0  0  0  0  0  1  0  0  0  0  0  0
  181.6960  177.3730  138.5990 C   0  0  0  0  0  2  0  0  0  0  0  0
  181.3180  177.4270  139.9990 N   0  0  0  0  0  2  0  0  0  0  0  0
  181.9480  178.6120  140.5580 C   0  0  0  0  0  2  0  0  0  0  0  0
  182.2840  179.0240  142.9850 C   0  0  0  0  0  2  0  0  0  0  0  0
  183.4530  179.4410  143.7520 N   0  0  0  0  0  0  0  0  0  0  0  0
  184.6300  178.9830  143.0210 C   0  0  0  0  0  2  0  0  0  0  0  0
  183.4230  178.7070  145.0050 C   0  0  0  0  0  1  0  0  0  0  0  0
  184.1970  178.6290  141.6210 C   0  0  0  0  0  2  0  0  0  0  0  0
  182.7570  178.2350  141.7840 C   0  0  2  0  0  3  0  0  0  0  0  0
  189.6910  177.8380  137.6990 C   0  0  0  0  0  2  0  0  0  0  0  0
  192.1030  173.0650  135.6510 C   0  0  0  0  0  1  0  0  0  0  0  0
  191.0290  175.8220  138.0500 C   0  0  0  0  0  3  0  0  0  0  0  0
  191.8310  174.6340  137.5900 C   0  0  0  0  0  2  0  0  0  0  0  0
  190.4160  176.6380  137.1910 C   0  0  0  0  0  0  0  0  0  0  0  0
  191.0120  175.2590  135.2770 C   0  0  0  0  0  3  0  0  0  0  0  0
  191.5790  174.3060  136.1840 N   0  0  0  0  0  0  0  0  0  0  0  0
  190.4570  176.3770  135.7420 C   0  0  0  0  0  3  0  0  0  0  0  0
  2  8  1  0  0  0  0
  3  7  1  0  0  0  0
  4  9  1  0  0  0  0
  4  3  2  0  0  0  0
  5  1  1  6  0  0  0
  5  4  1  0  0  0  0
  5  9  1  0  0  0  0
  7  8  2  0  0  0  0
  7  6  1  0  0  0  0
  8 10  1  0  0  0  0
  9  2  2  0  0  0  0
 10 17  1  0  0  0  0
 11 15  1  0  0  0  0
 13 12  2  0  0  0  0
 13 11  1  0  0  0  0
 14 15  2  0  0  0  0
 16 14  1  0  0  0  0
 17 16  2  0  0  0  0
 17 13  1  0  0  0  0
 18  1  1  0  0  0  0
 19 18  1  0  0  0  0
 20 19  1  0  0  0  0
 21 28  1  6  0  0  0
 22 27  1  1  0  0  0
 22 26  1  0  0  0  0
 22 24  1  0  0  0  0
 23 21  1  0  0  0  0
 24 23  1  0  0  0  0
 25 21  1  0  0  0  0
 26 20  1  6  0  0  0
 26 25  1  0  0  0  0
 28 29  1  0  0  0  0
 29 30  1  0  0  0  0
 31 32  1  0  0  0  0
 32 34  1  0  0  0  0
 33 32  1  0  0  0  0
 35 36  1  0  0  0  0
 35 33  1  0  0  0  0
 36 30  1  6  0  0  0
 36 31  1  0  0  0  0
 37  1  1  0  0  0  0
 38 43  1  0  0  0  0
 40 39  1  0  0  0  0
 41 37  1  0  0  0  0
 41 39  2  0  0  0  0
 42 44  2  0  0  0  0
 42 43  1  0  0  0  0
 43 40  1  0  0  0  0
 44 41  1  0  0  0  0
M  END
>  <MODEL>
8

>  <REMARK>
 VINA RESULT:      -7.6      2.773      8.923
  Name = 
  13 active torsions:
  status: ('A' for Active; 'I' for Inactive)
    1  A    between atoms: C_6  and  C_9
    2  A    between atoms: O_7  and  C_38
    3  A    between atoms: O_7  and  C_39
    4  A    between atoms: N_8  and  C_9
    5  A    between atoms: N_8  and  C_27
    6  A    between atoms: C_15  and  C_33
    7  A    between atoms: C_16  and  C_30
    8  A    between atoms: C_16  and  N_41
    9  A    between atoms: C_21  and  N_41
   10  A    between atoms: C_24  and  C_30
   11  A    between atoms: C_24  and  C_37
   12  A    between atoms: C_27  and  C_43
   13  A    between atoms: C_33  and  N_41
                            x       y       z     vdW  Elec       q    Type
                         _______ _______ _______ _____ _____    ______ ____

>  <TORSDO>
F 13

$$$$
=
 OpenBabel10222416153D

 44 49  0  0  1  0  0  0  0  0999 V2000
  183.8040  178.0490  140.7110 N   0  0  0  0  0  0  0  0  0  0  0  0
  180.8270  179.0060  139.0600 C   0  0  0  0  0  3  0  0  0  0  0  0
  182.9240  177.5880  137.3230 C   0  0  0  0  0  3  0  0  0  0  0  0
  182.7810  177.4770  138.6690 C   0  0  0  0  0  0  0  0  0  0  0  0
  182.7370  177.2820  140.0620 C   0  0  2  0  0  3  0  0  0  0  0  0
  181.9240  178.7180  135.4680 F   0  0  0  0  0  0  0  0  0  0  0  0
  181.9230  178.4830  136.8020 C   0  0  0  0  0  0  0  0  0  0  0  0
  180.9060  179.1570  137.6240 C   0  0  0  0  0  0  0  0  0  0  0  0
  181.7870  178.1490  139.4910 C   0  0  0  0  0  0  0  0  0  0  0  0
  180.0130  180.0130  136.9620 O   0  0  0  0  0  0  0  0  0  0  0  0
  180.7490  183.8000  137.3230 C   0  0  0  0  0  2  0  0  0  0  0  0
  179.6610  182.2450  138.7720 O   0  0  0  0  0  0  0  0  0  0  0  0
  180.1860  182.4440  137.6440 C   0  0  0  0  0  0  0  0  0  0  0  0
  180.7510  183.0600  134.9460 C   0  0  0  0  0  3  0  0  0  0  0  0
  180.8310  184.0500  135.8400 C   0  0  0  0  0  3  0  0  0  0  0  0
  180.5140  181.6670  135.3660 C   0  0  0  0  0  3  0  0  0  0  0  0
  180.2610  181.3540  136.6400 C   0  0  0  0  0  0  0  0  0  0  0  0
  184.5090  178.8830  139.7250 C   0  0  0  0  0  2  0  0  0  0  0  0
  186.0140  178.6290  139.6810 C   0  0  0  0  0  2  0  0  0  0  0  0
  186.4100  178.1960  138.2830 C   0  0  0  0  0  2  0  0  0  0  0  0
  189.9840  177.4920  139.4890 C   0  0  1  0  0  3  0  0  0  0  0  0
  188.3040  176.9860  137.1280 C   0  0  1  0  0  3  0  0  0  0  0  0
  190.3230  176.3910  138.4860 C   0  0  0  0  0  2  0  0  0  0  0  0
  189.8160  176.7750  137.1030 C   0  0  0  0  0  2  0  0  0  0  0  0
  188.4720  177.6920  139.5370 C   0  0  0  0  0  2  0  0  0  0  0  0
  187.9210  178.0640  138.1600 C   0  0  2  0  0  3  0  0  0  0  0  0
  187.8840  177.3590  135.8510 O   0  0  0  0  0  1  0  0  0  0  0  0
  190.4760  177.0980  140.8690 C   0  0  0  0  0  2  0  0  0  0  0  0
  189.4150  177.2710  141.8440 N   0  0  0  0  0  2  0  0  0  0  0  0
  189.9960  177.9760  142.9750 C   0  0  0  0  0  2  0  0  0  0  0  0
  189.2350  177.8270  145.3340 C   0  0  0  0  0  2  0  0  0  0  0  0
  189.9510  177.5640  146.5770 N   0  0  0  0  0  0  0  0  0  0  0  0
  191.1120  176.7480  146.2370 C   0  0  0  0  0  2  0  0  0  0  0  0
  189.0840  176.7390  147.4010 C   0  0  0  0  0  1  0  0  0  0  0  0
  191.3190  176.8360  144.7460 C   0  0  0  0  0  2  0  0  0  0  0  0
  189.9410  177.1010  144.2120 C   0  0  2  0  0  3  0  0  0  0  0  0
  183.2010  178.9160  141.7210 C   0  0  0  0  0  2  0  0  0  0  0  0
  185.8650  178.6310  146.7810 C   0  0  0  0  0  1  0  0  0  0  0  0
  185.1380  178.2610  143.0610 C   0  0  0  0  0  3  0  0  0  0  0  0
  185.8600  177.9940  144.3550 C   0  0  0  0  0  2  0  0  0  0  0  0
  183.8900  178.7340  143.0300 C   0  0  0  0  0  0  0  0  0  0  0  0
  183.8100  179.0030  145.4470 C   0  0  0  0  0  3  0  0  0  0  0  0
  185.1860  178.6090  145.5020 N   0  0  0  0  0  0  0  0  0  0  0  0
  183.1780  179.0640  144.2760 C   0  0  0  0  0  3  0  0  0  0  0  0
  1 37  1  0  0  0  0
  2  9  1  0  0  0  0
  3  4  1  0  0  0  0
  4  9  2  0  0  0  0
  4  5  1  0  0  0  0
  5  1  1  1  0  0  0
  6  7  1  0  0  0  0
  7  3  2  0  0  0  0
  7  8  1  0  0  0  0
  8  2  2  0  0  0  0
  9  5  1  0  0  0  0
 10  8  1  0  0  0  0
 11 13  1  0  0  0  0
 13 12  2  0  0  0  0
 14 16  1  0  0  0  0
 14 15  2  0  0  0  0
 15 11  1  0  0  0  0
 16 17  2  0  0  0  0
 17 10  1  0  0  0  0
 17 13  1  0  0  0  0
 18  1  1  0  0  0  0
 19 18  1  0  0  0  0
 20 19  1  0  0  0  0
 21 25  1  0  0  0  0
 21 28  1  1  0  0  0
 22 27  1  6  0  0  0
 22 26  1  0  0  0  0
 23 21  1  0  0  0  0
 24 22  1  0  0  0  0
 24 23  1  0  0  0  0
 26 20  1  1  0  0  0
 26 25  1  0  0  0  0
 28 29  1  0  0  0  0
 29 30  1  0  0  0  0
 31 32  1  0  0  0  0
 32 34  1  0  0  0  0
 33 32  1  0  0  0  0
 35 33  1  0  0  0  0
 36 30  1  6  0  0  0
 36 35  1  0  0  0  0
 36 31  1  0  0  0  0
 37 41  1  0  0  0  0
 39 40  1  0  0  0  0
 40 43  1  0  0  0  0
 41 39  2  0  0  0  0
 41 44  1  0  0  0  0
 42 43  1  0  0  0  0
 43 38  1  0  0  0  0
 44 42  2  0  0  0  0
M  END
>  <MODEL>
9

>  <REMARK>
 VINA RESULT:      -7.6      3.197      7.929
  Name = 
  13 active torsions:
  status: ('A' for Active; 'I' for Inactive)
    1  A    between atoms: C_6  and  C_9
    2  A    between atoms: O_7  and  C_38
    3  A    between atoms: O_7  and  C_39
    4  A    between atoms: N_8  and  C_9
    5  A    between atoms: N_8  and  C_27
    6  A    between atoms: C_15  and  C_33
    7  A    between atoms: C_16  and  C_30
    8  A    between atoms: C_16  and  N_41
    9  A    between atoms: C_21  and  N_41
   10  A    between atoms: C_24  and  C_30
   11  A    between atoms: C_24  and  C_37
   12  A    between atoms: C_27  and  C_43
   13  A    between atoms: C_33  and  N_41
                            x       y       z     vdW  Elec       q    Type
                         _______ _______ _______ _____ _____    ______ ____

>  <TORSDO>
F 13

$$$$
