=
 OpenBabel10222421223D

 39 42  0  0  1  0  0  0  0  0999 V2000
  181.3840  178.6420  144.0730 N   0  0  0  0  0  2  0  0  0  0  0  0
  180.4190  178.5660  143.2200 C   0  0  0  0  0  0  0  0  0  0  0  0
  181.1120  180.2280  140.8430 O   0  0  0  0  0  0  0  0  0  0  0  0
  181.0730  177.4440  140.1400 C   0  0  0  0  0  0  0  0  0  0  0  0
  181.9660  177.6990  139.2150 C   0  0  0  0  0  0  0  0  0  0  0  0
  178.9310  178.3890  142.8810 N   0  0  0  0  0  2  0  0  0  0  0  0
  182.4450  179.1210  139.0250 C   0  0  1  0  0  3  0  0  0  0  0  0
  179.9260  178.5780  141.9280 C   0  0  1  0  0  0  0  0  0  0  0  0
  179.8480  179.8990  141.2980 N   0  0  0  0  0  2  0  0  0  0  0  0
  180.7760  180.7980  138.6360 O   0  0  0  0  0  0  0  0  0  0  0  0
  181.4270  180.1340  139.4850 C   0  0  0  0  0  0  0  0  0  0  0  0
  180.1700  177.3710  141.0770 C   0  0  0  0  0  3  0  0  0  0  0  0
  184.6990  179.9220  139.0690 O   0  0  0  0  0  0  0  0  0  0  0  0
  183.9660  178.8540  141.0210 N   0  0  0  0  0  2  0  0  0  0  0  0
  185.1650  179.0150  141.7860 C   0  0  0  0  0  0  0  0  0  0  0  0
  186.0910  179.7670  141.3760 O   0  0  0  0  0  0  0  0  0  0  0  0
  183.7650  179.3510  139.6930 C   0  0  0  0  0  0  0  0  0  0  0  0
  185.2840  178.2900  143.0920 C   0  0  0  0  0  2  0  0  0  0  0  0
  184.9830  179.1840  144.2890 C   0  0  0  0  0  2  0  0  0  0  0  0
  186.9910  177.6540  146.6380 C   0  0  1  0  0  3  0  0  0  0  0  0
  185.2440  178.4450  145.5900 C   0  0  1  0  0  3  0  0  0  0  0  0
  186.5400  178.7480  147.3960 O   0  0  0  0  0  0  0  0  0  0  0  0
  186.3070  177.5730  145.4190 O   0  0  0  0  0  0  0  0  0  0  0  0
  185.6070  179.3740  146.6350 N   0  0  0  0  0  2  0  0  0  0  0  0
  188.5020  177.7470  146.4260 C   0  0  1  0  0  3  0  0  0  0  0  0
  189.2380  177.1640  147.6180 C   0  0  0  0  0  1  0  0  0  0  0  0
  188.9300  177.0480  145.1400 C   0  0  0  0  0  2  0  0  0  0  0  0
  189.7050  177.9960  144.2410 C   0  0  0  0  0  2  0  0  0  0  0  0
  189.0350  178.1470  143.0260 O   0  0  0  0  0  0  0  0  0  0  0  0
  188.5120  176.8840  142.7500 C   0  0  0  0  0  1  0  0  0  0  0  0
  182.5140  176.6560  138.4010 N   0  0  0  0  0  2  0  0  0  0  0  0
  183.1260  176.8860  137.0960 C   0  0  0  0  0  2  0  0  0  0  0  0
  186.0990  174.5930  137.1360 N   0  0  0  0  0  0  0  0  0  0  0  0
  185.6000  177.3030  136.9800 C   0  0  0  0  0  3  0  0  0  0  0  0
  186.9120  176.8310  136.9470 C   0  0  0  0  0  0  0  0  0  0  0  0
  187.1460  175.4560  137.0260 C   0  0  0  0  0  3  0  0  0  0  0  0
  184.5390  176.4040  137.1000 C   0  0  0  0  0  0  0  0  0  0  0  0
  184.8120  175.0360  137.1690 C   0  0  0  0  0  3  0  0  0  0  0  0
  187.9480  177.6950  136.8180 F   0  0  0  0  0  0  0  0  0  0  0  0
  2  1  2  0  0  0  0
  3  9  1  0  0  0  0
  4 12  2  0  0  0  0
  5  4  2  0  0  0  0
  6  2  1  0  0  0  0
  7  5  1  0  0  0  0
  7 11  1  0  0  0  0
  7 17  1  1  0  0  0
  8 12  1  6  0  0  0
  8  6  1  0  0  0  0
  8  2  1  0  0  0  0
  9  8  1  0  0  0  0
 10 11  2  0  0  0  0
 11  3  1  0  0  0  0
 13 17  2  0  0  0  0
 14 15  1  0  0  0  0
 15 18  1  0  0  0  0
 16 15  2  0  0  0  0
 17 14  1  0  0  0  0
 18 19  1  0  0  0  0
 20 25  1  6  0  0  0
 20 22  1  0  0  0  0
 21 19  1  6  0  0  0
 21 24  1  0  0  0  0
 23 21  1  0  0  0  0
 23 20  1  0  0  0  0
 24 22  1  0  0  0  0
 25 26  1  1  0  0  0
 27 25  1  0  0  0  0
 28 27  1  0  0  0  0
 29 28  1  0  0  0  0
 30 29  1  0  0  0  0
 31  5  1  0  0  0  0
 32 37  1  0  0  0  0
 32 31  1  0  0  0  0
 33 38  1  0  0  0  0
 34 37  1  0  0  0  0
 35 34  2  0  0  0  0
 35 36  1  0  0  0  0
 36 33  2  0  0  0  0
 37 38  2  0  0  0  0
 39 35  1  0  0  0  0
M  END
>  <MODEL>
1

>  <REMARK>
 VINA RESULT:      -8.0      0.000      0.000
  Name = 
  11 active torsions:
  status: ('A' for Active; 'I' for Inactive)
    1  A    between atoms: C_3  and  C_25
    2  A    between atoms: C_4  and  C_23
    3  A    between atoms: C_8  and  C_27
    4  A    between atoms: C_8  and  N_34
    5  A    between atoms: C_13  and  C_25
    6  A    between atoms: C_13  and  C_31
    7  A    between atoms: O_14  and  C_31
    8  A    between atoms: C_15  and  N_34
    9  A    between atoms: C_20  and  C_32
   10  A    between atoms: C_21  and  C_38
   11  A    between atoms: C_23  and  C_38
                            x       y       z     vdW  Elec       q    Type
                         _______ _______ _______ _____ _____    ______ ____

>  <TORSDO>
F 11

$$$$
=
 OpenBabel10222421223D

 39 42  0  0  1  0  0  0  0  0999 V2000
  185.9940  176.7800  136.3890 N   0  0  0  0  0  2  0  0  0  0  0  0
  184.7720  176.4230  136.1830 C   0  0  0  0  0  0  0  0  0  0  0  0
  183.3730  176.2430  138.8110 O   0  0  0  0  0  0  0  0  0  0  0  0
  182.3080  178.4110  137.2570 C   0  0  0  0  0  0  0  0  0  0  0  0
  182.0140  179.0250  138.3770 C   0  0  0  0  0  0  0  0  0  0  0  0
  183.7040  175.6780  135.3660 N   0  0  0  0  0  2  0  0  0  0  0  0
  182.3240  178.3480  139.6930 C   0  0  1  0  0  3  0  0  0  0  0  0
  183.4290  176.4130  136.5140 C   0  0  1  0  0  0  0  0  0  0  0  0
  183.0680  175.5580  137.6480 N   0  0  0  0  0  2  0  0  0  0  0  0
  181.4230  176.1530  140.0350 O   0  0  0  0  0  0  0  0  0  0  0  0
  182.3640  176.8460  139.5670 C   0  0  0  0  0  0  0  0  0  0  0  0
  182.6350  177.6540  136.2480 C   0  0  0  0  0  3  0  0  0  0  0  0
  184.3610  179.6000  139.6140 O   0  0  0  0  0  0  0  0  0  0  0  0
  183.9490  178.4620  141.6200 N   0  0  0  0  0  2  0  0  0  0  0  0
  185.1190  178.8910  142.3240 C   0  0  0  0  0  0  0  0  0  0  0  0
  185.8500  179.8060  141.8560 O   0  0  0  0  0  0  0  0  0  0  0  0
  183.5940  178.8660  140.2940 C   0  0  0  0  0  0  0  0  0  0  0  0
  185.4420  178.2460  143.6380 C   0  0  0  0  0  2  0  0  0  0  0  0
  184.6480  178.8420  144.7940 C   0  0  0  0  0  2  0  0  0  0  0  0
  187.0630  177.6820  146.9660 C   0  0  1  0  0  3  0  0  0  0  0  0
  185.1420  178.2940  146.1220 C   0  0  1  0  0  3  0  0  0  0  0  0
  186.6990  178.8640  147.6330 O   0  0  0  0  0  0  0  0  0  0  0  0
  186.1950  177.4220  145.8980 O   0  0  0  0  0  0  0  0  0  0  0  0
  185.6340  179.3640  146.9590 N   0  0  0  0  0  2  0  0  0  0  0  0
  188.5150  177.7660  146.4970 C   0  0  1  0  0  3  0  0  0  0  0  0
  189.4190  176.9950  147.4430 C   0  0  0  0  0  1  0  0  0  0  0  0
  188.6730  177.2510  145.0710 C   0  0  0  0  0  2  0  0  0  0  0  0
  190.1020  177.4280  144.5860 C   0  0  0  0  0  2  0  0  0  0  0  0
  190.3980  176.4570  143.6290 O   0  0  0  0  0  0  0  0  0  0  0  0
  191.5960  176.8790  143.0540 C   0  0  0  0  0  1  0  0  0  0  0  0
  181.4320  180.3340  138.3780 N   0  0  0  0  0  2  0  0  0  0  0  0
  180.3020  180.7170  137.5370 C   0  0  0  0  0  2  0  0  0  0  0  0
  180.3870  183.4490  134.9630 N   0  0  0  0  0  0  0  0  0  0  0  0
  181.1810  183.0680  137.5790 C   0  0  0  0  0  3  0  0  0  0  0  0
  181.3930  184.2980  136.9550 C   0  0  0  0  0  0  0  0  0  0  0  0
  180.9840  184.4730  135.6320 C   0  0  0  0  0  3  0  0  0  0  0  0
  180.5740  182.0270  136.8760 C   0  0  0  0  0  0  0  0  0  0  0  0
  180.1710  182.2420  135.5550 C   0  0  0  0  0  3  0  0  0  0  0  0
  181.9710  185.3190  137.6340 F   0  0  0  0  0  0  0  0  0  0  0  0
  2  1  2  0  0  0  0
  2  8  1  0  0  0  0
  3 11  1  0  0  0  0
  4  5  2  0  0  0  0
  5 31  1  0  0  0  0
  5  7  1  0  0  0  0
  6  2  1  0  0  0  0
  6  8  1  0  0  0  0
  7 17  1  6  0  0  0
  8 12  1  6  0  0  0
  8  9  1  0  0  0  0
  9  3  1  0  0  0  0
 11  7  1  0  0  0  0
 11 10  2  0  0  0  0
 12  4  2  0  0  0  0
 13 17  2  0  0  0  0
 14 15  1  0  0  0  0
 15 18  1  0  0  0  0
 16 15  2  0  0  0  0
 17 14  1  0  0  0  0
 18 19  1  0  0  0  0
 20 25  1  6  0  0  0
 20 22  1  0  0  0  0
 21 19  1  6  0  0  0
 21 24  1  0  0  0  0
 23 21  1  0  0  0  0
 23 20  1  0  0  0  0
 24 22  1  0  0  0  0
 25 26  1  1  0  0  0
 27 25  1  0  0  0  0
 28 27  1  0  0  0  0
 29 28  1  0  0  0  0
 30 29  1  0  0  0  0
 32 31  1  0  0  0  0
 33 38  2  0  0  0  0
 33 36  1  0  0  0  0
 35 34  1  0  0  0  0
 35 39  1  0  0  0  0
 36 35  2  0  0  0  0
 37 32  1  0  0  0  0
 37 34  2  0  0  0  0
 38 37  1  0  0  0  0
M  END
>  <MODEL>
2

>  <REMARK>
 VINA RESULT:      -8.0      2.959      5.282
  Name = 
  11 active torsions:
  status: ('A' for Active; 'I' for Inactive)
    1  A    between atoms: C_3  and  C_25
    2  A    between atoms: C_4  and  C_23
    3  A    between atoms: C_8  and  C_27
    4  A    between atoms: C_8  and  N_34
    5  A    between atoms: C_13  and  C_25
    6  A    between atoms: C_13  and  C_31
    7  A    between atoms: O_14  and  C_31
    8  A    between atoms: C_15  and  N_34
    9  A    between atoms: C_20  and  C_32
   10  A    between atoms: C_21  and  C_38
   11  A    between atoms: C_23  and  C_38
                            x       y       z     vdW  Elec       q    Type
                         _______ _______ _______ _____ _____    ______ ____

>  <TORSDO>
F 11

$$$$
=
 OpenBabel10222421223D

 39 42  0  0  1  0  0  0  0  0999 V2000
  186.1130  178.9190  140.7590 N   0  0  0  0  0  2  0  0  0  0  0  0
  185.5740  178.7240  139.6030 C   0  0  0  0  0  0  0  0  0  0  0  0
  183.0690  177.1470  139.9710 O   0  0  0  0  0  0  0  0  0  0  0  0
  182.4550  179.8050  139.0760 C   0  0  0  0  0  0  0  0  0  0  0  0
  181.3080  179.7160  139.7040 C   0  0  0  0  0  0  0  0  0  0  0  0
  185.6780  178.5330  138.0820 N   0  0  0  0  0  2  0  0  0  0  0  0
  180.9650  178.4370  140.4340 C   0  0  1  0  0  3  0  0  0  0  0  0
  184.4770  178.5300  138.7830 C   0  0  1  0  0  0  0  0  0  0  0  0
  183.8730  177.1960  138.8470 N   0  0  0  0  0  2  0  0  0  0  0  0
  181.0420  176.4000  139.1710 O   0  0  0  0  0  0  0  0  0  0  0  0
  181.6790  177.2410  139.8580 C   0  0  0  0  0  0  0  0  0  0  0  0
  183.6120  179.7150  138.4830 C   0  0  0  0  0  3  0  0  0  0  0  0
  180.2760  178.4200  142.7250 O   0  0  0  0  0  0  0  0  0  0  0  0
  182.5400  178.8880  142.3520 N   0  0  0  0  0  2  0  0  0  0  0  0
  182.9350  179.0170  143.7220 C   0  0  0  0  0  0  0  0  0  0  0  0
  182.1500  178.6780  144.6500 O   0  0  0  0  0  0  0  0  0  0  0  0
  181.2230  178.5550  141.9040 C   0  0  0  0  0  0  0  0  0  0  0  0
  184.3050  179.5400  144.0270 C   0  0  0  0  0  2  0  0  0  0  0  0
  185.3350  178.4280  144.1860 C   0  0  0  0  0  2  0  0  0  0  0  0
  187.0450  177.8790  147.1300 C   0  0  1  0  0  3  0  0  0  0  0  0
  185.4510  178.0080  145.6420 C   0  0  1  0  0  3  0  0  0  0  0  0
  186.2090  178.9310  147.5400 O   0  0  0  0  0  0  0  0  0  0  0  0
  186.6870  177.4220  145.8560 O   0  0  0  0  0  0  0  0  0  0  0  0
  185.3590  179.1600  146.5090 N   0  0  0  0  0  2  0  0  0  0  0  0
  188.5080  178.3190  147.1750 C   0  0  1  0  0  3  0  0  0  0  0  0
  189.0390  178.2360  148.5950 C   0  0  0  0  0  1  0  0  0  0  0  0
  189.3710  177.4890  146.2330 C   0  0  0  0  0  2  0  0  0  0  0  0
  190.4670  176.7660  146.9970 C   0  0  0  0  0  2  0  0  0  0  0  0
  191.7050  177.0280  146.4070 O   0  0  0  0  0  0  0  0  0  0  0  0
  191.6710  176.3450  145.1930 C   0  0  0  0  0  1  0  0  0  0  0  0
  180.3890  180.8140  139.7360 N   0  0  0  0  0  2  0  0  0  0  0  0
  179.3820  181.0560  138.7070 C   0  0  0  0  0  2  0  0  0  0  0  0
  180.0100  182.6740  135.3780 N   0  0  0  0  0  0  0  0  0  0  0  0
  180.7810  183.0200  138.0050 C   0  0  0  0  0  3  0  0  0  0  0  0
  181.2490  183.8880  137.0180 C   0  0  0  0  0  0  0  0  0  0  0  0
  180.8490  183.6980  135.6940 C   0  0  0  0  0  3  0  0  0  0  0  0
  179.9270  181.9710  137.6610 C   0  0  0  0  0  0  0  0  0  0  0  0
  179.5420  181.8170  136.3270 C   0  0  0  0  0  3  0  0  0  0  0  0
  182.0680  184.9170  137.3440 F   0  0  0  0  0  0  0  0  0  0  0  0
  2  1  2  0  0  0  0
  4  5  2  0  0  0  0
  5 31  1  0  0  0  0
  5  7  1  0  0  0  0
  6  8  1  0  0  0  0
  6  2  1  0  0  0  0
  7 17  1  1  0  0  0
  8 12  1  6  0  0  0
  8  9  1  0  0  0  0
  8  2  1  0  0  0  0
  9  3  1  0  0  0  0
 10 11  2  0  0  0  0
 11  3  1  0  0  0  0
 11  7  1  0  0  0  0
 12  4  2  0  0  0  0
 14 15  1  0  0  0  0
 15 18  1  0  0  0  0
 15 16  2  0  0  0  0
 17 14  1  0  0  0  0
 17 13  2  0  0  0  0
 18 19  1  0  0  0  0
 20 25  1  6  0  0  0
 20 22  1  0  0  0  0
 21 19  1  6  0  0  0
 21 23  1  0  0  0  0
 21 24  1  0  0  0  0
 23 20  1  0  0  0  0
 24 22  1  0  0  0  0
 25 26  1  1  0  0  0
 27 28  1  0  0  0  0
 27 25  1  0  0  0  0
 29 28  1  0  0  0  0
 30 29  1  0  0  0  0
 32 31  1  0  0  0  0
 33 36  2  0  0  0  0
 33 38  1  0  0  0  0
 35 39  1  0  0  0  0
 35 34  2  0  0  0  0
 36 35  1  0  0  0  0
 37 34  1  0  0  0  0
 37 32  1  0  0  0  0
 38 37  2  0  0  0  0
M  END
>  <MODEL>
3

>  <REMARK>
 VINA RESULT:      -7.9      3.000      5.199
  Name = 
  11 active torsions:
  status: ('A' for Active; 'I' for Inactive)
    1  A    between atoms: C_3  and  C_25
    2  A    between atoms: C_4  and  C_23
    3  A    between atoms: C_8  and  C_27
    4  A    between atoms: C_8  and  N_34
    5  A    between atoms: C_13  and  C_25
    6  A    between atoms: C_13  and  C_31
    7  A    between atoms: O_14  and  C_31
    8  A    between atoms: C_15  and  N_34
    9  A    between atoms: C_20  and  C_32
   10  A    between atoms: C_21  and  C_38
   11  A    between atoms: C_23  and  C_38
                            x       y       z     vdW  Elec       q    Type
                         _______ _______ _______ _____ _____    ______ ____

>  <TORSDO>
F 11

$$$$
=
 OpenBabel10222421223D

 39 42  0  0  1  0  0  0  0  0999 V2000
  181.3910  181.9270  138.2690 N   0  0  0  0  0  2  0  0  0  0  0  0
  180.7150  180.9970  138.8540 C   0  0  0  0  0  0  0  0  0  0  0  0
  181.8010  178.3510  138.0090 O   0  0  0  0  0  0  0  0  0  0  0  0
  182.3320  178.8070  140.7940 C   0  0  0  0  0  0  0  0  0  0  0  0
  183.4000  178.0560  140.6790 C   0  0  0  0  0  0  0  0  0  0  0  0
  179.4150  180.4610  139.4740 N   0  0  0  0  0  2  0  0  0  0  0  0
  183.7170  177.4240  139.3420 C   0  0  1  0  0  3  0  0  0  0  0  0
  180.5970  179.7330  139.4040 C   0  0  1  0  0  0  0  0  0  0  0  0
  180.5170  178.6330  138.4390 N   0  0  0  0  0  2  0  0  0  0  0  0
  182.0070  176.0790  138.3330 O   0  0  0  0  0  0  0  0  0  0  0  0
  182.4850  177.2320  138.4940 C   0  0  0  0  0  0  0  0  0  0  0  0
  181.2260  179.4930  140.7420 C   0  0  0  0  0  3  0  0  0  0  0  0
  184.7900  179.4570  138.6800 O   0  0  0  0  0  0  0  0  0  0  0  0
  185.6740  177.4960  137.7510 N   0  0  0  0  0  2  0  0  0  0  0  0
  186.7290  178.1030  136.9980 C   0  0  0  0  0  0  0  0  0  0  0  0
  187.0210  179.3180  137.1680 O   0  0  0  0  0  0  0  0  0  0  0  0
  184.7600  178.1990  138.6000 C   0  0  0  0  0  0  0  0  0  0  0  0
  187.4910  177.2580  136.0230 C   0  0  0  0  0  2  0  0  0  0  0  0
  188.0540  175.9930  136.6590 C   0  0  0  0  0  2  0  0  0  0  0  0
  190.5000  177.0640  138.8420 C   0  0  1  0  0  3  0  0  0  0  0  0
  189.4910  176.2100  137.1010 C   0  0  1  0  0  3  0  0  0  0  0  0
  190.7340  175.6790  138.8920 O   0  0  0  0  0  0  0  0  0  0  0  0
  189.5750  177.3790  137.8390 O   0  0  0  0  0  0  0  0  0  0  0  0
  189.9270  175.1260  137.9520 N   0  0  0  0  0  2  0  0  0  0  0  0
  190.0370  177.5690  140.2080 C   0  0  1  0  0  3  0  0  0  0  0  0
  188.5400  177.8200  140.1960 C   0  0  0  0  0  1  0  0  0  0  0  0
  190.4070  176.5940  141.3190 C   0  0  0  0  0  2  0  0  0  0  0  0
  191.3100  177.2580  142.3440 C   0  0  0  0  0  2  0  0  0  0  0  0
  190.8040  177.0470  143.6270 O   0  0  0  0  0  0  0  0  0  0  0  0
  189.5780  176.4140  143.4250 C   0  0  0  0  0  1  0  0  0  0  0  0
  184.2860  177.8460  141.7850 N   0  0  0  0  0  2  0  0  0  0  0  0
  185.0860  178.9060  142.3920 C   0  0  0  0  0  2  0  0  0  0  0  0
  184.1710  178.9390  146.0330 N   0  0  0  0  0  0  0  0  0  0  0  0
  186.2420  178.0400  144.4460 C   0  0  0  0  0  3  0  0  0  0  0  0
  186.2770  177.8330  145.8250 C   0  0  0  0  0  0  0  0  0  0  0  0
  185.2200  178.2940  146.6120 C   0  0  0  0  0  3  0  0  0  0  0  0
  185.1620  178.7100  143.8700 C   0  0  0  0  0  0  0  0  0  0  0  0
  184.1190  179.1500  144.6890 C   0  0  0  0  0  3  0  0  0  0  0  0
  187.3150  177.1720  146.3930 F   0  0  0  0  0  0  0  0  0  0  0  0
  1  2  2  0  0  0  0
  2  8  1  0  0  0  0
  2  6  1  0  0  0  0
  3  9  1  0  0  0  0
  3 11  1  0  0  0  0
  5  4  2  0  0  0  0
  5 31  1  0  0  0  0
  7 17  1  6  0  0  0
  7  5  1  0  0  0  0
  8  6  1  0  0  0  0
  8 12  1  1  0  0  0
  9  8  1  0  0  0  0
 10 11  2  0  0  0  0
 11  7  1  0  0  0  0
 12  4  2  0  0  0  0
 14 17  1  0  0  0  0
 15 16  2  0  0  0  0
 15 14  1  0  0  0  0
 17 13  2  0  0  0  0
 18 19  1  0  0  0  0
 18 15  1  0  0  0  0
 20 22  1  0  0  0  0
 20 25  1  1  0  0  0
 21 19  1  1  0  0  0
 21 23  1  0  0  0  0
 21 24  1  0  0  0  0
 23 20  1  0  0  0  0
 24 22  1  0  0  0  0
 25 26  1  6  0  0  0
 25 27  1  0  0  0  0
 27 28  1  0  0  0  0
 28 29  1  0  0  0  0
 30 29  1  0  0  0  0
 31 32  1  0  0  0  0
 32 37  1  0  0  0  0
 33 36  1  0  0  0  0
 34 35  1  0  0  0  0
 35 39  1  0  0  0  0
 35 36  2  0  0  0  0
 37 34  2  0  0  0  0
 37 38  1  0  0  0  0
 38 33  2  0  0  0  0
M  END
>  <MODEL>
4

>  <REMARK>
 VINA RESULT:      -7.6      2.906      6.314
  Name = 
  11 active torsions:
  status: ('A' for Active; 'I' for Inactive)
    1  A    between atoms: C_3  and  C_25
    2  A    between atoms: C_4  and  C_23
    3  A    between atoms: C_8  and  C_27
    4  A    between atoms: C_8  and  N_34
    5  A    between atoms: C_13  and  C_25
    6  A    between atoms: C_13  and  C_31
    7  A    between atoms: O_14  and  C_31
    8  A    between atoms: C_15  and  N_34
    9  A    between atoms: C_20  and  C_32
   10  A    between atoms: C_21  and  C_38
   11  A    between atoms: C_23  and  C_38
                            x       y       z     vdW  Elec       q    Type
                         _______ _______ _______ _____ _____    ______ ____

>  <TORSDO>
F 11

$$$$
=
 OpenBabel10222421223D

 39 42  0  0  1  0  0  0  0  0999 V2000
  181.4210  178.8510  143.8070 N   0  0  0  0  0  2  0  0  0  0  0  0
  180.4330  178.7380  142.9840 C   0  0  0  0  0  0  0  0  0  0  0  0
  181.1560  180.1020  140.4320 O   0  0  0  0  0  0  0  0  0  0  0  0
  180.9580  177.2650  140.0290 C   0  0  0  0  0  0  0  0  0  0  0  0
  181.8410  177.3740  139.0660 C   0  0  0  0  0  0  0  0  0  0  0  0
  178.9310  178.6060  142.6910 N   0  0  0  0  0  2  0  0  0  0  0  0
  182.3880  178.7400  138.7180 C   0  0  1  0  0  3  0  0  0  0  0  0
  179.9120  178.6410  141.7060 C   0  0  1  0  0  0  0  0  0  0  0  0
  179.8880  179.8910  140.9410 N   0  0  0  0  0  2  0  0  0  0  0  0
  180.7990  180.4540  138.1830 O   0  0  0  0  0  0  0  0  0  0  0  0
  181.4340  179.8490  139.0860 C   0  0  0  0  0  0  0  0  0  0  0  0
  180.0740  177.3400  140.9840 C   0  0  0  0  0  3  0  0  0  0  0  0
  184.7360  179.1860  138.6030 O   0  0  0  0  0  0  0  0  0  0  0  0
  183.8710  178.8670  140.7560 N   0  0  0  0  0  2  0  0  0  0  0  0
  185.0870  179.0760  141.4820 C   0  0  0  0  0  0  0  0  0  0  0  0
  186.1100  179.5300  140.9010 O   0  0  0  0  0  0  0  0  0  0  0  0
  183.7330  178.9680  139.3350 C   0  0  0  0  0  0  0  0  0  0  0  0
  185.1090  178.7650  142.9470 C   0  0  0  0  0  2  0  0  0  0  0  0
  186.3620  178.0050  143.3660 C   0  0  0  0  0  2  0  0  0  0  0  0
  187.4580  177.5330  146.6020 C   0  0  1  0  0  3  0  0  0  0  0  0
  186.2320  177.5010  144.7930 C   0  0  1  0  0  3  0  0  0  0  0  0
  186.3730  178.3910  146.8470 O   0  0  0  0  0  0  0  0  0  0  0  0
  187.4780  177.1210  145.2630 O   0  0  0  0  0  0  0  0  0  0  0  0
  185.7420  178.5500  145.6570 N   0  0  0  0  0  2  0  0  0  0  0  0
  188.7680  178.2130  146.9960 C   0  0  1  0  0  3  0  0  0  0  0  0
  188.9170  178.2330  148.5070 C   0  0  0  0  0  1  0  0  0  0  0  0
  189.9690  177.5310  146.3510 C   0  0  0  0  0  2  0  0  0  0  0  0
  190.5980  176.5280  147.3020 C   0  0  0  0  0  2  0  0  0  0  0  0
  191.9540  176.8170  147.4640 O   0  0  0  0  0  0  0  0  0  0  0  0
  192.5620  175.5770  147.6560 C   0  0  0  0  0  1  0  0  0  0  0  0
  182.3160  176.2230  138.3580 N   0  0  0  0  0  2  0  0  0  0  0  0
  182.8130  176.2670  136.9860 C   0  0  0  0  0  2  0  0  0  0  0  0
  186.4940  175.9060  136.3360 N   0  0  0  0  0  0  0  0  0  0  0  0
  184.4530  174.4240  137.4550 C   0  0  0  0  0  3  0  0  0  0  0  0
  185.7500  173.9120  137.4170 C   0  0  0  0  0  0  0  0  0  0  0  0
  186.7700  174.6760  136.8480 C   0  0  0  0  0  3  0  0  0  0  0  0
  184.1860  175.6840  136.9190 C   0  0  0  0  0  0  0  0  0  0  0  0
  185.2340  176.4230  136.3650 C   0  0  0  0  0  3  0  0  0  0  0  0
  186.0220  172.6940  137.9460 F   0  0  0  0  0  0  0  0  0  0  0  0
  2  1  2  0  0  0  0
  3  9  1  0  0  0  0
  4 12  2  0  0  0  0
  5  4  2  0  0  0  0
  6  2  1  0  0  0  0
  7  5  1  0  0  0  0
  7 11  1  0  0  0  0
  7 17  1  1  0  0  0
  8 12  1  6  0  0  0
  8  6  1  0  0  0  0
  8  2  1  0  0  0  0
  9  8  1  0  0  0  0
 10 11  2  0  0  0  0
 11  3  1  0  0  0  0
 13 17  2  0  0  0  0
 14 15  1  0  0  0  0
 15 18  1  0  0  0  0
 16 15  2  0  0  0  0
 17 14  1  0  0  0  0
 18 19  1  0  0  0  0
 20 22  1  0  0  0  0
 20 25  1  6  0  0  0
 21 19  1  6  0  0  0
 21 23  1  0  0  0  0
 21 24  1  0  0  0  0
 23 20  1  0  0  0  0
 24 22  1  0  0  0  0
 25 26  1  1  0  0  0
 27 25  1  0  0  0  0
 27 28  1  0  0  0  0
 28 29  1  0  0  0  0
 29 30  1  0  0  0  0
 31  5  1  0  0  0  0
 32 31  1  0  0  0  0
 33 38  2  0  0  0  0
 33 36  1  0  0  0  0
 35 34  1  0  0  0  0
 35 39  1  0  0  0  0
 36 35  2  0  0  0  0
 37 32  1  0  0  0  0
 37 34  2  0  0  0  0
 38 37  1  0  0  0  0
M  END
>  <MODEL>
5

>  <REMARK>
 VINA RESULT:      -7.4      1.605      2.034
  Name = 
  11 active torsions:
  status: ('A' for Active; 'I' for Inactive)
    1  A    between atoms: C_3  and  C_25
    2  A    between atoms: C_4  and  C_23
    3  A    between atoms: C_8  and  C_27
    4  A    between atoms: C_8  and  N_34
    5  A    between atoms: C_13  and  C_25
    6  A    between atoms: C_13  and  C_31
    7  A    between atoms: O_14  and  C_31
    8  A    between atoms: C_15  and  N_34
    9  A    between atoms: C_20  and  C_32
   10  A    between atoms: C_21  and  C_38
   11  A    between atoms: C_23  and  C_38
                            x       y       z     vdW  Elec       q    Type
                         _______ _______ _______ _____ _____    ______ ____

>  <TORSDO>
F 11

$$$$
=
 OpenBabel10222421223D

 39 42  0  0  1  0  0  0  0  0999 V2000
  186.2430  174.4400  137.4190 N   0  0  0  0  0  2  0  0  0  0  0  0
  186.4800  175.3240  136.5100 C   0  0  0  0  0  0  0  0  0  0  0  0
  187.7910  177.6790  137.7870 O   0  0  0  0  0  0  0  0  0  0  0  0
  189.6290  176.3400  136.0320 C   0  0  0  0  0  0  0  0  0  0  0  0
  190.6100  176.7580  136.7950 C   0  0  0  0  0  0  0  0  0  0  0  0
  186.1420  176.0130  135.1790 N   0  0  0  0  0  2  0  0  0  0  0  0
  190.2930  177.6180  137.9980 C   0  0  1  0  0  3  0  0  0  0  0  0
  187.2210  176.3660  135.9820 C   0  0  1  0  0  0  0  0  0  0  0  0
  187.0300  177.6650  136.6320 N   0  0  0  0  0  2  0  0  0  0  0  0
  189.0260  179.6170  137.6140 O   0  0  0  0  0  0  0  0  0  0  0  0
  189.0010  178.3770  137.8340 C   0  0  0  0  0  0  0  0  0  0  0  0
  188.5480  176.0390  135.3700 C   0  0  0  0  0  3  0  0  0  0  0  0
  190.4960  175.5730  139.2230 O   0  0  0  0  0  0  0  0  0  0  0  0
  189.9630  177.4670  140.4950 N   0  0  0  0  0  2  0  0  0  0  0  0
  189.9330  176.8310  141.7770 C   0  0  0  0  0  0  0  0  0  0  0  0
  190.3540  175.6500  141.9170 O   0  0  0  0  0  0  0  0  0  0  0  0
  190.2830  176.8150  139.2610 C   0  0  0  0  0  0  0  0  0  0  0  0
  189.4120  177.6060  142.9490 C   0  0  0  0  0  2  0  0  0  0  0  0
  190.4430  178.5750  143.5150 C   0  0  0  0  0  2  0  0  0  0  0  0
  189.7370  177.5800  146.7410 C   0  0  1  0  0  3  0  0  0  0  0  0
  190.8110  178.1950  144.9390 C   0  0  1  0  0  3  0  0  0  0  0  0
  190.4420  176.4480  146.2980 O   0  0  0  0  0  0  0  0  0  0  0  0
  189.8120  178.6160  145.8020 O   0  0  0  0  0  0  0  0  0  0  0  0
  190.9190  176.7590  145.0670 N   0  0  0  0  0  2  0  0  0  0  0  0
  188.2880  177.2110  147.0520 C   0  0  1  0  0  3  0  0  0  0  0  0
  187.9350  177.6100  148.4730 C   0  0  0  0  0  1  0  0  0  0  0  0
  187.3230  177.8540  146.0620 C   0  0  0  0  0  2  0  0  0  0  0  0
  186.0710  178.3470  146.7680 C   0  0  0  0  0  2  0  0  0  0  0  0
  185.4330  179.3060  145.9810 O   0  0  0  0  0  0  0  0  0  0  0  0
  185.1790  178.6620  144.7710 C   0  0  0  0  0  1  0  0  0  0  0  0
  191.9680  176.3940  136.5270 N   0  0  0  0  0  2  0  0  0  0  0  0
  192.3610  175.1250  135.9200 C   0  0  0  0  0  2  0  0  0  0  0  0
  194.7100  172.5120  137.2440 N   0  0  0  0  0  0  0  0  0  0  0  0
  193.9590  175.0970  137.8570 C   0  0  0  0  0  3  0  0  0  0  0  0
  194.9250  174.4480  138.6260 C   0  0  0  0  0  0  0  0  0  0  0  0
  195.2930  173.1410  138.3010 C   0  0  0  0  0  3  0  0  0  0  0  0
  193.3670  174.4340  136.7810 C   0  0  0  0  0  0  0  0  0  0  0  0
  193.7660  173.1300  136.4810 C   0  0  0  0  0  3  0  0  0  0  0  0
  195.5150  175.0860  139.6660 F   0  0  0  0  0  0  0  0  0  0  0  0
  2  1  2  0  0  0  0
  3 11  1  0  0  0  0
  4  5  2  0  0  0  0
  5  7  1  0  0  0  0
  6  8  1  0  0  0  0
  6  2  1  0  0  0  0
  7 17  1  1  0  0  0
  8 12  1  6  0  0  0
  8  2  1  0  0  0  0
  8  9  1  0  0  0  0
  9  3  1  0  0  0  0
 10 11  2  0  0  0  0
 11  7  1  0  0  0  0
 12  4  2  0  0  0  0
 13 17  2  0  0  0  0
 14 15  1  0  0  0  0
 15 16  2  0  0  0  0
 15 18  1  0  0  0  0
 17 14  1  0  0  0  0
 18 19  1  0  0  0  0
 20 25  1  6  0  0  0
 21 19  1  6  0  0  0
 21 24  1  0  0  0  0
 21 23  1  0  0  0  0
 22 20  1  0  0  0  0
 23 20  1  0  0  0  0
 24 22  1  0  0  0  0
 25 26  1  1  0  0  0
 27 28  1  0  0  0  0
 27 25  1  0  0  0  0
 29 28  1  0  0  0  0
 30 29  1  0  0  0  0
 31  5  1  0  0  0  0
 32 31  1  0  0  0  0
 32 37  1  0  0  0  0
 33 36  1  0  0  0  0
 34 35  1  0  0  0  0
 35 39  1  0  0  0  0
 36 35  2  0  0  0  0
 37 34  2  0  0  0  0
 38 37  1  0  0  0  0
 38 33  2  0  0  0  0
M  END
>  <MODEL>
6

>  <REMARK>
 VINA RESULT:      -7.4      4.845      7.434
  Name = 
  11 active torsions:
  status: ('A' for Active; 'I' for Inactive)
    1  A    between atoms: C_3  and  C_25
    2  A    between atoms: C_4  and  C_23
    3  A    between atoms: C_8  and  C_27
    4  A    between atoms: C_8  and  N_34
    5  A    between atoms: C_13  and  C_25
    6  A    between atoms: C_13  and  C_31
    7  A    between atoms: O_14  and  C_31
    8  A    between atoms: C_15  and  N_34
    9  A    between atoms: C_20  and  C_32
   10  A    between atoms: C_21  and  C_38
   11  A    between atoms: C_23  and  C_38
                            x       y       z     vdW  Elec       q    Type
                         _______ _______ _______ _____ _____    ______ ____

>  <TORSDO>
F 11

$$$$
=
 OpenBabel10222421223D

 39 42  0  0  1  0  0  0  0  0999 V2000
  194.9310  175.4150  136.6960 N   0  0  0  0  0  2  0  0  0  0  0  0
  194.0280  174.9650  135.8910 C   0  0  0  0  0  0  0  0  0  0  0  0
  191.6160  174.2230  137.4800 O   0  0  0  0  0  0  0  0  0  0  0  0
  191.0500  176.4810  135.7970 C   0  0  0  0  0  0  0  0  0  0  0  0
  190.1660  176.8750  136.6810 C   0  0  0  0  0  0  0  0  0  0  0  0
  193.6120  174.2470  134.5970 N   0  0  0  0  0  2  0  0  0  0  0  0
  189.9340  176.0360  137.9170 C   0  0  1  0  0  3  0  0  0  0  0  0
  192.7100  174.7580  135.5250 C   0  0  1  0  0  0  0  0  0  0  0  0
  192.0130  173.7000  136.2620 N   0  0  0  0  0  2  0  0  0  0  0  0
  189.3670  173.7300  137.5880 O   0  0  0  0  0  0  0  0  0  0  0  0
  190.2840  174.5860  137.6980 C   0  0  0  0  0  0  0  0  0  0  0  0
  191.9350  175.9320  135.0140 C   0  0  0  0  0  3  0  0  0  0  0  0
  191.7610  177.1910  138.9440 O   0  0  0  0  0  0  0  0  0  0  0  0
  190.1350  176.3610  140.4120 N   0  0  0  0  0  2  0  0  0  0  0  0
  190.7150  176.8430  141.6290 C   0  0  0  0  0  0  0  0  0  0  0  0
  191.6790  177.6560  141.6020 O   0  0  0  0  0  0  0  0  0  0  0  0
  190.6660  176.5880  139.1020 C   0  0  0  0  0  0  0  0  0  0  0  0
  190.1380  176.3770  142.9310 C   0  0  0  0  0  2  0  0  0  0  0  0
  191.2110  176.0150  143.9510 C   0  0  0  0  0  2  0  0  0  0  0  0
  189.8790  177.6690  146.6690 C   0  0  1  0  0  3  0  0  0  0  0  0
  191.2390  177.0300  145.0820 C   0  0  1  0  0  3  0  0  0  0  0  0
  190.9330  176.9900  147.3040 O   0  0  0  0  0  0  0  0  0  0  0  0
  189.9650  177.5370  145.2770 O   0  0  0  0  0  0  0  0  0  0  0  0
  191.6510  176.4000  146.3150 N   0  0  0  0  0  2  0  0  0  0  0  0
  188.5360  177.1660  147.1960 C   0  0  1  0  0  3  0  0  0  0  0  0
  188.1860  177.8660  148.4970 C   0  0  0  0  0  1  0  0  0  0  0  0
  187.4250  177.3610  146.1700 C   0  0  0  0  0  2  0  0  0  0  0  0
  186.2550  178.1170  146.7760 C   0  0  0  0  0  2  0  0  0  0  0  0
  185.9650  179.2390  145.9990 O   0  0  0  0  0  0  0  0  0  0  0  0
  184.6810  179.0100  145.5080 C   0  0  0  0  0  1  0  0  0  0  0  0
  189.4380  178.0970  136.5110 N   0  0  0  0  0  2  0  0  0  0  0  0
  188.3160  178.4930  137.3570 C   0  0  0  0  0  2  0  0  0  0  0  0
  185.7270  177.2650  134.9310 N   0  0  0  0  0  0  0  0  0  0  0  0
  186.0210  177.5220  137.6630 C   0  0  0  0  0  3  0  0  0  0  0  0
  184.8510  176.9770  137.1330 C   0  0  0  0  0  0  0  0  0  0  0  0
  184.7200  176.8540  135.7490 C   0  0  0  0  0  3  0  0  0  0  0  0
  187.0410  177.9450  136.8090 C   0  0  0  0  0  0  0  0  0  0  0  0
  186.8770  177.7990  135.4290 C   0  0  0  0  0  3  0  0  0  0  0  0
  183.8610  176.5520  137.9550 F   0  0  0  0  0  0  0  0  0  0  0  0
  2  1  2  0  0  0  0
  3 11  1  0  0  0  0
  4  5  2  0  0  0  0
  5  7  1  0  0  0  0
  6  8  1  0  0  0  0
  6  2  1  0  0  0  0
  7 17  1  1  0  0  0
  8 12  1  6  0  0  0
  8  2  1  0  0  0  0
  8  9  1  0  0  0  0
  9  3  1  0  0  0  0
 10 11  2  0  0  0  0
 11  7  1  0  0  0  0
 12  4  2  0  0  0  0
 13 17  2  0  0  0  0
 14 15  1  0  0  0  0
 15 18  1  0  0  0  0
 16 15  2  0  0  0  0
 17 14  1  0  0  0  0
 18 19  1  0  0  0  0
 20 25  1  1  0  0  0
 20 22  1  0  0  0  0
 21 19  1  6  0  0  0
 21 23  1  0  0  0  0
 21 24  1  0  0  0  0
 23 20  1  0  0  0  0
 24 22  1  0  0  0  0
 25 26  1  1  0  0  0
 27 28  1  0  0  0  0
 27 25  1  0  0  0  0
 29 28  1  0  0  0  0
 30 29  1  0  0  0  0
 31  5  1  0  0  0  0
 31 32  1  0  0  0  0
 33 38  2  0  0  0  0
 33 36  1  0  0  0  0
 35 34  1  0  0  0  0
 35 39  1  0  0  0  0
 36 35  2  0  0  0  0
 37 32  1  0  0  0  0
 37 34  2  0  0  0  0
 38 37  1  0  0  0  0
M  END
>  <MODEL>
7

>  <REMARK>
 VINA RESULT:      -7.2      4.768      8.354
  Name = 
  11 active torsions:
  status: ('A' for Active; 'I' for Inactive)
    1  A    between atoms: C_3  and  C_25
    2  A    between atoms: C_4  and  C_23
    3  A    between atoms: C_8  and  C_27
    4  A    between atoms: C_8  and  N_34
    5  A    between atoms: C_13  and  C_25
    6  A    between atoms: C_13  and  C_31
    7  A    between atoms: O_14  and  C_31
    8  A    between atoms: C_15  and  N_34
    9  A    between atoms: C_20  and  C_32
   10  A    between atoms: C_21  and  C_38
   11  A    between atoms: C_23  and  C_38
                            x       y       z     vdW  Elec       q    Type
                         _______ _______ _______ _____ _____    ______ ____

>  <TORSDO>
F 11

$$$$
=
 OpenBabel10222421223D

 39 42  0  0  1  0  0  0  0  0999 V2000
  194.6670  175.8030  136.8210 N   0  0  0  0  0  2  0  0  0  0  0  0
  193.9190  175.2510  135.9260 C   0  0  0  0  0  0  0  0  0  0  0  0
  191.4790  174.1670  137.2560 O   0  0  0  0  0  0  0  0  0  0  0  0
  190.7890  176.3590  135.5340 C   0  0  0  0  0  0  0  0  0  0  0  0
  189.7760  176.6180  136.3230 C   0  0  0  0  0  0  0  0  0  0  0  0
  193.7350  174.5070  134.5940 N   0  0  0  0  0  2  0  0  0  0  0  0
  189.5350  175.7340  137.5260 C   0  0  1  0  0  3  0  0  0  0  0  0
  192.6840  174.8770  135.4260 C   0  0  1  0  0  0  0  0  0  0  0  0
  192.0630  173.7240  136.0840 N   0  0  0  0  0  2  0  0  0  0  0  0
  189.3180  173.3790  137.1310 O   0  0  0  0  0  0  0  0  0  0  0  0
  190.0950  174.3470  137.3390 C   0  0  0  0  0  0  0  0  0  0  0  0
  191.8150  175.9470  134.8430 C   0  0  0  0  0  3  0  0  0  0  0  0
  191.2900  176.2830  139.0560 O   0  0  0  0  0  0  0  0  0  0  0  0
  189.1430  176.9740  139.6890 N   0  0  0  0  0  2  0  0  0  0  0  0
  189.5050  177.6210  140.9130 C   0  0  0  0  0  0  0  0  0  0  0  0
  190.7170  177.8280  141.1950 O   0  0  0  0  0  0  0  0  0  0  0  0
  190.0620  176.3570  138.7820 C   0  0  0  0  0  0  0  0  0  0  0  0
  188.4140  178.0660  141.8390 C   0  0  0  0  0  2  0  0  0  0  0  0
  187.2480  178.7150  141.1010 C   0  0  0  0  0  2  0  0  0  0  0  0
  185.3090  178.3570  143.9300 C   0  0  1  0  0  3  0  0  0  0  0  0
  185.9440  178.4750  141.8430 C   0  0  1  0  0  3  0  0  0  0  0  0
  184.7530  179.5410  143.4160 O   0  0  0  0  0  0  0  0  0  0  0  0
  186.2010  177.7850  143.0150 O   0  0  0  0  0  0  0  0  0  0  0  0
  185.3290  179.7320  142.2030 N   0  0  0  0  0  2  0  0  0  0  0  0
  185.9840  178.6310  145.2730 C   0  0  1  0  0  3  0  0  0  0  0  0
  185.0170  178.3650  146.4130 C   0  0  0  0  0  1  0  0  0  0  0  0
  187.2500  177.7980  145.4420 C   0  0  0  0  0  2  0  0  0  0  0  0
  187.6430  177.7010  146.9070 C   0  0  0  0  0  2  0  0  0  0  0  0
  188.9080  177.1220  147.0180 O   0  0  0  0  0  0  0  0  0  0  0  0
  189.4450  177.1930  145.7340 C   0  0  0  0  0  1  0  0  0  0  0  0
  188.9120  177.7340  136.0850 N   0  0  0  0  0  2  0  0  0  0  0  0
  187.7120  177.6660  135.2550 C   0  0  0  0  0  2  0  0  0  0  0  0
  184.9680  175.5600  136.7140 N   0  0  0  0  0  0  0  0  0  0  0  0
  185.9950  178.1020  137.0340 C   0  0  0  0  0  3  0  0  0  0  0  0
  184.9250  177.6750  137.8210 C   0  0  0  0  0  0  0  0  0  0  0  0
  184.4180  176.3860  137.6460 C   0  0  0  0  0  3  0  0  0  0  0  0
  186.5410  177.2430  136.0790 C   0  0  0  0  0  0  0  0  0  0  0  0
  186.0130  175.9580  135.9380 C   0  0  0  0  0  3  0  0  0  0  0  0
  184.3950  178.4970  138.7600 F   0  0  0  0  0  0  0  0  0  0  0  0
  2  1  2  0  0  0  0
  3 11  1  0  0  0  0
  4  5  2  0  0  0  0
  5  7  1  0  0  0  0
  6  8  1  0  0  0  0
  6  2  1  0  0  0  0
  7 17  1  1  0  0  0
  8 12  1  6  0  0  0
  8  2  1  0  0  0  0
  8  9  1  0  0  0  0
  9  3  1  0  0  0  0
 10 11  2  0  0  0  0
 11  7  1  0  0  0  0
 12  4  2  0  0  0  0
 14 15  1  0  0  0  0
 15 16  2  0  0  0  0
 15 18  1  0  0  0  0
 17 13  2  0  0  0  0
 17 14  1  0  0  0  0
 19 18  1  0  0  0  0
 20 25  1  1  0  0  0
 21 19  1  1  0  0  0
 21 24  1  0  0  0  0
 21 23  1  0  0  0  0
 22 20  1  0  0  0  0
 23 20  1  0  0  0  0
 24 22  1  0  0  0  0
 25 27  1  0  0  0  0
 25 26  1  1  0  0  0
 27 28  1  0  0  0  0
 28 29  1  0  0  0  0
 30 29  1  0  0  0  0
 31  5  1  0  0  0  0
 32 37  1  0  0  0  0
 32 31  1  0  0  0  0
 33 36  1  0  0  0  0
 34 35  1  0  0  0  0
 35 39  1  0  0  0  0
 36 35  2  0  0  0  0
 37 34  2  0  0  0  0
 38 37  1  0  0  0  0
 38 33  2  0  0  0  0
M  END
>  <MODEL>
8

>  <REMARK>
 VINA RESULT:      -7.0      3.900      8.035
  Name = 
  11 active torsions:
  status: ('A' for Active; 'I' for Inactive)
    1  A    between atoms: C_3  and  C_25
    2  A    between atoms: C_4  and  C_23
    3  A    between atoms: C_8  and  C_27
    4  A    between atoms: C_8  and  N_34
    5  A    between atoms: C_13  and  C_25
    6  A    between atoms: C_13  and  C_31
    7  A    between atoms: O_14  and  C_31
    8  A    between atoms: C_15  and  N_34
    9  A    between atoms: C_20  and  C_32
   10  A    between atoms: C_21  and  C_38
   11  A    between atoms: C_23  and  C_38
                            x       y       z     vdW  Elec       q    Type
                         _______ _______ _______ _____ _____    ______ ____

>  <TORSDO>
F 11

$$$$
=
 OpenBabel10222421223D

 39 42  0  0  1  0  0  0  0  0999 V2000
  185.8830  177.9870  138.4990 N   0  0  0  0  0  2  0  0  0  0  0  0
  184.9120  177.5680  137.7600 C   0  0  0  0  0  0  0  0  0  0  0  0
  182.7440  176.5350  139.5280 O   0  0  0  0  0  0  0  0  0  0  0  0
  181.8790  178.9120  138.1680 C   0  0  0  0  0  0  0  0  0  0  0  0
  181.0900  179.1660  139.1840 C   0  0  0  0  0  0  0  0  0  0  0  0
  184.3770  176.9590  136.4540 N   0  0  0  0  0  2  0  0  0  0  0  0
  181.0470  178.1970  140.3440 C   0  0  1  0  0  3  0  0  0  0  0  0
  183.5700  177.3230  137.5280 C   0  0  1  0  0  0  0  0  0  0  0  0
  183.0150  176.1590  138.2250 N   0  0  0  0  0  2  0  0  0  0  0  0
  180.5490  175.9060  139.8410 O   0  0  0  0  0  0  0  0  0  0  0  0
  181.4330  176.7980  139.9350 C   0  0  0  0  0  0  0  0  0  0  0  0
  182.6870  178.4950  137.2350 C   0  0  0  0  0  3  0  0  0  0  0  0
  181.3630  179.3110  142.4380 O   0  0  0  0  0  0  0  0  0  0  0  0
  183.3010  178.4400  141.4510 N   0  0  0  0  0  2  0  0  0  0  0  0
  184.2230  178.8190  142.4790 C   0  0  0  0  0  0  0  0  0  0  0  0
  183.8050  179.2550  143.5860 O   0  0  0  0  0  0  0  0  0  0  0  0
  181.8890  178.6700  141.4880 C   0  0  0  0  0  0  0  0  0  0  0  0
  185.6900  178.6650  142.2170 C   0  0  0  0  0  2  0  0  0  0  0  0
  186.4020  177.8780  143.3100 C   0  0  0  0  0  2  0  0  0  0  0  0
  189.7170  177.0870  143.8380 C   0  0  1  0  0  3  0  0  0  0  0  0
  187.8010  177.4860  142.8660 C   0  0  1  0  0  3  0  0  0  0  0  0
  189.2580  175.8510  143.3500 O   0  0  0  0  0  0  0  0  0  0  0  0
  188.7320  178.0740  143.7050 O   0  0  0  0  0  0  0  0  0  0  0  0
  187.9770  176.0550  142.9540 N   0  0  0  0  0  2  0  0  0  0  0  0
  190.1740  176.9450  145.2890 C   0  0  1  0  0  3  0  0  0  0  0  0
  191.6650  177.2060  145.3990 C   0  0  0  0  0  1  0  0  0  0  0  0
  189.3990  177.8780  146.2120 C   0  0  0  0  0  2  0  0  0  0  0  0
  188.1260  177.2130  146.7100 C   0  0  0  0  0  2  0  0  0  0  0  0
  187.7830  177.7290  147.9600 O   0  0  0  0  0  0  0  0  0  0  0  0
  188.9720  178.2460  148.4700 C   0  0  0  0  0  1  0  0  0  0  0  0
  180.2920  180.3540  139.2280 N   0  0  0  0  0  2  0  0  0  0  0  0
  179.4120  180.7780  138.1430 C   0  0  0  0  0  2  0  0  0  0  0  0
  179.6140  183.8720  136.0260 N   0  0  0  0  0  0  0  0  0  0  0  0
  181.1020  182.6280  137.9890 C   0  0  0  0  0  3  0  0  0  0  0  0
  181.5380  183.8350  137.4390 C   0  0  0  0  0  0  0  0  0  0  0  0
  180.7720  184.4500  136.4470 C   0  0  0  0  0  3  0  0  0  0  0  0
  179.9160  182.0470  137.5390 C   0  0  0  0  0  0  0  0  0  0  0  0
  179.1720  182.6960  136.5510 C   0  0  0  0  0  3  0  0  0  0  0  0
  182.6820  184.4140  137.8780 F   0  0  0  0  0  0  0  0  0  0  0  0
  2  1  2  0  0  0  0
  3 11  1  0  0  0  0
  4  5  2  0  0  0  0
  5 31  1  0  0  0  0
  5  7  1  0  0  0  0
  6  8  1  0  0  0  0
  6  2  1  0  0  0  0
  7 17  1  1  0  0  0
  8 12  1  6  0  0  0
  8  2  1  0  0  0  0
  8  9  1  0  0  0  0
  9  3  1  0  0  0  0
 10 11  2  0  0  0  0
 11  7  1  0  0  0  0
 12  4  2  0  0  0  0
 14 17  1  0  0  0  0
 14 15  1  0  0  0  0
 15 16  2  0  0  0  0
 17 13  2  0  0  0  0
 18 15  1  0  0  0  0
 18 19  1  0  0  0  0
 20 25  1  1  0  0  0
 21 24  1  0  0  0  0
 21 19  1  1  0  0  0
 21 23  1  0  0  0  0
 22 20  1  0  0  0  0
 23 20  1  0  0  0  0
 24 22  1  0  0  0  0
 25 26  1  6  0  0  0
 25 27  1  0  0  0  0
 27 28  1  0  0  0  0
 28 29  1  0  0  0  0
 29 30  1  0  0  0  0
 32 31  1  0  0  0  0
 33 36  2  0  0  0  0
 33 38  1  0  0  0  0
 35 39  1  0  0  0  0
 35 34  2  0  0  0  0
 36 35  1  0  0  0  0
 37 34  1  0  0  0  0
 37 32  1  0  0  0  0
 38 37  2  0  0  0  0
M  END
>  <MODEL>
9

>  <REMARK>
 VINA RESULT:      -6.9      2.981      5.592
  Name = 
  11 active torsions:
  status: ('A' for Active; 'I' for Inactive)
    1  A    between atoms: C_3  and  C_25
    2  A    between atoms: C_4  and  C_23
    3  A    between atoms: C_8  and  C_27
    4  A    between atoms: C_8  and  N_34
    5  A    between atoms: C_13  and  C_25
    6  A    between atoms: C_13  and  C_31
    7  A    between atoms: O_14  and  C_31
    8  A    between atoms: C_15  and  N_34
    9  A    between atoms: C_20  and  C_32
   10  A    between atoms: C_21  and  C_38
   11  A    between atoms: C_23  and  C_38
                            x       y       z     vdW  Elec       q    Type
                         _______ _______ _______ _____ _____    ______ ____

>  <TORSDO>
F 11

$$$$
