=
 OpenBabel10222417243D

 57 62  0  0  1  0  0  0  0  0999 V2000
  183.4530  179.2540  143.0290 C   0  0  1  0  0  3  0  0  0  0  0  0
  184.4260  178.3700  142.3110 C   0  0  0  0  0  3  0  0  0  0  0  0
  181.6440  178.4240  141.1640 C   0  0  2  0  0  3  0  0  0  0  0  0
  182.8460  177.9590  140.3340 C   0  0  1  0  0  3  0  0  0  0  0  0
  184.1440  177.7970  141.1220 C   0  0  0  0  0  3  0  0  0  0  0  0
  181.4450  177.7480  142.5310 C   0  0  0  0  0  2  0  0  0  0  0  0
  182.2670  178.4670  143.6150 C   0  0  0  0  0  2  0  0  0  0  0  0
  180.4040  178.6140  140.4110 N   0  0  0  0  0  0  0  0  0  0  0  0
  179.9410  186.5780  139.3250 C   0  0  0  0  0  1  0  0  0  0  0  0
  181.4870  180.2430  138.9770 C   0  0  0  0  0  3  0  0  0  0  0  0
  179.8920  183.3290  137.8730 N   0  0  0  0  0  0  0  0  0  0  0  0
  182.1380  184.2110  137.4270 C   0  0  0  0  0  1  0  0  0  0  0  0
  180.3180  179.4590  139.4310 C   0  0  0  0  0  0  0  0  0  0  0  0
  178.9350  181.2460  138.4780 N   0  0  0  0  0  0  0  0  0  0  0  0
  180.7660  183.8780  136.8420 C   0  0  2  0  0  3  0  0  0  0  0  0
  178.9880  179.8170  138.8410 C   0  0  0  0  0  2  0  0  0  0  0  0
  181.3060  181.3720  138.3620 N   0  0  0  0  0  0  0  0  0  0  0  0
  179.9990  181.9280  138.1690 C   0  0  0  0  0  0  0  0  0  0  0  0
  180.1430  185.1080  136.2520 C   0  0  0  0  0  3  0  0  0  0  0  0
  179.3490  184.1950  138.9220 C   0  0  0  0  0  2  0  0  0  0  0  0
  179.3700  185.9030  137.0040 C   0  0  0  0  0  3  0  0  0  0  0  0
  179.0990  185.6420  138.4650 C   0  0  2  0  0  3  0  0  0  0  0  0
  183.5250  176.0530  139.0040 N   0  0  0  0  0  0  0  0  0  0  0  0
  182.5520  176.7100  139.5570 C   0  0  0  0  0  3  0  0  0  0  0  0
  183.2940  174.8130  138.3750 N   0  0  0  0  0  2  0  0  0  0  0  0
  182.3490  174.6510  137.3100 C   0  0  0  0  0  0  0  0  0  0  0  0
  181.6070  175.6040  136.9410 O   0  0  0  0  0  0  0  0  0  0  0  0
  182.1930  173.2960  136.6750 C   0  0  0  0  0  2  0  0  0  0  0  0
  184.0000  170.8930  134.6920 C   0  0  2  0  0  3  0  0  0  0  0  0
  184.7140  169.6370  135.1880 C   0  0  0  0  0  2  0  0  0  0  0  0
  184.4860  174.5120  135.5940 O   0  0  0  0  0  1  0  0  0  0  0  0
  181.8560  172.1410  134.5940 C   0  0  0  0  0  2  0  0  0  0  0  0
  182.4520  173.3380  135.2260 N   0  0  0  0  0  0  0  0  0  0  0  0
  186.1120  172.1900  134.8980 C   0  0  0  0  0  2  0  0  0  0  0  0
  186.8700  170.9380  135.3230 C   0  0  0  0  0  2  0  0  0  0  0  0
  184.6490  172.1120  135.3590 C   0  0  1  0  0  3  0  0  0  0  0  0
  182.5250  170.8370  135.0380 C   0  0  0  0  0  2  0  0  0  0  0  0
  186.1850  169.6860  134.7670 C   0  0  0  0  0  2  0  0  0  0  0  0
  183.9110  173.4010  134.9590 C   0  0  2  0  0  3  0  0  0  0  0  0
  184.1410  180.0780  144.0840 C   0  0  0  0  0  2  0  0  0  0  0  0
  185.6060  179.6580  144.1170 C   0  0  0  0  0  2  0  0  0  0  0  0
  185.8230  178.4980  145.0770 C   0  0  2  0  0  3  0  0  0  0  0  0
  185.5060  178.5060  147.5620 C   0  0  0  0  0  1  0  0  0  0  0  0
  184.8140  178.6040  146.2080 C   0  0  0  0  0  2  0  0  0  0  0  0
  187.1950  178.5470  145.6020 N   0  0  0  0  0  2  0  0  0  0  0  0
  188.0750  177.4920  145.0670 C   0  0  0  0  0  0  0  0  0  0  0  0
  187.3710  176.5910  144.2350 O   0  0  0  0  0  1  0  0  0  0  0  0
  188.6080  176.8010  146.1560 O   0  0  0  0  0  1  0  0  0  0  0  0
  189.0760  177.2440  142.0730 C   0  0  0  0  0  0  0  0  0  0  0  0
  189.5760  175.9470  142.6380 C   0  0  0  0  0  2  0  0  0  0  0  0
  191.6860  178.4920  143.9070 C   0  0  0  0  0  1  0  0  0  0  0  0
  190.8030  176.2160  143.5330 C   0  0  0  0  0  2  0  0  0  0  0  0
  190.6610  177.4860  144.4230 C   0  0  0  0  0  0  0  0  0  0  0  0
  188.9740  177.4170  140.5940 C   0  0  0  0  0  1  0  0  0  0  0  0
  191.0180  177.1650  145.8730 C   0  0  0  0  0  1  0  0  0  0  0  0
  188.9800  178.2790  142.8470 N   0  0  0  0  0  0  0  0  0  0  0  0
  189.2540  178.1480  144.2740 C   0  0  1  0  0  3  0  0  0  0  0  0
  1  7  1  0  0  0  0
  1 40  1  1  0  0  0
  2  1  1  0  0  0  0
  3  8  1  6  0  0  0
  3  6  1  0  0  0  0
  4 24  1  1  0  0  0
  4  5  1  0  0  0  0
  4  3  1  0  0  0  0
  5  2  2  0  0  0  0
  6  7  1  0  0  0  0
 10 13  1  0  0  0  0
 11 18  1  0  0  0  0
 11 20  1  0  0  0  0
 13  8  2  0  0  0  0
 14 16  1  0  0  0  0
 15 12  1  1  0  0  0
 15 11  1  0  0  0  0
 16 13  1  0  0  0  0
 17 10  2  0  0  0  0
 18 17  1  0  0  0  0
 18 14  2  0  0  0  0
 19 15  1  0  0  0  0
 19 21  2  0  0  0  0
 21 22  1  0  0  0  0
 22 20  1  0  0  0  0
 22  9  1  1  0  0  0
 23 24  2  0  0  0  0
 25 23  1  0  0  0  0
 26 25  1  0  0  0  0
 27 26  2  0  0  0  0
 28 26  1  0  0  0  0
 29 37  1  1  0  0  0
 29 30  1  0  0  0  0
 29 36  1  0  0  0  0
 32 37  1  0  0  0  0
 32 33  1  0  0  0  0
 33 28  1  0  0  0  0
 34 35  1  0  0  0  0
 36 34  1  6  0  0  0
 38 30  1  0  0  0  0
 38 35  1  0  0  0  0
 39 33  1  0  0  0  0
 39 36  1  0  0  0  0
 39 31  1  1  0  0  0
 40 41  1  0  0  0  0
 42 41  1  6  0  0  0
 42 45  1  0  0  0  0
 42 44  1  0  0  0  0
 44 43  1  0  0  0  0
 46 45  1  0  0  0  0
 46 48  1  0  0  0  0
 47 46  1  0  0  0  0
 49 50  1  0  0  0  0
 49 56  2  0  0  0  0
 50 52  1  0  0  0  0
 51 53  1  0  0  0  0
 52 53  1  0  0  0  0
 53 55  1  0  0  0  0
 54 49  1  0  0  0  0
 56 57  1  0  0  0  0
 57 53  1  0  0  0  0
 57 46  1  6  0  0  0
M  END
>  <MODEL>
1

>  <REMARK>
 VINA RESULT:      -7.9      0.000      0.000
  Name = 
  12 active torsions:
  status: ('A' for Active; 'I' for Inactive)
    1  A    between atoms: N_1  and  C_9
    2  A    between atoms: C_2  and  C_3
    3  A    between atoms: C_2  and  C_22
    4  A    between atoms: N_18  and  C_52
    5  A    between atoms: N_20  and  N_21
    6  A    between atoms: C_22  and  C_28
    7  A    between atoms: C_23  and  N_29
    8  A    between atoms: C_23  and  C_56
    9  A    between atoms: C_26  and  C_52
   10  A    between atoms: C_27  and  C_39
   11  A    between atoms: C_28  and  N_29
   12  A    between atoms: C_28  and  C_40
                            x       y       z     vdW  Elec       q    Type
                         _______ _______ _______ _____ _____    ______ ____

>  <TORSDO>
F 12

$$$$
=
 OpenBabel10222417243D

 57 62  0  0  1  0  0  0  0  0999 V2000
  188.2310  177.8430  143.6990 C   0  0  1  0  0  3  0  0  0  0  0  0
  189.5490  177.5630  144.3520 C   0  0  0  0  0  3  0  0  0  0  0  0
  189.6470  177.9660  141.3710 C   0  0  2  0  0  3  0  0  0  0  0  0
  190.8990  178.1190  142.2450 C   0  0  1  0  0  3  0  0  0  0  0  0
  190.7230  177.6820  143.6970 C   0  0  0  0  0  3  0  0  0  0  0  0
  188.8570  176.6550  141.5210 C   0  0  0  0  0  2  0  0  0  0  0  0
  187.8430  176.7630  142.6740 C   0  0  0  0  0  2  0  0  0  0  0  0
  189.7960  178.4140  139.9870 N   0  0  0  0  0  0  0  0  0  0  0  0
  184.9360  173.5580  135.7910 C   0  0  0  0  0  1  0  0  0  0  0  0
  187.4040  178.2250  139.6340 C   0  0  0  0  0  3  0  0  0  0  0  0
  185.9180  176.8840  136.5870 N   0  0  0  0  0  0  0  0  0  0  0  0
  183.8750  176.4780  137.8830 C   0  0  0  0  0  1  0  0  0  0  0  0
  188.7830  178.5100  139.1830 C   0  0  0  0  0  0  0  0  0  0  0  0
  187.9980  177.9740  136.9220 N   0  0  0  0  0  0  0  0  0  0  0  0
  184.4930  177.1840  136.6770 C   0  0  2  0  0  3  0  0  0  0  0  0
  188.9870  178.7280  137.7140 C   0  0  0  0  0  2  0  0  0  0  0  0
  186.5040  177.8660  138.7690 N   0  0  0  0  0  0  0  0  0  0  0  0
  186.8220  177.6630  137.3860 C   0  0  0  0  0  0  0  0  0  0  0  0
  183.8040  176.7550  135.4160 C   0  0  0  0  0  3  0  0  0  0  0  0
  186.3700  175.5550  136.1700 C   0  0  0  0  0  2  0  0  0  0  0  0
  184.2500  175.6950  134.7280 C   0  0  0  0  0  3  0  0  0  0  0  0
  185.4260  174.8620  135.1730 C   0  0  2  0  0  3  0  0  0  0  0  0
  192.1870  177.3310  140.3520 N   0  0  0  0  0  0  0  0  0  0  0  0
  192.0970  177.4500  141.6420 C   0  0  0  0  0  3  0  0  0  0  0  0
  193.3560  176.8200  139.7540 N   0  0  0  0  0  2  0  0  0  0  0  0
  193.3680  176.2600  138.4350 C   0  0  0  0  0  0  0  0  0  0  0  0
  192.3020  176.1150  137.7750 O   0  0  0  0  0  0  0  0  0  0  0  0
  194.6710  175.7700  137.8640 C   0  0  0  0  0  2  0  0  0  0  0  0
  196.3370  172.8650  136.5400 C   0  0  2  0  0  3  0  0  0  0  0  0
  197.4280  172.0370  137.2170 C   0  0  0  0  0  2  0  0  0  0  0  0
  196.2250  176.5160  135.6430 O   0  0  0  0  0  1  0  0  0  0  0  0
  194.0290  173.7620  136.7080 C   0  0  0  0  0  2  0  0  0  0  0  0
  194.4910  175.1570  136.5370 N   0  0  0  0  0  0  0  0  0  0  0  0
  198.0690  174.2640  135.4310 C   0  0  0  0  0  2  0  0  0  0  0  0
  199.1810  173.4110  136.0310 C   0  0  0  0  0  2  0  0  0  0  0  0
  196.8550  174.2990  136.3700 C   0  0  1  0  0  3  0  0  0  0  0  0
  195.0740  172.8660  137.3780 C   0  0  0  0  0  2  0  0  0  0  0  0
  198.6690  171.9960  136.3200 C   0  0  0  0  0  2  0  0  0  0  0  0
  195.7610  175.1980  135.7680 C   0  0  2  0  0  3  0  0  0  0  0  0
  187.1460  178.0430  144.7240 C   0  0  0  0  0  2  0  0  0  0  0  0
  185.8330  177.5810  144.1050 C   0  0  0  0  0  2  0  0  0  0  0  0
  184.9410  178.7640  143.7610 C   0  0  2  0  0  3  0  0  0  0  0  0
  184.4480  178.6600  146.2150 C   0  0  0  0  0  1  0  0  0  0  0  0
  184.6980  179.5750  145.0220 C   0  0  0  0  0  2  0  0  0  0  0  0
  183.6700  178.2750  143.2080 N   0  0  0  0  0  2  0  0  0  0  0  0
  183.4570  178.6370  141.7950 C   0  0  0  0  0  0  0  0  0  0  0  0
  183.2750  177.4950  140.9810 O   0  0  0  0  0  1  0  0  0  0  0  0
  184.5860  179.3380  141.3680 O   0  0  0  0  0  1  0  0  0  0  0  0
  180.5670  178.5890  143.0900 C   0  0  0  0  0  0  0  0  0  0  0  0
  180.4190  177.5190  142.0480 C   0  0  0  0  0  2  0  0  0  0  0  0
  180.4030  180.6180  140.3350 C   0  0  0  0  0  1  0  0  0  0  0  0
  180.3100  178.1710  140.6540 C   0  0  0  0  0  2  0  0  0  0  0  0
  181.2780  179.3730  140.4480 C   0  0  0  0  0  0  0  0  0  0  0  0
  179.5860  178.6710  144.2110 C   0  0  0  0  0  1  0  0  0  0  0  0
  182.0430  179.2250  139.1350 C   0  0  0  0  0  1  0  0  0  0  0  0
  181.3790  179.5760  142.8750 N   0  0  0  0  0  0  0  0  0  0  0  0
  182.2160  179.5830  141.6800 C   0  0  1  0  0  3  0  0  0  0  0  0
  1  2  1  0  0  0  0
  1 40  1  1  0  0  0
  3  8  1  6  0  0  0
  3  6  1  0  0  0  0
  3  4  1  0  0  0  0
  4 24  1  6  0  0  0
  4  5  1  0  0  0  0
  5  2  2  0  0  0  0
  6  7  1  0  0  0  0
  7  1  1  0  0  0  0
 11 15  1  0  0  0  0
 11 18  1  0  0  0  0
 13 10  1  0  0  0  0
 13  8  2  0  0  0  0
 14 18  2  0  0  0  0
 14 16  1  0  0  0  0
 15 12  1  1  0  0  0
 16 13  1  0  0  0  0
 17 10  2  0  0  0  0
 18 17  1  0  0  0  0
 19 15  1  0  0  0  0
 20 11  1  0  0  0  0
 21 22  1  0  0  0  0
 21 19  2  0  0  0  0
 22  9  1  1  0  0  0
 22 20  1  0  0  0  0
 23 24  2  0  0  0  0
 25 23  1  0  0  0  0
 26 25  1  0  0  0  0
 27 26  2  0  0  0  0
 28 26  1  0  0  0  0
 29 30  1  1  0  0  0
 29 37  1  0  0  0  0
 32 37  1  0  0  0  0
 33 32  1  0  0  0  0
 33 28  1  0  0  0  0
 34 35  1  0  0  0  0
 35 38  1  0  0  0  0
 36 34  1  6  0  0  0
 36 29  1  0  0  0  0
 38 30  1  0  0  0  0
 39 31  1  1  0  0  0
 39 36  1  0  0  0  0
 39 33  1  0  0  0  0
 41 40  1  0  0  0  0
 42 41  1  1  0  0  0
 42 44  1  0  0  0  0
 44 43  1  0  0  0  0
 45 42  1  0  0  0  0
 46 45  1  0  0  0  0
 47 46  1  0  0  0  0
 48 46  1  0  0  0  0
 49 54  1  0  0  0  0
 50 49  1  0  0  0  0
 51 53  1  0  0  0  0
 52 50  1  0  0  0  0
 53 52  1  0  0  0  0
 53 57  1  0  0  0  0
 55 53  1  0  0  0  0
 56 49  2  0  0  0  0
 57 46  1  1  0  0  0
 57 56  1  0  0  0  0
M  END
>  <MODEL>
2

>  <REMARK>
 VINA RESULT:      -7.7      5.174      9.547
  Name = 
  12 active torsions:
  status: ('A' for Active; 'I' for Inactive)
    1  A    between atoms: N_1  and  C_9
    2  A    between atoms: C_2  and  C_3
    3  A    between atoms: C_2  and  C_22
    4  A    between atoms: N_18  and  C_52
    5  A    between atoms: N_20  and  N_21
    6  A    between atoms: C_22  and  C_28
    7  A    between atoms: C_23  and  N_29
    8  A    between atoms: C_23  and  C_56
    9  A    between atoms: C_26  and  C_52
   10  A    between atoms: C_27  and  C_39
   11  A    between atoms: C_28  and  N_29
   12  A    between atoms: C_28  and  C_40
                            x       y       z     vdW  Elec       q    Type
                         _______ _______ _______ _____ _____    ______ ____

>  <TORSDO>
F 12

$$$$
=
 OpenBabel10222417243D

 57 62  0  0  1  0  0  0  0  0999 V2000
  186.1940  173.3570  136.9080 C   0  0  1  0  0  3  0  0  0  0  0  0
  187.3540  172.4370  136.6810 C   0  0  0  0  0  3  0  0  0  0  0  0
  188.0310  175.3690  136.7650 C   0  0  2  0  0  3  0  0  0  0  0  0
  189.0980  174.2910  136.9940 C   0  0  1  0  0  3  0  0  0  0  0  0
  188.6350  172.8630  136.7150 C   0  0  0  0  0  3  0  0  0  0  0  0
  187.1830  175.2420  135.4890 C   0  0  0  0  0  2  0  0  0  0  0  0
  185.9720  174.3240  135.7310 C   0  0  0  0  0  2  0  0  0  0  0  0
  188.4550  176.7370  137.0630 N   0  0  0  0  0  0  0  0  0  0  0  0
  187.8970  177.2960  145.0740 C   0  0  0  0  0  1  0  0  0  0  0  0
  189.7520  175.9580  138.9580 C   0  0  0  0  0  3  0  0  0  0  0  0
  189.8920  177.7020  142.1560 N   0  0  0  0  0  0  0  0  0  0  0  0
  190.6280  175.5890  143.1620 C   0  0  0  0  0  1  0  0  0  0  0  0
  189.2170  177.0160  138.0740 C   0  0  0  0  0  0  0  0  0  0  0  0
  189.5020  178.5420  139.9720 N   0  0  0  0  0  0  0  0  0  0  0  0
  190.9620  177.0590  142.9100 C   0  0  2  0  0  3  0  0  0  0  0  0
  189.4350  178.4350  138.5030 C   0  0  0  0  0  2  0  0  0  0  0  0
  190.0910  176.2480  140.1780 N   0  0  0  0  0  0  0  0  0  0  0  0
  189.8950  177.5570  140.7270 C   0  0  0  0  0  0  0  0  0  0  0  0
  191.1640  177.7740  144.2130 C   0  0  0  0  0  3  0  0  0  0  0  0
  188.6080  177.9970  142.7950 C   0  0  0  0  0  2  0  0  0  0  0  0
  190.1300  178.3570  144.8330 C   0  0  0  0  0  3  0  0  0  0  0  0
  188.7200  178.3160  144.2960 C   0  0  2  0  0  3  0  0  0  0  0  0
  191.5090  174.2770  136.7830 N   0  0  0  0  0  0  0  0  0  0  0  0
  190.3660  174.5800  136.2480 C   0  0  0  0  0  3  0  0  0  0  0  0
  192.7080  174.4220  136.0560 N   0  0  0  0  0  2  0  0  0  0  0  0
  193.6480  175.4730  136.3150 C   0  0  0  0  0  0  0  0  0  0  0  0
  193.4000  176.3790  137.1570 O   0  0  0  0  0  0  0  0  0  0  0  0
  194.9180  175.5280  135.5110 C   0  0  0  0  0  2  0  0  0  0  0  0
  198.0210  173.7000  135.4670 C   0  0  2  0  0  3  0  0  0  0  0  0
  198.3720  172.4980  134.5940 C   0  0  0  0  0  2  0  0  0  0  0  0
  195.2510  174.1960  137.9640 O   0  0  0  0  0  1  0  0  0  0  0  0
  197.2620  176.0630  135.5120 C   0  0  0  0  0  2  0  0  0  0  0  0
  196.0980  175.7390  136.3660 N   0  0  0  0  0  0  0  0  0  0  0  0
  197.2420  172.1760  137.2720 C   0  0  0  0  0  2  0  0  0  0  0  0
  197.6510  170.9560  136.4550 C   0  0  0  0  0  2  0  0  0  0  0  0
  196.8190  173.3240  136.3450 C   0  0  1  0  0  3  0  0  0  0  0  0
  197.6790  174.9010  134.6080 C   0  0  0  0  0  2  0  0  0  0  0  0
  198.7780  171.3200  135.4840 C   0  0  0  0  0  2  0  0  0  0  0  0
  196.3700  174.5310  137.1860 C   0  0  2  0  0  3  0  0  0  0  0  0
  184.9420  172.5860  137.2300 C   0  0  0  0  0  2  0  0  0  0  0  0
  183.8850  172.9690  136.2010 C   0  0  0  0  0  2  0  0  0  0  0  0
  182.5230  173.1540  136.8540 C   0  0  2  0  0  3  0  0  0  0  0  0
  182.0170  171.0790  135.5450 C   0  0  0  0  0  1  0  0  0  0  0  0
  181.7990  171.8180  136.8600 C   0  0  0  0  0  2  0  0  0  0  0  0
  181.7530  174.1570  136.1050 N   0  0  0  0  0  2  0  0  0  0  0  0
  181.3340  175.3140  136.9170 C   0  0  0  0  0  0  0  0  0  0  0  0
  180.3580  174.9570  137.8750 O   0  0  0  0  0  1  0  0  0  0  0  0
  180.8040  176.2660  136.0450 O   0  0  0  0  0  1  0  0  0  0  0  0
  181.6740  177.3640  139.3070 C   0  0  0  0  0  0  0  0  0  0  0  0
  181.2710  178.2950  138.2020 C   0  0  0  0  0  2  0  0  0  0  0  0
  184.6230  177.3500  137.5640 C   0  0  0  0  0  1  0  0  0  0  0  0
  182.4560  178.4860  137.2320 C   0  0  0  0  0  2  0  0  0  0  0  0
  183.2420  177.1740  136.9390 C   0  0  0  0  0  0  0  0  0  0  0  0
  181.5790  177.8140  140.7260 C   0  0  0  0  0  1  0  0  0  0  0  0
  183.4350  176.9910  135.4360 C   0  0  0  0  0  1  0  0  0  0  0  0
  182.3340  176.2860  139.0200 N   0  0  0  0  0  0  0  0  0  0  0  0
  182.5830  175.9350  137.6250 C   0  0  1  0  0  3  0  0  0  0  0  0
  1 40  1  6  0  0  0
  2  5  2  0  0  0  0
  2  1  1  0  0  0  0
  3  4  1  0  0  0  0
  3  8  1  6  0  0  0
  4 24  1  6  0  0  0
  5  4  1  0  0  0  0
  6  7  1  0  0  0  0
  6  3  1  0  0  0  0
  7  1  1  0  0  0  0
  8 13  2  0  0  0  0
 10 17  2  0  0  0  0
 11 20  1  0  0  0  0
 11 15  1  0  0  0  0
 13 16  1  0  0  0  0
 13 10  1  0  0  0  0
 14 18  2  0  0  0  0
 15 12  1  1  0  0  0
 15 19  1  0  0  0  0
 16 14  1  0  0  0  0
 17 18  1  0  0  0  0
 18 11  1  0  0  0  0
 19 21  2  0  0  0  0
 20 22  1  0  0  0  0
 22 21  1  0  0  0  0
 22  9  1  1  0  0  0
 24 23  2  0  0  0  0
 25 26  1  0  0  0  0
 25 23  1  0  0  0  0
 26 27  2  0  0  0  0
 28 26  1  0  0  0  0
 28 33  1  0  0  0  0
 29 30  1  6  0  0  0
 29 36  1  0  0  0  0
 30 38  1  0  0  0  0
 32 33  1  0  0  0  0
 33 39  1  0  0  0  0
 35 34  1  0  0  0  0
 36 39  1  0  0  0  0
 36 34  1  1  0  0  0
 37 29  1  0  0  0  0
 37 32  1  0  0  0  0
 38 35  1  0  0  0  0
 39 31  1  6  0  0  0
 41 40  1  0  0  0  0
 42 41  1  6  0  0  0
 42 44  1  0  0  0  0
 43 44  1  0  0  0  0
 45 42  1  0  0  0  0
 45 46  1  0  0  0  0
 46 47  1  0  0  0  0
 48 46  1  0  0  0  0
 49 54  1  0  0  0  0
 50 49  1  0  0  0  0
 52 50  1  0  0  0  0
 53 52  1  0  0  0  0
 53 51  1  0  0  0  0
 53 57  1  0  0  0  0
 55 53  1  0  0  0  0
 56 49  2  0  0  0  0
 57 46  1  6  0  0  0
 57 56  1  0  0  0  0
M  END
>  <MODEL>
3

>  <REMARK>
 VINA RESULT:      -7.5      5.559     11.390
  Name = 
  12 active torsions:
  status: ('A' for Active; 'I' for Inactive)
    1  A    between atoms: N_1  and  C_9
    2  A    between atoms: C_2  and  C_3
    3  A    between atoms: C_2  and  C_22
    4  A    between atoms: N_18  and  C_52
    5  A    between atoms: N_20  and  N_21
    6  A    between atoms: C_22  and  C_28
    7  A    between atoms: C_23  and  N_29
    8  A    between atoms: C_23  and  C_56
    9  A    between atoms: C_26  and  C_52
   10  A    between atoms: C_27  and  C_39
   11  A    between atoms: C_28  and  N_29
   12  A    between atoms: C_28  and  C_40
                            x       y       z     vdW  Elec       q    Type
                         _______ _______ _______ _____ _____    ______ ____

>  <TORSDO>
F 12

$$$$
=
 OpenBabel10222417243D

 57 62  0  0  1  0  0  0  0  0999 V2000
  187.0080  177.8650  139.1730 C   0  0  1  0  0  3  0  0  0  0  0  0
  187.2890  177.1460  137.8900 C   0  0  0  0  0  3  0  0  0  0  0  0
  189.5550  177.1800  139.8700 C   0  0  2  0  0  3  0  0  0  0  0  0
  189.4910  176.1460  138.7390 C   0  0  1  0  0  3  0  0  0  0  0  0
  188.3940  176.3930  137.7070 C   0  0  0  0  0  3  0  0  0  0  0  0
  189.4240  178.6570  139.4640 C   0  0  0  0  0  2  0  0  0  0  0  0
  187.9430  179.0690  139.3880 C   0  0  0  0  0  2  0  0  0  0  0  0
  190.5810  176.9320  140.8830 N   0  0  0  0  0  0  0  0  0  0  0  0
  187.4730  179.9830  147.6530 C   0  0  0  0  0  1  0  0  0  0  0  0
  188.8880  176.2560  142.4810 C   0  0  0  0  0  3  0  0  0  0  0  0
  188.9510  177.1990  146.0020 N   0  0  0  0  0  0  0  0  0  0  0  0
  186.5460  176.7180  146.0700 C   0  0  0  0  0  1  0  0  0  0  0  0
  190.2830  176.5360  142.0810 C   0  0  0  0  0  0  0  0  0  0  0  0
  190.7320  176.9270  144.4600 N   0  0  0  0  0  0  0  0  0  0  0  0
  187.9230  176.3890  146.6470 C   0  0  2  0  0  3  0  0  0  0  0  0
  191.3170  176.5280  143.1660 C   0  0  0  0  0  2  0  0  0  0  0  0
  188.5490  176.3270  143.7330 N   0  0  0  0  0  0  0  0  0  0  0  0
  189.4750  176.7450  144.7450 C   0  0  0  0  0  0  0  0  0  0  0  0
  187.9370  176.6350  148.1260 C   0  0  0  0  0  3  0  0  0  0  0  0
  189.0570  178.6300  146.2930 C   0  0  0  0  0  2  0  0  0  0  0  0
  188.2800  177.8370  148.6090 C   0  0  0  0  0  3  0  0  0  0  0  0
  188.6410  179.0060  147.7250 C   0  0  2  0  0  3  0  0  0  0  0  0
  191.3990  174.8080  138.0820 N   0  0  0  0  0  0  0  0  0  0  0  0
  190.8150  175.9670  138.0570 C   0  0  0  0  0  3  0  0  0  0  0  0
  192.5790  174.5800  137.3460 N   0  0  0  0  0  2  0  0  0  0  0  0
  193.8390  175.1650  137.7030 C   0  0  0  0  0  0  0  0  0  0  0  0
  193.9310  175.9930  138.6510 O   0  0  0  0  0  0  0  0  0  0  0  0
  195.0530  174.8350  136.8790 C   0  0  0  0  0  2  0  0  0  0  0  0
  198.0700  173.0270  136.1060 C   0  0  2  0  0  3  0  0  0  0  0  0
  198.3490  172.1830  134.8630 C   0  0  0  0  0  2  0  0  0  0  0  0
  195.3800  172.7360  138.7190 O   0  0  0  0  0  1  0  0  0  0  0  0
  197.4180  175.2570  136.9790 C   0  0  0  0  0  2  0  0  0  0  0  0
  196.2600  174.7010  137.7120 N   0  0  0  0  0  0  0  0  0  0  0  0
  197.2640  171.0060  137.3110 C   0  0  0  0  0  2  0  0  0  0  0  0
  197.6000  170.1250  136.1140 C   0  0  0  0  0  2  0  0  0  0  0  0
  196.8720  172.4160  136.8450 C   0  0  1  0  0  3  0  0  0  0  0  0
  197.7640  174.4590  135.7180 C   0  0  0  0  0  2  0  0  0  0  0  0
  198.7210  170.7590  135.2850 C   0  0  0  0  0  2  0  0  0  0  0  0
  196.4950  173.2770  138.0620 C   0  0  2  0  0  3  0  0  0  0  0  0
  185.5610  178.2690  139.2670 C   0  0  0  0  0  2  0  0  0  0  0  0
  185.4000  179.1290  140.5150 C   0  0  0  0  0  2  0  0  0  0  0  0
  184.1950  178.6910  141.3330 C   0  0  2  0  0  3  0  0  0  0  0  0
  184.0010  179.0580  143.8030 C   0  0  0  0  0  1  0  0  0  0  0  0
  184.6720  178.2430  142.7040 C   0  0  0  0  0  2  0  0  0  0  0  0
  183.5060  177.5920  140.6400 N   0  0  0  0  0  2  0  0  0  0  0  0
  182.1190  177.9090  140.2540 C   0  0  0  0  0  0  0  0  0  0  0  0
  182.0610  178.9830  139.3360 O   0  0  0  0  0  1  0  0  0  0  0  0
  181.4290  178.2530  141.4170 O   0  0  0  0  0  1  0  0  0  0  0  0
  183.0640  175.7790  138.1080 C   0  0  0  0  0  0  0  0  0  0  0  0
  182.7380  176.9410  137.2170 C   0  0  0  0  0  2  0  0  0  0  0  0
  179.6490  175.5810  138.2870 C   0  0  0  0  0  1  0  0  0  0  0  0
  181.2060  177.0890  137.1050 C   0  0  0  0  0  2  0  0  0  0  0  0
  180.4560  176.8660  138.4510 C   0  0  0  0  0  0  0  0  0  0  0  0
  183.9100  174.6650  137.5910 C   0  0  0  0  0  1  0  0  0  0  0  0
  179.4700  178.0030  138.7080 C   0  0  0  0  0  1  0  0  0  0  0  0
  182.4110  175.6270  139.2160 N   0  0  0  0  0  0  0  0  0  0  0  0
  181.4460  176.6370  139.6380 C   0  0  1  0  0  3  0  0  0  0  0  0
  1 40  1  6  0  0  0
  1  7  1  0  0  0  0
  2  1  1  0  0  0  0
  3  8  1  6  0  0  0
  4 24  1  6  0  0  0
  4  3  1  0  0  0  0
  5  2  2  0  0  0  0
  5  4  1  0  0  0  0
  6  3  1  0  0  0  0
  7  6  1  0  0  0  0
  8 13  2  0  0  0  0
 10 17  2  0  0  0  0
 11 20  1  0  0  0  0
 11 15  1  0  0  0  0
 13 10  1  0  0  0  0
 13 16  1  0  0  0  0
 14 18  2  0  0  0  0
 15 12  1  6  0  0  0
 15 19  1  0  0  0  0
 16 14  1  0  0  0  0
 17 18  1  0  0  0  0
 18 11  1  0  0  0  0
 19 21  2  0  0  0  0
 20 22  1  0  0  0  0
 22  9  1  6  0  0  0
 22 21  1  0  0  0  0
 24 23  2  0  0  0  0
 25 26  1  0  0  0  0
 25 23  1  0  0  0  0
 26 27  2  0  0  0  0
 28 26  1  0  0  0  0
 28 33  1  0  0  0  0
 29 30  1  6  0  0  0
 29 36  1  0  0  0  0
 30 38  1  0  0  0  0
 32 33  1  0  0  0  0
 33 39  1  0  0  0  0
 35 34  1  0  0  0  0
 36 34  1  1  0  0  0
 36 39  1  0  0  0  0
 37 29  1  0  0  0  0
 37 32  1  0  0  0  0
 38 35  1  0  0  0  0
 39 31  1  6  0  0  0
 40 41  1  0  0  0  0
 42 41  1  6  0  0  0
 42 44  1  0  0  0  0
 44 43  1  0  0  0  0
 45 42  1  0  0  0  0
 46 45  1  0  0  0  0
 46 48  1  0  0  0  0
 47 46  1  0  0  0  0
 49 56  2  0  0  0  0
 50 49  1  0  0  0  0
 51 53  1  0  0  0  0
 52 50  1  0  0  0  0
 52 53  1  0  0  0  0
 53 55  1  0  0  0  0
 53 57  1  0  0  0  0
 54 49  1  0  0  0  0
 56 57  1  0  0  0  0
 57 46  1  6  0  0  0
M  END
>  <MODEL>
4

>  <REMARK>
 VINA RESULT:      -6.9      5.424     10.970
  Name = 
  12 active torsions:
  status: ('A' for Active; 'I' for Inactive)
    1  A    between atoms: N_1  and  C_9
    2  A    between atoms: C_2  and  C_3
    3  A    between atoms: C_2  and  C_22
    4  A    between atoms: N_18  and  C_52
    5  A    between atoms: N_20  and  N_21
    6  A    between atoms: C_22  and  C_28
    7  A    between atoms: C_23  and  N_29
    8  A    between atoms: C_23  and  C_56
    9  A    between atoms: C_26  and  C_52
   10  A    between atoms: C_27  and  C_39
   11  A    between atoms: C_28  and  N_29
   12  A    between atoms: C_28  and  C_40
                            x       y       z     vdW  Elec       q    Type
                         _______ _______ _______ _____ _____    ______ ____

>  <TORSDO>
F 12

$$$$
=
 OpenBabel10222417243D

 57 62  0  0  1  0  0  0  0  0999 V2000
  185.1330  174.3540  136.9590 C   0  0  1  0  0  3  0  0  0  0  0  0
  186.0980  173.2230  136.7750 C   0  0  0  0  0  3  0  0  0  0  0  0
  187.3370  175.9610  136.9310 C   0  0  2  0  0  3  0  0  0  0  0  0
  188.1570  174.6910  137.1950 C   0  0  1  0  0  3  0  0  0  0  0  0
  187.4340  173.3850  136.8750 C   0  0  0  0  0  3  0  0  0  0  0  0
  186.5450  176.0100  135.6140 C   0  0  0  0  0  2  0  0  0  0  0  0
  185.1660  175.3500  135.7860 C   0  0  0  0  0  2  0  0  0  0  0  0
  188.0100  177.2160  137.2670 N   0  0  0  0  0  0  0  0  0  0  0  0
  187.9520  177.4110  145.3150 C   0  0  0  0  0  1  0  0  0  0  0  0
  189.2410  176.1190  139.0450 C   0  0  0  0  0  3  0  0  0  0  0  0
  189.8420  177.6300  142.3070 N   0  0  0  0  0  0  0  0  0  0  0  0
  190.2430  175.3680  143.1690 C   0  0  0  0  0  1  0  0  0  0  0  0
  188.8580  177.3010  138.2440 C   0  0  0  0  0  0  0  0  0  0  0  0
  189.4990  178.6460  140.1920 N   0  0  0  0  0  0  0  0  0  0  0  0
  190.8180  176.7700  142.9670 C   0  0  2  0  0  3  0  0  0  0  0  0
  189.3420  178.6360  138.7260 C   0  0  0  0  0  2  0  0  0  0  0  0
  189.6850  176.2770  140.2550 N   0  0  0  0  0  0  0  0  0  0  0  0
  189.7490  177.5670  140.8760 C   0  0  0  0  0  0  0  0  0  0  0  0
  191.2060  177.3650  144.2880 C   0  0  0  0  0  3  0  0  0  0  0  0
  188.6630  178.1060  143.0340 C   0  0  0  0  0  2  0  0  0  0  0  0
  190.3220  178.0830  144.9940 C   0  0  0  0  0  3  0  0  0  0  0  0
  188.9030  178.3160  144.5390 C   0  0  2  0  0  3  0  0  0  0  0  0
  190.5130  174.1480  137.0720 N   0  0  0  0  0  0  0  0  0  0  0  0
  189.4930  174.7250  136.5140 C   0  0  0  0  0  3  0  0  0  0  0  0
  191.7470  174.0570  136.3990 N   0  0  0  0  0  2  0  0  0  0  0  0
  192.7590  175.0670  136.4980 C   0  0  0  0  0  0  0  0  0  0  0  0
  192.5530  176.1410  137.1300 O   0  0  0  0  0  0  0  0  0  0  0  0
  194.0610  174.8670  135.7720 C   0  0  0  0  0  2  0  0  0  0  0  0
  197.5180  173.8920  135.5130 C   0  0  2  0  0  3  0  0  0  0  0  0
  198.1060  172.8020  134.6190 C   0  0  0  0  0  2  0  0  0  0  0  0
  194.8890  173.7130  138.1980 O   0  0  0  0  0  1  0  0  0  0  0  0
  196.1850  175.9830  135.6070 C   0  0  0  0  0  2  0  0  0  0  0  0
  195.2030  175.3900  136.5410 N   0  0  0  0  0  0  0  0  0  0  0  0
  197.2790  172.2550  137.3710 C   0  0  0  0  0  2  0  0  0  0  0  0
  197.9300  171.1640  136.5290 C   0  0  0  0  0  2  0  0  0  0  0  0
  196.5150  173.2390  136.4730 C   0  0  1  0  0  3  0  0  0  0  0  0
  196.8240  174.9480  134.6770 C   0  0  0  0  0  2  0  0  0  0  0  0
  198.8590  171.7850  135.4800 C   0  0  0  0  0  2  0  0  0  0  0  0
  195.8300  174.3070  137.3420 C   0  0  2  0  0  3  0  0  0  0  0  0
  183.7390  173.8460  137.2100 C   0  0  0  0  0  2  0  0  0  0  0  0
  182.8700  174.2800  136.0360 C   0  0  0  0  0  2  0  0  0  0  0  0
  181.7390  175.1880  136.4950 C   0  0  2  0  0  3  0  0  0  0  0  0
  182.2230  177.3410  135.3080 C   0  0  0  0  0  1  0  0  0  0  0  0
  181.3440  176.0960  135.3420 C   0  0  0  0  0  2  0  0  0  0  0  0
  182.1850  175.9810  137.6490 N   0  0  0  0  0  2  0  0  0  0  0  0
  181.1180  176.2660  138.6240 C   0  0  0  0  0  0  0  0  0  0  0  0
  181.2990  175.5460  139.8280 O   0  0  0  0  0  1  0  0  0  0  0  0
  179.9070  175.8960  138.0390 O   0  0  0  0  0  1  0  0  0  0  0  0
  183.3600  178.4250  139.2080 C   0  0  0  0  0  0  0  0  0  0  0  0
  183.3160  177.7100  140.5270 C   0  0  0  0  0  2  0  0  0  0  0  0
  180.4000  179.7110  140.3560 C   0  0  0  0  0  1  0  0  0  0  0  0
  182.0410  178.1220  141.2930 C   0  0  0  0  0  2  0  0  0  0  0  0
  180.7780  178.2330  140.3900 C   0  0  0  0  0  0  0  0  0  0  0  0
  184.5330  179.2810  138.8700 C   0  0  0  0  0  1  0  0  0  0  0  0
  179.6090  177.4710  141.0100 C   0  0  0  0  0  1  0  0  0  0  0  0
  182.2830  178.5000  138.4920 N   0  0  0  0  0  0  0  0  0  0  0  0
  181.0750  177.8020  138.9180 C   0  0  1  0  0  3  0  0  0  0  0  0
  1 40  1  6  0  0  0
  2  5  2  0  0  0  0
  2  1  1  0  0  0  0
  3  4  1  0  0  0  0
  3  8  1  6  0  0  0
  4 24  1  6  0  0  0
  5  4  1  0  0  0  0
  6  7  1  0  0  0  0
  6  3  1  0  0  0  0
  7  1  1  0  0  0  0
  8 13  2  0  0  0  0
 10 17  2  0  0  0  0
 11 15  1  0  0  0  0
 11 20  1  0  0  0  0
 13 16  1  0  0  0  0
 13 10  1  0  0  0  0
 14 18  2  0  0  0  0
 15 12  1  1  0  0  0
 15 19  1  0  0  0  0
 16 14  1  0  0  0  0
 17 18  1  0  0  0  0
 18 11  1  0  0  0  0
 19 21  2  0  0  0  0
 20 22  1  0  0  0  0
 22 21  1  0  0  0  0
 22  9  1  1  0  0  0
 24 23  2  0  0  0  0
 25 26  1  0  0  0  0
 25 23  1  0  0  0  0
 26 27  2  0  0  0  0
 28 26  1  0  0  0  0
 28 33  1  0  0  0  0
 29 30  1  6  0  0  0
 29 36  1  0  0  0  0
 30 38  1  0  0  0  0
 32 33  1  0  0  0  0
 33 39  1  0  0  0  0
 35 34  1  0  0  0  0
 36 39  1  0  0  0  0
 36 34  1  1  0  0  0
 37 29  1  0  0  0  0
 37 32  1  0  0  0  0
 38 35  1  0  0  0  0
 39 31  1  6  0  0  0
 41 42  1  0  0  0  0
 41 40  1  0  0  0  0
 42 44  1  6  0  0  0
 42 45  1  0  0  0  0
 43 44  1  0  0  0  0
 45 46  1  0  0  0  0
 46 47  1  0  0  0  0
 48 46  1  0  0  0  0
 49 50  1  0  0  0  0
 50 52  1  0  0  0  0
 51 53  1  0  0  0  0
 53 55  1  0  0  0  0
 53 52  1  0  0  0  0
 54 49  1  0  0  0  0
 56 57  1  0  0  0  0
 56 49  2  0  0  0  0
 57 46  1  1  0  0  0
 57 53  1  0  0  0  0
M  END
>  <MODEL>
5

>  <REMARK>
 VINA RESULT:      -6.7      5.370     10.892
  Name = 
  12 active torsions:
  status: ('A' for Active; 'I' for Inactive)
    1  A    between atoms: N_1  and  C_9
    2  A    between atoms: C_2  and  C_3
    3  A    between atoms: C_2  and  C_22
    4  A    between atoms: N_18  and  C_52
    5  A    between atoms: N_20  and  N_21
    6  A    between atoms: C_22  and  C_28
    7  A    between atoms: C_23  and  N_29
    8  A    between atoms: C_23  and  C_56
    9  A    between atoms: C_26  and  C_52
   10  A    between atoms: C_27  and  C_39
   11  A    between atoms: C_28  and  N_29
   12  A    between atoms: C_28  and  C_40
                            x       y       z     vdW  Elec       q    Type
                         _______ _______ _______ _____ _____    ______ ____

>  <TORSDO>
F 12

$$$$
=
 OpenBabel10222417243D

 57 62  0  0  1  0  0  0  0  0999 V2000
  189.6460  177.8860  140.4930 C   0  0  1  0  0  3  0  0  0  0  0  0
  188.2980  178.4540  140.8130 C   0  0  0  0  0  3  0  0  0  0  0  0
  188.5200  177.0890  138.1400 C   0  0  2  0  0  3  0  0  0  0  0  0
  187.1620  177.3180  138.8140 C   0  0  1  0  0  3  0  0  0  0  0  0
  187.2070  178.2010  140.0590 C   0  0  0  0  0  3  0  0  0  0  0  0
  189.4280  178.3200  137.9800 C   0  0  0  0  0  2  0  0  0  0  0  0
  190.2750  178.5350  139.2470 C   0  0  0  0  0  2  0  0  0  0  0  0
  188.4920  176.2160  136.9660 N   0  0  0  0  0  0  0  0  0  0  0  0
  196.2530  174.9890  135.2140 C   0  0  0  0  0  1  0  0  0  0  0  0
  190.2930  174.8740  137.8800 C   0  0  0  0  0  3  0  0  0  0  0  0
  193.0540  173.5800  135.8820 N   0  0  0  0  0  0  0  0  0  0  0  0
  194.3210  173.3440  137.9700 C   0  0  0  0  0  1  0  0  0  0  0  0
  189.3130  175.2220  136.8290 C   0  0  0  0  0  0  0  0  0  0  0  0
  190.8310  174.1160  135.2520 N   0  0  0  0  0  0  0  0  0  0  0  0
  193.7530  172.6320  136.7420 C   0  0  2  0  0  3  0  0  0  0  0  0
  189.4330  174.5000  135.5210 C   0  0  0  0  0  2  0  0  0  0  0  0
  191.3750  174.2290  137.5640 N   0  0  0  0  0  0  0  0  0  0  0  0
  191.6930  173.9030  136.2040 C   0  0  0  0  0  0  0  0  0  0  0  0
  194.8560  171.9690  135.9730 C   0  0  0  0  0  3  0  0  0  0  0  0
  193.8050  174.5600  135.0950 C   0  0  0  0  0  2  0  0  0  0  0  0
  195.4990  172.6310  135.0020 C   0  0  0  0  0  3  0  0  0  0  0  0
  195.1870  174.0620  134.6390 C   0  0  2  0  0  3  0  0  0  0  0  0
  184.8760  177.8250  138.1970 N   0  0  0  0  0  0  0  0  0  0  0  0
  186.1290  177.8270  137.8540 C   0  0  0  0  0  3  0  0  0  0  0  0
  183.9000  178.4100  137.3660 N   0  0  0  0  0  2  0  0  0  0  0  0
  182.5560  177.9190  137.2870 C   0  0  0  0  0  0  0  0  0  0  0  0
  182.2050  176.8710  137.8980 O   0  0  0  0  0  0  0  0  0  0  0  0
  181.5720  178.6300  136.3990 C   0  0  0  0  0  2  0  0  0  0  0  0
  179.5570  181.5330  135.7060 C   0  0  2  0  0  3  0  0  0  0  0  0
  179.7670  182.5590  134.5940 C   0  0  0  0  0  2  0  0  0  0  0  0
  181.8130  180.4610  138.5180 O   0  0  0  0  0  1  0  0  0  0  0  0
  179.2260  179.1370  136.2620 C   0  0  0  0  0  2  0  0  0  0  0  0
  180.4050  179.1150  137.1550 N   0  0  0  0  0  0  0  0  0  0  0  0
  180.8920  182.9330  137.2690 C   0  0  0  0  0  2  0  0  0  0  0  0
  181.0580  184.0110  136.2040 C   0  0  0  0  0  2  0  0  0  0  0  0
  180.7920  181.5470  136.6160 C   0  0  1  0  0  3  0  0  0  0  0  0
  179.3590  180.1490  135.1210 C   0  0  0  0  0  2  0  0  0  0  0  0
  179.8960  183.9570  135.2070 C   0  0  0  0  0  2  0  0  0  0  0  0
  180.6690  180.4690  137.7060 C   0  0  2  0  0  3  0  0  0  0  0  0
  190.5680  177.9670  141.6800 C   0  0  0  0  0  2  0  0  0  0  0  0
  189.7310  178.3680  142.8890 C   0  0  0  0  0  2  0  0  0  0  0  0
  190.2270  177.6830  144.1530 C   0  0  2  0  0  3  0  0  0  0  0  0
  191.1180  175.3420  144.1040 C   0  0  0  0  0  1  0  0  0  0  0  0
  191.4150  176.8050  143.7980 C   0  0  0  0  0  2  0  0  0  0  0  0
  189.1420  176.8770  144.7310 N   0  0  0  0  0  2  0  0  0  0  0  0
  188.6610  177.3720  146.0340 C   0  0  0  0  0  0  0  0  0  0  0  0
  188.9480  178.7450  146.2130 O   0  0  0  0  0  1  0  0  0  0  0  0
  189.3030  176.6290  147.0250 O   0  0  0  0  0  1  0  0  0  0  0  0
  186.2210  177.9410  144.0970 C   0  0  0  0  0  0  0  0  0  0  0  0
  186.4970  179.3250  144.6060 C   0  0  0  0  0  2  0  0  0  0  0  0
  184.9370  177.5600  147.2500 C   0  0  0  0  0  1  0  0  0  0  0  0
  185.9950  179.4470  146.0600 C   0  0  0  0  0  2  0  0  0  0  0  0
  186.2900  178.1910  146.9310 C   0  0  0  0  0  0  0  0  0  0  0  0
  185.4010  177.7560  142.8650 C   0  0  0  0  0  1  0  0  0  0  0  0
  186.9340  178.5970  148.2540 C   0  0  0  0  0  1  0  0  0  0  0  0
  186.4740  176.9230  144.8570 N   0  0  0  0  0  0  0  0  0  0  0  0
  187.1210  177.1230  146.1500 C   0  0  1  0  0  3  0  0  0  0  0  0
  1  2  1  0  0  0  0
  1 40  1  1  0  0  0
  3  8  1  6  0  0  0
  3  4  1  0  0  0  0
  4 24  1  6  0  0  0
  4  5  1  0  0  0  0
  5  2  2  0  0  0  0
  6  3  1  0  0  0  0
  6  7  1  0  0  0  0
  7  1  1  0  0  0  0
 11 18  1  0  0  0  0
 11 15  1  0  0  0  0
 13  8  2  0  0  0  0
 13 10  1  0  0  0  0
 14 16  1  0  0  0  0
 14 18  2  0  0  0  0
 15 12  1  1  0  0  0
 16 13  1  0  0  0  0
 17 10  2  0  0  0  0
 18 17  1  0  0  0  0
 19 15  1  0  0  0  0
 20 11  1  0  0  0  0
 21 19  2  0  0  0  0
 22 21  1  0  0  0  0
 22 20  1  0  0  0  0
 22  9  1  1  0  0  0
 24 23  2  0  0  0  0
 25 23  1  0  0  0  0
 26 25  1  0  0  0  0
 26 27  2  0  0  0  0
 28 33  1  0  0  0  0
 28 26  1  0  0  0  0
 29 30  1  6  0  0  0
 29 36  1  0  0  0  0
 30 38  1  0  0  0  0
 32 33  1  0  0  0  0
 33 39  1  0  0  0  0
 35 34  1  0  0  0  0
 36 34  1  1  0  0  0
 36 39  1  0  0  0  0
 37 29  1  0  0  0  0
 37 32  1  0  0  0  0
 38 35  1  0  0  0  0
 39 31  1  6  0  0  0
 40 41  1  0  0  0  0
 42 41  1  6  0  0  0
 42 45  1  0  0  0  0
 44 43  1  0  0  0  0
 44 42  1  0  0  0  0
 45 46  1  0  0  0  0
 46 47  1  0  0  0  0
 46 48  1  0  0  0  0
 49 50  1  0  0  0  0
 49 56  2  0  0  0  0
 50 52  1  0  0  0  0
 52 53  1  0  0  0  0
 53 51  1  0  0  0  0
 53 55  1  0  0  0  0
 54 49  1  0  0  0  0
 56 57  1  0  0  0  0
 57 46  1  6  0  0  0
 57 53  1  0  0  0  0
M  END
>  <MODEL>
6

>  <REMARK>
 VINA RESULT:      -6.6      4.156     10.260
  Name = 
  12 active torsions:
  status: ('A' for Active; 'I' for Inactive)
    1  A    between atoms: N_1  and  C_9
    2  A    between atoms: C_2  and  C_3
    3  A    between atoms: C_2  and  C_22
    4  A    between atoms: N_18  and  C_52
    5  A    between atoms: N_20  and  N_21
    6  A    between atoms: C_22  and  C_28
    7  A    between atoms: C_23  and  N_29
    8  A    between atoms: C_23  and  C_56
    9  A    between atoms: C_26  and  C_52
   10  A    between atoms: C_27  and  C_39
   11  A    between atoms: C_28  and  N_29
   12  A    between atoms: C_28  and  C_40
                            x       y       z     vdW  Elec       q    Type
                         _______ _______ _______ _____ _____    ______ ____

>  <TORSDO>
F 12

$$$$
=
 OpenBabel10222417243D

 57 62  0  0  1  0  0  0  0  0999 V2000
  184.2960  179.4390  143.0930 C   0  0  1  0  0  3  0  0  0  0  0  0
  185.6810  179.3470  142.5300 C   0  0  0  0  0  3  0  0  0  0  0  0
  183.4630  178.6660  140.6130 C   0  0  2  0  0  3  0  0  0  0  0  0
  184.8600  179.0590  140.1180 C   0  0  1  0  0  3  0  0  0  0  0  0
  185.9180  179.1720  141.2130 C   0  0  0  0  0  3  0  0  0  0  0  0
  183.3910  177.5310  141.6490 C   0  0  0  0  0  2  0  0  0  0  0  0
  183.5630  178.0860  143.0730 C   0  0  0  0  0  2  0  0  0  0  0  0
  182.4340  178.5890  139.5760 N   0  0  0  0  0  0  0  0  0  0  0  0
  179.1620  185.9430  139.4700 C   0  0  0  0  0  1  0  0  0  0  0  0
  183.0760  180.7690  138.7310 C   0  0  0  0  0  3  0  0  0  0  0  0
  180.6800  183.2930  137.6450 N   0  0  0  0  0  0  0  0  0  0  0  0
  182.4480  184.9640  137.9650 C   0  0  0  0  0  1  0  0  0  0  0  0
  182.2350  179.5530  138.7320 C   0  0  0  0  0  0  0  0  0  0  0  0
  180.5010  180.9290  137.6770 N   0  0  0  0  0  0  0  0  0  0  0  0
  181.4690  184.3260  136.9810 C   0  0  2  0  0  3  0  0  0  0  0  0
  181.0260  179.5610  137.8470 C   0  0  0  0  0  2  0  0  0  0  0  0
  182.6050  181.8780  138.2450 N   0  0  0  0  0  0  0  0  0  0  0  0
  181.2570  181.9840  137.7700 C   0  0  0  0  0  0  0  0  0  0  0  0
  180.5570  185.3700  136.4090 C   0  0  0  0  0  3  0  0  0  0  0  0
  179.6380  183.6600  138.6050 C   0  0  0  0  0  2  0  0  0  0  0  0
  179.3970  185.6610  137.0130 C   0  0  0  0  0  3  0  0  0  0  0  0
  178.9480  184.9990  138.2930 C   0  0  2  0  0  3  0  0  0  0  0  0
  186.6200  178.0280  138.8150 N   0  0  0  0  0  0  0  0  0  0  0  0
  185.3450  178.1650  139.0170 C   0  0  0  0  0  3  0  0  0  0  0  0
  187.1060  177.1010  137.8710 N   0  0  0  0  0  2  0  0  0  0  0  0
  187.5720  177.4910  136.5730 C   0  0  0  0  0  0  0  0  0  0  0  0
  187.4840  178.6860  136.1770 O   0  0  0  0  0  0  0  0  0  0  0  0
  188.1060  176.4350  135.6440 C   0  0  0  0  0  2  0  0  0  0  0  0
  184.7190  175.2900  136.0750 C   0  0  2  0  0  3  0  0  0  0  0  0
  184.0010  175.0050  137.3920 C   0  0  0  0  0  2  0  0  0  0  0  0
  187.8660  173.8260  134.6250 O   0  0  0  0  0  1  0  0  0  0  0  0
  185.9510  176.9660  134.7210 C   0  0  0  0  0  2  0  0  0  0  0  0
  187.1350  176.0880  134.5940 N   0  0  0  0  0  0  0  0  0  0  0  0
  185.4200  172.9080  135.9260 C   0  0  0  0  0  2  0  0  0  0  0  0
  184.6510  172.5750  137.2000 C   0  0  0  0  0  2  0  0  0  0  0  0
  185.9310  174.3550  135.9730 C   0  0  1  0  0  3  0  0  0  0  0  0
  185.1730  176.7350  136.0190 C   0  0  0  0  0  2  0  0  0  0  0  0
  183.4940  173.5600  137.3960 C   0  0  0  0  0  2  0  0  0  0  0  0
  186.7400  174.6600  134.7010 C   0  0  2  0  0  3  0  0  0  0  0  0
  184.3080  180.0380  144.4740 C   0  0  0  0  0  2  0  0  0  0  0  0
  185.7290  179.9300  145.0130 C   0  0  0  0  0  2  0  0  0  0  0  0
  185.9980  178.5430  145.5790 C   0  0  2  0  0  3  0  0  0  0  0  0
  185.9470  179.2670  147.9770 C   0  0  0  0  0  1  0  0  0  0  0  0
  185.2770  178.4100  146.9090 C   0  0  0  0  0  2  0  0  0  0  0  0
  187.4460  178.3580  145.7540 N   0  0  0  0  0  2  0  0  0  0  0  0
  188.0610  177.4850  144.7390 C   0  0  0  0  0  0  0  0  0  0  0  0
  187.1230  177.0630  143.7690 O   0  0  0  0  0  1  0  0  0  0  0  0
  188.5770  176.3710  145.4030 O   0  0  0  0  0  1  0  0  0  0  0  0
  189.5520  177.1100  141.9700 C   0  0  0  0  0  0  0  0  0  0  0  0
  190.1360  175.9700  142.7520 C   0  0  0  0  0  2  0  0  0  0  0  0
  191.6310  178.9310  143.9940 C   0  0  0  0  0  1  0  0  0  0  0  0
  191.1530  176.5180  143.7750 C   0  0  0  0  0  2  0  0  0  0  0  0
  190.6910  177.8290  144.4760 C   0  0  0  0  0  0  0  0  0  0  0  0
  189.6640  177.1200  140.4820 C   0  0  0  0  0  1  0  0  0  0  0  0
  190.8550  177.7120  145.9900 C   0  0  0  0  0  1  0  0  0  0  0  0
  189.1870  178.1860  142.5920 N   0  0  0  0  0  0  0  0  0  0  0  0
  189.2450  178.2400  144.0490 C   0  0  1  0  0  3  0  0  0  0  0  0
  1 40  1  1  0  0  0
  2  1  1  0  0  0  0
  3  8  1  6  0  0  0
  3  6  1  0  0  0  0
  4 24  1  6  0  0  0
  4  3  1  0  0  0  0
  4  5  1  0  0  0  0
  5  2  2  0  0  0  0
  6  7  1  0  0  0  0
  7  1  1  0  0  0  0
 10 13  1  0  0  0  0
 11 18  1  0  0  0  0
 11 20  1  0  0  0  0
 13  8  2  0  0  0  0
 14 18  2  0  0  0  0
 14 16  1  0  0  0  0
 15 11  1  0  0  0  0
 15 12  1  1  0  0  0
 16 13  1  0  0  0  0
 17 10  2  0  0  0  0
 18 17  1  0  0  0  0
 19 15  1  0  0  0  0
 19 21  2  0  0  0  0
 21 22  1  0  0  0  0
 22 20  1  0  0  0  0
 22  9  1  1  0  0  0
 23 24  2  0  0  0  0
 25 23  1  0  0  0  0
 26 25  1  0  0  0  0
 27 26  2  0  0  0  0
 28 26  1  0  0  0  0
 29 37  1  1  0  0  0
 29 30  1  0  0  0  0
 30 38  1  0  0  0  0
 32 37  1  0  0  0  0
 33 39  1  0  0  0  0
 33 32  1  0  0  0  0
 33 28  1  0  0  0  0
 34 35  1  0  0  0  0
 35 38  1  0  0  0  0
 36 34  1  6  0  0  0
 36 29  1  0  0  0  0
 39 31  1  1  0  0  0
 39 36  1  0  0  0  0
 40 41  1  0  0  0  0
 42 41  1  1  0  0  0
 42 45  1  0  0  0  0
 42 44  1  0  0  0  0
 44 43  1  0  0  0  0
 46 48  1  0  0  0  0
 46 45  1  0  0  0  0
 47 46  1  0  0  0  0
 49 56  2  0  0  0  0
 49 50  1  0  0  0  0
 50 52  1  0  0  0  0
 51 53  1  0  0  0  0
 52 53  1  0  0  0  0
 53 55  1  0  0  0  0
 54 49  1  0  0  0  0
 56 57  1  0  0  0  0
 57 53  1  0  0  0  0
 57 46  1  1  0  0  0
M  END
>  <MODEL>
7

>  <REMARK>
 VINA RESULT:      -6.5      2.071      2.872
  Name = 
  12 active torsions:
  status: ('A' for Active; 'I' for Inactive)
    1  A    between atoms: N_1  and  C_9
    2  A    between atoms: C_2  and  C_3
    3  A    between atoms: C_2  and  C_22
    4  A    between atoms: N_18  and  C_52
    5  A    between atoms: N_20  and  N_21
    6  A    between atoms: C_22  and  C_28
    7  A    between atoms: C_23  and  N_29
    8  A    between atoms: C_23  and  C_56
    9  A    between atoms: C_26  and  C_52
   10  A    between atoms: C_27  and  C_39
   11  A    between atoms: C_28  and  N_29
   12  A    between atoms: C_28  and  C_40
                            x       y       z     vdW  Elec       q    Type
                         _______ _______ _______ _____ _____    ______ ____

>  <TORSDO>
F 12

$$$$
=
 OpenBabel10222417243D

 57 62  0  0  1  0  0  0  0  0999 V2000
  185.1640  174.0820  136.7710 C   0  0  1  0  0  3  0  0  0  0  0  0
  186.2300  173.0500  136.5690 C   0  0  0  0  0  3  0  0  0  0  0  0
  187.2040  175.8930  136.7350 C   0  0  2  0  0  3  0  0  0  0  0  0
  188.1440  174.7060  136.9810 C   0  0  1  0  0  3  0  0  0  0  0  0
  187.5460  173.3390  136.6580 C   0  0  0  0  0  3  0  0  0  0  0  0
  186.3970  175.8760  135.4260 C   0  0  0  0  0  2  0  0  0  0  0  0
  185.0900  175.0850  135.6060 C   0  0  0  0  0  2  0  0  0  0  0  0
  187.7560  177.2050  137.0750 N   0  0  0  0  0  0  0  0  0  0  0  0
  187.8990  177.2800  145.1230 C   0  0  0  0  0  1  0  0  0  0  0  0
  189.1390  176.2120  138.8020 C   0  0  0  0  0  3  0  0  0  0  0  0
  189.6740  177.7300  142.0720 N   0  0  0  0  0  0  0  0  0  0  0  0
  190.3230  175.5070  142.8850 C   0  0  0  0  0  1  0  0  0  0  0  0
  188.6180  177.3610  138.0310 C   0  0  0  0  0  0  0  0  0  0  0  0
  189.1740  178.7350  139.9840 N   0  0  0  0  0  0  0  0  0  0  0  0
  190.7490  176.9620  142.6930 C   0  0  2  0  0  3  0  0  0  0  0  0
  188.9790  178.7300  138.5220 C   0  0  0  0  0  2  0  0  0  0  0  0
  189.5980  176.3960  140.0030 N   0  0  0  0  0  0  0  0  0  0  0  0
  189.5490  177.6780  140.6430 C   0  0  0  0  0  0  0  0  0  0  0  0
  191.1120  177.5740  144.0130 C   0  0  0  0  0  3  0  0  0  0  0  0
  188.4740  178.0740  142.8370 C   0  0  0  0  0  2  0  0  0  0  0  0
  190.1800  178.1900  144.7530 C   0  0  0  0  0  3  0  0  0  0  0  0
  188.7330  178.2860  144.3380 C   0  0  2  0  0  3  0  0  0  0  0  0
  190.5040  174.2320  136.7260 N   0  0  0  0  0  0  0  0  0  0  0  0
  189.4630  174.8730  136.2880 C   0  0  0  0  0  3  0  0  0  0  0  0
  191.7240  174.2720  136.0220 N   0  0  0  0  0  2  0  0  0  0  0  0
  192.7330  175.2570  136.2780 C   0  0  0  0  0  0  0  0  0  0  0  0
  192.5350  176.2000  137.0940 O   0  0  0  0  0  0  0  0  0  0  0  0
  194.0200  175.2010  135.5010 C   0  0  0  0  0  2  0  0  0  0  0  0
  195.9810  173.8240  138.1900 C   0  0  2  0  0  3  0  0  0  0  0  0
  196.3960  174.5230  139.4830 C   0  0  0  0  0  2  0  0  0  0  0  0
  196.6370  174.7170  134.5950 O   0  0  0  0  0  1  0  0  0  0  0  0
  194.0930  173.1370  136.7330 C   0  0  0  0  0  2  0  0  0  0  0  0
  194.6410  173.8680  135.5690 N   0  0  0  0  0  0  0  0  0  0  0  0
  198.1070  174.5320  137.1100 C   0  0  0  0  0  2  0  0  0  0  0  0
  198.5820  175.1760  138.4080 C   0  0  0  0  0  2  0  0  0  0  0  0
  196.5760  174.6010  137.0080 C   0  0  1  0  0  3  0  0  0  0  0  0
  194.4710  173.7770  138.0710 C   0  0  0  0  0  2  0  0  0  0  0  0
  197.9210  174.4970  139.6120 C   0  0  0  0  0  2  0  0  0  0  0  0
  196.1180  173.9860  135.6750 C   0  0  2  0  0  3  0  0  0  0  0  0
  183.8270  173.4410  137.0310 C   0  0  0  0  0  2  0  0  0  0  0  0
  182.7540  174.3620  136.4630 C   0  0  0  0  0  2  0  0  0  0  0  0
  181.4920  174.3260  137.3120 C   0  0  2  0  0  3  0  0  0  0  0  0
  179.1380  174.1880  136.4670 C   0  0  0  0  0  1  0  0  0  0  0  0
  180.4620  173.4490  136.6200 C   0  0  0  0  0  2  0  0  0  0  0  0
  180.9780  175.6920  137.4840 N   0  0  0  0  0  2  0  0  0  0  0  0
  181.2010  176.2470  138.8310 C   0  0  0  0  0  0  0  0  0  0  0  0
  180.9730  175.2850  139.8410 O   0  0  0  0  0  1  0  0  0  0  0  0
  180.3150  177.3130  138.9950 O   0  0  0  0  0  1  0  0  0  0  0  0
  182.6400  178.2090  140.8580 C   0  0  0  0  0  0  0  0  0  0  0  0
  181.8410  179.1880  140.0500 C   0  0  0  0  0  2  0  0  0  0  0  0
  184.5360  178.1400  138.0060 C   0  0  0  0  0  1  0  0  0  0  0  0
  182.4950  179.3640  138.6640 C   0  0  0  0  0  2  0  0  0  0  0  0
  183.0140  178.0340  138.0430 C   0  0  0  0  0  0  0  0  0  0  0  0
  183.1910  178.6190  142.1820 C   0  0  0  0  0  1  0  0  0  0  0  0
  182.5260  177.8910  136.6030 C   0  0  0  0  0  1  0  0  0  0  0  0
  183.0590  177.1170  140.3000 N   0  0  0  0  0  0  0  0  0  0  0  0
  182.6610  176.8000  138.9330 C   0  0  1  0  0  3  0  0  0  0  0  0
  1 40  1  6  0  0  0
  2  5  2  0  0  0  0
  2  1  1  0  0  0  0
  3  4  1  0  0  0  0
  3  8  1  6  0  0  0
  4 24  1  6  0  0  0
  5  4  1  0  0  0  0
  6  7  1  0  0  0  0
  6  3  1  0  0  0  0
  7  1  1  0  0  0  0
  8 13  2  0  0  0  0
 10 17  2  0  0  0  0
 11 15  1  0  0  0  0
 11 20  1  0  0  0  0
 13 16  1  0  0  0  0
 13 10  1  0  0  0  0
 14 18  2  0  0  0  0
 15 12  1  1  0  0  0
 15 19  1  0  0  0  0
 16 14  1  0  0  0  0
 17 18  1  0  0  0  0
 18 11  1  0  0  0  0
 19 21  2  0  0  0  0
 20 22  1  0  0  0  0
 22 21  1  0  0  0  0
 22  9  1  1  0  0  0
 24 23  2  0  0  0  0
 25 26  1  0  0  0  0
 25 23  1  0  0  0  0
 26 27  2  0  0  0  0
 28 33  1  0  0  0  0
 28 26  1  0  0  0  0
 29 37  1  6  0  0  0
 29 30  1  0  0  0  0
 30 38  1  0  0  0  0
 32 37  1  0  0  0  0
 33 39  1  0  0  0  0
 33 32  1  0  0  0  0
 34 35  1  0  0  0  0
 35 38  1  0  0  0  0
 36 34  1  1  0  0  0
 36 29  1  0  0  0  0
 39 31  1  6  0  0  0
 39 36  1  0  0  0  0
 41 40  1  0  0  0  0
 42 41  1  6  0  0  0
 42 45  1  0  0  0  0
 43 44  1  0  0  0  0
 44 42  1  0  0  0  0
 45 46  1  0  0  0  0
 46 48  1  0  0  0  0
 46 47  1  0  0  0  0
 49 54  1  0  0  0  0
 50 49  1  0  0  0  0
 51 53  1  0  0  0  0
 52 50  1  0  0  0  0
 53 52  1  0  0  0  0
 53 57  1  0  0  0  0
 55 53  1  0  0  0  0
 56 49  2  0  0  0  0
 57 46  1  1  0  0  0
 57 56  1  0  0  0  0
M  END
>  <MODEL>
8

>  <REMARK>
 VINA RESULT:      -6.5      4.977     10.769
  Name = 
  12 active torsions:
  status: ('A' for Active; 'I' for Inactive)
    1  A    between atoms: N_1  and  C_9
    2  A    between atoms: C_2  and  C_3
    3  A    between atoms: C_2  and  C_22
    4  A    between atoms: N_18  and  C_52
    5  A    between atoms: N_20  and  N_21
    6  A    between atoms: C_22  and  C_28
    7  A    between atoms: C_23  and  N_29
    8  A    between atoms: C_23  and  C_56
    9  A    between atoms: C_26  and  C_52
   10  A    between atoms: C_27  and  C_39
   11  A    between atoms: C_28  and  N_29
   12  A    between atoms: C_28  and  C_40
                            x       y       z     vdW  Elec       q    Type
                         _______ _______ _______ _____ _____    ______ ____

>  <TORSDO>
F 12

$$$$
=
 OpenBabel10222417243D

 57 62  0  0  1  0  0  0  0  0999 V2000
  188.8440  178.1480  136.7640 C   0  0  1  0  0  3  0  0  0  0  0  0
  189.8030  177.1250  137.2920 C   0  0  0  0  0  3  0  0  0  0  0  0
  187.9450  178.3240  139.3340 C   0  0  2  0  0  3  0  0  0  0  0  0
  188.6540  176.9870  139.5800 C   0  0  1  0  0  3  0  0  0  0  0  0
  189.7130  176.6240  138.5420 C   0  0  0  0  0  3  0  0  0  0  0  0
  188.8330  179.5130  138.9290 C   0  0  0  0  0  2  0  0  0  0  0  0
  189.0510  179.5320  137.4050 C   0  0  0  0  0  2  0  0  0  0  0  0
  186.9050  178.6650  140.3040 N   0  0  0  0  0  0  0  0  0  0  0  0
  180.8340  181.4590  135.8160 C   0  0  0  0  0  1  0  0  0  0  0  0
  185.2050  177.6930  138.8730 C   0  0  0  0  0  3  0  0  0  0  0  0
  181.9280  179.1940  138.3330 N   0  0  0  0  0  0  0  0  0  0  0  0
  181.7670  177.8620  136.2790 C   0  0  0  0  0  1  0  0  0  0  0  0
  185.6530  178.4030  140.0900 C   0  0  0  0  0  0  0  0  0  0  0  0
  183.3920  179.3470  140.1930 N   0  0  0  0  0  0  0  0  0  0  0  0
  181.1410  178.1840  137.6360 C   0  0  2  0  0  3  0  0  0  0  0  0
  184.5870  178.9770  140.9740 C   0  0  0  0  0  2  0  0  0  0  0  0
  183.9900  177.8500  138.4450 N   0  0  0  0  0  0  0  0  0  0  0  0
  183.0760  178.7580  139.0760 C   0  0  0  0  0  0  0  0  0  0  0  0
  179.7350  178.6730  137.4520 C   0  0  0  0  0  3  0  0  0  0  0  0
  181.9150  180.5870  137.8800 C   0  0  0  0  0  2  0  0  0  0  0  0
  179.4890  179.9810  137.2910 C   0  0  0  0  0  3  0  0  0  0  0  0
  180.5790  181.0230  137.2540 C   0  0  2  0  0  3  0  0  0  0  0  0
  190.4570  176.5050  141.1220 N   0  0  0  0  0  0  0  0  0  0  0  0
  189.2290  176.8940  140.9620 C   0  0  0  0  0  3  0  0  0  0  0  0
  191.0610  176.5280  142.3950 N   0  0  0  0  0  2  0  0  0  0  0  0
  191.0540  177.6910  143.2340 C   0  0  0  0  0  0  0  0  0  0  0  0
  190.5800  178.7880  142.8280 O   0  0  0  0  0  0  0  0  0  0  0  0
  191.6930  177.6110  144.5930 C   0  0  0  0  0  2  0  0  0  0  0  0
  188.5130  176.9590  146.1520 C   0  0  2  0  0  3  0  0  0  0  0  0
  187.3200  177.9080  146.2490 C   0  0  0  0  0  2  0  0  0  0  0  0
  192.0530  177.3320  147.3670 O   0  0  0  0  0  1  0  0  0  0  0  0
  190.1090  175.8040  144.6430 C   0  0  0  0  0  2  0  0  0  0  0  0
  191.2810  176.4000  145.3210 N   0  0  0  0  0  0  0  0  0  0  0  0
  189.3400  177.7540  148.3590 C   0  0  0  0  0  2  0  0  0  0  0  0
  188.1230  178.6570  148.5200 C   0  0  0  0  0  2  0  0  0  0  0  0
  189.7030  177.6050  146.8740 C   0  0  1  0  0  3  0  0  0  0  0  0
  188.8670  176.6970  144.7020 C   0  0  0  0  0  2  0  0  0  0  0  0
  186.9400  178.1030  147.7190 C   0  0  0  0  0  2  0  0  0  0  0  0
  190.9580  176.7260  146.7340 C   0  0  2  0  0  3  0  0  0  0  0  0
  188.9000  178.2240  135.2620 C   0  0  0  0  0  2  0  0  0  0  0  0
  188.7750  176.8050  134.7220 C   0  0  0  0  0  2  0  0  0  0  0  0
  187.3160  176.3920  134.5950 C   0  0  2  0  0  3  0  0  0  0  0  0
  185.3320  177.5220  135.6260 C   0  0  0  0  0  1  0  0  0  0  0  0
  186.4530  177.6420  134.6000 C   0  0  0  0  0  2  0  0  0  0  0  0
  186.9570  175.5100  135.7150 N   0  0  0  0  0  2  0  0  0  0  0  0
  187.3990  174.1150  135.5400 C   0  0  0  0  0  0  0  0  0  0  0  0
  187.8750  173.5580  136.7490 O   0  0  0  0  0  1  0  0  0  0  0  0
  188.4250  174.1170  134.5940 O   0  0  0  0  0  1  0  0  0  0  0  0
  184.3240  173.9300  136.2730 C   0  0  0  0  0  0  0  0  0  0  0  0
  184.9260  173.1770  137.4230 C   0  0  0  0  0  2  0  0  0  0  0  0
  185.1340  171.0560  134.5950 C   0  0  0  0  0  1  0  0  0  0  0  0
  185.3900  171.7870  136.9400 C   0  0  0  0  0  2  0  0  0  0  0  0
  186.0690  171.8060  135.5390 C   0  0  0  0  0  0  0  0  0  0  0  0
  182.9250  174.4380  136.3740 C   0  0  0  0  0  1  0  0  0  0  0  0
  187.3930  171.0460  135.5780 C   0  0  0  0  0  1  0  0  0  0  0  0
  184.9190  173.9140  135.1230 N   0  0  0  0  0  0  0  0  0  0  0  0
  186.2150  173.2580  134.9820 C   0  0  1  0  0  3  0  0  0  0  0  0
  1 40  1  6  0  0  0
  1  2  1  0  0  0  0
  1  7  1  0  0  0  0
  2  5  2  0  0  0  0
  3  4  1  0  0  0  0
  3  8  1  1  0  0  0
  4 24  1  1  0  0  0
  5  4  1  0  0  0  0
  6  3  1  0  0  0  0
  7  6  1  0  0  0  0
 10 13  1  0  0  0  0
 11 18  1  0  0  0  0
 13  8  2  0  0  0  0
 13 16  1  0  0  0  0
 14 16  1  0  0  0  0
 15 12  1  6  0  0  0
 15 11  1  0  0  0  0
 17 10  2  0  0  0  0
 17 18  1  0  0  0  0
 18 14  2  0  0  0  0
 19 15  1  0  0  0  0
 20 11  1  0  0  0  0
 21 19  2  0  0  0  0
 22  9  1  6  0  0  0
 22 21  1  0  0  0  0
 22 20  1  0  0  0  0
 23 25  1  0  0  0  0
 24 23  2  0  0  0  0
 25 26  1  0  0  0  0
 26 28  1  0  0  0  0
 27 26  2  0  0  0  0
 28 33  1  0  0  0  0
 29 37  1  6  0  0  0
 29 30  1  0  0  0  0
 29 36  1  0  0  0  0
 30 38  1  0  0  0  0
 32 37  1  0  0  0  0
 32 33  1  0  0  0  0
 33 39  1  0  0  0  0
 34 35  1  0  0  0  0
 36 34  1  1  0  0  0
 38 35  1  0  0  0  0
 39 36  1  0  0  0  0
 39 31  1  6  0  0  0
 41 40  1  0  0  0  0
 42 44  1  1  0  0  0
 42 41  1  0  0  0  0
 42 45  1  0  0  0  0
 44 43  1  0  0  0  0
 46 45  1  0  0  0  0
 46 47  1  0  0  0  0
 48 46  1  0  0  0  0
 49 54  1  0  0  0  0
 49 50  1  0  0  0  0
 51 53  1  0  0  0  0
 52 50  1  0  0  0  0
 53 55  1  0  0  0  0
 53 52  1  0  0  0  0
 56 49  2  0  0  0  0
 57 56  1  0  0  0  0
 57 53  1  0  0  0  0
 57 46  1  1  0  0  0
M  END
>  <MODEL>
9

>  <REMARK>
 VINA RESULT:      -6.3      2.828      9.962
  Name = 
  12 active torsions:
  status: ('A' for Active; 'I' for Inactive)
    1  A    between atoms: N_1  and  C_9
    2  A    between atoms: C_2  and  C_3
    3  A    between atoms: C_2  and  C_22
    4  A    between atoms: N_18  and  C_52
    5  A    between atoms: N_20  and  N_21
    6  A    between atoms: C_22  and  C_28
    7  A    between atoms: C_23  and  N_29
    8  A    between atoms: C_23  and  C_56
    9  A    between atoms: C_26  and  C_52
   10  A    between atoms: C_27  and  C_39
   11  A    between atoms: C_28  and  N_29
   12  A    between atoms: C_28  and  C_40
                            x       y       z     vdW  Elec       q    Type
                         _______ _______ _______ _____ _____    ______ ____

>  <TORSDO>
F 12

$$$$
