=
 OpenBabel10222416033D

 32 35  0  0  1  0  0  0  0  0999 V2000
  189.2620  177.2130  141.8860 C   0  0  0  0  0  0  0  0  0  0  0  0
  188.9640  177.4330  144.7240 C   0  0  0  0  0  0  0  0  0  0  0  0
  190.0010  177.1840  146.8620 N   0  0  0  0  0  0  0  0  0  0  0  0
  190.1970  176.7990  142.6910 N   0  0  0  0  0  0  0  0  0  0  0  0
  190.1220  176.9270  144.1140 C   0  0  0  0  0  0  0  0  0  0  0  0
  192.2380  176.3230  147.1040 N   0  0  0  0  0  1  0  0  0  0  0  0
  191.2130  176.5570  144.9010 C   0  0  0  0  0  3  0  0  0  0  0  0
  191.1340  176.6960  146.2890 C   0  0  0  0  0  0  0  0  0  0  0  0
  187.1140  178.4750  141.6880 C   0  0  0  0  0  3  0  0  0  0  0  0
  187.7540  177.7860  143.9130 C   0  0  0  0  0  2  0  0  0  0  0  0
  189.4220  177.0350  140.4730 N   0  0  0  0  0  2  0  0  0  0  0  0
  188.9230  177.5480  146.1150 C   0  0  0  0  0  3  0  0  0  0  0  0
  188.0320  177.8550  142.4370 C   0  0  0  0  0  0  0  0  0  0  0  0
  190.2950  176.0100  138.4450 C   0  0  0  0  0  2  0  0  0  0  0  0
  191.5710  175.5140  137.7690 C   0  0  0  0  0  2  0  0  0  0  0  0
  192.5670  176.5870  137.7390 N   0  0  0  0  0  0  0  0  0  0  0  0
  191.7480  177.4780  139.8650 C   0  0  0  0  0  2  0  0  0  0  0  0
  192.9480  176.9040  139.1130 C   0  0  0  0  0  2  0  0  0  0  0  0
  190.6130  176.4550  139.8710 C   0  0  1  0  0  3  0  0  0  0  0  0
  193.7530  176.0550  137.0860 C   0  0  0  0  0  2  0  0  0  0  0  0
  194.5410  175.2860  138.0370 N   0  0  0  0  0  2  0  0  0  0  0  0
  195.6740  174.8220  137.3540 N   0  0  0  0  0  2  0  0  0  0  0  0
  197.9090  174.8350  138.1870 C   0  0  0  0  0  0  0  0  0  0  0  0
  197.3900  175.4000  140.3400 O   0  0  0  0  0  0  0  0  0  0  0  0
  198.2950  175.5380  139.3370 N   0  0  0  0  0  2  0  0  0  0  0  0
  196.2300  174.8560  139.7240 C   0  0  0  0  0  2  0  0  0  0  0  0
  196.5780  174.2730  138.3520 C   0  0  1  0  0  3  0  0  0  0  0  0
  198.6320  174.7230  137.1640 O   0  0  0  0  0  0  0  0  0  0  0  0
  187.2280  178.6250  140.2740 N   0  0  0  0  0  2  0  0  0  0  0  0
  186.0860  178.6420  139.4620 N   0  0  0  0  0  2  0  0  0  0  0  0
  185.1140  179.3950  140.1330 N   0  0  0  0  0  2  0  0  0  0  0  0
  184.4150  180.1120  139.1550 N   0  0  0  0  0  1  0  0  0  0  0  0
  1 13  1  0  0  0  0
  1  4  2  0  0  0  0
  2 12  1  0  0  0  0
  4  5  1  0  0  0  0
  5  2  2  0  0  0  0
  5  7  1  0  0  0  0
  7  8  2  0  0  0  0
  8  3  1  0  0  0  0
  8  6  1  0  0  0  0
  9 13  2  0  0  0  0
 10  2  1  0  0  0  0
 11  1  1  0  0  0  0
 12  3  2  0  0  0  0
 13 10  1  0  0  0  0
 14 19  1  0  0  0  0
 15 14  1  0  0  0  0
 16 15  1  0  0  0  0
 16 18  1  0  0  0  0
 17 19  1  0  0  0  0
 18 17  1  0  0  0  0
 19 11  1  6  0  0  0
 20 16  1  0  0  0  0
 20 21  1  0  0  0  0
 22 21  1  0  0  0  0
 23 27  1  0  0  0  0
 23 25  1  0  0  0  0
 25 24  1  0  0  0  0
 26 24  1  0  0  0  0
 27 22  1  6  0  0  0
 27 26  1  0  0  0  0
 28 23  2  0  0  0  0
 29  9  1  0  0  0  0
 30 31  1  0  0  0  0
 30 29  1  0  0  0  0
 32 31  1  0  0  0  0
M  END
>  <MODEL>
1

>  <REMARK>
 VINA RESULT:      -9.2      0.000      0.000
  Name = 
  8 active torsions:
  status: ('A' for Active; 'I' for Inactive)
    1  A    between atoms: N_2  and  N_12
    2  A    between atoms: N_2  and  C_17
    3  A    between atoms: N_4  and  N_29
    4  A    between atoms: N_4  and  N_31
    5  A    between atoms: N_8  and  C_17
    6  A    between atoms: N_12  and  C_28
    7  A    between atoms: C_21  and  N_31
    8  A    between atoms: N_24  and  C_27
                            x       y       z     vdW  Elec       q    Type
                         _______ _______ _______ _____ _____    ______ ____

>  <TORSDO>
F 8

$$$$
=
 OpenBabel10222416033D

 32 35  0  0  1  0  0  0  0  0999 V2000
  188.7200  177.7100  145.0550 C   0  0  0  0  0  0  0  0  0  0  0  0
  186.2060  178.2120  146.3270 C   0  0  0  0  0  0  0  0  0  0  0  0
  183.8940  178.7360  146.0330 N   0  0  0  0  0  0  0  0  0  0  0  0
  187.6890  178.1020  144.3660 N   0  0  0  0  0  0  0  0  0  0  0  0
  186.3970  178.3240  144.9410 C   0  0  0  0  0  0  0  0  0  0  0  0
  182.9480  179.1650  143.8600 N   0  0  0  0  0  1  0  0  0  0  0  0
  185.3170  178.6400  144.1170 C   0  0  0  0  0  3  0  0  0  0  0  0
  184.0580  178.8430  144.6870 C   0  0  0  0  0  0  0  0  0  0  0  0
  189.5360  176.8900  147.2700 C   0  0  0  0  0  3  0  0  0  0  0  0
  187.3560  177.9310  147.2460 C   0  0  0  0  0  2  0  0  0  0  0  0
  189.9780  177.5210  144.3930 N   0  0  0  0  0  2  0  0  0  0  0  0
  184.9340  178.4320  146.8570 C   0  0  0  0  0  3  0  0  0  0  0  0
  188.5910  177.4700  146.5220 C   0  0  0  0  0  0  0  0  0  0  0  0
  191.6090  177.3910  142.5910 C   0  0  0  0  0  2  0  0  0  0  0  0
  191.7740  177.4560  141.0740 C   0  0  0  0  0  2  0  0  0  0  0  0
  190.8880  176.4810  140.4360 N   0  0  0  0  0  0  0  0  0  0  0  0
  189.2130  176.7740  142.1930 C   0  0  0  0  0  2  0  0  0  0  0  0
  189.5050  176.8720  140.6970 C   0  0  0  0  0  2  0  0  0  0  0  0
  190.1600  177.6980  142.9590 C   0  0  1  0  0  3  0  0  0  0  0  0
  191.0920  176.5910  138.9990 C   0  0  0  0  0  2  0  0  0  0  0  0
  189.9440  177.2380  138.3830 N   0  0  0  0  0  2  0  0  0  0  0  0
  189.8210  176.7150  137.0890 N   0  0  0  0  0  2  0  0  0  0  0  0
  187.7910  177.3760  136.0250 C   0  0  0  0  0  0  0  0  0  0  0  0
  187.6050  179.4130  137.0430 O   0  0  0  0  0  0  0  0  0  0  0  0
  186.9270  178.3430  136.5560 N   0  0  0  0  0  2  0  0  0  0  0  0
  188.9610  178.9920  137.1210 C   0  0  0  0  0  2  0  0  0  0  0  0
  189.1780  177.7340  136.2760 C   0  0  1  0  0  3  0  0  0  0  0  0
  187.3960  176.3450  135.4200 O   0  0  0  0  0  0  0  0  0  0  0  0
  190.7640  176.3980  146.7370 N   0  0  0  0  0  2  0  0  0  0  0  0
  191.9920  176.9000  147.1920 N   0  0  0  0  0  2  0  0  0  0  0  0
  192.5490  175.9280  148.0330 N   0  0  0  0  0  2  0  0  0  0  0  0
  193.2620  176.6140  149.0230 N   0  0  0  0  0  1  0  0  0  0  0  0
  1 13  1  0  0  0  0
  2 12  1  0  0  0  0
  2 10  1  0  0  0  0
  3 12  2  0  0  0  0
  4  5  1  0  0  0  0
  4  1  2  0  0  0  0
  5  2  2  0  0  0  0
  6  8  1  0  0  0  0
  7  8  2  0  0  0  0
  7  5  1  0  0  0  0
  8  3  1  0  0  0  0
 11  1  1  0  0  0  0
 13 10  1  0  0  0  0
 13  9  2  0  0  0  0
 14 19  1  0  0  0  0
 15 14  1  0  0  0  0
 16 18  1  0  0  0  0
 16 15  1  0  0  0  0
 17 19  1  0  0  0  0
 18 17  1  0  0  0  0
 19 11  1  1  0  0  0
 20 16  1  0  0  0  0
 21 20  1  0  0  0  0
 22 21  1  0  0  0  0
 23 27  1  0  0  0  0
 23 25  1  0  0  0  0
 24 26  1  0  0  0  0
 25 24  1  0  0  0  0
 27 22  1  1  0  0  0
 27 26  1  0  0  0  0
 28 23  2  0  0  0  0
 29 30  1  0  0  0  0
 29  9  1  0  0  0  0
 30 31  1  0  0  0  0
 31 32  1  0  0  0  0
M  END
>  <MODEL>
2

>  <REMARK>
 VINA RESULT:      -8.9      4.325      7.256
  Name = 
  8 active torsions:
  status: ('A' for Active; 'I' for Inactive)
    1  A    between atoms: N_2  and  N_12
    2  A    between atoms: N_2  and  C_17
    3  A    between atoms: N_4  and  N_29
    4  A    between atoms: N_4  and  N_31
    5  A    between atoms: N_8  and  C_17
    6  A    between atoms: N_12  and  C_28
    7  A    between atoms: C_21  and  N_31
    8  A    between atoms: N_24  and  C_27
                            x       y       z     vdW  Elec       q    Type
                         _______ _______ _______ _____ _____    ______ ____

>  <TORSDO>
F 8

$$$$
=
 OpenBabel10222416033D

 32 35  0  0  1  0  0  0  0  0999 V2000
  188.5920  177.7450  144.6850 C   0  0  0  0  0  0  0  0  0  0  0  0
  186.1380  178.1990  146.0870 C   0  0  0  0  0  0  0  0  0  0  0  0
  183.8170  178.7400  145.9180 N   0  0  0  0  0  0  0  0  0  0  0  0
  187.5320  178.1690  144.0590 N   0  0  0  0  0  0  0  0  0  0  0  0
  186.2680  178.3680  144.7000 C   0  0  0  0  0  0  0  0  0  0  0  0
  182.7780  179.2620  143.8090 N   0  0  0  0  0  1  0  0  0  0  0  0
  185.1540  178.7220  143.9380 C   0  0  0  0  0  3  0  0  0  0  0  0
  183.9220  178.9030  144.5720 C   0  0  0  0  0  0  0  0  0  0  0  0
  189.5000  176.8310  146.8260 C   0  0  0  0  0  3  0  0  0  0  0  0
  187.3260  177.8770  146.9410 C   0  0  0  0  0  2  0  0  0  0  0  0
  189.8170  177.5820  143.9600 N   0  0  0  0  0  2  0  0  0  0  0  0
  184.8910  178.3990  146.6820 C   0  0  0  0  0  3  0  0  0  0  0  0
  188.5260  177.4440  146.1450 C   0  0  0  0  0  0  0  0  0  0  0  0
  191.3110  177.3560  142.0520 C   0  0  0  0  0  2  0  0  0  0  0  0
  191.3950  177.4880  140.5330 C   0  0  0  0  0  2  0  0  0  0  0  0
  190.3560  176.6700  139.9050 N   0  0  0  0  0  0  0  0  0  0  0  0
  188.8370  177.0660  141.7800 C   0  0  0  0  0  2  0  0  0  0  0  0
  189.0510  177.2140  140.2750 C   0  0  0  0  0  2  0  0  0  0  0  0
  189.9370  177.8180  142.5290 C   0  0  1  0  0  3  0  0  0  0  0  0
  190.4880  176.8380  138.4650 C   0  0  0  0  0  2  0  0  0  0  0  0
  190.2300  175.5740  137.7920 N   0  0  0  0  0  2  0  0  0  0  0  0
  191.2670  174.7000  138.1450 N   0  0  0  0  0  2  0  0  0  0  0  0
  193.5910  174.9890  137.6940 C   0  0  0  0  0  0  0  0  0  0  0  0
  193.8690  173.0760  136.4760 O   0  0  0  0  0  0  0  0  0  0  0  0
  194.4450  173.9300  137.3610 N   0  0  0  0  0  2  0  0  0  0  0  0
  192.4870  173.4130  136.4780 C   0  0  0  0  0  2  0  0  0  0  0  0
  192.2770  174.7940  137.1040 C   0  0  1  0  0  3  0  0  0  0  0  0
  193.9370  175.9640  138.4110 O   0  0  0  0  0  0  0  0  0  0  0  0
  190.7020  176.3590  146.2190 N   0  0  0  0  0  2  0  0  0  0  0  0
  191.9410  176.9220  146.5540 N   0  0  0  0  0  2  0  0  0  0  0  0
  192.0390  176.9000  147.9510 N   0  0  0  0  0  2  0  0  0  0  0  0
  192.9210  175.8620  148.2760 N   0  0  0  0  0  1  0  0  0  0  0  0
  1 13  1  0  0  0  0
  2 12  1  0  0  0  0
  2 10  1  0  0  0  0
  3 12  2  0  0  0  0
  4  1  2  0  0  0  0
  4  5  1  0  0  0  0
  5  2  2  0  0  0  0
  6  8  1  0  0  0  0
  7  8  2  0  0  0  0
  7  5  1  0  0  0  0
  8  3  1  0  0  0  0
 11  1  1  0  0  0  0
 13  9  2  0  0  0  0
 13 10  1  0  0  0  0
 14 19  1  0  0  0  0
 15 14  1  0  0  0  0
 16 18  1  0  0  0  0
 16 15  1  0  0  0  0
 17 19  1  0  0  0  0
 18 17  1  0  0  0  0
 19 11  1  1  0  0  0
 20 16  1  0  0  0  0
 21 22  1  0  0  0  0
 21 20  1  0  0  0  0
 23 28  2  0  0  0  0
 24 26  1  0  0  0  0
 24 25  1  0  0  0  0
 25 23  1  0  0  0  0
 26 27  1  0  0  0  0
 27 23  1  0  0  0  0
 27 22  1  1  0  0  0
 29 30  1  0  0  0  0
 29  9  1  0  0  0  0
 30 31  1  0  0  0  0
 31 32  1  0  0  0  0
M  END
>  <MODEL>
3

>  <REMARK>
 VINA RESULT:      -8.7      2.688      5.835
  Name = 
  8 active torsions:
  status: ('A' for Active; 'I' for Inactive)
    1  A    between atoms: N_2  and  N_12
    2  A    between atoms: N_2  and  C_17
    3  A    between atoms: N_4  and  N_29
    4  A    between atoms: N_4  and  N_31
    5  A    between atoms: N_8  and  C_17
    6  A    between atoms: N_12  and  C_28
    7  A    between atoms: C_21  and  N_31
    8  A    between atoms: N_24  and  C_27
                            x       y       z     vdW  Elec       q    Type
                         _______ _______ _______ _____ _____    ______ ____

>  <TORSDO>
F 8

$$$$
=
 OpenBabel10222416033D

 32 35  0  0  1  0  0  0  0  0999 V2000
  188.0530  177.5820  143.8520 C   0  0  0  0  0  0  0  0  0  0  0  0
  185.8850  178.3950  145.5340 C   0  0  0  0  0  0  0  0  0  0  0  0
  183.5570  178.9130  145.6740 N   0  0  0  0  0  0  0  0  0  0  0  0
  186.8840  177.8590  143.3500 N   0  0  0  0  0  0  0  0  0  0  0  0
  185.7530  178.2250  144.1470 C   0  0  0  0  0  0  0  0  0  0  0  0
  182.1330  178.9310  143.7300 N   0  0  0  0  0  1  0  0  0  0  0  0
  184.5080  178.4020  143.5430 C   0  0  0  0  0  3  0  0  0  0  0  0
  183.4090  178.7480  144.3320 C   0  0  0  0  0  0  0  0  0  0  0  0
  189.3650  177.1940  145.9420 C   0  0  0  0  0  3  0  0  0  0  0  0
  187.2180  178.2690  146.2060 C   0  0  0  0  0  2  0  0  0  0  0  0
  189.1290  177.2320  142.9730 N   0  0  0  0  0  2  0  0  0  0  0  0
  184.7620  178.7500  146.2840 C   0  0  0  0  0  3  0  0  0  0  0  0
  188.2640  177.6400  145.3280 C   0  0  0  0  0  0  0  0  0  0  0  0
  188.3850  178.4110  140.9780 C   0  0  0  0  0  2  0  0  0  0  0  0
  188.3390  178.3410  139.4530 C   0  0  0  0  0  2  0  0  0  0  0  0
  189.6900  178.1540  138.9230 N   0  0  0  0  0  0  0  0  0  0  0  0
  190.3330  176.8370  140.8810 C   0  0  0  0  0  2  0  0  0  0  0  0
  190.1830  176.8500  139.3610 C   0  0  0  0  0  2  0  0  0  0  0  0
  188.9780  177.1170  141.5300 C   0  0  1  0  0  3  0  0  0  0  0  0
  189.5780  178.0950  137.4730 C   0  0  0  0  0  2  0  0  0  0  0  0
  189.1600  176.7640  137.0610 N   0  0  0  0  0  2  0  0  0  0  0  0
  189.6670  176.5550  135.7700 N   0  0  0  0  0  2  0  0  0  0  0  0
  191.3790  174.9860  136.3150 C   0  0  0  0  0  0  0  0  0  0  0  0
  190.0600  173.5500  137.5070 O   0  0  0  0  0  0  0  0  0  0  0  0
  191.2940  174.1050  137.4010 N   0  0  0  0  0  2  0  0  0  0  0  0
  189.2260  174.3320  136.6600 C   0  0  0  0  0  2  0  0  0  0  0  0
  190.0760  175.1620  135.6940 C   0  0  1  0  0  3  0  0  0  0  0  0
  192.4480  175.5390  135.9480 O   0  0  0  0  0  0  0  0  0  0  0  0
  190.4490  176.5730  145.2540 N   0  0  0  0  0  2  0  0  0  0  0  0
  191.7700  176.7620  145.6830 N   0  0  0  0  0  2  0  0  0  0  0  0
  192.0180  175.8140  146.6840 N   0  0  0  0  0  2  0  0  0  0  0  0
  192.2840  176.5290  147.8580 N   0  0  0  0  0  1  0  0  0  0  0  0
  1 13  1  0  0  0  0
  2 10  1  0  0  0  0
  2 12  1  0  0  0  0
  3 12  2  0  0  0  0
  4  1  2  0  0  0  0
  4  5  1  0  0  0  0
  5  2  2  0  0  0  0
  6  8  1  0  0  0  0
  7  5  1  0  0  0  0
  7  8  2  0  0  0  0
  8  3  1  0  0  0  0
 11  1  1  0  0  0  0
 13  9  2  0  0  0  0
 13 10  1  0  0  0  0
 14 19  1  0  0  0  0
 15 14  1  0  0  0  0
 16 18  1  0  0  0  0
 16 15  1  0  0  0  0
 17 19  1  0  0  0  0
 18 17  1  0  0  0  0
 19 11  1  1  0  0  0
 20 16  1  0  0  0  0
 21 20  1  0  0  0  0
 22 21  1  0  0  0  0
 23 25  1  0  0  0  0
 25 24  1  0  0  0  0
 26 24  1  0  0  0  0
 27 22  1  1  0  0  0
 27 23  1  0  0  0  0
 27 26  1  0  0  0  0
 28 23  2  0  0  0  0
 29 30  1  0  0  0  0
 29  9  1  0  0  0  0
 30 31  1  0  0  0  0
 31 32  1  0  0  0  0
M  END
>  <MODEL>
4

>  <REMARK>
 VINA RESULT:      -8.6      3.565      6.233
  Name = 
  8 active torsions:
  status: ('A' for Active; 'I' for Inactive)
    1  A    between atoms: N_2  and  N_12
    2  A    between atoms: N_2  and  C_17
    3  A    between atoms: N_4  and  N_29
    4  A    between atoms: N_4  and  N_31
    5  A    between atoms: N_8  and  C_17
    6  A    between atoms: N_12  and  C_28
    7  A    between atoms: C_21  and  N_31
    8  A    between atoms: N_24  and  C_27
                            x       y       z     vdW  Elec       q    Type
                         _______ _______ _______ _____ _____    ______ ____

>  <TORSDO>
F 8

$$$$
=
 OpenBabel10222416033D

 32 35  0  0  1  0  0  0  0  0999 V2000
  188.4050  177.3990  144.3090 C   0  0  0  0  0  0  0  0  0  0  0  0
  186.2260  178.2970  145.9330 C   0  0  0  0  0  0  0  0  0  0  0  0
  183.9030  178.8480  146.0230 N   0  0  0  0  0  0  0  0  0  0  0  0
  187.2470  177.6740  143.7820 N   0  0  0  0  0  0  0  0  0  0  0  0
  186.1110  178.0810  144.5510 C   0  0  0  0  0  0  0  0  0  0  0  0
  182.5060  178.8170  144.0610 N   0  0  0  0  0  1  0  0  0  0  0  0
  184.8760  178.2520  143.9240 C   0  0  0  0  0  3  0  0  0  0  0  0
  183.7710  178.6390  144.6860 C   0  0  0  0  0  0  0  0  0  0  0  0
  189.6850  177.0670  146.4290 C   0  0  0  0  0  3  0  0  0  0  0  0
  187.5490  178.1770  146.6260 C   0  0  0  0  0  2  0  0  0  0  0  0
  189.4890  177.0060  143.4570 N   0  0  0  0  0  2  0  0  0  0  0  0
  185.0980  178.6910  146.6550 C   0  0  0  0  0  3  0  0  0  0  0  0
  188.5980  177.5060  145.7850 C   0  0  0  0  0  0  0  0  0  0  0  0
  188.5130  177.9860  141.4540 C   0  0  0  0  0  2  0  0  0  0  0  0
  188.4720  177.8870  139.9310 C   0  0  0  0  0  2  0  0  0  0  0  0
  189.8310  177.9650  139.3910 N   0  0  0  0  0  0  0  0  0  0  0  0
  190.7340  176.8300  141.3600 C   0  0  0  0  0  2  0  0  0  0  0  0
  190.5760  176.7920  139.8410 C   0  0  0  0  0  2  0  0  0  0  0  0
  189.3540  176.8430  142.0170 C   0  0  1  0  0  3  0  0  0  0  0  0
  189.7250  177.8660  137.9440 C   0  0  0  0  0  2  0  0  0  0  0  0
  188.4460  178.4030  137.5010 N   0  0  0  0  0  2  0  0  0  0  0  0
  188.3810  178.2190  136.1130 N   0  0  0  0  0  2  0  0  0  0  0  0
  187.0660  176.2790  135.6680 C   0  0  0  0  0  0  0  0  0  0  0  0
  185.5430  176.5980  137.3420 O   0  0  0  0  0  0  0  0  0  0  0  0
  186.2390  175.6780  136.6260 N   0  0  0  0  0  2  0  0  0  0  0  0
  186.1700  177.8430  137.0600 C   0  0  0  0  0  2  0  0  0  0  0  0
  187.0470  177.7260  135.8100 C   0  0  1  0  0  3  0  0  0  0  0  0
  187.7270  175.6340  134.8150 O   0  0  0  0  0  0  0  0  0  0  0  0
  190.7700  176.4090  145.7770 N   0  0  0  0  0  2  0  0  0  0  0  0
  192.0400  176.3660  146.3700 N   0  0  0  0  0  2  0  0  0  0  0  0
  191.8780  176.7170  147.7160 N   0  0  0  0  0  2  0  0  0  0  0  0
  192.9230  176.1060  148.4190 N   0  0  0  0  0  1  0  0  0  0  0  0
  1 13  1  0  0  0  0
  2 10  1  0  0  0  0
  2 12  1  0  0  0  0
  3 12  2  0  0  0  0
  4  1  2  0  0  0  0
  4  5  1  0  0  0  0
  5  2  2  0  0  0  0
  6  8  1  0  0  0  0
  7  5  1  0  0  0  0
  7  8  2  0  0  0  0
  8  3  1  0  0  0  0
 11  1  1  0  0  0  0
 13  9  2  0  0  0  0
 13 10  1  0  0  0  0
 14 19  1  0  0  0  0
 15 14  1  0  0  0  0
 16 18  1  0  0  0  0
 16 15  1  0  0  0  0
 17 19  1  0  0  0  0
 18 17  1  0  0  0  0
 19 11  1  1  0  0  0
 20 16  1  0  0  0  0
 21 20  1  0  0  0  0
 22 21  1  0  0  0  0
 23 27  1  0  0  0  0
 23 25  1  0  0  0  0
 25 24  1  0  0  0  0
 26 24  1  0  0  0  0
 27 22  1  1  0  0  0
 27 26  1  0  0  0  0
 28 23  2  0  0  0  0
 29 30  1  0  0  0  0
 29  9  1  0  0  0  0
 30 31  1  0  0  0  0
 31 32  1  0  0  0  0
M  END
>  <MODEL>
5

>  <REMARK>
 VINA RESULT:      -8.4      4.593      7.448
  Name = 
  8 active torsions:
  status: ('A' for Active; 'I' for Inactive)
    1  A    between atoms: N_2  and  N_12
    2  A    between atoms: N_2  and  C_17
    3  A    between atoms: N_4  and  N_29
    4  A    between atoms: N_4  and  N_31
    5  A    between atoms: N_8  and  C_17
    6  A    between atoms: N_12  and  C_28
    7  A    between atoms: C_21  and  N_31
    8  A    between atoms: N_24  and  C_27
                            x       y       z     vdW  Elec       q    Type
                         _______ _______ _______ _____ _____    ______ ____

>  <TORSDO>
F 8

$$$$
=
 OpenBabel10222416033D

 32 35  0  0  1  0  0  0  0  0999 V2000
  187.9090  177.9730  142.3240 C   0  0  0  0  0  0  0  0  0  0  0  0
  187.9440  177.4890  145.1450 C   0  0  0  0  0  0  0  0  0  0  0  0
  189.2830  177.0510  147.0750 N   0  0  0  0  0  0  0  0  0  0  0  0
  189.0120  177.6450  142.9330 N   0  0  0  0  0  0  0  0  0  0  0  0
  189.0970  177.4370  144.3460 C   0  0  0  0  0  0  0  0  0  0  0  0
  191.6690  176.7530  146.9340 N   0  0  0  0  0  1  0  0  0  0  0  0
  190.3370  177.1920  144.9370 C   0  0  0  0  0  3  0  0  0  0  0  0
  190.4120  177.0020  146.3180 C   0  0  0  0  0  0  0  0  0  0  0  0
  185.5230  178.6630  142.5990 C   0  0  0  0  0  3  0  0  0  0  0  0
  186.5900  177.6920  144.5360 C   0  0  0  0  0  2  0  0  0  0  0  0
  187.9180  178.1530  140.9030 N   0  0  0  0  0  2  0  0  0  0  0  0
  188.0610  177.2840  146.5210 C   0  0  0  0  0  3  0  0  0  0  0  0
  186.6490  178.1480  143.1050 C   0  0  0  0  0  0  0  0  0  0  0  0
  189.8770  176.7720  140.4820 C   0  0  0  0  0  2  0  0  0  0  0  0
  191.0730  176.5830  139.5500 C   0  0  0  0  0  2  0  0  0  0  0  0
  190.6110  176.4710  138.1660 N   0  0  0  0  0  0  0  0  0  0  0  0
  188.7500  177.9960  138.6090 C   0  0  0  0  0  2  0  0  0  0  0  0
  190.0060  177.7430  137.7760 C   0  0  0  0  0  2  0  0  0  0  0  0
  189.1210  178.0380  140.0910 C   0  0  1  0  0  3  0  0  0  0  0  0
  191.7900  176.2940  137.3320 C   0  0  0  0  0  2  0  0  0  0  0  0
  192.6850  175.3190  137.9380 N   0  0  0  0  0  2  0  0  0  0  0  0
  193.9480  175.9210  138.0300 N   0  0  0  0  0  2  0  0  0  0  0  0
  195.6370  174.4610  138.8700 C   0  0  0  0  0  0  0  0  0  0  0  0
  194.7390  172.5200  138.0650 O   0  0  0  0  0  0  0  0  0  0  0  0
  195.4290  173.0920  139.0850 N   0  0  0  0  0  2  0  0  0  0  0  0
  194.2060  173.6070  137.3190 C   0  0  0  0  0  2  0  0  0  0  0  0
  194.9290  174.9070  137.6810 C   0  0  1  0  0  3  0  0  0  0  0  0
  196.3410  175.1850  139.6210 O   0  0  0  0  0  0  0  0  0  0  0  0
  185.4130  179.1420  141.2600 N   0  0  0  0  0  2  0  0  0  0  0  0
  184.1580  179.2780  140.6500 N   0  0  0  0  0  2  0  0  0  0  0  0
  184.3680  179.8850  139.4050 N   0  0  0  0  0  2  0  0  0  0  0  0
  185.2790  179.0780  138.7130 N   0  0  0  0  0  1  0  0  0  0  0  0
  1  4  2  0  0  0  0
  1 13  1  0  0  0  0
  2 12  1  0  0  0  0
  4  5  1  0  0  0  0
  5  7  1  0  0  0  0
  5  2  2  0  0  0  0
  7  8  2  0  0  0  0
  8  6  1  0  0  0  0
  8  3  1  0  0  0  0
  9 13  2  0  0  0  0
 10  2  1  0  0  0  0
 11  1  1  0  0  0  0
 12  3  2  0  0  0  0
 13 10  1  0  0  0  0
 15 14  1  0  0  0  0
 16 15  1  0  0  0  0
 17 19  1  0  0  0  0
 18 16  1  0  0  0  0
 18 17  1  0  0  0  0
 19 14  1  0  0  0  0
 19 11  1  1  0  0  0
 20 21  1  0  0  0  0
 20 16  1  0  0  0  0
 21 22  1  0  0  0  0
 23 25  1  0  0  0  0
 23 28  2  0  0  0  0
 24 25  1  0  0  0  0
 26 27  1  0  0  0  0
 26 24  1  0  0  0  0
 27 22  1  1  0  0  0
 27 23  1  0  0  0  0
 29  9  1  0  0  0  0
 30 29  1  0  0  0  0
 31 30  1  0  0  0  0
 32 31  1  0  0  0  0
M  END
>  <MODEL>
6

>  <REMARK>
 VINA RESULT:      -8.4      1.587      2.203
  Name = 
  8 active torsions:
  status: ('A' for Active; 'I' for Inactive)
    1  A    between atoms: N_2  and  N_12
    2  A    between atoms: N_2  and  C_17
    3  A    between atoms: N_4  and  N_29
    4  A    between atoms: N_4  and  N_31
    5  A    between atoms: N_8  and  C_17
    6  A    between atoms: N_12  and  C_28
    7  A    between atoms: C_21  and  N_31
    8  A    between atoms: N_24  and  C_27
                            x       y       z     vdW  Elec       q    Type
                         _______ _______ _______ _____ _____    ______ ____

>  <TORSDO>
F 8

$$$$
=
 OpenBabel10222416033D

 32 35  0  0  1  0  0  0  0  0999 V2000
  190.1210  177.2970  139.6240 C   0  0  0  0  0  0  0  0  0  0  0  0
  190.6750  176.5200  136.9250 C   0  0  0  0  0  0  0  0  0  0  0  0
  192.0580  175.2270  135.4680 N   0  0  0  0  0  0  0  0  0  0  0  0
  191.1710  176.5860  139.3350 N   0  0  0  0  0  0  0  0  0  0  0  0
  191.4730  176.1300  138.0120 C   0  0  0  0  0  0  0  0  0  0  0  0
  193.9440  173.9680  136.2810 N   0  0  0  0  0  1  0  0  0  0  0  0
  192.5610  175.2820  137.8030 C   0  0  0  0  0  3  0  0  0  0  0  0
  192.8400  174.8340  136.5100 C   0  0  0  0  0  0  0  0  0  0  0  0
  187.9680  178.2420  138.7770 C   0  0  0  0  0  3  0  0  0  0  0  0
  189.5360  177.4760  137.1070 C   0  0  0  0  0  2  0  0  0  0  0  0
  189.9050  177.7150  140.9780 N   0  0  0  0  0  2  0  0  0  0  0  0
  190.9950  176.0570  135.6480 C   0  0  0  0  0  3  0  0  0  0  0  0
  189.1600  177.6800  138.5480 C   0  0  0  0  0  0  0  0  0  0  0  0
  190.7500  178.4310  143.1450 C   0  0  0  0  0  2  0  0  0  0  0  0
  191.5710  177.9870  144.3530 C   0  0  0  0  0  2  0  0  0  0  0  0
  191.0160  176.7490  144.9020 N   0  0  0  0  0  0  0  0  0  0  0  0
  190.3330  176.0060  142.6740 C   0  0  0  0  0  2  0  0  0  0  0  0
  191.1760  175.6900  143.9080 C   0  0  0  0  0  2  0  0  0  0  0  0
  190.7810  177.3400  142.0780 C   0  0  1  0  0  3  0  0  0  0  0  0
  191.8370  176.3790  146.0450 C   0  0  0  0  0  2  0  0  0  0  0  0
  191.2120  176.8400  147.2750 N   0  0  0  0  0  2  0  0  0  0  0  0
  189.8380  176.5880  147.1580 N   0  0  0  0  0  2  0  0  0  0  0  0
  187.9490  177.8110  146.3650 C   0  0  0  0  0  0  0  0  0  0  0  0
  187.1790  178.4730  148.4130 O   0  0  0  0  0  0  0  0  0  0  0  0
  186.8280  178.0890  147.1590 N   0  0  0  0  0  2  0  0  0  0  0  0
  188.5540  178.1300  148.5370 C   0  0  0  0  0  2  0  0  0  0  0  0
  189.1670  177.8780  147.1570 C   0  0  1  0  0  3  0  0  0  0  0  0
  187.8850  177.5400  145.1390 O   0  0  0  0  0  0  0  0  0  0  0  0
  187.4630  178.5030  140.0860 N   0  0  0  0  0  2  0  0  0  0  0  0
  186.1660  179.0020  140.2650 N   0  0  0  0  0  2  0  0  0  0  0  0
  185.5470  179.0020  139.0080 N   0  0  0  0  0  2  0  0  0  0  0  0
  184.4650  179.8860  139.0930 N   0  0  0  0  0  1  0  0  0  0  0  0
  1 11  1  0  0  0  0
  2 10  1  0  0  0  0
  2  5  1  0  0  0  0
  3 12  1  0  0  0  0
  3  8  2  0  0  0  0
  4  1  2  0  0  0  0
  5  4  1  0  0  0  0
  6  8  1  0  0  0  0
  7  5  2  0  0  0  0
  8  7  1  0  0  0  0
  9 29  1  0  0  0  0
 10 13  1  0  0  0  0
 12  2  2  0  0  0  0
 13  9  2  0  0  0  0
 13  1  1  0  0  0  0
 14 15  1  0  0  0  0
 15 16  1  0  0  0  0
 16 20  1  0  0  0  0
 17 18  1  0  0  0  0
 18 16  1  0  0  0  0
 19 11  1  6  0  0  0
 19 17  1  0  0  0  0
 19 14  1  0  0  0  0
 20 21  1  0  0  0  0
 22 21  1  0  0  0  0
 23 27  1  0  0  0  0
 23 25  1  0  0  0  0
 24 26  1  0  0  0  0
 25 24  1  0  0  0  0
 27 22  1  1  0  0  0
 27 26  1  0  0  0  0
 28 23  2  0  0  0  0
 29 30  1  0  0  0  0
 31 32  1  0  0  0  0
 31 30  1  0  0  0  0
M  END
>  <MODEL>
7

>  <REMARK>
 VINA RESULT:      -8.2      3.833      8.408
  Name = 
  8 active torsions:
  status: ('A' for Active; 'I' for Inactive)
    1  A    between atoms: N_2  and  N_12
    2  A    between atoms: N_2  and  C_17
    3  A    between atoms: N_4  and  N_29
    4  A    between atoms: N_4  and  N_31
    5  A    between atoms: N_8  and  C_17
    6  A    between atoms: N_12  and  C_28
    7  A    between atoms: C_21  and  N_31
    8  A    between atoms: N_24  and  C_27
                            x       y       z     vdW  Elec       q    Type
                         _______ _______ _______ _____ _____    ______ ____

>  <TORSDO>
F 8

$$$$
=
 OpenBabel10222416033D

 32 35  0  0  1  0  0  0  0  0999 V2000
  185.9020  177.9610  143.9390 C   0  0  0  0  0  0  0  0  0  0  0  0
  183.1980  178.8680  143.6920 C   0  0  0  0  0  0  0  0  0  0  0  0
  181.3040  179.1210  142.2580 N   0  0  0  0  0  0  0  0  0  0  0  0
  185.3040  177.9740  142.7830 N   0  0  0  0  0  0  0  0  0  0  0  0
  183.9400  178.3730  142.6080 C   0  0  0  0  0  0  0  0  0  0  0  0
  181.3800  178.5250  139.9250 N   0  0  0  0  0  1  0  0  0  0  0  0
  183.3400  178.2570  141.3540 C   0  0  0  0  0  3  0  0  0  0  0  0
  182.0060  178.6380  141.1970 C   0  0  0  0  0  0  0  0  0  0  0  0
  185.6310  178.2190  146.4090 C   0  0  0  0  0  3  0  0  0  0  0  0
  183.8290  179.0600  145.0370 C   0  0  0  0  0  2  0  0  0  0  0  0
  187.2730  177.5530  144.0150 N   0  0  0  0  0  2  0  0  0  0  0  0
  181.8700  179.2470  143.4890 C   0  0  0  0  0  3  0  0  0  0  0  0
  185.1630  178.3790  145.1670 C   0  0  0  0  0  0  0  0  0  0  0  0
  188.2290  178.2550  141.8900 C   0  0  0  0  0  2  0  0  0  0  0  0
  189.1310  177.8120  140.7400 C   0  0  0  0  0  2  0  0  0  0  0  0
  190.4310  177.3890  141.2640 N   0  0  0  0  0  0  0  0  0  0  0  0
  189.3910  176.5520  143.3140 C   0  0  0  0  0  2  0  0  0  0  0  0
  190.2320  176.1990  142.0880 C   0  0  0  0  0  2  0  0  0  0  0  0
  188.0360  177.0950  142.8630 C   0  0  1  0  0  3  0  0  0  0  0  0
  191.2410  176.9810  140.1250 C   0  0  0  0  0  2  0  0  0  0  0  0
  190.4500  176.1560  139.2240 N   0  0  0  0  0  2  0  0  0  0  0  0
  191.3510  175.4210  138.4410 N   0  0  0  0  0  2  0  0  0  0  0  0
  193.0030  176.2490  136.9320 C   0  0  0  0  0  0  0  0  0  0  0  0
  192.1470  175.2890  135.0430 O   0  0  0  0  0  0  0  0  0  0  0  0
  193.2810  175.6500  135.6960 N   0  0  0  0  0  2  0  0  0  0  0  0
  191.1150  175.3650  136.0190 C   0  0  0  0  0  2  0  0  0  0  0  0
  191.5800  176.1840  137.2250 C   0  0  1  0  0  3  0  0  0  0  0  0
  193.8830  176.7630  137.6710 O   0  0  0  0  0  0  0  0  0  0  0  0
  186.8790  177.5930  146.7020 N   0  0  0  0  0  2  0  0  0  0  0  0
  187.7220  178.1100  147.6960 N   0  0  0  0  0  2  0  0  0  0  0  0
  189.0290  178.0590  147.1950 N   0  0  0  0  0  2  0  0  0  0  0  0
  189.4150  176.7130  147.2150 N   0  0  0  0  0  1  0  0  0  0  0  0
  1 11  1  0  0  0  0
  1 13  1  0  0  0  0
  2 10  1  0  0  0  0
  3 12  2  0  0  0  0
  4  1  2  0  0  0  0
  5  4  1  0  0  0  0
  5  2  2  0  0  0  0
  6  8  1  0  0  0  0
  7  5  1  0  0  0  0
  8  7  2  0  0  0  0
  8  3  1  0  0  0  0
  9 29  1  0  0  0  0
 10 13  1  0  0  0  0
 12  2  1  0  0  0  0
 13  9  2  0  0  0  0
 14 19  1  0  0  0  0
 15 16  1  0  0  0  0
 15 14  1  0  0  0  0
 16 18  1  0  0  0  0
 18 17  1  0  0  0  0
 19 17  1  0  0  0  0
 19 11  1  1  0  0  0
 20 16  1  0  0  0  0
 21 20  1  0  0  0  0
 22 21  1  0  0  0  0
 23 27  1  0  0  0  0
 23 28  2  0  0  0  0
 24 25  1  0  0  0  0
 24 26  1  0  0  0  0
 25 23  1  0  0  0  0
 26 27  1  0  0  0  0
 27 22  1  1  0  0  0
 29 30  1  0  0  0  0
 31 32  1  0  0  0  0
 31 30  1  0  0  0  0
M  END
>  <MODEL>
8

>  <REMARK>
 VINA RESULT:      -8.2      3.103      6.584
  Name = 
  8 active torsions:
  status: ('A' for Active; 'I' for Inactive)
    1  A    between atoms: N_2  and  N_12
    2  A    between atoms: N_2  and  C_17
    3  A    between atoms: N_4  and  N_29
    4  A    between atoms: N_4  and  N_31
    5  A    between atoms: N_8  and  C_17
    6  A    between atoms: N_12  and  C_28
    7  A    between atoms: C_21  and  N_31
    8  A    between atoms: N_24  and  C_27
                            x       y       z     vdW  Elec       q    Type
                         _______ _______ _______ _____ _____    ______ ____

>  <TORSDO>
F 8

$$$$
=
 OpenBabel10222416033D

 32 35  0  0  1  0  0  0  0  0999 V2000
  187.6000  177.8850  143.2530 C   0  0  0  0  0  0  0  0  0  0  0  0
  187.8400  177.3930  146.0620 C   0  0  0  0  0  0  0  0  0  0  0  0
  189.3210  177.0730  147.9090 N   0  0  0  0  0  0  0  0  0  0  0  0
  188.7610  177.6570  143.7950 N   0  0  0  0  0  0  0  0  0  0  0  0
  188.9460  177.4520  145.1990 C   0  0  0  0  0  0  0  0  0  0  0  0
  191.7130  176.9980  147.6310 N   0  0  0  0  0  1  0  0  0  0  0  0
  190.2350  177.3210  145.7160 C   0  0  0  0  0  3  0  0  0  0  0  0
  190.4050  177.1320  147.0900 C   0  0  0  0  0  0  0  0  0  0  0  0
  185.1800  178.3490  143.6680 C   0  0  0  0  0  3  0  0  0  0  0  0
  186.4410  177.4720  145.5320 C   0  0  0  0  0  2  0  0  0  0  0  0
  187.5120  178.0710  141.8340 N   0  0  0  0  0  2  0  0  0  0  0  0
  188.0540  177.1940  147.4270 C   0  0  0  0  0  3  0  0  0  0  0  0
  186.3750  177.9380  144.1050 C   0  0  0  0  0  0  0  0  0  0  0  0
  189.4300  176.7570  141.1150 C   0  0  0  0  0  2  0  0  0  0  0  0
  190.5760  176.7030  140.1070 C   0  0  0  0  0  2  0  0  0  0  0  0
  190.0450  176.8020  138.7460 N   0  0  0  0  0  0  0  0  0  0  0  0
  188.2280  178.2540  139.5040 C   0  0  0  0  0  2  0  0  0  0  0  0
  189.4380  178.1210  138.5810 C   0  0  0  0  0  2  0  0  0  0  0  0
  188.6710  178.0720  140.9550 C   0  0  1  0  0  3  0  0  0  0  0  0
  191.1800  176.7450  137.8370 C   0  0  0  0  0  2  0  0  0  0  0  0
  190.7170  176.5050  136.4790 N   0  0  0  0  0  2  0  0  0  0  0  0
  189.8500  175.4050  136.5270 N   0  0  0  0  0  2  0  0  0  0  0  0
  187.5280  175.8920  136.2800 C   0  0  0  0  0  0  0  0  0  0  0  0
  187.7840  177.8150  135.0730 O   0  0  0  0  0  0  0  0  0  0  0  0
  187.0390  177.1770  136.0120 N   0  0  0  0  0  2  0  0  0  0  0  0
  188.9770  177.0490  134.9590 C   0  0  0  0  0  2  0  0  0  0  0  0
  188.7800  175.6620  135.5770 C   0  0  1  0  0  3  0  0  0  0  0  0
  186.9470  175.0680  137.0330 O   0  0  0  0  0  0  0  0  0  0  0  0
  184.9500  178.8210  142.3410 N   0  0  0  0  0  2  0  0  0  0  0  0
  183.6980  178.6600  141.7320 N   0  0  0  0  0  2  0  0  0  0  0  0
  183.9110  178.6520  140.3480 N   0  0  0  0  0  2  0  0  0  0  0  0
  184.9320  179.5740  140.0930 N   0  0  0  0  0  1  0  0  0  0  0  0
  1  4  2  0  0  0  0
  1 13  1  0  0  0  0
  2 12  1  0  0  0  0
  4  5  1  0  0  0  0
  5  7  1  0  0  0  0
  5  2  2  0  0  0  0
  7  8  2  0  0  0  0
  8  6  1  0  0  0  0
  8  3  1  0  0  0  0
  9 13  2  0  0  0  0
 10  2  1  0  0  0  0
 11  1  1  0  0  0  0
 12  3  2  0  0  0  0
 13 10  1  0  0  0  0
 15 14  1  0  0  0  0
 16 15  1  0  0  0  0
 17 19  1  0  0  0  0
 18 16  1  0  0  0  0
 18 17  1  0  0  0  0
 19 14  1  0  0  0  0
 19 11  1  1  0  0  0
 20 16  1  0  0  0  0
 21 22  1  0  0  0  0
 21 20  1  0  0  0  0
 23 28  2  0  0  0  0
 24 25  1  0  0  0  0
 25 23  1  0  0  0  0
 26 24  1  0  0  0  0
 26 27  1  0  0  0  0
 27 23  1  0  0  0  0
 27 22  1  1  0  0  0
 29  9  1  0  0  0  0
 30 29  1  0  0  0  0
 31 30  1  0  0  0  0
 32 31  1  0  0  0  0
M  END
>  <MODEL>
9

>  <REMARK>
 VINA RESULT:      -8.0      4.087      5.176
  Name = 
  8 active torsions:
  status: ('A' for Active; 'I' for Inactive)
    1  A    between atoms: N_2  and  N_12
    2  A    between atoms: N_2  and  C_17
    3  A    between atoms: N_4  and  N_29
    4  A    between atoms: N_4  and  N_31
    5  A    between atoms: N_8  and  C_17
    6  A    between atoms: N_12  and  C_28
    7  A    between atoms: C_21  and  N_31
    8  A    between atoms: N_24  and  C_27
                            x       y       z     vdW  Elec       q    Type
                         _______ _______ _______ _____ _____    ______ ____

>  <TORSDO>
F 8

$$$$
