=
 OpenBabel10222420113D

 46 50  0  0  1  0  0  0  0  0999 V2000
  191.1060  177.3070  139.9850 O   0  0  0  0  0  0  0  0  0  0  0  0
  188.9620  175.1630  136.6250 C   0  0  0  0  0  0  0  0  0  0  0  0
  188.1910  174.0030  136.7270 C   0  0  0  0  0  3  0  0  0  0  0  0
  186.8360  174.0670  137.0350 C   0  0  0  0  0  0  0  0  0  0  0  0
  190.8900  177.2360  138.7460 C   0  0  0  0  0  0  0  0  0  0  0  0
  186.1170  172.8740  137.1110 C   0  0  0  0  0  3  0  0  0  0  0  0
  192.7530  172.2370  135.7680 C   0  0  0  0  0  0  0  0  0  0  0  0
  187.0000  176.4960  137.2170 C   0  0  0  0  0  0  0  0  0  0  0  0
  188.3680  176.4120  136.8790 C   0  0  0  0  0  0  0  0  0  0  0  0
  193.9540  171.7730  136.5190 C   0  0  0  0  0  1  0  0  0  0  0  0
  193.2430  176.4600  138.4290 C   0  0  0  0  0  1  0  0  0  0  0  0
  191.8260  176.4540  137.8610 C   0  0  1  0  0  3  0  0  0  0  0  0
  192.3430  174.0590  137.3920 N   0  0  0  0  0  2  0  0  0  0  0  0
  189.7390  177.8970  138.2110 N   0  0  0  0  0  2  0  0  0  0  0  0
  190.4330  175.0780  136.3170 C   0  0  2  0  0  3  0  0  0  0  0  0
  191.9960  173.3600  136.2290 N   0  0  0  0  0  0  0  0  0  0  0  0
  184.7560  172.8910  137.4020 C   0  0  0  0  0  3  0  0  0  0  0  0
  189.2130  177.6550  136.8750 C   0  0  0  0  0  2  0  0  0  0  0  0
  186.2020  175.3170  137.2680 C   0  0  0  0  0  0  0  0  0  0  0  0
  184.1070  174.1030  137.6120 C   0  0  0  0  0  3  0  0  0  0  0  0
  192.4140  171.6260  134.7200 O   0  0  0  0  0  0  0  0  0  0  0  0
  184.8040  175.3150  137.5510 C   0  0  0  0  0  0  0  0  0  0  0  0
  190.8310  173.8520  135.5310 C   0  0  0  0  0  2  0  0  0  0  0  0
  191.2770  175.0450  137.5890 C   0  0  2  0  0  3  0  0  0  0  0  0
  183.9870  176.5530  137.7200 C   0  0  0  0  0  2  0  0  0  0  0  0
  183.0430  176.3620  138.7280 O   0  0  0  0  0  1  0  0  0  0  0  0
  186.4640  177.7790  137.5700 N   0  0  0  0  0  2  0  0  0  0  0  0
  186.2580  178.1830  138.9280 C   0  0  0  0  0  0  0  0  0  0  0  0
  184.8870  179.2980  140.5840 C   0  0  0  0  0  3  0  0  0  0  0  0
  186.9870  178.2680  141.2550 C   0  0  0  0  0  0  0  0  0  0  0  0
  185.8230  178.9850  141.5750 C   0  0  0  0  0  3  0  0  0  0  0  0
  187.1920  177.8690  139.9260 C   0  0  0  0  0  3  0  0  0  0  0  0
  185.1050  178.8970  139.2630 C   0  0  0  0  0  3  0  0  0  0  0  0
  187.9540  177.9290  142.2700 N   0  0  0  0  0  0  0  0  0  0  0  0
  187.7310  176.8140  143.1820 C   0  0  0  0  0  2  0  0  0  0  0  0
  186.5360  177.1030  144.0750 C   0  0  0  0  0  2  0  0  0  0  0  0
  186.8750  178.2070  145.0590 C   0  0  2  0  0  3  0  0  0  0  0  0
  187.6560  177.7070  146.0860 F   0  0  0  0  0  0  0  0  0  0  0  0
  185.6240  178.7990  145.6120 C   0  0  0  0  0  0  0  0  0  0  0  0
  184.8400  179.4450  144.8670 O   0  0  0  0  0  0  0  0  0  0  0  0
  185.3260  178.6550  146.9950 N   0  0  0  0  0  1  0  0  0  0  0  0
  189.2190  178.5410  142.2760 N   0  0  0  0  0  2  0  0  0  0  0  0
  190.0380  177.8450  143.2590 C   0  0  0  0  0  2  0  0  0  0  0  0
  191.9340  178.1000  144.6730 F   0  0  0  0  0  0  0  0  0  0  0  0
  190.8890  179.9640  143.9330 F   0  0  0  0  0  0  0  0  0  0  0  0
  191.2620  178.6730  143.6100 C   0  0  0  0  0  3  0  0  0  0  0  0
  2  3  2  0  0  0  0
  2  9  1  0  0  0  0
  3  4  1  0  0  0  0
  4  6  2  0  0  0  0
  4 19  1  0  0  0  0
  5  1  2  0  0  0  0
  6 17  1  0  0  0  0
  7 16  1  0  0  0  0
  7 10  1  0  0  0  0
  8 19  1  0  0  0  0
  8 27  1  0  0  0  0
  9  8  2  0  0  0  0
 12 11  1  1  0  0  0
 12  5  1  0  0  0  0
 14  5  1  0  0  0  0
 15 23  1  1  0  0  0
 15  2  1  0  0  0  0
 15 24  1  0  0  0  0
 16 13  1  0  0  0  0
 17 20  2  0  0  0  0
 18  9  1  0  0  0  0
 18 14  1  0  0  0  0
 19 22  2  0  0  0  0
 21  7  2  0  0  0  0
 22 20  1  0  0  0  0
 22 25  1  0  0  0  0
 23 16  1  0  0  0  0
 24 13  1  6  0  0  0
 24 12  1  0  0  0  0
 25 26  1  0  0  0  0
 27 28  1  0  0  0  0
 28 33  2  0  0  0  0
 28 32  1  0  0  0  0
 29 31  2  0  0  0  0
 30 31  1  0  0  0  0
 30 34  1  0  0  0  0
 32 30  2  0  0  0  0
 33 29  1  0  0  0  0
 34 42  1  0  0  0  0
 34 35  1  0  0  0  0
 35 36  1  0  0  0  0
 36 37  1  0  0  0  0
 37 39  1  0  0  0  0
 37 38  1  1  0  0  0
 39 41  1  0  0  0  0
 40 39  2  0  0  0  0
 42 43  1  0  0  0  0
 43 46  1  0  0  0  0
 46 45  1  0  0  0  0
 46 44  1  0  0  0  0
M  END
>  <MODEL>
1

>  <REMARK>
 VINA RESULT:      -7.8      0.000      0.000
  Name = 
  11 active torsions:
  status: ('A' for Active; 'I' for Inactive)
    1  A    between atoms: C_1  and  C_9
    2  A    between atoms: C_1  and  C_34
    3  A    between atoms: N_2  and  C_18
    4  A    between atoms: N_2  and  N_19
    5  A    between atoms: N_2  and  C_28
    6  A    between atoms: C_4  and  N_40
    7  A    between atoms: C_6  and  C_43
    8  A    between atoms: C_12  and  N_19
    9  A    between atoms: C_12  and  C_33
   10  A    between atoms: C_18  and  C_34
   11  A    between atoms: C_20  and  N_40
                            x       y       z     vdW  Elec       q    Type
                         _______ _______ _______ _____ _____    ______ ____

>  <TORSDO>
F 11

$$$$
=
 OpenBabel10222420113D

 46 50  0  0  1  0  0  0  0  0999 V2000
  190.9280  177.5510  139.7450 O   0  0  0  0  0  0  0  0  0  0  0  0
  188.9160  175.1100  136.5070 C   0  0  0  0  0  0  0  0  0  0  0  0
  188.1710  173.9410  136.6780 C   0  0  0  0  0  3  0  0  0  0  0  0
  186.8080  173.9930  136.9510 C   0  0  0  0  0  0  0  0  0  0  0  0
  190.7420  177.3830  138.5100 C   0  0  0  0  0  0  0  0  0  0  0  0
  186.1160  172.7910  137.1000 C   0  0  0  0  0  3  0  0  0  0  0  0
  192.7960  172.2270  135.9530 C   0  0  0  0  0  0  0  0  0  0  0  0
  186.9090  176.4330  136.9550 C   0  0  0  0  0  0  0  0  0  0  0  0
  188.2860  176.3590  136.6550 C   0  0  0  0  0  0  0  0  0  0  0  0
  193.9890  171.8520  136.7630 C   0  0  0  0  0  1  0  0  0  0  0  0
  193.1210  176.6470  138.3020 C   0  0  0  0  0  1  0  0  0  0  0  0
  191.7180  176.5630  137.7060 C   0  0  1  0  0  3  0  0  0  0  0  0
  192.3040  174.1530  137.4280 N   0  0  0  0  0  2  0  0  0  0  0  0
  189.5890  177.9740  137.9020 N   0  0  0  0  0  2  0  0  0  0  0  0
  190.3960  175.0410  136.2390 C   0  0  2  0  0  3  0  0  0  0  0  0
  192.0010  173.3610  136.3120 N   0  0  0  0  0  0  0  0  0  0  0  0
  184.7490  172.7940  137.3590 C   0  0  0  0  0  3  0  0  0  0  0  0
  189.1010  177.6200  136.5770 C   0  0  0  0  0  2  0  0  0  0  0  0
  186.1390  175.2400  137.0770 C   0  0  0  0  0  0  0  0  0  0  0  0
  184.0660  174.0020  137.4640 C   0  0  0  0  0  3  0  0  0  0  0  0
  192.4960  171.5330  134.9470 O   0  0  0  0  0  0  0  0  0  0  0  0
  184.7350  175.2230  137.3280 C   0  0  0  0  0  0  0  0  0  0  0  0
  190.8410  173.7710  135.5550 C   0  0  0  0  0  2  0  0  0  0  0  0
  191.2090  175.1240  137.5270 C   0  0  2  0  0  3  0  0  0  0  0  0
  183.8850  176.4490  137.3870 C   0  0  0  0  0  2  0  0  0  0  0  0
  182.8370  176.2540  138.2870 O   0  0  0  0  0  1  0  0  0  0  0  0
  186.3340  177.7230  137.2010 N   0  0  0  0  0  2  0  0  0  0  0  0
  185.9930  178.1810  138.5130 C   0  0  0  0  0  0  0  0  0  0  0  0
  184.4690  179.3660  139.9760 C   0  0  0  0  0  3  0  0  0  0  0  0
  186.4790  178.3520  140.8980 C   0  0  0  0  0  0  0  0  0  0  0  0
  185.2940  179.0870  141.0690 C   0  0  0  0  0  3  0  0  0  0  0  0
  186.8160  177.9020  139.6140 C   0  0  0  0  0  3  0  0  0  0  0  0
  184.8180  178.9130  138.7010 C   0  0  0  0  0  3  0  0  0  0  0  0
  187.3340  178.0480  142.0200 N   0  0  0  0  0  0  0  0  0  0  0  0
  188.6280  177.4050  141.8280 C   0  0  0  0  0  2  0  0  0  0  0  0
  189.6830  178.0960  142.6750 C   0  0  0  0  0  2  0  0  0  0  0  0
  190.4520  177.0710  143.4890 C   0  0  2  0  0  3  0  0  0  0  0  0
  189.8160  175.8440  143.4330 F   0  0  0  0  0  0  0  0  0  0  0  0
  190.5630  177.5240  144.9050 C   0  0  0  0  0  0  0  0  0  0  0  0
  189.6960  178.2920  145.3990 O   0  0  0  0  0  0  0  0  0  0  0  0
  191.6700  177.1060  145.6950 N   0  0  0  0  0  1  0  0  0  0  0  0
  187.0260  178.5400  143.2990 N   0  0  0  0  0  2  0  0  0  0  0  0
  186.5660  177.4160  144.1020 C   0  0  0  0  0  2  0  0  0  0  0  0
  184.5490  178.4830  144.7740 F   0  0  0  0  0  0  0  0  0  0  0  0
  186.4080  178.8230  146.0160 F   0  0  0  0  0  0  0  0  0  0  0  0
  185.7080  177.9050  145.2560 C   0  0  0  0  0  3  0  0  0  0  0  0
  2  9  2  0  0  0  0
  2  3  1  0  0  0  0
  3  4  2  0  0  0  0
  4 19  1  0  0  0  0
  4  6  1  0  0  0  0
  5  1  2  0  0  0  0
  6 17  2  0  0  0  0
  7 16  1  0  0  0  0
  7 10  1  0  0  0  0
  8 19  2  0  0  0  0
  8 27  1  0  0  0  0
  9  8  1  0  0  0  0
 12 11  1  1  0  0  0
 12  5  1  0  0  0  0
 14  5  1  0  0  0  0
 15 23  1  1  0  0  0
 15  2  1  0  0  0  0
 15 24  1  0  0  0  0
 16 13  1  0  0  0  0
 17 20  1  0  0  0  0
 18  9  1  0  0  0  0
 18 14  1  0  0  0  0
 19 22  1  0  0  0  0
 21  7  2  0  0  0  0
 22 25  1  0  0  0  0
 22 20  2  0  0  0  0
 23 16  1  0  0  0  0
 24 13  1  6  0  0  0
 24 12  1  0  0  0  0
 25 26  1  0  0  0  0
 27 28  1  0  0  0  0
 28 33  2  0  0  0  0
 28 32  1  0  0  0  0
 29 31  2  0  0  0  0
 30 31  1  0  0  0  0
 30 34  1  0  0  0  0
 32 30  2  0  0  0  0
 33 29  1  0  0  0  0
 34 42  1  0  0  0  0
 35 34  1  0  0  0  0
 35 36  1  0  0  0  0
 36 37  1  0  0  0  0
 37 38  1  1  0  0  0
 37 39  1  0  0  0  0
 39 40  2  0  0  0  0
 39 41  1  0  0  0  0
 42 43  1  0  0  0  0
 43 46  1  0  0  0  0
 44 46  1  0  0  0  0
 46 45  1  0  0  0  0
M  END
>  <MODEL>
2

>  <REMARK>
 VINA RESULT:      -7.3      1.408      2.474
  Name = 
  11 active torsions:
  status: ('A' for Active; 'I' for Inactive)
    1  A    between atoms: C_1  and  C_9
    2  A    between atoms: C_1  and  C_34
    3  A    between atoms: N_2  and  C_18
    4  A    between atoms: N_2  and  N_19
    5  A    between atoms: N_2  and  C_28
    6  A    between atoms: C_4  and  N_40
    7  A    between atoms: C_6  and  C_43
    8  A    between atoms: C_12  and  N_19
    9  A    between atoms: C_12  and  C_33
   10  A    between atoms: C_18  and  C_34
   11  A    between atoms: C_20  and  N_40
                            x       y       z     vdW  Elec       q    Type
                         _______ _______ _______ _____ _____    ______ ____

>  <TORSDO>
F 11

$$$$
=
 OpenBabel10222420113D

 46 50  0  0  1  0  0  0  0  0999 V2000
  184.7150  177.2580  142.6410 O   0  0  0  0  0  0  0  0  0  0  0  0
  188.9910  177.9540  141.3300 C   0  0  0  0  0  0  0  0  0  0  0  0
  189.8930  176.9930  140.8690 C   0  0  0  0  0  3  0  0  0  0  0  0
  189.9430  176.6440  139.5230 C   0  0  0  0  0  0  0  0  0  0  0  0
  185.6660  178.0770  142.5330 C   0  0  0  0  0  0  0  0  0  0  0  0
  190.8740  175.6860  139.1210 C   0  0  0  0  0  3  0  0  0  0  0  0
  190.7410  177.0600  145.7810 C   0  0  0  0  0  0  0  0  0  0  0  0
  188.1070  178.1860  139.0620 C   0  0  0  0  0  0  0  0  0  0  0  0
  188.0890  178.5450  140.4270 C   0  0  0  0  0  0  0  0  0  0  0  0
  190.2720  176.3540  147.0060 C   0  0  0  0  0  1  0  0  0  0  0  0
  185.8880  178.0750  145.0210 C   0  0  0  0  0  1  0  0  0  0  0  0
  186.6030  178.3020  143.6920 C   0  0  1  0  0  3  0  0  0  0  0  0
  188.4590  177.0760  144.8210 N   0  0  0  0  0  2  0  0  0  0  0  0
  185.8390  178.7670  141.2910 N   0  0  0  0  0  2  0  0  0  0  0  0
  188.9290  178.3040  142.7930 C   0  0  2  0  0  3  0  0  0  0  0  0
  189.8210  177.3960  144.7380 N   0  0  0  0  0  0  0  0  0  0  0  0
  190.9700  175.3150  137.7840 C   0  0  0  0  0  3  0  0  0  0  0  0
  187.0440  179.5010  140.9330 C   0  0  0  0  0  2  0  0  0  0  0  0
  189.0640  177.2460  138.5830 C   0  0  0  0  0  0  0  0  0  0  0  0
  190.1360  175.9070  136.8390 C   0  0  0  0  0  3  0  0  0  0  0  0
  191.9600  177.3580  145.6750 O   0  0  0  0  0  0  0  0  0  0  0  0
  189.1870  176.8640  137.2140 C   0  0  0  0  0  0  0  0  0  0  0  0
  190.2260  178.0870  143.5360 C   0  0  0  0  0  2  0  0  0  0  0  0
  187.8850  177.4700  143.5310 C   0  0  2  0  0  3  0  0  0  0  0  0
  188.4020  177.4810  136.1040 C   0  0  0  0  0  2  0  0  0  0  0  0
  188.0460  176.5020  135.1760 O   0  0  0  0  0  1  0  0  0  0  0  0
  187.1010  178.7360  138.2000 N   0  0  0  0  0  2  0  0  0  0  0  0
  185.7760  178.2020  138.1190 C   0  0  0  0  0  0  0  0  0  0  0  0
  184.3010  176.3630  137.5630 C   0  0  0  0  0  3  0  0  0  0  0  0
  183.3670  178.4340  138.4330 C   0  0  0  0  0  0  0  0  0  0  0  0
  183.1970  177.1250  137.9550 C   0  0  0  0  0  3  0  0  0  0  0  0
  184.6650  178.9610  138.5140 C   0  0  0  0  0  3  0  0  0  0  0  0
  185.5880  176.9010  137.6460 C   0  0  0  0  0  3  0  0  0  0  0  0
  182.2370  179.2270  138.8500 N   0  0  0  0  0  0  0  0  0  0  0  0
  181.1110  178.6230  139.5530 C   0  0  0  0  0  2  0  0  0  0  0  0
  181.5710  178.0550  140.8840 C   0  0  0  0  0  2  0  0  0  0  0  0
  181.5420  179.1340  141.9500 C   0  0  2  0  0  3  0  0  0  0  0  0
  182.1220  178.6670  143.1170 F   0  0  0  0  0  0  0  0  0  0  0  0
  180.1360  179.5540  142.2130 C   0  0  0  0  0  0  0  0  0  0  0  0
  179.8150  180.7710  142.1660 O   0  0  0  0  0  0  0  0  0  0  0  0
  179.1570  178.5760  142.5420 N   0  0  0  0  0  1  0  0  0  0  0  0
  182.2830  180.6280  138.7630 N   0  0  0  0  0  2  0  0  0  0  0  0
  180.9090  181.1090  138.7030 C   0  0  0  0  0  2  0  0  0  0  0  0
  181.1380  180.9510  136.3400 F   0  0  0  0  0  0  0  0  0  0  0  0
  181.1950  183.0030  137.2880 F   0  0  0  0  0  0  0  0  0  0  0  0
  180.6290  181.7440  137.3520 C   0  0  0  0  0  3  0  0  0  0  0  0
  2 15  1  0  0  0  0
  3  2  1  0  0  0  0
  4  3  2  0  0  0  0
  5  1  2  0  0  0  0
  5 12  1  0  0  0  0
  6  4  1  0  0  0  0
  7 10  1  0  0  0  0
  8  9  1  0  0  0  0
  9 18  1  0  0  0  0
  9  2  2  0  0  0  0
 12 11  1  1  0  0  0
 14  5  1  0  0  0  0
 15 24  1  0  0  0  0
 15 23  1  1  0  0  0
 16 13  1  0  0  0  0
 16  7  1  0  0  0  0
 17  6  2  0  0  0  0
 18 14  1  0  0  0  0
 19  8  2  0  0  0  0
 19  4  1  0  0  0  0
 20 22  2  0  0  0  0
 20 17  1  0  0  0  0
 21  7  2  0  0  0  0
 22 19  1  0  0  0  0
 23 16  1  0  0  0  0
 24 12  1  0  0  0  0
 24 13  1  1  0  0  0
 25 22  1  0  0  0  0
 26 25  1  0  0  0  0
 27  8  1  0  0  0  0
 28 27  1  0  0  0  0
 28 32  1  0  0  0  0
 29 33  1  0  0  0  0
 29 31  2  0  0  0  0
 30 32  2  0  0  0  0
 30 34  1  0  0  0  0
 31 30  1  0  0  0  0
 33 28  2  0  0  0  0
 34 35  1  0  0  0  0
 35 36  1  0  0  0  0
 36 37  1  0  0  0  0
 37 39  1  0  0  0  0
 37 38  1  1  0  0  0
 39 41  1  0  0  0  0
 40 39  2  0  0  0  0
 42 34  1  0  0  0  0
 43 42  1  0  0  0  0
 44 46  1  0  0  0  0
 45 46  1  0  0  0  0
 46 43  1  0  0  0  0
M  END
>  <MODEL>
3

>  <REMARK>
 VINA RESULT:      -7.2      4.069      7.423
  Name = 
  11 active torsions:
  status: ('A' for Active; 'I' for Inactive)
    1  A    between atoms: C_1  and  C_9
    2  A    between atoms: C_1  and  C_34
    3  A    between atoms: N_2  and  C_18
    4  A    between atoms: N_2  and  N_19
    5  A    between atoms: N_2  and  C_28
    6  A    between atoms: C_4  and  N_40
    7  A    between atoms: C_6  and  C_43
    8  A    between atoms: C_12  and  N_19
    9  A    between atoms: C_12  and  C_33
   10  A    between atoms: C_18  and  C_34
   11  A    between atoms: C_20  and  N_40
                            x       y       z     vdW  Elec       q    Type
                         _______ _______ _______ _____ _____    ______ ____

>  <TORSDO>
F 11

$$$$
=
 OpenBabel10222420113D

 46 50  0  0  1  0  0  0  0  0999 V2000
  184.6420  177.3020  142.7800 O   0  0  0  0  0  0  0  0  0  0  0  0
  188.8700  177.9950  141.3220 C   0  0  0  0  0  0  0  0  0  0  0  0
  189.7560  177.0340  140.8290 C   0  0  0  0  0  3  0  0  0  0  0  0
  189.7580  176.6850  139.4820 C   0  0  0  0  0  0  0  0  0  0  0  0
  185.5900  178.1200  142.6380 C   0  0  0  0  0  0  0  0  0  0  0  0
  190.6750  175.7270  139.0480 C   0  0  0  0  0  3  0  0  0  0  0  0
  190.7730  177.1000  145.7090 C   0  0  0  0  0  0  0  0  0  0  0  0
  187.9090  178.2280  139.0850 C   0  0  0  0  0  0  0  0  0  0  0  0
  187.9380  178.5870  140.4500 C   0  0  0  0  0  0  0  0  0  0  0  0
  190.3460  176.3940  146.9490 C   0  0  0  0  0  1  0  0  0  0  0  0
  185.8980  178.1180  145.1180 C   0  0  0  0  0  1  0  0  0  0  0  0
  186.5660  178.3450  143.7640 C   0  0  1  0  0  3  0  0  0  0  0  0
  188.4600  177.1170  144.8280 N   0  0  0  0  0  2  0  0  0  0  0  0
  185.7200  178.8110  141.3910 N   0  0  0  0  0  2  0  0  0  0  0  0
  188.8600  178.3450  142.7850 C   0  0  2  0  0  3  0  0  0  0  0  0
  189.8180  177.4360  144.6980 N   0  0  0  0  0  0  0  0  0  0  0  0
  190.7240  175.3560  137.7080 C   0  0  0  0  0  3  0  0  0  0  0  0
  186.9130  179.5430  140.9920 C   0  0  0  0  0  2  0  0  0  0  0  0
  188.8480  177.2870  138.5730 C   0  0  0  0  0  0  0  0  0  0  0  0
  189.8590  175.9490  136.7930 C   0  0  0  0  0  3  0  0  0  0  0  0
  191.9880  177.3970  145.5610 O   0  0  0  0  0  0  0  0  0  0  0  0
  188.9230  176.9060  137.2010 C   0  0  0  0  0  0  0  0  0  0  0  0
  190.1810  178.1280  143.4830 C   0  0  0  0  0  2  0  0  0  0  0  0
  187.8420  177.5120  143.5590 C   0  0  2  0  0  3  0  0  0  0  0  0
  188.1010  177.5230  136.1190 C   0  0  0  0  0  2  0  0  0  0  0  0
  187.6500  176.5340  135.2450 O   0  0  0  0  0  1  0  0  0  0  0  0
  186.8740  178.7790  138.2580 N   0  0  0  0  0  2  0  0  0  0  0  0
  185.5550  178.2280  138.2030 C   0  0  0  0  0  0  0  0  0  0  0  0
  184.1040  176.3300  137.8050 C   0  0  0  0  0  3  0  0  0  0  0  0
  183.1380  178.4720  138.4350 C   0  0  0  0  0  0  0  0  0  0  0  0
  182.9860  177.1190  138.0900 C   0  0  0  0  0  3  0  0  0  0  0  0
  184.4300  179.0150  138.4910 C   0  0  0  0  0  3  0  0  0  0  0  0
  185.3860  176.8840  137.8620 C   0  0  0  0  0  3  0  0  0  0  0  0
  181.9930  179.2940  138.7420 N   0  0  0  0  0  0  0  0  0  0  0  0
  181.5170  180.3040  137.8040 C   0  0  0  0  0  2  0  0  0  0  0  0
  181.7490  181.6930  138.3720 C   0  0  0  0  0  2  0  0  0  0  0  0
  180.6570  182.6370  137.9040 C   0  0  2  0  0  3  0  0  0  0  0  0
  179.6490  181.9260  137.2770 F   0  0  0  0  0  0  0  0  0  0  0  0
  181.2250  183.6500  136.9690 C   0  0  0  0  0  0  0  0  0  0  0  0
  180.9820  183.5850  135.7350 O   0  0  0  0  0  0  0  0  0  0  0  0
  182.0660  184.6810  137.4710 N   0  0  0  0  0  1  0  0  0  0  0  0
  181.1950  179.0090  139.8620 N   0  0  0  0  0  2  0  0  0  0  0  0
  182.0830  178.8460  141.0050 C   0  0  0  0  0  2  0  0  0  0  0  0
  180.4830  180.0810  142.2590 F   0  0  0  0  0  0  0  0  0  0  0  0
  182.1730  179.0730  143.3730 F   0  0  0  0  0  0  0  0  0  0  0  0
  181.3050  178.9700  142.3030 C   0  0  0  0  0  3  0  0  0  0  0  0
  2 15  1  0  0  0  0
  3  2  1  0  0  0  0
  4  3  2  0  0  0  0
  5  1  2  0  0  0  0
  5 12  1  0  0  0  0
  6  4  1  0  0  0  0
  7 10  1  0  0  0  0
  8  9  1  0  0  0  0
  9 18  1  0  0  0  0
  9  2  2  0  0  0  0
 12 11  1  1  0  0  0
 14  5  1  0  0  0  0
 15 23  1  1  0  0  0
 15 24  1  0  0  0  0
 16 13  1  0  0  0  0
 16  7  1  0  0  0  0
 17  6  2  0  0  0  0
 18 14  1  0  0  0  0
 19  8  2  0  0  0  0
 19  4  1  0  0  0  0
 20 22  2  0  0  0  0
 20 17  1  0  0  0  0
 21  7  2  0  0  0  0
 22 19  1  0  0  0  0
 23 16  1  0  0  0  0
 24 12  1  0  0  0  0
 24 13  1  1  0  0  0
 25 22  1  0  0  0  0
 26 25  1  0  0  0  0
 27  8  1  0  0  0  0
 28 27  1  0  0  0  0
 28 32  1  0  0  0  0
 29 33  1  0  0  0  0
 29 31  2  0  0  0  0
 30 32  2  0  0  0  0
 30 34  1  0  0  0  0
 31 30  1  0  0  0  0
 33 28  2  0  0  0  0
 34 42  1  0  0  0  0
 35 36  1  0  0  0  0
 35 34  1  0  0  0  0
 37 38  1  6  0  0  0
 37 36  1  0  0  0  0
 39 41  1  0  0  0  0
 39 37  1  0  0  0  0
 40 39  2  0  0  0  0
 42 43  1  0  0  0  0
 43 46  1  0  0  0  0
 44 46  1  0  0  0  0
 46 45  1  0  0  0  0
M  END
>  <MODEL>
4

>  <REMARK>
 VINA RESULT:      -7.1      4.075      7.785
  Name = 
  11 active torsions:
  status: ('A' for Active; 'I' for Inactive)
    1  A    between atoms: C_1  and  C_9
    2  A    between atoms: C_1  and  C_34
    3  A    between atoms: N_2  and  C_18
    4  A    between atoms: N_2  and  N_19
    5  A    between atoms: N_2  and  C_28
    6  A    between atoms: C_4  and  N_40
    7  A    between atoms: C_6  and  C_43
    8  A    between atoms: C_12  and  N_19
    9  A    between atoms: C_12  and  C_33
   10  A    between atoms: C_18  and  C_34
   11  A    between atoms: C_20  and  N_40
                            x       y       z     vdW  Elec       q    Type
                         _______ _______ _______ _____ _____    ______ ____

>  <TORSDO>
F 11

$$$$
=
 OpenBabel10222420113D

 46 50  0  0  1  0  0  0  0  0999 V2000
  184.7380  177.2560  142.7100 O   0  0  0  0  0  0  0  0  0  0  0  0
  188.9780  177.9730  141.2990 C   0  0  0  0  0  0  0  0  0  0  0  0
  189.8780  177.0160  140.8250 C   0  0  0  0  0  3  0  0  0  0  0  0
  189.9000  176.6550  139.4810 C   0  0  0  0  0  0  0  0  0  0  0  0
  185.6810  178.0810  142.5740 C   0  0  0  0  0  0  0  0  0  0  0  0
  190.8300  175.7020  139.0660 C   0  0  0  0  0  3  0  0  0  0  0  0
  190.8340  177.1280  145.7160 C   0  0  0  0  0  0  0  0  0  0  0  0
  188.0430  178.1800  139.0490 C   0  0  0  0  0  0  0  0  0  0  0  0
  188.0520  178.5500  140.4110 C   0  0  0  0  0  0  0  0  0  0  0  0
  190.3970  176.4280  146.9570 C   0  0  0  0  0  1  0  0  0  0  0  0
  185.9580  178.1010  145.0570 C   0  0  0  0  0  1  0  0  0  0  0  0
  186.6410  178.3230  143.7100 C   0  0  1  0  0  3  0  0  0  0  0  0
  188.5320  177.1190  144.8070 N   0  0  0  0  0  2  0  0  0  0  0  0
  185.8200  178.7630  141.3240 N   0  0  0  0  0  2  0  0  0  0  0  0
  188.9470  178.3340  142.7600 C   0  0  2  0  0  3  0  0  0  0  0  0
  189.8880  177.4480  144.6910 N   0  0  0  0  0  0  0  0  0  0  0  0
  190.8980  175.3210  137.7300 C   0  0  0  0  0  3  0  0  0  0  0  0
  187.0120  179.5020  140.9330 C   0  0  0  0  0  2  0  0  0  0  0  0
  188.9960  177.2430  138.5560 C   0  0  0  0  0  0  0  0  0  0  0  0
  190.0400  175.8990  136.8000 C   0  0  0  0  0  3  0  0  0  0  0  0
  192.0480  177.4340  145.5810 O   0  0  0  0  0  0  0  0  0  0  0  0
  189.0910  176.8510  137.1880 C   0  0  0  0  0  0  0  0  0  0  0  0
  190.2610  178.1330  143.4750 C   0  0  0  0  0  2  0  0  0  0  0  0
  187.9260  177.4990  143.5280 C   0  0  2  0  0  3  0  0  0  0  0  0
  188.2770  177.4540  136.0910 C   0  0  0  0  0  2  0  0  0  0  0  0
  187.9480  176.4740  135.1540 O   0  0  0  0  0  1  0  0  0  0  0  0
  187.0140  178.7160  138.2050 N   0  0  0  0  0  2  0  0  0  0  0  0
  185.6990  178.1560  138.1400 C   0  0  0  0  0  0  0  0  0  0  0  0
  183.3150  178.3870  138.5040 C   0  0  0  0  0  3  0  0  0  0  0  0
  184.1980  176.3130  137.5880 C   0  0  0  0  0  0  0  0  0  0  0  0
  183.1120  177.0920  138.0190 C   0  0  0  0  0  3  0  0  0  0  0  0
  185.4880  176.8580  137.6510 C   0  0  0  0  0  3  0  0  0  0  0  0
  184.6070  178.9170  138.5630 C   0  0  0  0  0  3  0  0  0  0  0  0
  183.9990  174.9790  137.0760 N   0  0  0  0  0  0  0  0  0  0  0  0
  184.8390  173.8710  137.5150 C   0  0  0  0  0  2  0  0  0  0  0  0
  185.7400  173.4180  136.3790 C   0  0  0  0  0  2  0  0  0  0  0  0
  186.9860  172.7530  136.9350 C   0  0  2  0  0  3  0  0  0  0  0  0
  187.9240  173.7110  137.2780 F   0  0  0  0  0  0  0  0  0  0  0  0
  187.5590  171.8180  135.9240 C   0  0  0  0  0  0  0  0  0  0  0  0
  188.7700  171.9050  135.5890 O   0  0  0  0  0  0  0  0  0  0  0  0
  186.7250  170.8390  135.3160 N   0  0  0  0  0  1  0  0  0  0  0  0
  182.8720  174.6810  136.2930 N   0  0  0  0  0  2  0  0  0  0  0  0
  182.1730  173.5750  136.9340 C   0  0  0  0  0  2  0  0  0  0  0  0
  179.9040  173.1340  137.4970 F   0  0  0  0  0  0  0  0  0  0  0  0
  180.5060  175.2710  137.0640 F   0  0  0  0  0  0  0  0  0  0  0  0
  180.9120  174.0720  137.6190 C   0  0  0  0  0  3  0  0  0  0  0  0
  2 15  1  0  0  0  0
  3  2  1  0  0  0  0
  4  3  2  0  0  0  0
  5  1  2  0  0  0  0
  5 12  1  0  0  0  0
  6  4  1  0  0  0  0
  7 10  1  0  0  0  0
  8  9  1  0  0  0  0
  9 18  1  0  0  0  0
  9  2  2  0  0  0  0
 12 11  1  1  0  0  0
 14  5  1  0  0  0  0
 15 23  1  1  0  0  0
 15 24  1  0  0  0  0
 16 13  1  0  0  0  0
 16  7  1  0  0  0  0
 17  6  2  0  0  0  0
 18 14  1  0  0  0  0
 19  8  2  0  0  0  0
 19  4  1  0  0  0  0
 20 22  2  0  0  0  0
 20 17  1  0  0  0  0
 21  7  2  0  0  0  0
 22 19  1  0  0  0  0
 23 16  1  0  0  0  0
 24 12  1  0  0  0  0
 24 13  1  1  0  0  0
 25 22  1  0  0  0  0
 26 25  1  0  0  0  0
 27  8  1  0  0  0  0
 28 27  1  0  0  0  0
 28 33  1  0  0  0  0
 29 33  2  0  0  0  0
 30 32  1  0  0  0  0
 30 31  2  0  0  0  0
 31 29  1  0  0  0  0
 32 28  2  0  0  0  0
 34 35  1  0  0  0  0
 34 30  1  0  0  0  0
 36 37  1  0  0  0  0
 36 35  1  0  0  0  0
 37 38  1  6  0  0  0
 39 37  1  0  0  0  0
 40 39  2  0  0  0  0
 41 39  1  0  0  0  0
 42 43  1  0  0  0  0
 42 34  1  0  0  0  0
 43 46  1  0  0  0  0
 44 46  1  0  0  0  0
 45 46  1  0  0  0  0
M  END
>  <MODEL>
5

>  <REMARK>
 VINA RESULT:      -6.4      3.772      8.224
  Name = 
  11 active torsions:
  status: ('A' for Active; 'I' for Inactive)
    1  A    between atoms: C_1  and  C_9
    2  A    between atoms: C_1  and  C_34
    3  A    between atoms: N_2  and  C_18
    4  A    between atoms: N_2  and  N_19
    5  A    between atoms: N_2  and  C_28
    6  A    between atoms: C_4  and  N_40
    7  A    between atoms: C_6  and  C_43
    8  A    between atoms: C_12  and  N_19
    9  A    between atoms: C_12  and  C_33
   10  A    between atoms: C_18  and  C_34
   11  A    between atoms: C_20  and  N_40
                            x       y       z     vdW  Elec       q    Type
                         _______ _______ _______ _____ _____    ______ ____

>  <TORSDO>
F 11

$$$$
=
 OpenBabel10222420113D

 46 50  0  0  1  0  0  0  0  0999 V2000
  192.2830  179.2660  143.3660 O   0  0  0  0  0  0  0  0  0  0  0  0
  188.5790  177.2020  141.7830 C   0  0  0  0  0  0  0  0  0  0  0  0
  187.4540  177.8100  141.2230 C   0  0  0  0  0  3  0  0  0  0  0  0
  187.4010  178.1090  139.8660 C   0  0  0  0  0  0  0  0  0  0  0  0
  191.6590  178.1810  143.2210 C   0  0  0  0  0  0  0  0  0  0  0  0
  186.2440  178.7060  139.3640 C   0  0  0  0  0  3  0  0  0  0  0  0
  186.2890  177.5320  146.0620 C   0  0  0  0  0  0  0  0  0  0  0  0
  189.6660  177.2420  139.5930 C   0  0  0  0  0  0  0  0  0  0  0  0
  189.6920  176.9250  140.9680 C   0  0  0  0  0  0  0  0  0  0  0  0
  186.4060  178.3670  147.2910 C   0  0  0  0  0  1  0  0  0  0  0  0
  191.2530  178.1410  145.6860 C   0  0  0  0  0  1  0  0  0  0  0  0
  190.7570  177.6780  144.3180 C   0  0  1  0  0  3  0  0  0  0  0  0
  188.5210  178.2470  145.2670 N   0  0  0  0  0  2  0  0  0  0  0  0
  191.8180  177.4570  141.9970 N   0  0  0  0  0  2  0  0  0  0  0  0
  188.6350  176.9080  143.2580 C   0  0  2  0  0  3  0  0  0  0  0  0
  187.3470  177.5010  145.1000 N   0  0  0  0  0  0  0  0  0  0  0  0
  186.1400  179.0100  138.0100 C   0  0  0  0  0  3  0  0  0  0  0  0
  190.9460  176.3670  141.5820 C   0  0  0  0  0  2  0  0  0  0  0  0
  188.4980  177.8140  139.0130 C   0  0  0  0  0  0  0  0  0  0  0  0
  187.1920  178.7090  137.1490 C   0  0  0  0  0  3  0  0  0  0  0  0
  185.2440  176.8520  145.8820 O   0  0  0  0  0  0  0  0  0  0  0  0
  188.3670  178.1180  137.6250 C   0  0  0  0  0  0  0  0  0  0  0  0
  187.2840  176.7010  143.8990 C   0  0  0  0  0  2  0  0  0  0  0  0
  189.2920  178.0450  144.0370 C   0  0  2  0  0  3  0  0  0  0  0  0
  189.3940  177.7770  136.5980 C   0  0  0  0  0  2  0  0  0  0  0  0
  188.7680  177.3770  135.4170 O   0  0  0  0  0  1  0  0  0  0  0  0
  190.8610  177.0390  138.8250 N   0  0  0  0  0  2  0  0  0  0  0  0
  191.1520  175.8060  138.1600 C   0  0  0  0  0  0  0  0  0  0  0  0
  190.3670  173.7770  137.0940 C   0  0  0  0  0  3  0  0  0  0  0  0
  192.7570  174.2030  137.2580 C   0  0  0  0  0  0  0  0  0  0  0  0
  191.6870  173.3890  136.8510 C   0  0  0  0  0  3  0  0  0  0  0  0
  192.4750  175.4130  137.9110 C   0  0  0  0  0  3  0  0  0  0  0  0
  190.1010  174.9840  137.7470 C   0  0  0  0  0  3  0  0  0  0  0  0
  194.1230  173.8190  137.0040 N   0  0  0  0  0  0  0  0  0  0  0  0
  194.9940  173.3730  138.0860 C   0  0  0  0  0  2  0  0  0  0  0  0
  196.0640  174.4170  138.3570 C   0  0  0  0  0  2  0  0  0  0  0  0
  196.1390  174.7130  139.8430 C   0  0  2  0  0  3  0  0  0  0  0  0
  195.1590  175.6240  140.1970 F   0  0  0  0  0  0  0  0  0  0  0  0
  197.4850  175.2530  140.1880 C   0  0  0  0  0  0  0  0  0  0  0  0
  197.7820  175.5080  141.3850 O   0  0  0  0  0  0  0  0  0  0  0  0
  198.4300  175.5050  139.1560 N   0  0  0  0  0  1  0  0  0  0  0  0
  194.5870  173.6790  135.6860 N   0  0  0  0  0  2  0  0  0  0  0  0
  194.1450  174.8480  134.9390 C   0  0  0  0  0  2  0  0  0  0  0  0
  196.4260  175.4400  135.2650 F   0  0  0  0  0  0  0  0  0  0  0  0
  194.8320  176.8150  136.0920 F   0  0  0  0  0  0  0  0  0  0  0  0
  195.1660  175.9670  135.0530 C   0  0  0  0  0  3  0  0  0  0  0  0
  2 15  1  0  0  0  0
  3  2  1  0  0  0  0
  4  3  2  0  0  0  0
  5  1  2  0  0  0  0
  5 12  1  0  0  0  0
  6  4  1  0  0  0  0
  7 10  1  0  0  0  0
  8  9  1  0  0  0  0
  9 18  1  0  0  0  0
  9  2  2  0  0  0  0
 12 11  1  1  0  0  0
 14  5  1  0  0  0  0
 15 23  1  1  0  0  0
 15 24  1  0  0  0  0
 16 13  1  0  0  0  0
 16  7  1  0  0  0  0
 17  6  2  0  0  0  0
 18 14  1  0  0  0  0
 19  8  2  0  0  0  0
 19  4  1  0  0  0  0
 20 22  2  0  0  0  0
 20 17  1  0  0  0  0
 21  7  2  0  0  0  0
 22 19  1  0  0  0  0
 23 16  1  0  0  0  0
 24 12  1  0  0  0  0
 24 13  1  1  0  0  0
 25 22  1  0  0  0  0
 26 25  1  0  0  0  0
 27  8  1  0  0  0  0
 28 27  1  0  0  0  0
 29 33  1  0  0  0  0
 30 32  2  0  0  0  0
 31 29  2  0  0  0  0
 31 30  1  0  0  0  0
 32 28  1  0  0  0  0
 33 28  2  0  0  0  0
 34 30  1  0  0  0  0
 34 35  1  0  0  0  0
 35 36  1  0  0  0  0
 36 37  1  0  0  0  0
 37 39  1  0  0  0  0
 37 38  1  6  0  0  0
 39 40  2  0  0  0  0
 41 39  1  0  0  0  0
 42 34  1  0  0  0  0
 43 46  1  0  0  0  0
 43 42  1  0  0  0  0
 46 44  1  0  0  0  0
 46 45  1  0  0  0  0
M  END
>  <MODEL>
6

>  <REMARK>
 VINA RESULT:      -6.3      3.463      8.764
  Name = 
  11 active torsions:
  status: ('A' for Active; 'I' for Inactive)
    1  A    between atoms: C_1  and  C_9
    2  A    between atoms: C_1  and  C_34
    3  A    between atoms: N_2  and  C_18
    4  A    between atoms: N_2  and  N_19
    5  A    between atoms: N_2  and  C_28
    6  A    between atoms: C_4  and  N_40
    7  A    between atoms: C_6  and  C_43
    8  A    between atoms: C_12  and  N_19
    9  A    between atoms: C_12  and  C_33
   10  A    between atoms: C_18  and  C_34
   11  A    between atoms: C_20  and  N_40
                            x       y       z     vdW  Elec       q    Type
                         _______ _______ _______ _____ _____    ______ ____

>  <TORSDO>
F 11

$$$$
=
 OpenBabel10222420113D

 46 50  0  0  1  0  0  0  0  0999 V2000
  184.7500  177.1620  142.7780 O   0  0  0  0  0  0  0  0  0  0  0  0
  188.9690  178.0160  141.3810 C   0  0  0  0  0  0  0  0  0  0  0  0
  189.8910  177.0930  140.8840 C   0  0  0  0  0  3  0  0  0  0  0  0
  189.9200  176.7650  139.5320 C   0  0  0  0  0  0  0  0  0  0  0  0
  185.6710  178.0130  142.6600 C   0  0  0  0  0  0  0  0  0  0  0  0
  190.8730  175.8440  139.0940 C   0  0  0  0  0  3  0  0  0  0  0  0
  190.8500  177.1130  145.7760 C   0  0  0  0  0  0  0  0  0  0  0  0
  188.0270  178.2540  139.1370 C   0  0  0  0  0  0  0  0  0  0  0  0
  188.0280  178.5910  140.5080 C   0  0  0  0  0  0  0  0  0  0  0  0
  190.4320  176.3730  147.0000 C   0  0  0  0  0  1  0  0  0  0  0  0
  185.9510  177.9810  145.1430 C   0  0  0  0  0  1  0  0  0  0  0  0
  186.6270  178.2510  143.8010 C   0  0  1  0  0  3  0  0  0  0  0  0
  188.5470  177.0690  144.8680 N   0  0  0  0  0  2  0  0  0  0  0  0
  185.7930  178.7280  141.4260 N   0  0  0  0  0  2  0  0  0  0  0  0
  188.9300  178.3420  142.8500 C   0  0  2  0  0  3  0  0  0  0  0  0
  189.8960  177.4340  144.7600 N   0  0  0  0  0  0  0  0  0  0  0  0
  190.9490  175.4970  137.7490 C   0  0  0  0  0  3  0  0  0  0  0  0
  186.9660  179.5050  141.0520 C   0  0  0  0  0  2  0  0  0  0  0  0
  189.0020  177.3520  138.6220 C   0  0  0  0  0  0  0  0  0  0  0  0
  190.0760  176.0760  136.8330 C   0  0  0  0  0  3  0  0  0  0  0  0
  192.0550  177.4510  145.6470 O   0  0  0  0  0  0  0  0  0  0  0  0
  189.1050  176.9950  137.2450 C   0  0  0  0  0  0  0  0  0  0  0  0
  190.2500  178.1560  143.5600 C   0  0  0  0  0  2  0  0  0  0  0  0
  187.9310  177.4640  143.5980 C   0  0  2  0  0  3  0  0  0  0  0  0
  188.2750  177.6030  136.1630 C   0  0  0  0  0  2  0  0  0  0  0  0
  187.7760  176.6020  135.3310 O   0  0  0  0  0  1  0  0  0  0  0  0
  186.9840  178.7840  138.3070 N   0  0  0  0  0  2  0  0  0  0  0  0
  185.6740  178.2100  138.2510 C   0  0  0  0  0  0  0  0  0  0  0  0
  183.2840  178.4390  138.5730 C   0  0  0  0  0  3  0  0  0  0  0  0
  184.1940  176.3320  137.7660 C   0  0  0  0  0  0  0  0  0  0  0  0
  183.0970  177.1210  138.1460 C   0  0  0  0  0  3  0  0  0  0  0  0
  185.4800  176.8900  137.8200 C   0  0  0  0  0  3  0  0  0  0  0  0
  184.5710  178.9820  138.6250 C   0  0  0  0  0  3  0  0  0  0  0  0
  184.0130  174.9740  137.3140 N   0  0  0  0  0  0  0  0  0  0  0  0
  182.9370  174.6240  136.3940 C   0  0  0  0  0  2  0  0  0  0  0  0
  181.8600  173.8410  137.1260 C   0  0  0  0  0  2  0  0  0  0  0  0
  180.8010  173.3680  136.1470 C   0  0  2  0  0  3  0  0  0  0  0  0
  179.6850  174.1820  136.2230 F   0  0  0  0  0  0  0  0  0  0  0  0
  180.4250  171.9570  136.4450 C   0  0  0  0  0  0  0  0  0  0  0  0
  180.4780  171.5190  137.6240 O   0  0  0  0  0  0  0  0  0  0  0  0
  180.0270  171.0940  135.3870 N   0  0  0  0  0  1  0  0  0  0  0  0
  184.9830  173.9980  137.5930 N   0  0  0  0  0  2  0  0  0  0  0  0
  185.4920  173.5070  136.3200 C   0  0  0  0  0  2  0  0  0  0  0  0
  187.3310  172.0380  136.6630 F   0  0  0  0  0  0  0  0  0  0  0  0
  187.5330  174.1860  137.3420 F   0  0  0  0  0  0  0  0  0  0  0  0
  187.0010  173.3500  136.3780 C   0  0  0  0  0  3  0  0  0  0  0  0
  2 15  1  0  0  0  0
  3  2  1  0  0  0  0
  4  3  2  0  0  0  0
  5  1  2  0  0  0  0
  5 12  1  0  0  0  0
  6  4  1  0  0  0  0
  7 10  1  0  0  0  0
  8  9  1  0  0  0  0
  9 18  1  0  0  0  0
  9  2  2  0  0  0  0
 12 11  1  1  0  0  0
 14  5  1  0  0  0  0
 15 23  1  1  0  0  0
 15 24  1  0  0  0  0
 16 13  1  0  0  0  0
 16  7  1  0  0  0  0
 17  6  2  0  0  0  0
 18 14  1  0  0  0  0
 19  8  2  0  0  0  0
 19  4  1  0  0  0  0
 20 22  2  0  0  0  0
 20 17  1  0  0  0  0
 21  7  2  0  0  0  0
 22 19  1  0  0  0  0
 23 16  1  0  0  0  0
 24 12  1  0  0  0  0
 24 13  1  1  0  0  0
 25 22  1  0  0  0  0
 26 25  1  0  0  0  0
 27  8  1  0  0  0  0
 28 27  1  0  0  0  0
 28 33  1  0  0  0  0
 29 33  2  0  0  0  0
 30 32  1  0  0  0  0
 30 31  2  0  0  0  0
 31 29  1  0  0  0  0
 32 28  2  0  0  0  0
 34 42  1  0  0  0  0
 34 30  1  0  0  0  0
 35 36  1  0  0  0  0
 35 34  1  0  0  0  0
 37 38  1  1  0  0  0
 37 39  1  0  0  0  0
 37 36  1  0  0  0  0
 39 40  2  0  0  0  0
 41 39  1  0  0  0  0
 43 46  1  0  0  0  0
 43 42  1  0  0  0  0
 46 44  1  0  0  0  0
 46 45  1  0  0  0  0
M  END
>  <MODEL>
7

>  <REMARK>
 VINA RESULT:      -6.2      4.019      8.038
  Name = 
  11 active torsions:
  status: ('A' for Active; 'I' for Inactive)
    1  A    between atoms: C_1  and  C_9
    2  A    between atoms: C_1  and  C_34
    3  A    between atoms: N_2  and  C_18
    4  A    between atoms: N_2  and  N_19
    5  A    between atoms: N_2  and  C_28
    6  A    between atoms: C_4  and  N_40
    7  A    between atoms: C_6  and  C_43
    8  A    between atoms: C_12  and  N_19
    9  A    between atoms: C_12  and  C_33
   10  A    between atoms: C_18  and  C_34
   11  A    between atoms: C_20  and  N_40
                            x       y       z     vdW  Elec       q    Type
                         _______ _______ _______ _____ _____    ______ ____

>  <TORSDO>
F 11

$$$$
=
 OpenBabel10222420113D

 46 50  0  0  1  0  0  0  0  0999 V2000
  184.4930  181.0320  143.5660 O   0  0  0  0  0  0  0  0  0  0  0  0
  184.9640  177.7780  140.4560 C   0  0  0  0  0  0  0  0  0  0  0  0
  184.9670  177.9380  139.0690 C   0  0  0  0  0  3  0  0  0  0  0  0
  186.1420  178.2310  138.3830 C   0  0  0  0  0  0  0  0  0  0  0  0
  184.5880  179.7970  143.3360 C   0  0  0  0  0  0  0  0  0  0  0  0
  186.0820  178.3670  136.9960 C   0  0  0  0  0  3  0  0  0  0  0  0
  180.1580  177.1140  140.0930 C   0  0  0  0  0  0  0  0  0  0  0  0
  187.3570  178.2800  140.4990 C   0  0  0  0  0  0  0  0  0  0  0  0
  186.1600  177.9590  141.1740 C   0  0  0  0  0  0  0  0  0  0  0  0
  178.9310  177.9000  140.4050 C   0  0  0  0  0  1  0  0  0  0  0  0
  182.1890  179.5420  143.9840 C   0  0  0  0  0  1  0  0  0  0  0  0
  183.3430  178.9640  143.1690 C   0  0  1  0  0  3  0  0  0  0  0  0
  181.5690  178.6320  141.4460 N   0  0  0  0  0  2  0  0  0  0  0  0
  185.8920  179.2180  143.2250 N   0  0  0  0  0  2  0  0  0  0  0  0
  183.6820  177.4870  141.1890 C   0  0  2  0  0  3  0  0  0  0  0  0
  181.4270  177.5060  140.6240 N   0  0  0  0  0  0  0  0  0  0  0  0
  187.2340  178.6460  136.2660 C   0  0  0  0  0  3  0  0  0  0  0  0
  186.1450  177.8930  142.6760 C   0  0  0  0  0  2  0  0  0  0  0  0
  187.3700  178.3900  139.0790 C   0  0  0  0  0  0  0  0  0  0  0  0
  188.4540  178.7830  136.9220 C   0  0  0  0  0  3  0  0  0  0  0  0
  180.0640  176.0990  139.3540 O   0  0  0  0  0  0  0  0  0  0  0  0
  188.5420  178.6610  138.3130 C   0  0  0  0  0  0  0  0  0  0  0  0
  182.6430  176.7730  140.3580 C   0  0  0  0  0  2  0  0  0  0  0  0
  183.0100  178.7660  141.6820 C   0  0  2  0  0  3  0  0  0  0  0  0
  189.9130  178.7550  138.8960 C   0  0  0  0  0  2  0  0  0  0  0  0
  190.5880  177.5480  138.7140 O   0  0  0  0  0  1  0  0  0  0  0  0
  188.5260  178.5580  141.2820 N   0  0  0  0  0  2  0  0  0  0  0  0
  189.1260  177.5890  142.1480 C   0  0  0  0  0  0  0  0  0  0  0  0
  190.0820  175.3860  142.4630 C   0  0  0  0  0  3  0  0  0  0  0  0
  189.9450  176.9200  144.3460 C   0  0  0  0  0  0  0  0  0  0  0  0
  190.3070  175.6720  143.8120 C   0  0  0  0  0  3  0  0  0  0  0  0
  189.3570  177.8720  143.5020 C   0  0  0  0  0  3  0  0  0  0  0  0
  189.4930  176.3430  141.6330 C   0  0  0  0  0  3  0  0  0  0  0  0
  190.1820  177.2310  145.7350 N   0  0  0  0  0  0  0  0  0  0  0  0
  189.0900  177.2420  146.7010 C   0  0  0  0  0  2  0  0  0  0  0  0
  187.9750  178.1520  146.2160 C   0  0  0  0  0  2  0  0  0  0  0  0
  186.6270  177.5980  146.6430 C   0  0  2  0  0  3  0  0  0  0  0  0
  186.0930  176.8170  145.6340 F   0  0  0  0  0  0  0  0  0  0  0  0
  185.6960  178.7170  146.9690 C   0  0  0  0  0  0  0  0  0  0  0  0
  186.1100  179.7290  147.5930 O   0  0  0  0  0  0  0  0  0  0  0  0
  184.3280  178.6270  146.5930 N   0  0  0  0  0  1  0  0  0  0  0  0
  191.4940  177.3400  146.2240 N   0  0  0  0  0  2  0  0  0  0  0  0
  191.5180  176.7450  147.5530 C   0  0  0  0  0  2  0  0  0  0  0  0
  193.5460  175.6290  148.1010 F   0  0  0  0  0  0  0  0  0  0  0  0
  192.4340  174.9820  146.2410 F   0  0  0  0  0  0  0  0  0  0  0  0
  192.2970  175.4420  147.5370 C   0  0  0  0  0  3  0  0  0  0  0  0
  2  9  1  0  0  0  0
  2 15  1  0  0  0  0
  3  2  2  0  0  0  0
  4  3  1  0  0  0  0
  4 19  1  0  0  0  0
  5  1  2  0  0  0  0
  6  4  2  0  0  0  0
  7 10  1  0  0  0  0
  7 16  1  0  0  0  0
  8  9  2  0  0  0  0
  8 27  1  0  0  0  0
  9 18  1  0  0  0  0
 12  5  1  0  0  0  0
 12 11  1  1  0  0  0
 14  5  1  0  0  0  0
 15 23  1  6  0  0  0
 15 24  1  0  0  0  0
 16 13  1  0  0  0  0
 17 20  2  0  0  0  0
 17  6  1  0  0  0  0
 18 14  1  0  0  0  0
 19  8  1  0  0  0  0
 20 22  1  0  0  0  0
 21  7  2  0  0  0  0
 22 25  1  0  0  0  0
 22 19  2  0  0  0  0
 23 16  1  0  0  0  0
 24 13  1  1  0  0  0
 24 12  1  0  0  0  0
 26 25  1  0  0  0  0
 27 28  1  0  0  0  0
 28 32  1  0  0  0  0
 29 31  2  0  0  0  0
 30 34  1  0  0  0  0
 31 30  1  0  0  0  0
 32 30  2  0  0  0  0
 33 28  2  0  0  0  0
 33 29  1  0  0  0  0
 34 42  1  0  0  0  0
 34 35  1  0  0  0  0
 36 37  1  0  0  0  0
 36 35  1  0  0  0  0
 37 38  1  6  0  0  0
 37 39  1  0  0  0  0
 39 40  2  0  0  0  0
 41 39  1  0  0  0  0
 42 43  1  0  0  0  0
 45 46  1  0  0  0  0
 46 43  1  0  0  0  0
 46 44  1  0  0  0  0
M  END
>  <MODEL>
8

>  <REMARK>
 VINA RESULT:      -5.9      3.832      7.357
  Name = 
  11 active torsions:
  status: ('A' for Active; 'I' for Inactive)
    1  A    between atoms: C_1  and  C_9
    2  A    between atoms: C_1  and  C_34
    3  A    between atoms: N_2  and  C_18
    4  A    between atoms: N_2  and  N_19
    5  A    between atoms: N_2  and  C_28
    6  A    between atoms: C_4  and  N_40
    7  A    between atoms: C_6  and  C_43
    8  A    between atoms: C_12  and  N_19
    9  A    between atoms: C_12  and  C_33
   10  A    between atoms: C_18  and  C_34
   11  A    between atoms: C_20  and  N_40
                            x       y       z     vdW  Elec       q    Type
                         _______ _______ _______ _____ _____    ______ ____

>  <TORSDO>
F 11

$$$$
=
 OpenBabel10222420113D

 46 50  0  0  1  0  0  0  0  0999 V2000
  190.3490  176.2250  140.8040 O   0  0  0  0  0  0  0  0  0  0  0  0
  189.9980  174.9420  136.4780 C   0  0  0  0  0  0  0  0  0  0  0  0
  190.0280  173.6360  135.9850 C   0  0  0  0  0  3  0  0  0  0  0  0
  188.8670  172.8730  135.9060 C   0  0  0  0  0  0  0  0  0  0  0  0
  190.2760  176.5840  139.5990 C   0  0  0  0  0  0  0  0  0  0  0  0
  188.9600  171.5780  135.3930 C   0  0  0  0  0  3  0  0  0  0  0  0
  194.8190  175.0030  135.8310 C   0  0  0  0  0  0  0  0  0  0  0  0
  187.5990  174.7120  136.8890 C   0  0  0  0  0  0  0  0  0  0  0  0
  188.7820  175.4780  136.9400 C   0  0  0  0  0  0  0  0  0  0  0  0
  196.0280  174.9410  136.7010 C   0  0  0  0  0  1  0  0  0  0  0  0
  192.6610  177.3160  139.7230 C   0  0  0  0  0  1  0  0  0  0  0  0
  191.5350  176.8380  138.8110 C   0  0  1  0  0  3  0  0  0  0  0  0
  193.3560  175.4880  137.7680 N   0  0  0  0  0  2  0  0  0  0  0  0
  188.9830  176.7290  139.0030 N   0  0  0  0  0  2  0  0  0  0  0  0
  191.2650  175.7480  136.5840 C   0  0  2  0  0  3  0  0  0  0  0  0
  193.5330  175.2750  136.3950 N   0  0  0  0  0  0  0  0  0  0  0  0
  187.8230  170.7830  135.2810 C   0  0  0  0  0  3  0  0  0  0  0  0
  188.7600  176.8440  137.5690 C   0  0  0  0  0  2  0  0  0  0  0  0
  187.6200  173.3980  136.3370 C   0  0  0  0  0  0  0  0  0  0  0  0
  186.5860  171.2830  135.6750 C   0  0  0  0  0  3  0  0  0  0  0  0
  194.9450  174.8120  134.5930 O   0  0  0  0  0  0  0  0  0  0  0  0
  186.4640  172.5740  136.2010 C   0  0  0  0  0  0  0  0  0  0  0  0
  192.3330  175.3540  135.5930 C   0  0  0  0  0  2  0  0  0  0  0  0
  191.9080  175.6120  137.9620 C   0  0  2  0  0  3  0  0  0  0  0  0
  185.0770  173.0260  136.5200 C   0  0  0  0  0  2  0  0  0  0  0  0
  184.6740  172.4880  137.7410 O   0  0  0  0  0  1  0  0  0  0  0  0
  186.4060  175.2610  137.4680 N   0  0  0  0  0  2  0  0  0  0  0  0
  185.4990  176.0860  136.7310 C   0  0  0  0  0  0  0  0  0  0  0  0
  184.7780  177.0170  134.6140 C   0  0  0  0  0  3  0  0  0  0  0  0
  183.5640  177.5700  136.6480 C   0  0  0  0  0  0  0  0  0  0  0  0
  183.7370  177.6900  135.2600 C   0  0  0  0  0  3  0  0  0  0  0  0
  184.4510  176.7620  137.3740 C   0  0  0  0  0  3  0  0  0  0  0  0
  185.6570  176.2160  135.3490 C   0  0  0  0  0  3  0  0  0  0  0  0
  182.4870  178.2520  137.3240 N   0  0  0  0  0  0  0  0  0  0  0  0
  182.5380  178.5020  138.7600 C   0  0  0  0  0  2  0  0  0  0  0  0
  183.9410  178.9190  139.1670 C   0  0  0  0  0  2  0  0  0  0  0  0
  184.2510  178.4140  140.5640 C   0  0  2  0  0  3  0  0  0  0  0  0
  183.2450  178.7870  141.4390 F   0  0  0  0  0  0  0  0  0  0  0  0
  185.5570  178.9640  141.0270 C   0  0  0  0  0  0  0  0  0  0  0  0
  185.6100  179.7250  142.0300 O   0  0  0  0  0  0  0  0  0  0  0  0
  186.7480  178.6480  140.3160 N   0  0  0  0  0  1  0  0  0  0  0  0
  181.4590  178.8610  136.5860 N   0  0  0  0  0  2  0  0  0  0  0  0
  180.7690  179.7860  137.4750 C   0  0  0  0  0  2  0  0  0  0  0  0
  180.9120  181.0260  135.4500 F   0  0  0  0  0  0  0  0  0  0  0  0
  181.2330  182.1200  137.4030 F   0  0  0  0  0  0  0  0  0  0  0  0
  180.5270  181.1110  136.7750 C   0  0  0  0  0  3  0  0  0  0  0  0
  2 15  1  0  0  0  0
  2  9  1  0  0  0  0
  3  2  2  0  0  0  0
  4  3  1  0  0  0  0
  4 19  1  0  0  0  0
  5  1  2  0  0  0  0
  6  4  2  0  0  0  0
  7 16  1  0  0  0  0
  7 10  1  0  0  0  0
  8  9  2  0  0  0  0
  8 27  1  0  0  0  0
  9 18  1  0  0  0  0
 12  5  1  0  0  0  0
 12 11  1  1  0  0  0
 14  5  1  0  0  0  0
 15 23  1  6  0  0  0
 15 24  1  0  0  0  0
 16 13  1  0  0  0  0
 17  6  1  0  0  0  0
 17 20  2  0  0  0  0
 18 14  1  0  0  0  0
 19  8  1  0  0  0  0
 20 22  1  0  0  0  0
 21  7  2  0  0  0  0
 22 19  2  0  0  0  0
 22 25  1  0  0  0  0
 23 16  1  0  0  0  0
 24 13  1  6  0  0  0
 24 12  1  0  0  0  0
 25 26  1  0  0  0  0
 28 32  1  0  0  0  0
 28 27  1  0  0  0  0
 29 31  2  0  0  0  0
 29 33  1  0  0  0  0
 30 34  1  0  0  0  0
 30 32  2  0  0  0  0
 31 30  1  0  0  0  0
 33 28  2  0  0  0  0
 34 35  1  0  0  0  0
 35 36  1  0  0  0  0
 36 37  1  0  0  0  0
 37 39  1  0  0  0  0
 37 38  1  1  0  0  0
 39 40  2  0  0  0  0
 41 39  1  0  0  0  0
 42 34  1  0  0  0  0
 42 43  1  0  0  0  0
 44 46  1  0  0  0  0
 46 45  1  0  0  0  0
 46 43  1  0  0  0  0
M  END
>  <MODEL>
9

>  <REMARK>
 VINA RESULT:      -5.8      3.661      5.489
  Name = 
  11 active torsions:
  status: ('A' for Active; 'I' for Inactive)
    1  A    between atoms: C_1  and  C_9
    2  A    between atoms: C_1  and  C_34
    3  A    between atoms: N_2  and  C_18
    4  A    between atoms: N_2  and  N_19
    5  A    between atoms: N_2  and  C_28
    6  A    between atoms: C_4  and  N_40
    7  A    between atoms: C_6  and  C_43
    8  A    between atoms: C_12  and  N_19
    9  A    between atoms: C_12  and  C_33
   10  A    between atoms: C_18  and  C_34
   11  A    between atoms: C_20  and  N_40
                            x       y       z     vdW  Elec       q    Type
                         _______ _______ _______ _____ _____    ______ ____

>  <TORSDO>
F 11

$$$$
