=
 OpenBabel10222420093D

 48 52  0  0  1  0  0  0  0  0999 V2000
  191.4650  178.3980  143.5950 S   0  0  0  0  0  0  0  0  0  0  0  0
  189.3640  177.3370  146.7300 O   0  0  0  0  0  0  0  0  0  0  0  0
  191.0460  177.4450  145.0470 C   0  0  0  0  0  0  0  0  0  0  0  0
  188.8100  177.7530  143.1320 C   0  0  0  0  0  0  0  0  0  0  0  0
  190.2160  177.5210  142.5960 C   0  0  1  0  0  3  0  0  0  0  0  0
  192.0000  176.6990  145.6100 C   0  0  0  0  0  3  0  0  0  0  0  0
  186.1780  178.1070  144.1100 C   0  0  0  0  0  0  0  0  0  0  0  0
  187.7290  177.9010  142.2500 C   0  0  0  0  0  3  0  0  0  0  0  0
  186.4290  178.0750  142.7320 C   0  0  0  0  0  3  0  0  0  0  0  0
  188.5550  177.7220  144.5280 C   0  0  0  0  0  0  0  0  0  0  0  0
  187.2440  177.8940  144.9930 C   0  0  0  0  0  3  0  0  0  0  0  0
  189.6400  177.4880  145.5080 C   0  0  0  0  0  0  0  0  0  0  0  0
  191.6320  175.1800  147.6870 N   0  0  0  0  0  0  0  0  0  0  0  0
  191.8000  175.8550  146.7610 C   0  0  0  0  0  0  0  0  0  0  0  0
  190.4090  177.8310  141.1060 C   0  0  0  0  0  2  0  0  0  0  0  0
  190.4360  176.5720  140.2450 C   0  0  0  0  0  2  0  0  0  0  0  0
  191.7890  176.4390  139.5690 C   0  0  2  0  0  3  0  0  0  0  0  0
  192.7140  177.5050  140.1430 C   0  0  0  0  0  1  0  0  0  0  0  0
  190.5130  175.7120  137.5290 C   0  0  0  0  0  1  0  0  0  0  0  0
  191.6540  176.5790  138.0440 C   0  0  2  0  0  3  0  0  0  0  0  0
  192.9170  176.2030  137.3270 C   0  0  0  0  0  0  0  0  0  0  0  0
  196.8580  173.9560  136.3860 C   0  0  0  0  0  1  0  0  0  0  0  0
  195.3780  172.6230  138.5480 O   0  0  0  0  0  0  0  0  0  0  0  0
  194.5650  175.0560  136.1000 C   0  0  1  0  0  3  0  0  0  0  0  0
  194.8530  176.4200  136.3700 O   0  0  0  0  0  0  0  0  0  0  0  0
  195.4940  174.2080  136.8160 N   0  0  0  0  0  0  0  0  0  0  0  0
  193.1900  174.8430  136.7790 C   0  0  1  0  0  3  0  0  0  0  0  0
  194.8180  173.4880  137.8220 C   0  0  0  0  0  0  0  0  0  0  0  0
  193.8610  177.0430  137.0780 N   0  0  0  0  0  0  0  0  0  0  0  0
  193.3900  173.8350  137.9200 C   0  0  0  0  0  2  0  0  0  0  0  0
  184.7610  178.2280  144.6410 C   0  0  1  0  0  3  0  0  0  0  0  0
  185.4330  179.1500  146.8540 C   0  0  0  0  0  2  0  0  0  0  0  0
  184.6950  178.2930  146.1490 C   0  0  0  0  0  3  0  0  0  0  0  0
  183.9720  179.3770  143.9990 C   0  0  0  0  0  2  0  0  0  0  0  0
  182.7200  178.4900  140.2710 C   0  0  1  0  0  3  0  0  0  0  0  0
  183.1200  178.8360  141.6690 N   0  0  0  0  0  0  0  0  0  0  0  0
  181.7820  178.5650  143.5480 O   0  0  0  0  0  0  0  0  0  0  0  0
  183.9690  179.0440  140.4610 C   0  0  0  0  0  2  0  0  0  0  0  0
  182.9030  178.8850  143.0760 C   0  0  0  0  0  0  0  0  0  0  0  0
  182.7890  176.9780  140.1110 C   0  0  0  0  0  2  0  0  0  0  0  0
  182.1740  176.5770  138.9220 O   0  0  0  0  0  0  0  0  0  0  0  0
  183.1890  175.9940  138.1640 C   0  0  0  0  0  2  0  0  0  0  0  0
  182.8630  177.4520  136.1760 C   0  0  0  0  0  1  0  0  0  0  0  0
  183.8300  177.0460  137.2720 C   0  0  2  0  0  3  0  0  0  0  0  0
  185.1020  176.5050  136.6390 C   0  0  0  0  0  2  0  0  0  0  0  0
  186.3040  176.7840  137.5250 C   0  0  0  0  0  2  0  0  0  0  0  0
  187.7990  178.5280  138.2990 N   0  0  0  0  0  1  0  0  0  0  0  0
  186.6330  178.2620  137.4780 C   0  0  0  0  0  2  0  0  0  0  0  0
  1  3  1  0  0  0  0
  3 12  1  0  0  0  0
  3  6  2  0  0  0  0
  4 10  1  0  0  0  0
  5 15  1  6  0  0  0
  5  4  1  0  0  0  0
  5  1  1  0  0  0  0
  6 14  1  0  0  0  0
  7 31  1  0  0  0  0
  7 11  1  0  0  0  0
  8  9  1  0  0  0  0
  8  4  2  0  0  0  0
  9  7  2  0  0  0  0
 10 11  2  0  0  0  0
 10 12  1  0  0  0  0
 12  2  2  0  0  0  0
 14 13  3  0  0  0  0
 16 15  1  0  0  0  0
 17 18  1  1  0  0  0
 17 16  1  0  0  0  0
 20 19  1  6  0  0  0
 20 17  1  0  0  0  0
 21 20  1  0  0  0  0
 22 26  1  0  0  0  0
 24 25  1  1  0  0  0
 24 27  1  0  0  0  0
 24 26  1  0  0  0  0
 25 29  1  0  0  0  0
 26 28  1  0  0  0  0
 27 21  1  0  0  0  0
 27 30  1  1  0  0  0
 28 30  1  0  0  0  0
 28 23  2  0  0  0  0
 29 21  2  0  0  0  0
 31 34  1  6  0  0  0
 31 33  1  0  0  0  0
 33 32  2  0  0  0  0
 35 40  1  1  0  0  0
 35 38  1  0  0  0  0
 35 36  1  0  0  0  0
 36 39  1  0  0  0  0
 38 36  1  0  0  0  0
 39 37  2  0  0  0  0
 39 34  1  0  0  0  0
 41 40  1  0  0  0  0
 42 41  1  0  0  0  0
 44 43  1  6  0  0  0
 44 42  1  0  0  0  0
 45 44  1  0  0  0  0
 45 46  1  0  0  0  0
 48 46  1  0  0  0  0
 48 47  1  0  0  0  0
M  END
>  <MODEL>
1

>  <REMARK>
 VINA RESULT:      -7.7      0.000      0.000
  Name = 
  17 active torsions:
  status: ('A' for Active; 'I' for Inactive)
    1  A    between atoms: C_1  and  C_11
    2  A    between atoms: C_5  and  C_8
    3  A    between atoms: C_5  and  O_37
    4  A    between atoms: C_11  and  C_24
    5  A    between atoms: C_19  and  C_44
    6  A    between atoms: C_20  and  C_25
    7  A    between atoms: C_21  and  C_24
    8  A    between atoms: C_21  and  C_44
    9  A    between atoms: C_26  and  C_36
   10  A    between atoms: C_26  and  C_47
   11  A    between atoms: C_27  and  C_33
   12  A    between atoms: C_32  and  C_33
   13  A    between atoms: C_32  and  C_48
   14  A    between atoms: C_33  and  C_42
   15  A    between atoms: C_36  and  C_46
   16  A    between atoms: O_37  and  C_43
   17  A    between atoms: C_43  and  C_47
                            x       y       z     vdW  Elec       q    Type
                         _______ _______ _______ _____ _____    ______ ____

>  <TORSDO>
F 17

$$$$
=
 OpenBabel10222420093D

 48 52  0  0  1  0  0  0  0  0999 V2000
  191.4910  177.5200  143.3520 S   0  0  0  0  0  0  0  0  0  0  0  0
  189.7630  177.4560  146.8710 O   0  0  0  0  0  0  0  0  0  0  0  0
  191.2100  176.9940  145.0360 C   0  0  0  0  0  0  0  0  0  0  0  0
  188.7640  177.0290  143.3710 C   0  0  0  0  0  0  0  0  0  0  0  0
  190.0690  176.5440  142.7560 C   0  0  1  0  0  3  0  0  0  0  0  0
  192.1840  176.3240  145.6590 C   0  0  0  0  0  3  0  0  0  0  0  0
  186.3110  177.8530  144.5180 C   0  0  0  0  0  0  0  0  0  0  0  0
  187.5860  177.0560  142.6090 C   0  0  0  0  0  3  0  0  0  0  0  0
  186.3750  177.4620  143.1740 C   0  0  0  0  0  3  0  0  0  0  0  0
  188.6950  177.3640  144.7490 C   0  0  0  0  0  0  0  0  0  0  0  0
  187.4690  177.7640  145.3000 C   0  0  0  0  0  3  0  0  0  0  0  0
  189.8840  177.2780  145.6270 C   0  0  0  0  0  0  0  0  0  0  0  0
  192.0160  175.3940  148.0800 N   0  0  0  0  0  0  0  0  0  0  0  0
  192.0870  175.8090  147.0020 C   0  0  0  0  0  0  0  0  0  0  0  0
  190.0810  176.4620  141.2240 C   0  0  0  0  0  2  0  0  0  0  0  0
  190.2160  177.8310  140.5660 C   0  0  0  0  0  2  0  0  0  0  0  0
  189.2540  177.9380  139.3960 C   0  0  2  0  0  3  0  0  0  0  0  0
  188.4980  176.6200  139.2810 C   0  0  0  0  0  1  0  0  0  0  0  0
  189.1490  179.1360  137.1900 C   0  0  0  0  0  1  0  0  0  0  0  0
  190.0070  178.2660  138.0970 C   0  0  2  0  0  3  0  0  0  0  0  0
  190.4120  177.0300  137.3500 C   0  0  0  0  0  0  0  0  0  0  0  0
  193.1450  173.9710  135.1970 C   0  0  0  0  0  1  0  0  0  0  0  0
  194.7400  176.0330  136.5550 O   0  0  0  0  0  0  0  0  0  0  0  0
  191.3650  174.9660  136.7420 C   0  0  1  0  0  3  0  0  0  0  0  0
  190.4280  175.4950  135.8150 O   0  0  0  0  0  0  0  0  0  0  0  0
  192.6870  174.9620  136.1540 N   0  0  0  0  0  0  0  0  0  0  0  0
  191.4030  176.0370  137.8600 C   0  0  1  0  0  3  0  0  0  0  0  0
  193.5170  175.8870  136.8200 C   0  0  0  0  0  0  0  0  0  0  0  0
  189.8980  176.6910  136.2190 N   0  0  0  0  0  0  0  0  0  0  0  0
  192.8130  176.6430  137.8690 C   0  0  0  0  0  2  0  0  0  0  0  0
  184.9870  178.2300  145.1580 C   0  0  1  0  0  3  0  0  0  0  0  0
  185.7930  179.4100  147.1960 C   0  0  0  0  0  2  0  0  0  0  0  0
  185.0830  178.4220  146.6530 C   0  0  0  0  0  3  0  0  0  0  0  0
  184.3120  179.4320  144.4830 C   0  0  0  0  0  2  0  0  0  0  0  0
  182.9950  178.6940  140.7450 C   0  0  1  0  0  3  0  0  0  0  0  0
  183.4210  178.9880  142.1480 N   0  0  0  0  0  0  0  0  0  0  0  0
  182.0780  178.7520  144.0280 O   0  0  0  0  0  0  0  0  0  0  0  0
  184.2750  179.1740  140.9390 C   0  0  0  0  0  2  0  0  0  0  0  0
  183.2130  179.0190  143.5560 C   0  0  0  0  0  0  0  0  0  0  0  0
  182.9800  177.1840  140.5530 C   0  0  0  0  0  2  0  0  0  0  0  0
  181.7740  176.7690  139.9840 O   0  0  0  0  0  0  0  0  0  0  0  0
  182.1170  176.2590  138.7320 C   0  0  0  0  0  2  0  0  0  0  0  0
  180.7160  177.5430  137.1270 C   0  0  0  0  0  1  0  0  0  0  0  0
  182.1100  177.3800  137.7030 C   0  0  2  0  0  3  0  0  0  0  0  0
  183.0830  177.0760  136.5760 C   0  0  0  0  0  2  0  0  0  0  0  0
  184.3280  176.3900  137.1110 C   0  0  0  0  0  2  0  0  0  0  0  0
  186.3160  177.3640  136.1230 N   0  0  0  0  0  1  0  0  0  0  0  0
  185.4350  177.4100  137.2750 C   0  0  0  0  0  2  0  0  0  0  0  0
  1  3  1  0  0  0  0
  3 12  1  0  0  0  0
  3  6  2  0  0  0  0
  4 10  1  0  0  0  0
  5 15  1  6  0  0  0
  5  1  1  0  0  0  0
  5  4  1  0  0  0  0
  6 14  1  0  0  0  0
  7 31  1  0  0  0  0
  7 11  1  0  0  0  0
  8  9  1  0  0  0  0
  8  4  2  0  0  0  0
  9  7  2  0  0  0  0
 10 11  2  0  0  0  0
 10 12  1  0  0  0  0
 12  2  2  0  0  0  0
 14 13  3  0  0  0  0
 16 15  1  0  0  0  0
 17 18  1  6  0  0  0
 17 16  1  0  0  0  0
 20 19  1  6  0  0  0
 20 17  1  0  0  0  0
 21 27  1  0  0  0  0
 21 20  1  0  0  0  0
 22 26  1  0  0  0  0
 23 28  2  0  0  0  0
 24 25  1  6  0  0  0
 24 27  1  0  0  0  0
 25 29  1  0  0  0  0
 26 24  1  0  0  0  0
 26 28  1  0  0  0  0
 27 30  1  6  0  0  0
 28 30  1  0  0  0  0
 29 21  2  0  0  0  0
 31 34  1  6  0  0  0
 31 33  1  0  0  0  0
 33 32  2  0  0  0  0
 35 40  1  1  0  0  0
 35 38  1  0  0  0  0
 35 36  1  0  0  0  0
 36 39  1  0  0  0  0
 38 36  1  0  0  0  0
 39 37  2  0  0  0  0
 39 34  1  0  0  0  0
 41 40  1  0  0  0  0
 42 41  1  0  0  0  0
 44 43  1  6  0  0  0
 44 42  1  0  0  0  0
 45 46  1  0  0  0  0
 45 44  1  0  0  0  0
 46 48  1  0  0  0  0
 47 48  1  0  0  0  0
M  END
>  <MODEL>
2

>  <REMARK>
 VINA RESULT:      -7.6      1.459      2.083
  Name = 
  17 active torsions:
  status: ('A' for Active; 'I' for Inactive)
    1  A    between atoms: C_1  and  C_11
    2  A    between atoms: C_5  and  C_8
    3  A    between atoms: C_5  and  O_37
    4  A    between atoms: C_11  and  C_24
    5  A    between atoms: C_19  and  C_44
    6  A    between atoms: C_20  and  C_25
    7  A    between atoms: C_21  and  C_24
    8  A    between atoms: C_21  and  C_44
    9  A    between atoms: C_26  and  C_36
   10  A    between atoms: C_26  and  C_47
   11  A    between atoms: C_27  and  C_33
   12  A    between atoms: C_32  and  C_33
   13  A    between atoms: C_32  and  C_48
   14  A    between atoms: C_33  and  C_42
   15  A    between atoms: C_36  and  C_46
   16  A    between atoms: O_37  and  C_43
   17  A    between atoms: C_43  and  C_47
                            x       y       z     vdW  Elec       q    Type
                         _______ _______ _______ _____ _____    ______ ____

>  <TORSDO>
F 17

$$$$
=
 OpenBabel10222420093D

 48 52  0  0  1  0  0  0  0  0999 V2000
  191.3290  177.6980  143.2170 S   0  0  0  0  0  0  0  0  0  0  0  0
  189.6320  177.5930  146.7500 O   0  0  0  0  0  0  0  0  0  0  0  0
  191.0740  177.1640  144.9040 C   0  0  0  0  0  0  0  0  0  0  0  0
  188.6140  177.1480  143.2580 C   0  0  0  0  0  0  0  0  0  0  0  0
  189.9240  176.6920  142.6320 C   0  0  1  0  0  3  0  0  0  0  0  0
  192.0670  176.5150  145.5170 C   0  0  0  0  0  3  0  0  0  0  0  0
  186.1530  177.9190  144.4260 C   0  0  0  0  0  0  0  0  0  0  0  0
  187.4300  177.1510  142.5050 C   0  0  0  0  0  3  0  0  0  0  0  0
  186.2140  177.5300  143.0810 C   0  0  0  0  0  3  0  0  0  0  0  0
  188.5490  177.4800  144.6370 C   0  0  0  0  0  0  0  0  0  0  0  0
  187.3190  177.8540  145.1990 C   0  0  0  0  0  3  0  0  0  0  0  0
  189.7460  177.4190  145.5050 C   0  0  0  0  0  0  0  0  0  0  0  0
  191.9370  175.5760  147.9380 N   0  0  0  0  0  0  0  0  0  0  0  0
  191.9910  175.9960  146.8600 C   0  0  0  0  0  0  0  0  0  0  0  0
  189.9250  176.6120  141.1000 C   0  0  0  0  0  2  0  0  0  0  0  0
  190.9930  177.4990  140.4690 C   0  0  0  0  0  2  0  0  0  0  0  0
  191.7640  176.7140  139.4230 C   0  0  2  0  0  3  0  0  0  0  0  0
  193.2170  177.1700  139.4610 C   0  0  0  0  0  1  0  0  0  0  0  0
  189.9090  177.7900  138.1120 C   0  0  0  0  0  1  0  0  0  0  0  0
  191.1520  176.9150  138.0270 C   0  0  2  0  0  3  0  0  0  0  0  0
  190.7900  175.6130  137.3760 C   0  0  0  0  0  0  0  0  0  0  0  0
  188.3110  172.4950  135.0100 C   0  0  0  0  0  1  0  0  0  0  0  0
  187.0850  175.1610  134.8410 O   0  0  0  0  0  0  0  0  0  0  0  0
  190.2680  173.9370  135.8080 C   0  0  1  0  0  3  0  0  0  0  0  0
  190.4500  173.4810  137.1410 O   0  0  0  0  0  0  0  0  0  0  0  0
  188.8860  173.7650  135.4160 N   0  0  0  0  0  0  0  0  0  0  0  0
  190.4880  175.4650  135.9220 C   0  0  1  0  0  3  0  0  0  0  0  0
  188.2690  175.0220  135.2490 C   0  0  0  0  0  0  0  0  0  0  0  0
  190.7590  174.4930  138.0110 N   0  0  0  0  0  0  0  0  0  0  0  0
  189.1570  176.1490  135.5790 C   0  0  0  0  0  2  0  0  0  0  0  0
  184.8270  178.2660  145.0770 C   0  0  1  0  0  3  0  0  0  0  0  0
  185.7230  179.3630  147.1240 C   0  0  0  0  0  2  0  0  0  0  0  0
  184.9280  178.4460  146.5740 C   0  0  0  0  0  3  0  0  0  0  0  0
  184.1270  179.4630  144.4180 C   0  0  0  0  0  2  0  0  0  0  0  0
  182.4650  178.5390  140.8630 C   0  0  1  0  0  3  0  0  0  0  0  0
  183.0210  178.9070  142.2010 N   0  0  0  0  0  0  0  0  0  0  0  0
  181.8290  178.8870  144.1940 O   0  0  0  0  0  0  0  0  0  0  0  0
  183.7800  178.9540  140.9180 C   0  0  0  0  0  2  0  0  0  0  0  0
  182.9340  179.0510  143.6150 C   0  0  0  0  0  0  0  0  0  0  0  0
  182.3530  177.0220  140.7890 C   0  0  0  0  0  2  0  0  0  0  0  0
  183.2400  176.5060  139.8410 O   0  0  0  0  0  0  0  0  0  0  0  0
  182.4310  175.9870  138.8300 C   0  0  0  0  0  2  0  0  0  0  0  0
  184.0740  174.9170  137.2990 C   0  0  0  0  0  1  0  0  0  0  0  0
  183.1460  176.1010  137.4920 C   0  0  2  0  0  3  0  0  0  0  0  0
  183.9570  177.3850  137.4290 C   0  0  0  0  0  2  0  0  0  0  0  0
  185.4300  177.0810  137.2200 C   0  0  0  0  0  2  0  0  0  0  0  0
  186.8160  179.0680  137.1290 N   0  0  0  0  0  1  0  0  0  0  0  0
  186.2660  178.0610  138.0170 C   0  0  0  0  0  2  0  0  0  0  0  0
  1  3  1  0  0  0  0
  3 12  1  0  0  0  0
  3  6  2  0  0  0  0
  4 10  1  0  0  0  0
  5 15  1  6  0  0  0
  5  1  1  0  0  0  0
  5  4  1  0  0  0  0
  6 14  1  0  0  0  0
  7 31  1  0  0  0  0
  7 11  1  0  0  0  0
  8  9  1  0  0  0  0
  8  4  2  0  0  0  0
  9  7  2  0  0  0  0
 10 11  2  0  0  0  0
 10 12  1  0  0  0  0
 12  2  2  0  0  0  0
 14 13  3  0  0  0  0
 16 15  1  0  0  0  0
 17 18  1  6  0  0  0
 17 16  1  0  0  0  0
 20 19  1  1  0  0  0
 20 17  1  0  0  0  0
 21 29  2  0  0  0  0
 21 20  1  0  0  0  0
 22 26  1  0  0  0  0
 23 28  2  0  0  0  0
 24 27  1  0  0  0  0
 24 25  1  1  0  0  0
 25 29  1  0  0  0  0
 26 24  1  0  0  0  0
 27 30  1  1  0  0  0
 27 21  1  0  0  0  0
 28 26  1  0  0  0  0
 28 30  1  0  0  0  0
 31 34  1  6  0  0  0
 31 33  1  0  0  0  0
 33 32  2  0  0  0  0
 35 40  1  1  0  0  0
 35 38  1  0  0  0  0
 35 36  1  0  0  0  0
 36 39  1  0  0  0  0
 38 36  1  0  0  0  0
 39 37  2  0  0  0  0
 39 34  1  0  0  0  0
 41 40  1  0  0  0  0
 42 41  1  0  0  0  0
 44 43  1  1  0  0  0
 44 42  1  0  0  0  0
 45 44  1  0  0  0  0
 46 45  1  0  0  0  0
 46 48  1  0  0  0  0
 47 48  1  0  0  0  0
M  END
>  <MODEL>
3

>  <REMARK>
 VINA RESULT:      -7.6      2.073      2.916
  Name = 
  17 active torsions:
  status: ('A' for Active; 'I' for Inactive)
    1  A    between atoms: C_1  and  C_11
    2  A    between atoms: C_5  and  C_8
    3  A    between atoms: C_5  and  O_37
    4  A    between atoms: C_11  and  C_24
    5  A    between atoms: C_19  and  C_44
    6  A    between atoms: C_20  and  C_25
    7  A    between atoms: C_21  and  C_24
    8  A    between atoms: C_21  and  C_44
    9  A    between atoms: C_26  and  C_36
   10  A    between atoms: C_26  and  C_47
   11  A    between atoms: C_27  and  C_33
   12  A    between atoms: C_32  and  C_33
   13  A    between atoms: C_32  and  C_48
   14  A    between atoms: C_33  and  C_42
   15  A    between atoms: C_36  and  C_46
   16  A    between atoms: O_37  and  C_43
   17  A    between atoms: C_43  and  C_47
                            x       y       z     vdW  Elec       q    Type
                         _______ _______ _______ _____ _____    ______ ____

>  <TORSDO>
F 17

$$$$
=
 OpenBabel10222420093D

 48 52  0  0  1  0  0  0  0  0999 V2000
  188.0830  176.7970  135.7520 S   0  0  0  0  0  0  0  0  0  0  0  0
  188.0820  178.6500  139.2070 O   0  0  0  0  0  0  0  0  0  0  0  0
  188.5820  177.1420  137.4330 C   0  0  0  0  0  0  0  0  0  0  0  0
  185.6520  176.9230  137.0760 C   0  0  0  0  0  0  0  0  0  0  0  0
  186.5620  175.9650  136.3200 C   0  0  1  0  0  3  0  0  0  0  0  0
  189.7420  176.6390  137.8630 C   0  0  0  0  0  3  0  0  0  0  0  0
  183.9400  178.6440  138.5330 C   0  0  0  0  0  0  0  0  0  0  0  0
  184.2590  176.8440  136.9300 C   0  0  0  0  0  3  0  0  0  0  0  0
  183.4130  177.6920  137.6490 C   0  0  0  0  0  3  0  0  0  0  0  0
  186.1900  177.8410  138.0150 C   0  0  0  0  0  0  0  0  0  0  0  0
  185.3260  178.6820  138.7320 C   0  0  0  0  0  3  0  0  0  0  0  0
  187.6460  177.9180  138.2760 C   0  0  0  0  0  0  0  0  0  0  0  0
  190.6710  176.9320  140.2720 N   0  0  0  0  0  0  0  0  0  0  0  0
  190.2550  176.8050  139.2000 C   0  0  0  0  0  0  0  0  0  0  0  0
  185.9000  175.2100  135.1600 C   0  0  0  0  0  2  0  0  0  0  0  0
  186.1110  173.7020  135.2480 C   0  0  0  0  0  2  0  0  0  0  0  0
  185.3560  173.1450  136.4410 C   0  0  2  0  0  3  0  0  0  0  0  0
  186.3570  172.8890  137.5610 C   0  0  0  0  0  1  0  0  0  0  0  0
  184.8340  171.5220  134.5940 C   0  0  0  0  0  1  0  0  0  0  0  0
  184.6040  171.8590  136.0600 C   0  0  2  0  0  3  0  0  0  0  0  0
  183.1290  171.9710  136.3120 C   0  0  0  0  0  0  0  0  0  0  0  0
  178.9640  173.9270  136.8570 C   0  0  0  0  0  1  0  0  0  0  0  0
  180.9200  175.8800  135.8580 O   0  0  0  0  0  0  0  0  0  0  0  0
  180.8170  172.3430  136.0770 C   0  0  1  0  0  3  0  0  0  0  0  0
  181.2080  171.7220  137.2930 O   0  0  0  0  0  0  0  0  0  0  0  0
  180.2990  173.6680  136.3490 N   0  0  0  0  0  0  0  0  0  0  0  0
  182.1610  172.5580  135.3390 C   0  0  1  0  0  3  0  0  0  0  0  0
  181.1690  174.6450  135.8230 C   0  0  0  0  0  0  0  0  0  0  0  0
  182.5600  171.5210  137.3760 N   0  0  0  0  0  0  0  0  0  0  0  0
  182.3800  174.0720  135.2120 C   0  0  0  0  0  2  0  0  0  0  0  0
  183.0270  179.5220  139.3680 C   0  0  1  0  0  3  0  0  0  0  0  0
  181.4960  180.9990  138.0740 C   0  0  0  0  0  2  0  0  0  0  0  0
  182.6660  180.8210  138.6860 C   0  0  0  0  0  3  0  0  0  0  0  0
  181.7740  178.7870  139.8650 C   0  0  0  0  0  2  0  0  0  0  0  0
  183.8780  178.3080  143.2710 C   0  0  1  0  0  3  0  0  0  0  0  0
  183.0510  178.4430  142.0330 N   0  0  0  0  0  0  0  0  0  0  0  0
  180.7310  178.3600  141.9610 O   0  0  0  0  0  0  0  0  0  0  0  0
  184.5420  178.4620  142.0710 C   0  0  0  0  0  2  0  0  0  0  0  0
  181.8100  178.5400  141.3400 C   0  0  0  0  0  0  0  0  0  0  0  0
  183.8010  179.6160  144.0460 C   0  0  0  0  0  2  0  0  0  0  0  0
  184.1840  179.4260  145.3760 O   0  0  0  0  0  0  0  0  0  0  0  0
  185.5730  179.2970  145.3400 C   0  0  0  0  0  2  0  0  0  0  0  0
  186.7030  178.3590  147.3480 C   0  0  0  0  0  1  0  0  0  0  0  0
  185.9870  178.0190  146.0550 C   0  0  2  0  0  3  0  0  0  0  0  0
  186.9110  177.1920  145.1760 C   0  0  0  0  0  2  0  0  0  0  0  0
  188.3010  177.8020  145.1340 C   0  0  0  0  0  2  0  0  0  0  0  0
  188.1750  177.7180  142.7150 N   0  0  0  0  0  1  0  0  0  0  0  0
  189.0000  177.3780  143.8590 C   0  0  0  0  0  2  0  0  0  0  0  0
  1  5  1  0  0  0  0
  1  3  1  0  0  0  0
  3  6  2  0  0  0  0
  3 12  1  0  0  0  0
  4 10  1  0  0  0  0
  5 15  1  6  0  0  0
  5  4  1  0  0  0  0
  6 14  1  0  0  0  0
  7 11  1  0  0  0  0
  7 31  1  0  0  0  0
  8  4  2  0  0  0  0
  8  9  1  0  0  0  0
  9  7  2  0  0  0  0
 10 12  1  0  0  0  0
 10 11  2  0  0  0  0
 12  2  2  0  0  0  0
 14 13  3  0  0  0  0
 15 16  1  0  0  0  0
 16 17  1  0  0  0  0
 17 18  1  1  0  0  0
 20 19  1  6  0  0  0
 20 21  1  0  0  0  0
 20 17  1  0  0  0  0
 21 29  2  0  0  0  0
 24 26  1  0  0  0  0
 24 25  1  1  0  0  0
 25 29  1  0  0  0  0
 26 22  1  0  0  0  0
 27 30  1  1  0  0  0
 27 24  1  0  0  0  0
 27 21  1  0  0  0  0
 28 23  2  0  0  0  0
 28 26  1  0  0  0  0
 30 28  1  0  0  0  0
 31 33  1  6  0  0  0
 31 34  1  0  0  0  0
 32 33  2  0  0  0  0
 34 39  1  0  0  0  0
 35 40  1  1  0  0  0
 36 38  1  0  0  0  0
 36 35  1  0  0  0  0
 38 35  1  0  0  0  0
 39 37  2  0  0  0  0
 39 36  1  0  0  0  0
 40 41  1  0  0  0  0
 42 41  1  0  0  0  0
 42 44  1  0  0  0  0
 44 43  1  1  0  0  0
 45 44  1  0  0  0  0
 46 45  1  0  0  0  0
 47 48  1  0  0  0  0
 48 46  1  0  0  0  0
M  END
>  <MODEL>
4

>  <REMARK>
 VINA RESULT:      -7.4      3.714      8.953
  Name = 
  17 active torsions:
  status: ('A' for Active; 'I' for Inactive)
    1  A    between atoms: C_1  and  C_11
    2  A    between atoms: C_5  and  C_8
    3  A    between atoms: C_5  and  O_37
    4  A    between atoms: C_11  and  C_24
    5  A    between atoms: C_19  and  C_44
    6  A    between atoms: C_20  and  C_25
    7  A    between atoms: C_21  and  C_24
    8  A    between atoms: C_21  and  C_44
    9  A    between atoms: C_26  and  C_36
   10  A    between atoms: C_26  and  C_47
   11  A    between atoms: C_27  and  C_33
   12  A    between atoms: C_32  and  C_33
   13  A    between atoms: C_32  and  C_48
   14  A    between atoms: C_33  and  C_42
   15  A    between atoms: C_36  and  C_46
   16  A    between atoms: O_37  and  C_43
   17  A    between atoms: C_43  and  C_47
                            x       y       z     vdW  Elec       q    Type
                         _______ _______ _______ _____ _____    ______ ____

>  <TORSDO>
F 17

$$$$
=
 OpenBabel10222420093D

 48 52  0  0  1  0  0  0  0  0999 V2000
  182.9060  176.1800  135.1090 S   0  0  0  0  0  0  0  0  0  0  0  0
  185.2580  173.2590  136.2530 O   0  0  0  0  0  0  0  0  0  0  0  0
  183.3340  174.5840  135.7900 C   0  0  0  0  0  0  0  0  0  0  0  0
  184.8610  176.8320  136.9620 C   0  0  0  0  0  0  0  0  0  0  0  0
  183.3830  177.0240  136.6550 C   0  0  1  0  0  3  0  0  0  0  0  0
  182.3750  173.6580  135.8780 C   0  0  0  0  0  3  0  0  0  0  0  0
  187.5930  176.4700  137.6120 C   0  0  0  0  0  0  0  0  0  0  0  0
  185.6130  177.8770  137.5190 C   0  0  0  0  0  3  0  0  0  0  0  0
  186.9610  177.7000  137.8410 C   0  0  0  0  0  3  0  0  0  0  0  0
  185.4770  175.5660  136.7850 C   0  0  0  0  0  0  0  0  0  0  0  0
  186.8300  175.4040  137.1180 C   0  0  0  0  0  3  0  0  0  0  0  0
  184.7190  174.4000  136.2770 C   0  0  0  0  0  0  0  0  0  0  0  0
  182.7220  171.2880  136.8860 N   0  0  0  0  0  0  0  0  0  0  0  0
  182.5640  172.3420  136.4360 C   0  0  0  0  0  0  0  0  0  0  0  0
  182.9000  178.4800  136.6400 C   0  0  0  0  0  2  0  0  0  0  0  0
  182.0980  178.8430  137.8860 C   0  0  0  0  0  2  0  0  0  0  0  0
  181.0670  177.7640  138.1670 C   0  0  2  0  0  3  0  0  0  0  0  0
  179.7290  178.4430  138.4290 C   0  0  0  0  0  1  0  0  0  0  0  0
  180.5660  175.7000  139.5110 C   0  0  0  0  0  1  0  0  0  0  0  0
  181.4970  176.8960  139.3600 C   0  0  2  0  0  3  0  0  0  0  0  0
  181.5140  177.6690  140.6460 C   0  0  0  0  0  0  0  0  0  0  0  0
  183.0610  179.3090  144.6930 C   0  0  0  0  0  1  0  0  0  0  0  0
  185.1880  177.8770  143.2570 O   0  0  0  0  0  0  0  0  0  0  0  0
  182.0260  179.2030  142.3550 C   0  0  1  0  0  3  0  0  0  0  0  0
  180.8650  178.4150  142.5790 O   0  0  0  0  0  0  0  0  0  0  0  0
  183.0500  178.8500  143.3160 N   0  0  0  0  0  0  0  0  0  0  0  0
  182.5400  178.6970  140.9850 C   0  0  1  0  0  3  0  0  0  0  0  0
  184.1310  178.2220  142.6640 C   0  0  0  0  0  0  0  0  0  0  0  0
  180.6070  177.5460  141.5530 N   0  0  0  0  0  0  0  0  0  0  0  0
  183.9050  178.0350  141.2210 C   0  0  0  0  0  2  0  0  0  0  0  0
  189.0370  176.2480  138.0210 C   0  0  1  0  0  3  0  0  0  0  0  0
  190.9750  174.8460  137.3290 C   0  0  0  0  0  2  0  0  0  0  0  0
  189.8210  175.4340  137.0180 C   0  0  0  0  0  3  0  0  0  0  0  0
  189.7690  177.5490  138.3780 C   0  0  0  0  0  2  0  0  0  0  0  0
  188.8590  177.9800  142.2810 C   0  0  1  0  0  3  0  0  0  0  0  0
  189.2570  177.8480  140.8460 N   0  0  0  0  0  0  0  0  0  0  0  0
  191.4150  177.4340  140.0920 O   0  0  0  0  0  0  0  0  0  0  0  0
  187.8780  178.1470  141.3260 C   0  0  0  0  0  2  0  0  0  0  0  0
  190.1980  177.5840  139.8100 C   0  0  0  0  0  0  0  0  0  0  0  0
  188.8160  176.5900  142.8990 C   0  0  0  0  0  2  0  0  0  0  0  0
  189.8910  176.4010  143.7710 O   0  0  0  0  0  0  0  0  0  0  0  0
  190.0870  177.6400  144.3810 C   0  0  0  0  0  2  0  0  0  0  0  0
  191.6160  176.3240  145.8360 C   0  0  0  0  0  1  0  0  0  0  0  0
  190.5860  177.4370  145.8040 C   0  0  2  0  0  3  0  0  0  0  0  0
  189.4340  177.0760  146.7260 C   0  0  0  0  0  2  0  0  0  0  0  0
  188.1570  177.7740  146.2910 C   0  0  0  0  0  2  0  0  0  0  0  0
  188.0690  177.8590  148.7120 N   0  0  0  0  0  1  0  0  0  0  0  0
  187.2870  178.0360  147.5030 C   0  0  0  0  0  2  0  0  0  0  0  0
  1  3  1  0  0  0  0
  1  5  1  0  0  0  0
  2 12  2  0  0  0  0
  3  6  2  0  0  0  0
  3 12  1  0  0  0  0
  4  8  1  0  0  0  0
  5 15  1  6  0  0  0
  5  4  1  0  0  0  0
  6 14  1  0  0  0  0
  7  9  1  0  0  0  0
  7 31  1  0  0  0  0
  8  9  2  0  0  0  0
 10  4  2  0  0  0  0
 10 11  1  0  0  0  0
 11  7  2  0  0  0  0
 12 10  1  0  0  0  0
 14 13  3  0  0  0  0
 15 16  1  0  0  0  0
 16 17  1  0  0  0  0
 17 18  1  1  0  0  0
 17 20  1  0  0  0  0
 20 19  1  1  0  0  0
 20 21  1  0  0  0  0
 21 27  1  0  0  0  0
 21 29  2  0  0  0  0
 24 25  1  1  0  0  0
 24 26  1  0  0  0  0
 26 22  1  0  0  0  0
 27 30  1  1  0  0  0
 27 24  1  0  0  0  0
 28 23  2  0  0  0  0
 28 26  1  0  0  0  0
 29 25  1  0  0  0  0
 30 28  1  0  0  0  0
 31 33  1  6  0  0  0
 31 34  1  0  0  0  0
 33 32  2  0  0  0  0
 34 39  1  0  0  0  0
 35 40  1  1  0  0  0
 36 38  1  0  0  0  0
 36 35  1  0  0  0  0
 38 35  1  0  0  0  0
 39 37  2  0  0  0  0
 39 36  1  0  0  0  0
 40 41  1  0  0  0  0
 41 42  1  0  0  0  0
 42 44  1  0  0  0  0
 44 43  1  6  0  0  0
 44 45  1  0  0  0  0
 46 45  1  0  0  0  0
 46 48  1  0  0  0  0
 48 47  1  0  0  0  0
M  END
>  <MODEL>
5

>  <REMARK>
 VINA RESULT:      -7.3      3.356     10.866
  Name = 
  17 active torsions:
  status: ('A' for Active; 'I' for Inactive)
    1  A    between atoms: C_1  and  C_11
    2  A    between atoms: C_5  and  C_8
    3  A    between atoms: C_5  and  O_37
    4  A    between atoms: C_11  and  C_24
    5  A    between atoms: C_19  and  C_44
    6  A    between atoms: C_20  and  C_25
    7  A    between atoms: C_21  and  C_24
    8  A    between atoms: C_21  and  C_44
    9  A    between atoms: C_26  and  C_36
   10  A    between atoms: C_26  and  C_47
   11  A    between atoms: C_27  and  C_33
   12  A    between atoms: C_32  and  C_33
   13  A    between atoms: C_32  and  C_48
   14  A    between atoms: C_33  and  C_42
   15  A    between atoms: C_36  and  C_46
   16  A    between atoms: O_37  and  C_43
   17  A    between atoms: C_43  and  C_47
                            x       y       z     vdW  Elec       q    Type
                         _______ _______ _______ _____ _____    ______ ____

>  <TORSDO>
F 17

$$$$
=
 OpenBabel10222420093D

 48 52  0  0  1  0  0  0  0  0999 V2000
  183.3110  175.4370  134.6570 S   0  0  0  0  0  0  0  0  0  0  0  0
  185.7330  172.8570  136.3440 O   0  0  0  0  0  0  0  0  0  0  0  0
  183.7800  173.9520  135.5330 C   0  0  0  0  0  0  0  0  0  0  0  0
  184.9550  176.4240  136.6580 C   0  0  0  0  0  0  0  0  0  0  0  0
  183.5160  176.4500  136.1610 C   0  0  1  0  0  3  0  0  0  0  0  0
  182.8980  172.9510  135.5950 C   0  0  0  0  0  3  0  0  0  0  0  0
  187.6030  176.3770  137.6570 C   0  0  0  0  0  0  0  0  0  0  0  0
  185.5400  177.5790  137.1980 C   0  0  0  0  0  3  0  0  0  0  0  0
  186.8470  177.5570  137.6920 C   0  0  0  0  0  3  0  0  0  0  0  0
  185.6920  175.2110  136.6760 C   0  0  0  0  0  0  0  0  0  0  0  0
  187.0000  175.2060  137.1800 C   0  0  0  0  0  3  0  0  0  0  0  0
  185.1030  173.9400  136.1950 C   0  0  0  0  0  0  0  0  0  0  0  0
  183.2980  170.7140  136.8580 N   0  0  0  0  0  0  0  0  0  0  0  0
  183.1240  171.7100  136.2930 C   0  0  0  0  0  0  0  0  0  0  0  0
  182.9200  177.8470  135.9500 C   0  0  0  0  0  2  0  0  0  0  0  0
  181.4270  177.8050  135.6400 C   0  0  0  0  0  2  0  0  0  0  0  0
  180.7040  176.9910  136.6990 C   0  0  2  0  0  3  0  0  0  0  0  0
  179.7780  176.0090  135.9930 C   0  0  0  0  0  1  0  0  0  0  0  0
  179.8600  179.3240  137.1010 C   0  0  0  0  0  1  0  0  0  0  0  0
  179.9230  177.9080  137.6540 C   0  0  2  0  0  3  0  0  0  0  0  0
  180.5310  177.9440  139.0260 C   0  0  0  0  0  0  0  0  0  0  0  0
  183.6920  178.6180  142.3450 C   0  0  0  0  0  1  0  0  0  0  0  0
  184.6040  179.7330  139.7840 O   0  0  0  0  0  0  0  0  0  0  0  0
  181.4790  178.6500  141.0600 C   0  0  1  0  0  3  0  0  0  0  0  0
  181.1540  177.2690  140.9930 O   0  0  0  0  0  0  0  0  0  0  0  0
  182.9150  178.8120  141.1340 N   0  0  0  0  0  0  0  0  0  0  0  0
  181.0650  179.1820  139.6670 C   0  0  1  0  0  3  0  0  0  0  0  0
  183.3960  179.4130  139.9530 C   0  0  0  0  0  0  0  0  0  0  0  0
  180.5990  176.9120  139.7930 N   0  0  0  0  0  0  0  0  0  0  0  0
  182.3420  179.6480  138.9530 C   0  0  0  0  0  2  0  0  0  0  0  0
  188.9980  176.3270  138.2540 C   0  0  1  0  0  3  0  0  0  0  0  0
  190.8420  176.3930  136.5820 C   0  0  0  0  0  2  0  0  0  0  0  0
  190.0120  175.6780  137.3410 C   0  0  0  0  0  3  0  0  0  0  0  0
  189.4890  177.6930  138.7510 C   0  0  0  0  0  2  0  0  0  0  0  0
  188.3000  178.0790  142.5840 C   0  0  1  0  0  3  0  0  0  0  0  0
  188.8010  177.9610  141.1800 N   0  0  0  0  0  0  0  0  0  0  0  0
  190.9940  177.4840  140.5820 O   0  0  0  0  0  0  0  0  0  0  0  0
  187.4000  178.3010  141.5610 C   0  0  0  0  0  2  0  0  0  0  0  0
  189.8090  177.6840  140.2120 C   0  0  0  0  0  0  0  0  0  0  0  0
  188.1600  176.6790  143.1650 C   0  0  0  0  0  2  0  0  0  0  0  0
  187.2950  176.6810  144.2610 O   0  0  0  0  0  0  0  0  0  0  0  0
  187.6600  177.8000  145.0110 C   0  0  0  0  0  2  0  0  0  0  0  0
  187.6650  178.1550  147.4730 C   0  0  0  0  0  1  0  0  0  0  0  0
  188.2660  177.3540  146.3330 C   0  0  2  0  0  3  0  0  0  0  0  0
  189.7720  177.5530  146.3240 C   0  0  0  0  0  2  0  0  0  0  0  0
  190.4270  176.7530  147.4370 C   0  0  0  0  0  2  0  0  0  0  0  0
  191.8520  176.4090  145.5060 N   0  0  0  0  0  1  0  0  0  0  0  0
  191.6430  176.0330  146.8920 C   0  0  0  0  0  2  0  0  0  0  0  0
  1  3  1  0  0  0  0
  1  5  1  0  0  0  0
  3  6  2  0  0  0  0
  3 12  1  0  0  0  0
  4 10  2  0  0  0  0
  4  8  1  0  0  0  0
  5 15  1  6  0  0  0
  5  4  1  0  0  0  0
  6 14  1  0  0  0  0
  7  9  1  0  0  0  0
  7 31  1  0  0  0  0
  8  9  2  0  0  0  0
 10 11  1  0  0  0  0
 11  7  2  0  0  0  0
 12  2  2  0  0  0  0
 12 10  1  0  0  0  0
 14 13  3  0  0  0  0
 16 15  1  0  0  0  0
 16 17  1  0  0  0  0
 17 18  1  6  0  0  0
 17 20  1  0  0  0  0
 20 19  1  6  0  0  0
 20 21  1  0  0  0  0
 21 27  1  0  0  0  0
 21 29  2  0  0  0  0
 23 28  2  0  0  0  0
 24 25  1  6  0  0  0
 24 26  1  0  0  0  0
 26 22  1  0  0  0  0
 27 30  1  6  0  0  0
 27 24  1  0  0  0  0
 28 26  1  0  0  0  0
 29 25  1  0  0  0  0
 30 28  1  0  0  0  0
 31 33  1  6  0  0  0
 31 34  1  0  0  0  0
 32 33  2  0  0  0  0
 34 39  1  0  0  0  0
 35 40  1  6  0  0  0
 36 38  1  0  0  0  0
 36 35  1  0  0  0  0
 38 35  1  0  0  0  0
 39 37  2  0  0  0  0
 39 36  1  0  0  0  0
 40 41  1  0  0  0  0
 41 42  1  0  0  0  0
 42 44  1  0  0  0  0
 44 43  1  1  0  0  0
 45 44  1  0  0  0  0
 45 46  1  0  0  0  0
 47 48  1  0  0  0  0
 48 46  1  0  0  0  0
M  END
>  <MODEL>
6

>  <REMARK>
 VINA RESULT:      -7.1      3.511     10.854
  Name = 
  17 active torsions:
  status: ('A' for Active; 'I' for Inactive)
    1  A    between atoms: C_1  and  C_11
    2  A    between atoms: C_5  and  C_8
    3  A    between atoms: C_5  and  O_37
    4  A    between atoms: C_11  and  C_24
    5  A    between atoms: C_19  and  C_44
    6  A    between atoms: C_20  and  C_25
    7  A    between atoms: C_21  and  C_24
    8  A    between atoms: C_21  and  C_44
    9  A    between atoms: C_26  and  C_36
   10  A    between atoms: C_26  and  C_47
   11  A    between atoms: C_27  and  C_33
   12  A    between atoms: C_32  and  C_33
   13  A    between atoms: C_32  and  C_48
   14  A    between atoms: C_33  and  C_42
   15  A    between atoms: C_36  and  C_46
   16  A    between atoms: O_37  and  C_43
   17  A    between atoms: C_43  and  C_47
                            x       y       z     vdW  Elec       q    Type
                         _______ _______ _______ _____ _____    ______ ____

>  <TORSDO>
F 17

$$$$
=
 OpenBabel10222420093D

 48 52  0  0  1  0  0  0  0  0999 V2000
  182.1610  178.2510  141.0880 S   0  0  0  0  0  0  0  0  0  0  0  0
  185.6580  177.8730  142.8200 O   0  0  0  0  0  0  0  0  0  0  0  0
  183.4150  178.5100  142.3350 C   0  0  0  0  0  0  0  0  0  0  0  0
  184.3670  178.9630  139.5690 C   0  0  0  0  0  0  0  0  0  0  0  0
  182.9700  179.4300  139.9550 C   0  0  1  0  0  3  0  0  0  0  0  0
  183.0340  178.9810  143.5250 C   0  0  0  0  0  3  0  0  0  0  0  0
  186.9880  178.1710  138.8510 C   0  0  0  0  0  0  0  0  0  0  0  0
  184.8470  179.1650  138.2670 C   0  0  0  0  0  3  0  0  0  0  0  0
  186.1410  178.7750  137.9110 C   0  0  0  0  0  3  0  0  0  0  0  0
  185.2390  178.4100  140.5420 C   0  0  0  0  0  0  0  0  0  0  0  0
  186.5360  178.0290  140.1690 C   0  0  0  0  0  3  0  0  0  0  0  0
  184.8200  178.2460  141.9530 C   0  0  0  0  0  0  0  0  0  0  0  0
  184.6540  179.5070  145.4880 N   0  0  0  0  0  0  0  0  0  0  0  0
  183.9360  179.2710  144.6120 C   0  0  0  0  0  0  0  0  0  0  0  0
  182.0430  179.7660  138.7810 C   0  0  0  0  0  2  0  0  0  0  0  0
  181.3340  178.5350  138.2250 C   0  0  0  0  0  2  0  0  0  0  0  0
  181.6320  178.3950  136.7420 C   0  0  2  0  0  3  0  0  0  0  0  0
  180.8860  179.4970  136.0020 C   0  0  0  0  0  1  0  0  0  0  0  0
  179.7640  176.7240  136.5570 C   0  0  0  0  0  1  0  0  0  0  0  0
  181.2240  177.0040  136.2320 C   0  0  2  0  0  3  0  0  0  0  0  0
  182.0740  175.9150  136.8180 C   0  0  0  0  0  0  0  0  0  0  0  0
  185.5980  172.9420  137.2730 C   0  0  0  0  0  1  0  0  0  0  0  0
  186.1280  174.8800  135.1280 O   0  0  0  0  0  0  0  0  0  0  0  0
  183.8270  174.7070  137.8200 C   0  0  1  0  0  3  0  0  0  0  0  0
  182.6190  173.9820  137.6410 O   0  0  0  0  0  0  0  0  0  0  0  0
  184.8600  174.1550  136.9690 N   0  0  0  0  0  0  0  0  0  0  0  0
  183.4960  176.1000  137.2320 C   0  0  1  0  0  3  0  0  0  0  0  0
  185.2040  175.0800  135.9620 C   0  0  0  0  0  0  0  0  0  0  0  0
  181.6300  174.7310  137.0630 N   0  0  0  0  0  0  0  0  0  0  0  0
  184.3900  176.3060  136.0010 C   0  0  0  0  0  2  0  0  0  0  0  0
  188.4170  177.8080  138.4930 C   0  0  1  0  0  3  0  0  0  0  0  0
  189.2000  177.3140  136.1820 C   0  0  0  0  0  2  0  0  0  0  0  0
  188.7960  178.2050  137.0850 C   0  0  0  0  0  3  0  0  0  0  0  0
  189.4430  178.3210  139.5120 C   0  0  0  0  0  2  0  0  0  0  0  0
  191.6870  176.9280  142.5570 C   0  0  1  0  0  3  0  0  0  0  0  0
  190.8900  177.4040  141.3860 N   0  0  0  0  0  0  0  0  0  0  0  0
  190.3220  176.1100  139.5420 O   0  0  0  0  0  0  0  0  0  0  0  0
  191.2820  178.2470  142.5510 C   0  0  0  0  0  2  0  0  0  0  0  0
  190.2180  177.2090  140.1450 C   0  0  0  0  0  0  0  0  0  0  0  0
  190.7900  176.0640  143.4320 C   0  0  0  0  0  2  0  0  0  0  0  0
  190.3560  176.7760  144.5520 O   0  0  0  0  0  0  0  0  0  0  0  0
  191.1490  176.3180  145.6050 C   0  0  0  0  0  2  0  0  0  0  0  0
  191.8150  176.7580  147.9610 C   0  0  0  0  0  1  0  0  0  0  0  0
  190.8080  177.0840  146.8740 C   0  0  2  0  0  3  0  0  0  0  0  0
  189.4150  176.7200  147.3590 C   0  0  0  0  0  2  0  0  0  0  0  0
  188.7870  177.8810  148.1100 C   0  0  0  0  0  2  0  0  0  0  0  0
  187.3070  177.5060  146.2260 N   0  0  0  0  0  1  0  0  0  0  0  0
  187.4600  178.2370  147.4710 C   0  0  0  0  0  2  0  0  0  0  0  0
  1  3  1  0  0  0  0
  3  6  2  0  0  0  0
  4  5  1  0  0  0  0
  4 10  1  0  0  0  0
  5 15  1  6  0  0  0
  5  1  1  0  0  0  0
  6 14  1  0  0  0  0
  7 11  1  0  0  0  0
  8  4  2  0  0  0  0
  9  8  1  0  0  0  0
  9  7  2  0  0  0  0
 10 12  1  0  0  0  0
 11 10  2  0  0  0  0
 12  3  1  0  0  0  0
 12  2  2  0  0  0  0
 14 13  3  0  0  0  0
 16 15  1  0  0  0  0
 17 18  1  6  0  0  0
 17 16  1  0  0  0  0
 20 19  1  1  0  0  0
 20 17  1  0  0  0  0
 20 21  1  0  0  0  0
 21 29  2  0  0  0  0
 21 27  1  0  0  0  0
 23 28  2  0  0  0  0
 24 25  1  6  0  0  0
 26 22  1  0  0  0  0
 26 24  1  0  0  0  0
 27 30  1  6  0  0  0
 27 24  1  0  0  0  0
 28 30  1  0  0  0  0
 28 26  1  0  0  0  0
 29 25  1  0  0  0  0
 31 33  1  6  0  0  0
 31  7  1  0  0  0  0
 31 34  1  0  0  0  0
 32 33  2  0  0  0  0
 34 39  1  0  0  0  0
 35 40  1  1  0  0  0
 36 38  1  0  0  0  0
 36 35  1  0  0  0  0
 37 39  2  0  0  0  0
 38 35  1  0  0  0  0
 39 36  1  0  0  0  0
 40 41  1  0  0  0  0
 41 42  1  0  0  0  0
 42 44  1  0  0  0  0
 44 45  1  0  0  0  0
 44 43  1  1  0  0  0
 45 46  1  0  0  0  0
 47 48  1  0  0  0  0
 48 46  1  0  0  0  0
M  END
>  <MODEL>
7

>  <REMARK>
 VINA RESULT:      -7.0      3.670      9.485
  Name = 
  17 active torsions:
  status: ('A' for Active; 'I' for Inactive)
    1  A    between atoms: C_1  and  C_11
    2  A    between atoms: C_5  and  C_8
    3  A    between atoms: C_5  and  O_37
    4  A    between atoms: C_11  and  C_24
    5  A    between atoms: C_19  and  C_44
    6  A    between atoms: C_20  and  C_25
    7  A    between atoms: C_21  and  C_24
    8  A    between atoms: C_21  and  C_44
    9  A    between atoms: C_26  and  C_36
   10  A    between atoms: C_26  and  C_47
   11  A    between atoms: C_27  and  C_33
   12  A    between atoms: C_32  and  C_33
   13  A    between atoms: C_32  and  C_48
   14  A    between atoms: C_33  and  C_42
   15  A    between atoms: C_36  and  C_46
   16  A    between atoms: O_37  and  C_43
   17  A    between atoms: C_43  and  C_47
                            x       y       z     vdW  Elec       q    Type
                         _______ _______ _______ _____ _____    ______ ____

>  <TORSDO>
F 17

$$$$
=
 OpenBabel10222420093D

 48 52  0  0  1  0  0  0  0  0999 V2000
  190.8830  178.2850  142.6200 S   0  0  0  0  0  0  0  0  0  0  0  0
  189.2780  177.7880  146.1630 O   0  0  0  0  0  0  0  0  0  0  0  0
  190.6710  177.5680  144.2440 C   0  0  0  0  0  0  0  0  0  0  0  0
  188.1690  177.7240  142.6710 C   0  0  0  0  0  0  0  0  0  0  0  0
  189.4630  177.3440  141.9650 C   0  0  1  0  0  3  0  0  0  0  0  0
  191.6800  176.8590  144.7570 C   0  0  0  0  0  3  0  0  0  0  0  0
  185.7390  178.3540  143.9800 C   0  0  0  0  0  0  0  0  0  0  0  0
  186.9660  177.8050  141.9540 C   0  0  0  0  0  3  0  0  0  0  0  0
  185.7660  178.1150  142.5980 C   0  0  0  0  0  3  0  0  0  0  0  0
  188.1400  177.9030  144.0790 C   0  0  0  0  0  0  0  0  0  0  0  0
  186.9250  178.2090  144.7100 C   0  0  0  0  0  3  0  0  0  0  0  0
  189.3600  177.7510  144.9040 C   0  0  0  0  0  0  0  0  0  0  0  0
  191.6150  175.6670  147.0660 N   0  0  0  0  0  0  0  0  0  0  0  0
  191.6400  176.1960  146.0370 C   0  0  0  0  0  0  0  0  0  0  0  0
  189.4250  177.4320  140.4340 C   0  0  0  0  0  2  0  0  0  0  0  0
  190.5860  176.6920  139.7770 C   0  0  0  0  0  2  0  0  0  0  0  0
  190.7940  177.2110  138.3650 C   0  0  2  0  0  3  0  0  0  0  0  0
  189.6180  178.1120  138.0110 C   0  0  0  0  0  1  0  0  0  0  0  0
  189.8130  175.0330  137.5840 C   0  0  0  0  0  1  0  0  0  0  0  0
  190.9270  176.0480  137.3690 C   0  0  2  0  0  3  0  0  0  0  0  0
  192.2520  175.3530  137.4850 C   0  0  0  0  0  0  0  0  0  0  0  0
  196.5530  174.0200  136.3950 C   0  0  0  0  0  1  0  0  0  0  0  0
  195.6260  176.1540  134.5990 O   0  0  0  0  0  0  0  0  0  0  0  0
  194.5440  174.8820  137.7260 C   0  0  1  0  0  3  0  0  0  0  0  0
  193.6900  173.7470  137.7440 O   0  0  0  0  0  0  0  0  0  0  0  0
  195.3720  174.8530  136.5390 N   0  0  0  0  0  0  0  0  0  0  0  0
  193.5630  176.0630  137.5280 C   0  0  1  0  0  3  0  0  0  0  0  0
  195.0150  175.9060  135.6730 C   0  0  0  0  0  0  0  0  0  0  0  0
  192.3680  174.0760  137.6090 N   0  0  0  0  0  0  0  0  0  0  0  0
  193.8740  176.6970  136.1640 C   0  0  0  0  0  2  0  0  0  0  0  0
  184.4300  178.6230  144.6980 C   0  0  1  0  0  3  0  0  0  0  0  0
  184.9900  178.1080  147.0690 C   0  0  0  0  0  2  0  0  0  0  0  0
  184.6160  178.9970  146.1500 C   0  0  0  0  0  3  0  0  0  0  0  0
  183.5410  179.6400  143.9700 C   0  0  0  0  0  2  0  0  0  0  0  0
  181.4960  178.4210  140.7160 C   0  0  1  0  0  3  0  0  0  0  0  0
  182.1950  178.8860  141.9530 N   0  0  0  0  0  0  0  0  0  0  0  0
  181.3950  178.6220  144.1180 O   0  0  0  0  0  0  0  0  0  0  0  0
  182.6950  179.0880  140.5630 C   0  0  0  0  0  2  0  0  0  0  0  0
  182.3290  179.0040  143.3660 C   0  0  0  0  0  0  0  0  0  0  0  0
  181.6690  176.9130  140.6030 C   0  0  0  0  0  2  0  0  0  0  0  0
  180.5440  176.3280  140.0170 O   0  0  0  0  0  0  0  0  0  0  0  0
  181.0410  175.5530  138.9690 C   0  0  0  0  0  2  0  0  0  0  0  0
  179.5410  173.6080  139.3610 C   0  0  0  0  0  1  0  0  0  0  0  0
  179.9220  174.7040  138.3850 C   0  0  2  0  0  3  0  0  0  0  0  0
  180.3590  174.0740  137.0730 C   0  0  0  0  0  2  0  0  0  0  0  0
  181.8350  173.7190  137.1130 C   0  0  0  0  0  2  0  0  0  0  0  0
  180.7100  171.6290  136.6200 N   0  0  0  0  0  1  0  0  0  0  0  0
  182.0110  172.2530  136.7710 C   0  0  0  0  0  2  0  0  0  0  0  0
  1  3  1  0  0  0  0
  3  6  2  0  0  0  0
  3 12  1  0  0  0  0
  4 10  1  0  0  0  0
  5 15  1  6  0  0  0
  5  1  1  0  0  0  0
  5  4  1  0  0  0  0
  6 14  1  0  0  0  0
  7 31  1  0  0  0  0
  7 11  1  0  0  0  0
  8  9  1  0  0  0  0
  8  4  2  0  0  0  0
  9  7  2  0  0  0  0
 10 11  2  0  0  0  0
 10 12  1  0  0  0  0
 12  2  2  0  0  0  0
 14 13  3  0  0  0  0
 16 15  1  0  0  0  0
 17 18  1  6  0  0  0
 17 16  1  0  0  0  0
 20 21  1  0  0  0  0
 20 19  1  1  0  0  0
 20 17  1  0  0  0  0
 21 27  1  0  0  0  0
 21 29  2  0  0  0  0
 22 26  1  0  0  0  0
 23 28  2  0  0  0  0
 24 25  1  6  0  0  0
 26 24  1  0  0  0  0
 27 30  1  6  0  0  0
 27 24  1  0  0  0  0
 28 30  1  0  0  0  0
 28 26  1  0  0  0  0
 29 25  1  0  0  0  0
 31 34  1  6  0  0  0
 31 33  1  0  0  0  0
 33 32  2  0  0  0  0
 35 40  1  1  0  0  0
 35 36  1  0  0  0  0
 36 39  1  0  0  0  0
 38 35  1  0  0  0  0
 38 36  1  0  0  0  0
 39 34  1  0  0  0  0
 39 37  2  0  0  0  0
 41 40  1  0  0  0  0
 42 41  1  0  0  0  0
 44 42  1  0  0  0  0
 44 43  1  1  0  0  0
 45 46  1  0  0  0  0
 45 44  1  0  0  0  0
 47 48  1  0  0  0  0
 48 46  1  0  0  0  0
M  END
>  <MODEL>
8

>  <REMARK>
 VINA RESULT:      -6.9      2.129      2.895
  Name = 
  17 active torsions:
  status: ('A' for Active; 'I' for Inactive)
    1  A    between atoms: C_1  and  C_11
    2  A    between atoms: C_5  and  C_8
    3  A    between atoms: C_5  and  O_37
    4  A    between atoms: C_11  and  C_24
    5  A    between atoms: C_19  and  C_44
    6  A    between atoms: C_20  and  C_25
    7  A    between atoms: C_21  and  C_24
    8  A    between atoms: C_21  and  C_44
    9  A    between atoms: C_26  and  C_36
   10  A    between atoms: C_26  and  C_47
   11  A    between atoms: C_27  and  C_33
   12  A    between atoms: C_32  and  C_33
   13  A    between atoms: C_32  and  C_48
   14  A    between atoms: C_33  and  C_42
   15  A    between atoms: C_36  and  C_46
   16  A    between atoms: O_37  and  C_43
   17  A    between atoms: C_43  and  C_47
                            x       y       z     vdW  Elec       q    Type
                         _______ _______ _______ _____ _____    ______ ____

>  <TORSDO>
F 17

$$$$
=
 OpenBabel10222420093D

 48 52  0  0  1  0  0  0  0  0999 V2000
  191.6660  178.1040  143.9390 S   0  0  0  0  0  0  0  0  0  0  0  0
  189.4080  177.1760  147.0080 O   0  0  0  0  0  0  0  0  0  0  0  0
  191.1540  177.1910  145.3870 C   0  0  0  0  0  0  0  0  0  0  0  0
  189.0050  177.5610  143.3860 C   0  0  0  0  0  0  0  0  0  0  0  0
  190.4190  177.2640  142.9060 C   0  0  1  0  0  3  0  0  0  0  0  0
  192.0550  176.4150  145.9960 C   0  0  0  0  0  3  0  0  0  0  0  0
  186.3560  178.0370  144.2600 C   0  0  0  0  0  0  0  0  0  0  0  0
  187.9650  177.7400  142.4630 C   0  0  0  0  0  3  0  0  0  0  0  0
  186.6560  177.9750  142.8920 C   0  0  0  0  0  3  0  0  0  0  0  0
  188.6980  177.5610  144.7720 C   0  0  0  0  0  0  0  0  0  0  0  0
  187.3780  177.7930  145.1850 C   0  0  0  0  0  3  0  0  0  0  0  0
  189.7360  177.2980  145.7950 C   0  0  0  0  0  0  0  0  0  0  0  0
  191.5540  174.9460  148.0810 N   0  0  0  0  0  0  0  0  0  0  0  0
  191.7780  175.5970  147.1500 C   0  0  0  0  0  0  0  0  0  0  0  0
  190.6790  177.5440  141.4200 C   0  0  0  0  0  2  0  0  0  0  0  0
  190.0640  176.4870  140.5090 C   0  0  0  0  0  2  0  0  0  0  0  0
  190.6580  176.5990  139.1160 C   0  0  2  0  0  3  0  0  0  0  0  0
  192.0830  177.1200  139.2470 C   0  0  0  0  0  1  0  0  0  0  0  0
  189.0280  178.5110  139.0870 C   0  0  0  0  0  1  0  0  0  0  0  0
  189.8040  177.5210  138.2310 C   0  0  2  0  0  3  0  0  0  0  0  0
  188.8410  176.7520  137.3760 C   0  0  0  0  0  0  0  0  0  0  0  0
  184.7990  175.2210  135.7070 C   0  0  0  0  0  1  0  0  0  0  0  0
  184.3880  177.4570  137.5700 O   0  0  0  0  0  0  0  0  0  0  0  0
  187.1810  176.1490  135.8200 C   0  0  1  0  0  3  0  0  0  0  0  0
  187.8970  175.0630  136.3900 O   0  0  0  0  0  0  0  0  0  0  0  0
  185.8030  176.1120  136.2610 N   0  0  0  0  0  0  0  0  0  0  0  0
  187.8100  177.3880  136.5050 C   0  0  1  0  0  3  0  0  0  0  0  0
  185.5330  177.2100  137.1030 C   0  0  0  0  0  0  0  0  0  0  0  0
  188.8550  175.4670  137.2810 N   0  0  0  0  0  0  0  0  0  0  0  0
  186.7170  178.0450  137.3610 C   0  0  0  0  0  2  0  0  0  0  0  0
  184.9260  178.2230  144.7360 C   0  0  1  0  0  3  0  0  0  0  0  0
  185.4480  179.1860  146.9720 C   0  0  0  0  0  2  0  0  0  0  0  0
  184.8040  178.2770  146.2410 C   0  0  0  0  0  3  0  0  0  0  0  0
  184.2220  179.4170  144.0760 C   0  0  0  0  0  2  0  0  0  0  0  0
  180.4320  178.6080  142.9660 C   0  0  1  0  0  3  0  0  0  0  0  0
  181.8590  178.8610  143.3340 N   0  0  0  0  0  0  0  0  0  0  0  0
  183.6630  178.6860  141.8820 O   0  0  0  0  0  0  0  0  0  0  0  0
  180.7070  178.9400  144.2770 C   0  0  0  0  0  2  0  0  0  0  0  0
  183.2440  178.9890  143.0290 C   0  0  0  0  0  0  0  0  0  0  0  0
  179.9200  179.8050  142.1760 C   0  0  0  0  0  2  0  0  0  0  0  0
  179.2740  179.3880  141.0100 O   0  0  0  0  0  0  0  0  0  0  0  0
  180.2870  179.2490  140.0610 C   0  0  0  0  0  2  0  0  0  0  0  0
  181.5640  177.1460  139.6910 C   0  0  0  0  0  1  0  0  0  0  0  0
  180.2400  177.8510  139.4620 C   0  0  2  0  0  3  0  0  0  0  0  0
  179.9630  177.9200  137.9700 C   0  0  0  0  0  2  0  0  0  0  0  0
  179.6490  179.3440  137.5460 C   0  0  0  0  0  2  0  0  0  0  0  0
  181.5680  178.7510  136.1870 N   0  0  0  0  0  1  0  0  0  0  0  0
  180.7620  179.8620  136.6580 C   0  0  0  0  0  2  0  0  0  0  0  0
  1  3  1  0  0  0  0
  3 12  1  0  0  0  0
  3  6  2  0  0  0  0
  4 10  1  0  0  0  0
  5 15  1  6  0  0  0
  5  4  1  0  0  0  0
  5  1  1  0  0  0  0
  6 14  1  0  0  0  0
  7 31  1  0  0  0  0
  7 11  1  0  0  0  0
  8  9  1  0  0  0  0
  8  4  2  0  0  0  0
  9  7  2  0  0  0  0
 10 11  2  0  0  0  0
 10 12  1  0  0  0  0
 12  2  2  0  0  0  0
 14 13  3  0  0  0  0
 16 15  1  0  0  0  0
 17 18  1  1  0  0  0
 17 16  1  0  0  0  0
 20 19  1  1  0  0  0
 20 17  1  0  0  0  0
 21 20  1  0  0  0  0
 22 26  1  0  0  0  0
 24 26  1  0  0  0  0
 24 25  1  1  0  0  0
 24 27  1  0  0  0  0
 25 29  1  0  0  0  0
 26 28  1  0  0  0  0
 27 30  1  1  0  0  0
 27 21  1  0  0  0  0
 28 30  1  0  0  0  0
 28 23  2  0  0  0  0
 29 21  2  0  0  0  0
 31 34  1  6  0  0  0
 31 33  1  0  0  0  0
 33 32  2  0  0  0  0
 35 40  1  6  0  0  0
 35 36  1  0  0  0  0
 35 38  1  0  0  0  0
 36 38  1  0  0  0  0
 37 39  2  0  0  0  0
 39 36  1  0  0  0  0
 39 34  1  0  0  0  0
 41 40  1  0  0  0  0
 42 41  1  0  0  0  0
 44 43  1  6  0  0  0
 44 42  1  0  0  0  0
 45 44  1  0  0  0  0
 46 45  1  0  0  0  0
 47 48  1  0  0  0  0
 48 46  1  0  0  0  0
M  END
>  <MODEL>
9

>  <REMARK>
 VINA RESULT:      -6.9      2.805      4.719
  Name = 
  17 active torsions:
  status: ('A' for Active; 'I' for Inactive)
    1  A    between atoms: C_1  and  C_11
    2  A    between atoms: C_5  and  C_8
    3  A    between atoms: C_5  and  O_37
    4  A    between atoms: C_11  and  C_24
    5  A    between atoms: C_19  and  C_44
    6  A    between atoms: C_20  and  C_25
    7  A    between atoms: C_21  and  C_24
    8  A    between atoms: C_21  and  C_44
    9  A    between atoms: C_26  and  C_36
   10  A    between atoms: C_26  and  C_47
   11  A    between atoms: C_27  and  C_33
   12  A    between atoms: C_32  and  C_33
   13  A    between atoms: C_32  and  C_48
   14  A    between atoms: C_33  and  C_42
   15  A    between atoms: C_36  and  C_46
   16  A    between atoms: O_37  and  C_43
   17  A    between atoms: C_43  and  C_47
                            x       y       z     vdW  Elec       q    Type
                         _______ _______ _______ _____ _____    ______ ____

>  <TORSDO>
F 17

$$$$
