=
 OpenBabel10222418513D

 42 47  0  0  1  0  0  0  0  0999 V2000
  187.4460  177.8790  140.5220 C   0  0  2  0  0  3  0  0  0  0  0  0
  186.9400  178.5450  142.8180 N   0  0  0  0  0  2  0  0  0  0  0  0
  185.6090  179.4010  140.9430 N   0  0  0  0  0  2  0  0  0  0  0  0
  185.6440  178.5770  142.1460 C   0  0  2  0  0  0  0  0  0  0  0  0
  186.9090  178.9940  141.4390 C   0  0  1  0  0  0  0  0  0  0  0  0
  184.8320  179.4320  143.1000 C   0  0  0  0  0  2  0  0  0  0  0  0
  183.6940  178.6170  143.6870 C   0  0  0  0  0  2  0  0  0  0  0  0
  183.5890  178.8950  145.1720 C   0  0  0  0  0  2  0  0  0  0  0  0
  184.8920  179.2870  145.6870 N   0  0  0  0  0  2  0  0  0  0  0  0
  185.1710  178.4500  146.8430 C   0  0  0  0  0  2  0  0  0  0  0  0
  189.4510  178.4210  148.9900 O   0  0  0  0  0  0  0  0  0  0  0  0
  188.7510  178.1310  147.9850 C   0  0  0  0  0  0  0  0  0  0  0  0
  187.1610  177.5790  145.7870 N   0  0  0  0  0  0  0  0  0  0  0  0
  186.6140  178.0720  146.8610 C   0  0  0  0  0  0  0  0  0  0  0  0
  188.5410  177.0830  145.7380 C   0  0  0  0  0  2  0  0  0  0  0  0
  187.3650  178.2680  148.0250 O   0  0  0  0  0  0  0  0  0  0  0  0
  189.3660  177.6870  146.7790 N   0  0  0  0  0  2  0  0  0  0  0  0
  188.5610  177.0780  141.1860 C   0  0  0  0  0  2  0  0  0  0  0  0
  189.8480  177.6610  140.8540 N   0  0  0  0  0  2  0  0  0  0  0  0
  191.1480  176.3320  143.6680 N   0  0  0  0  0  2  0  0  0  0  0  0
  190.8710  176.7480  141.3300 C   0  0  0  0  0  3  0  0  0  0  0  0
  191.8140  177.5310  143.3570 N   0  0  0  0  0  2  0  0  0  0  0  0
  190.3380  175.9780  142.5080 C   0  0  0  0  0  2  0  0  0  0  0  0
  192.0080  177.5340  141.9180 C   0  0  0  0  0  2  0  0  0  0  0  0
  188.0060  178.4640  139.2250 C   0  0  0  0  0  2  0  0  0  0  0  0
  186.0690  176.3650  135.9160 C   0  0  1  0  0  3  0  0  0  0  0  0
  185.3430  177.3500  136.7910 C   0  0  0  0  0  3  0  0  0  0  0  0
  185.9680  177.9940  137.7790 C   0  0  0  0  0  3  0  0  0  0  0  0
  188.3160  176.0500  134.8480 C   0  0  0  0  0  1  0  0  0  0  0  0
  188.1610  177.1630  137.1010 C   0  0  0  0  0  0  0  0  0  0  0  0
  187.5220  176.5770  135.9480 N   0  0  0  0  0  0  0  0  0  0  0  0
  187.4120  177.8220  138.0090 C   0  0  0  0  0  0  0  0  0  0  0  0
  189.6490  177.0640  137.2620 C   0  0  0  0  0  1  0  0  0  0  0  0
  183.9210  173.3410  136.7890 C   0  0  0  0  0  0  0  0  0  0  0  0
  186.2320  172.9330  137.5140 C   0  0  0  0  0  2  0  0  0  0  0  0
  184.7520  172.6910  137.6150 C   0  0  0  0  0  3  0  0  0  0  0  0
  184.4700  174.3290  135.7970 C   0  0  0  0  0  2  0  0  0  0  0  0
  186.5080  174.3060  137.1290 N   0  0  0  0  0  0  0  0  0  0  0  0
  185.7330  174.9610  136.3260 C   0  0  0  0  0  0  0  0  0  0  0  0
  182.5440  173.1150  136.8270 O   0  0  0  0  0  0  0  0  0  0  0  0
  182.0340  171.8790  136.7060 O   0  0  0  0  0  0  0  0  0  0  0  0
  182.0020  171.6490  135.3300 C   0  0  0  0  0  1  0  0  0  0  0  0
  1 25  1  6  0  0  0
  1 18  1  0  0  0  0
  3  5  1  0  0  0  0
  3  4  1  0  0  0  0
  4  2  1  0  0  0  0
  4  6  1  1  0  0  0
  5  1  1  6  0  0  0
  5  4  1  0  0  0  0
  5  2  1  0  0  0  0
  6  7  1  0  0  0  0
  7  8  1  0  0  0  0
  8  9  1  0  0  0  0
  9 10  1  0  0  0  0
 10 14  1  0  0  0  0
 12 16  1  0  0  0  0
 12 11  2  0  0  0  0
 13 14  2  0  0  0  0
 14 16  1  0  0  0  0
 15 13  1  0  0  0  0
 15 17  1  0  0  0  0
 17 12  1  0  0  0  0
 19 18  1  0  0  0  0
 19 21  1  0  0  0  0
 21 24  1  0  0  0  0
 21 23  1  0  0  0  0
 22 20  1  0  0  0  0
 23 20  1  0  0  0  0
 24 22  1  0  0  0  0
 26 31  1  0  0  0  0
 26 39  1  1  0  0  0
 26 27  1  0  0  0  0
 27 28  2  0  0  0  0
 28 32  1  0  0  0  0
 29 31  1  0  0  0  0
 30 33  1  0  0  0  0
 30 32  2  0  0  0  0
 31 30  1  0  0  0  0
 32 25  1  0  0  0  0
 34 40  1  0  0  0  0
 34 36  2  0  0  0  0
 35 36  1  0  0  0  0
 37 39  1  0  0  0  0
 37 34  1  0  0  0  0
 38 35  1  0  0  0  0
 39 38  2  0  0  0  0
 41 40  1  0  0  0  0
 42 41  1  0  0  0  0
M  END
>  <MODEL>
1

>  <REMARK>
 VINA RESULT:      -6.9      0.000      0.000
  Name = 
  15 active torsions:
  status: ('A' for Active; 'I' for Inactive)
    1  A    between atoms: C_2  and  C_39
    2  A    between atoms: N_3  and  C_8
    3  A    between atoms: N_3  and  C_16
    4  A    between atoms: C_5  and  O_32
    5  A    between atoms: N_6  and  C_15
    6  A    between atoms: N_6  and  C_17
    7  A    between atoms: C_8  and  C_21
    8  A    between atoms: C_10  and  C_13
    9  A    between atoms: C_10  and  C_34
   10  A    between atoms: C_13  and  C_16
   11  A    between atoms: C_17  and  C_26
   12  A    between atoms: C_26  and  C_30
   13  A    between atoms: C_26  and  C_37
   14  A    between atoms: C_27  and  C_30
   15  A    between atoms: O_31  and  O_32
                            x       y       z     vdW  Elec       q    Type
                         _______ _______ _______ _____ _____    ______ ____

>  <TORSDO>
F 15

$$$$
=
 OpenBabel10222418513D

 42 47  0  0  1  0  0  0  0  0999 V2000
  187.4460  178.2380  140.4940 C   0  0  2  0  0  3  0  0  0  0  0  0
  187.5580  177.1500  138.3090 N   0  0  0  0  0  2  0  0  0  0  0  0
  189.0730  178.9970  138.8690 N   0  0  0  0  0  2  0  0  0  0  0  0
  188.9310  177.5780  138.5630 C   0  0  2  0  0  0  0  0  0  0  0  0
  187.7520  178.4130  138.9950 C   0  0  1  0  0  0  0  0  0  0  0  0
  189.5240  177.5260  137.1680 C   0  0  0  0  0  2  0  0  0  0  0  0
  190.7410  176.6190  137.1550 C   0  0  0  0  0  2  0  0  0  0  0  0
  190.3200  175.2080  137.5110 C   0  0  0  0  0  2  0  0  0  0  0  0
  191.5030  174.3850  137.7150 N   0  0  0  0  0  2  0  0  0  0  0  0
  192.6620  175.2540  137.5880 C   0  0  0  0  0  2  0  0  0  0  0  0
  196.8400  175.2110  139.9270 O   0  0  0  0  0  0  0  0  0  0  0  0
  196.0040  174.6020  139.2110 C   0  0  0  0  0  0  0  0  0  0  0  0
  194.1460  173.3480  137.5860 N   0  0  0  0  0  0  0  0  0  0  0  0
  193.8890  174.5380  138.0470 C   0  0  0  0  0  0  0  0  0  0  0  0
  195.2670  172.5250  138.0550 C   0  0  0  0  0  2  0  0  0  0  0  0
  194.7540  175.1610  138.9520 O   0  0  0  0  0  0  0  0  0  0  0  0
  196.3300  173.3430  138.6280 N   0  0  0  0  0  2  0  0  0  0  0  0
  186.1570  178.9440  140.9030 C   0  0  0  0  0  2  0  0  0  0  0  0
  185.4090  179.3230  139.7180 N   0  0  0  0  0  2  0  0  0  0  0  0
  182.9900  177.0260  140.2190 N   0  0  0  0  0  2  0  0  0  0  0  0
  183.9990  179.1850  140.0360 C   0  0  0  0  0  3  0  0  0  0  0  0
  183.0480  177.3660  138.8550 N   0  0  0  0  0  2  0  0  0  0  0  0
  183.8090  177.9950  140.9380 C   0  0  0  0  0  2  0  0  0  0  0  0
  183.2420  178.8030  138.7970 C   0  0  0  0  0  2  0  0  0  0  0  0
  188.5770  178.8080  141.3510 C   0  0  0  0  0  2  0  0  0  0  0  0
  188.9040  176.5700  145.0920 C   0  0  1  0  0  3  0  0  0  0  0  0
  188.0120  176.1380  143.9610 C   0  0  0  0  0  3  0  0  0  0  0  0
  187.9520  176.8290  142.8200 C   0  0  0  0  0  3  0  0  0  0  0  0
  191.1660  177.5890  145.4610 C   0  0  0  0  0  1  0  0  0  0  0  0
  189.8080  178.2800  143.4560 C   0  0  0  0  0  0  0  0  0  0  0  0
  189.9800  177.4560  144.6290 N   0  0  0  0  0  0  0  0  0  0  0  0
  188.8100  178.0030  142.5930 C   0  0  0  0  0  0  0  0  0  0  0  0
  190.7600  179.4090  143.1920 C   0  0  0  0  0  1  0  0  0  0  0  0
  186.0740  178.5760  146.6710 C   0  0  0  0  0  0  0  0  0  0  0  0
  187.9150  178.3570  148.2830 C   0  0  0  0  0  2  0  0  0  0  0  0
  186.7050  179.0690  147.7450 C   0  0  0  0  0  3  0  0  0  0  0  0
  186.5990  177.3400  145.9950 C   0  0  0  0  0  2  0  0  0  0  0  0
  188.6720  177.7370  147.2110 N   0  0  0  0  0  0  0  0  0  0  0  0
  188.0950  177.2410  146.1630 C   0  0  0  0  0  0  0  0  0  0  0  0
  184.9270  179.1880  146.1650 O   0  0  0  0  0  0  0  0  0  0  0  0
  184.7130  179.2920  144.8440 O   0  0  0  0  0  0  0  0  0  0  0  0
  183.3470  179.0520  144.6920 C   0  0  0  0  0  1  0  0  0  0  0  0
  1 18  1  1  0  0  0
  1 25  1  0  0  0  0
  2  4  1  0  0  0  0
  2  5  1  0  0  0  0
  3  5  1  0  0  0  0
  4  6  1  6  0  0  0
  4  3  1  0  0  0  0
  4  5  1  0  0  0  0
  5  1  1  1  0  0  0
  7  6  1  0  0  0  0
  7  8  1  0  0  0  0
  8  9  1  0  0  0  0
 10  9  1  0  0  0  0
 10 14  1  0  0  0  0
 12 11  2  0  0  0  0
 13 14  2  0  0  0  0
 13 15  1  0  0  0  0
 14 16  1  0  0  0  0
 15 17  1  0  0  0  0
 16 12  1  0  0  0  0
 17 12  1  0  0  0  0
 19 21  1  0  0  0  0
 19 18  1  0  0  0  0
 20 23  1  0  0  0  0
 21 23  1  0  0  0  0
 22 20  1  0  0  0  0
 24 22  1  0  0  0  0
 24 21  1  0  0  0  0
 25 32  1  0  0  0  0
 26 39  1  1  0  0  0
 27 26  1  0  0  0  0
 28 27  2  0  0  0  0
 30 31  1  0  0  0  0
 31 26  1  0  0  0  0
 31 29  1  0  0  0  0
 32 28  1  0  0  0  0
 32 30  2  0  0  0  0
 33 30  1  0  0  0  0
 34 36  2  0  0  0  0
 36 35  1  0  0  0  0
 37 39  1  0  0  0  0
 37 34  1  0  0  0  0
 38 35  1  0  0  0  0
 39 38  2  0  0  0  0
 40 34  1  0  0  0  0
 41 40  1  0  0  0  0
 42 41  1  0  0  0  0
M  END
>  <MODEL>
2

>  <REMARK>
 VINA RESULT:      -6.8      4.023      9.354
  Name = 
  15 active torsions:
  status: ('A' for Active; 'I' for Inactive)
    1  A    between atoms: C_2  and  C_39
    2  A    between atoms: N_3  and  C_8
    3  A    between atoms: N_3  and  C_16
    4  A    between atoms: C_5  and  O_32
    5  A    between atoms: N_6  and  C_15
    6  A    between atoms: N_6  and  C_17
    7  A    between atoms: C_8  and  C_21
    8  A    between atoms: C_10  and  C_13
    9  A    between atoms: C_10  and  C_34
   10  A    between atoms: C_13  and  C_16
   11  A    between atoms: C_17  and  C_26
   12  A    between atoms: C_26  and  C_30
   13  A    between atoms: C_26  and  C_37
   14  A    between atoms: C_27  and  C_30
   15  A    between atoms: O_31  and  O_32
                            x       y       z     vdW  Elec       q    Type
                         _______ _______ _______ _____ _____    ______ ____

>  <TORSDO>
F 15

$$$$
=
 OpenBabel10222418513D

 42 47  0  0  1  0  0  0  0  0999 V2000
  191.0530  176.3140  138.4280 C   0  0  2  0  0  3  0  0  0  0  0  0
  192.2530  177.4180  140.2480 N   0  0  0  0  0  2  0  0  0  0  0  0
  189.8290  177.0610  140.3800 N   0  0  0  0  0  2  0  0  0  0  0  0
  191.1470  176.7370  140.9150 C   0  0  2  0  0  0  0  0  0  0  0  0
  190.9810  177.3630  139.5530 C   0  0  1  0  0  0  0  0  0  0  0  0
  191.1020  177.4660  142.2440 C   0  0  0  0  0  2  0  0  0  0  0  0
  190.7580  176.4940  143.3580 C   0  0  0  0  0  2  0  0  0  0  0  0
  189.9930  177.2220  144.4430 C   0  0  0  0  0  2  0  0  0  0  0  0
  188.8640  177.9260  143.8530 N   0  0  0  0  0  2  0  0  0  0  0  0
  187.6860  177.0950  144.0480 C   0  0  0  0  0  2  0  0  0  0  0  0
  183.5700  179.1690  145.3450 O   0  0  0  0  0  0  0  0  0  0  0  0
  184.7210  178.7750  145.6650 C   0  0  0  0  0  0  0  0  0  0  0  0
  187.2870  177.9350  146.2770 N   0  0  0  0  0  0  0  0  0  0  0  0
  186.8050  177.6960  145.0920 C   0  0  0  0  0  0  0  0  0  0  0  0
  186.4740  178.4260  147.3960 C   0  0  0  0  0  2  0  0  0  0  0  0
  185.4800  178.0130  144.7770 O   0  0  0  0  0  0  0  0  0  0  0  0
  185.2820  179.1240  146.9270 N   0  0  0  0  0  2  0  0  0  0  0  0
  192.4470  175.7100  138.2960 C   0  0  0  0  0  2  0  0  0  0  0  0
  192.9280  175.8800  136.9370 N   0  0  0  0  0  2  0  0  0  0  0  0
  196.0750  174.8930  137.6470 N   0  0  0  0  0  2  0  0  0  0  0  0
  193.8880  174.8210  136.6830 C   0  0  0  0  0  3  0  0  0  0  0  0
  196.0790  175.7030  136.4970 N   0  0  0  0  0  2  0  0  0  0  0  0
  194.6840  174.5630  137.9350 C   0  0  0  0  0  2  0  0  0  0  0  0
  194.9240  175.3070  135.7110 C   0  0  0  0  0  2  0  0  0  0  0  0
  190.6900  176.9370  137.0790 C   0  0  0  0  0  2  0  0  0  0  0  0
  186.4580  178.0320  137.0970 C   0  0  1  0  0  3  0  0  0  0  0  0
  187.5530  179.0200  136.8010 C   0  0  0  0  0  3  0  0  0  0  0  0
  188.8350  178.6500  136.7790 C   0  0  0  0  0  3  0  0  0  0  0  0
  185.8740  175.6350  136.6470 C   0  0  0  0  0  1  0  0  0  0  0  0
  188.2850  176.2810  136.9780 C   0  0  0  0  0  0  0  0  0  0  0  0
  186.8940  176.6500  136.8610 N   0  0  0  0  0  0  0  0  0  0  0  0
  189.2280  177.2450  136.9720 C   0  0  0  0  0  0  0  0  0  0  0  0
  188.6680  174.8340  137.0700 C   0  0  0  0  0  1  0  0  0  0  0  0
  184.0930  178.8710  139.9650 C   0  0  0  0  0  0  0  0  0  0  0  0
  186.3780  178.6420  140.8360 C   0  0  0  0  0  2  0  0  0  0  0  0
  184.9800  179.1870  140.9180 C   0  0  0  0  0  3  0  0  0  0  0  0
  184.5120  178.0060  138.8090 C   0  0  0  0  0  2  0  0  0  0  0  0
  186.8040  178.5120  139.4540 N   0  0  0  0  0  0  0  0  0  0  0  0
  185.9770  178.1980  138.5090 C   0  0  0  0  0  0  0  0  0  0  0  0
  182.7760  179.3260  140.0260 O   0  0  0  0  0  0  0  0  0  0  0  0
  181.7370  178.4840  139.9130 O   0  0  0  0  0  0  0  0  0  0  0  0
  181.0000  178.6790  141.0820 C   0  0  0  0  0  1  0  0  0  0  0  0
  1 25  1  6  0  0  0
  2  4  1  0  0  0  0
  3  4  1  0  0  0  0
  4  6  1  1  0  0  0
  5  1  1  6  0  0  0
  5  2  1  0  0  0  0
  5  3  1  0  0  0  0
  5  4  1  0  0  0  0
  6  7  1  0  0  0  0
  7  8  1  0  0  0  0
  9 10  1  0  0  0  0
  9  8  1  0  0  0  0
 10 14  1  0  0  0  0
 11 12  2  0  0  0  0
 12 17  1  0  0  0  0
 13 15  1  0  0  0  0
 14 13  2  0  0  0  0
 16 14  1  0  0  0  0
 16 12  1  0  0  0  0
 17 15  1  0  0  0  0
 18  1  1  0  0  0  0
 19 18  1  0  0  0  0
 20 23  1  0  0  0  0
 21 19  1  0  0  0  0
 21 23  1  0  0  0  0
 22 20  1  0  0  0  0
 24 22  1  0  0  0  0
 24 21  1  0  0  0  0
 26 39  1  1  0  0  0
 27 26  1  0  0  0  0
 28 27  2  0  0  0  0
 28 32  1  0  0  0  0
 29 31  1  0  0  0  0
 30 33  1  0  0  0  0
 31 30  1  0  0  0  0
 31 26  1  0  0  0  0
 32 30  2  0  0  0  0
 32 25  1  0  0  0  0
 34 40  1  0  0  0  0
 34 36  2  0  0  0  0
 35 36  1  0  0  0  0
 37 34  1  0  0  0  0
 38 35  1  0  0  0  0
 39 37  1  0  0  0  0
 39 38  2  0  0  0  0
 41 40  1  0  0  0  0
 41 42  1  0  0  0  0
M  END
>  <MODEL>
3

>  <REMARK>
 VINA RESULT:      -6.8      3.289      5.320
  Name = 
  15 active torsions:
  status: ('A' for Active; 'I' for Inactive)
    1  A    between atoms: C_2  and  C_39
    2  A    between atoms: N_3  and  C_8
    3  A    between atoms: N_3  and  C_16
    4  A    between atoms: C_5  and  O_32
    5  A    between atoms: N_6  and  C_15
    6  A    between atoms: N_6  and  C_17
    7  A    between atoms: C_8  and  C_21
    8  A    between atoms: C_10  and  C_13
    9  A    between atoms: C_10  and  C_34
   10  A    between atoms: C_13  and  C_16
   11  A    between atoms: C_17  and  C_26
   12  A    between atoms: C_26  and  C_30
   13  A    between atoms: C_26  and  C_37
   14  A    between atoms: C_27  and  C_30
   15  A    between atoms: O_31  and  O_32
                            x       y       z     vdW  Elec       q    Type
                         _______ _______ _______ _____ _____    ______ ____

>  <TORSDO>
F 15

$$$$
=
 OpenBabel10222418513D

 42 47  0  0  1  0  0  0  0  0999 V2000
  190.8920  177.1820  139.9690 C   0  0  2  0  0  3  0  0  0  0  0  0
  191.5220  176.7320  137.6510 N   0  0  0  0  0  2  0  0  0  0  0  0
  193.2200  176.7960  139.4210 N   0  0  0  0  0  2  0  0  0  0  0  0
  192.5060  175.9910  138.4350 C   0  0  2  0  0  0  0  0  0  0  0  0
  191.9820  177.3300  138.8900 C   0  0  1  0  0  0  0  0  0  0  0  0
  193.5980  175.7630  137.4080 C   0  0  0  0  0  2  0  0  0  0  0  0
  193.5420  174.3340  136.9010 C   0  0  0  0  0  2  0  0  0  0  0  0
  194.9290  173.8920  136.4840 C   0  0  0  0  0  2  0  0  0  0  0  0
  194.9750  172.4400  136.4080 N   0  0  0  0  0  2  0  0  0  0  0  0
  195.6710  171.9660  137.5930 C   0  0  0  0  0  2  0  0  0  0  0  0
  196.5540  175.6440  140.5300 O   0  0  0  0  0  0  0  0  0  0  0  0
  196.9420  174.9030  139.5900 C   0  0  0  0  0  0  0  0  0  0  0  0
  197.7020  173.2690  137.4880 N   0  0  0  0  0  0  0  0  0  0  0  0
  196.5830  173.0300  138.1080 C   0  0  0  0  0  0  0  0  0  0  0  0
  198.7080  174.2190  137.9760 C   0  0  0  0  0  2  0  0  0  0  0  0
  196.2140  173.7670  139.2380 O   0  0  0  0  0  0  0  0  0  0  0  0
  198.1160  175.2260  138.8510 N   0  0  0  0  0  2  0  0  0  0  0  0
  189.6670  178.0380  139.6690 C   0  0  0  0  0  2  0  0  0  0  0  0
  188.6070  177.2050  139.1310 N   0  0  0  0  0  2  0  0  0  0  0  0
  187.5070  177.4450  135.9510 N   0  0  0  0  0  2  0  0  0  0  0  0
  187.8100  178.0370  138.2470 C   0  0  0  0  0  3  0  0  0  0  0  0
  188.7500  178.0910  136.0740 N   0  0  0  0  0  2  0  0  0  0  0  0
  187.0370  177.1570  137.3010 C   0  0  0  0  0  2  0  0  0  0  0  0
  188.7180  178.8100  137.3350 C   0  0  0  0  0  2  0  0  0  0  0  0
  191.4250  177.6020  141.3400 C   0  0  0  0  0  2  0  0  0  0  0  0
  188.3280  176.7290  144.2990 C   0  0  1  0  0  3  0  0  0  0  0  0
  188.7110  175.7620  143.2140 C   0  0  0  0  0  3  0  0  0  0  0  0
  189.6780  176.0470  142.3390 C   0  0  0  0  0  3  0  0  0  0  0  0
  189.3990  178.3800  145.8540 C   0  0  0  0  0  1  0  0  0  0  0  0
  190.3430  178.0640  143.5410 C   0  0  0  0  0  0  0  0  0  0  0  0
  189.4000  177.6960  144.5700 N   0  0  0  0  0  0  0  0  0  0  0  0
  190.4600  177.2890  142.4430 C   0  0  0  0  0  0  0  0  0  0  0  0
  191.2050  179.2790  143.7180 C   0  0  0  0  0  1  0  0  0  0  0  0
  185.8950  178.8260  142.2480 C   0  0  0  0  0  0  0  0  0  0  0  0
  185.0460  178.6080  144.5430 C   0  0  0  0  0  2  0  0  0  0  0  0
  185.1340  179.3310  143.2280 C   0  0  0  0  0  3  0  0  0  0  0  0
  186.6780  177.5640  142.4820 C   0  0  0  0  0  2  0  0  0  0  0  0
  186.3010  177.9490  144.8570 N   0  0  0  0  0  0  0  0  0  0  0  0
  187.0570  177.4400  143.9370 C   0  0  0  0  0  0  0  0  0  0  0  0
  185.9720  179.4480  141.0010 O   0  0  0  0  0  0  0  0  0  0  0  0
  184.8670  179.7780  140.3140 O   0  0  0  0  0  0  0  0  0  0  0  0
  184.5370  178.6210  139.6070 C   0  0  0  0  0  1  0  0  0  0  0  0
  1 18  1  6  0  0  0
  1 25  1  0  0  0  0
  2  4  1  0  0  0  0
  2  5  1  0  0  0  0
  4  6  1  6  0  0  0
  4  5  1  0  0  0  0
  4  3  1  0  0  0  0
  5  3  1  0  0  0  0
  5  1  1  1  0  0  0
  7  6  1  0  0  0  0
  8  7  1  0  0  0  0
  9  8  1  0  0  0  0
  9 10  1  0  0  0  0
 10 14  1  0  0  0  0
 12 11  2  0  0  0  0
 13 15  1  0  0  0  0
 13 14  2  0  0  0  0
 14 16  1  0  0  0  0
 15 17  1  0  0  0  0
 16 12  1  0  0  0  0
 17 12  1  0  0  0  0
 19 18  1  0  0  0  0
 20 22  1  0  0  0  0
 20 23  1  0  0  0  0
 21 19  1  0  0  0  0
 22 24  1  0  0  0  0
 23 21  1  0  0  0  0
 24 21  1  0  0  0  0
 25 32  1  0  0  0  0
 26 39  1  6  0  0  0
 26 31  1  0  0  0  0
 27 26  1  0  0  0  0
 28 32  1  0  0  0  0
 28 27  2  0  0  0  0
 30 33  1  0  0  0  0
 30 31  1  0  0  0  0
 31 29  1  0  0  0  0
 32 30  2  0  0  0  0
 34 37  1  0  0  0  0
 34 36  2  0  0  0  0
 35 38  1  0  0  0  0
 36 35  1  0  0  0  0
 37 39  1  0  0  0  0
 39 38  2  0  0  0  0
 40 34  1  0  0  0  0
 41 40  1  0  0  0  0
 42 41  1  0  0  0  0
M  END
>  <MODEL>
4

>  <REMARK>
 VINA RESULT:      -6.7      4.990      9.505
  Name = 
  15 active torsions:
  status: ('A' for Active; 'I' for Inactive)
    1  A    between atoms: C_2  and  C_39
    2  A    between atoms: N_3  and  C_8
    3  A    between atoms: N_3  and  C_16
    4  A    between atoms: C_5  and  O_32
    5  A    between atoms: N_6  and  C_15
    6  A    between atoms: N_6  and  C_17
    7  A    between atoms: C_8  and  C_21
    8  A    between atoms: C_10  and  C_13
    9  A    between atoms: C_10  and  C_34
   10  A    between atoms: C_13  and  C_16
   11  A    between atoms: C_17  and  C_26
   12  A    between atoms: C_26  and  C_30
   13  A    between atoms: C_26  and  C_37
   14  A    between atoms: C_27  and  C_30
   15  A    between atoms: O_31  and  O_32
                            x       y       z     vdW  Elec       q    Type
                         _______ _______ _______ _____ _____    ______ ____

>  <TORSDO>
F 15

$$$$
=
 OpenBabel10222418513D

 42 47  0  0  1  0  0  0  0  0999 V2000
  188.7540  177.5240  140.4000 C   0  0  2  0  0  3  0  0  0  0  0  0
  187.3170  178.4650  142.1390 N   0  0  0  0  0  2  0  0  0  0  0  0
  186.7700  178.7610  139.7660 N   0  0  0  0  0  2  0  0  0  0  0  0
  186.3980  178.1650  141.0440 C   0  0  2  0  0  0  0  0  0  0  0  0
  187.7960  178.6680  140.7850 C   0  0  1  0  0  0  0  0  0  0  0  0
  185.1990  179.0160  141.4180 C   0  0  0  0  0  2  0  0  0  0  0  0
  184.0390  178.1260  141.8250 C   0  0  0  0  0  2  0  0  0  0  0  0
  183.1780  178.8520  142.8370 C   0  0  0  0  0  2  0  0  0  0  0  0
  184.0300  179.5410  143.7950 N   0  0  0  0  0  2  0  0  0  0  0  0
  183.8120  178.9220  145.0930 C   0  0  0  0  0  2  0  0  0  0  0  0
  188.1520  176.8990  145.0480 O   0  0  0  0  0  0  0  0  0  0  0  0
  187.2800  177.5570  145.6730 C   0  0  0  0  0  0  0  0  0  0  0  0
  185.2900  178.9490  147.0030 N   0  0  0  0  0  0  0  0  0  0  0  0
  185.1220  178.6390  145.7490 C   0  0  0  0  0  0  0  0  0  0  0  0
  186.5710  178.8060  147.7050 C   0  0  0  0  0  2  0  0  0  0  0  0
  186.1430  178.0270  145.0160 O   0  0  0  0  0  0  0  0  0  0  0  0
  187.4240  177.8080  147.0680 N   0  0  0  0  0  2  0  0  0  0  0  0
  189.4800  176.9510  141.6130 C   0  0  0  0  0  2  0  0  0  0  0  0
  190.0880  178.0280  142.3730 N   0  0  0  0  0  2  0  0  0  0  0  0
  191.5700  176.2060  144.7940 N   0  0  0  0  0  2  0  0  0  0  0  0
  191.3830  177.5550  142.8300 C   0  0  0  0  0  3  0  0  0  0  0  0
  191.4860  177.5510  145.1960 N   0  0  0  0  0  2  0  0  0  0  0  0
  191.2360  176.1600  143.3760 C   0  0  0  0  0  2  0  0  0  0  0  0
  191.8110  178.3510  144.0290 C   0  0  0  0  0  2  0  0  0  0  0  0
  189.8160  178.0130  139.4140 C   0  0  0  0  0  2  0  0  0  0  0  0
  188.6210  176.6970  135.4210 C   0  0  1  0  0  3  0  0  0  0  0  0
  188.3100  178.0690  135.9510 C   0  0  0  0  0  3  0  0  0  0  0  0
  188.7100  178.4510  137.1670 C   0  0  0  0  0  3  0  0  0  0  0  0
  190.4700  175.0040  135.4650 C   0  0  0  0  0  1  0  0  0  0  0  0
  190.0610  176.4450  137.4890 C   0  0  0  0  0  0  0  0  0  0  0  0
  189.7550  176.0850  136.1250 N   0  0  0  0  0  0  0  0  0  0  0  0
  189.5340  177.5710  138.0110 C   0  0  0  0  0  0  0  0  0  0  0  0
  190.9880  175.5860  138.2970 C   0  0  0  0  0  1  0  0  0  0  0  0
  185.0830  175.6150  136.3350 C   0  0  0  0  0  0  0  0  0  0  0  0
  186.3760  173.6510  135.6230 C   0  0  0  0  0  2  0  0  0  0  0  0
  185.2490  174.2860  136.3880 C   0  0  0  0  0  3  0  0  0  0  0  0
  186.0430  176.4590  135.5420 C   0  0  0  0  0  2  0  0  0  0  0  0
  187.5300  174.5310  135.5740 N   0  0  0  0  0  0  0  0  0  0  0  0
  187.4080  175.8180  135.5120 C   0  0  0  0  0  0  0  0  0  0  0  0
  184.0260  176.2360  137.0000 O   0  0  0  0  0  0  0  0  0  0  0  0
  184.2060  176.8510  138.1790 O   0  0  0  0  0  0  0  0  0  0  0  0
  183.5400  178.0700  138.0430 C   0  0  0  0  0  1  0  0  0  0  0  0
  1 25  1  6  0  0  0
  1 18  1  0  0  0  0
  3  5  1  0  0  0  0
  3  4  1  0  0  0  0
  4  6  1  1  0  0  0
  4  2  1  0  0  0  0
  5  1  1  6  0  0  0
  5  4  1  0  0  0  0
  5  2  1  0  0  0  0
  6  7  1  0  0  0  0
  7  8  1  0  0  0  0
  8  9  1  0  0  0  0
  9 10  1  0  0  0  0
 10 14  1  0  0  0  0
 11 12  2  0  0  0  0
 12 17  1  0  0  0  0
 13 15  1  0  0  0  0
 14 13  2  0  0  0  0
 16 12  1  0  0  0  0
 16 14  1  0  0  0  0
 17 15  1  0  0  0  0
 18 19  1  0  0  0  0
 19 21  1  0  0  0  0
 20 22  1  0  0  0  0
 21 23  1  0  0  0  0
 21 24  1  0  0  0  0
 23 20  1  0  0  0  0
 24 22  1  0  0  0  0
 26 39  1  1  0  0  0
 26 27  1  0  0  0  0
 26 31  1  0  0  0  0
 27 28  2  0  0  0  0
 28 32  1  0  0  0  0
 29 31  1  0  0  0  0
 30 32  2  0  0  0  0
 30 33  1  0  0  0  0
 31 30  1  0  0  0  0
 32 25  1  0  0  0  0
 34 36  2  0  0  0  0
 34 40  1  0  0  0  0
 35 36  1  0  0  0  0
 37 34  1  0  0  0  0
 38 35  1  0  0  0  0
 39 37  1  0  0  0  0
 39 38  2  0  0  0  0
 40 41  1  0  0  0  0
 42 41  1  0  0  0  0
M  END
>  <MODEL>
5

>  <REMARK>
 VINA RESULT:      -6.6      1.972      2.632
  Name = 
  15 active torsions:
  status: ('A' for Active; 'I' for Inactive)
    1  A    between atoms: C_2  and  C_39
    2  A    between atoms: N_3  and  C_8
    3  A    between atoms: N_3  and  C_16
    4  A    between atoms: C_5  and  O_32
    5  A    between atoms: N_6  and  C_15
    6  A    between atoms: N_6  and  C_17
    7  A    between atoms: C_8  and  C_21
    8  A    between atoms: C_10  and  C_13
    9  A    between atoms: C_10  and  C_34
   10  A    between atoms: C_13  and  C_16
   11  A    between atoms: C_17  and  C_26
   12  A    between atoms: C_26  and  C_30
   13  A    between atoms: C_26  and  C_37
   14  A    between atoms: C_27  and  C_30
   15  A    between atoms: O_31  and  O_32
                            x       y       z     vdW  Elec       q    Type
                         _______ _______ _______ _____ _____    ______ ____

>  <TORSDO>
F 15

$$$$
=
 OpenBabel10222418513D

 42 47  0  0  1  0  0  0  0  0999 V2000
  186.9070  177.4600  144.3580 C   0  0  2  0  0  3  0  0  0  0  0  0
  185.5680  179.4700  144.7290 N   0  0  0  0  0  2  0  0  0  0  0  0
  184.9380  177.8460  143.0010 N   0  0  0  0  0  2  0  0  0  0  0  0
  184.5990  178.4790  144.2710 C   0  0  2  0  0  0  0  0  0  0  0  0
  186.0000  178.5260  143.7150 C   0  0  1  0  0  0  0  0  0  0  0  0
  183.4420  179.3630  143.8490 C   0  0  0  0  0  2  0  0  0  0  0  0
  182.1710  178.9270  144.5560 C   0  0  0  0  0  2  0  0  0  0  0  0
  181.0990  178.6310  143.5280 C   0  0  0  0  0  2  0  0  0  0  0  0
  181.0300  179.7240  142.5690 N   0  0  0  0  0  2  0  0  0  0  0  0
  180.6030  179.1590  141.2990 C   0  0  0  0  0  2  0  0  0  0  0  0
  184.9270  179.7540  139.3310 O   0  0  0  0  0  0  0  0  0  0  0  0
  183.9430  179.0020  139.5550 C   0  0  0  0  0  0  0  0  0  0  0  0
  181.7170  177.4280  140.0360 N   0  0  0  0  0  0  0  0  0  0  0  0
  181.7810  178.6180  140.5600 C   0  0  0  0  0  0  0  0  0  0  0  0
  182.8560  176.7710  139.3830 C   0  0  0  0  0  2  0  0  0  0  0  0
  182.9310  179.4020  140.4250 O   0  0  0  0  0  0  0  0  0  0  0  0
  183.8310  177.7420  138.9000 N   0  0  0  0  0  2  0  0  0  0  0  0
  188.1470  178.0720  145.0000 C   0  0  0  0  0  2  0  0  0  0  0  0
  188.7310  177.1280  145.9350 N   0  0  0  0  0  2  0  0  0  0  0  0
  192.0570  176.6490  146.2340 N   0  0  0  0  0  2  0  0  0  0  0  0
  189.9400  177.7350  146.4630 C   0  0  0  0  0  3  0  0  0  0  0  0
  191.3950  176.0840  147.3380 N   0  0  0  0  0  2  0  0  0  0  0  0
  191.0820  177.4660  145.5200 C   0  0  0  0  0  2  0  0  0  0  0  0
  190.3520  177.0210  147.7170 C   0  0  0  0  0  2  0  0  0  0  0  0
  187.3800  176.4470  143.3130 C   0  0  0  0  0  2  0  0  0  0  0  0
  189.7130  178.1340  140.0250 C   0  0  1  0  0  3  0  0  0  0  0  0
  188.3870  178.6990  140.4540 C   0  0  0  0  0  3  0  0  0  0  0  0
  187.7090  178.1770  141.4780 C   0  0  0  0  0  3  0  0  0  0  0  0
  191.7840  177.1390  141.0320 C   0  0  0  0  0  1  0  0  0  0  0  0
  189.5500  176.7040  142.1080 C   0  0  0  0  0  0  0  0  0  0  0  0
  190.3460  177.3550  141.0970 N   0  0  0  0  0  0  0  0  0  0  0  0
  188.2630  177.0720  142.2770 C   0  0  0  0  0  0  0  0  0  0  0  0
  190.1670  175.6520  142.9820 C   0  0  0  0  0  1  0  0  0  0  0  0
  188.0010  176.5750  136.9980 C   0  0  0  0  0  0  0  0  0  0  0  0
  190.0900  175.3690  137.4620 C   0  0  0  0  0  2  0  0  0  0  0  0
  188.7020  175.4380  136.8900 C   0  0  0  0  0  3  0  0  0  0  0  0
  188.5930  177.7550  137.7180 C   0  0  0  0  0  2  0  0  0  0  0  0
  190.2000  176.1850  138.6580 N   0  0  0  0  0  0  0  0  0  0  0  0
  189.5460  177.2940  138.7930 C   0  0  0  0  0  0  0  0  0  0  0  0
  186.7240  176.6900  136.4470 O   0  0  0  0  0  0  0  0  0  0  0  0
  186.2940  177.8420  135.9110 O   0  0  0  0  0  0  0  0  0  0  0  0
  186.8450  177.8580  134.6290 C   0  0  0  0  0  1  0  0  0  0  0  0
  1 25  1  6  0  0  0
  1 18  1  0  0  0  0
  3  5  1  0  0  0  0
  3  4  1  0  0  0  0
  4  6  1  6  0  0  0
  4  2  1  0  0  0  0
  5  4  1  0  0  0  0
  5  1  1  1  0  0  0
  5  2  1  0  0  0  0
  6  7  1  0  0  0  0
  8  7  1  0  0  0  0
  9  8  1  0  0  0  0
 10  9  1  0  0  0  0
 11 12  2  0  0  0  0
 12 16  1  0  0  0  0
 13 14  2  0  0  0  0
 14 10  1  0  0  0  0
 15 13  1  0  0  0  0
 16 14  1  0  0  0  0
 17 15  1  0  0  0  0
 17 12  1  0  0  0  0
 18 19  1  0  0  0  0
 19 21  1  0  0  0  0
 20 22  1  0  0  0  0
 21 24  1  0  0  0  0
 22 24  1  0  0  0  0
 23 20  1  0  0  0  0
 23 21  1  0  0  0  0
 26 39  1  6  0  0  0
 26 27  1  0  0  0  0
 26 31  1  0  0  0  0
 27 28  2  0  0  0  0
 28 32  1  0  0  0  0
 29 31  1  0  0  0  0
 30 32  2  0  0  0  0
 30 33  1  0  0  0  0
 31 30  1  0  0  0  0
 32 25  1  0  0  0  0
 34 37  1  0  0  0  0
 35 38  1  0  0  0  0
 36 34  2  0  0  0  0
 36 35  1  0  0  0  0
 37 39  1  0  0  0  0
 38 39  2  0  0  0  0
 40 34  1  0  0  0  0
 41 40  1  0  0  0  0
 42 41  1  0  0  0  0
M  END
>  <MODEL>
6

>  <REMARK>
 VINA RESULT:      -6.5      3.529      5.813
  Name = 
  15 active torsions:
  status: ('A' for Active; 'I' for Inactive)
    1  A    between atoms: C_2  and  C_39
    2  A    between atoms: N_3  and  C_8
    3  A    between atoms: N_3  and  C_16
    4  A    between atoms: C_5  and  O_32
    5  A    between atoms: N_6  and  C_15
    6  A    between atoms: N_6  and  C_17
    7  A    between atoms: C_8  and  C_21
    8  A    between atoms: C_10  and  C_13
    9  A    between atoms: C_10  and  C_34
   10  A    between atoms: C_13  and  C_16
   11  A    between atoms: C_17  and  C_26
   12  A    between atoms: C_26  and  C_30
   13  A    between atoms: C_26  and  C_37
   14  A    between atoms: C_27  and  C_30
   15  A    between atoms: O_31  and  O_32
                            x       y       z     vdW  Elec       q    Type
                         _______ _______ _______ _____ _____    ______ ____

>  <TORSDO>
F 15

$$$$
=
 OpenBabel10222418513D

 42 47  0  0  1  0  0  0  0  0999 V2000
  188.1000  177.6360  140.8320 C   0  0  2  0  0  3  0  0  0  0  0  0
  187.0820  177.9110  143.0370 N   0  0  0  0  0  2  0  0  0  0  0  0
  186.3690  179.3010  141.1440 N   0  0  0  0  0  2  0  0  0  0  0  0
  186.0130  178.2630  142.1060 C   0  0  2  0  0  0  0  0  0  0  0  0
  187.4510  178.6190  141.8250 C   0  0  1  0  0  0  0  0  0  0  0  0
  185.0660  179.0260  143.0110 C   0  0  0  0  0  2  0  0  0  0  0  0
  183.7100  178.3450  143.0350 C   0  0  0  0  0  2  0  0  0  0  0  0
  182.8410  178.9900  144.0950 C   0  0  0  0  0  2  0  0  0  0  0  0
  181.4490  178.6290  143.8680 N   0  0  0  0  0  2  0  0  0  0  0  0
  180.9300  179.5270  142.8480 C   0  0  0  0  0  2  0  0  0  0  0  0
  178.9310  175.4880  141.2290 O   0  0  0  0  0  0  0  0  0  0  0  0
  179.3330  176.6570  140.9940 C   0  0  0  0  0  0  0  0  0  0  0  0
  180.2930  179.2130  140.5390 N   0  0  0  0  0  0  0  0  0  0  0  0
  180.2940  178.7390  141.7520 C   0  0  0  0  0  0  0  0  0  0  0  0
  179.6040  178.5640  139.4180 C   0  0  0  0  0  2  0  0  0  0  0  0
  179.7240  177.4940  142.0370 O   0  0  0  0  0  0  0  0  0  0  0  0
  179.4230  177.1350  139.6550 N   0  0  0  0  0  2  0  0  0  0  0  0
  189.2920  176.9060  141.4430 C   0  0  0  0  0  2  0  0  0  0  0  0
  190.3890  177.8360  141.6380 N   0  0  0  0  0  2  0  0  0  0  0  0
  190.1300  177.0660  144.9120 N   0  0  0  0  0  2  0  0  0  0  0  0
  191.1590  177.3630  142.7740 C   0  0  0  0  0  3  0  0  0  0  0  0
  190.4500  178.4280  144.7680 N   0  0  0  0  0  2  0  0  0  0  0  0
  190.3030  176.4440  143.6040 C   0  0  0  0  0  2  0  0  0  0  0  0
  191.4340  178.5100  143.7030 C   0  0  0  0  0  2  0  0  0  0  0  0
  188.5990  178.3720  139.5870 C   0  0  0  0  0  2  0  0  0  0  0  0
  186.6640  176.5280  136.1280 C   0  0  1  0  0  3  0  0  0  0  0  0
  186.0010  177.5920  136.9600 C   0  0  0  0  0  3  0  0  0  0  0  0
  186.6270  178.1540  137.9960 C   0  0  0  0  0  3  0  0  0  0  0  0
  188.9270  175.9460  135.2170 C   0  0  0  0  0  1  0  0  0  0  0  0
  188.7460  177.0650  137.4660 C   0  0  0  0  0  0  0  0  0  0  0  0
  188.1250  176.5630  136.2640 N   0  0  0  0  0  0  0  0  0  0  0  0
  188.0190  177.8080  138.3250 C   0  0  0  0  0  0  0  0  0  0  0  0
  190.1960  176.7870  137.7290 C   0  0  0  0  0  1  0  0  0  0  0  0
  184.1330  173.8610  137.1340 C   0  0  0  0  0  0  0  0  0  0  0  0
  186.4070  172.9940  137.4710 C   0  0  0  0  0  2  0  0  0  0  0  0
  184.9370  173.0060  137.7820 C   0  0  0  0  0  3  0  0  0  0  0  0
  184.7130  174.8200  136.1320 C   0  0  0  0  0  2  0  0  0  0  0  0
  186.8770  174.3250  137.1330 N   0  0  0  0  0  0  0  0  0  0  0  0
  186.1330  175.1740  136.4990 C   0  0  0  0  0  0  0  0  0  0  0  0
  182.7580  173.8760  137.3680 O   0  0  0  0  0  0  0  0  0  0  0  0
  182.0950  175.0250  137.5730 O   0  0  0  0  0  0  0  0  0  0  0  0
  182.5760  175.4920  138.7970 C   0  0  0  0  0  1  0  0  0  0  0  0
  1 25  1  6  0  0  0
  1 18  1  0  0  0  0
  3  5  1  0  0  0  0
  3  4  1  0  0  0  0
  4  6  1  1  0  0  0
  4  2  1  0  0  0  0
  5  1  1  6  0  0  0
  5  4  1  0  0  0  0
  5  2  1  0  0  0  0
  6  7  1  0  0  0  0
  7  8  1  0  0  0  0
  9  8  1  0  0  0  0
 10  9  1  0  0  0  0
 12 11  2  0  0  0  0
 12 16  1  0  0  0  0
 13 14  2  0  0  0  0
 14 16  1  0  0  0  0
 14 10  1  0  0  0  0
 15 17  1  0  0  0  0
 15 13  1  0  0  0  0
 17 12  1  0  0  0  0
 18 19  1  0  0  0  0
 19 21  1  0  0  0  0
 21 23  1  0  0  0  0
 21 24  1  0  0  0  0
 22 20  1  0  0  0  0
 23 20  1  0  0  0  0
 24 22  1  0  0  0  0
 26 31  1  0  0  0  0
 26 39  1  1  0  0  0
 26 27  1  0  0  0  0
 27 28  2  0  0  0  0
 28 32  1  0  0  0  0
 29 31  1  0  0  0  0
 30 33  1  0  0  0  0
 30 32  2  0  0  0  0
 31 30  1  0  0  0  0
 32 25  1  0  0  0  0
 34 40  1  0  0  0  0
 34 36  2  0  0  0  0
 35 36  1  0  0  0  0
 37 39  1  0  0  0  0
 37 34  1  0  0  0  0
 38 35  1  0  0  0  0
 39 38  2  0  0  0  0
 40 41  1  0  0  0  0
 41 42  1  0  0  0  0
M  END
>  <MODEL>
7

>  <REMARK>
 VINA RESULT:      -6.4      2.978      4.751
  Name = 
  15 active torsions:
  status: ('A' for Active; 'I' for Inactive)
    1  A    between atoms: C_2  and  C_39
    2  A    between atoms: N_3  and  C_8
    3  A    between atoms: N_3  and  C_16
    4  A    between atoms: C_5  and  O_32
    5  A    between atoms: N_6  and  C_15
    6  A    between atoms: N_6  and  C_17
    7  A    between atoms: C_8  and  C_21
    8  A    between atoms: C_10  and  C_13
    9  A    between atoms: C_10  and  C_34
   10  A    between atoms: C_13  and  C_16
   11  A    between atoms: C_17  and  C_26
   12  A    between atoms: C_26  and  C_30
   13  A    between atoms: C_26  and  C_37
   14  A    between atoms: C_27  and  C_30
   15  A    between atoms: O_31  and  O_32
                            x       y       z     vdW  Elec       q    Type
                         _______ _______ _______ _____ _____    ______ ____

>  <TORSDO>
F 15

$$$$
=
 OpenBabel10222418513D

 42 47  0  0  1  0  0  0  0  0999 V2000
  184.6650  178.7960  140.8470 C   0  0  2  0  0  3  0  0  0  0  0  0
  183.5730  178.5810  138.6710 N   0  0  0  0  0  2  0  0  0  0  0  0
  186.0200  178.6250  138.8460 N   0  0  0  0  0  2  0  0  0  0  0  0
  184.8290  177.8530  138.5110 C   0  0  2  0  0  0  0  0  0  0  0  0
  184.7470  179.1090  139.3410 C   0  0  1  0  0  0  0  0  0  0  0  0
  184.9480  177.7880  137.0000 C   0  0  0  0  0  2  0  0  0  0  0  0
  185.5220  176.4460  136.5830 C   0  0  0  0  0  2  0  0  0  0  0  0
  186.5390  176.6550  135.4800 C   0  0  0  0  0  2  0  0  0  0  0  0
  187.3910  177.7870  135.8130 N   0  0  0  0  0  2  0  0  0  0  0  0
  188.7160  177.5010  135.2860 C   0  0  0  0  0  2  0  0  0  0  0  0
  190.2140  173.3800  137.2090 O   0  0  0  0  0  0  0  0  0  0  0  0
  190.1990  174.6370  137.2420 C   0  0  0  0  0  0  0  0  0  0  0  0
  190.0700  177.4030  137.2840 N   0  0  0  0  0  0  0  0  0  0  0  0
  189.5180  176.7540  136.2990 C   0  0  0  0  0  0  0  0  0  0  0  0
  190.9590  176.7740  138.2680 C   0  0  0  0  0  2  0  0  0  0  0  0
  189.6490  175.3660  136.1890 O   0  0  0  0  0  0  0  0  0  0  0  0
  190.7170  175.3380  138.3690 N   0  0  0  0  0  2  0  0  0  0  0  0
  183.4330  179.4170  141.4960 C   0  0  0  0  0  2  0  0  0  0  0  0
  182.4590  178.3820  141.7890 N   0  0  0  0  0  2  0  0  0  0  0  0
  179.4370  178.2350  143.2800 N   0  0  0  0  0  2  0  0  0  0  0  0
  181.1510  179.0120  141.8070 C   0  0  0  0  0  3  0  0  0  0  0  0
  179.4490  177.4010  142.1470 N   0  0  0  0  0  2  0  0  0  0  0  0
  180.6410  179.0550  143.2220 C   0  0  0  0  0  2  0  0  0  0  0  0
  180.1590  178.1260  141.1090 C   0  0  0  0  0  2  0  0  0  0  0  0
  185.8950  179.3330  141.5810 C   0  0  0  0  0  2  0  0  0  0  0  0
  187.9430  176.4180  144.1130 C   0  0  1  0  0  3  0  0  0  0  0  0
  186.4520  176.6170  144.1450 C   0  0  0  0  0  3  0  0  0  0  0  0
  185.8530  177.4990  143.3410 C   0  0  0  0  0  3  0  0  0  0  0  0
  189.8300  176.3630  142.4620 C   0  0  0  0  0  1  0  0  0  0  0  0
  187.9000  177.9350  142.0860 C   0  0  0  0  0  0  0  0  0  0  0  0
  188.5280  176.8850  142.8500 N   0  0  0  0  0  0  0  0  0  0  0  0
  186.6150  178.2610  142.3400 C   0  0  0  0  0  0  0  0  0  0  0  0
  188.6660  178.6280  140.9980 C   0  0  0  0  0  1  0  0  0  0  0  0
  190.5810  177.2520  146.7340 C   0  0  0  0  0  0  0  0  0  0  0  0
  188.4470  178.2890  147.3690 C   0  0  0  0  0  2  0  0  0  0  0  0
  189.8000  177.7310  147.7110 C   0  0  0  0  0  3  0  0  0  0  0  0
  190.0860  177.2450  145.3140 C   0  0  0  0  0  2  0  0  0  0  0  0
  187.8610  177.5790  146.2460 N   0  0  0  0  0  0  0  0  0  0  0  0
  188.5840  177.1110  145.2790 C   0  0  0  0  0  0  0  0  0  0  0  0
  191.8580  176.7600  147.0070 O   0  0  0  0  0  0  0  0  0  0  0  0
  192.0460  175.5070  147.4480 O   0  0  0  0  0  0  0  0  0  0  0  0
  193.0000  175.6320  148.4590 C   0  0  0  0  0  1  0  0  0  0  0  0
  1 18  1  1  0  0  0
  1 25  1  0  0  0  0
  2  5  1  0  0  0  0
  3  5  1  0  0  0  0
  4  6  1  6  0  0  0
  4  2  1  0  0  0  0
  4  3  1  0  0  0  0
  4  5  1  0  0  0  0
  5  1  1  1  0  0  0
  7  6  1  0  0  0  0
  8  9  1  0  0  0  0
  8  7  1  0  0  0  0
 10  9  1  0  0  0  0
 10 14  1  0  0  0  0
 11 12  2  0  0  0  0
 12 17  1  0  0  0  0
 13 15  1  0  0  0  0
 14 13  2  0  0  0  0
 15 17  1  0  0  0  0
 16 14  1  0  0  0  0
 16 12  1  0  0  0  0
 18 19  1  0  0  0  0
 19 21  1  0  0  0  0
 21 23  1  0  0  0  0
 22 20  1  0  0  0  0
 23 20  1  0  0  0  0
 24 21  1  0  0  0  0
 24 22  1  0  0  0  0
 25 32  1  0  0  0  0
 26 27  1  0  0  0  0
 26 39  1  1  0  0  0
 28 27  2  0  0  0  0
 29 31  1  0  0  0  0
 30 32  2  0  0  0  0
 30 31  1  0  0  0  0
 31 26  1  0  0  0  0
 32 28  1  0  0  0  0
 33 30  1  0  0  0  0
 34 40  1  0  0  0  0
 34 36  2  0  0  0  0
 35 36  1  0  0  0  0
 37 34  1  0  0  0  0
 38 35  1  0  0  0  0
 39 37  1  0  0  0  0
 39 38  2  0  0  0  0
 40 41  1  0  0  0  0
 41 42  1  0  0  0  0
M  END
>  <MODEL>
8

>  <REMARK>
 VINA RESULT:      -6.3      3.096      9.620
  Name = 
  15 active torsions:
  status: ('A' for Active; 'I' for Inactive)
    1  A    between atoms: C_2  and  C_39
    2  A    between atoms: N_3  and  C_8
    3  A    between atoms: N_3  and  C_16
    4  A    between atoms: C_5  and  O_32
    5  A    between atoms: N_6  and  C_15
    6  A    between atoms: N_6  and  C_17
    7  A    between atoms: C_8  and  C_21
    8  A    between atoms: C_10  and  C_13
    9  A    between atoms: C_10  and  C_34
   10  A    between atoms: C_13  and  C_16
   11  A    between atoms: C_17  and  C_26
   12  A    between atoms: C_26  and  C_30
   13  A    between atoms: C_26  and  C_37
   14  A    between atoms: C_27  and  C_30
   15  A    between atoms: O_31  and  O_32
                            x       y       z     vdW  Elec       q    Type
                         _______ _______ _______ _____ _____    ______ ____

>  <TORSDO>
F 15

$$$$
=
 OpenBabel10222418513D

 42 47  0  0  1  0  0  0  0  0999 V2000
  185.8050  176.6730  137.2580 C   0  0  2  0  0  3  0  0  0  0  0  0
  188.1840  176.7860  136.7120 N   0  0  0  0  0  2  0  0  0  0  0  0
  187.1530  178.4630  138.1760 N   0  0  0  0  0  2  0  0  0  0  0  0
  188.1000  177.3610  138.0520 C   0  0  2  0  0  0  0  0  0  0  0  0
  187.0190  177.5920  137.0260 C   0  0  1  0  0  0  0  0  0  0  0  0
  189.4180  178.1050  138.1420 C   0  0  0  0  0  2  0  0  0  0  0  0
  190.3080  177.4600  139.1880 C   0  0  0  0  0  2  0  0  0  0  0  0
  189.4630  177.0210  140.3660 C   0  0  0  0  0  2  0  0  0  0  0  0
  189.9070  177.7120  141.5670 N   0  0  0  0  0  2  0  0  0  0  0  0
  190.6650  176.7570  142.3610 C   0  0  0  0  0  2  0  0  0  0  0  0
  192.1220  176.3360  146.9030 O   0  0  0  0  0  0  0  0  0  0  0  0
  191.2710  176.7680  146.0840 C   0  0  0  0  0  0  0  0  0  0  0  0
  189.4090  177.6370  144.2280 N   0  0  0  0  0  0  0  0  0  0  0  0
  190.4990  177.0580  143.8140 C   0  0  0  0  0  0  0  0  0  0  0  0
  189.1990  178.0660  145.6150 C   0  0  0  0  0  2  0  0  0  0  0  0
  191.5080  176.6980  144.7130 O   0  0  0  0  0  0  0  0  0  0  0  0
  190.0350  177.3110  146.5430 N   0  0  0  0  0  2  0  0  0  0  0  0
  185.8260  175.4520  136.3450 C   0  0  0  0  0  2  0  0  0  0  0  0
  184.4920  175.2030  135.8290 N   0  0  0  0  0  2  0  0  0  0  0  0
  183.1610  172.2460  136.7590 N   0  0  0  0  0  2  0  0  0  0  0  0
  184.4280  173.8000  135.4580 C   0  0  0  0  0  3  0  0  0  0  0  0
  184.4070  172.4240  137.3860 N   0  0  0  0  0  2  0  0  0  0  0  0
  183.0440  173.2770  135.7340 C   0  0  0  0  0  2  0  0  0  0  0  0
  185.2920  172.9980  136.3880 C   0  0  0  0  0  2  0  0  0  0  0  0
  184.4980  177.4230  136.9960 C   0  0  0  0  0  2  0  0  0  0  0  0
  183.0790  178.9950  140.8200 C   0  0  1  0  0  3  0  0  0  0  0  0
  183.8570  179.8260  139.8380 C   0  0  0  0  0  3  0  0  0  0  0  0
  184.2560  179.3250  138.6660 C   0  0  0  0  0  3  0  0  0  0  0  0
  181.2960  177.2320  140.8420 C   0  0  0  0  0  1  0  0  0  0  0  0
  182.9800  177.2670  138.9710 C   0  0  0  0  0  0  0  0  0  0  0  0
  182.4280  177.8510  140.1700 N   0  0  0  0  0  0  0  0  0  0  0  0
  183.8890  177.9600  138.2560 C   0  0  0  0  0  0  0  0  0  0  0  0
  182.5130  175.9170  138.5150 C   0  0  0  0  0  1  0  0  0  0  0  0
  184.4870  178.6760  144.3470 C   0  0  0  0  0  0  0  0  0  0  0  0
  186.0970  177.7450  142.7410 C   0  0  0  0  0  2  0  0  0  0  0  0
  185.7610  178.3710  144.0660 C   0  0  0  0  0  3  0  0  0  0  0  0
  183.4130  178.4210  143.3260 C   0  0  0  0  0  2  0  0  0  0  0  0
  185.2140  178.2350  141.6970 N   0  0  0  0  0  0  0  0  0  0  0  0
  183.9750  178.5300  141.9300 C   0  0  0  0  0  0  0  0  0  0  0  0
  184.1320  179.2230  145.5800 O   0  0  0  0  0  0  0  0  0  0  0  0
  184.5200  178.6580  146.7340 O   0  0  0  0  0  0  0  0  0  0  0  0
  185.7230  179.2930  147.0470 C   0  0  0  0  0  1  0  0  0  0  0  0
  1 18  1  6  0  0  0
  2  5  1  0  0  0  0
  2  4  1  0  0  0  0
  4  6  1  6  0  0  0
  4  3  1  0  0  0  0
  5  1  1  1  0  0  0
  5  4  1  0  0  0  0
  5  3  1  0  0  0  0
  6  7  1  0  0  0  0
  7  8  1  0  0  0  0
  8  9  1  0  0  0  0
  9 10  1  0  0  0  0
 10 14  1  0  0  0  0
 12 17  1  0  0  0  0
 12 11  2  0  0  0  0
 13 15  1  0  0  0  0
 14 13  2  0  0  0  0
 14 16  1  0  0  0  0
 15 17  1  0  0  0  0
 16 12  1  0  0  0  0
 19 18  1  0  0  0  0
 20 22  1  0  0  0  0
 21 23  1  0  0  0  0
 21 19  1  0  0  0  0
 21 24  1  0  0  0  0
 23 20  1  0  0  0  0
 24 22  1  0  0  0  0
 25  1  1  0  0  0  0
 25 32  1  0  0  0  0
 26 39  1  1  0  0  0
 27 26  1  0  0  0  0
 28 27  2  0  0  0  0
 30 31  1  0  0  0  0
 31 26  1  0  0  0  0
 31 29  1  0  0  0  0
 32 28  1  0  0  0  0
 32 30  2  0  0  0  0
 33 30  1  0  0  0  0
 34 40  1  0  0  0  0
 35 36  1  0  0  0  0
 36 34  2  0  0  0  0
 37 34  1  0  0  0  0
 38 39  2  0  0  0  0
 38 35  1  0  0  0  0
 39 37  1  0  0  0  0
 40 41  1  0  0  0  0
 41 42  1  0  0  0  0
M  END
>  <MODEL>
9

>  <REMARK>
 VINA RESULT:      -6.2      3.049      7.341
  Name = 
  15 active torsions:
  status: ('A' for Active; 'I' for Inactive)
    1  A    between atoms: C_2  and  C_39
    2  A    between atoms: N_3  and  C_8
    3  A    between atoms: N_3  and  C_16
    4  A    between atoms: C_5  and  O_32
    5  A    between atoms: N_6  and  C_15
    6  A    between atoms: N_6  and  C_17
    7  A    between atoms: C_8  and  C_21
    8  A    between atoms: C_10  and  C_13
    9  A    between atoms: C_10  and  C_34
   10  A    between atoms: C_13  and  C_16
   11  A    between atoms: C_17  and  C_26
   12  A    between atoms: C_26  and  C_30
   13  A    between atoms: C_26  and  C_37
   14  A    between atoms: C_27  and  C_30
   15  A    between atoms: O_31  and  O_32
                            x       y       z     vdW  Elec       q    Type
                         _______ _______ _______ _____ _____    ______ ____

>  <TORSDO>
F 15

$$$$
