=
 OpenBabel10222418303D

 49 52  0  0  1  0  0  0  0  0999 V2000
  190.0350  177.0940  139.5140 C   0  0  1  0  0  3  0  0  0  0  0  0
  187.8370  177.5850  138.4830 O   0  0  0  0  0  0  0  0  0  0  0  0
  189.1030  177.8710  138.6370 C   0  0  0  0  0  0  0  0  0  0  0  0
  189.4020  178.9880  137.8730 C   0  0  0  0  0  3  0  0  0  0  0  0
  188.2850  179.3320  137.2660 O   0  0  0  0  0  0  0  0  0  0  0  0
  187.3660  178.4800  137.6470 C   0  0  0  0  0  0  0  0  0  0  0  0
  186.1370  178.5280  137.2260 N   0  0  0  0  0  0  0  0  0  0  0  0
  184.1270  178.0150  138.6080 C   0  0  0  0  0  3  0  0  0  0  0  0
  184.9540  176.4100  136.9970 C   0  0  0  0  0  3  0  0  0  0  0  0
  182.9920  175.8920  138.3370 C   0  0  0  0  0  0  0  0  0  0  0  0
  185.0690  177.6540  137.6280 C   0  0  0  0  0  0  0  0  0  0  0  0
  183.0980  177.1380  138.9620 C   0  0  0  0  0  3  0  0  0  0  0  0
  183.9270  175.5150  137.3480 C   0  0  0  0  0  0  0  0  0  0  0  0
  185.4830  172.9780  138.0480 N   0  0  0  0  0  1  0  0  0  0  0  0
  184.3510  172.0200  136.2670 O   0  0  0  0  0  0  0  0  0  0  0  0
  183.7970  174.2380  136.7030 N   0  0  0  0  0  2  0  0  0  0  0  0
  184.5300  173.0350  136.9840 C   0  0  0  0  0  0  0  0  0  0  0  0
  181.9000  174.9610  138.7590 C   0  0  0  0  0  2  0  0  0  0  0  0
  179.3690  175.0230  139.7680 S   0  0  0  0  0  1  0  0  0  0  0  0
  181.0920  175.5690  139.8890 C   0  0  0  0  0  2  0  0  0  0  0  0
  189.4010  176.8910  140.8120 N   0  0  0  0  0  2  0  0  0  0  0  0
  190.2610  177.4730  141.8460 C   0  0  0  0  0  2  0  0  0  0  0  0
  189.7130  177.3030  143.2040 N   0  0  0  0  0  0  0  0  0  0  0  0
  187.4400  176.4890  143.6590 C   0  0  0  0  0  2  0  0  0  0  0  0
  187.8310  177.5010  144.7200 C   0  0  1  0  0  3  0  0  0  0  0  0
  188.3040  177.6840  143.2880 C   0  0  1  0  0  3  0  0  0  0  0  0
  186.7650  178.4090  144.9620 O   0  0  0  0  0  0  0  0  0  0  0  0
  186.7510  178.3520  147.2720 O   0  0  0  0  0  0  0  0  0  0  0  0
  186.1070  178.4830  146.1900 C   0  0  0  0  0  0  0  0  0  0  0  0
  184.6460  178.5880  146.1930 C   0  0  0  0  0  3  0  0  0  0  0  0
  183.8540  178.9330  145.1660 C   0  0  0  0  0  3  0  0  0  0  0  0
  184.2540  179.1270  143.8030 N   0  0  0  0  0  2  0  0  0  0  0  0
  183.4660  178.7710  142.6390 C   0  0  0  0  0  2  0  0  0  0  0  0
  182.1110  179.0350  142.8870 O   0  0  0  0  0  0  0  0  0  0  0  0
  181.4950  178.8020  141.7110 N   0  0  0  0  0  2  0  0  0  0  0  0
  180.1280  178.4220  142.0120 C   0  0  0  0  0  2  0  0  0  0  0  0
  179.2460  178.7360  140.8520 C   0  0  0  0  0  3  0  0  0  0  0  0
  179.7700  179.0320  139.6620 C   0  0  0  0  0  2  0  0  0  0  0  0
  190.4550  178.1820  144.0900 C   0  0  0  0  0  2  0  0  0  0  0  0
  191.4560  177.3670  144.8850 C   0  0  0  0  0  2  0  0  0  0  0  0
  190.8020  176.8740  146.1580 C   0  0  0  0  0  2  0  0  0  0  0  0
  192.4610  175.1800  146.6350 N   0  0  0  0  0  2  0  0  0  0  0  0
  192.2380  176.9080  148.2190 N   0  0  0  0  0  1  0  0  0  0  0  0
  191.8190  176.2330  147.0420 C   0  0  0  0  0  0  0  0  0  0  0  0
  190.3390  175.8550  138.9440 O   0  0  0  0  0  0  0  0  0  0  0  0
  191.5290  175.9040  136.8990 C   0  0  0  0  0  2  0  0  0  0  0  0
  191.6220  176.0080  138.4040 C   0  0  2  0  0  3  0  0  0  0  0  0
  193.5410  174.6780  137.6140 C   0  0  0  0  0  1  0  0  0  0  0  0
  192.0310  174.7260  137.7040 C   0  0  2  0  0  3  0  0  0  0  0  0
  1 45  1  6  0  0  0
  1 21  1  0  0  0  0
  2  3  1  0  0  0  0
  3  1  1  0  0  0  0
  4  3  2  0  0  0  0
  5  6  1  0  0  0  0
  5  4  1  0  0  0  0
  6  2  1  0  0  0  0
  7 11  1  0  0  0  0
  7  6  2  0  0  0  0
  8 12  1  0  0  0  0
  9 13  2  0  0  0  0
  9 11  1  0  0  0  0
 10 18  1  0  0  0  0
 10 12  2  0  0  0  0
 11  8  2  0  0  0  0
 13 10  1  0  0  0  0
 15 17  2  0  0  0  0
 16 17  1  0  0  0  0
 16 13  1  0  0  0  0
 17 14  1  0  0  0  0
 18 20  1  0  0  0  0
 19 20  1  0  0  0  0
 21 22  1  0  0  0  0
 22 23  1  0  0  0  0
 23 39  1  0  0  0  0
 24 25  1  0  0  0  0
 25 27  1  6  0  0  0
 26 23  1  1  0  0  0
 26 24  1  0  0  0  0
 26 25  1  0  0  0  0
 27 29  1  0  0  0  0
 29 30  1  0  0  0  0
 29 28  2  0  0  0  0
 31 30  2  0  0  0  0
 32 31  1  0  0  0  0
 33 34  1  0  0  0  0
 33 32  1  0  0  0  0
 35 36  1  0  0  0  0
 35 34  1  0  0  0  0
 37 36  1  0  0  0  0
 38 37  2  0  0  0  0
 39 40  1  0  0  0  0
 40 41  1  0  0  0  0
 41 44  1  0  0  0  0
 42 44  2  0  0  0  0
 44 43  1  0  0  0  0
 46 49  1  0  0  0  0
 46 47  1  0  0  0  0
 47 45  1  1  0  0  0
 49 48  1  6  0  0  0
 49 47  1  0  0  0  0
M  END
>  <MODEL>
1

>  <REMARK>
 VINA RESULT:      -6.5      0.000      0.000
  Name = 
  24 active torsions:
  status: ('A' for Active; 'I' for Inactive)
    1  A    between atoms: O_1  and  C_22
    2  A    between atoms: O_1  and  C_24
    3  A    between atoms: C_5  and  N_17
    4  A    between atoms: C_5  and  N_42
    5  A    between atoms: N_6  and  C_33
    6  A    between atoms: N_6  and  C_43
    7  A    between atoms: O_10  and  C_12
    8  A    between atoms: O_10  and  C_34
    9  A    between atoms: C_12  and  C_37
   10  A    between atoms: C_13  and  C_19
   11  A    between atoms: C_13  and  C_25
   12  A    between atoms: C_15  and  C_22
   13  A    between atoms: C_16  and  C_35
   14  A    between atoms: N_17  and  C_29
   15  A    between atoms: N_17  and  C_44
   16  A    between atoms: C_19  and  C_29
   17  A    between atoms: C_22  and  N_42
   18  A    between atoms: C_23  and  C_39
   19  A    between atoms: C_23  and  N_49
   20  A    between atoms: C_27  and  N_45
   21  A    between atoms: N_31  and  C_32
   22  A    between atoms: C_33  and  O_46
   23  A    between atoms: C_35  and  C_38
   24  A    between atoms: O_46  and  N_49
                            x       y       z     vdW  Elec       q    Type
                         _______ _______ _______ _____ _____    ______ ____

>  <TORSDO>
F 24

$$$$
=
 OpenBabel10222418303D

 49 52  0  0  1  0  0  0  0  0999 V2000
  187.3090  177.1900  144.5910 C   0  0  1  0  0  3  0  0  0  0  0  0
  185.0440  178.1500  144.3050 O   0  0  0  0  0  0  0  0  0  0  0  0
  186.1140  177.9760  145.0350 C   0  0  0  0  0  0  0  0  0  0  0  0
  185.9360  178.6210  146.2470 C   0  0  0  0  0  3  0  0  0  0  0  0
  184.7450  179.1820  146.1970 O   0  0  0  0  0  0  0  0  0  0  0  0
  184.2330  178.8850  145.0290 C   0  0  0  0  0  0  0  0  0  0  0  0
  183.0580  179.2910  144.6460 N   0  0  0  0  0  0  0  0  0  0  0  0
  181.0230  179.0340  143.2320 C   0  0  0  0  0  3  0  0  0  0  0  0
  183.2210  178.6190  142.3100 C   0  0  0  0  0  3  0  0  0  0  0  0
  181.2460  178.3640  140.9140 C   0  0  0  0  0  0  0  0  0  0  0  0
  182.4180  178.9750  143.3990 C   0  0  0  0  0  0  0  0  0  0  0  0
  180.4410  178.7280  141.9980 C   0  0  0  0  0  3  0  0  0  0  0  0
  182.6490  178.3030  141.0640 C   0  0  0  0  0  0  0  0  0  0  0  0
  184.0850  180.2410  139.1850 N   0  0  0  0  0  1  0  0  0  0  0  0
  184.7400  178.3390  138.0320 O   0  0  0  0  0  0  0  0  0  0  0  0
  183.4650  177.9420  139.9380 N   0  0  0  0  0  2  0  0  0  0  0  0
  184.1300  178.8220  139.0180 C   0  0  0  0  0  0  0  0  0  0  0  0
  180.5940  178.0100  139.6150 C   0  0  0  0  0  2  0  0  0  0  0  0
  180.9160  179.0880  137.1340 S   0  0  0  0  0  1  0  0  0  0  0  0
  180.2800  179.2630  138.8210 C   0  0  0  0  0  2  0  0  0  0  0  0
  187.2150  176.9590  143.1540 N   0  0  0  0  0  2  0  0  0  0  0  0
  187.8590  178.0760  142.4590 C   0  0  0  0  0  2  0  0  0  0  0  0
  188.7320  177.6340  141.3560 N   0  0  0  0  0  0  0  0  0  0  0  0
  190.6660  176.3670  142.1870 C   0  0  0  0  0  2  0  0  0  0  0  0
  190.9340  176.8130  140.7610 C   0  0  1  0  0  3  0  0  0  0  0  0
  190.1500  177.7120  141.7020 C   0  0  1  0  0  3  0  0  0  0  0  0
  192.2530  177.3300  140.6400 O   0  0  0  0  0  0  0  0  0  0  0  0
  194.3570  176.7240  139.9010 O   0  0  0  0  0  0  0  0  0  0  0  0
  193.1330  176.9100  139.6420 C   0  0  0  0  0  0  0  0  0  0  0  0
  192.6320  176.8140  138.2680 C   0  0  0  0  0  3  0  0  0  0  0  0
  192.7400  175.7680  137.4350 C   0  0  0  0  0  3  0  0  0  0  0  0
  193.2350  174.4620  137.7590 N   0  0  0  0  0  2  0  0  0  0  0  0
  194.3190  173.7830  137.0750 C   0  0  0  0  0  2  0  0  0  0  0  0
  195.5320  174.0570  137.7230 O   0  0  0  0  0  0  0  0  0  0  0  0
  196.4630  173.4040  136.9990 N   0  0  0  0  0  2  0  0  0  0  0  0
  197.7220  173.5350  137.7060 C   0  0  0  0  0  2  0  0  0  0  0  0
  197.7180  174.7810  138.5250 C   0  0  0  0  0  3  0  0  0  0  0  0
  198.7290  175.0530  139.3510 C   0  0  0  0  0  2  0  0  0  0  0  0
  188.5070  178.5260  140.2330 C   0  0  0  0  0  2  0  0  0  0  0  0
  187.6430  177.8300  139.2010 C   0  0  0  0  0  2  0  0  0  0  0  0
  188.5020  176.8920  138.3800 C   0  0  0  0  0  2  0  0  0  0  0  0
  189.3350  178.1170  136.4690 N   0  0  0  0  0  1  0  0  0  0  0  0
  187.6070  176.5720  136.0560 N   0  0  0  0  0  2  0  0  0  0  0  0
  188.4580  177.2830  136.9410 C   0  0  0  0  0  0  0  0  0  0  0  0
  188.4920  177.8780  144.8770 O   0  0  0  0  0  0  0  0  0  0  0  0
  189.6080  177.5210  146.9340 C   0  0  0  0  0  2  0  0  0  0  0  0
  189.2910  176.9580  145.5670 C   0  0  2  0  0  3  0  0  0  0  0  0
  191.6540  176.4640  146.0640 C   0  0  0  0  0  1  0  0  0  0  0  0
  190.6500  177.5740  145.8400 C   0  0  2  0  0  3  0  0  0  0  0  0
  1 21  1  6  0  0  0
  1 45  1  0  0  0  0
  1  3  1  0  0  0  0
  2  6  1  0  0  0  0
  2  3  1  0  0  0  0
  3  4  2  0  0  0  0
  5  4  1  0  0  0  0
  6  5  1  0  0  0  0
  7  6  2  0  0  0  0
  8 11  1  0  0  0  0
  9 11  2  0  0  0  0
 10 13  2  0  0  0  0
 10 12  1  0  0  0  0
 11  7  1  0  0  0  0
 12  8  2  0  0  0  0
 13  9  1  0  0  0  0
 15 17  2  0  0  0  0
 16 13  1  0  0  0  0
 17 14  1  0  0  0  0
 17 16  1  0  0  0  0
 18 10  1  0  0  0  0
 19 20  1  0  0  0  0
 20 18  1  0  0  0  0
 22 21  1  0  0  0  0
 23 22  1  0  0  0  0
 25 27  1  1  0  0  0
 25 26  1  0  0  0  0
 25 24  1  0  0  0  0
 26 23  1  6  0  0  0
 26 24  1  0  0  0  0
 29 28  2  0  0  0  0
 29 27  1  0  0  0  0
 30 29  1  0  0  0  0
 31 32  1  0  0  0  0
 31 30  2  0  0  0  0
 33 34  1  0  0  0  0
 33 32  1  0  0  0  0
 35 36  1  0  0  0  0
 35 34  1  0  0  0  0
 36 37  1  0  0  0  0
 37 38  2  0  0  0  0
 39 23  1  0  0  0  0
 40 39  1  0  0  0  0
 41 40  1  0  0  0  0
 42 44  1  0  0  0  0
 43 44  2  0  0  0  0
 44 41  1  0  0  0  0
 47 45  1  6  0  0  0
 47 49  1  0  0  0  0
 47 46  1  0  0  0  0
 49 48  1  1  0  0  0
 49 46  1  0  0  0  0
M  END
>  <MODEL>
2

>  <REMARK>
 VINA RESULT:      -6.5      2.890      9.284
  Name = 
  24 active torsions:
  status: ('A' for Active; 'I' for Inactive)
    1  A    between atoms: O_1  and  C_22
    2  A    between atoms: O_1  and  C_24
    3  A    between atoms: C_5  and  N_17
    4  A    between atoms: C_5  and  N_42
    5  A    between atoms: N_6  and  C_33
    6  A    between atoms: N_6  and  C_43
    7  A    between atoms: O_10  and  C_12
    8  A    between atoms: O_10  and  C_34
    9  A    between atoms: C_12  and  C_37
   10  A    between atoms: C_13  and  C_19
   11  A    between atoms: C_13  and  C_25
   12  A    between atoms: C_15  and  C_22
   13  A    between atoms: C_16  and  C_35
   14  A    between atoms: N_17  and  C_29
   15  A    between atoms: N_17  and  C_44
   16  A    between atoms: C_19  and  C_29
   17  A    between atoms: C_22  and  N_42
   18  A    between atoms: C_23  and  C_39
   19  A    between atoms: C_23  and  N_49
   20  A    between atoms: C_27  and  N_45
   21  A    between atoms: N_31  and  C_32
   22  A    between atoms: C_33  and  O_46
   23  A    between atoms: C_35  and  C_38
   24  A    between atoms: O_46  and  N_49
                            x       y       z     vdW  Elec       q    Type
                         _______ _______ _______ _____ _____    ______ ____

>  <TORSDO>
F 24

$$$$
=
 OpenBabel10222418303D

 49 52  0  0  1  0  0  0  0  0999 V2000
  188.6180  177.3820  144.2950 C   0  0  1  0  0  3  0  0  0  0  0  0
  189.8930  177.2810  142.1740 O   0  0  0  0  0  0  0  0  0  0  0  0
  189.8640  177.4590  143.4690 C   0  0  0  0  0  0  0  0  0  0  0  0
  191.1500  177.7300  143.9080 C   0  0  0  0  0  3  0  0  0  0  0  0
  191.9220  177.6910  142.8430 O   0  0  0  0  0  0  0  0  0  0  0  0
  191.1490  177.4220  141.8210 C   0  0  0  0  0  0  0  0  0  0  0  0
  191.5960  177.3050  140.6050 N   0  0  0  0  0  0  0  0  0  0  0  0
  189.6480  177.7890  139.1280 C   0  0  0  0  0  3  0  0  0  0  0  0
  191.2230  176.0440  138.5550 C   0  0  0  0  0  3  0  0  0  0  0  0
  189.3280  176.5010  137.1010 C   0  0  0  0  0  0  0  0  0  0  0  0
  190.8050  177.0500  139.4330 C   0  0  0  0  0  0  0  0  0  0  0  0
  188.9120  177.5130  137.9710 C   0  0  0  0  0  3  0  0  0  0  0  0
  190.4900  175.7520  137.3900 C   0  0  0  0  0  0  0  0  0  0  0  0
  192.9630  175.8430  135.5950 N   0  0  0  0  0  1  0  0  0  0  0  0
  192.2310  173.7910  134.8040 O   0  0  0  0  0  0  0  0  0  0  0  0
  190.9130  174.7240  136.4790 N   0  0  0  0  0  2  0  0  0  0  0  0
  192.0500  174.7440  135.6010 C   0  0  0  0  0  0  0  0  0  0  0  0
  188.5040  176.2070  135.8870 C   0  0  0  0  0  2  0  0  0  0  0  0
  186.6740  177.8140  134.6660 S   0  0  0  0  0  1  0  0  0  0  0  0
  187.0950  176.7390  136.0620 C   0  0  0  0  0  2  0  0  0  0  0  0
  187.5960  176.6650  143.5410 N   0  0  0  0  0  2  0  0  0  0  0  0
  186.9310  177.6110  142.6430 C   0  0  0  0  0  2  0  0  0  0  0  0
  186.1380  178.6220  143.3660 N   0  0  0  0  0  0  0  0  0  0  0  0
  184.9550  178.5710  145.5190 C   0  0  0  0  0  2  0  0  0  0  0  0
  184.0320  179.1320  144.4530 C   0  0  1  0  0  3  0  0  0  0  0  0
  185.0180  178.0320  144.0980 C   0  0  1  0  0  3  0  0  0  0  0  0
  182.7360  178.5570  144.5620 O   0  0  0  0  0  0  0  0  0  0  0  0
  181.8240  179.8360  142.8680 O   0  0  0  0  0  0  0  0  0  0  0  0
  181.6520  179.0040  143.8060 C   0  0  0  0  0  0  0  0  0  0  0  0
  180.3060  178.5870  144.2050 C   0  0  0  0  0  3  0  0  0  0  0  0
  179.2570  178.3480  143.4030 C   0  0  0  0  0  3  0  0  0  0  0  0
  179.2680  178.3030  141.9700 N   0  0  0  0  0  2  0  0  0  0  0  0
  179.7100  177.1780  141.1690 C   0  0  0  0  0  2  0  0  0  0  0  0
  180.0220  177.6140  139.8730 O   0  0  0  0  0  0  0  0  0  0  0  0
  180.4210  178.8920  140.0280 N   0  0  0  0  0  2  0  0  0  0  0  0
  179.8780  179.6460  138.9140 C   0  0  0  0  0  2  0  0  0  0  0  0
  180.9860  180.1320  138.0430 C   0  0  0  0  0  3  0  0  0  0  0  0
  181.7380  181.1690  138.4160 C   0  0  0  0  0  2  0  0  0  0  0  0
  185.5820  179.5320  142.3800 C   0  0  0  0  0  2  0  0  0  0  0  0
  185.6800  178.9050  141.0040 C   0  0  0  0  0  2  0  0  0  0  0  0
  184.3070  178.8780  140.3680 C   0  0  0  0  0  2  0  0  0  0  0  0
  185.4610  178.9450  138.2440 N   0  0  0  0  0  2  0  0  0  0  0  0
  183.5070  177.6360  138.3360 N   0  0  0  0  0  1  0  0  0  0  0  0
  184.4210  178.5550  138.9150 C   0  0  0  0  0  0  0  0  0  0  0  0
  188.8610  176.7190  145.5010 O   0  0  0  0  0  0  0  0  0  0  0  0
  189.8220  177.4180  147.5480 C   0  0  0  0  0  2  0  0  0  0  0  0
  188.7890  177.7130  146.4850 C   0  0  2  0  0  3  0  0  0  0  0  0
  187.7700  178.1660  148.6820 C   0  0  0  0  0  1  0  0  0  0  0  0
  188.3680  177.0900  147.8020 C   0  0  2  0  0  3  0  0  0  0  0  0
  1 21  1  6  0  0  0
  1 45  1  0  0  0  0
  2  3  1  0  0  0  0
  3  4  2  0  0  0  0
  3  1  1  0  0  0  0
  5  4  1  0  0  0  0
  6  2  1  0  0  0  0
  6  5  1  0  0  0  0
  7  6  2  0  0  0  0
  8 11  1  0  0  0  0
  9 11  2  0  0  0  0
 10 13  2  0  0  0  0
 10 12  1  0  0  0  0
 11  7  1  0  0  0  0
 12  8  2  0  0  0  0
 13  9  1  0  0  0  0
 14 17  1  0  0  0  0
 15 17  2  0  0  0  0
 16 13  1  0  0  0  0
 17 16  1  0  0  0  0
 18 20  1  0  0  0  0
 18 10  1  0  0  0  0
 19 20  1  0  0  0  0
 22 23  1  0  0  0  0
 22 21  1  0  0  0  0
 25 27  1  1  0  0  0
 25 24  1  0  0  0  0
 26 23  1  6  0  0  0
 26 25  1  0  0  0  0
 26 24  1  0  0  0  0
 28 29  2  0  0  0  0
 29 30  1  0  0  0  0
 29 27  1  0  0  0  0
 31 30  2  0  0  0  0
 32 31  1  0  0  0  0
 33 32  1  0  0  0  0
 34 35  1  0  0  0  0
 34 33  1  0  0  0  0
 36 35  1  0  0  0  0
 37 38  2  0  0  0  0
 37 36  1  0  0  0  0
 39 23  1  0  0  0  0
 40 39  1  0  0  0  0
 41 40  1  0  0  0  0
 42 44  2  0  0  0  0
 43 44  1  0  0  0  0
 44 41  1  0  0  0  0
 46 49  1  0  0  0  0
 47 45  1  6  0  0  0
 47 46  1  0  0  0  0
 47 49  1  0  0  0  0
 49 48  1  1  0  0  0
M  END
>  <MODEL>
3

>  <REMARK>
 VINA RESULT:      -6.3      3.170      6.913
  Name = 
  24 active torsions:
  status: ('A' for Active; 'I' for Inactive)
    1  A    between atoms: O_1  and  C_22
    2  A    between atoms: O_1  and  C_24
    3  A    between atoms: C_5  and  N_17
    4  A    between atoms: C_5  and  N_42
    5  A    between atoms: N_6  and  C_33
    6  A    between atoms: N_6  and  C_43
    7  A    between atoms: O_10  and  C_12
    8  A    between atoms: O_10  and  C_34
    9  A    between atoms: C_12  and  C_37
   10  A    between atoms: C_13  and  C_19
   11  A    between atoms: C_13  and  C_25
   12  A    between atoms: C_15  and  C_22
   13  A    between atoms: C_16  and  C_35
   14  A    between atoms: N_17  and  C_29
   15  A    between atoms: N_17  and  C_44
   16  A    between atoms: C_19  and  C_29
   17  A    between atoms: C_22  and  N_42
   18  A    between atoms: C_23  and  C_39
   19  A    between atoms: C_23  and  N_49
   20  A    between atoms: C_27  and  N_45
   21  A    between atoms: N_31  and  C_32
   22  A    between atoms: C_33  and  O_46
   23  A    between atoms: C_35  and  C_38
   24  A    between atoms: O_46  and  N_49
                            x       y       z     vdW  Elec       q    Type
                         _______ _______ _______ _____ _____    ______ ____

>  <TORSDO>
F 24

$$$$
=
 OpenBabel10222418303D

 49 52  0  0  1  0  0  0  0  0999 V2000
  184.9670  178.4280  142.1430 C   0  0  1  0  0  3  0  0  0  0  0  0
  185.7400  178.4090  144.4970 O   0  0  0  0  0  0  0  0  0  0  0  0
  184.7950  178.6210  143.6190 C   0  0  0  0  0  0  0  0  0  0  0  0
  183.6570  179.0480  144.2840 C   0  0  0  0  0  3  0  0  0  0  0  0
  183.9620  179.0650  145.5650 O   0  0  0  0  0  0  0  0  0  0  0  0
  185.2090  178.6810  145.6650 C   0  0  0  0  0  0  0  0  0  0  0  0
  185.8300  178.5780  146.8040 N   0  0  0  0  0  0  0  0  0  0  0  0
  187.8110  178.1560  148.2570 C   0  0  0  0  0  3  0  0  0  0  0  0
  187.9530  177.8420  145.8620 C   0  0  0  0  0  3  0  0  0  0  0  0
  189.8960  177.4250  147.2640 C   0  0  0  0  0  0  0  0  0  0  0  0
  187.2050  178.2010  146.9880 C   0  0  0  0  0  0  0  0  0  0  0  0
  189.1490  177.7740  148.3930 C   0  0  0  0  0  3  0  0  0  0  0  0
  189.3020  177.4620  145.9830 C   0  0  0  0  0  0  0  0  0  0  0  0
  190.8510  179.3630  144.1570 N   0  0  0  0  0  1  0  0  0  0  0  0
  191.3570  177.4660  142.9260 O   0  0  0  0  0  0  0  0  0  0  0  0
  190.0780  177.0870  144.8330 N   0  0  0  0  0  2  0  0  0  0  0  0
  190.7940  177.9520  143.9370 C   0  0  0  0  0  0  0  0  0  0  0  0
  191.3350  177.0520  147.4350 C   0  0  0  0  0  2  0  0  0  0  0  0
  192.2640  174.9350  145.9940 S   0  0  0  0  0  1  0  0  0  0  0  0
  191.4860  175.5450  147.5120 C   0  0  0  0  0  2  0  0  0  0  0  0
  183.7420  178.8420  141.4680 N   0  0  0  0  0  2  0  0  0  0  0  0
  184.0250  178.9870  140.0380 C   0  0  0  0  0  2  0  0  0  0  0  0
  183.0960  178.2150  139.1930 N   0  0  0  0  0  0  0  0  0  0  0  0
  180.7100  177.8560  139.6540 C   0  0  0  0  0  2  0  0  0  0  0  0
  181.2950  176.5980  139.0390 C   0  0  1  0  0  3  0  0  0  0  0  0
  182.1360  177.4440  139.9810 C   0  0  1  0  0  3  0  0  0  0  0  0
  180.8520  175.4460  139.7440 O   0  0  0  0  0  0  0  0  0  0  0  0
  178.9410  174.5470  140.6820 O   0  0  0  0  0  0  0  0  0  0  0  0
  179.5430  174.9700  139.6530 C   0  0  0  0  0  0  0  0  0  0  0  0
  178.9350  174.8550  138.3250 C   0  0  0  0  0  3  0  0  0  0  0  0
  178.9950  173.8060  137.4910 C   0  0  0  0  0  3  0  0  0  0  0  0
  179.5400  172.5110  137.7810 N   0  0  0  0  0  2  0  0  0  0  0  0
  180.3610  171.7260  136.8800 C   0  0  0  0  0  2  0  0  0  0  0  0
  181.5850  171.4260  137.4950 O   0  0  0  0  0  0  0  0  0  0  0  0
  182.4480  172.3380  137.0020 N   0  0  0  0  0  2  0  0  0  0  0  0
  183.6750  171.6340  136.6830 C   0  0  0  0  0  2  0  0  0  0  0  0
  184.8520  172.4560  137.0850 C   0  0  0  0  0  3  0  0  0  0  0  0
  184.6820  173.6360  137.6830 C   0  0  0  0  0  2  0  0  0  0  0  0
  183.8850  177.2700  138.4230 C   0  0  0  0  0  2  0  0  0  0  0  0
  184.9730  178.0140  137.6750 C   0  0  0  0  0  2  0  0  0  0  0  0
  186.0910  177.0520  137.3310 C   0  0  0  0  0  2  0  0  0  0  0  0
  188.4000  177.1850  136.6250 N   0  0  0  0  0  2  0  0  0  0  0  0
  187.3450  179.2210  137.1560 N   0  0  0  0  0  1  0  0  0  0  0  0
  187.3570  177.8030  137.0900 C   0  0  0  0  0  0  0  0  0  0  0  0
  186.0430  179.1810  141.6650 O   0  0  0  0  0  0  0  0  0  0  0  0
  187.7710  177.6240  142.0980 C   0  0  0  0  0  2  0  0  0  0  0  0
  186.8890  178.2540  141.0450 C   0  0  2  0  0  3  0  0  0  0  0  0
  189.1620  178.0560  140.1140 C   0  0  0  0  0  1  0  0  0  0  0  0
  188.3290  178.7030  141.1990 C   0  0  2  0  0  3  0  0  0  0  0  0
  1 21  1  6  0  0  0
  1  3  1  0  0  0  0
  2  6  1  0  0  0  0
  3  4  2  0  0  0  0
  3  2  1  0  0  0  0
  4  5  1  0  0  0  0
  5  6  1  0  0  0  0
  6  7  2  0  0  0  0
  7 11  1  0  0  0  0
  8 12  1  0  0  0  0
  9 13  2  0  0  0  0
  9 11  1  0  0  0  0
 10 18  1  0  0  0  0
 10 12  2  0  0  0  0
 11  8  2  0  0  0  0
 13 10  1  0  0  0  0
 15 17  2  0  0  0  0
 16 13  1  0  0  0  0
 17 14  1  0  0  0  0
 17 16  1  0  0  0  0
 18 20  1  0  0  0  0
 19 20  1  0  0  0  0
 22 21  1  0  0  0  0
 23 22  1  0  0  0  0
 24 26  1  0  0  0  0
 25 24  1  0  0  0  0
 25 27  1  1  0  0  0
 25 26  1  0  0  0  0
 26 23  1  6  0  0  0
 29 27  1  0  0  0  0
 29 28  2  0  0  0  0
 30 29  1  0  0  0  0
 31 32  1  0  0  0  0
 31 30  2  0  0  0  0
 33 34  1  0  0  0  0
 33 32  1  0  0  0  0
 35 34  1  0  0  0  0
 36 35  1  0  0  0  0
 36 37  1  0  0  0  0
 37 38  2  0  0  0  0
 39 23  1  0  0  0  0
 40 39  1  0  0  0  0
 41 40  1  0  0  0  0
 42 44  2  0  0  0  0
 44 43  1  0  0  0  0
 44 41  1  0  0  0  0
 45  1  1  0  0  0  0
 47 49  1  0  0  0  0
 47 45  1  1  0  0  0
 47 46  1  0  0  0  0
 49 48  1  6  0  0  0
 49 46  1  0  0  0  0
M  END
>  <MODEL>
4

>  <REMARK>
 VINA RESULT:      -6.2      3.285      9.431
  Name = 
  24 active torsions:
  status: ('A' for Active; 'I' for Inactive)
    1  A    between atoms: O_1  and  C_22
    2  A    between atoms: O_1  and  C_24
    3  A    between atoms: C_5  and  N_17
    4  A    between atoms: C_5  and  N_42
    5  A    between atoms: N_6  and  C_33
    6  A    between atoms: N_6  and  C_43
    7  A    between atoms: O_10  and  C_12
    8  A    between atoms: O_10  and  C_34
    9  A    between atoms: C_12  and  C_37
   10  A    between atoms: C_13  and  C_19
   11  A    between atoms: C_13  and  C_25
   12  A    between atoms: C_15  and  C_22
   13  A    between atoms: C_16  and  C_35
   14  A    between atoms: N_17  and  C_29
   15  A    between atoms: N_17  and  C_44
   16  A    between atoms: C_19  and  C_29
   17  A    between atoms: C_22  and  N_42
   18  A    between atoms: C_23  and  C_39
   19  A    between atoms: C_23  and  N_49
   20  A    between atoms: C_27  and  N_45
   21  A    between atoms: N_31  and  C_32
   22  A    between atoms: C_33  and  O_46
   23  A    between atoms: C_35  and  C_38
   24  A    between atoms: O_46  and  N_49
                            x       y       z     vdW  Elec       q    Type
                         _______ _______ _______ _____ _____    ______ ____

>  <TORSDO>
F 24

$$$$
=
 OpenBabel10222418303D

 49 52  0  0  1  0  0  0  0  0999 V2000
  190.2580  177.2310  141.7170 C   0  0  1  0  0  3  0  0  0  0  0  0
  190.3960  176.2360  139.4530 O   0  0  0  0  0  0  0  0  0  0  0  0
  190.9490  176.9090  140.4280 C   0  0  0  0  0  0  0  0  0  0  0  0
  192.2350  177.2610  140.0520 C   0  0  0  0  0  3  0  0  0  0  0  0
  192.4180  176.7660  138.8460 O   0  0  0  0  0  0  0  0  0  0  0  0
  191.3060  176.1590  138.5110 C   0  0  0  0  0  0  0  0  0  0  0  0
  191.1460  175.5500  137.3730 N   0  0  0  0  0  0  0  0  0  0  0  0
  189.7320  173.5180  137.0860 C   0  0  0  0  0  3  0  0  0  0  0  0
  188.9530  175.6780  136.3210 C   0  0  0  0  0  3  0  0  0  0  0  0
  187.5590  173.7060  136.0310 C   0  0  0  0  0  0  0  0  0  0  0  0
  189.9470  174.8980  136.9220 C   0  0  0  0  0  0  0  0  0  0  0  0
  188.5460  172.9260  136.6400 C   0  0  0  0  0  3  0  0  0  0  0  0
  187.7580  175.0940  135.8620 C   0  0  0  0  0  0  0  0  0  0  0  0
  185.6930  176.8120  137.3240 N   0  0  0  0  0  1  0  0  0  0  0  0
  184.8420  177.2490  135.2120 O   0  0  0  0  0  0  0  0  0  0  0  0
  186.7280  175.8860  135.2480 N   0  0  0  0  0  2  0  0  0  0  0  0
  185.7250  176.6810  135.9010 C   0  0  0  0  0  0  0  0  0  0  0  0
  186.3150  173.0410  135.5350 C   0  0  0  0  0  2  0  0  0  0  0  0
  184.1520  171.5870  136.3330 S   0  0  0  0  0  1  0  0  0  0  0  0
  185.2720  172.9790  136.6340 C   0  0  0  0  0  2  0  0  0  0  0  0
  188.8580  177.5290  141.4410 N   0  0  0  0  0  2  0  0  0  0  0  0
  188.2480  178.0690  142.6580 C   0  0  0  0  0  2  0  0  0  0  0  0
  186.8480  177.6400  142.8310 N   0  0  0  0  0  0  0  0  0  0  0  0
  185.2570  178.7930  141.3560 C   0  0  0  0  0  2  0  0  0  0  0  0
  184.5070  178.1990  142.5340 C   0  0  1  0  0  3  0  0  0  0  0  0
  185.9080  178.7550  142.7300 C   0  0  1  0  0  3  0  0  0  0  0  0
  183.5740  179.1360  143.0560 O   0  0  0  0  0  0  0  0  0  0  0  0
  183.4970  179.0010  145.3620 O   0  0  0  0  0  0  0  0  0  0  0  0
  182.8900  178.9240  144.2540 C   0  0  0  0  0  0  0  0  0  0  0  0
  181.4930  178.4900  144.1900 C   0  0  0  0  0  3  0  0  0  0  0  0
  180.5070  179.0260  143.4540 C   0  0  0  0  0  3  0  0  0  0  0  0
  180.6420  180.0450  142.4540 N   0  0  0  0  0  2  0  0  0  0  0  0
  180.2510  179.9140  141.0640 C   0  0  0  0  0  2  0  0  0  0  0  0
  181.1890  179.1250  140.3820 O   0  0  0  0  0  0  0  0  0  0  0  0
  181.7430  179.9570  139.4770 N   0  0  0  0  0  2  0  0  0  0  0  0
  180.7560  180.9760  139.1740 C   0  0  0  0  0  2  0  0  0  0  0  0
  181.3210  181.9570  138.2040 C   0  0  0  0  0  3  0  0  0  0  0  0
  180.5180  182.6600  137.4040 C   0  0  0  0  0  2  0  0  0  0  0  0
  186.7210  177.0840  144.1670 C   0  0  0  0  0  2  0  0  0  0  0  0
  187.4670  177.9610  145.1510 C   0  0  0  0  0  2  0  0  0  0  0  0
  186.9450  177.7010  146.5490 C   0  0  0  0  0  2  0  0  0  0  0  0
  188.5640  176.3910  147.7780 N   0  0  0  0  0  2  0  0  0  0  0  0
  188.7740  178.7310  147.9270 N   0  0  0  0  0  1  0  0  0  0  0  0
  188.0830  177.5660  147.5040 C   0  0  0  0  0  0  0  0  0  0  0  0
  190.3410  176.1560  142.6080 O   0  0  0  0  0  0  0  0  0  0  0  0
  191.8820  175.2580  144.1620 C   0  0  0  0  0  2  0  0  0  0  0  0
  191.3410  176.5150  143.5200 C   0  0  2  0  0  3  0  0  0  0  0  0
  191.6750  176.9700  145.9190 C   0  0  0  0  0  1  0  0  0  0  0  0
  190.9080  176.1300  144.9210 C   0  0  2  0  0  3  0  0  0  0  0  0
  1 21  1  6  0  0  0
  1 45  1  0  0  0  0
  2  3  1  0  0  0  0
  3  1  1  0  0  0  0
  4  3  2  0  0  0  0
  5  4  1  0  0  0  0
  6  5  1  0  0  0  0
  6  2  1  0  0  0  0
  7  6  2  0  0  0  0
  9 11  2  0  0  0  0
 10 12  1  0  0  0  0
 11  8  1  0  0  0  0
 11  7  1  0  0  0  0
 12  8  2  0  0  0  0
 13 10  2  0  0  0  0
 13  9  1  0  0  0  0
 15 17  2  0  0  0  0
 16 13  1  0  0  0  0
 16 17  1  0  0  0  0
 17 14  1  0  0  0  0
 18 10  1  0  0  0  0
 18 20  1  0  0  0  0
 19 20  1  0  0  0  0
 21 22  1  0  0  0  0
 22 23  1  0  0  0  0
 23 39  1  0  0  0  0
 24 25  1  0  0  0  0
 24 26  1  0  0  0  0
 25 26  1  0  0  0  0
 25 27  1  1  0  0  0
 26 23  1  6  0  0  0
 27 29  1  0  0  0  0
 29 28  2  0  0  0  0
 30 29  1  0  0  0  0
 31 30  2  0  0  0  0
 32 31  1  0  0  0  0
 33 32  1  0  0  0  0
 34 33  1  0  0  0  0
 35 34  1  0  0  0  0
 36 35  1  0  0  0  0
 37 36  1  0  0  0  0
 38 37  2  0  0  0  0
 39 40  1  0  0  0  0
 40 41  1  0  0  0  0
 41 44  1  0  0  0  0
 44 42  2  0  0  0  0
 44 43  1  0  0  0  0
 46 49  1  0  0  0  0
 47 45  1  6  0  0  0
 47 46  1  0  0  0  0
 47 49  1  0  0  0  0
 49 48  1  1  0  0  0
M  END
>  <MODEL>
5

>  <REMARK>
 VINA RESULT:      -6.2      2.765      4.646
  Name = 
  24 active torsions:
  status: ('A' for Active; 'I' for Inactive)
    1  A    between atoms: O_1  and  C_22
    2  A    between atoms: O_1  and  C_24
    3  A    between atoms: C_5  and  N_17
    4  A    between atoms: C_5  and  N_42
    5  A    between atoms: N_6  and  C_33
    6  A    between atoms: N_6  and  C_43
    7  A    between atoms: O_10  and  C_12
    8  A    between atoms: O_10  and  C_34
    9  A    between atoms: C_12  and  C_37
   10  A    between atoms: C_13  and  C_19
   11  A    between atoms: C_13  and  C_25
   12  A    between atoms: C_15  and  C_22
   13  A    between atoms: C_16  and  C_35
   14  A    between atoms: N_17  and  C_29
   15  A    between atoms: N_17  and  C_44
   16  A    between atoms: C_19  and  C_29
   17  A    between atoms: C_22  and  N_42
   18  A    between atoms: C_23  and  C_39
   19  A    between atoms: C_23  and  N_49
   20  A    between atoms: C_27  and  N_45
   21  A    between atoms: N_31  and  C_32
   22  A    between atoms: C_33  and  O_46
   23  A    between atoms: C_35  and  C_38
   24  A    between atoms: O_46  and  N_49
                            x       y       z     vdW  Elec       q    Type
                         _______ _______ _______ _____ _____    ______ ____

>  <TORSDO>
F 24

$$$$
=
 OpenBabel10222418303D

 49 52  0  0  1  0  0  0  0  0999 V2000
  188.2730  177.6400  144.2870 C   0  0  1  0  0  3  0  0  0  0  0  0
  189.5480  177.3570  142.1820 O   0  0  0  0  0  0  0  0  0  0  0  0
  189.5160  177.6660  143.4520 C   0  0  0  0  0  0  0  0  0  0  0  0
  190.7940  178.0170  143.8570 C   0  0  0  0  0  3  0  0  0  0  0  0
  191.5660  177.8900  142.7970 O   0  0  0  0  0  0  0  0  0  0  0  0
  190.7990  177.4960  141.8120 C   0  0  0  0  0  0  0  0  0  0  0  0
  191.2480  177.2670  140.6130 N   0  0  0  0  0  0  0  0  0  0  0  0
  189.3010  177.5590  139.0850 C   0  0  0  0  0  3  0  0  0  0  0  0
  190.8930  175.7740  138.7210 C   0  0  0  0  0  3  0  0  0  0  0  0
  188.9990  176.0430  137.2190 C   0  0  0  0  0  0  0  0  0  0  0  0
  190.4630  176.8710  139.4760 C   0  0  0  0  0  0  0  0  0  0  0  0
  188.5720  177.1450  137.9650 C   0  0  0  0  0  3  0  0  0  0  0  0
  190.1670  175.3430  137.5960 C   0  0  0  0  0  0  0  0  0  0  0  0
  192.3320  175.3860  135.4380 N   0  0  0  0  0  1  0  0  0  0  0  0
  191.7960  173.1530  135.1240 O   0  0  0  0  0  0  0  0  0  0  0  0
  190.6020  174.2210  136.8110 N   0  0  0  0  0  2  0  0  0  0  0  0
  191.5930  174.2090  135.7710 C   0  0  0  0  0  0  0  0  0  0  0  0
  188.1820  175.6030  136.0460 C   0  0  0  0  0  2  0  0  0  0  0  0
  185.6750  174.9540  136.8950 S   0  0  0  0  0  1  0  0  0  0  0  0
  187.3320  174.4020  136.4140 C   0  0  0  0  0  2  0  0  0  0  0  0
  187.1760  177.1130  143.4830 N   0  0  0  0  0  2  0  0  0  0  0  0
  186.8190  178.1100  142.4710 C   0  0  0  0  0  2  0  0  0  0  0  0
  185.7150  178.9870  142.9000 N   0  0  0  0  0  0  0  0  0  0  0  0
  184.7350  179.0470  145.1520 C   0  0  0  0  0  2  0  0  0  0  0  0
  183.6380  179.2520  144.1230 C   0  0  1  0  0  3  0  0  0  0  0  0
  184.7970  178.3170  143.8190 C   0  0  1  0  0  3  0  0  0  0  0  0
  182.4980  178.4670  144.4450 O   0  0  0  0  0  0  0  0  0  0  0  0
  180.2160  178.1170  144.3410 O   0  0  0  0  0  0  0  0  0  0  0  0
  181.2400  178.7110  143.8930 C   0  0  0  0  0  0  0  0  0  0  0  0
  181.1550  179.5670  142.7080 C   0  0  0  0  0  3  0  0  0  0  0  0
  180.3400  179.4180  141.6530 C   0  0  0  0  0  3  0  0  0  0  0  0
  179.2690  178.4730  141.5250 N   0  0  0  0  0  2  0  0  0  0  0  0
  179.4120  177.0980  141.0850 C   0  0  0  0  0  2  0  0  0  0  0  0
  178.9310  176.9690  139.7750 O   0  0  0  0  0  0  0  0  0  0  0  0
  179.6050  175.9200  139.2640 N   0  0  0  0  0  2  0  0  0  0  0  0
  180.1620  175.1850  140.3830 C   0  0  0  0  0  2  0  0  0  0  0  0
  179.2920  174.0190  140.7080 C   0  0  0  0  0  3  0  0  0  0  0  0
  179.4040  173.3950  141.8820 C   0  0  0  0  0  2  0  0  0  0  0  0
  184.9570  179.3490  141.7150 C   0  0  0  0  0  2  0  0  0  0  0  0
  184.8420  178.1450  140.8020 C   0  0  0  0  0  2  0  0  0  0  0  0
  183.4180  178.0330  140.2990 C   0  0  0  0  0  2  0  0  0  0  0  0
  184.4940  178.2380  138.1430 N   0  0  0  0  0  1  0  0  0  0  0  0
  182.1460  178.0660  138.1340 N   0  0  0  0  0  2  0  0  0  0  0  0
  183.3840  178.1930  138.8160 C   0  0  0  0  0  0  0  0  0  0  0  0
  188.4500  176.8400  145.4190 O   0  0  0  0  0  0  0  0  0  0  0  0
  189.7690  177.2450  147.3420 C   0  0  0  0  0  2  0  0  0  0  0  0
  188.6330  177.7390  146.4760 C   0  0  2  0  0  3  0  0  0  0  0  0
  187.9980  178.0820  148.8330 C   0  0  0  0  0  1  0  0  0  0  0  0
  188.3390  177.0400  147.7900 C   0  0  2  0  0  3  0  0  0  0  0  0
  1 21  1  6  0  0  0
  1 45  1  0  0  0  0
  2  3  1  0  0  0  0
  3  4  2  0  0  0  0
  3  1  1  0  0  0  0
  5  4  1  0  0  0  0
  6  2  1  0  0  0  0
  6  5  1  0  0  0  0
  7  6  2  0  0  0  0
  8 11  1  0  0  0  0
  9 11  2  0  0  0  0
 10 13  2  0  0  0  0
 10 12  1  0  0  0  0
 11  7  1  0  0  0  0
 12  8  2  0  0  0  0
 13  9  1  0  0  0  0
 14 17  1  0  0  0  0
 15 17  2  0  0  0  0
 16 13  1  0  0  0  0
 17 16  1  0  0  0  0
 18 20  1  0  0  0  0
 18 10  1  0  0  0  0
 20 19  1  0  0  0  0
 22 23  1  0  0  0  0
 22 21  1  0  0  0  0
 25 27  1  1  0  0  0
 25 24  1  0  0  0  0
 26 23  1  6  0  0  0
 26 25  1  0  0  0  0
 26 24  1  0  0  0  0
 29 28  2  0  0  0  0
 29 27  1  0  0  0  0
 30 29  1  0  0  0  0
 31 30  2  0  0  0  0
 32 31  1  0  0  0  0
 33 32  1  0  0  0  0
 34 33  1  0  0  0  0
 35 34  1  0  0  0  0
 35 36  1  0  0  0  0
 36 37  1  0  0  0  0
 37 38  2  0  0  0  0
 39 23  1  0  0  0  0
 40 39  1  0  0  0  0
 41 40  1  0  0  0  0
 42 44  1  0  0  0  0
 43 44  2  0  0  0  0
 44 41  1  0  0  0  0
 46 49  1  0  0  0  0
 47 45  1  6  0  0  0
 47 46  1  0  0  0  0
 47 49  1  0  0  0  0
 49 48  1  1  0  0  0
M  END
>  <MODEL>
6

>  <REMARK>
 VINA RESULT:      -5.8      2.999      7.005
  Name = 
  24 active torsions:
  status: ('A' for Active; 'I' for Inactive)
    1  A    between atoms: O_1  and  C_22
    2  A    between atoms: O_1  and  C_24
    3  A    between atoms: C_5  and  N_17
    4  A    between atoms: C_5  and  N_42
    5  A    between atoms: N_6  and  C_33
    6  A    between atoms: N_6  and  C_43
    7  A    between atoms: O_10  and  C_12
    8  A    between atoms: O_10  and  C_34
    9  A    between atoms: C_12  and  C_37
   10  A    between atoms: C_13  and  C_19
   11  A    between atoms: C_13  and  C_25
   12  A    between atoms: C_15  and  C_22
   13  A    between atoms: C_16  and  C_35
   14  A    between atoms: N_17  and  C_29
   15  A    between atoms: N_17  and  C_44
   16  A    between atoms: C_19  and  C_29
   17  A    between atoms: C_22  and  N_42
   18  A    between atoms: C_23  and  C_39
   19  A    between atoms: C_23  and  N_49
   20  A    between atoms: C_27  and  N_45
   21  A    between atoms: N_31  and  C_32
   22  A    between atoms: C_33  and  O_46
   23  A    between atoms: C_35  and  C_38
   24  A    between atoms: O_46  and  N_49
                            x       y       z     vdW  Elec       q    Type
                         _______ _______ _______ _____ _____    ______ ____

>  <TORSDO>
F 24

$$$$
=
 OpenBabel10222418303D

 49 52  0  0  1  0  0  0  0  0999 V2000
  189.2890  175.3410  137.2380 C   0  0  1  0  0  3  0  0  0  0  0  0
  188.8170  177.0760  138.9420 O   0  0  0  0  0  0  0  0  0  0  0  0
  189.0710  176.7480  137.7030 C   0  0  0  0  0  0  0  0  0  0  0  0
  189.1050  177.9020  136.9360 C   0  0  0  0  0  3  0  0  0  0  0  0
  188.8540  178.9000  137.7570 O   0  0  0  0  0  0  0  0  0  0  0  0
  188.6870  178.3810  138.9480 C   0  0  0  0  0  0  0  0  0  0  0  0
  188.4140  179.0950  140.0000 N   0  0  0  0  0  0  0  0  0  0  0  0
  189.3510  178.2800  142.1610 C   0  0  0  0  0  3  0  0  0  0  0  0
  186.9590  178.4650  141.8490 C   0  0  0  0  0  3  0  0  0  0  0  0
  187.8550  177.6670  143.9650 C   0  0  0  0  0  0  0  0  0  0  0  0
  188.2550  178.6020  141.3410 C   0  0  0  0  0  0  0  0  0  0  0  0
  189.1520  177.8120  143.4630 C   0  0  0  0  0  3  0  0  0  0  0  0
  186.7430  177.9900  143.1560 C   0  0  0  0  0  0  0  0  0  0  0  0
  184.9030  180.2690  144.0310 N   0  0  0  0  0  1  0  0  0  0  0  0
  183.4330  178.5890  144.6570 O   0  0  0  0  0  0  0  0  0  0  0  0
  185.4160  177.8490  143.6890 N   0  0  0  0  0  2  0  0  0  0  0  0
  184.5360  178.8920  144.1370 C   0  0  0  0  0  0  0  0  0  0  0  0
  187.6700  177.1330  145.3500 C   0  0  0  0  0  2  0  0  0  0  0  0
  188.7960  177.5980  147.7880 S   0  0  0  0  0  1  0  0  0  0  0  0
  189.0020  177.0580  146.0710 C   0  0  0  0  0  2  0  0  0  0  0  0
  188.0070  174.6470  137.2160 N   0  0  0  0  0  2  0  0  0  0  0  0
  187.0870  175.3970  136.3580 C   0  0  0  0  0  2  0  0  0  0  0  0
  185.7450  175.5400  136.9520 N   0  0  0  0  0  0  0  0  0  0  0  0
  184.6810  173.4200  137.5890 C   0  0  0  0  0  2  0  0  0  0  0  0
  183.6140  174.4870  137.4310 C   0  0  1  0  0  3  0  0  0  0  0  0
  184.8280  174.4880  136.5170 C   0  0  1  0  0  3  0  0  0  0  0  0
  182.5040  173.9790  136.7040 O   0  0  0  0  0  0  0  0  0  0  0  0
  180.7540  175.3920  136.1720 O   0  0  0  0  0  0  0  0  0  0  0  0
  181.2050  174.4540  136.8910 C   0  0  0  0  0  0  0  0  0  0  0  0
  180.4280  173.9300  138.0170 C   0  0  0  0  0  3  0  0  0  0  0  0
  180.2980  174.4720  139.2380 C   0  0  0  0  0  3  0  0  0  0  0  0
  180.7690  175.7590  139.6580 N   0  0  0  0  0  2  0  0  0  0  0  0
  179.9280  176.8750  140.0450 C   0  0  0  0  0  2  0  0  0  0  0  0
  179.3200  176.6030  141.2790 O   0  0  0  0  0  0  0  0  0  0  0  0
  179.3020  177.7880  141.9210 N   0  0  0  0  0  2  0  0  0  0  0  0
  179.2280  178.8220  140.9070 C   0  0  0  0  0  2  0  0  0  0  0  0
  179.9250  180.0510  141.3830 C   0  0  0  0  0  3  0  0  0  0  0  0
  179.3070  181.2330  141.3610 C   0  0  0  0  0  2  0  0  0  0  0  0
  185.1980  176.8080  136.5000 C   0  0  0  0  0  2  0  0  0  0  0  0
  185.3420  177.8390  137.6010 C   0  0  0  0  0  2  0  0  0  0  0  0
  184.2150  177.6680  138.5970 C   0  0  0  0  0  2  0  0  0  0  0  0
  184.6790  179.7510  139.7340 N   0  0  0  0  0  1  0  0  0  0  0  0
  182.5280  179.5170  138.8060 N   0  0  0  0  0  2  0  0  0  0  0  0
  183.8050  178.9960  139.1410 C   0  0  0  0  0  0  0  0  0  0  0  0
  189.8550  175.3210  135.9600 O   0  0  0  0  0  0  0  0  0  0  0  0
  191.8480  174.7800  134.8030 C   0  0  0  0  0  2  0  0  0  0  0  0
  191.1400  174.7930  136.1390 C   0  0  2  0  0  3  0  0  0  0  0  0
  192.3840  172.6730  135.9570 C   0  0  0  0  0  1  0  0  0  0  0  0
  191.2670  173.4990  135.3570 C   0  0  2  0  0  3  0  0  0  0  0  0
  1 45  1  6  0  0  0
  1  3  1  0  0  0  0
  2  6  1  0  0  0  0
  3  2  1  0  0  0  0
  4  3  2  0  0  0  0
  4  5  1  0  0  0  0
  5  6  1  0  0  0  0
  6  7  2  0  0  0  0
  7 11  1  0  0  0  0
  8 12  1  0  0  0  0
  9 13  2  0  0  0  0
 10 18  1  0  0  0  0
 11  9  1  0  0  0  0
 11  8  2  0  0  0  0
 12 10  2  0  0  0  0
 13 16  1  0  0  0  0
 13 10  1  0  0  0  0
 14 17  1  0  0  0  0
 16 17  1  0  0  0  0
 17 15  2  0  0  0  0
 18 20  1  0  0  0  0
 20 19  1  0  0  0  0
 21  1  1  0  0  0  0
 22 23  1  0  0  0  0
 22 21  1  0  0  0  0
 25 27  1  6  0  0  0
 25 24  1  0  0  0  0
 26 23  1  1  0  0  0
 26 25  1  0  0  0  0
 26 24  1  0  0  0  0
 27 29  1  0  0  0  0
 28 29  2  0  0  0  0
 29 30  1  0  0  0  0
 30 31  2  0  0  0  0
 31 32  1  0  0  0  0
 32 33  1  0  0  0  0
 33 34  1  0  0  0  0
 34 35  1  0  0  0  0
 36 37  1  0  0  0  0
 36 35  1  0  0  0  0
 38 37  2  0  0  0  0
 39 23  1  0  0  0  0
 39 40  1  0  0  0  0
 40 41  1  0  0  0  0
 41 44  1  0  0  0  0
 43 44  2  0  0  0  0
 44 42  1  0  0  0  0
 46 49  1  0  0  0  0
 46 47  1  0  0  0  0
 47 45  1  6  0  0  0
 49 48  1  1  0  0  0
 49 47  1  0  0  0  0
M  END
>  <MODEL>
7

>  <REMARK>
 VINA RESULT:      -5.7      3.131      7.501
  Name = 
  24 active torsions:
  status: ('A' for Active; 'I' for Inactive)
    1  A    between atoms: O_1  and  C_22
    2  A    between atoms: O_1  and  C_24
    3  A    between atoms: C_5  and  N_17
    4  A    between atoms: C_5  and  N_42
    5  A    between atoms: N_6  and  C_33
    6  A    between atoms: N_6  and  C_43
    7  A    between atoms: O_10  and  C_12
    8  A    between atoms: O_10  and  C_34
    9  A    between atoms: C_12  and  C_37
   10  A    between atoms: C_13  and  C_19
   11  A    between atoms: C_13  and  C_25
   12  A    between atoms: C_15  and  C_22
   13  A    between atoms: C_16  and  C_35
   14  A    between atoms: N_17  and  C_29
   15  A    between atoms: N_17  and  C_44
   16  A    between atoms: C_19  and  C_29
   17  A    between atoms: C_22  and  N_42
   18  A    between atoms: C_23  and  C_39
   19  A    between atoms: C_23  and  N_49
   20  A    between atoms: C_27  and  N_45
   21  A    between atoms: N_31  and  C_32
   22  A    between atoms: C_33  and  O_46
   23  A    between atoms: C_35  and  C_38
   24  A    between atoms: O_46  and  N_49
                            x       y       z     vdW  Elec       q    Type
                         _______ _______ _______ _____ _____    ______ ____

>  <TORSDO>
F 24

$$$$
=
 OpenBabel10222418303D

 49 52  0  0  1  0  0  0  0  0999 V2000
  188.5390  177.8550  143.2450 C   0  0  1  0  0  3  0  0  0  0  0  0
  189.7510  177.3320  141.1490 O   0  0  0  0  0  0  0  0  0  0  0  0
  189.7650  177.5660  142.4340 C   0  0  0  0  0  0  0  0  0  0  0  0
  191.0750  177.5080  142.8820 C   0  0  0  0  0  3  0  0  0  0  0  0
  191.8140  177.2220  141.8300 O   0  0  0  0  0  0  0  0  0  0  0  0
  191.0000  177.1230  140.8090 C   0  0  0  0  0  0  0  0  0  0  0  0
  191.4050  176.8410  139.6060 N   0  0  0  0  0  0  0  0  0  0  0  0
  189.7150  177.7910  138.0400 C   0  0  0  0  0  3  0  0  0  0  0  0
  190.6630  175.6000  137.6440 C   0  0  0  0  0  3  0  0  0  0  0  0
  189.0150  176.5110  136.1050 C   0  0  0  0  0  0  0  0  0  0  0  0
  190.5790  176.7540  138.4320 C   0  0  0  0  0  0  0  0  0  0  0  0
  188.9360  177.6690  136.8850 C   0  0  0  0  0  3  0  0  0  0  0  0
  189.8810  175.4610  136.4840 C   0  0  0  0  0  0  0  0  0  0  0  0
  188.2930  172.8780  136.8790 N   0  0  0  0  0  1  0  0  0  0  0  0
  189.5080  172.0790  135.0730 O   0  0  0  0  0  0  0  0  0  0  0  0
  189.9630  174.2830  135.6650 N   0  0  0  0  0  2  0  0  0  0  0  0
  189.2560  173.0450  135.8360 C   0  0  0  0  0  0  0  0  0  0  0  0
  188.1460  176.3940  134.8940 C   0  0  0  0  0  2  0  0  0  0  0  0
  185.5250  177.1270  135.0330 S   0  0  0  0  0  1  0  0  0  0  0  0
  186.7830  175.8460  135.2710 C   0  0  0  0  0  2  0  0  0  0  0  0
  187.3620  177.4880  142.4670 N   0  0  0  0  0  2  0  0  0  0  0  0
  186.7910  178.7030  141.8820 C   0  0  0  0  0  2  0  0  0  0  0  0
  185.3320  178.6150  141.6970 N   0  0  0  0  0  0  0  0  0  0  0  0
  185.0300  178.5690  139.2590 C   0  0  0  0  0  2  0  0  0  0  0  0
  183.6720  178.6660  139.9300 C   0  0  1  0  0  3  0  0  0  0  0  0
  184.8700  179.3770  140.5380 C   0  0  1  0  0  3  0  0  0  0  0  0
  182.8610  179.6330  139.2760 O   0  0  0  0  0  0  0  0  0  0  0  0
  180.5750  179.4300  139.0040 O   0  0  0  0  0  0  0  0  0  0  0  0
  181.7370  179.2840  138.5260 C   0  0  0  0  0  0  0  0  0  0  0  0
  181.9400  178.6300  137.2310 C   0  0  0  0  0  3  0  0  0  0  0  0
  182.0600  177.3150  136.9930 C   0  0  0  0  0  3  0  0  0  0  0  0
  181.8650  176.2530  137.9370 N   0  0  0  0  0  2  0  0  0  0  0  0
  180.8890  175.1870  137.8110 C   0  0  0  0  0  2  0  0  0  0  0  0
  181.5430  173.9470  137.8040 O   0  0  0  0  0  0  0  0  0  0  0  0
  181.4070  173.4940  136.5420 N   0  0  0  0  0  2  0  0  0  0  0  0
  182.2750  172.3400  136.4070 C   0  0  0  0  0  2  0  0  0  0  0  0
  183.6920  172.7830  136.2720 C   0  0  0  0  0  3  0  0  0  0  0  0
  184.5890  172.4860  137.2140 C   0  0  0  0  0  2  0  0  0  0  0  0
  184.7040  179.1900  142.8730 C   0  0  0  0  0  2  0  0  0  0  0  0
  183.4400  178.4190  143.1980 C   0  0  0  0  0  2  0  0  0  0  0  0
  182.3890  179.3780  143.7170 C   0  0  0  0  0  2  0  0  0  0  0  0
  180.8660  178.2700  142.2010 N   0  0  0  0  0  2  0  0  0  0  0  0
  180.3010  180.4640  142.8420 N   0  0  0  0  0  1  0  0  0  0  0  0
  181.1940  179.3600  142.8250 C   0  0  0  0  0  0  0  0  0  0  0  0
  188.5530  177.1350  144.4420 O   0  0  0  0  0  0  0  0  0  0  0  0
  188.0840  177.3340  146.7540 C   0  0  0  0  0  2  0  0  0  0  0  0
  188.0790  178.0280  145.4110 C   0  0  2  0  0  3  0  0  0  0  0  0
  186.0100  178.6500  146.5970 C   0  0  0  0  0  1  0  0  0  0  0  0
  186.7850  177.4970  145.9980 C   0  0  2  0  0  3  0  0  0  0  0  0
  1 21  1  6  0  0  0
  1 45  1  0  0  0  0
  2  3  1  0  0  0  0
  3  4  2  0  0  0  0
  3  1  1  0  0  0  0
  5  4  1  0  0  0  0
  6  2  1  0  0  0  0
  6  5  1  0  0  0  0
  7  6  2  0  0  0  0
  8 11  1  0  0  0  0
  9 11  2  0  0  0  0
 10 13  2  0  0  0  0
 10 12  1  0  0  0  0
 11  7  1  0  0  0  0
 12  8  2  0  0  0  0
 13  9  1  0  0  0  0
 15 17  2  0  0  0  0
 16 17  1  0  0  0  0
 16 13  1  0  0  0  0
 17 14  1  0  0  0  0
 18 20  1  0  0  0  0
 18 10  1  0  0  0  0
 19 20  1  0  0  0  0
 22 21  1  0  0  0  0
 23 22  1  0  0  0  0
 23 39  1  0  0  0  0
 24 25  1  0  0  0  0
 24 26  1  0  0  0  0
 25 27  1  6  0  0  0
 25 26  1  0  0  0  0
 26 23  1  1  0  0  0
 29 28  2  0  0  0  0
 29 27  1  0  0  0  0
 30 29  1  0  0  0  0
 31 30  2  0  0  0  0
 31 32  1  0  0  0  0
 33 32  1  0  0  0  0
 34 33  1  0  0  0  0
 35 34  1  0  0  0  0
 36 35  1  0  0  0  0
 37 36  1  0  0  0  0
 37 38  2  0  0  0  0
 39 40  1  0  0  0  0
 40 41  1  0  0  0  0
 42 44  2  0  0  0  0
 44 43  1  0  0  0  0
 44 41  1  0  0  0  0
 47 45  1  6  0  0  0
 47 49  1  0  0  0  0
 47 46  1  0  0  0  0
 49 48  1  1  0  0  0
 49 46  1  0  0  0  0
M  END
>  <MODEL>
8

>  <REMARK>
 VINA RESULT:      -5.6      2.941      7.500
  Name = 
  24 active torsions:
  status: ('A' for Active; 'I' for Inactive)
    1  A    between atoms: O_1  and  C_22
    2  A    between atoms: O_1  and  C_24
    3  A    between atoms: C_5  and  N_17
    4  A    between atoms: C_5  and  N_42
    5  A    between atoms: N_6  and  C_33
    6  A    between atoms: N_6  and  C_43
    7  A    between atoms: O_10  and  C_12
    8  A    between atoms: O_10  and  C_34
    9  A    between atoms: C_12  and  C_37
   10  A    between atoms: C_13  and  C_19
   11  A    between atoms: C_13  and  C_25
   12  A    between atoms: C_15  and  C_22
   13  A    between atoms: C_16  and  C_35
   14  A    between atoms: N_17  and  C_29
   15  A    between atoms: N_17  and  C_44
   16  A    between atoms: C_19  and  C_29
   17  A    between atoms: C_22  and  N_42
   18  A    between atoms: C_23  and  C_39
   19  A    between atoms: C_23  and  N_49
   20  A    between atoms: C_27  and  N_45
   21  A    between atoms: N_31  and  C_32
   22  A    between atoms: C_33  and  O_46
   23  A    between atoms: C_35  and  C_38
   24  A    between atoms: O_46  and  N_49
                            x       y       z     vdW  Elec       q    Type
                         _______ _______ _______ _____ _____    ______ ____

>  <TORSDO>
F 24

$$$$
=
 OpenBabel10222418303D

 49 52  0  0  1  0  0  0  0  0999 V2000
  190.8220  177.3840  142.3830 C   0  0  1  0  0  3  0  0  0  0  0  0
  190.8020  176.4960  140.0710 O   0  0  0  0  0  0  0  0  0  0  0  0
  191.4150  177.1390  141.0300 C   0  0  0  0  0  0  0  0  0  0  0  0
  192.6590  177.5400  140.5720 C   0  0  0  0  0  3  0  0  0  0  0  0
  192.7570  177.1040  139.3330 O   0  0  0  0  0  0  0  0  0  0  0  0
  191.6360  176.4850  139.0580 C   0  0  0  0  0  0  0  0  0  0  0  0
  191.4000  175.9230  137.9090 N   0  0  0  0  0  0  0  0  0  0  0  0
  190.1530  173.9150  137.1200 C   0  0  0  0  0  3  0  0  0  0  0  0
  188.9870  175.9850  137.5780 C   0  0  0  0  0  3  0  0  0  0  0  0
  187.7530  174.0360  136.8080 C   0  0  0  0  0  0  0  0  0  0  0  0
  190.1830  175.2620  137.5230 C   0  0  0  0  0  0  0  0  0  0  0  0
  188.9460  173.3070  136.7610 C   0  0  0  0  0  3  0  0  0  0  0  0
  187.7660  175.3880  137.2140 C   0  0  0  0  0  0  0  0  0  0  0  0
  187.1890  178.0580  135.8400 N   0  0  0  0  0  1  0  0  0  0  0  0
  185.1230  177.9320  136.8830 O   0  0  0  0  0  0  0  0  0  0  0  0
  186.5310  176.1210  137.2710 N   0  0  0  0  0  2  0  0  0  0  0  0
  186.2330  177.3880  136.6640 C   0  0  0  0  0  0  0  0  0  0  0  0
  186.4810  173.3700  136.3870 C   0  0  0  0  0  2  0  0  0  0  0  0
  185.1910  171.1470  135.4800 S   0  0  0  0  0  1  0  0  0  0  0  0
  186.7460  171.9340  135.9760 C   0  0  0  0  0  2  0  0  0  0  0  0
  189.4580  176.8690  142.4010 N   0  0  0  0  0  2  0  0  0  0  0  0
  188.5440  177.9810  142.6740 C   0  0  0  0  0  2  0  0  0  0  0  0
  187.1540  177.6840  142.2850 N   0  0  0  0  0  0  0  0  0  0  0  0
  186.5530  178.6320  140.1000 C   0  0  0  0  0  2  0  0  0  0  0  0
  185.2860  178.3020  140.8680 C   0  0  1  0  0  3  0  0  0  0  0  0
  186.5110  178.8100  141.6100 C   0  0  1  0  0  3  0  0  0  0  0  0
  184.3490  179.3660  140.7660 O   0  0  0  0  0  0  0  0  0  0  0  0
  184.1570  180.4790  138.7490 O   0  0  0  0  0  0  0  0  0  0  0  0
  183.6720  179.6570  139.5810 C   0  0  0  0  0  0  0  0  0  0  0  0
  182.3370  179.0880  139.3850 C   0  0  0  0  0  3  0  0  0  0  0  0
  182.0110  177.7900  139.2920 C   0  0  0  0  0  3  0  0  0  0  0  0
  182.8800  176.6710  139.5160 N   0  0  0  0  0  2  0  0  0  0  0  0
  183.0540  175.5500  138.6130 C   0  0  0  0  0  2  0  0  0  0  0  0
  181.8580  175.3090  137.9220 O   0  0  0  0  0  0  0  0  0  0  0  0
  182.1030  174.2060  137.1870 N   0  0  0  0  0  2  0  0  0  0  0  0
  181.0650  174.1280  136.1770 C   0  0  0  0  0  2  0  0  0  0  0  0
  181.6730  173.8540  134.8430 C   0  0  0  0  0  3  0  0  0  0  0  0
  182.9690  174.0840  134.6290 C   0  0  0  0  0  2  0  0  0  0  0  0
  186.4040  177.4200  143.5010 C   0  0  0  0  0  2  0  0  0  0  0  0
  186.9760  178.2470  144.6350 C   0  0  0  0  0  2  0  0  0  0  0  0
  186.4960  177.6850  145.9560 C   0  0  0  0  0  2  0  0  0  0  0  0
  185.9510  179.4760  147.4860 N   0  0  0  0  0  1  0  0  0  0  0  0
  184.2220  178.7460  146.0640 N   0  0  0  0  0  2  0  0  0  0  0  0
  185.5330  178.6290  146.5950 C   0  0  0  0  0  0  0  0  0  0  0  0
  191.5730  176.7520  143.3780 O   0  0  0  0  0  0  0  0  0  0  0  0
  191.1060  178.0920  145.2730 C   0  0  0  0  0  2  0  0  0  0  0  0
  190.7800  176.8160  144.5300 C   0  0  2  0  0  3  0  0  0  0  0  0
  190.8510  176.2980  146.9390 C   0  0  0  0  0  1  0  0  0  0  0  0
  191.6690  176.7750  145.7590 C   0  0  2  0  0  3  0  0  0  0  0  0
  1 21  1  6  0  0  0
  1 45  1  0  0  0  0
  2  3  1  0  0  0  0
  3  1  1  0  0  0  0
  4  3  2  0  0  0  0
  5  4  1  0  0  0  0
  6  5  1  0  0  0  0
  6  2  1  0  0  0  0
  7  6  2  0  0  0  0
  8 11  1  0  0  0  0
 10 13  2  0  0  0  0
 11  9  2  0  0  0  0
 11  7  1  0  0  0  0
 12 10  1  0  0  0  0
 12  8  2  0  0  0  0
 13 16  1  0  0  0  0
 13  9  1  0  0  0  0
 14 17  1  0  0  0  0
 17 15  2  0  0  0  0
 17 16  1  0  0  0  0
 18 10  1  0  0  0  0
 19 20  1  0  0  0  0
 20 18  1  0  0  0  0
 21 22  1  0  0  0  0
 23 22  1  0  0  0  0
 23 39  1  0  0  0  0
 24 25  1  0  0  0  0
 24 26  1  0  0  0  0
 25 27  1  6  0  0  0
 25 26  1  0  0  0  0
 26 23  1  1  0  0  0
 28 29  2  0  0  0  0
 29 27  1  0  0  0  0
 30 29  1  0  0  0  0
 31 30  2  0  0  0  0
 31 32  1  0  0  0  0
 33 32  1  0  0  0  0
 34 33  1  0  0  0  0
 35 34  1  0  0  0  0
 36 35  1  0  0  0  0
 37 36  1  0  0  0  0
 38 37  2  0  0  0  0
 39 40  1  0  0  0  0
 40 41  1  0  0  0  0
 41 44  1  0  0  0  0
 43 44  2  0  0  0  0
 44 42  1  0  0  0  0
 46 49  1  0  0  0  0
 47 45  1  6  0  0  0
 47 46  1  0  0  0  0
 47 49  1  0  0  0  0
 49 48  1  1  0  0  0
M  END
>  <MODEL>
9

>  <REMARK>
 VINA RESULT:      -5.6      2.884      6.002
  Name = 
  24 active torsions:
  status: ('A' for Active; 'I' for Inactive)
    1  A    between atoms: O_1  and  C_22
    2  A    between atoms: O_1  and  C_24
    3  A    between atoms: C_5  and  N_17
    4  A    between atoms: C_5  and  N_42
    5  A    between atoms: N_6  and  C_33
    6  A    between atoms: N_6  and  C_43
    7  A    between atoms: O_10  and  C_12
    8  A    between atoms: O_10  and  C_34
    9  A    between atoms: C_12  and  C_37
   10  A    between atoms: C_13  and  C_19
   11  A    between atoms: C_13  and  C_25
   12  A    between atoms: C_15  and  C_22
   13  A    between atoms: C_16  and  C_35
   14  A    between atoms: N_17  and  C_29
   15  A    between atoms: N_17  and  C_44
   16  A    between atoms: C_19  and  C_29
   17  A    between atoms: C_22  and  N_42
   18  A    between atoms: C_23  and  C_39
   19  A    between atoms: C_23  and  N_49
   20  A    between atoms: C_27  and  N_45
   21  A    between atoms: N_31  and  C_32
   22  A    between atoms: C_33  and  O_46
   23  A    between atoms: C_35  and  C_38
   24  A    between atoms: O_46  and  N_49
                            x       y       z     vdW  Elec       q    Type
                         _______ _______ _______ _____ _____    ______ ____

>  <TORSDO>
F 24

$$$$
