=
 OpenBabel10222415193D

 43 45  0  0  1  0  0  0  0  0999 V2000
  189.6520  177.3390  140.9540 C   0  0  0  0  0  3  0  0  0  0  0  0
  189.4990  177.0940  142.3130 C   0  0  0  0  0  0  0  0  0  0  0  0
  188.2590  177.4510  142.7310 N   0  0  0  0  0  0  0  0  0  0  0  0
  185.6500  178.3600  142.9680 C   0  0  0  0  0  0  0  0  0  0  0  0
  186.3440  177.8550  144.1010 C   0  0  0  0  0  0  0  0  0  0  0  0
  187.6700  177.3910  143.9630 C   0  0  0  0  0  0  0  0  0  0  0  0
  186.3080  178.3770  141.7240 C   0  0  0  0  0  3  0  0  0  0  0  0
  185.7330  177.8050  145.3510 O   0  0  0  0  0  1  0  0  0  0  0  0
  187.6160  177.9140  141.6480 C   0  0  0  0  0  0  0  0  0  0  0  0
  188.4390  177.8650  140.5380 C   0  0  0  0  0  0  0  0  0  0  0  0
  183.9210  179.8940  144.0130 N   0  0  0  0  0  1  0  0  0  0  0  0
  184.2600  178.8900  143.0560 C   0  0  0  0  0  0  0  0  0  0  0  0
  183.3190  178.4480  142.2150 C   0  0  0  0  0  3  0  0  0  0  0  0
  181.9170  178.9620  142.2200 C   0  0  0  0  0  2  0  0  0  0  0  0
  181.3700  178.9770  140.8360 C   0  0  0  0  0  0  0  0  0  0  0  0
  179.8610  178.6800  139.0910 C   0  0  0  0  0  3  0  0  0  0  0  0
  180.9520  179.1980  138.4000 C   0  0  0  0  0  0  0  0  0  0  0  0
  180.0970  178.5550  140.4680 C   0  0  0  0  0  3  0  0  0  0  0  0
  182.2100  179.5000  139.4800 S   0  0  0  0  0  0  0  0  0  0  0  0
  181.0100  179.3990  136.9760 N   0  0  0  0  0  0  0  0  0  0  0  0
  180.8140  180.7220  136.3990 C   0  0  0  0  0  2  0  0  0  0  0  0
  179.5360  180.7530  135.5850 C   0  0  0  0  0  1  0  0  0  0  0  0
  181.0760  178.2680  136.0610 C   0  0  0  0  0  2  0  0  0  0  0  0
  182.4460  177.6130  136.1350 C   0  0  0  0  0  2  0  0  0  0  0  0
  182.3440  176.2890  136.8160 C   0  0  0  0  0  0  0  0  0  0  0  0
  181.4730  175.4960  136.4860 O   0  0  0  0  0  0  0  0  0  0  0  0
  184.3100  176.9240  137.9700 O   0  0  0  0  0  1  0  0  0  0  0  0
  183.3260  175.9380  137.8870 C   0  0  1  0  0  3  0  0  0  0  0  0
  182.6310  175.7930  139.2280 C   0  0  0  0  0  1  0  0  0  0  0  0
  190.5930  176.5660  143.1790 C   0  0  0  0  0  2  0  0  0  0  0  0
  191.7500  177.4380  143.0900 N   0  0  0  0  0  2  0  0  0  0  0  0
  191.3130  179.6180  144.0400 C   0  0  0  0  0  1  0  0  0  0  0  0
  191.7900  178.2100  144.3180 C   0  0  0  0  0  2  0  0  0  0  0  0
  188.4050  176.8780  145.1630 C   0  0  0  0  0  2  0  0  0  0  0  0
  188.7630  178.0300  146.0870 C   0  0  0  0  0  2  0  0  0  0  0  0
  188.6200  176.3520  147.7770 O   0  0  0  0  0  1  0  0  0  0  0  0
  189.3170  177.4990  147.3960 C   0  0  0  0  0  3  0  0  0  0  0  0
  189.1780  178.4720  148.3840 O   0  0  0  0  0  1  0  0  0  0  0  0
  188.1040  178.2420  139.1250 C   0  0  2  0  0  3  0  0  0  0  0  0
  187.9760  176.0810  137.5540 C   0  0  0  0  0  3  0  0  0  0  0  0
  188.0360  177.0550  138.2620 C   0  0  0  0  0  0  0  0  0  0  0  0
  188.6960  179.5050  137.3490 O   0  0  0  0  0  1  0  0  0  0  0  0
  189.0900  179.1750  138.6020 N   0  0  0  0  0  2  0  0  0  0  0  0
  1  2  2  0  0  0  0
  2  3  1  0  0  0  0
  2 30  1  0  0  0  0
  3  6  1  0  0  0  0
  4 12  1  0  0  0  0
  4  5  1  0  0  0  0
  5  8  1  0  0  0  0
  6  5  2  0  0  0  0
  6 34  1  0  0  0  0
  7  4  2  0  0  0  0
  9  7  1  0  0  0  0
  9  3  1  0  0  0  0
 10  1  1  0  0  0  0
 10  9  2  0  0  0  0
 12 11  1  0  0  0  0
 13 14  1  0  0  0  0
 13 12  2  0  0  0  0
 15 14  1  0  0  0  0
 16 18  1  0  0  0  0
 17 16  2  0  0  0  0
 17 19  1  0  0  0  0
 18 15  2  0  0  0  0
 19 15  1  0  0  0  0
 20 17  1  0  0  0  0
 21 20  1  0  0  0  0
 22 21  1  0  0  0  0
 23 24  1  0  0  0  0
 23 20  1  0  0  0  0
 24 25  1  0  0  0  0
 25 28  1  0  0  0  0
 26 25  2  0  0  0  0
 28 27  1  0  0  0  0
 28 29  1  1  0  0  0
 31 30  1  0  0  0  0
 31 33  1  0  0  0  0
 32 33  1  0  0  0  0
 34 35  1  0  0  0  0
 35 37  1  0  0  0  0
 37 36  1  0  0  0  0
 37 38  1  0  0  0  0
 39 41  1  6  0  0  0
 39 10  1  0  0  0  0
 40 41  3  0  0  0  0
 42 43  1  0  0  0  0
 43 39  1  0  0  0  0
M  END
>  <MODEL>
1

>  <REMARK>
 VINA RESULT:      -6.7      0.000      0.000
  Name = 
  18 active torsions:
  status: ('A' for Active; 'I' for Inactive)
    1  A    between atoms: C_2  and  C_34
    2  A    between atoms: C_2  and  C_39
    3  A    between atoms: C_4  and  C_5
    4  A    between atoms: C_4  and  C_41
    5  A    between atoms: C_6  and  C_28
    6  A    between atoms: C_9  and  N_17
    7  A    between atoms: C_9  and  C_42
    8  A    between atoms: C_9  and  C_43
    9  A    between atoms: C_12  and  N_23
   10  A    between atoms: C_13  and  C_14
   11  A    between atoms: C_14  and  N_19
   12  A    between atoms: N_19  and  C_37
   13  A    between atoms: C_20  and  C_21
   14  A    between atoms: N_23  and  C_29
   15  A    between atoms: N_23  and  C_30
   16  A    between atoms: C_25  and  C_34
   17  A    between atoms: C_26  and  C_28
   18  A    between atoms: C_30  and  C_41
                            x       y       z     vdW  Elec       q    Type
                         _______ _______ _______ _____ _____    ______ ____

>  <TORSDO>
F 18

$$$$
=
 OpenBabel10222415193D

 43 45  0  0  1  0  0  0  0  0999 V2000
  189.5680  177.5440  140.3980 C   0  0  0  0  0  3  0  0  0  0  0  0
  189.4970  177.2000  141.7420 C   0  0  0  0  0  0  0  0  0  0  0  0
  188.2840  177.5180  142.2590 N   0  0  0  0  0  0  0  0  0  0  0  0
  185.6920  178.3920  142.7170 C   0  0  0  0  0  0  0  0  0  0  0  0
  186.4540  177.8100  143.7670 C   0  0  0  0  0  0  0  0  0  0  0  0
  187.7700  177.3660  143.5170 C   0  0  0  0  0  0  0  0  0  0  0  0
  186.2740  178.5030  141.4410 C   0  0  0  0  0  3  0  0  0  0  0  0
  185.9200  177.6660  145.0440 O   0  0  0  0  0  1  0  0  0  0  0  0
  187.5760  178.0550  141.2530 C   0  0  0  0  0  0  0  0  0  0  0  0
  188.3300  178.0910  140.0950 C   0  0  0  0  0  0  0  0  0  0  0  0
  184.0480  179.9270  143.8890 N   0  0  0  0  0  1  0  0  0  0  0  0
  184.3090  178.9050  142.9260 C   0  0  0  0  0  0  0  0  0  0  0  0
  183.2990  178.4310  142.1890 C   0  0  0  0  0  3  0  0  0  0  0  0
  181.8960  178.9270  142.3180 C   0  0  0  0  0  2  0  0  0  0  0  0
  181.2100  178.8770  140.9970 C   0  0  0  0  0  0  0  0  0  0  0  0
  179.5420  178.4750  139.4270 C   0  0  0  0  0  3  0  0  0  0  0  0
  180.5390  179.0010  138.6110 C   0  0  0  0  0  0  0  0  0  0  0  0
  179.9210  178.4060  140.7750 C   0  0  0  0  0  3  0  0  0  0  0  0
  181.8900  179.3780  139.5470 S   0  0  0  0  0  0  0  0  0  0  0  0
  180.4450  179.1540  137.1830 N   0  0  0  0  0  0  0  0  0  0  0  0
  180.1300  178.0170  136.3290 C   0  0  0  0  0  2  0  0  0  0  0  0
  181.2350  177.8070  135.3130 C   0  0  0  0  0  1  0  0  0  0  0  0
  180.8450  180.3960  136.5350 C   0  0  0  0  0  2  0  0  0  0  0  0
  180.0490  181.5610  137.0990 C   0  0  0  0  0  2  0  0  0  0  0  0
  180.9620  182.6980  137.4170 C   0  0  0  0  0  0  0  0  0  0  0  0
  181.8490  182.5570  138.2480 O   0  0  0  0  0  0  0  0  0  0  0  0
  181.8070  184.8810  137.0690 O   0  0  0  0  0  1  0  0  0  0  0  0
  180.7920  183.9980  136.6980 C   0  0  1  0  0  3  0  0  0  0  0  0
  180.8160  183.7900  135.1960 C   0  0  0  0  0  1  0  0  0  0  0  0
  190.6420  176.6180  142.5010 C   0  0  0  0  0  2  0  0  0  0  0  0
  191.7150  177.5910  142.5880 N   0  0  0  0  0  2  0  0  0  0  0  0
  191.4890  179.5300  144.0140 C   0  0  0  0  0  1  0  0  0  0  0  0
  191.7610  178.0430  143.9660 C   0  0  0  0  0  2  0  0  0  0  0  0
  188.5760  176.7720  144.6300 C   0  0  0  0  0  2  0  0  0  0  0  0
  188.8060  177.8070  145.7180 C   0  0  0  0  0  2  0  0  0  0  0  0
  188.8960  178.0580  148.0880 O   0  0  0  0  0  1  0  0  0  0  0  0
  189.0080  177.1250  147.0570 C   0  0  0  0  0  3  0  0  0  0  0  0
  190.2770  176.5480  147.0940 O   0  0  0  0  0  1  0  0  0  0  0  0
  187.9110  178.5670  138.7350 C   0  0  2  0  0  3  0  0  0  0  0  0
  186.3580  176.7640  137.5140 C   0  0  0  0  0  3  0  0  0  0  0  0
  187.0580  177.5750  138.0670 C   0  0  0  0  0  0  0  0  0  0  0  0
  188.9770  180.1350  137.5090 O   0  0  0  0  0  1  0  0  0  0  0  0
  189.0780  178.8470  137.9140 N   0  0  0  0  0  2  0  0  0  0  0  0
  1  2  2  0  0  0  0
  2  3  1  0  0  0  0
  2 30  1  0  0  0  0
  3  6  1  0  0  0  0
  4 12  1  0  0  0  0
  4  5  1  0  0  0  0
  5  8  1  0  0  0  0
  6  5  2  0  0  0  0
  6 34  1  0  0  0  0
  7  4  2  0  0  0  0
  9  7  1  0  0  0  0
  9  3  1  0  0  0  0
 10  1  1  0  0  0  0
 10  9  2  0  0  0  0
 12 11  1  0  0  0  0
 13 14  1  0  0  0  0
 13 12  2  0  0  0  0
 15 14  1  0  0  0  0
 16 18  1  0  0  0  0
 17 16  2  0  0  0  0
 17 19  1  0  0  0  0
 18 15  2  0  0  0  0
 19 15  1  0  0  0  0
 20 17  1  0  0  0  0
 21 20  1  0  0  0  0
 22 21  1  0  0  0  0
 23 24  1  0  0  0  0
 23 20  1  0  0  0  0
 24 25  1  0  0  0  0
 25 26  2  0  0  0  0
 28 29  1  6  0  0  0
 28 27  1  0  0  0  0
 28 25  1  0  0  0  0
 30 31  1  0  0  0  0
 31 33  1  0  0  0  0
 33 32  1  0  0  0  0
 34 35  1  0  0  0  0
 35 37  1  0  0  0  0
 37 38  1  0  0  0  0
 37 36  1  0  0  0  0
 39 41  1  6  0  0  0
 39 10  1  0  0  0  0
 40 41  3  0  0  0  0
 42 43  1  0  0  0  0
 43 39  1  0  0  0  0
M  END
>  <MODEL>
2

>  <REMARK>
 VINA RESULT:      -6.6      1.887      3.012
  Name = 
  18 active torsions:
  status: ('A' for Active; 'I' for Inactive)
    1  A    between atoms: C_2  and  C_34
    2  A    between atoms: C_2  and  C_39
    3  A    between atoms: C_4  and  C_5
    4  A    between atoms: C_4  and  C_41
    5  A    between atoms: C_6  and  C_28
    6  A    between atoms: C_9  and  N_17
    7  A    between atoms: C_9  and  C_42
    8  A    between atoms: C_9  and  C_43
    9  A    between atoms: C_12  and  N_23
   10  A    between atoms: C_13  and  C_14
   11  A    between atoms: C_14  and  N_19
   12  A    between atoms: N_19  and  C_37
   13  A    between atoms: C_20  and  C_21
   14  A    between atoms: N_23  and  C_29
   15  A    between atoms: N_23  and  C_30
   16  A    between atoms: C_25  and  C_34
   17  A    between atoms: C_26  and  C_28
   18  A    between atoms: C_30  and  C_41
                            x       y       z     vdW  Elec       q    Type
                         _______ _______ _______ _____ _____    ______ ____

>  <TORSDO>
F 18

$$$$
=
 OpenBabel10222415193D

 43 45  0  0  1  0  0  0  0  0999 V2000
  182.3060  176.0170  137.3860 C   0  0  0  0  0  3  0  0  0  0  0  0
  183.4330  176.8280  137.3190 C   0  0  0  0  0  0  0  0  0  0  0  0
  183.7070  177.3770  138.5270 N   0  0  0  0  0  0  0  0  0  0  0  0
  183.7330  178.1800  141.1820 C   0  0  0  0  0  0  0  0  0  0  0  0
  184.7250  178.6460  140.2770 C   0  0  0  0  0  0  0  0  0  0  0  0
  184.7010  178.2250  138.9300 C   0  0  0  0  0  0  0  0  0  0  0  0
  182.7470  177.2950  140.7070 C   0  0  0  0  0  3  0  0  0  0  0  0
  185.7290  179.5130  140.7000 O   0  0  0  0  0  1  0  0  0  0  0  0
  182.7680  176.9180  139.3700 C   0  0  0  0  0  0  0  0  0  0  0  0
  181.8890  176.0830  138.7070 C   0  0  0  0  0  0  0  0  0  0  0  0
  182.5490  179.3000  143.1260 N   0  0  0  0  0  1  0  0  0  0  0  0
  183.6880  178.6110  142.6080 C   0  0  0  0  0  0  0  0  0  0  0  0
  184.7080  178.3310  143.4250 C   0  0  0  0  0  3  0  0  0  0  0  0
  184.7140  178.6980  144.8730 C   0  0  0  0  0  2  0  0  0  0  0  0
  186.0100  178.3130  145.4960 C   0  0  0  0  0  0  0  0  0  0  0  0
  187.6030  177.9430  147.1500 C   0  0  0  0  0  3  0  0  0  0  0  0
  188.3200  177.5720  146.0160 C   0  0  0  0  0  0  0  0  0  0  0  0
  186.2970  178.3620  146.8550 C   0  0  0  0  0  3  0  0  0  0  0  0
  187.3510  177.7610  144.6500 S   0  0  0  0  0  0  0  0  0  0  0  0
  189.6930  177.1390  146.0110 N   0  0  0  0  0  0  0  0  0  0  0  0
  190.2130  176.2900  147.0740 C   0  0  0  0  0  2  0  0  0  0  0  0
  191.4210  176.9410  147.7170 C   0  0  0  0  0  1  0  0  0  0  0  0
  190.6460  177.6830  145.0540 C   0  0  0  0  0  2  0  0  0  0  0  0
  191.3200  176.5580  144.2860 C   0  0  0  0  0  2  0  0  0  0  0  0
  190.6040  176.3170  142.9990 C   0  0  0  0  0  0  0  0  0  0  0  0
  190.1100  175.2220  142.7690 O   0  0  0  0  0  0  0  0  0  0  0  0
  191.5400  177.3720  141.0980 O   0  0  0  0  0  1  0  0  0  0  0  0
  190.4840  177.4300  142.0070 C   0  0  1  0  0  3  0  0  0  0  0  0
  189.1630  177.3490  141.2660 C   0  0  0  0  0  1  0  0  0  0  0  0
  184.1830  177.0850  136.0550 C   0  0  0  0  0  2  0  0  0  0  0  0
  184.4790  175.8250  135.3970 N   0  0  0  0  0  2  0  0  0  0  0  0
  185.8980  173.8740  135.5450 C   0  0  0  0  0  1  0  0  0  0  0  0
  185.6580  175.2810  136.0440 C   0  0  0  0  0  2  0  0  0  0  0  0
  185.7360  178.7330  137.9760 C   0  0  0  0  0  2  0  0  0  0  0  0
  187.0360  177.9690  138.1600 C   0  0  0  0  0  2  0  0  0  0  0  0
  188.8410  177.3090  136.7460 O   0  0  0  0  0  1  0  0  0  0  0  0
  188.0490  178.3970  137.1150 C   0  0  0  0  0  3  0  0  0  0  0  0
  188.8620  179.3990  137.6440 O   0  0  0  0  0  1  0  0  0  0  0  0
  180.7270  175.3260  139.2790 C   0  0  2  0  0  3  0  0  0  0  0  0
  180.1500  173.1790  137.7910 C   0  0  0  0  0  3  0  0  0  0  0  0
  180.4110  174.1450  138.4630 C   0  0  0  0  0  0  0  0  0  0  0  0
  179.2380  176.2760  140.6870 O   0  0  0  0  0  1  0  0  0  0  0  0
  179.5580  176.1860  139.3740 N   0  0  0  0  0  2  0  0  0  0  0  0
  1 10  1  0  0  0  0
  2  1  2  0  0  0  0
  2  3  1  0  0  0  0
  3  6  1  0  0  0  0
  3  9  1  0  0  0  0
  4 12  1  0  0  0  0
  5  8  1  0  0  0  0
  5  4  1  0  0  0  0
  6  5  2  0  0  0  0
  7  4  2  0  0  0  0
  9  7  1  0  0  0  0
 10 39  1  0  0  0  0
 10  9  2  0  0  0  0
 12 11  1  0  0  0  0
 12 13  2  0  0  0  0
 13 14  1  0  0  0  0
 14 15  1  0  0  0  0
 15 18  2  0  0  0  0
 17 16  2  0  0  0  0
 18 16  1  0  0  0  0
 19 15  1  0  0  0  0
 19 17  1  0  0  0  0
 20 17  1  0  0  0  0
 20 21  1  0  0  0  0
 21 22  1  0  0  0  0
 23 20  1  0  0  0  0
 24 23  1  0  0  0  0
 25 24  1  0  0  0  0
 26 25  2  0  0  0  0
 27 28  1  0  0  0  0
 28 29  1  6  0  0  0
 28 25  1  0  0  0  0
 30  2  1  0  0  0  0
 31 33  1  0  0  0  0
 31 30  1  0  0  0  0
 32 33  1  0  0  0  0
 34 35  1  0  0  0  0
 34  6  1  0  0  0  0
 36 37  1  0  0  0  0
 37 38  1  0  0  0  0
 37 35  1  0  0  0  0
 39 41  1  6  0  0  0
 39 43  1  0  0  0  0
 40 41  3  0  0  0  0
 43 42  1  0  0  0  0
M  END
>  <MODEL>
3

>  <REMARK>
 VINA RESULT:      -6.6      3.101      9.072
  Name = 
  18 active torsions:
  status: ('A' for Active; 'I' for Inactive)
    1  A    between atoms: C_2  and  C_34
    2  A    between atoms: C_2  and  C_39
    3  A    between atoms: C_4  and  C_5
    4  A    between atoms: C_4  and  C_41
    5  A    between atoms: C_6  and  C_28
    6  A    between atoms: C_9  and  N_17
    7  A    between atoms: C_9  and  C_42
    8  A    between atoms: C_9  and  C_43
    9  A    between atoms: C_12  and  N_23
   10  A    between atoms: C_13  and  C_14
   11  A    between atoms: C_14  and  N_19
   12  A    between atoms: N_19  and  C_37
   13  A    between atoms: C_20  and  C_21
   14  A    between atoms: N_23  and  C_29
   15  A    between atoms: N_23  and  C_30
   16  A    between atoms: C_25  and  C_34
   17  A    between atoms: C_26  and  C_28
   18  A    between atoms: C_30  and  C_41
                            x       y       z     vdW  Elec       q    Type
                         _______ _______ _______ _____ _____    ______ ____

>  <TORSDO>
F 18

$$$$
=
 OpenBabel10222415193D

 43 45  0  0  1  0  0  0  0  0999 V2000
  186.1560  178.0500  144.0850 C   0  0  0  0  0  3  0  0  0  0  0  0
  187.4200  177.4710  144.0800 C   0  0  0  0  0  0  0  0  0  0  0  0
  187.9530  177.4880  142.8330 N   0  0  0  0  0  0  0  0  0  0  0  0
  188.4780  177.7980  140.1280 C   0  0  0  0  0  0  0  0  0  0  0  0
  189.4340  177.1840  140.9830 C   0  0  0  0  0  0  0  0  0  0  0  0
  189.1540  177.0380  142.3580 C   0  0  0  0  0  0  0  0  0  0  0  0
  187.2690  178.2560  140.6830 C   0  0  0  0  0  3  0  0  0  0  0  0
  190.6500  176.7260  140.4850 O   0  0  0  0  0  1  0  0  0  0  0  0
  187.0440  178.0800  142.0430 C   0  0  0  0  0  0  0  0  0  0  0  0
  185.9260  178.4360  142.7740 C   0  0  0  0  0  0  0  0  0  0  0  0
  189.0070  179.2340  138.1050 N   0  0  0  0  0  1  0  0  0  0  0  0
  188.7030  177.9550  138.6630 C   0  0  0  0  0  0  0  0  0  0  0  0
  188.6510  176.8890  137.8580 C   0  0  0  0  0  3  0  0  0  0  0  0
  188.9040  176.9670  136.3880 C   0  0  0  0  0  2  0  0  0  0  0  0
  190.2770  176.4830  136.0770 C   0  0  0  0  0  0  0  0  0  0  0  0
  192.0420  175.5820  134.8580 C   0  0  0  0  0  3  0  0  0  0  0  0
  192.6660  175.8100  136.0810 C   0  0  0  0  0  0  0  0  0  0  0  0
  190.6920  175.9630  134.8560 C   0  0  0  0  0  3  0  0  0  0  0  0
  191.5580  176.4760  137.1630 S   0  0  0  0  0  0  0  0  0  0  0  0
  194.0340  175.4830  136.3850 N   0  0  0  0  0  0  0  0  0  0  0  0
  195.0590  175.5170  135.3500 C   0  0  0  0  0  2  0  0  0  0  0  0
  195.4030  176.9530  135.0050 C   0  0  0  0  0  1  0  0  0  0  0  0
  194.4010  174.9280  137.6800 C   0  0  0  0  0  2  0  0  0  0  0  0
  195.7830  174.2980  137.6090 C   0  0  0  0  0  2  0  0  0  0  0  0
  195.7070  172.8550  137.9810 C   0  0  0  0  0  0  0  0  0  0  0  0
  195.2310  172.5240  139.0580 O   0  0  0  0  0  0  0  0  0  0  0  0
  196.4250  170.6190  137.6870 O   0  0  0  0  0  1  0  0  0  0  0  0
  196.2030  171.8230  137.0190 C   0  0  1  0  0  3  0  0  0  0  0  0
  195.2060  171.6110  135.8960 C   0  0  0  0  0  1  0  0  0  0  0  0
  188.0500  176.8670  145.2890 C   0  0  0  0  0  2  0  0  0  0  0  0
  187.9240  177.7780  146.4120 N   0  0  0  0  0  2  0  0  0  0  0  0
  188.5370  178.0440  148.7360 C   0  0  0  0  0  1  0  0  0  0  0  0
  188.7990  177.2800  147.4570 C   0  0  0  0  0  2  0  0  0  0  0  0
  190.1540  176.3730  143.2520 C   0  0  0  0  0  2  0  0  0  0  0  0
  191.4040  177.2300  143.3640 C   0  0  0  0  0  2  0  0  0  0  0  0
  192.0080  179.3390  144.3010 O   0  0  0  0  0  1  0  0  0  0  0  0
  191.2940  178.1660  144.5520 C   0  0  0  0  0  3  0  0  0  0  0  0
  191.8170  177.5410  145.6830 O   0  0  0  0  0  1  0  0  0  0  0  0
  184.7010  179.1570  142.2940 C   0  0  2  0  0  3  0  0  0  0  0  0
  182.7060  178.9460  144.0630 C   0  0  0  0  0  3  0  0  0  0  0  0
  183.6030  179.0420  143.2640 C   0  0  0  0  0  0  0  0  0  0  0  0
  184.2790  179.6710  140.1350 O   0  0  0  0  0  1  0  0  0  0  0  0
  184.2770  178.6330  141.0050 N   0  0  0  0  0  2  0  0  0  0  0  0
  2  1  2  0  0  0  0
  2 30  1  0  0  0  0
  3  2  1  0  0  0  0
  4  7  2  0  0  0  0
  4  5  1  0  0  0  0
  5  6  2  0  0  0  0
  6  3  1  0  0  0  0
  6 34  1  0  0  0  0
  7  9  1  0  0  0  0
  8  5  1  0  0  0  0
  9 10  2  0  0  0  0
  9  3  1  0  0  0  0
 10  1  1  0  0  0  0
 11 12  1  0  0  0  0
 12  4  1  0  0  0  0
 13 12  2  0  0  0  0
 14 13  1  0  0  0  0
 15 14  1  0  0  0  0
 15 19  1  0  0  0  0
 16 17  2  0  0  0  0
 17 20  1  0  0  0  0
 17 19  1  0  0  0  0
 18 16  1  0  0  0  0
 18 15  2  0  0  0  0
 20 23  1  0  0  0  0
 21 20  1  0  0  0  0
 22 21  1  0  0  0  0
 24 23  1  0  0  0  0
 24 25  1  0  0  0  0
 25 26  2  0  0  0  0
 28 29  1  6  0  0  0
 28 27  1  0  0  0  0
 28 25  1  0  0  0  0
 30 31  1  0  0  0  0
 31 33  1  0  0  0  0
 33 32  1  0  0  0  0
 34 35  1  0  0  0  0
 35 37  1  0  0  0  0
 36 37  1  0  0  0  0
 37 38  1  0  0  0  0
 39 10  1  0  0  0  0
 39 41  1  1  0  0  0
 41 40  3  0  0  0  0
 42 43  1  0  0  0  0
 43 39  1  0  0  0  0
M  END
>  <MODEL>
4

>  <REMARK>
 VINA RESULT:      -6.6      4.836      8.968
  Name = 
  18 active torsions:
  status: ('A' for Active; 'I' for Inactive)
    1  A    between atoms: C_2  and  C_34
    2  A    between atoms: C_2  and  C_39
    3  A    between atoms: C_4  and  C_5
    4  A    between atoms: C_4  and  C_41
    5  A    between atoms: C_6  and  C_28
    6  A    between atoms: C_9  and  N_17
    7  A    between atoms: C_9  and  C_42
    8  A    between atoms: C_9  and  C_43
    9  A    between atoms: C_12  and  N_23
   10  A    between atoms: C_13  and  C_14
   11  A    between atoms: C_14  and  N_19
   12  A    between atoms: N_19  and  C_37
   13  A    between atoms: C_20  and  C_21
   14  A    between atoms: N_23  and  C_29
   15  A    between atoms: N_23  and  C_30
   16  A    between atoms: C_25  and  C_34
   17  A    between atoms: C_26  and  C_28
   18  A    between atoms: C_30  and  C_41
                            x       y       z     vdW  Elec       q    Type
                         _______ _______ _______ _____ _____    ______ ____

>  <TORSDO>
F 18

$$$$
=
 OpenBabel10222415193D

 43 45  0  0  1  0  0  0  0  0999 V2000
  187.9650  177.4630  144.4890 C   0  0  0  0  0  3  0  0  0  0  0  0
  186.7940  177.9410  143.9150 C   0  0  0  0  0  0  0  0  0  0  0  0
  186.9300  178.0690  142.5720 N   0  0  0  0  0  0  0  0  0  0  0  0
  187.8130  178.1230  139.9430 C   0  0  0  0  0  0  0  0  0  0  0  0
  186.4910  178.5320  140.2700 C   0  0  0  0  0  0  0  0  0  0  0  0
  186.0550  178.4940  141.6110 C   0  0  0  0  0  0  0  0  0  0  0  0
  188.6580  177.6790  140.9770 C   0  0  0  0  0  3  0  0  0  0  0  0
  185.6120  178.9670  139.2820 O   0  0  0  0  0  1  0  0  0  0  0  0
  188.1780  177.6680  142.2810 C   0  0  0  0  0  0  0  0  0  0  0  0
  188.8460  177.2920  143.4320 C   0  0  0  0  0  0  0  0  0  0  0  0
  188.9660  179.3480  138.0450 N   0  0  0  0  0  1  0  0  0  0  0  0
  188.3400  178.1680  138.5500 C   0  0  0  0  0  0  0  0  0  0  0  0
  188.2570  177.0880  137.7670 C   0  0  0  0  0  3  0  0  0  0  0  0
  188.7990  177.0490  136.3750 C   0  0  0  0  0  2  0  0  0  0  0  0
  189.9920  176.1610  136.3130 C   0  0  0  0  0  0  0  0  0  0  0  0
  191.2650  174.2540  135.9230 C   0  0  0  0  0  3  0  0  0  0  0  0
  192.2390  175.1140  136.4200 C   0  0  0  0  0  0  0  0  0  0  0  0
  189.9950  174.8450  135.8620 C   0  0  0  0  0  3  0  0  0  0  0  0
  191.5400  176.6030  136.7880 S   0  0  0  0  0  0  0  0  0  0  0  0
  193.6210  174.7680  136.6290 N   0  0  0  0  0  0  0  0  0  0  0  0
  194.5600  174.7380  135.5170 C   0  0  0  0  0  2  0  0  0  0  0  0
  195.0040  176.1450  135.1700 C   0  0  0  0  0  1  0  0  0  0  0  0
  194.0780  174.2580  137.9140 C   0  0  0  0  0  2  0  0  0  0  0  0
  195.4100  173.5430  137.7500 C   0  0  0  0  0  2  0  0  0  0  0  0
  196.4340  174.1600  138.6430 C   0  0  0  0  0  0  0  0  0  0  0  0
  196.1850  174.3430  139.8270 O   0  0  0  0  0  0  0  0  0  0  0  0
  197.6270  175.6020  137.1950 O   0  0  0  0  0  1  0  0  0  0  0  0
  197.7690  174.5340  138.0800 C   0  0  1  0  0  3  0  0  0  0  0  0
  198.7350  174.9090  139.1880 C   0  0  0  0  0  1  0  0  0  0  0  0
  185.5850  178.3120  144.7070 C   0  0  0  0  0  2  0  0  0  0  0  0
  185.9460  179.2870  145.7200 N   0  0  0  0  0  2  0  0  0  0  0  0
  186.9950  178.3540  147.6880 C   0  0  0  0  0  1  0  0  0  0  0  0
  185.6830  178.6720  147.0070 C   0  0  0  0  0  2  0  0  0  0  0  0
  184.6680  178.9440  141.9540 C   0  0  0  0  0  2  0  0  0  0  0  0
  183.6570  177.9000  141.5100 C   0  0  0  0  0  2  0  0  0  0  0  0
  181.2950  178.2160  141.6250 O   0  0  0  0  0  1  0  0  0  0  0  0
  182.4380  178.5740  140.9090 C   0  0  0  0  0  3  0  0  0  0  0  0
  182.2950  178.1700  139.5820 O   0  0  0  0  0  1  0  0  0  0  0  0
  190.2370  176.7430  143.5520 C   0  0  2  0  0  3  0  0  0  0  0  0
  191.0630  176.7470  146.0960 C   0  0  0  0  0  3  0  0  0  0  0  0
  190.6890  176.7460  144.9500 C   0  0  0  0  0  0  0  0  0  0  0  0
  191.3830  178.6810  143.3840 O   0  0  0  0  0  1  0  0  0  0  0  0
  191.1600  177.5140  142.7340 N   0  0  0  0  0  2  0  0  0  0  0  0
  2  1  2  0  0  0  0
  2 30  1  0  0  0  0
  3  2  1  0  0  0  0
  4  5  1  0  0  0  0
  4  7  2  0  0  0  0
  5  6  2  0  0  0  0
  6 34  1  0  0  0  0
  6  3  1  0  0  0  0
  7  9  1  0  0  0  0
  8  5  1  0  0  0  0
  9  3  1  0  0  0  0
  9 10  2  0  0  0  0
 10 39  1  0  0  0  0
 10  1  1  0  0  0  0
 11 12  1  0  0  0  0
 12  4  1  0  0  0  0
 13 12  2  0  0  0  0
 14 13  1  0  0  0  0
 15 14  1  0  0  0  0
 15 19  1  0  0  0  0
 16 17  2  0  0  0  0
 17 20  1  0  0  0  0
 17 19  1  0  0  0  0
 18 16  1  0  0  0  0
 18 15  2  0  0  0  0
 20 23  1  0  0  0  0
 21 20  1  0  0  0  0
 22 21  1  0  0  0  0
 24 23  1  0  0  0  0
 24 25  1  0  0  0  0
 25 26  2  0  0  0  0
 27 28  1  0  0  0  0
 28 25  1  0  0  0  0
 28 29  1  1  0  0  0
 30 31  1  0  0  0  0
 31 33  1  0  0  0  0
 33 32  1  0  0  0  0
 35 34  1  0  0  0  0
 37 35  1  0  0  0  0
 37 36  1  0  0  0  0
 38 37  1  0  0  0  0
 39 41  1  1  0  0  0
 41 40  3  0  0  0  0
 43 42  1  0  0  0  0
 43 39  1  0  0  0  0
M  END
>  <MODEL>
5

>  <REMARK>
 VINA RESULT:      -6.3      4.647      9.516
  Name = 
  18 active torsions:
  status: ('A' for Active; 'I' for Inactive)
    1  A    between atoms: C_2  and  C_34
    2  A    between atoms: C_2  and  C_39
    3  A    between atoms: C_4  and  C_5
    4  A    between atoms: C_4  and  C_41
    5  A    between atoms: C_6  and  C_28
    6  A    between atoms: C_9  and  N_17
    7  A    between atoms: C_9  and  C_42
    8  A    between atoms: C_9  and  C_43
    9  A    between atoms: C_12  and  N_23
   10  A    between atoms: C_13  and  C_14
   11  A    between atoms: C_14  and  N_19
   12  A    between atoms: N_19  and  C_37
   13  A    between atoms: C_20  and  C_21
   14  A    between atoms: N_23  and  C_29
   15  A    between atoms: N_23  and  C_30
   16  A    between atoms: C_25  and  C_34
   17  A    between atoms: C_26  and  C_28
   18  A    between atoms: C_30  and  C_41
                            x       y       z     vdW  Elec       q    Type
                         _______ _______ _______ _____ _____    ______ ____

>  <TORSDO>
F 18

$$$$
=
 OpenBabel10222415193D

 43 45  0  0  1  0  0  0  0  0999 V2000
  188.9120  177.2350  145.1660 C   0  0  0  0  0  3  0  0  0  0  0  0
  187.5720  177.4890  144.8970 C   0  0  0  0  0  0  0  0  0  0  0  0
  187.3810  177.7330  143.5780 N   0  0  0  0  0  0  0  0  0  0  0  0
  187.6330  178.1500  140.8470 C   0  0  0  0  0  0  0  0  0  0  0  0
  186.3630  178.2440  141.4780 C   0  0  0  0  0  0  0  0  0  0  0  0
  186.2500  178.0240  142.8670 C   0  0  0  0  0  0  0  0  0  0  0  0
  188.7560  177.8290  141.6330 C   0  0  0  0  0  3  0  0  0  0  0  0
  185.2200  178.5470  140.7430 O   0  0  0  0  0  1  0  0  0  0  0  0
  188.5870  177.6290  142.9980 C   0  0  0  0  0  0  0  0  0  0  0  0
  189.5530  177.3280  143.9400 C   0  0  0  0  0  0  0  0  0  0  0  0
  186.6960  178.4840  138.5140 N   0  0  0  0  0  1  0  0  0  0  0  0
  187.8210  178.4000  139.3900 C   0  0  0  0  0  0  0  0  0  0  0  0
  189.0490  178.5760  138.8930 C   0  0  0  0  0  3  0  0  0  0  0  0
  189.3080  178.8690  137.4510 C   0  0  0  0  0  2  0  0  0  0  0  0
  189.8160  177.6500  136.7630 C   0  0  0  0  0  0  0  0  0  0  0  0
  190.0760  176.0350  135.1090 C   0  0  0  0  0  3  0  0  0  0  0  0
  190.9510  175.5520  136.0770 C   0  0  0  0  0  0  0  0  0  0  0  0
  189.4340  177.2210  135.4970 C   0  0  0  0  0  3  0  0  0  0  0  0
  190.9360  176.5810  137.4130 S   0  0  0  0  0  0  0  0  0  0  0  0
  191.7150  174.3370  135.9700 N   0  0  0  0  0  0  0  0  0  0  0  0
  191.4740  173.3960  134.8850 C   0  0  0  0  0  2  0  0  0  0  0  0
  190.3600  172.4390  135.2630 C   0  0  0  0  0  1  0  0  0  0  0  0
  192.6140  173.9210  137.0380 C   0  0  0  0  0  2  0  0  0  0  0  0
  194.0120  173.6930  136.4870 C   0  0  0  0  0  2  0  0  0  0  0  0
  194.9410  174.7420  137.0000 C   0  0  0  0  0  0  0  0  0  0  0  0
  194.5830  175.4920  137.8980 O   0  0  0  0  0  0  0  0  0  0  0  0
  196.5450  176.1610  135.9930 O   0  0  0  0  0  1  0  0  0  0  0  0
  196.3140  174.8530  136.4180 C   0  0  1  0  0  3  0  0  0  0  0  0
  197.3650  174.4510  137.4360 C   0  0  0  0  0  1  0  0  0  0  0  0
  186.5200  177.5390  145.9540 C   0  0  0  0  0  2  0  0  0  0  0  0
  186.8820  178.5240  146.9570 N   0  0  0  0  0  2  0  0  0  0  0  0
  188.7030  178.2770  148.5270 C   0  0  0  0  0  1  0  0  0  0  0  0
  187.3290  177.7890  148.1250 C   0  0  0  0  0  2  0  0  0  0  0  0
  184.9130  178.1430  143.5310 C   0  0  0  0  0  2  0  0  0  0  0  0
  184.4610  179.5940  143.5360 C   0  0  0  0  0  2  0  0  0  0  0  0
  183.2960  179.0150  145.5360 O   0  0  0  0  0  1  0  0  0  0  0  0
  183.1900  179.7440  144.3510 C   0  0  0  0  0  3  0  0  0  0  0  0
  182.1090  179.2680  143.6120 O   0  0  0  0  0  1  0  0  0  0  0  0
  191.0160  177.0820  143.7150 C   0  0  2  0  0  3  0  0  0  0  0  0
  192.1220  175.8640  145.8240 C   0  0  0  0  0  3  0  0  0  0  0  0
  191.6240  176.4110  144.8720 C   0  0  0  0  0  0  0  0  0  0  0  0
  191.0130  179.3090  144.0880 O   0  0  0  0  0  1  0  0  0  0  0  0
  191.7060  178.3350  143.4520 N   0  0  0  0  0  2  0  0  0  0  0  0
  2  1  2  0  0  0  0
  2 30  1  0  0  0  0
  3  2  1  0  0  0  0
  4  5  1  0  0  0  0
  4  7  2  0  0  0  0
  5  6  2  0  0  0  0
  6 34  1  0  0  0  0
  6  3  1  0  0  0  0
  7  9  1  0  0  0  0
  8  5  1  0  0  0  0
  9  3  1  0  0  0  0
  9 10  2  0  0  0  0
 10  1  1  0  0  0  0
 11 12  1  0  0  0  0
 12  4  1  0  0  0  0
 13 12  2  0  0  0  0
 14 13  1  0  0  0  0
 15 19  1  0  0  0  0
 15 14  1  0  0  0  0
 16 18  1  0  0  0  0
 16 17  2  0  0  0  0
 17 19  1  0  0  0  0
 18 15  2  0  0  0  0
 20 17  1  0  0  0  0
 20 23  1  0  0  0  0
 21 22  1  0  0  0  0
 21 20  1  0  0  0  0
 24 25  1  0  0  0  0
 24 23  1  0  0  0  0
 25 26  2  0  0  0  0
 27 28  1  0  0  0  0
 28 25  1  0  0  0  0
 28 29  1  1  0  0  0
 30 31  1  0  0  0  0
 31 33  1  0  0  0  0
 33 32  1  0  0  0  0
 34 35  1  0  0  0  0
 35 37  1  0  0  0  0
 37 36  1  0  0  0  0
 38 37  1  0  0  0  0
 39 10  1  0  0  0  0
 39 41  1  1  0  0  0
 41 40  3  0  0  0  0
 43 39  1  0  0  0  0
 43 42  1  0  0  0  0
M  END
>  <MODEL>
6

>  <REMARK>
 VINA RESULT:      -6.3      4.286      8.485
  Name = 
  18 active torsions:
  status: ('A' for Active; 'I' for Inactive)
    1  A    between atoms: C_2  and  C_34
    2  A    between atoms: C_2  and  C_39
    3  A    between atoms: C_4  and  C_5
    4  A    between atoms: C_4  and  C_41
    5  A    between atoms: C_6  and  C_28
    6  A    between atoms: C_9  and  N_17
    7  A    between atoms: C_9  and  C_42
    8  A    between atoms: C_9  and  C_43
    9  A    between atoms: C_12  and  N_23
   10  A    between atoms: C_13  and  C_14
   11  A    between atoms: C_14  and  N_19
   12  A    between atoms: N_19  and  C_37
   13  A    between atoms: C_20  and  C_21
   14  A    between atoms: N_23  and  C_29
   15  A    between atoms: N_23  and  C_30
   16  A    between atoms: C_25  and  C_34
   17  A    between atoms: C_26  and  C_28
   18  A    between atoms: C_30  and  C_41
                            x       y       z     vdW  Elec       q    Type
                         _______ _______ _______ _____ _____    ______ ____

>  <TORSDO>
F 18

$$$$
=
 OpenBabel10222415193D

 43 45  0  0  1  0  0  0  0  0999 V2000
  192.0320  177.1010  140.5520 C   0  0  0  0  0  3  0  0  0  0  0  0
  190.9930  177.4920  141.3880 C   0  0  0  0  0  0  0  0  0  0  0  0
  189.8500  177.6800  140.6820 N   0  0  0  0  0  0  0  0  0  0  0  0
  187.8900  177.9090  138.7340 C   0  0  0  0  0  0  0  0  0  0  0  0
  187.5900  178.1850  140.0960 C   0  0  0  0  0  0  0  0  0  0  0  0
  188.5970  178.0590  141.0770 C   0  0  0  0  0  0  0  0  0  0  0  0
  189.1950  177.5060  138.3970 C   0  0  0  0  0  3  0  0  0  0  0  0
  186.3110  178.5750  140.4820 O   0  0  0  0  0  1  0  0  0  0  0  0
  190.1490  177.4050  139.4030 C   0  0  0  0  0  0  0  0  0  0  0  0
  191.4790  177.0490  139.2820 C   0  0  0  0  0  0  0  0  0  0  0  0
  186.8630  179.2080  136.8130 N   0  0  0  0  0  1  0  0  0  0  0  0
  186.8770  178.0510  137.6500 C   0  0  0  0  0  0  0  0  0  0  0  0
  185.9860  177.0790  137.4330 C   0  0  0  0  0  3  0  0  0  0  0  0
  184.9680  177.1380  136.3410 C   0  0  0  0  0  2  0  0  0  0  0  0
  183.5960  177.0700  136.9130 C   0  0  0  0  0  0  0  0  0  0  0  0
  181.3210  177.4850  137.1630 C   0  0  0  0  0  3  0  0  0  0  0  0
  181.5440  176.6300  138.2380 C   0  0  0  0  0  0  0  0  0  0  0  0
  182.4800  177.7330  136.4140 C   0  0  0  0  0  3  0  0  0  0  0  0
  183.1680  176.1810  138.2710 S   0  0  0  0  0  0  0  0  0  0  0  0
  180.5490  176.2310  139.1980 N   0  0  0  0  0  0  0  0  0  0  0  0
  179.9720  174.8940  139.1660 C   0  0  0  0  0  2  0  0  0  0  0  0
  179.6900  174.4130  140.5750 C   0  0  0  0  0  1  0  0  0  0  0  0
  179.9520  177.2010  140.1060 C   0  0  0  0  0  2  0  0  0  0  0  0
  181.0230  177.8180  140.9910 C   0  0  0  0  0  2  0  0  0  0  0  0
  181.4480  179.1370  140.4370 C   0  0  0  0  0  0  0  0  0  0  0  0
  182.6340  179.3680  140.2470 O   0  0  0  0  0  0  0  0  0  0  0  0
  180.0650  180.8770  141.2480 O   0  0  0  0  0  1  0  0  0  0  0  0
  180.4100  180.1610  140.1030 C   0  0  1  0  0  3  0  0  0  0  0  0
  180.9170  181.1120  139.0360 C   0  0  0  0  0  1  0  0  0  0  0  0
  191.1610  177.7240  142.8520 C   0  0  0  0  0  2  0  0  0  0  0  0
  191.1320  176.4530  143.5540 N   0  0  0  0  0  2  0  0  0  0  0  0
  190.5430  176.7710  145.8770 C   0  0  0  0  0  1  0  0  0  0  0  0
  191.6760  176.6930  144.8770 C   0  0  0  0  0  2  0  0  0  0  0  0
  188.2830  178.3700  142.5070 C   0  0  0  0  0  2  0  0  0  0  0  0
  187.7680  177.1250  143.2100 C   0  0  0  0  0  2  0  0  0  0  0  0
  185.7900  178.2880  143.8630 O   0  0  0  0  0  1  0  0  0  0  0  0
  186.8420  177.5110  144.3480 C   0  0  0  0  0  3  0  0  0  0  0  0
  187.5560  178.2420  145.2970 O   0  0  0  0  0  1  0  0  0  0  0  0
  192.2110  176.6230  138.0440 C   0  0  2  0  0  3  0  0  0  0  0  0
  191.4060  174.2060  137.2270 C   0  0  0  0  0  3  0  0  0  0  0  0
  191.7690  175.2950  137.5970 C   0  0  0  0  0  0  0  0  0  0  0  0
  194.2480  176.6530  137.0690 O   0  0  0  0  0  1  0  0  0  0  0  0
  193.6460  176.6100  138.2820 N   0  0  0  0  0  2  0  0  0  0  0  0
  1  2  2  0  0  0  0
  2 30  1  0  0  0  0
  3  6  1  0  0  0  0
  3  2  1  0  0  0  0
  4  5  1  0  0  0  0
  5  8  1  0  0  0  0
  5  6  2  0  0  0  0
  6 34  1  0  0  0  0
  7  4  2  0  0  0  0
  7  9  1  0  0  0  0
  9  3  1  0  0  0  0
 10  9  2  0  0  0  0
 10  1  1  0  0  0  0
 11 12  1  0  0  0  0
 12  4  1  0  0  0  0
 13 12  2  0  0  0  0
 14 15  1  0  0  0  0
 14 13  1  0  0  0  0
 15 19  1  0  0  0  0
 16 17  2  0  0  0  0
 17 19  1  0  0  0  0
 17 20  1  0  0  0  0
 18 15  2  0  0  0  0
 18 16  1  0  0  0  0
 20 23  1  0  0  0  0
 21 20  1  0  0  0  0
 21 22  1  0  0  0  0
 23 24  1  0  0  0  0
 25 24  1  0  0  0  0
 26 25  2  0  0  0  0
 28 29  1  6  0  0  0
 28 25  1  0  0  0  0
 28 27  1  0  0  0  0
 30 31  1  0  0  0  0
 31 33  1  0  0  0  0
 33 32  1  0  0  0  0
 34 35  1  0  0  0  0
 35 37  1  0  0  0  0
 36 37  1  0  0  0  0
 37 38  1  0  0  0  0
 39 41  1  1  0  0  0
 39 43  1  0  0  0  0
 39 10  1  0  0  0  0
 40 41  3  0  0  0  0
 42 43  1  0  0  0  0
M  END
>  <MODEL>
7

>  <REMARK>
 VINA RESULT:      -6.0      2.719      4.636
  Name = 
  18 active torsions:
  status: ('A' for Active; 'I' for Inactive)
    1  A    between atoms: C_2  and  C_34
    2  A    between atoms: C_2  and  C_39
    3  A    between atoms: C_4  and  C_5
    4  A    between atoms: C_4  and  C_41
    5  A    between atoms: C_6  and  C_28
    6  A    between atoms: C_9  and  N_17
    7  A    between atoms: C_9  and  C_42
    8  A    between atoms: C_9  and  C_43
    9  A    between atoms: C_12  and  N_23
   10  A    between atoms: C_13  and  C_14
   11  A    between atoms: C_14  and  N_19
   12  A    between atoms: N_19  and  C_37
   13  A    between atoms: C_20  and  C_21
   14  A    between atoms: N_23  and  C_29
   15  A    between atoms: N_23  and  C_30
   16  A    between atoms: C_25  and  C_34
   17  A    between atoms: C_26  and  C_28
   18  A    between atoms: C_30  and  C_41
                            x       y       z     vdW  Elec       q    Type
                         _______ _______ _______ _____ _____    ______ ____

>  <TORSDO>
F 18

$$$$
=
 OpenBabel10222415193D

 43 45  0  0  1  0  0  0  0  0999 V2000
  189.9670  177.4620  141.0620 C   0  0  0  0  0  3  0  0  0  0  0  0
  189.7780  177.2750  142.4250 C   0  0  0  0  0  0  0  0  0  0  0  0
  188.4970  177.5470  142.7770 N   0  0  0  0  0  0  0  0  0  0  0  0
  185.8150  178.2450  142.8670 C   0  0  0  0  0  0  0  0  0  0  0  0
  186.5000  177.8590  144.0510 C   0  0  0  0  0  0  0  0  0  0  0  0
  187.8640  177.5020  143.9880 C   0  0  0  0  0  0  0  0  0  0  0  0
  186.5200  178.2540  141.6490 C   0  0  0  0  0  3  0  0  0  0  0  0
  185.8440  177.8220  145.2780 O   0  0  0  0  0  1  0  0  0  0  0  0
  187.8640  177.8990  141.6470 C   0  0  0  0  0  0  0  0  0  0  0  0
  188.7330  177.8620  140.5730 C   0  0  0  0  0  0  0  0  0  0  0  0
  183.8760  179.5110  143.9020 N   0  0  0  0  0  1  0  0  0  0  0  0
  184.3830  178.6600  142.8730 C   0  0  0  0  0  0  0  0  0  0  0  0
  183.5650  178.2600  141.8950 C   0  0  0  0  0  3  0  0  0  0  0  0
  182.1300  178.6690  141.8180 C   0  0  0  0  0  2  0  0  0  0  0  0
  181.4800  178.0420  140.6340 C   0  0  0  0  0  0  0  0  0  0  0  0
  179.9260  177.6860  138.9410 C   0  0  0  0  0  3  0  0  0  0  0  0
  180.8150  176.6440  138.6940 C   0  0  0  0  0  0  0  0  0  0  0  0
  180.3020  178.4760  140.0370 C   0  0  0  0  0  3  0  0  0  0  0  0
  182.0640  176.6910  139.8260 S   0  0  0  0  0  0  0  0  0  0  0  0
  180.6640  175.6540  137.6600 N   0  0  0  0  0  0  0  0  0  0  0  0
  180.1050  174.3420  137.9580 C   0  0  0  0  0  2  0  0  0  0  0  0
  179.5490  174.3210  139.3680 C   0  0  0  0  0  1  0  0  0  0  0  0
  181.2340  175.8600  136.3370 C   0  0  0  0  0  2  0  0  0  0  0  0
  182.6770  175.3850  136.3070 C   0  0  0  0  0  2  0  0  0  0  0  0
  183.5910  176.5370  136.0510 C   0  0  0  0  0  0  0  0  0  0  0  0
  183.1410  177.5930  135.6270 O   0  0  0  0  0  0  0  0  0  0  0  0
  185.4600  177.3700  137.2400 O   0  0  0  0  0  1  0  0  0  0  0  0
  185.0520  176.3910  136.3350 C   0  0  1  0  0  3  0  0  0  0  0  0
  185.3560  175.0150  136.8960 C   0  0  0  0  0  1  0  0  0  0  0  0
  190.8740  176.8860  143.3590 C   0  0  0  0  0  2  0  0  0  0  0  0
  190.9350  175.4390  143.4660 N   0  0  0  0  0  2  0  0  0  0  0  0
  191.8830  175.8880  145.6440 C   0  0  0  0  0  1  0  0  0  0  0  0
  192.0460  175.1290  144.3460 C   0  0  0  0  0  2  0  0  0  0  0  0
  188.5870  177.1150  145.2410 C   0  0  0  0  0  2  0  0  0  0  0  0
  188.9090  178.3520  146.0610 C   0  0  0  0  0  2  0  0  0  0  0  0
  188.8610  176.6410  147.7220 O   0  0  0  0  0  1  0  0  0  0  0  0
  188.8710  178.0240  147.5420 C   0  0  0  0  0  3  0  0  0  0  0  0
  187.7190  178.5710  148.1060 O   0  0  0  0  0  1  0  0  0  0  0  0
  188.4280  178.1360  139.1300 C   0  0  2  0  0  3  0  0  0  0  0  0
  189.2390  176.1220  137.5690 C   0  0  0  0  0  3  0  0  0  0  0  0
  188.8740  177.0280  138.2740 C   0  0  0  0  0  0  0  0  0  0  0  0
  188.7150  179.5710  137.4100 O   0  0  0  0  0  1  0  0  0  0  0  0
  189.0620  179.3740  138.7040 N   0  0  0  0  0  2  0  0  0  0  0  0
  1  2  2  0  0  0  0
  2  3  1  0  0  0  0
  2 30  1  0  0  0  0
  3  6  1  0  0  0  0
  4 12  1  0  0  0  0
  4  5  1  0  0  0  0
  5  8  1  0  0  0  0
  6  5  2  0  0  0  0
  6 34  1  0  0  0  0
  7  4  2  0  0  0  0
  9  7  1  0  0  0  0
  9  3  1  0  0  0  0
 10  1  1  0  0  0  0
 10  9  2  0  0  0  0
 12 11  1  0  0  0  0
 13 12  2  0  0  0  0
 14 13  1  0  0  0  0
 15 14  1  0  0  0  0
 16 18  1  0  0  0  0
 17 16  2  0  0  0  0
 17 19  1  0  0  0  0
 18 15  2  0  0  0  0
 19 15  1  0  0  0  0
 20 21  1  0  0  0  0
 20 17  1  0  0  0  0
 21 22  1  0  0  0  0
 23 20  1  0  0  0  0
 24 23  1  0  0  0  0
 25 24  1  0  0  0  0
 25 28  1  0  0  0  0
 26 25  2  0  0  0  0
 28 29  1  1  0  0  0
 28 27  1  0  0  0  0
 30 31  1  0  0  0  0
 31 33  1  0  0  0  0
 33 32  1  0  0  0  0
 34 35  1  0  0  0  0
 35 37  1  0  0  0  0
 37 36  1  0  0  0  0
 37 38  1  0  0  0  0
 39 41  1  6  0  0  0
 39 10  1  0  0  0  0
 40 41  3  0  0  0  0
 42 43  1  0  0  0  0
 43 39  1  0  0  0  0
M  END
>  <MODEL>
8

>  <REMARK>
 VINA RESULT:      -5.9      1.645      2.217
  Name = 
  18 active torsions:
  status: ('A' for Active; 'I' for Inactive)
    1  A    between atoms: C_2  and  C_34
    2  A    between atoms: C_2  and  C_39
    3  A    between atoms: C_4  and  C_5
    4  A    between atoms: C_4  and  C_41
    5  A    between atoms: C_6  and  C_28
    6  A    between atoms: C_9  and  N_17
    7  A    between atoms: C_9  and  C_42
    8  A    between atoms: C_9  and  C_43
    9  A    between atoms: C_12  and  N_23
   10  A    between atoms: C_13  and  C_14
   11  A    between atoms: C_14  and  N_19
   12  A    between atoms: N_19  and  C_37
   13  A    between atoms: C_20  and  C_21
   14  A    between atoms: N_23  and  C_29
   15  A    between atoms: N_23  and  C_30
   16  A    between atoms: C_25  and  C_34
   17  A    between atoms: C_26  and  C_28
   18  A    between atoms: C_30  and  C_41
                            x       y       z     vdW  Elec       q    Type
                         _______ _______ _______ _____ _____    ______ ____

>  <TORSDO>
F 18

$$$$
=
 OpenBabel10222415193D

 43 45  0  0  1  0  0  0  0  0999 V2000
  186.0680  176.6390  136.0250 C   0  0  0  0  0  3  0  0  0  0  0  0
  184.7970  176.0780  136.0630 C   0  0  0  0  0  0  0  0  0  0  0  0
  184.0920  176.5530  137.1190 N   0  0  0  0  0  0  0  0  0  0  0  0
  183.1950  177.8490  139.4010 C   0  0  0  0  0  0  0  0  0  0  0  0
  182.3510  176.9370  138.7100 C   0  0  0  0  0  0  0  0  0  0  0  0
  182.8200  176.2890  137.5470 C   0  0  0  0  0  0  0  0  0  0  0  0
  184.4860  178.0900  138.8970 C   0  0  0  0  0  3  0  0  0  0  0  0
  181.0600  176.6750  139.1600 O   0  0  0  0  0  1  0  0  0  0  0  0
  184.8980  177.4190  137.7520 C   0  0  0  0  0  0  0  0  0  0  0  0
  186.1220  177.4960  137.1130 C   0  0  0  0  0  0  0  0  0  0  0  0
  181.5760  179.3290  140.6740 N   0  0  0  0  0  1  0  0  0  0  0  0
  182.7670  178.5430  140.6490 C   0  0  0  0  0  0  0  0  0  0  0  0
  183.4840  178.4100  141.7690 C   0  0  0  0  0  3  0  0  0  0  0  0
  183.0940  179.0440  143.0640 C   0  0  0  0  0  2  0  0  0  0  0  0
  184.1220  178.7630  144.1040 C   0  0  0  0  0  0  0  0  0  0  0  0
  185.1020  178.6130  146.2080 C   0  0  0  0  0  3  0  0  0  0  0  0
  186.1420  178.1490  145.4080 C   0  0  0  0  0  0  0  0  0  0  0  0
  183.9610  178.9600  145.4710 C   0  0  0  0  0  3  0  0  0  0  0  0
  185.6600  178.1670  143.7920 S   0  0  0  0  0  0  0  0  0  0  0  0
  187.4430  177.7580  145.8850 N   0  0  0  0  0  0  0  0  0  0  0  0
  187.6480  177.3920  147.2800 C   0  0  0  0  0  2  0  0  0  0  0  0
  188.5090  178.4310  147.9700 C   0  0  0  0  0  1  0  0  0  0  0  0
  188.6220  177.8970  145.0430 C   0  0  0  0  0  2  0  0  0  0  0  0
  189.5050  176.6660  145.1680 C   0  0  0  0  0  2  0  0  0  0  0  0
  190.8410  176.9300  144.5560 C   0  0  0  0  0  0  0  0  0  0  0  0
  191.6870  177.5560  145.1790 O   0  0  0  0  0  0  0  0  0  0  0  0
  190.2200  175.4100  142.8520 O   0  0  0  0  0  1  0  0  0  0  0  0
  191.1350  176.4080  143.1860 C   0  0  1  0  0  3  0  0  0  0  0  0
  191.0760  177.5240  142.1610 C   0  0  0  0  0  1  0  0  0  0  0  0
  184.3260  175.0490  135.0920 C   0  0  0  0  0  2  0  0  0  0  0  0
  185.2880  173.9630  135.0260 N   0  0  0  0  0  2  0  0  0  0  0  0
  184.4460  171.8560  135.8580 C   0  0  0  0  0  1  0  0  0  0  0  0
  185.1050  173.1670  136.2250 C   0  0  0  0  0  2  0  0  0  0  0  0
  181.9350  175.3140  136.8340 C   0  0  0  0  0  2  0  0  0  0  0  0
  181.8790  174.0030  137.6000 C   0  0  0  0  0  2  0  0  0  0  0  0
  179.6340  173.6670  136.8670 O   0  0  0  0  0  1  0  0  0  0  0  0
  180.8870  173.0580  136.9490 C   0  0  0  0  0  3  0  0  0  0  0  0
  180.7860  171.8970  137.7140 O   0  0  0  0  0  1  0  0  0  0  0  0
  187.2900  178.3720  137.4600 C   0  0  2  0  0  3  0  0  0  0  0  0
  189.4290  177.7630  135.9760 C   0  0  0  0  0  3  0  0  0  0  0  0
  188.4640  178.0380  136.6430 C   0  0  0  0  0  0  0  0  0  0  0  0
  188.7180  179.0010  139.0930 O   0  0  0  0  0  1  0  0  0  0  0  0
  187.6190  178.2420  138.8710 N   0  0  0  0  0  2  0  0  0  0  0  0
  1  2  2  0  0  0  0
  1 10  1  0  0  0  0
  2  3  1  0  0  0  0
  3  6  1  0  0  0  0
  3  9  1  0  0  0  0
  4 12  1  0  0  0  0
  5  8  1  0  0  0  0
  5  4  1  0  0  0  0
  6  5  2  0  0  0  0
  7  4  2  0  0  0  0
  9  7  1  0  0  0  0
 10 39  1  0  0  0  0
 10  9  2  0  0  0  0
 12 11  1  0  0  0  0
 12 13  2  0  0  0  0
 13 14  1  0  0  0  0
 14 15  1  0  0  0  0
 15 18  2  0  0  0  0
 17 20  1  0  0  0  0
 17 16  2  0  0  0  0
 18 16  1  0  0  0  0
 19 15  1  0  0  0  0
 19 17  1  0  0  0  0
 20 21  1  0  0  0  0
 21 22  1  0  0  0  0
 23 24  1  0  0  0  0
 23 20  1  0  0  0  0
 25 24  1  0  0  0  0
 25 26  2  0  0  0  0
 27 28  1  0  0  0  0
 28 29  1  6  0  0  0
 28 25  1  0  0  0  0
 30  2  1  0  0  0  0
 31 30  1  0  0  0  0
 31 33  1  0  0  0  0
 32 33  1  0  0  0  0
 34  6  1  0  0  0  0
 34 35  1  0  0  0  0
 36 37  1  0  0  0  0
 37 35  1  0  0  0  0
 37 38  1  0  0  0  0
 39 41  1  6  0  0  0
 39 43  1  0  0  0  0
 40 41  3  0  0  0  0
 43 42  1  0  0  0  0
M  END
>  <MODEL>
9

>  <REMARK>
 VINA RESULT:      -5.9      2.904      8.978
  Name = 
  18 active torsions:
  status: ('A' for Active; 'I' for Inactive)
    1  A    between atoms: C_2  and  C_34
    2  A    between atoms: C_2  and  C_39
    3  A    between atoms: C_4  and  C_5
    4  A    between atoms: C_4  and  C_41
    5  A    between atoms: C_6  and  C_28
    6  A    between atoms: C_9  and  N_17
    7  A    between atoms: C_9  and  C_42
    8  A    between atoms: C_9  and  C_43
    9  A    between atoms: C_12  and  N_23
   10  A    between atoms: C_13  and  C_14
   11  A    between atoms: C_14  and  N_19
   12  A    between atoms: N_19  and  C_37
   13  A    between atoms: C_20  and  C_21
   14  A    between atoms: N_23  and  C_29
   15  A    between atoms: N_23  and  C_30
   16  A    between atoms: C_25  and  C_34
   17  A    between atoms: C_26  and  C_28
   18  A    between atoms: C_30  and  C_41
                            x       y       z     vdW  Elec       q    Type
                         _______ _______ _______ _____ _____    ______ ____

>  <TORSDO>
F 18

$$$$
