=
 OpenBabel10222419103D

 50 55  0  0  1  0  0  0  0  0999 V2000
  189.2570  177.9070  139.2630 N   0  0  0  0  0  0  0  0  0  0  0  0
  190.4820  176.4050  140.5930 N   0  0  0  0  0  2  0  0  0  0  0  0
  189.9530  176.8060  139.3220 C   0  0  0  0  0  0  0  0  0  0  0  0
  189.4490  174.2530  136.5430 C   0  0  0  0  0  0  0  0  0  0  0  0
  190.2560  175.9400  138.1490 C   0  0  0  0  0  0  0  0  0  0  0  0
  191.6130  176.0200  137.4030 C   0  0  2  0  0  3  0  0  0  0  0  0
  191.5350  174.8160  136.8110 C   0  0  0  0  0  0  0  0  0  0  0  0
  192.5780  175.0960  137.7000 N   0  0  0  0  0  0  0  0  0  0  0  0
  190.6590  173.9740  136.1170 N   0  0  0  0  0  0  0  0  0  0  0  0
  189.2650  175.1880  137.6680 N   0  0  0  0  0  0  0  0  0  0  0  0
  185.4330  172.3880  136.5800 C   0  0  0  0  0  1  0  0  0  0  0  0
  187.0340  174.1970  136.2550 N   0  0  0  0  0  2  0  0  0  0  0  0
  187.8900  172.3440  136.9470 C   0  0  0  0  0  2  0  0  0  0  0  0
  186.6180  173.1340  137.1660 C   0  0  2  0  0  3  0  0  0  0  0  0
  188.2800  173.4730  136.0120 C   0  0  2  0  0  3  0  0  0  0  0  0
  191.5950  178.5600  143.5470 C   0  0  0  0  0  2  0  0  0  0  0  0
  189.5190  176.4680  142.8700 C   0  0  1  0  0  3  0  0  0  0  0  0
  190.2290  178.5180  144.2410 C   0  0  0  0  0  2  0  0  0  0  0  0
  190.3410  177.2100  141.8010 C   0  0  1  0  0  3  0  0  0  0  0  0
  191.7140  177.6070  142.3490 C   0  0  0  0  0  2  0  0  0  0  0  0
  189.8900  175.1220  142.9380 O   0  0  0  0  0  1  0  0  0  0  0  0
  189.6620  177.0950  144.2660 C   0  0  1  0  0  3  0  0  0  0  0  0
  188.3690  177.0030  145.0710 C   0  0  0  0  0  2  0  0  0  0  0  0
  188.2520  178.0670  146.1670 C   0  0  2  0  0  3  0  0  0  0  0  0
  189.2890  178.6480  148.6360 O   0  0  0  0  0  1  0  0  0  0  0  0
  188.9890  177.4780  147.7290 P   0  0  0  0  0  0  0  0  0  0  0  0
  190.4220  176.6410  147.4030 O   0  0  0  0  0  0  0  0  0  0  0  0
  187.8960  176.4400  148.4970 O   0  0  0  0  0  1  0  0  0  0  0  0
  186.8830  178.5570  146.3620 N   0  0  0  0  0  2  0  0  0  0  0  0
  185.9510  177.9120  145.4400 C   0  0  0  0  0  2  0  0  0  0  0  0
  183.8640  179.0130  145.7250 O   0  0  0  0  0  1  0  0  0  0  0  0
  184.9710  178.9320  144.8840 C   0  0  2  0  0  3  0  0  0  0  0  0
  184.5140  178.5230  143.4940 C   0  0  0  0  0  1  0  0  0  0  0  0
  188.6540  178.5280  138.0920 C   0  0  1  0  0  3  0  0  0  0  0  0
  189.4770  178.3310  136.9790 O   0  0  0  0  0  0  0  0  0  0  0  0
  188.6010  178.1390  135.9110 C   0  0  0  0  0  1  0  0  0  0  0  0
  187.2640  177.9390  137.8450 C   0  0  0  0  0  2  0  0  0  0  0  0
  186.2810  178.2290  138.9780 C   0  0  0  0  0  2  0  0  0  0  0  0
  181.6500  176.7620  138.9370 C   0  0  0  0  0  2  0  0  0  0  0  0
  180.7640  177.1930  140.0910 C   0  0  0  0  0  2  0  0  0  0  0  0
  181.7820  179.3940  140.1520 O   0  0  0  0  0  0  0  0  0  0  0  0
  182.6680  179.0800  139.0920 C   0  0  2  0  0  3  0  0  0  0  0  0
  182.1090  177.9880  138.1500 C   0  0  1  0  0  3  0  0  0  0  0  0
  184.9660  178.5280  138.4410 N   0  0  0  0  0  0  0  0  0  0  0  0
  183.1450  177.5870  137.0970 C   0  0  0  0  0  2  0  0  0  0  0  0
  184.5050  177.3230  137.7500 C   0  0  0  0  0  2  0  0  0  0  0  0
  184.0860  178.7580  139.5840 C   0  0  0  0  0  2  0  0  0  0  0  0
  181.5210  178.2330  140.9170 C   0  0  1  0  0  3  0  0  0  0  0  0
  179.6820  177.7040  142.3650 O   0  0  0  0  0  1  0  0  0  0  0  0
  180.7350  178.5970  142.1670 C   0  0  0  0  0  2  0  0  0  0  0  0
  1  3  2  0  0  0  0
  3  2  1  0  0  0  0
  4 10  1  0  0  0  0
  5  3  1  0  0  0  0
  6  7  1  6  0  0  0
  6  8  1  0  0  0  0
  6  5  1  0  0  0  0
  7  8  2  0  0  0  0
  9  4  2  0  0  0  0
  9  7  1  0  0  0  0
 10  5  2  0  0  0  0
 12 14  1  0  0  0  0
 13 14  1  0  0  0  0
 14 11  1  6  0  0  0
 15 12  1  0  0  0  0
 15  4  1  1  0  0  0
 15 13  1  0  0  0  0
 16 18  1  0  0  0  0
 17 21  1  1  0  0  0
 17 22  1  0  0  0  0
 18 22  1  0  0  0  0
 19  2  1  6  0  0  0
 19 20  1  0  0  0  0
 19 17  1  0  0  0  0
 20 16  1  0  0  0  0
 22 23  1  6  0  0  0
 24 23  1  6  0  0  0
 24 29  1  0  0  0  0
 24 26  1  0  0  0  0
 26 28  1  0  0  0  0
 26 25  1  0  0  0  0
 27 26  2  0  0  0  0
 30 29  1  0  0  0  0
 32 33  1  6  0  0  0
 32 30  1  0  0  0  0
 32 31  1  0  0  0  0
 34 37  1  6  0  0  0
 34  1  1  0  0  0  0
 35 34  1  0  0  0  0
 36 35  1  0  0  0  0
 37 38  1  0  0  0  0
 39 40  1  0  0  0  0
 40 48  1  0  0  0  0
 41 48  1  0  0  0  0
 42 47  1  1  0  0  0
 42 41  1  0  0  0  0
 43 45  1  6  0  0  0
 43 39  1  0  0  0  0
 43 42  1  0  0  0  0
 44 38  1  0  0  0  0
 44 47  1  0  0  0  0
 45 46  1  0  0  0  0
 46 44  1  0  0  0  0
 48 50  1  1  0  0  0
 50 49  1  0  0  0  0
M  END
>  <MODEL>
1

>  <REMARK>
 VINA RESULT:      -8.3      0.000      0.000
  Name = 
  15 active torsions:
  status: ('A' for Active; 'I' for Inactive)
    1  A    between atoms: C_1  and  C_49
    2  A    between atoms: N_4  and  C_33
    3  A    between atoms: C_6  and  C_35
    4  A    between atoms: C_7  and  N_24
    5  A    between atoms: C_7  and  C_42
    6  A    between atoms: C_10  and  C_16
    7  A    between atoms: C_10  and  C_44
    8  A    between atoms: O_15  and  C_33
    9  A    between atoms: C_16  and  P_23
   10  A    between atoms: C_16  and  N_50
   11  A    between atoms: C_21  and  N_27
   12  A    between atoms: C_33  and  C_42
   13  A    between atoms: C_34  and  C_48
   14  A    between atoms: C_36  and  C_38
   15  A    between atoms: C_38  and  N_50
                            x       y       z     vdW  Elec       q    Type
                         _______ _______ _______ _____ _____    ______ ____

>  <TORSDO>
F 15

$$$$
=
 OpenBabel10222419103D

 50 55  0  0  1  0  0  0  0  0999 V2000
  183.1710  177.4900  140.7540 N   0  0  0  0  0  0  0  0  0  0  0  0
  182.9450  179.1080  142.4450 N   0  0  0  0  0  2  0  0  0  0  0  0
  182.5500  178.5540  141.1830 C   0  0  0  0  0  0  0  0  0  0  0  0
  180.7600  180.7780  138.6630 C   0  0  0  0  0  0  0  0  0  0  0  0
  181.4380  179.2280  140.4560 C   0  0  0  0  0  0  0  0  0  0  0  0
  179.9520  178.9080  140.7590 C   0  0  2  0  0  3  0  0  0  0  0  0
  179.4400  180.0290  140.2230 C   0  0  0  0  0  0  0  0  0  0  0  0
  179.2560  179.7510  141.5820 N   0  0  0  0  0  0  0  0  0  0  0  0
  179.5290  180.8670  139.1070 N   0  0  0  0  0  0  0  0  0  0  0  0
  181.7630  180.0170  139.4310 N   0  0  0  0  0  0  0  0  0  0  0  0
  181.0890  184.3890  136.1200 C   0  0  0  0  0  1  0  0  0  0  0  0
  181.7250  182.8890  137.9340 N   0  0  0  0  0  2  0  0  0  0  0  0
  179.9980  182.2650  136.8060 C   0  0  0  0  0  2  0  0  0  0  0  0
  180.5980  183.5640  137.2970 C   0  0  2  0  0  3  0  0  0  0  0  0
  181.1850  181.6080  137.4850 C   0  0  2  0  0  3  0  0  0  0  0  0
  184.9890  178.5070  145.6190 C   0  0  0  0  0  2  0  0  0  0  0  0
  185.3280  178.4690  142.6140 C   0  0  1  0  0  3  0  0  0  0  0  0
  186.0070  177.5920  144.9290 C   0  0  0  0  0  2  0  0  0  0  0  0
  183.9520  178.4910  143.3020 C   0  0  1  0  0  3  0  0  0  0  0  0
  184.0290  179.2120  144.6500 C   0  0  0  0  0  2  0  0  0  0  0  0
  185.5780  179.6790  141.9610 O   0  0  0  0  0  1  0  0  0  0  0  0
  186.4750  178.1870  143.5970 C   0  0  1  0  0  3  0  0  0  0  0  0
  187.5890  177.3630  142.9570 C   0  0  0  0  0  2  0  0  0  0  0  0
  188.9540  177.5520  143.6270 C   0  0  2  0  0  3  0  0  0  0  0  0
  191.6140  177.4480  142.9790 O   0  0  0  0  0  1  0  0  0  0  0  0
  190.2850  176.8320  142.6080 P   0  0  0  0  0  0  0  0  0  0  0  0
  189.9730  177.1250  140.9720 O   0  0  0  0  0  0  0  0  0  0  0  0
  190.3460  175.1640  142.8770 O   0  0  0  0  0  1  0  0  0  0  0  0
  189.0000  177.0580  145.0080 N   0  0  0  0  0  2  0  0  0  0  0  0
  189.7440  177.9700  145.8740 C   0  0  0  0  0  2  0  0  0  0  0  0
  190.6170  176.3520  147.3810 O   0  0  0  0  0  1  0  0  0  0  0  0
  189.7570  177.4460  147.3010 C   0  0  2  0  0  3  0  0  0  0  0  0
  188.3620  177.0170  147.7190 C   0  0  0  0  0  1  0  0  0  0  0  0
  182.9260  176.7380  139.5320 C   0  0  1  0  0  3  0  0  0  0  0  0
  181.5690  176.8030  139.2040 O   0  0  0  0  0  0  0  0  0  0  0  0
  181.0730  175.5240  139.4600 C   0  0  0  0  0  1  0  0  0  0  0  0
  183.7820  177.2940  138.3940 C   0  0  0  0  0  2  0  0  0  0  0  0
  184.4130  176.2030  137.5300 C   0  0  0  0  0  2  0  0  0  0  0  0
  189.0920  177.4970  137.6720 C   0  0  0  0  0  2  0  0  0  0  0  0
  190.1320  176.4070  137.4890 C   0  0  0  0  0  2  0  0  0  0  0  0
  188.7900  175.3060  135.7950 O   0  0  0  0  0  0  0  0  0  0  0  0
  187.7520  176.2640  135.9070 C   0  0  2  0  0  3  0  0  0  0  0  0
  188.2610  177.6400  136.3990 C   0  0  1  0  0  3  0  0  0  0  0  0
  185.4980  176.7510  136.7360 N   0  0  0  0  0  0  0  0  0  0  0  0
  187.0960  178.6060  136.6300 C   0  0  0  0  0  2  0  0  0  0  0  0
  185.9890  177.9330  137.4470 C   0  0  0  0  0  2  0  0  0  0  0  0
  186.5630  175.7510  136.7310 C   0  0  0  0  0  2  0  0  0  0  0  0
  189.4160  175.1300  137.0510 C   0  0  1  0  0  3  0  0  0  0  0  0
  191.5410  174.2440  137.7290 O   0  0  0  0  0  1  0  0  0  0  0  0
  190.3930  173.9650  136.9880 C   0  0  0  0  0  2  0  0  0  0  0  0
  1  3  2  0  0  0  0
  3  2  1  0  0  0  0
  4  9  2  0  0  0  0
  4 10  1  0  0  0  0
  5  6  1  0  0  0  0
  5  3  1  0  0  0  0
  6  7  1  6  0  0  0
  6  8  1  0  0  0  0
  7  8  2  0  0  0  0
  9  7  1  0  0  0  0
 10  5  2  0  0  0  0
 13 14  1  0  0  0  0
 13 15  1  0  0  0  0
 14 11  1  6  0  0  0
 14 12  1  0  0  0  0
 15 12  1  0  0  0  0
 15  4  1  1  0  0  0
 17 21  1  1  0  0  0
 17 19  1  0  0  0  0
 17 22  1  0  0  0  0
 18 16  1  0  0  0  0
 19  2  1  6  0  0  0
 19 20  1  0  0  0  0
 20 16  1  0  0  0  0
 22 23  1  6  0  0  0
 22 18  1  0  0  0  0
 24 23  1  6  0  0  0
 24 29  1  0  0  0  0
 26 28  1  0  0  0  0
 26 25  1  0  0  0  0
 26 24  1  0  0  0  0
 27 26  2  0  0  0  0
 29 30  1  0  0  0  0
 30 32  1  0  0  0  0
 32 31  1  0  0  0  0
 32 33  1  6  0  0  0
 34 37  1  6  0  0  0
 34  1  1  0  0  0  0
 35 36  1  0  0  0  0
 35 34  1  0  0  0  0
 38 37  1  0  0  0  0
 40 39  1  0  0  0  0
 41 42  1  0  0  0  0
 41 48  1  0  0  0  0
 42 43  1  0  0  0  0
 42 47  1  1  0  0  0
 43 45  1  1  0  0  0
 43 39  1  0  0  0  0
 44 46  1  0  0  0  0
 44 38  1  0  0  0  0
 45 46  1  0  0  0  0
 47 44  1  0  0  0  0
 48 50  1  6  0  0  0
 48 40  1  0  0  0  0
 50 49  1  0  0  0  0
M  END
>  <MODEL>
2

>  <REMARK>
 VINA RESULT:      -8.2      2.964      8.289
  Name = 
  15 active torsions:
  status: ('A' for Active; 'I' for Inactive)
    1  A    between atoms: C_1  and  C_49
    2  A    between atoms: N_4  and  C_33
    3  A    between atoms: C_6  and  C_35
    4  A    between atoms: C_7  and  N_24
    5  A    between atoms: C_7  and  C_42
    6  A    between atoms: C_10  and  C_16
    7  A    between atoms: C_10  and  C_44
    8  A    between atoms: O_15  and  C_33
    9  A    between atoms: C_16  and  P_23
   10  A    between atoms: C_16  and  N_50
   11  A    between atoms: C_21  and  N_27
   12  A    between atoms: C_33  and  C_42
   13  A    between atoms: C_34  and  C_48
   14  A    between atoms: C_36  and  C_38
   15  A    between atoms: C_38  and  N_50
                            x       y       z     vdW  Elec       q    Type
                         _______ _______ _______ _____ _____    ______ ____

>  <TORSDO>
F 15

$$$$
=
 OpenBabel10222419103D

 50 55  0  0  1  0  0  0  0  0999 V2000
  189.2390  177.9150  139.2070 N   0  0  0  0  0  0  0  0  0  0  0  0
  190.5970  176.4780  140.4780 N   0  0  0  0  0  2  0  0  0  0  0  0
  190.0190  176.8700  139.2270 C   0  0  0  0  0  0  0  0  0  0  0  0
  191.9690  175.6280  136.2010 C   0  0  0  0  0  0  0  0  0  0  0  0
  190.3700  176.0610  138.0260 C   0  0  0  0  0  0  0  0  0  0  0  0
  189.5120  174.8500  137.5790 C   0  0  2  0  0  3  0  0  0  0  0  0
  189.9570  174.8040  136.3120 C   0  0  0  0  0  0  0  0  0  0  0  0
  188.6010  175.0280  136.5730 N   0  0  0  0  0  0  0  0  0  0  0  0
  191.1230  174.8720  135.5420 N   0  0  0  0  0  0  0  0  0  0  0  0
  191.5300  176.3240  137.4250 N   0  0  0  0  0  0  0  0  0  0  0  0
  196.0940  174.8200  134.8090 C   0  0  0  0  0  1  0  0  0  0  0  0
  193.6670  174.9210  134.6090 N   0  0  0  0  0  2  0  0  0  0  0  0
  194.4430  175.5240  136.5260 C   0  0  0  0  0  2  0  0  0  0  0  0
  194.7670  174.4920  135.4680 C   0  0  2  0  0  3  0  0  0  0  0  0
  193.3130  175.9320  135.6020 C   0  0  2  0  0  3  0  0  0  0  0  0
  191.6000  178.5610  143.5230 C   0  0  0  0  0  2  0  0  0  0  0  0
  189.5920  176.4410  142.7370 C   0  0  1  0  0  3  0  0  0  0  0  0
  190.2240  178.4610  144.1890 C   0  0  0  0  0  2  0  0  0  0  0  0
  190.4140  177.2390  141.7100 C   0  0  1  0  0  3  0  0  0  0  0  0
  191.7660  177.6520  142.2970 C   0  0  0  0  0  2  0  0  0  0  0  0
  189.9950  175.1030  142.7680 O   0  0  0  0  0  1  0  0  0  0  0  0
  189.6930  177.0240  144.1560 C   0  0  1  0  0  3  0  0  0  0  0  0
  188.3880  176.8730  144.9320 C   0  0  0  0  0  2  0  0  0  0  0  0
  188.2020  177.9260  146.0300 C   0  0  2  0  0  3  0  0  0  0  0  0
  188.3120  176.0560  148.0300 O   0  0  0  0  0  1  0  0  0  0  0  0
  188.9350  177.3650  147.6030 P   0  0  0  0  0  0  0  0  0  0  0  0
  188.6690  178.5270  148.8020 O   0  0  0  0  0  1  0  0  0  0  0  0
  190.5990  177.1490  147.3910 O   0  0  0  0  0  0  0  0  0  0  0  0
  186.8080  178.3510  146.2010 N   0  0  0  0  0  2  0  0  0  0  0  0
  185.9900  177.9700  145.0510 C   0  0  0  0  0  2  0  0  0  0  0  0
  184.0240  179.0340  145.8570 O   0  0  0  0  0  1  0  0  0  0  0  0
  184.9230  179.0210  144.7930 C   0  0  2  0  0  3  0  0  0  0  0  0
  184.1740  178.7090  143.5090 C   0  0  0  0  0  1  0  0  0  0  0  0
  188.5710  178.5170  138.0610 C   0  0  1  0  0  3  0  0  0  0  0  0
  189.3510  178.3380  136.9150 O   0  0  0  0  0  0  0  0  0  0  0  0
  188.4440  178.3450  135.8560 C   0  0  0  0  0  1  0  0  0  0  0  0
  187.1880  177.8940  137.8740 C   0  0  0  0  0  2  0  0  0  0  0  0
  186.2100  178.2600  138.9900 C   0  0  0  0  0  2  0  0  0  0  0  0
  181.5910  176.7600  138.8810 C   0  0  0  0  0  2  0  0  0  0  0  0
  180.6870  177.1790  140.0250 C   0  0  0  0  0  2  0  0  0  0  0  0
  181.6880  179.3860  140.1120 O   0  0  0  0  0  0  0  0  0  0  0  0
  182.5900  179.0840  139.0620 C   0  0  2  0  0  3  0  0  0  0  0  0
  182.0510  177.9940  138.1060 C   0  0  1  0  0  3  0  0  0  0  0  0
  184.9000  178.5520  138.4370 N   0  0  0  0  0  0  0  0  0  0  0  0
  183.1040  177.6070  137.0650 C   0  0  0  0  0  2  0  0  0  0  0  0
  184.4570  177.3480  137.7340 C   0  0  0  0  0  2  0  0  0  0  0  0
  184.0040  178.7690  139.5710 C   0  0  0  0  0  2  0  0  0  0  0  0
  181.4250  178.2190  140.8670 C   0  0  1  0  0  3  0  0  0  0  0  0
  179.6470  177.6020  142.3550 O   0  0  0  0  0  1  0  0  0  0  0  0
  180.6210  178.5700  142.1090 C   0  0  0  0  0  2  0  0  0  0  0  0
  1  3  2  0  0  0  0
  3  2  1  0  0  0  0
  4 10  1  0  0  0  0
  5  3  1  0  0  0  0
  6  7  1  6  0  0  0
  6  5  1  0  0  0  0
  7  8  2  0  0  0  0
  8  6  1  0  0  0  0
  9  4  2  0  0  0  0
  9  7  1  0  0  0  0
 10  5  2  0  0  0  0
 12 14  1  0  0  0  0
 12 15  1  0  0  0  0
 14 11  1  6  0  0  0
 14 13  1  0  0  0  0
 15  4  1  1  0  0  0
 15 13  1  0  0  0  0
 16 18  1  0  0  0  0
 17 21  1  1  0  0  0
 17 22  1  0  0  0  0
 19  2  1  6  0  0  0
 19 20  1  0  0  0  0
 19 17  1  0  0  0  0
 20 16  1  0  0  0  0
 22 18  1  0  0  0  0
 22 23  1  6  0  0  0
 24 23  1  6  0  0  0
 24 29  1  0  0  0  0
 24 26  1  0  0  0  0
 26 25  1  0  0  0  0
 26 27  1  0  0  0  0
 28 26  2  0  0  0  0
 30 29  1  0  0  0  0
 32 33  1  6  0  0  0
 32 30  1  0  0  0  0
 32 31  1  0  0  0  0
 34 37  1  6  0  0  0
 34  1  1  0  0  0  0
 35 34  1  0  0  0  0
 36 35  1  0  0  0  0
 37 38  1  0  0  0  0
 39 40  1  0  0  0  0
 40 48  1  0  0  0  0
 41 48  1  0  0  0  0
 42 47  1  1  0  0  0
 42 41  1  0  0  0  0
 43 45  1  6  0  0  0
 43 39  1  0  0  0  0
 43 42  1  0  0  0  0
 44 38  1  0  0  0  0
 44 47  1  0  0  0  0
 45 46  1  0  0  0  0
 46 44  1  0  0  0  0
 48 50  1  1  0  0  0
 50 49  1  0  0  0  0
M  END
>  <MODEL>
3

>  <REMARK>
 VINA RESULT:      -8.1      1.217      2.808
  Name = 
  15 active torsions:
  status: ('A' for Active; 'I' for Inactive)
    1  A    between atoms: C_1  and  C_49
    2  A    between atoms: N_4  and  C_33
    3  A    between atoms: C_6  and  C_35
    4  A    between atoms: C_7  and  N_24
    5  A    between atoms: C_7  and  C_42
    6  A    between atoms: C_10  and  C_16
    7  A    between atoms: C_10  and  C_44
    8  A    between atoms: O_15  and  C_33
    9  A    between atoms: C_16  and  P_23
   10  A    between atoms: C_16  and  N_50
   11  A    between atoms: C_21  and  N_27
   12  A    between atoms: C_33  and  C_42
   13  A    between atoms: C_34  and  C_48
   14  A    between atoms: C_36  and  C_38
   15  A    between atoms: C_38  and  N_50
                            x       y       z     vdW  Elec       q    Type
                         _______ _______ _______ _____ _____    ______ ____

>  <TORSDO>
F 15

$$$$
=
 OpenBabel10222419103D

 50 55  0  0  1  0  0  0  0  0999 V2000
  189.2190  177.4680  139.5810 N   0  0  0  0  0  0  0  0  0  0  0  0
  190.9190  176.7080  141.0150 N   0  0  0  0  0  2  0  0  0  0  0  0
  190.3270  176.7920  139.7130 C   0  0  0  0  0  0  0  0  0  0  0  0
  191.0940  174.2280  137.0040 C   0  0  0  0  0  0  0  0  0  0  0  0
  191.0350  176.1130  138.5920 C   0  0  0  0  0  0  0  0  0  0  0  0
  192.2900  176.7310  137.9250 C   0  0  2  0  0  3  0  0  0  0  0  0
  192.7480  175.5940  137.3740 C   0  0  0  0  0  0  0  0  0  0  0  0
  193.5240  176.2830  138.3120 N   0  0  0  0  0  0  0  0  0  0  0  0
  192.3390  174.4620  136.6610 N   0  0  0  0  0  0  0  0  0  0  0  0
  190.4700  175.0180  138.0810 N   0  0  0  0  0  0  0  0  0  0  0  0
  187.9920  172.0260  134.7380 C   0  0  0  0  0  1  0  0  0  0  0  0
  190.0820  173.2480  135.0210 N   0  0  0  0  0  2  0  0  0  0  0  0
  188.9130  173.0250  136.8170 C   0  0  0  0  0  2  0  0  0  0  0  0
  188.6580  173.2490  135.3430 C   0  0  2  0  0  3  0  0  0  0  0  0
  190.3810  173.0350  136.4350 C   0  0  2  0  0  3  0  0  0  0  0  0
  190.9780  178.5490  144.3650 C   0  0  0  0  0  2  0  0  0  0  0  0
  189.2460  176.6000  142.8330 C   0  0  1  0  0  3  0  0  0  0  0  0
  189.4580  178.4930  144.5540 C   0  0  0  0  0  2  0  0  0  0  0  0
  190.3820  177.4060  142.1780 C   0  0  1  0  0  3  0  0  0  0  0  0
  191.4910  177.7040  143.1900 C   0  0  0  0  0  2  0  0  0  0  0  0
  189.5680  175.2420  142.8910 O   0  0  0  0  0  1  0  0  0  0  0  0
  188.9120  177.0940  144.2500 C   0  0  1  0  0  3  0  0  0  0  0  0
  187.4230  176.9760  144.5620 C   0  0  0  0  0  2  0  0  0  0  0  0
  186.7550  178.3170  144.8820 C   0  0  2  0  0  3  0  0  0  0  0  0
  184.8290  177.6810  146.7240 O   0  0  0  0  0  0  0  0  0  0  0  0
  186.1740  178.3600  146.6110 P   0  0  0  0  0  0  0  0  0  0  0  0
  186.0350  179.9650  147.1260 O   0  0  0  0  0  1  0  0  0  0  0  0
  187.2930  177.5530  147.5890 O   0  0  0  0  0  1  0  0  0  0  0  0
  185.6880  178.6780  143.9410 N   0  0  0  0  0  2  0  0  0  0  0  0
  185.8520  177.9910  142.6620 C   0  0  0  0  0  2  0  0  0  0  0  0
  185.1040  179.5070  140.9920 O   0  0  0  0  0  1  0  0  0  0  0  0
  184.7300  178.3740  141.7110 C   0  0  2  0  0  3  0  0  0  0  0  0
  183.4590  178.6720  142.4880 C   0  0  0  0  0  1  0  0  0  0  0  0
  188.4580  177.7190  138.3650 C   0  0  1  0  0  3  0  0  0  0  0  0
  189.3280  178.0870  137.3330 O   0  0  0  0  0  0  0  0  0  0  0  0
  189.0980  179.4480  137.1350 C   0  0  0  0  0  1  0  0  0  0  0  0
  187.6620  176.4720  137.9780 C   0  0  0  0  0  2  0  0  0  0  0  0
  187.3450  176.4030  136.4850 C   0  0  0  0  0  2  0  0  0  0  0  0
  183.1230  175.6970  138.7810 C   0  0  0  0  0  2  0  0  0  0  0  0
  182.3080  176.9230  139.1520 C   0  0  0  0  0  2  0  0  0  0  0  0
  182.8710  178.0220  137.0640 O   0  0  0  0  0  0  0  0  0  0  0  0
  183.6740  176.9350  136.6370 C   0  0  2  0  0  3  0  0  0  0  0  0
  183.2360  175.5890  137.2620 C   0  0  1  0  0  3  0  0  0  0  0  0
  185.9440  176.0830  136.2810 N   0  0  0  0  0  0  0  0  0  0  0  0
  184.2030  174.4660  136.8790 C   0  0  0  0  0  2  0  0  0  0  0  0
  185.6540  174.9040  137.0970 C   0  0  0  0  0  2  0  0  0  0  0  0
  185.1740  177.2040  136.8170 C   0  0  0  0  0  2  0  0  0  0  0  0
  182.9350  178.1400  138.4730 C   0  0  1  0  0  3  0  0  0  0  0  0
  180.8600  179.2360  138.9750 O   0  0  0  0  0  1  0  0  0  0  0  0
  182.2420  179.4180  138.9210 C   0  0  0  0  0  2  0  0  0  0  0  0
  1  3  2  0  0  0  0
  3  2  1  0  0  0  0
  4 10  1  0  0  0  0
  5  3  1  0  0  0  0
  6  7  1  6  0  0  0
  6  8  1  0  0  0  0
  6  5  1  0  0  0  0
  7  8  2  0  0  0  0
  9  4  2  0  0  0  0
  9  7  1  0  0  0  0
 10  5  2  0  0  0  0
 12 14  1  0  0  0  0
 12 15  1  0  0  0  0
 14 11  1  6  0  0  0
 14 13  1  0  0  0  0
 15 13  1  0  0  0  0
 15  4  1  1  0  0  0
 16 18  1  0  0  0  0
 17 21  1  1  0  0  0
 17 22  1  0  0  0  0
 19  2  1  6  0  0  0
 19 17  1  0  0  0  0
 19 20  1  0  0  0  0
 20 16  1  0  0  0  0
 22 18  1  0  0  0  0
 22 23  1  6  0  0  0
 24 23  1  6  0  0  0
 24 26  1  0  0  0  0
 26 25  2  0  0  0  0
 26 27  1  0  0  0  0
 26 28  1  0  0  0  0
 29 24  1  0  0  0  0
 30 29  1  0  0  0  0
 31 32  1  0  0  0  0
 32 33  1  1  0  0  0
 32 30  1  0  0  0  0
 34 37  1  6  0  0  0
 34  1  1  0  0  0  0
 35 34  1  0  0  0  0
 36 35  1  0  0  0  0
 38 37  1  0  0  0  0
 39 40  1  0  0  0  0
 41 48  1  0  0  0  0
 42 47  1  1  0  0  0
 42 41  1  0  0  0  0
 42 43  1  0  0  0  0
 43 45  1  1  0  0  0
 43 39  1  0  0  0  0
 44 38  1  0  0  0  0
 44 47  1  0  0  0  0
 44 46  1  0  0  0  0
 45 46  1  0  0  0  0
 48 50  1  1  0  0  0
 48 40  1  0  0  0  0
 50 49  1  0  0  0  0
M  END
>  <MODEL>
4

>  <REMARK>
 VINA RESULT:      -7.8      1.713      2.504
  Name = 
  15 active torsions:
  status: ('A' for Active; 'I' for Inactive)
    1  A    between atoms: C_1  and  C_49
    2  A    between atoms: N_4  and  C_33
    3  A    between atoms: C_6  and  C_35
    4  A    between atoms: C_7  and  N_24
    5  A    between atoms: C_7  and  C_42
    6  A    between atoms: C_10  and  C_16
    7  A    between atoms: C_10  and  C_44
    8  A    between atoms: O_15  and  C_33
    9  A    between atoms: C_16  and  P_23
   10  A    between atoms: C_16  and  N_50
   11  A    between atoms: C_21  and  N_27
   12  A    between atoms: C_33  and  C_42
   13  A    between atoms: C_34  and  C_48
   14  A    between atoms: C_36  and  C_38
   15  A    between atoms: C_38  and  N_50
                            x       y       z     vdW  Elec       q    Type
                         _______ _______ _______ _____ _____    ______ ____

>  <TORSDO>
F 15

$$$$
=
 OpenBabel10222419103D

 50 55  0  0  1  0  0  0  0  0999 V2000
  183.1350  177.4000  140.6070 N   0  0  0  0  0  0  0  0  0  0  0  0
  183.6270  179.0690  142.1870 N   0  0  0  0  0  2  0  0  0  0  0  0
  182.8270  178.5630  141.1100 C   0  0  0  0  0  0  0  0  0  0  0  0
  180.7970  180.9820  138.9820 C   0  0  0  0  0  0  0  0  0  0  0  0
  181.6830  179.4010  140.6530 C   0  0  0  0  0  0  0  0  0  0  0  0
  180.3090  179.3670  141.3690 C   0  0  2  0  0  3  0  0  0  0  0  0
  179.8600  180.5420  140.8970 C   0  0  0  0  0  0  0  0  0  0  0  0
  180.0180  180.3520  142.2740 N   0  0  0  0  0  0  0  0  0  0  0  0
  179.7700  181.3090  139.7300 N   0  0  0  0  0  0  0  0  0  0  0  0
  181.8340  180.0800  139.5160 N   0  0  0  0  0  0  0  0  0  0  0  0
  181.0470  184.3840  136.1590 C   0  0  0  0  0  1  0  0  0  0  0  0
  181.8900  182.8290  137.8370 N   0  0  0  0  0  2  0  0  0  0  0  0
  179.8210  182.5490  137.3000 C   0  0  0  0  0  2  0  0  0  0  0  0
  180.7760  183.7070  137.4910 C   0  0  2  0  0  3  0  0  0  0  0  0
  181.0070  181.6770  137.6670 C   0  0  2  0  0  3  0  0  0  0  0  0
  186.0910  177.9850  144.9020 C   0  0  0  0  0  2  0  0  0  0  0  0
  185.9660  178.3230  141.8990 C   0  0  1  0  0  3  0  0  0  0  0  0
  186.9370  177.1290  143.9540 C   0  0  0  0  0  2  0  0  0  0  0  0
  184.7140  178.3090  142.7940 C   0  0  1  0  0  3  0  0  0  0  0  0
  185.0370  178.8460  144.1900 C   0  0  0  0  0  2  0  0  0  0  0  0
  186.1840  179.5970  141.3670 O   0  0  0  0  0  1  0  0  0  0  0  0
  187.2320  177.8730  142.6470 C   0  0  1  0  0  3  0  0  0  0  0  0
  188.1860  177.0960  141.7440 C   0  0  0  0  0  2  0  0  0  0  0  0
  189.3210  177.9520  141.1710 C   0  0  2  0  0  3  0  0  0  0  0  0
  190.7350  177.3720  138.8970 O   0  0  0  0  0  1  0  0  0  0  0  0
  189.3710  177.8360  139.3520 P   0  0  0  0  0  0  0  0  0  0  0  0
  189.0420  179.3500  138.6740 O   0  0  0  0  0  0  0  0  0  0  0  0
  188.2030  176.7260  138.8370 O   0  0  0  0  0  1  0  0  0  0  0  0
  190.6290  177.6630  141.7700 N   0  0  0  0  0  2  0  0  0  0  0  0
  190.7260  178.2050  143.1240 C   0  0  0  0  0  2  0  0  0  0  0  0
  191.4510  175.9670  143.4630 O   0  0  0  0  0  1  0  0  0  0  0  0
  191.4850  177.2430  144.0230 C   0  0  2  0  0  3  0  0  0  0  0  0
  190.8530  177.2000  145.4030 C   0  0  0  0  0  1  0  0  0  0  0  0
  182.4560  176.6730  139.5430 C   0  0  1  0  0  3  0  0  0  0  0  0
  181.0830  176.6300  139.8030 O   0  0  0  0  0  0  0  0  0  0  0  0
  180.7480  175.2770  139.7550 C   0  0  0  0  0  1  0  0  0  0  0  0
  182.7280  177.3440  138.1960 C   0  0  0  0  0  2  0  0  0  0  0  0
  183.7100  176.5630  137.3250 C   0  0  0  0  0  2  0  0  0  0  0  0
  184.3540  172.1000  135.5180 C   0  0  0  0  0  2  0  0  0  0  0  0
  185.7720  171.5630  135.4540 C   0  0  0  0  0  2  0  0  0  0  0  0
  186.3260  172.5560  137.5960 O   0  0  0  0  0  0  0  0  0  0  0  0
  185.0340  173.1180  137.7390 C   0  0  2  0  0  3  0  0  0  0  0  0
  183.9490  172.3230  136.9730 C   0  0  1  0  0  3  0  0  0  0  0  0
  183.6650  175.1500  137.6570 N   0  0  0  0  0  0  0  0  0  0  0  0
  182.5950  173.0320  137.0460 C   0  0  0  0  0  2  0  0  0  0  0  0
  182.7440  174.5190  136.7110 C   0  0  0  0  0  2  0  0  0  0  0  0
  185.0030  174.6170  137.4090 C   0  0  0  0  0  2  0  0  0  0  0  0
  186.6830  172.5160  136.2280 C   0  0  1  0  0  3  0  0  0  0  0  0
  188.2330  170.7850  135.6290 O   0  0  0  0  0  1  0  0  0  0  0  0
  188.1380  172.1020  136.0790 C   0  0  0  0  0  2  0  0  0  0  0  0
  1  3  2  0  0  0  0
  3  2  1  0  0  0  0
  4 10  1  0  0  0  0
  4  9  2  0  0  0  0
  5  3  1  0  0  0  0
  6  5  1  6  0  0  0
  6  8  1  0  0  0  0
  7  6  1  0  0  0  0
  7  8  2  0  0  0  0
  9  7  1  0  0  0  0
 10  5  2  0  0  0  0
 13 14  1  0  0  0  0
 13 15  1  0  0  0  0
 14 11  1  6  0  0  0
 14 12  1  0  0  0  0
 15 12  1  0  0  0  0
 15  4  1  1  0  0  0
 17 21  1  1  0  0  0
 17 22  1  0  0  0  0
 17 19  1  0  0  0  0
 18 16  1  0  0  0  0
 19  2  1  6  0  0  0
 19 20  1  0  0  0  0
 20 16  1  0  0  0  0
 22 23  1  6  0  0  0
 22 18  1  0  0  0  0
 24 23  1  1  0  0  0
 24 29  1  0  0  0  0
 25 26  1  0  0  0  0
 26 24  1  0  0  0  0
 27 26  2  0  0  0  0
 28 26  1  0  0  0  0
 29 30  1  0  0  0  0
 30 32  1  0  0  0  0
 31 32  1  0  0  0  0
 32 33  1  1  0  0  0
 34 37  1  6  0  0  0
 34 35  1  0  0  0  0
 34  1  1  0  0  0  0
 36 35  1  0  0  0  0
 38 44  1  0  0  0  0
 38 37  1  0  0  0  0
 40 39  1  0  0  0  0
 40 48  1  0  0  0  0
 41 42  1  0  0  0  0
 42 47  1  6  0  0  0
 43 39  1  6  0  0  0
 43 45  1  0  0  0  0
 43 42  1  0  0  0  0
 46 45  1  0  0  0  0
 46 44  1  0  0  0  0
 47 44  1  0  0  0  0
 48 50  1  1  0  0  0
 48 41  1  0  0  0  0
 49 50  1  0  0  0  0
M  END
>  <MODEL>
5

>  <REMARK>
 VINA RESULT:      -7.7      3.396      8.558
  Name = 
  15 active torsions:
  status: ('A' for Active; 'I' for Inactive)
    1  A    between atoms: C_1  and  C_49
    2  A    between atoms: N_4  and  C_33
    3  A    between atoms: C_6  and  C_35
    4  A    between atoms: C_7  and  N_24
    5  A    between atoms: C_7  and  C_42
    6  A    between atoms: C_10  and  C_16
    7  A    between atoms: C_10  and  C_44
    8  A    between atoms: O_15  and  C_33
    9  A    between atoms: C_16  and  P_23
   10  A    between atoms: C_16  and  N_50
   11  A    between atoms: C_21  and  N_27
   12  A    between atoms: C_33  and  C_42
   13  A    between atoms: C_34  and  C_48
   14  A    between atoms: C_36  and  C_38
   15  A    between atoms: C_38  and  N_50
                            x       y       z     vdW  Elec       q    Type
                         _______ _______ _______ _____ _____    ______ ____

>  <TORSDO>
F 15

$$$$
=
 OpenBabel10222419103D

 50 55  0  0  1  0  0  0  0  0999 V2000
  183.8850  177.5120  139.0310 N   0  0  0  0  0  0  0  0  0  0  0  0
  182.6400  175.8920  137.8680 N   0  0  0  0  0  2  0  0  0  0  0  0
  183.8280  176.6770  138.0300 C   0  0  0  0  0  0  0  0  0  0  0  0
  187.3230  176.0340  136.6620 C   0  0  0  0  0  0  0  0  0  0  0  0
  184.9270  176.4690  137.0460 C   0  0  0  0  0  0  0  0  0  0  0  0
  184.6550  176.3890  135.5220 C   0  0  2  0  0  3  0  0  0  0  0  0
  185.9110  176.6570  135.1270 C   0  0  0  0  0  0  0  0  0  0  0  0
  184.8630  177.5080  134.7610 N   0  0  0  0  0  0  0  0  0  0  0  0
  187.2490  176.3420  135.3890 N   0  0  0  0  0  0  0  0  0  0  0  0
  186.1430  176.2100  137.5290 N   0  0  0  0  0  0  0  0  0  0  0  0
  191.3920  176.7600  138.2520 C   0  0  0  0  0  1  0  0  0  0  0  0
  188.9630  176.5970  138.3690 N   0  0  0  0  0  2  0  0  0  0  0  0
  189.8030  176.2150  136.4220 C   0  0  0  0  0  2  0  0  0  0  0  0
  190.0760  177.1340  137.5930 C   0  0  2  0  0  3  0  0  0  0  0  0
  188.6560  175.6910  137.2650 C   0  0  2  0  0  3  0  0  0  0  0  0
  179.5230  174.6510  139.7010 C   0  0  0  0  0  2  0  0  0  0  0  0
  180.7220  177.2300  138.6720 C   0  0  1  0  0  3  0  0  0  0  0  0
  179.2360  176.0010  140.3660 C   0  0  0  0  0  2  0  0  0  0  0  0
  181.5300  175.9280  138.8140 C   0  0  1  0  0  3  0  0  0  0  0  0
  180.6280  174.7040  138.6350 C   0  0  0  0  0  2  0  0  0  0  0  0
  180.5350  177.5560  137.3260 O   0  0  0  0  0  1  0  0  0  0  0  0
  179.3500  177.1510  139.3610 C   0  0  1  0  0  3  0  0  0  0  0  0
  178.9360  178.4890  139.9660 C   0  0  0  0  0  2  0  0  0  0  0  0
  180.1200  179.3520  140.4150 C   0  0  2  0  0  3  0  0  0  0  0  0
  179.3050  178.3580  142.8340 O   0  0  0  0  0  1  0  0  0  0  0  0
  180.2950  179.3260  142.2300 P   0  0  0  0  0  0  0  0  0  0  0  0
  180.0130  180.8730  142.8530 O   0  0  0  0  0  1  0  0  0  0  0  0
  181.8650  178.8400  142.6270 O   0  0  0  0  0  0  0  0  0  0  0  0
  180.0740  180.7230  139.8930 N   0  0  0  0  0  2  0  0  0  0  0  0
  179.6360  180.7470  138.4990 C   0  0  0  0  0  2  0  0  0  0  0  0
  180.1230  183.0130  137.9700 O   0  0  0  0  0  1  0  0  0  0  0  0
  180.5020  181.7010  137.6930 C   0  0  2  0  0  3  0  0  0  0  0  0
  180.3370  181.4360  136.2060 C   0  0  0  0  0  1  0  0  0  0  0  0
  184.9880  178.3820  139.4150 C   0  0  1  0  0  3  0  0  0  0  0  0
  184.8600  179.6160  138.7700 O   0  0  0  0  0  0  0  0  0  0  0  0
  183.5760  180.0580  139.0880 C   0  0  0  0  0  1  0  0  0  0  0  0
  185.0050  178.5670  140.9320 C   0  0  0  0  0  2  0  0  0  0  0  0
  186.3670  179.0100  141.4660 C   0  0  0  0  0  2  0  0  0  0  0  0
  189.8510  177.8000  144.6280 C   0  0  0  0  0  2  0  0  0  0  0  0
  189.4800  177.7470  146.0990 C   0  0  0  0  0  2  0  0  0  0  0  0
  187.3160  176.7740  145.5980 O   0  0  0  0  0  0  0  0  0  0  0  0
  187.5590  176.8010  144.2020 C   0  0  2  0  0  3  0  0  0  0  0  0
  189.0660  176.7400  143.8570 C   0  0  1  0  0  3  0  0  0  0  0  0
  187.0660  177.8840  142.0600 N   0  0  0  0  0  0  0  0  0  0  0  0
  189.2920  176.9010  142.3520 C   0  0  0  0  0  2  0  0  0  0  0  0
  188.4930  178.0900  141.8100 C   0  0  0  0  0  2  0  0  0  0  0  0
  186.8440  177.9650  143.5020 C   0  0  0  0  0  2  0  0  0  0  0  0
  187.9620  177.8700  146.2170 C   0  0  1  0  0  3  0  0  0  0  0  0
  188.6650  177.9850  148.5080 O   0  0  0  0  0  1  0  0  0  0  0  0
  187.5450  177.9640  147.6770 C   0  0  0  0  0  2  0  0  0  0  0  0
  1 34  1  0  0  0  0
  2  3  1  0  0  0  0
  3  1  2  0  0  0  0
  4 10  1  0  0  0  0
  5 10  2  0  0  0  0
  5  3  1  0  0  0  0
  6  8  1  6  0  0  0
  6  5  1  0  0  0  0
  7  9  1  0  0  0  0
  7  6  1  0  0  0  0
  8  7  2  0  0  0  0
  9  4  2  0  0  0  0
 13 15  1  0  0  0  0
 13 14  1  0  0  0  0
 14 11  1  1  0  0  0
 14 12  1  0  0  0  0
 15  4  1  6  0  0  0
 15 12  1  0  0  0  0
 16 18  1  0  0  0  0
 17 21  1  6  0  0  0
 17 19  1  0  0  0  0
 17 22  1  0  0  0  0
 19  2  1  6  0  0  0
 20 19  1  0  0  0  0
 20 16  1  0  0  0  0
 22 23  1  1  0  0  0
 22 18  1  0  0  0  0
 24 23  1  1  0  0  0
 24 26  1  0  0  0  0
 26 28  2  0  0  0  0
 26 25  1  0  0  0  0
 26 27  1  0  0  0  0
 29 24  1  0  0  0  0
 30 29  1  0  0  0  0
 32 33  1  6  0  0  0
 32 31  1  0  0  0  0
 32 30  1  0  0  0  0
 34 37  1  1  0  0  0
 35 36  1  0  0  0  0
 35 34  1  0  0  0  0
 37 38  1  0  0  0  0
 38 44  1  0  0  0  0
 39 40  1  0  0  0  0
 40 48  1  0  0  0  0
 41 48  1  0  0  0  0
 42 47  1  1  0  0  0
 42 41  1  0  0  0  0
 43 45  1  6  0  0  0
 43 42  1  0  0  0  0
 43 39  1  0  0  0  0
 44 47  1  0  0  0  0
 46 44  1  0  0  0  0
 46 45  1  0  0  0  0
 48 50  1  1  0  0  0
 50 49  1  0  0  0  0
M  END
>  <MODEL>
6

>  <REMARK>
 VINA RESULT:      -7.5      2.845      8.298
  Name = 
  15 active torsions:
  status: ('A' for Active; 'I' for Inactive)
    1  A    between atoms: C_1  and  C_49
    2  A    between atoms: N_4  and  C_33
    3  A    between atoms: C_6  and  C_35
    4  A    between atoms: C_7  and  N_24
    5  A    between atoms: C_7  and  C_42
    6  A    between atoms: C_10  and  C_16
    7  A    between atoms: C_10  and  C_44
    8  A    between atoms: O_15  and  C_33
    9  A    between atoms: C_16  and  P_23
   10  A    between atoms: C_16  and  N_50
   11  A    between atoms: C_21  and  N_27
   12  A    between atoms: C_33  and  C_42
   13  A    between atoms: C_34  and  C_48
   14  A    between atoms: C_36  and  C_38
   15  A    between atoms: C_38  and  N_50
                            x       y       z     vdW  Elec       q    Type
                         _______ _______ _______ _____ _____    ______ ____

>  <TORSDO>
F 15

$$$$
=
 OpenBabel10222419103D

 50 55  0  0  1  0  0  0  0  0999 V2000
  186.5690  176.7530  137.9330 N   0  0  0  0  0  0  0  0  0  0  0  0
  185.0180  175.1080  137.2910 N   0  0  0  0  0  2  0  0  0  0  0  0
  186.3660  175.5870  137.3850 C   0  0  0  0  0  0  0  0  0  0  0  0
  189.8440  174.1340  136.8480 C   0  0  0  0  0  0  0  0  0  0  0  0
  187.4460  174.7050  136.8620 C   0  0  0  0  0  0  0  0  0  0  0  0
  187.1380  173.4910  135.9490 C   0  0  2  0  0  3  0  0  0  0  0  0
  188.3750  173.3650  135.4380 C   0  0  0  0  0  0  0  0  0  0  0  0
  187.2910  173.6350  134.5960 N   0  0  0  0  0  0  0  0  0  0  0  0
  189.7280  173.3630  135.7930 N   0  0  0  0  0  0  0  0  0  0  0  0
  188.6810  174.9070  137.3220 N   0  0  0  0  0  0  0  0  0  0  0  0
  193.3980  176.4570  138.1040 C   0  0  0  0  0  1  0  0  0  0  0  0
  191.1630  175.5170  138.3530 N   0  0  0  0  0  2  0  0  0  0  0  0
  192.1230  175.0840  136.4730 C   0  0  0  0  0  2  0  0  0  0  0  0
  192.0480  176.2410  137.4450 C   0  0  2  0  0  3  0  0  0  0  0  0
  191.2020  174.3730  137.4450 C   0  0  2  0  0  3  0  0  0  0  0  0
  181.5050  175.5930  138.7180 C   0  0  0  0  0  2  0  0  0  0  0  0
  183.5110  177.0430  136.9800 C   0  0  1  0  0  3  0  0  0  0  0  0
  181.5640  177.1230  138.6510 C   0  0  0  0  0  2  0  0  0  0  0  0
  183.8790  175.8280  137.8490 C   0  0  1  0  0  3  0  0  0  0  0  0
  182.6780  174.8940  138.0150 C   0  0  0  0  0  2  0  0  0  0  0  0
  183.5660  176.7190  135.6220 O   0  0  0  0  0  1  0  0  0  0  0  0
  182.1150  177.6000  137.3030 C   0  0  1  0  0  3  0  0  0  0  0  0
  182.0560  179.1180  137.1600 C   0  0  0  0  0  2  0  0  0  0  0  0
  182.1030  179.8620  138.4990 C   0  0  2  0  0  3  0  0  0  0  0  0
  179.7480  180.8730  137.5280 O   0  0  0  0  0  0  0  0  0  0  0  0
  180.7970  181.1330  138.5850 P   0  0  0  0  0  0  0  0  0  0  0  0
  181.4730  182.6630  138.3350 O   0  0  0  0  0  1  0  0  0  0  0  0
  180.0760  181.0820  140.1130 O   0  0  0  0  0  1  0  0  0  0  0  0
  183.4240  180.4180  138.8120 N   0  0  0  0  0  2  0  0  0  0  0  0
  184.3580  179.3720  139.2230 C   0  0  0  0  0  2  0  0  0  0  0  0
  185.7310  179.4850  141.1600 O   0  0  0  0  0  1  0  0  0  0  0  0
  184.4180  179.2860  140.7390 C   0  0  2  0  0  3  0  0  0  0  0  0
  183.9430  177.9220  141.2090 C   0  0  0  0  0  1  0  0  0  0  0  0
  187.8390  177.4270  138.1670 C   0  0  1  0  0  3  0  0  0  0  0  0
  187.8820  178.6160  137.4330 O   0  0  0  0  0  0  0  0  0  0  0  0
  188.7980  178.3760  136.4090 C   0  0  0  0  0  1  0  0  0  0  0  0
  188.0140  177.7100  139.6600 C   0  0  0  0  0  2  0  0  0  0  0  0
  189.4790  177.7700  140.0890 C   0  0  0  0  0  2  0  0  0  0  0  0
  189.8670  178.0000  144.9260 C   0  0  0  0  0  2  0  0  0  0  0  0
  188.5850  178.0310  145.7360 C   0  0  0  0  0  2  0  0  0  0  0  0
  187.5200  176.4330  144.2540 O   0  0  0  0  0  0  0  0  0  0  0  0
  188.6640  176.3500  143.4220 C   0  0  2  0  0  3  0  0  0  0  0  0
  189.9760  176.6740  144.1760 C   0  0  1  0  0  3  0  0  0  0  0  0
  189.6880  176.9710  141.2840 N   0  0  0  0  0  0  0  0  0  0  0  0
  191.1680  176.6990  143.2170 C   0  0  0  0  0  2  0  0  0  0  0  0
  190.8460  177.5370  141.9770 C   0  0  0  0  0  2  0  0  0  0  0  0
  188.5140  177.1670  142.1320 C   0  0  0  0  0  2  0  0  0  0  0  0
  187.4160  177.7350  144.7970 C   0  0  1  0  0  3  0  0  0  0  0  0
  185.9570  179.1850  146.0320 O   0  0  0  0  0  1  0  0  0  0  0  0
  186.0910  177.8920  145.5270 C   0  0  0  0  0  2  0  0  0  0  0  0
  1 34  1  0  0  0  0
  2  3  1  0  0  0  0
  3  1  2  0  0  0  0
  4 10  1  0  0  0  0
  5 10  2  0  0  0  0
  5  3  1  0  0  0  0
  6  8  1  6  0  0  0
  6  5  1  0  0  0  0
  7  9  1  0  0  0  0
  7  6  1  0  0  0  0
  8  7  2  0  0  0  0
  9  4  2  0  0  0  0
 13 15  1  0  0  0  0
 13 14  1  0  0  0  0
 14 11  1  1  0  0  0
 14 12  1  0  0  0  0
 15  4  1  6  0  0  0
 15 12  1  0  0  0  0
 17 21  1  6  0  0  0
 17 22  1  0  0  0  0
 17 19  1  0  0  0  0
 18 16  1  0  0  0  0
 19  2  1  6  0  0  0
 19 20  1  0  0  0  0
 20 16  1  0  0  0  0
 22 23  1  1  0  0  0
 22 18  1  0  0  0  0
 24 23  1  6  0  0  0
 24 26  1  0  0  0  0
 24 29  1  0  0  0  0
 25 26  2  0  0  0  0
 26 28  1  0  0  0  0
 27 26  1  0  0  0  0
 29 30  1  0  0  0  0
 30 32  1  0  0  0  0
 32 31  1  0  0  0  0
 32 33  1  6  0  0  0
 34 37  1  1  0  0  0
 35 34  1  0  0  0  0
 36 35  1  0  0  0  0
 37 38  1  0  0  0  0
 38 44  1  0  0  0  0
 39 40  1  0  0  0  0
 41 48  1  0  0  0  0
 42 47  1  6  0  0  0
 42 43  1  0  0  0  0
 42 41  1  0  0  0  0
 43 45  1  6  0  0  0
 43 39  1  0  0  0  0
 44 46  1  0  0  0  0
 44 47  1  0  0  0  0
 46 45  1  0  0  0  0
 48 50  1  1  0  0  0
 48 40  1  0  0  0  0
 50 49  1  0  0  0  0
M  END
>  <MODEL>
7

>  <REMARK>
 VINA RESULT:      -7.3      2.754      7.673
  Name = 
  15 active torsions:
  status: ('A' for Active; 'I' for Inactive)
    1  A    between atoms: C_1  and  C_49
    2  A    between atoms: N_4  and  C_33
    3  A    between atoms: C_6  and  C_35
    4  A    between atoms: C_7  and  N_24
    5  A    between atoms: C_7  and  C_42
    6  A    between atoms: C_10  and  C_16
    7  A    between atoms: C_10  and  C_44
    8  A    between atoms: O_15  and  C_33
    9  A    between atoms: C_16  and  P_23
   10  A    between atoms: C_16  and  N_50
   11  A    between atoms: C_21  and  N_27
   12  A    between atoms: C_33  and  C_42
   13  A    between atoms: C_34  and  C_48
   14  A    between atoms: C_36  and  C_38
   15  A    between atoms: C_38  and  N_50
                            x       y       z     vdW  Elec       q    Type
                         _______ _______ _______ _____ _____    ______ ____

>  <TORSDO>
F 15

$$$$
=
 OpenBabel10222419103D

 50 55  0  0  1  0  0  0  0  0999 V2000
  183.8700  178.4800  139.9890 N   0  0  0  0  0  0  0  0  0  0  0  0
  183.8320  177.9620  137.6960 N   0  0  0  0  0  2  0  0  0  0  0  0
  183.2010  178.4910  138.8690 C   0  0  0  0  0  0  0  0  0  0  0  0
  180.3870  181.0250  138.4640 C   0  0  0  0  0  0  0  0  0  0  0  0
  181.8230  179.0370  138.7190 C   0  0  0  0  0  0  0  0  0  0  0  0
  180.5890  178.1110  138.5720 C   0  0  2  0  0  3  0  0  0  0  0  0
  179.6680  179.0230  138.9270 C   0  0  0  0  0  0  0  0  0  0  0  0
  179.8270  177.8560  139.6800 N   0  0  0  0  0  0  0  0  0  0  0  0
  179.2900  180.3560  138.7270 N   0  0  0  0  0  0  0  0  0  0  0  0
  181.6970  180.3570  138.5720 N   0  0  0  0  0  0  0  0  0  0  0  0
  180.6520  184.8390  136.2300 C   0  0  0  0  0  1  0  0  0  0  0  0
  179.5660  182.8080  137.0270 N   0  0  0  0  0  2  0  0  0  0  0  0
  181.6080  183.0550  137.6700 C   0  0  0  0  0  2  0  0  0  0  0  0
  180.7870  183.3400  136.4310 C   0  0  2  0  0  3  0  0  0  0  0  0
  180.3150  182.5100  138.2460 C   0  0  2  0  0  3  0  0  0  0  0  0
  187.6330  178.1430  138.0650 C   0  0  0  0  0  2  0  0  0  0  0  0
  185.5420  176.7820  136.3560 C   0  0  1  0  0  3  0  0  0  0  0  0
  187.8760  176.7720  137.4250 C   0  0  0  0  0  2  0  0  0  0  0  0
  185.2110  177.4860  137.6840 C   0  0  1  0  0  3  0  0  0  0  0  0
  186.1840  178.6370  137.9470 C   0  0  0  0  0  2  0  0  0  0  0  0
  185.0120  177.4870  135.2720 O   0  0  0  0  0  1  0  0  0  0  0  0
  187.0540  176.6040  136.1430 C   0  0  1  0  0  3  0  0  0  0  0  0
  187.3820  175.3040  135.4140 C   0  0  0  0  0  2  0  0  0  0  0  0
  187.6860  174.1340  136.3550 C   0  0  2  0  0  3  0  0  0  0  0  0
  189.3760  172.1090  135.6100 O   0  0  0  0  0  1  0  0  0  0  0  0
  189.3920  173.5320  136.1170 P   0  0  0  0  0  0  0  0  0  0  0  0
  190.2280  173.5920  137.5850 O   0  0  0  0  0  1  0  0  0  0  0  0
  190.1730  174.5200  134.9870 O   0  0  0  0  0  0  0  0  0  0  0  0
  186.7080  173.0430  136.2670 N   0  0  0  0  0  2  0  0  0  0  0  0
  185.8280  173.0220  137.4330 C   0  0  0  0  0  2  0  0  0  0  0  0
  183.7610  171.8600  137.2720 O   0  0  0  0  0  1  0  0  0  0  0  0
  184.3740  173.0800  136.9950 C   0  0  2  0  0  3  0  0  0  0  0  0
  184.2820  173.3590  135.5040 C   0  0  0  0  0  1  0  0  0  0  0  0
  183.4550  178.9870  141.2890 C   0  0  1  0  0  3  0  0  0  0  0  0
  182.4090  178.2030  141.7880 O   0  0  0  0  0  0  0  0  0  0  0  0
  181.7700  179.0100  142.7290 C   0  0  0  0  0  1  0  0  0  0  0  0
  184.6390  178.9820  142.2560 C   0  0  0  0  0  2  0  0  0  0  0  0
  185.9920  178.9680  141.5450 C   0  0  0  0  0  2  0  0  0  0  0  0
  189.7710  177.9990  144.4400 C   0  0  0  0  0  2  0  0  0  0  0  0
  189.5070  177.8840  145.9300 C   0  0  0  0  0  2  0  0  0  0  0  0
  187.4040  176.7380  145.5460 O   0  0  0  0  0  0  0  0  0  0  0  0
  187.5490  176.8140  144.1390 C   0  0  2  0  0  3  0  0  0  0  0  0
  189.0290  176.8920  143.6950 C   0  0  1  0  0  3  0  0  0  0  0  0
  186.8220  177.8950  142.0630 N   0  0  0  0  0  0  0  0  0  0  0  0
  189.1380  177.1020  142.1820 C   0  0  0  0  0  2  0  0  0  0  0  0
  188.2070  178.2280  141.7250 C   0  0  0  0  0  2  0  0  0  0  0  0
  186.6920  177.9260  143.5180 C   0  0  0  0  0  2  0  0  0  0  0  0
  187.9950  177.8720  146.1510 C   0  0  1  0  0  3  0  0  0  0  0  0
  188.8420  177.9390  148.3950 O   0  0  0  0  0  1  0  0  0  0  0  0
  187.6710  177.9000  147.6360 C   0  0  0  0  0  2  0  0  0  0  0  0
  1 34  1  0  0  0  0
  2  3  1  0  0  0  0
  3  1  2  0  0  0  0
  4 10  1  0  0  0  0
  4  9  2  0  0  0  0
  5  3  1  0  0  0  0
  6  5  1  1  0  0  0
  6  7  1  0  0  0  0
  6  8  1  0  0  0  0
  7  8  2  0  0  0  0
  9  7  1  0  0  0  0
 10  5  2  0  0  0  0
 12 15  1  0  0  0  0
 13 15  1  0  0  0  0
 14 11  1  1  0  0  0
 14 12  1  0  0  0  0
 14 13  1  0  0  0  0
 15  4  1  6  0  0  0
 17 21  1  6  0  0  0
 17 19  1  0  0  0  0
 18 16  1  0  0  0  0
 19  2  1  6  0  0  0
 19 20  1  0  0  0  0
 20 16  1  0  0  0  0
 22 23  1  1  0  0  0
 22 17  1  0  0  0  0
 22 18  1  0  0  0  0
 24 23  1  6  0  0  0
 25 26  1  0  0  0  0
 26 24  1  0  0  0  0
 26 27  1  0  0  0  0
 28 26  2  0  0  0  0
 29 24  1  0  0  0  0
 29 30  1  0  0  0  0
 32 33  1  6  0  0  0
 32 31  1  0  0  0  0
 32 30  1  0  0  0  0
 34 35  1  0  0  0  0
 34 37  1  1  0  0  0
 35 36  1  0  0  0  0
 38 44  1  0  0  0  0
 38 37  1  0  0  0  0
 39 40  1  0  0  0  0
 40 48  1  0  0  0  0
 41 48  1  0  0  0  0
 42 47  1  1  0  0  0
 42 41  1  0  0  0  0
 43 45  1  6  0  0  0
 43 42  1  0  0  0  0
 43 39  1  0  0  0  0
 44 47  1  0  0  0  0
 46 44  1  0  0  0  0
 46 45  1  0  0  0  0
 48 50  1  1  0  0  0
 50 49  1  0  0  0  0
M  END
>  <MODEL>
8

>  <REMARK>
 VINA RESULT:      -7.3      3.670      9.684
  Name = 
  15 active torsions:
  status: ('A' for Active; 'I' for Inactive)
    1  A    between atoms: C_1  and  C_49
    2  A    between atoms: N_4  and  C_33
    3  A    between atoms: C_6  and  C_35
    4  A    between atoms: C_7  and  N_24
    5  A    between atoms: C_7  and  C_42
    6  A    between atoms: C_10  and  C_16
    7  A    between atoms: C_10  and  C_44
    8  A    between atoms: O_15  and  C_33
    9  A    between atoms: C_16  and  P_23
   10  A    between atoms: C_16  and  N_50
   11  A    between atoms: C_21  and  N_27
   12  A    between atoms: C_33  and  C_42
   13  A    between atoms: C_34  and  C_48
   14  A    between atoms: C_36  and  C_38
   15  A    between atoms: C_38  and  N_50
                            x       y       z     vdW  Elec       q    Type
                         _______ _______ _______ _____ _____    ______ ____

>  <TORSDO>
F 15

$$$$
=
 OpenBabel10222419103D

 50 55  0  0  1  0  0  0  0  0999 V2000
  188.4230  176.3480  137.8180 N   0  0  0  0  0  0  0  0  0  0  0  0
  187.8940  174.5070  136.4550 N   0  0  0  0  0  2  0  0  0  0  0  0
  188.8390  175.4620  136.9550 C   0  0  0  0  0  0  0  0  0  0  0  0
  192.5940  174.8320  136.9750 C   0  0  0  0  0  0  0  0  0  0  0  0
  190.2420  175.3620  136.4640 C   0  0  0  0  0  0  0  0  0  0  0  0
  190.6030  175.5880  134.9730 C   0  0  2  0  0  3  0  0  0  0  0  0
  191.9100  175.8320  135.1670 C   0  0  0  0  0  0  0  0  0  0  0  0
  191.0880  176.8100  134.5960 N   0  0  0  0  0  0  0  0  0  0  0  0
  193.0330  175.3770  135.8650 N   0  0  0  0  0  0  0  0  0  0  0  0
  191.1650  174.9290  137.3230 N   0  0  0  0  0  0  0  0  0  0  0  0
  196.5640  173.9070  138.7050 C   0  0  0  0  0  1  0  0  0  0  0  0
  194.5990  175.2850  138.2760 N   0  0  0  0  0  2  0  0  0  0  0  0
  194.5800  173.3560  137.3160 C   0  0  0  0  0  2  0  0  0  0  0  0
  195.5980  174.4230  137.6530 C   0  0  2  0  0  3  0  0  0  0  0  0
  193.5770  174.2870  137.9710 C   0  0  2  0  0  3  0  0  0  0  0  0
  184.7390  172.9040  137.9000 C   0  0  0  0  0  2  0  0  0  0  0  0
  185.5420  175.0080  135.8810 C   0  0  1  0  0  3  0  0  0  0  0  0
  183.8430  174.1060  137.5810 C   0  0  0  0  0  2  0  0  0  0  0  0
  186.5150  174.4330  136.9250 C   0  0  1  0  0  3  0  0  0  0  0  0
  186.1420  172.9930  137.2830 C   0  0  0  0  0  2  0  0  0  0  0  0
  185.8890  174.5910  134.5940 O   0  0  0  0  0  1  0  0  0  0  0  0
  184.0820  174.6140  136.1560 C   0  0  1  0  0  3  0  0  0  0  0  0
  183.1060  175.7220  135.7670 C   0  0  0  0  0  2  0  0  0  0  0  0
  182.2980  176.2690  136.9490 C   0  0  2  0  0  3  0  0  0  0  0  0
  180.1830  175.2580  138.3670 O   0  0  0  0  0  1  0  0  0  0  0  0
  180.6070  175.5850  136.9540 P   0  0  0  0  0  0  0  0  0  0  0  0
  180.5580  174.1780  136.0170 O   0  0  0  0  0  0  0  0  0  0  0  0
  179.5460  176.7300  136.3020 O   0  0  0  0  0  1  0  0  0  0  0  0
  182.2920  177.7350  137.0230 N   0  0  0  0  0  2  0  0  0  0  0  0
  182.4820  178.1990  138.3950 C   0  0  0  0  0  2  0  0  0  0  0  0
  183.9310  178.0850  140.2760 O   0  0  0  0  0  1  0  0  0  0  0  0
  183.7850  177.6570  138.9580 C   0  0  2  0  0  3  0  0  0  0  0  0
  184.9620  178.1550  138.1370 C   0  0  0  0  0  1  0  0  0  0  0  0
  189.1970  177.3860  138.4840 C   0  0  1  0  0  3  0  0  0  0  0  0
  189.7720  178.2300  137.5280 O   0  0  0  0  0  0  0  0  0  0  0  0
  188.7150  178.9960  137.0390 C   0  0  0  0  0  1  0  0  0  0  0  0
  188.3000  178.1810  139.4330 C   0  0  0  0  0  2  0  0  0  0  0  0
  189.0210  178.6300  140.7030 C   0  0  0  0  0  2  0  0  0  0  0  0
  189.0030  177.8740  145.5020 C   0  0  0  0  0  2  0  0  0  0  0  0
  187.6910  178.0620  146.2400 C   0  0  0  0  0  2  0  0  0  0  0  0
  186.4350  177.0620  144.4230 O   0  0  0  0  0  0  0  0  0  0  0  0
  187.6030  176.8620  143.6450 C   0  0  2  0  0  3  0  0  0  0  0  0
  188.8790  176.7200  144.5090 C   0  0  1  0  0  3  0  0  0  0  0  0
  188.9330  177.6000  141.7230 N   0  0  0  0  0  0  0  0  0  0  0  0
  190.1300  176.6350  143.6320 C   0  0  0  0  0  2  0  0  0  0  0  0
  190.1200  177.7370  142.5690 C   0  0  0  0  0  2  0  0  0  0  0  0
  187.7610  177.9130  142.5370 C   0  0  0  0  0  2  0  0  0  0  0  0
  186.5770  178.2300  145.2070 C   0  0  1  0  0  3  0  0  0  0  0  0
  185.4840  179.1020  147.1580 O   0  0  0  0  0  1  0  0  0  0  0  0
  185.2600  178.5620  145.8910 C   0  0  0  0  0  2  0  0  0  0  0  0
  1 34  1  0  0  0  0
  2  3  1  0  0  0  0
  3  1  2  0  0  0  0
  4 10  1  0  0  0  0
  5  3  1  0  0  0  0
  5 10  2  0  0  0  0
  6  8  1  1  0  0  0
  6  7  1  0  0  0  0
  6  5  1  0  0  0  0
  7  9  1  0  0  0  0
  8  7  2  0  0  0  0
  9  4  2  0  0  0  0
 13 14  1  0  0  0  0
 13 15  1  0  0  0  0
 14 12  1  0  0  0  0
 14 11  1  1  0  0  0
 15  4  1  6  0  0  0
 15 12  1  0  0  0  0
 17 21  1  6  0  0  0
 17 22  1  0  0  0  0
 17 19  1  0  0  0  0
 18 16  1  0  0  0  0
 19  2  1  6  0  0  0
 19 20  1  0  0  0  0
 20 16  1  0  0  0  0
 22 23  1  1  0  0  0
 22 18  1  0  0  0  0
 24 23  1  6  0  0  0
 24 26  1  0  0  0  0
 24 29  1  0  0  0  0
 26 25  1  0  0  0  0
 27 26  2  0  0  0  0
 28 26  1  0  0  0  0
 29 30  1  0  0  0  0
 30 32  1  0  0  0  0
 32 33  1  6  0  0  0
 32 31  1  0  0  0  0
 34 37  1  1  0  0  0
 35 34  1  0  0  0  0
 36 35  1  0  0  0  0
 37 38  1  0  0  0  0
 38 44  1  0  0  0  0
 39 40  1  0  0  0  0
 41 48  1  0  0  0  0
 42 47  1  6  0  0  0
 42 41  1  0  0  0  0
 42 43  1  0  0  0  0
 43 45  1  6  0  0  0
 43 39  1  0  0  0  0
 44 47  1  0  0  0  0
 44 46  1  0  0  0  0
 46 45  1  0  0  0  0
 48 50  1  1  0  0  0
 48 40  1  0  0  0  0
 50 49  1  0  0  0  0
M  END
>  <MODEL>
9

>  <REMARK>
 VINA RESULT:      -7.2      3.213      7.889
  Name = 
  15 active torsions:
  status: ('A' for Active; 'I' for Inactive)
    1  A    between atoms: C_1  and  C_49
    2  A    between atoms: N_4  and  C_33
    3  A    between atoms: C_6  and  C_35
    4  A    between atoms: C_7  and  N_24
    5  A    between atoms: C_7  and  C_42
    6  A    between atoms: C_10  and  C_16
    7  A    between atoms: C_10  and  C_44
    8  A    between atoms: O_15  and  C_33
    9  A    between atoms: C_16  and  P_23
   10  A    between atoms: C_16  and  N_50
   11  A    between atoms: C_21  and  N_27
   12  A    between atoms: C_33  and  C_42
   13  A    between atoms: C_34  and  C_48
   14  A    between atoms: C_36  and  C_38
   15  A    between atoms: C_38  and  N_50
                            x       y       z     vdW  Elec       q    Type
                         _______ _______ _______ _____ _____    ______ ____

>  <TORSDO>
F 15

$$$$
