=
 OpenBabel10222418133D

 45 51  0  0  1  0  0  0  0  0999 V2000
  190.2050  176.8140  136.8540 C   0  0  2  0  0  3  0  0  0  0  0  0
  188.6210  176.4740  138.5430 C   0  0  0  0  0  2  0  0  0  0  0  0
  188.4550  173.2590  135.5250 O   0  0  0  0  0  1  0  0  0  0  0  0
  191.0460  175.5430  136.5690 C   0  0  1  0  0  0  0  0  0  0  0  0
  191.4170  174.8160  137.8640 C   0  0  0  0  0  1  0  0  0  0  0  0
  190.7060  177.5020  137.9820 O   0  0  0  0  0  0  0  0  0  0  0  0
  190.2540  174.5910  135.6750 C   0  0  0  0  0  2  0  0  0  0  0  0
  188.0290  177.7460  136.6510 O   0  0  0  0  0  1  0  0  0  0  0  0
  188.1200  175.3820  136.2840 C   0  0  1  0  0  3  0  0  0  0  0  0
  188.7070  176.5920  137.0540 C   0  0  1  0  0  0  0  0  0  0  0  0
  189.7350  177.3940  139.0040 C   0  0  2  0  0  3  0  0  0  0  0  0
  189.0040  174.2120  136.3180 N   0  0  0  0  0  0  0  0  0  0  0  0
  186.5370  174.0210  137.4700 O   0  0  0  0  0  0  0  0  0  0  0  0
  186.7320  175.0460  136.7580 C   0  0  0  0  0  0  0  0  0  0  0  0
  185.6490  175.9280  136.4360 N   0  0  0  0  0  2  0  0  0  0  0  0
  182.3440  176.9380  136.3110 C   0  0  0  0  0  0  0  0  0  0  0  0
  183.9930  176.9350  137.9940 C   0  0  0  0  0  2  0  0  0  0  0  0
  182.2550  178.7440  137.5700 N   0  0  0  0  0  0  0  0  0  0  0  0
  181.5660  177.8660  135.6530 C   0  0  0  0  0  3  0  0  0  0  0  0
  182.7420  177.4990  137.4590 C   0  0  0  0  0  0  0  0  0  0  0  0
  183.2450  175.8720  135.8360 C   0  0  0  0  0  2  0  0  0  0  0  0
  180.7880  180.1600  136.2070 C   0  0  0  0  0  1  0  0  0  0  0  0
  181.4870  178.9220  136.4970 N   0  0  0  0  0  0  0  0  0  0  0  0
  184.2950  175.8090  136.9740 C   0  0  1  0  0  3  0  0  0  0  0  0
  190.3670  176.8940  140.3060 C   0  0  1  0  0  3  0  0  0  0  0  0
  191.7560  177.4800  140.5130 C   0  0  0  0  0  1  0  0  0  0  0  0
  189.5130  177.1460  141.4720 N   0  0  0  0  0  0  0  0  0  0  0  0
  189.7360  176.7800  142.7040 C   0  0  0  0  0  0  0  0  0  0  0  0
  186.7320  177.8000  142.5060 N   0  0  0  0  0  2  0  0  0  0  0  0
  188.7630  177.1570  143.7460 C   0  0  0  0  0  0  0  0  0  0  0  0
  187.5130  177.5780  143.5450 N   0  0  0  0  0  0  0  0  0  0  0  0
  185.6550  178.2420  144.4390 C   0  0  0  0  0  0  0  0  0  0  0  0
  185.5470  178.2220  143.0380 C   0  0  0  0  0  3  0  0  0  0  0  0
  186.9340  177.8200  144.6810 C   0  0  0  0  0  0  0  0  0  0  0  0
  187.7720  177.5750  145.7510 C   0  0  0  0  0  3  0  0  0  0  0  0
  188.9690  177.1430  145.1330 C   0  0  0  0  0  3  0  0  0  0  0  0
  184.1910  178.6500  146.6640 N   0  0  0  0  0  0  0  0  0  0  0  0
  183.4340  179.2020  145.6850 O   0  0  0  0  0  0  0  0  0  0  0  0
  184.6310  178.6210  145.4080 C   0  0  0  0  0  0  0  0  0  0  0  0
  190.9220  176.0390  143.0710 C   0  0  0  0  0  0  0  0  0  0  0  0
  191.8700  175.4450  143.3620 N   0  0  0  0  0  0  0  0  0  0  0  0
  192.3230  175.9930  135.8480 C   0  0  0  0  0  2  0  0  0  0  0  0
  193.5610  175.8970  136.6850 C   0  0  0  0  0  0  0  0  0  0  0  0
  193.8780  176.9110  137.5760 O   0  0  0  0  0  1  0  0  0  0  0  0
  194.3050  174.8870  136.5940 O   0  0  0  0  0  0  0  0  0  0  0  0
  1 10  1  0  0  0  0
  1  6  1  1  0  0  0
  2 11  1  0  0  0  0
  3 12  1  0  0  0  0
  4  1  1  0  0  0  0
  4  5  1  1  0  0  0
  6 11  1  0  0  0  0
  7 12  1  0  0  0  0
  7  4  1  0  0  0  0
  9 12  1  0  0  0  0
  9 14  1  1  0  0  0
  9 10  1  0  0  0  0
 10  8  1  6  0  0  0
 10  2  1  0  0  0  0
 11 25  1  1  0  0  0
 14 13  2  0  0  0  0
 15 14  1  0  0  0  0
 16 20  1  0  0  0  0
 19 16  2  0  0  0  0
 19 23  1  0  0  0  0
 20 18  2  0  0  0  0
 20 17  1  0  0  0  0
 21 16  1  0  0  0  0
 21 24  1  0  0  0  0
 22 23  1  0  0  0  0
 23 18  1  0  0  0  0
 24 15  1  6  0  0  0
 24 17  1  0  0  0  0
 25 26  1  1  0  0  0
 25 27  1  0  0  0  0
 27 28  2  0  0  0  0
 28 40  1  0  0  0  0
 28 30  1  0  0  0  0
 29 33  1  0  0  0  0
 29 31  1  0  0  0  0
 30 36  2  0  0  0  0
 31 30  1  0  0  0  0
 31 34  1  0  0  0  0
 32 34  1  0  0  0  0
 32 39  1  0  0  0  0
 33 32  2  0  0  0  0
 34 35  2  0  0  0  0
 36 35  1  0  0  0  0
 38 37  1  0  0  0  0
 39 38  1  0  0  0  0
 39 37  2  0  0  0  0
 40 41  3  0  0  0  0
 42  4  1  0  0  0  0
 42 43  1  0  0  0  0
 43 44  1  0  0  0  0
 45 43  2  0  0  0  0
M  END
>  <MODEL>
1

>  <REMARK>
 VINA RESULT:      -8.2      0.000      0.000
  Name = 
  9 active torsions:
  status: ('A' for Active; 'I' for Inactive)
    1  A    between atoms: C_6  and  C_37
    2  A    between atoms: C_8  and  C_37
    3  A    between atoms: C_9  and  C_44
    4  A    between atoms: C_13  and  C_41
    5  A    between atoms: C_16  and  C_44
    6  A    between atoms: C_26  and  C_27
    7  A    between atoms: N_28  and  C_42
    8  A    between atoms: N_31  and  C_38
    9  A    between atoms: C_38  and  C_39
                            x       y       z     vdW  Elec       q    Type
                         _______ _______ _______ _____ _____    ______ ____

>  <TORSDO>
F 9

$$$$
=
 OpenBabel10222418133D

 45 51  0  0  1  0  0  0  0  0999 V2000
  186.2800  176.1740  135.5170 C   0  0  2  0  0  3  0  0  0  0  0  0
  185.7940  177.6100  137.3000 C   0  0  0  0  0  2  0  0  0  0  0  0
  183.7260  173.7380  137.7560 O   0  0  0  0  0  1  0  0  0  0  0  0
  186.7050  174.7610  135.9950 C   0  0  1  0  0  0  0  0  0  0  0  0
  187.6210  174.8380  137.2190 C   0  0  0  0  0  1  0  0  0  0  0  0
  187.3690  177.0720  135.5830 O   0  0  0  0  0  0  0  0  0  0  0  0
  185.4660  173.9440  136.3530 C   0  0  0  0  0  2  0  0  0  0  0  0
  184.4360  177.6650  135.3770 O   0  0  0  0  0  1  0  0  0  0  0  0
  184.0680  175.7850  136.8120 C   0  0  1  0  0  3  0  0  0  0  0  0
  185.0970  176.8000  136.2530 C   0  0  1  0  0  0  0  0  0  0  0  0
  187.0740  178.0140  136.5950 C   0  0  2  0  0  3  0  0  0  0  0  0
  184.7070  174.6060  137.4060 N   0  0  0  0  0  0  0  0  0  0  0  0
  183.0730  176.0760  138.9770 O   0  0  0  0  0  0  0  0  0  0  0  0
  183.1090  176.4410  137.7690 C   0  0  0  0  0  0  0  0  0  0  0  0
  182.2810  177.5140  137.3050 N   0  0  0  0  0  2  0  0  0  0  0  0
  180.4420  180.4170  137.6930 C   0  0  0  0  0  0  0  0  0  0  0  0
  182.2600  179.4620  138.8500 C   0  0  0  0  0  2  0  0  0  0  0  0
  181.9040  181.9310  138.3460 N   0  0  0  0  0  0  0  0  0  0  0  0
  180.1770  181.5790  137.0000 C   0  0  0  0  0  3  0  0  0  0  0  0
  181.4860  180.6640  138.4930 C   0  0  0  0  0  0  0  0  0  0  0  0
  180.2910  178.9920  137.3500 C   0  0  0  0  0  2  0  0  0  0  0  0
  181.1630  183.8600  137.0260 C   0  0  0  0  0  1  0  0  0  0  0  0
  181.0530  182.4890  137.4890 N   0  0  0  0  0  0  0  0  0  0  0  0
  181.4380  178.3410  138.1650 C   0  0  1  0  0  3  0  0  0  0  0  0
  188.2390  178.1350  137.5830 C   0  0  1  0  0  3  0  0  0  0  0  0
  189.0680  179.3840  137.3170 C   0  0  0  0  0  1  0  0  0  0  0  0
  187.7910  178.0910  138.9790 N   0  0  0  0  0  0  0  0  0  0  0  0
  188.5040  177.7750  140.0250 C   0  0  0  0  0  0  0  0  0  0  0  0
  185.7900  179.0930  141.0230 N   0  0  0  0  0  2  0  0  0  0  0  0
  187.8740  177.8180  141.3560 C   0  0  0  0  0  0  0  0  0  0  0  0
  186.7170  178.4090  141.6650 N   0  0  0  0  0  0  0  0  0  0  0  0
  185.2650  178.8620  143.2060 C   0  0  0  0  0  0  0  0  0  0  0  0
  184.8550  179.3940  141.9720 C   0  0  0  0  0  3  0  0  0  0  0  0
  186.4570  178.2520  142.9270 C   0  0  0  0  0  0  0  0  0  0  0  0
  187.4420  177.5290  143.5710 C   0  0  0  0  0  3  0  0  0  0  0  0
  188.3680  177.2490  142.5390 C   0  0  0  0  0  3  0  0  0  0  0  0
  183.4320  178.9970  145.1760 N   0  0  0  0  0  0  0  0  0  0  0  0
  184.6110  179.0090  145.8440 O   0  0  0  0  0  0  0  0  0  0  0  0
  184.5690  178.9410  144.4880 C   0  0  0  0  0  0  0  0  0  0  0  0
  189.8990  177.4100  139.9080 C   0  0  0  0  0  0  0  0  0  0  0  0
  191.0140  177.1220  139.8140 N   0  0  0  0  0  0  0  0  0  0  0  0
  187.4530  174.0930  134.8350 C   0  0  0  0  0  2  0  0  0  0  0  0
  188.4840  173.0970  135.2670 C   0  0  0  0  0  0  0  0  0  0  0  0
  188.0950  171.8520  135.7380 O   0  0  0  0  0  1  0  0  0  0  0  0
  189.7070  173.3820  135.1860 O   0  0  0  0  0  0  0  0  0  0  0  0
  1  6  1  1  0  0  0
  1  4  1  0  0  0  0
  1 10  1  0  0  0  0
  4  7  1  0  0  0  0
  4  5  1  1  0  0  0
  6 11  1  0  0  0  0
  7 12  1  0  0  0  0
  9 12  1  0  0  0  0
  9 14  1  1  0  0  0
 10  8  1  6  0  0  0
 10  9  1  0  0  0  0
 10  2  1  0  0  0  0
 11  2  1  0  0  0  0
 11 25  1  1  0  0  0
 12  3  1  0  0  0  0
 14 13  2  0  0  0  0
 15 14  1  0  0  0  0
 16 20  1  0  0  0  0
 18 20  2  0  0  0  0
 19 23  1  0  0  0  0
 19 16  2  0  0  0  0
 20 17  1  0  0  0  0
 21 16  1  0  0  0  0
 21 24  1  0  0  0  0
 22 23  1  0  0  0  0
 23 18  1  0  0  0  0
 24 15  1  6  0  0  0
 24 17  1  0  0  0  0
 25 26  1  6  0  0  0
 25 27  1  0  0  0  0
 27 28  2  0  0  0  0
 28 30  1  0  0  0  0
 29 31  1  0  0  0  0
 29 33  1  0  0  0  0
 30 31  1  0  0  0  0
 30 36  2  0  0  0  0
 31 34  1  0  0  0  0
 32 39  1  0  0  0  0
 33 32  2  0  0  0  0
 34 32  1  0  0  0  0
 34 35  2  0  0  0  0
 36 35  1  0  0  0  0
 37 38  1  0  0  0  0
 39 37  2  0  0  0  0
 39 38  1  0  0  0  0
 40 28  1  0  0  0  0
 41 40  3  0  0  0  0
 42 43  1  0  0  0  0
 42  4  1  0  0  0  0
 43 44  1  0  0  0  0
 45 43  2  0  0  0  0
M  END
>  <MODEL>
2

>  <REMARK>
 VINA RESULT:      -8.1      2.549      3.860
  Name = 
  9 active torsions:
  status: ('A' for Active; 'I' for Inactive)
    1  A    between atoms: C_6  and  C_37
    2  A    between atoms: C_8  and  C_37
    3  A    between atoms: C_9  and  C_44
    4  A    between atoms: C_13  and  C_41
    5  A    between atoms: C_16  and  C_44
    6  A    between atoms: C_26  and  C_27
    7  A    between atoms: N_28  and  C_42
    8  A    between atoms: N_31  and  C_38
    9  A    between atoms: C_38  and  C_39
                            x       y       z     vdW  Elec       q    Type
                         _______ _______ _______ _____ _____    ______ ____

>  <TORSDO>
F 9

$$$$
=
 OpenBabel10222418133D

 45 51  0  0  1  0  0  0  0  0999 V2000
  186.7730  176.0850  135.4070 C   0  0  2  0  0  3  0  0  0  0  0  0
  185.8100  177.4160  137.0740 C   0  0  0  0  0  2  0  0  0  0  0  0
  184.1490  173.3280  137.1330 O   0  0  0  0  0  1  0  0  0  0  0  0
  187.2620  174.7180  135.9520 C   0  0  1  0  0  0  0  0  0  0  0  0
  187.9250  174.8680  137.3240 C   0  0  0  0  0  1  0  0  0  0  0  0
  187.7220  177.0970  135.6740 O   0  0  0  0  0  0  0  0  0  0  0  0
  186.0800  173.7590  136.0750 C   0  0  0  0  0  2  0  0  0  0  0  0
  184.8280  177.3640  134.9340 O   0  0  0  0  0  1  0  0  0  0  0  0
  184.4210  175.4220  136.2730 C   0  0  1  0  0  3  0  0  0  0  0  0
  185.4120  176.5580  135.9150 C   0  0  1  0  0  0  0  0  0  0  0  0
  187.1430  177.9770  136.6170 C   0  0  2  0  0  3  0  0  0  0  0  0
  185.0720  174.3080  136.9710 N   0  0  0  0  0  0  0  0  0  0  0  0
  183.3200  176.1320  138.2850 O   0  0  0  0  0  0  0  0  0  0  0  0
  183.2360  175.9440  137.0390 C   0  0  0  0  0  0  0  0  0  0  0  0
  182.0340  176.2730  136.3310 N   0  0  0  0  0  2  0  0  0  0  0  0
  180.8250  178.5020  138.6820 C   0  0  0  0  0  0  0  0  0  0  0  0
  180.4180  176.2270  138.2200 C   0  0  0  0  0  2  0  0  0  0  0  0
  180.5740  177.3100  140.5180 N   0  0  0  0  0  0  0  0  0  0  0  0
  181.2940  179.2570  139.7360 C   0  0  0  0  0  3  0  0  0  0  0  0
  180.3990  177.3380  139.1880 C   0  0  0  0  0  0  0  0  0  0  0  0
  181.2120  178.4180  137.2630 C   0  0  0  0  0  2  0  0  0  0  0  0
  181.4130  178.8930  142.1920 C   0  0  0  0  0  1  0  0  0  0  0  0
  181.0520  178.5090  140.8390 N   0  0  0  0  0  0  0  0  0  0  0  0
  180.8790  176.9420  136.9250 C   0  0  1  0  0  3  0  0  0  0  0  0
  188.0860  178.2040  137.8030 C   0  0  1  0  0  3  0  0  0  0  0  0
  189.0630  179.3380  137.5280 C   0  0  0  0  0  1  0  0  0  0  0  0
  187.3600  178.4310  139.0570 N   0  0  0  0  0  0  0  0  0  0  0  0
  187.7370  178.0870  140.2580 C   0  0  0  0  0  0  0  0  0  0  0  0
  187.9820  177.4160  143.3550 N   0  0  0  0  0  2  0  0  0  0  0  0
  186.8730  178.4320  141.4010 C   0  0  0  0  0  0  0  0  0  0  0  0
  187.0760  178.0920  142.6760 N   0  0  0  0  0  0  0  0  0  0  0  0
  186.3660  178.2020  144.7190 C   0  0  0  0  0  0  0  0  0  0  0  0
  187.5620  177.4670  144.6530 C   0  0  0  0  0  3  0  0  0  0  0  0
  186.1240  178.5630  143.4210 C   0  0  0  0  0  0  0  0  0  0  0  0
  185.1930  179.2700  142.6860 C   0  0  0  0  0  3  0  0  0  0  0  0
  185.6880  179.1790  141.3630 C   0  0  0  0  0  3  0  0  0  0  0  0
  184.4220  178.4310  146.5710 N   0  0  0  0  0  0  0  0  0  0  0  0
  185.4670  179.0870  147.1310 O   0  0  0  0  0  0  0  0  0  0  0  0
  185.5720  178.5110  145.9050 C   0  0  0  0  0  0  0  0  0  0  0  0
  188.9890  177.4030  140.4910 C   0  0  0  0  0  0  0  0  0  0  0  0
  189.9900  176.8560  140.6810 N   0  0  0  0  0  0  0  0  0  0  0  0
  188.2800  174.1640  134.9470 C   0  0  0  0  0  2  0  0  0  0  0  0
  189.6950  174.1870  135.4370 C   0  0  0  0  0  0  0  0  0  0  0  0
  190.2180  173.0900  136.1050 O   0  0  0  0  0  1  0  0  0  0  0  0
  190.4180  175.1950  135.2240 O   0  0  0  0  0  0  0  0  0  0  0  0
  1  6  1  1  0  0  0
  1 10  1  0  0  0  0
  1  4  1  0  0  0  0
  4  7  1  0  0  0  0
  4  5  1  1  0  0  0
  6 11  1  0  0  0  0
  7 12  1  0  0  0  0
  9 12  1  0  0  0  0
  9 14  1  1  0  0  0
 10  8  1  6  0  0  0
 10  9  1  0  0  0  0
 10  2  1  0  0  0  0
 11  2  1  0  0  0  0
 11 25  1  1  0  0  0
 12  3  1  0  0  0  0
 14 13  2  0  0  0  0
 15 14  1  0  0  0  0
 16 20  1  0  0  0  0
 16 19  2  0  0  0  0
 17 20  1  0  0  0  0
 18 23  1  0  0  0  0
 19 23  1  0  0  0  0
 20 18  2  0  0  0  0
 21 16  1  0  0  0  0
 23 22  1  0  0  0  0
 24 15  1  1  0  0  0
 24 21  1  0  0  0  0
 24 17  1  0  0  0  0
 25 26  1  6  0  0  0
 25 27  1  0  0  0  0
 27 28  2  0  0  0  0
 28 40  1  0  0  0  0
 28 30  1  0  0  0  0
 29 33  1  0  0  0  0
 30 31  1  0  0  0  0
 31 29  1  0  0  0  0
 31 34  1  0  0  0  0
 32 39  1  0  0  0  0
 33 32  2  0  0  0  0
 34 32  1  0  0  0  0
 35 34  2  0  0  0  0
 36 30  2  0  0  0  0
 36 35  1  0  0  0  0
 37 38  1  0  0  0  0
 39 37  2  0  0  0  0
 39 38  1  0  0  0  0
 40 41  3  0  0  0  0
 42 43  1  0  0  0  0
 42  4  1  0  0  0  0
 43 44  1  0  0  0  0
 45 43  2  0  0  0  0
M  END
>  <MODEL>
3

>  <REMARK>
 VINA RESULT:      -7.9      2.282      3.691
  Name = 
  9 active torsions:
  status: ('A' for Active; 'I' for Inactive)
    1  A    between atoms: C_6  and  C_37
    2  A    between atoms: C_8  and  C_37
    3  A    between atoms: C_9  and  C_44
    4  A    between atoms: C_13  and  C_41
    5  A    between atoms: C_16  and  C_44
    6  A    between atoms: C_26  and  C_27
    7  A    between atoms: N_28  and  C_42
    8  A    between atoms: N_31  and  C_38
    9  A    between atoms: C_38  and  C_39
                            x       y       z     vdW  Elec       q    Type
                         _______ _______ _______ _____ _____    ______ ____

>  <TORSDO>
F 9

$$$$
=
 OpenBabel10222418133D

 45 51  0  0  1  0  0  0  0  0999 V2000
  190.4800  176.8280  136.5910 C   0  0  2  0  0  3  0  0  0  0  0  0
  188.6830  176.8550  138.0900 C   0  0  0  0  0  2  0  0  0  0  0  0
  188.1910  173.6840  135.0600 O   0  0  0  0  0  1  0  0  0  0  0  0
  191.0670  175.4060  136.3970 C   0  0  1  0  0  0  0  0  0  0  0  0
  191.1330  174.6430  137.7220 C   0  0  0  0  0  1  0  0  0  0  0  0
  190.9850  177.4200  137.7710 O   0  0  0  0  0  0  0  0  0  0  0  0
  190.1990  174.6200  135.4160 C   0  0  0  0  0  2  0  0  0  0  0  0
  188.5800  178.1840  136.1490 O   0  0  0  0  0  1  0  0  0  0  0  0
  188.2200  175.8460  135.7850 C   0  0  1  0  0  3  0  0  0  0  0  0
  188.9560  176.9230  136.6210 C   0  0  1  0  0  0  0  0  0  0  0  0
  189.9050  177.5340  138.6770 C   0  0  2  0  0  3  0  0  0  0  0  0
  188.8340  174.5190  135.9130 N   0  0  0  0  0  0  0  0  0  0  0  0
  186.0070  176.7750  135.7580 O   0  0  0  0  0  0  0  0  0  0  0  0
  186.7490  175.8120  136.0980 C   0  0  0  0  0  0  0  0  0  0  0  0
  186.1960  174.6540  136.7370 N   0  0  0  0  0  2  0  0  0  0  0  0
  183.5940  172.3880  136.9680 C   0  0  0  0  0  0  0  0  0  0  0  0
  184.0260  174.2510  135.5910 C   0  0  0  0  0  2  0  0  0  0  0  0
  182.9420  172.0580  134.8890 N   0  0  0  0  0  0  0  0  0  0  0  0
  183.3770  171.0360  136.8090 C   0  0  0  0  0  3  0  0  0  0  0  0
  183.3230  172.9720  135.7950 C   0  0  0  0  0  0  0  0  0  0  0  0
  184.5320  173.1580  137.8040 C   0  0  0  0  0  2  0  0  0  0  0  0
  182.5790  169.6330  134.9190 C   0  0  0  0  0  1  0  0  0  0  0  0
  182.9140  170.9000  135.5440 N   0  0  0  0  0  0  0  0  0  0  0  0
  184.7670  174.4240  136.9410 C   0  0  1  0  0  3  0  0  0  0  0  0
  190.2720  176.9390  140.0400 C   0  0  1  0  0  3  0  0  0  0  0  0
  191.6330  177.4290  140.5140 C   0  0  0  0  0  1  0  0  0  0  0  0
  189.2420  177.1940  141.0540 N   0  0  0  0  0  0  0  0  0  0  0  0
  189.2550  176.8120  142.3010 C   0  0  0  0  0  0  0  0  0  0  0  0
  186.5030  178.2710  141.6670 N   0  0  0  0  0  2  0  0  0  0  0  0
  188.1300  177.1940  143.1740 C   0  0  0  0  0  0  0  0  0  0  0  0
  187.0090  177.8120  142.7950 N   0  0  0  0  0  0  0  0  0  0  0  0
  185.0920  178.6220  143.3920 C   0  0  0  0  0  0  0  0  0  0  0  0
  185.2880  178.7900  142.0110 C   0  0  0  0  0  3  0  0  0  0  0  0
  186.2310  177.9930  143.8170 C   0  0  0  0  0  0  0  0  0  0  0  0
  186.7840  177.5000  144.9820 C   0  0  0  0  0  3  0  0  0  0  0  0
  188.0280  176.9790  144.5560 C   0  0  0  0  0  3  0  0  0  0  0  0
  182.6820  179.4750  144.2450 N   0  0  0  0  0  0  0  0  0  0  0  0
  183.3450  179.2060  145.3960 O   0  0  0  0  0  0  0  0  0  0  0  0
  183.9330  179.0230  144.1850 C   0  0  0  0  0  0  0  0  0  0  0  0
  190.3540  176.0480  142.8480 C   0  0  0  0  0  0  0  0  0  0  0  0
  191.2340  175.4400  143.2870 N   0  0  0  0  0  0  0  0  0  0  0  0
  192.4810  175.5700  135.8260 C   0  0  0  0  0  2  0  0  0  0  0  0
  193.5450  175.7220  136.8680 C   0  0  0  0  0  0  0  0  0  0  0  0
  193.9130  174.6370  137.6510 O   0  0  0  0  0  1  0  0  0  0  0  0
  194.1220  176.8300  137.0220 O   0  0  0  0  0  0  0  0  0  0  0  0
  1 10  1  0  0  0  0
  1  6  1  1  0  0  0
  2 11  1  0  0  0  0
  3 12  1  0  0  0  0
  4  1  1  0  0  0  0
  4  5  1  1  0  0  0
  6 11  1  0  0  0  0
  7 12  1  0  0  0  0
  7  4  1  0  0  0  0
  9 12  1  0  0  0  0
  9 14  1  1  0  0  0
  9 10  1  0  0  0  0
 10  8  1  6  0  0  0
 10  2  1  0  0  0  0
 11 25  1  1  0  0  0
 13 14  2  0  0  0  0
 14 15  1  0  0  0  0
 16 21  1  0  0  0  0
 17 20  1  0  0  0  0
 17 24  1  0  0  0  0
 18 23  1  0  0  0  0
 18 20  2  0  0  0  0
 19 16  2  0  0  0  0
 20 16  1  0  0  0  0
 22 23  1  0  0  0  0
 23 19  1  0  0  0  0
 24 15  1  6  0  0  0
 24 21  1  0  0  0  0
 25 26  1  1  0  0  0
 25 27  1  0  0  0  0
 27 28  2  0  0  0  0
 28 40  1  0  0  0  0
 28 30  1  0  0  0  0
 29 33  1  0  0  0  0
 29 31  1  0  0  0  0
 30 36  2  0  0  0  0
 31 30  1  0  0  0  0
 31 34  1  0  0  0  0
 32 34  1  0  0  0  0
 32 39  1  0  0  0  0
 33 32  2  0  0  0  0
 34 35  2  0  0  0  0
 36 35  1  0  0  0  0
 37 38  1  0  0  0  0
 39 37  2  0  0  0  0
 39 38  1  0  0  0  0
 40 41  3  0  0  0  0
 42  4  1  0  0  0  0
 42 43  1  0  0  0  0
 43 45  2  0  0  0  0
 43 44  1  0  0  0  0
M  END
>  <MODEL>
4

>  <REMARK>
 VINA RESULT:      -7.8      2.170      3.018
  Name = 
  9 active torsions:
  status: ('A' for Active; 'I' for Inactive)
    1  A    between atoms: C_6  and  C_37
    2  A    between atoms: C_8  and  C_37
    3  A    between atoms: C_9  and  C_44
    4  A    between atoms: C_13  and  C_41
    5  A    between atoms: C_16  and  C_44
    6  A    between atoms: C_26  and  C_27
    7  A    between atoms: N_28  and  C_42
    8  A    between atoms: N_31  and  C_38
    9  A    between atoms: C_38  and  C_39
                            x       y       z     vdW  Elec       q    Type
                         _______ _______ _______ _____ _____    ______ ____

>  <TORSDO>
F 9

$$$$
=
 OpenBabel10222418133D

 45 51  0  0  1  0  0  0  0  0999 V2000
  184.6940  175.3620  135.2910 C   0  0  2  0  0  3  0  0  0  0  0  0
  185.5700  177.2570  136.3500 C   0  0  0  0  0  2  0  0  0  0  0  0
  182.7160  175.1390  138.9660 O   0  0  0  0  0  1  0  0  0  0  0  0
  184.7680  174.0980  136.1860 C   0  0  1  0  0  0  0  0  0  0  0  0
  186.0910  174.0330  136.9530 C   0  0  0  0  0  1  0  0  0  0  0  0
  185.9360  175.6020  134.6630 O   0  0  0  0  0  0  0  0  0  0  0  0
  183.6140  174.1080  137.1870 C   0  0  0  0  0  2  0  0  0  0  0  0
  183.6190  177.4670  135.0480 O   0  0  0  0  0  1  0  0  0  0  0  0
  183.2940  176.4430  137.1870 C   0  0  1  0  0  3  0  0  0  0  0  0
  184.2520  176.6490  135.9870 C   0  0  1  0  0  0  0  0  0  0  0  0
  186.4620  176.7930  135.2150 C   0  0  2  0  0  3  0  0  0  0  0  0
  183.6760  175.2990  138.0230 N   0  0  0  0  0  0  0  0  0  0  0  0
  182.3530  178.6090  137.6200 O   0  0  0  0  0  0  0  0  0  0  0  0
  183.1450  177.7010  137.9980 C   0  0  0  0  0  0  0  0  0  0  0  0
  183.8700  177.8320  139.2270 N   0  0  0  0  0  2  0  0  0  0  0  0
  184.8100  179.2960  142.2160 C   0  0  0  0  0  0  0  0  0  0  0  0
  182.7690  178.4880  141.3580 C   0  0  0  0  0  2  0  0  0  0  0  0
  183.6060  178.2740  143.7520 N   0  0  0  0  0  0  0  0  0  0  0  0
  185.6370  179.0330  143.2870 C   0  0  0  0  0  3  0  0  0  0  0  0
  183.5960  178.8270  142.5290 C   0  0  0  0  0  0  0  0  0  0  0  0
  185.0500  179.3780  140.7640 C   0  0  0  0  0  2  0  0  0  0  0  0
  185.2850  177.9970  145.5180 C   0  0  0  0  0  1  0  0  0  0  0  0
  184.8350  178.4720  144.2220 N   0  0  0  0  0  0  0  0  0  0  0  0
  183.6870  178.9190  140.1870 C   0  0  1  0  0  3  0  0  0  0  0  0
  187.9030  176.5830  135.6900 C   0  0  1  0  0  3  0  0  0  0  0  0
  188.9020  177.2440  134.7510 C   0  0  0  0  0  1  0  0  0  0  0  0
  188.1050  177.0350  137.0710 N   0  0  0  0  0  0  0  0  0  0  0  0
  188.8810  176.4940  137.9700 C   0  0  0  0  0  0  0  0  0  0  0  0
  191.2930  176.7270  140.0270 N   0  0  0  0  0  2  0  0  0  0  0  0
  188.9690  177.1180  139.3030 C   0  0  0  0  0  0  0  0  0  0  0  0
  190.0480  177.1560  140.0880 N   0  0  0  0  0  0  0  0  0  0  0  0
  190.9030  177.8120  141.9670 C   0  0  0  0  0  0  0  0  0  0  0  0
  191.8620  177.1270  141.2030 C   0  0  0  0  0  3  0  0  0  0  0  0
  189.7770  177.7870  141.1900 C   0  0  0  0  0  0  0  0  0  0  0  0
  188.4690  178.2280  141.2240 C   0  0  0  0  0  3  0  0  0  0  0  0
  187.9440  177.7870  139.9870 C   0  0  0  0  0  3  0  0  0  0  0  0
  190.5770  178.7390  144.4760 N   0  0  0  0  0  0  0  0  0  0  0  0
  191.8630  179.0540  144.1900 O   0  0  0  0  0  0  0  0  0  0  0  0
  191.0760  178.4160  143.2850 C   0  0  0  0  0  0  0  0  0  0  0  0
  189.6720  175.3190  137.6800 C   0  0  0  0  0  0  0  0  0  0  0  0
  190.3060  174.3810  137.4470 N   0  0  0  0  0  0  0  0  0  0  0  0
  184.6470  172.8790  135.2640 C   0  0  0  0  0  2  0  0  0  0  0  0
  183.5920  171.9010  135.6820 C   0  0  0  0  0  0  0  0  0  0  0  0
  182.3870  171.8430  134.9970 O   0  0  0  0  0  0  0  0  0  0  0  0
  183.8050  171.1170  136.6430 O   0  0  0  0  0  1  0  0  0  0  0  0
  1  6  1  1  0  0  0
  1 10  1  0  0  0  0
  1  4  1  0  0  0  0
  4  5  1  1  0  0  0
  4  7  1  0  0  0  0
  6 11  1  0  0  0  0
  7 12  1  0  0  0  0
  9 14  1  1  0  0  0
  9 12  1  0  0  0  0
 10  8  1  6  0  0  0
 10  2  1  0  0  0  0
 10  9  1  0  0  0  0
 11 25  1  1  0  0  0
 11  2  1  0  0  0  0
 12  3  1  0  0  0  0
 13 14  2  0  0  0  0
 14 15  1  0  0  0  0
 16 20  1  0  0  0  0
 16 19  2  0  0  0  0
 17 20  1  0  0  0  0
 18 23  1  0  0  0  0
 19 23  1  0  0  0  0
 20 18  2  0  0  0  0
 21 16  1  0  0  0  0
 23 22  1  0  0  0  0
 24 15  1  6  0  0  0
 24 21  1  0  0  0  0
 24 17  1  0  0  0  0
 25 26  1  6  0  0  0
 25 27  1  0  0  0  0
 27 28  2  0  0  0  0
 28 30  1  0  0  0  0
 29 31  1  0  0  0  0
 29 33  1  0  0  0  0
 30 36  2  0  0  0  0
 30 31  1  0  0  0  0
 31 34  1  0  0  0  0
 32 39  1  0  0  0  0
 33 32  2  0  0  0  0
 34 35  2  0  0  0  0
 34 32  1  0  0  0  0
 36 35  1  0  0  0  0
 38 37  1  0  0  0  0
 39 38  1  0  0  0  0
 39 37  2  0  0  0  0
 40 28  1  0  0  0  0
 41 40  3  0  0  0  0
 42 43  1  0  0  0  0
 42  4  1  0  0  0  0
 43 45  1  0  0  0  0
 44 43  2  0  0  0  0
M  END
>  <MODEL>
5

>  <REMARK>
 VINA RESULT:      -7.4      3.146      6.566
  Name = 
  9 active torsions:
  status: ('A' for Active; 'I' for Inactive)
    1  A    between atoms: C_6  and  C_37
    2  A    between atoms: C_8  and  C_37
    3  A    between atoms: C_9  and  C_44
    4  A    between atoms: C_13  and  C_41
    5  A    between atoms: C_16  and  C_44
    6  A    between atoms: C_26  and  C_27
    7  A    between atoms: N_28  and  C_42
    8  A    between atoms: N_31  and  C_38
    9  A    between atoms: C_38  and  C_39
                            x       y       z     vdW  Elec       q    Type
                         _______ _______ _______ _____ _____    ______ ____

>  <TORSDO>
F 9

$$$$
=
 OpenBabel10222418133D

 45 51  0  0  1  0  0  0  0  0999 V2000
  189.8310  178.1130  138.1500 C   0  0  2  0  0  3  0  0  0  0  0  0
  187.5850  177.8500  138.7540 C   0  0  0  0  0  2  0  0  0  0  0  0
  188.8020  174.8320  135.7730 O   0  0  0  0  0  1  0  0  0  0  0  0
  190.6180  176.7780  138.2090 C   0  0  1  0  0  0  0  0  0  0  0  0
  190.2220  175.9500  139.4330 C   0  0  0  0  0  1  0  0  0  0  0  0
  189.7190  178.6840  139.4370 O   0  0  0  0  0  0  0  0  0  0  0  0
  190.3440  175.9620  136.9480 C   0  0  0  0  0  2  0  0  0  0  0  0
  188.1330  179.2740  136.9600 O   0  0  0  0  0  1  0  0  0  0  0  0
  188.2550  176.9360  136.4600 C   0  0  1  0  0  3  0  0  0  0  0  0
  188.4330  178.0370  137.5360 C   0  0  1  0  0  0  0  0  0  0  0  0
  188.3550  178.6240  139.8050 C   0  0  2  0  0  3  0  0  0  0  0  0
  188.9210  175.6810  136.8240 N   0  0  0  0  0  0  0  0  0  0  0  0
  186.2640  177.3800  135.1940 O   0  0  0  0  0  0  0  0  0  0  0  0
  186.8030  176.7210  136.1250 C   0  0  0  0  0  0  0  0  0  0  0  0
  186.0610  175.7240  136.8380 N   0  0  0  0  0  2  0  0  0  0  0  0
  183.6850  173.2110  136.8430 C   0  0  0  0  0  0  0  0  0  0  0  0
  184.6750  174.5260  135.1560 C   0  0  0  0  0  2  0  0  0  0  0  0
  184.0770  172.0580  135.0060 N   0  0  0  0  0  0  0  0  0  0  0  0
  183.5890  171.8730  137.1620 C   0  0  0  0  0  3  0  0  0  0  0  0
  183.9800  173.2850  135.5390 C   0  0  0  0  0  0  0  0  0  0  0  0
  184.1170  174.3930  137.6090 C   0  0  0  0  0  2  0  0  0  0  0  0
  183.7800  169.7730  135.8460 C   0  0  0  0  0  1  0  0  0  0  0  0
  183.7670  171.2180  135.9900 N   0  0  0  0  0  0  0  0  0  0  0  0
  184.7040  175.3000  136.4990 C   0  0  1  0  0  3  0  0  0  0  0  0
  188.1930  177.9930  141.1920 C   0  0  1  0  0  3  0  0  0  0  0  0
  189.3410  178.3740  142.1160 C   0  0  0  0  0  1  0  0  0  0  0  0
  186.8990  178.3180  141.8030 N   0  0  0  0  0  0  0  0  0  0  0  0
  186.5080  178.0320  143.0140 C   0  0  0  0  0  0  0  0  0  0  0  0
  183.7520  178.2650  141.4480 N   0  0  0  0  0  2  0  0  0  0  0  0
  185.1720  178.4730  143.4530 C   0  0  0  0  0  0  0  0  0  0  0  0
  184.0710  178.5310  142.6990 N   0  0  0  0  0  0  0  0  0  0  0  0
  181.9590  179.0020  142.6040 C   0  0  0  0  0  0  0  0  0  0  0  0
  182.4200  178.5520  141.3550 C   0  0  0  0  0  3  0  0  0  0  0  0
  183.0690  178.9610  143.4040 C   0  0  0  0  0  0  0  0  0  0  0  0
  183.4310  179.2270  144.7090 C   0  0  0  0  0  3  0  0  0  0  0  0
  184.8090  178.9080  144.7360 C   0  0  0  0  0  3  0  0  0  0  0  0
  179.3480  179.0920  143.2610 N   0  0  0  0  0  0  0  0  0  0  0  0
  179.7080  180.3980  143.2280 O   0  0  0  0  0  0  0  0  0  0  0  0
  180.6040  179.4130  142.9610 C   0  0  0  0  0  0  0  0  0  0  0  0
  187.3620  177.3190  143.9380 C   0  0  0  0  0  0  0  0  0  0  0  0
  188.0470  176.7520  144.6760 N   0  0  0  0  0  0  0  0  0  0  0  0
  192.1090  177.1320  138.2870 C   0  0  0  0  0  2  0  0  0  0  0  0
  193.0050  176.1450  137.6040 C   0  0  0  0  0  0  0  0  0  0  0  0
  192.9760  174.8080  137.9710 O   0  0  0  0  0  1  0  0  0  0  0  0
  193.7730  176.5250  136.6820 O   0  0  0  0  0  0  0  0  0  0  0  0
  1  4  1  0  0  0  0
  1  6  1  1  0  0  0
  2 11  1  0  0  0  0
  3 12  1  0  0  0  0
  4 42  1  0  0  0  0
  4  5  1  1  0  0  0
  6 11  1  0  0  0  0
  7  4  1  0  0  0  0
  9 14  1  1  0  0  0
  9 12  1  0  0  0  0
  9 10  1  0  0  0  0
 10  8  1  6  0  0  0
 10  1  1  0  0  0  0
 10  2  1  0  0  0  0
 11 25  1  1  0  0  0
 12  7  1  0  0  0  0
 13 14  2  0  0  0  0
 14 15  1  0  0  0  0
 16 19  2  0  0  0  0
 16 21  1  0  0  0  0
 17 20  1  0  0  0  0
 17 24  1  0  0  0  0
 18 20  2  0  0  0  0
 18 23  1  0  0  0  0
 20 16  1  0  0  0  0
 22 23  1  0  0  0  0
 23 19  1  0  0  0  0
 24 15  1  1  0  0  0
 24 21  1  0  0  0  0
 25 27  1  0  0  0  0
 25 26  1  1  0  0  0
 27 28  2  0  0  0  0
 28 30  1  0  0  0  0
 28 40  1  0  0  0  0
 29 31  1  0  0  0  0
 30 36  2  0  0  0  0
 31 34  1  0  0  0  0
 31 30  1  0  0  0  0
 32 39  1  0  0  0  0
 32 34  1  0  0  0  0
 33 29  1  0  0  0  0
 33 32  2  0  0  0  0
 34 35  2  0  0  0  0
 35 36  1  0  0  0  0
 38 37  1  0  0  0  0
 39 38  1  0  0  0  0
 39 37  2  0  0  0  0
 40 41  3  0  0  0  0
 43 44  1  0  0  0  0
 43 42  1  0  0  0  0
 45 43  2  0  0  0  0
M  END
>  <MODEL>
6

>  <REMARK>
 VINA RESULT:      -7.4      2.650      3.930
  Name = 
  9 active torsions:
  status: ('A' for Active; 'I' for Inactive)
    1  A    between atoms: C_6  and  C_37
    2  A    between atoms: C_8  and  C_37
    3  A    between atoms: C_9  and  C_44
    4  A    between atoms: C_13  and  C_41
    5  A    between atoms: C_16  and  C_44
    6  A    between atoms: C_26  and  C_27
    7  A    between atoms: N_28  and  C_42
    8  A    between atoms: N_31  and  C_38
    9  A    between atoms: C_38  and  C_39
                            x       y       z     vdW  Elec       q    Type
                         _______ _______ _______ _____ _____    ______ ____

>  <TORSDO>
F 9

$$$$
=
 OpenBabel10222418133D

 45 51  0  0  1  0  0  0  0  0999 V2000
  188.2760  175.9760  135.3580 C   0  0  2  0  0  3  0  0  0  0  0  0
  186.9040  176.4450  137.1950 C   0  0  0  0  0  2  0  0  0  0  0  0
  187.7330  172.1210  136.8800 O   0  0  0  0  0  1  0  0  0  0  0  0
  189.4740  175.0660  135.7320 C   0  0  1  0  0  0  0  0  0  0  0  0
  190.0740  175.4600  137.0840 C   0  0  0  0  0  1  0  0  0  0  0  0
  188.5460  177.3210  135.6940 O   0  0  0  0  0  0  0  0  0  0  0  0
  189.0160  173.6110  135.7980 C   0  0  0  0  0  2  0  0  0  0  0  0
  185.9140  176.0100  135.1030 O   0  0  0  0  0  1  0  0  0  0  0  0
  186.7480  174.0760  136.2410 C   0  0  1  0  0  3  0  0  0  0  0  0
  186.9290  175.5900  135.9670 C   0  0  1  0  0  0  0  0  0  0  0  0
  187.6720  177.6730  136.7490 C   0  0  2  0  0  3  0  0  0  0  0  0
  187.9590  173.4550  136.7880 N   0  0  0  0  0  0  0  0  0  0  0  0
  185.6690  173.1520  138.1760 O   0  0  0  0  0  0  0  0  0  0  0  0
  185.5460  173.8100  137.1050 C   0  0  0  0  0  0  0  0  0  0  0  0
  184.2760  174.3560  136.7260 N   0  0  0  0  0  2  0  0  0  0  0  0
  181.0580  175.4900  137.2870 C   0  0  0  0  0  0  0  0  0  0  0  0
  183.0430  175.5000  138.5580 C   0  0  0  0  0  2  0  0  0  0  0  0
  181.3060  177.3560  138.4340 N   0  0  0  0  0  0  0  0  0  0  0  0
  180.1780  176.4170  136.7700 C   0  0  0  0  0  3  0  0  0  0  0  0
  181.7200  176.0880  138.2860 C   0  0  0  0  0  0  0  0  0  0  0  0
  181.7980  174.3690  136.6820 C   0  0  0  0  0  2  0  0  0  0  0  0
  179.6110  178.7640  137.3590 C   0  0  0  0  0  1  0  0  0  0  0  0
  180.3220  177.5140  137.5530 N   0  0  0  0  0  0  0  0  0  0  0  0
  183.0750  174.3160  137.5580 C   0  0  1  0  0  3  0  0  0  0  0  0
  188.4480  178.2980  137.9130 C   0  0  1  0  0  3  0  0  0  0  0  0
  189.0600  179.6350  137.5210 C   0  0  0  0  0  1  0  0  0  0  0  0
  187.6260  178.4320  139.1210 N   0  0  0  0  0  0  0  0  0  0  0  0
  187.9480  178.0810  140.3350 C   0  0  0  0  0  0  0  0  0  0  0  0
  188.0940  177.4460  143.4460 N   0  0  0  0  0  2  0  0  0  0  0  0
  186.9880  178.3270  141.4260 C   0  0  0  0  0  0  0  0  0  0  0  0
  187.1560  178.0140  142.7120 N   0  0  0  0  0  0  0  0  0  0  0  0
  186.3250  178.0450  144.7120 C   0  0  0  0  0  0  0  0  0  0  0  0
  187.5980  177.4510  144.7180 C   0  0  0  0  0  3  0  0  0  0  0  0
  186.1160  178.3740  143.4000 C   0  0  0  0  0  0  0  0  0  0  0  0
  185.1540  178.9680  142.6080 C   0  0  0  0  0  3  0  0  0  0  0  0
  185.7290  178.9330  141.3160 C   0  0  0  0  0  3  0  0  0  0  0  0
  184.9780  177.8820  147.0400 N   0  0  0  0  0  0  0  0  0  0  0  0
  184.4730  178.9990  146.4640 O   0  0  0  0  0  0  0  0  0  0  0  0
  185.4350  178.2620  145.8490 C   0  0  0  0  0  0  0  0  0  0  0  0
  189.2300  177.4830  140.6350 C   0  0  0  0  0  0  0  0  0  0  0  0
  190.2550  177.0040  140.8710 N   0  0  0  0  0  0  0  0  0  0  0  0
  190.5320  175.2300  134.6340 C   0  0  0  0  0  2  0  0  0  0  0  0
  191.8940  174.7410  135.0210 C   0  0  0  0  0  0  0  0  0  0  0  0
  192.8890  175.6480  135.3520 O   0  0  0  0  0  1  0  0  0  0  0  0
  192.1300  173.5060  135.0650 O   0  0  0  0  0  0  0  0  0  0  0  0
  1  6  1  1  0  0  0
  1  4  1  0  0  0  0
  1 10  1  0  0  0  0
  4  7  1  0  0  0  0
  4  5  1  1  0  0  0
  6 11  1  0  0  0  0
  7 12  1  0  0  0  0
  9 12  1  0  0  0  0
  9 14  1  1  0  0  0
 10  8  1  6  0  0  0
 10  9  1  0  0  0  0
 10  2  1  0  0  0  0
 11  2  1  0  0  0  0
 11 25  1  1  0  0  0
 12  3  1  0  0  0  0
 14 13  2  0  0  0  0
 15 14  1  0  0  0  0
 16 20  1  0  0  0  0
 19 16  2  0  0  0  0
 19 23  1  0  0  0  0
 20 18  2  0  0  0  0
 20 17  1  0  0  0  0
 21 16  1  0  0  0  0
 21 24  1  0  0  0  0
 22 23  1  0  0  0  0
 23 18  1  0  0  0  0
 24 15  1  6  0  0  0
 24 17  1  0  0  0  0
 25 26  1  6  0  0  0
 25 27  1  0  0  0  0
 27 28  2  0  0  0  0
 28 40  1  0  0  0  0
 28 30  1  0  0  0  0
 29 33  1  0  0  0  0
 30 31  1  0  0  0  0
 31 34  1  0  0  0  0
 31 29  1  0  0  0  0
 32 33  2  0  0  0  0
 32 39  1  0  0  0  0
 34 32  1  0  0  0  0
 35 34  2  0  0  0  0
 36 30  2  0  0  0  0
 36 35  1  0  0  0  0
 38 37  1  0  0  0  0
 39 38  1  0  0  0  0
 39 37  2  0  0  0  0
 40 41  3  0  0  0  0
 42 43  1  0  0  0  0
 42  4  1  0  0  0  0
 43 45  2  0  0  0  0
 43 44  1  0  0  0  0
M  END
>  <MODEL>
7

>  <REMARK>
 VINA RESULT:      -7.3      1.820      2.547
  Name = 
  9 active torsions:
  status: ('A' for Active; 'I' for Inactive)
    1  A    between atoms: C_6  and  C_37
    2  A    between atoms: C_8  and  C_37
    3  A    between atoms: C_9  and  C_44
    4  A    between atoms: C_13  and  C_41
    5  A    between atoms: C_16  and  C_44
    6  A    between atoms: C_26  and  C_27
    7  A    between atoms: N_28  and  C_42
    8  A    between atoms: N_31  and  C_38
    9  A    between atoms: C_38  and  C_39
                            x       y       z     vdW  Elec       q    Type
                         _______ _______ _______ _____ _____    ______ ____

>  <TORSDO>
F 9

$$$$
=
 OpenBabel10222418133D

 45 51  0  0  1  0  0  0  0  0999 V2000
  190.8310  176.1230  136.1130 C   0  0  2  0  0  3  0  0  0  0  0  0
  188.9770  175.8570  137.5170 C   0  0  0  0  0  2  0  0  0  0  0  0
  189.6900  172.2310  135.1050 O   0  0  0  0  0  1  0  0  0  0  0  0
  191.8170  174.9300  136.2040 C   0  0  1  0  0  0  0  0  0  0  0  0
  191.9840  174.4520  137.6490 C   0  0  0  0  0  1  0  0  0  0  0  0
  191.0370  177.0250  137.1810 O   0  0  0  0  0  0  0  0  0  0  0  0
  191.3030  173.7700  135.3540 C   0  0  0  0  0  2  0  0  0  0  0  0
  188.6670  176.7560  135.3630 O   0  0  0  0  0  1  0  0  0  0  0  0
  189.0300  174.3910  135.4210 C   0  0  1  0  0  3  0  0  0  0  0  0
  189.3470  175.7610  136.0700 C   0  0  1  0  0  0  0  0  0  0  0  0
  189.8950  176.9580  138.0120 C   0  0  2  0  0  3  0  0  0  0  0  0
  189.9860  173.3490  135.8120 N   0  0  0  0  0  0  0  0  0  0  0  0
  186.6590  174.5430  135.0820 O   0  0  0  0  0  0  0  0  0  0  0  0
  187.6100  173.9700  135.6830 C   0  0  0  0  0  0  0  0  0  0  0  0
  187.3560  172.8810  136.5790 N   0  0  0  0  0  2  0  0  0  0  0  0
  184.0330  172.6710  135.6440 C   0  0  0  0  0  0  0  0  0  0  0  0
  185.1370  173.1630  137.6670 C   0  0  0  0  0  2  0  0  0  0  0  0
  183.0220  174.2660  136.7800 N   0  0  0  0  0  0  0  0  0  0  0  0
  183.1530  173.2980  134.7880 C   0  0  0  0  0  3  0  0  0  0  0  0
  183.9280  173.2770  136.8320 C   0  0  0  0  0  0  0  0  0  0  0  0
  185.3350  172.0140  135.4330 C   0  0  0  0  0  2  0  0  0  0  0  0
  181.5100  175.1420  135.0600 C   0  0  0  0  0  1  0  0  0  0  0  0
  182.5130  174.2160  135.5510 N   0  0  0  0  0  0  0  0  0  0  0  0
  186.0460  172.2670  136.7870 C   0  0  1  0  0  3  0  0  0  0  0  0
  190.2960  176.7340  139.4730 C   0  0  1  0  0  3  0  0  0  0  0  0
  191.6150  177.4190  139.8010 C   0  0  0  0  0  1  0  0  0  0  0  0
  189.2440  177.1480  140.4090 N   0  0  0  0  0  0  0  0  0  0  0  0
  189.1650  176.8630  141.6790 C   0  0  0  0  0  0  0  0  0  0  0  0
  188.7160  177.1280  144.8150 N   0  0  0  0  0  2  0  0  0  0  0  0
  188.0370  177.4010  142.4600 C   0  0  0  0  0  0  0  0  0  0  0  0
  187.9550  177.4630  143.7910 N   0  0  0  0  0  0  0  0  0  0  0  0
  186.7790  178.0510  145.5130 C   0  0  0  0  0  0  0  0  0  0  0  0
  188.0000  177.4880  145.9210 C   0  0  0  0  0  3  0  0  0  0  0  0
  186.8270  177.9980  144.1460 C   0  0  0  0  0  0  0  0  0  0  0  0
  186.0530  178.3420  143.0550 C   0  0  0  0  0  3  0  0  0  0  0  0
  186.8490  177.9470  141.9540 C   0  0  0  0  0  3  0  0  0  0  0  0
  184.4230  178.6160  146.6910 N   0  0  0  0  0  0  0  0  0  0  0  0
  185.3070  179.3770  147.3790 O   0  0  0  0  0  0  0  0  0  0  0  0
  185.7110  178.5760  146.3590 C   0  0  0  0  0  0  0  0  0  0  0  0
  190.1670  176.0560  142.3380 C   0  0  0  0  0  0  0  0  0  0  0  0
  190.9710  175.4130  142.8650 N   0  0  0  0  0  0  0  0  0  0  0  0
  193.1690  175.4130  135.6630 C   0  0  0  0  0  2  0  0  0  0  0  0
  194.2840  175.3430  136.6600 C   0  0  0  0  0  0  0  0  0  0  0  0
  194.3070  176.2130  137.7400 O   0  0  0  0  0  1  0  0  0  0  0  0
  195.1920  174.4820  136.5300 O   0  0  0  0  0  0  0  0  0  0  0  0
  1  4  1  0  0  0  0
  1  6  1  1  0  0  0
  2 11  1  0  0  0  0
  3 12  1  0  0  0  0
  4  5  1  1  0  0  0
  6 11  1  0  0  0  0
  7 12  1  0  0  0  0
  7  4  1  0  0  0  0
  9 14  1  1  0  0  0
  9 12  1  0  0  0  0
  9 10  1  0  0  0  0
 10  8  1  6  0  0  0
 10  1  1  0  0  0  0
 10  2  1  0  0  0  0
 11 25  1  1  0  0  0
 13 14  2  0  0  0  0
 14 15  1  0  0  0  0
 16 20  1  0  0  0  0
 18 20  2  0  0  0  0
 19 23  1  0  0  0  0
 19 16  2  0  0  0  0
 20 17  1  0  0  0  0
 21 16  1  0  0  0  0
 21 24  1  0  0  0  0
 22 23  1  0  0  0  0
 23 18  1  0  0  0  0
 24 15  1  6  0  0  0
 24 17  1  0  0  0  0
 25 26  1  1  0  0  0
 25 27  1  0  0  0  0
 27 28  2  0  0  0  0
 28 40  1  0  0  0  0
 28 30  1  0  0  0  0
 29 33  1  0  0  0  0
 30 31  1  0  0  0  0
 31 34  1  0  0  0  0
 31 29  1  0  0  0  0
 32 33  2  0  0  0  0
 32 39  1  0  0  0  0
 34 32  1  0  0  0  0
 35 34  2  0  0  0  0
 36 30  2  0  0  0  0
 36 35  1  0  0  0  0
 37 38  1  0  0  0  0
 39 37  2  0  0  0  0
 39 38  1  0  0  0  0
 40 41  3  0  0  0  0
 42  4  1  0  0  0  0
 42 43  1  0  0  0  0
 43 44  1  0  0  0  0
 45 43  2  0  0  0  0
M  END
>  <MODEL>
8

>  <REMARK>
 VINA RESULT:      -7.3      2.044      2.602
  Name = 
  9 active torsions:
  status: ('A' for Active; 'I' for Inactive)
    1  A    between atoms: C_6  and  C_37
    2  A    between atoms: C_8  and  C_37
    3  A    between atoms: C_9  and  C_44
    4  A    between atoms: C_13  and  C_41
    5  A    between atoms: C_16  and  C_44
    6  A    between atoms: C_26  and  C_27
    7  A    between atoms: N_28  and  C_42
    8  A    between atoms: N_31  and  C_38
    9  A    between atoms: C_38  and  C_39
                            x       y       z     vdW  Elec       q    Type
                         _______ _______ _______ _____ _____    ______ ____

>  <TORSDO>
F 9

$$$$
=
 OpenBabel10222418133D

 45 51  0  0  1  0  0  0  0  0999 V2000
  190.8000  175.9620  135.9960 C   0  0  2  0  0  3  0  0  0  0  0  0
  189.5200  175.1970  137.8010 C   0  0  0  0  0  2  0  0  0  0  0  0
  190.2790  171.9640  134.8940 O   0  0  0  0  0  1  0  0  0  0  0  0
  192.0030  175.0320  135.6890 C   0  0  1  0  0  0  0  0  0  0  0  0
  192.6690  174.5370  136.9750 C   0  0  0  0  0  1  0  0  0  0  0  0
  191.1030  176.8330  137.0670 O   0  0  0  0  0  0  0  0  0  0  0  0
  191.5300  173.8270  134.8800 C   0  0  0  0  0  2  0  0  0  0  0  0
  188.4300  176.1010  135.9200 O   0  0  0  0  0  1  0  0  0  0  0  0
  189.2910  173.8880  135.6140 C   0  0  1  0  0  3  0  0  0  0  0  0
  189.4780  175.2620  136.3070 C   0  0  1  0  0  0  0  0  0  0  0  0
  190.2830  176.4580  138.1570 C   0  0  2  0  0  3  0  0  0  0  0  0
  190.5180  173.0840  135.6190 N   0  0  0  0  0  0  0  0  0  0  0  0
  188.2930  172.3870  137.1990 O   0  0  0  0  0  0  0  0  0  0  0  0
  188.1260  173.1310  136.1930 C   0  0  0  0  0  0  0  0  0  0  0  0
  186.8240  173.3070  135.6220 N   0  0  0  0  0  2  0  0  0  0  0  0
  183.4390  173.7140  136.2030 C   0  0  0  0  0  0  0  0  0  0  0  0
  185.3100  173.3630  137.5940 C   0  0  0  0  0  2  0  0  0  0  0  0
  183.3210  174.8770  138.0720 N   0  0  0  0  0  0  0  0  0  0  0  0
  182.4650  174.6750  136.0360 C   0  0  0  0  0  3  0  0  0  0  0  0
  183.9330  173.8640  137.4390 C   0  0  0  0  0  0  0  0  0  0  0  0
  184.3820  173.0730  135.2700 C   0  0  0  0  0  2  0  0  0  0  0  0
  181.5060  176.4280  137.5130 C   0  0  0  0  0  1  0  0  0  0  0  0
  182.3860  175.3090  137.2300 N   0  0  0  0  0  0  0  0  0  0  0  0
  185.5900  172.7680  136.1910 C   0  0  1  0  0  3  0  0  0  0  0  0
  191.1190  176.2640  139.4250 C   0  0  1  0  0  3  0  0  0  0  0  0
  192.3700  177.1310  139.4080 C   0  0  0  0  0  1  0  0  0  0  0  0
  190.3390  176.4940  140.6470 N   0  0  0  0  0  0  0  0  0  0  0  0
  189.3970  177.3790  140.8230 C   0  0  0  0  0  0  0  0  0  0  0  0
  190.5110  177.2760  143.7980 N   0  0  0  0  0  2  0  0  0  0  0  0
  188.7080  177.4360  142.1240 C   0  0  0  0  0  0  0  0  0  0  0  0
  189.2840  177.3830  143.3270 N   0  0  0  0  0  0  0  0  0  0  0  0
  189.0070  177.4110  145.4750 C   0  0  0  0  0  0  0  0  0  0  0  0
  190.3710  177.2920  145.1560 C   0  0  0  0  0  3  0  0  0  0  0  0
  188.3830  177.4620  144.2580 C   0  0  0  0  0  0  0  0  0  0  0  0
  187.1100  177.5770  143.7370 C   0  0  0  0  0  3  0  0  0  0  0  0
  187.3280  177.5570  142.3390 C   0  0  0  0  0  3  0  0  0  0  0  0
  187.4260  177.8930  147.6030 N   0  0  0  0  0  0  0  0  0  0  0  0
  188.4260  177.1390  148.1200 O   0  0  0  0  0  0  0  0  0  0  0  0
  188.4030  177.4720  146.8030 C   0  0  0  0  0  0  0  0  0  0  0  0
  189.0000  178.2830  139.7660 C   0  0  0  0  0  0  0  0  0  0  0  0
  188.6800  179.0060  138.9220 N   0  0  0  0  0  0  0  0  0  0  0  0
  193.0110  175.8470  134.8690 C   0  0  0  0  0  2  0  0  0  0  0  0
  194.3070  176.1030  135.5750 C   0  0  0  0  0  0  0  0  0  0  0  0
  195.3800  175.2440  135.3910 O   0  0  0  0  0  0  0  0  0  0  0  0
  194.4290  177.1090  136.3210 O   0  0  0  0  0  1  0  0  0  0  0  0
  1 10  1  0  0  0  0
  1  6  1  1  0  0  0
  2 11  1  0  0  0  0
  3 12  1  0  0  0  0
  4  1  1  0  0  0  0
  4  5  1  1  0  0  0
  6 11  1  0  0  0  0
  7 12  1  0  0  0  0
  7  4  1  0  0  0  0
  9 12  1  0  0  0  0
  9 14  1  1  0  0  0
  9 10  1  0  0  0  0
 10  8  1  6  0  0  0
 10  2  1  0  0  0  0
 11 25  1  1  0  0  0
 14 13  2  0  0  0  0
 15 14  1  0  0  0  0
 16 20  1  0  0  0  0
 19 16  2  0  0  0  0
 19 23  1  0  0  0  0
 20 17  1  0  0  0  0
 20 18  2  0  0  0  0
 21 24  1  0  0  0  0
 21 16  1  0  0  0  0
 23 22  1  0  0  0  0
 23 18  1  0  0  0  0
 24 15  1  6  0  0  0
 24 17  1  0  0  0  0
 25 26  1  6  0  0  0
 25 27  1  0  0  0  0
 27 28  2  0  0  0  0
 28 30  1  0  0  0  0
 29 33  1  0  0  0  0
 30 36  2  0  0  0  0
 30 31  1  0  0  0  0
 31 29  1  0  0  0  0
 31 34  1  0  0  0  0
 32 39  1  0  0  0  0
 33 32  2  0  0  0  0
 34 32  1  0  0  0  0
 35 34  2  0  0  0  0
 36 35  1  0  0  0  0
 37 38  1  0  0  0  0
 39 37  2  0  0  0  0
 39 38  1  0  0  0  0
 40 28  1  0  0  0  0
 41 40  3  0  0  0  0
 42 43  1  0  0  0  0
 42  4  1  0  0  0  0
 43 45  1  0  0  0  0
 44 43  2  0  0  0  0
M  END
>  <MODEL>
9

>  <REMARK>
 VINA RESULT:      -7.3      2.200      3.023
  Name = 
  9 active torsions:
  status: ('A' for Active; 'I' for Inactive)
    1  A    between atoms: C_6  and  C_37
    2  A    between atoms: C_8  and  C_37
    3  A    between atoms: C_9  and  C_44
    4  A    between atoms: C_13  and  C_41
    5  A    between atoms: C_16  and  C_44
    6  A    between atoms: C_26  and  C_27
    7  A    between atoms: N_28  and  C_42
    8  A    between atoms: N_31  and  C_38
    9  A    between atoms: C_38  and  C_39
                            x       y       z     vdW  Elec       q    Type
                         _______ _______ _______ _____ _____    ______ ____

>  <TORSDO>
F 9

$$$$
