=
 OpenBabel10222415293D

 31 35  0  0  1  0  0  0  0  0999 V2000
  184.5510  179.4380  142.9200 C   0  0  0  0  0  2  0  0  0  0  0  0
  183.6530  177.8050  139.6130 C   0  0  0  0  0  2  0  0  0  0  0  0
  178.9690  180.2770  139.1330 C   0  0  0  0  0  1  0  0  0  0  0  0
  182.0080  179.2850  141.0700 C   0  0  2  0  0  3  0  0  0  0  0  0
  184.2650  178.7360  140.6430 C   0  0  1  0  0  0  0  0  0  0  0  0
  184.0010  178.3990  142.0550 N   0  0  0  0  0  0  0  0  0  0  0  0
  180.6220  179.1050  140.6110 N   0  0  0  0  0  0  0  0  0  0  0  0
  182.8590  180.1090  138.8030 C   0  0  0  0  0  2  0  0  0  0  0  0
  185.4250  179.4330  140.2910 O   0  0  0  0  0  1  0  0  0  0  0  0
  180.4170  180.1470  139.5700 C   0  0  1  0  0  3  0  0  0  0  0  0
  181.3860  180.0420  138.3620 C   0  0  0  0  0  2  0  0  0  0  0  0
  183.0050  179.1490  139.9610 C   0  0  1  0  0  0  0  0  0  0  0  0
  182.5350  178.4380  142.2160 C   0  0  0  0  0  2  0  0  0  0  0  0
  179.3690  176.8430  141.3420 N   0  0  0  0  0  1  0  0  0  0  0  0
  180.3440  177.4270  139.9490 P   0  0  1  0  0  0  0  0  0  0  0  0
  178.9490  177.8240  138.9940 O   0  0  0  0  0  1  0  0  0  0  0  0
  184.0960  179.2080  144.3230 C   0  0  0  0  0  3  0  0  0  0  0  0
  184.8160  178.5860  145.2590 C   0  0  0  0  0  3  0  0  0  0  0  0
  186.7760  178.0850  143.9440 N   0  0  0  0  0  0  0  0  0  0  0  0
  188.0660  176.1060  143.3730 C   0  0  0  0  0  1  0  0  0  0  0  0
  189.2020  178.3010  143.5050 C   0  0  0  0  0  3  0  0  0  0  0  0
  191.7530  177.3810  145.8210 O   0  0  0  0  0  0  0  0  0  0  0  0
  188.0840  177.4600  144.0650 C   0  0  1  0  0  0  0  0  0  0  0  0
  190.4040  178.2990  144.0980 C   0  0  0  0  0  3  0  0  0  0  0  0
  188.2090  177.2740  145.5400 C   0  0  1  0  0  3  0  0  0  0  0  0
  189.3840  177.2420  146.1800 C   0  0  1  0  0  3  0  0  0  0  0  0
  190.5910  177.5980  145.3860 C   0  0  0  0  0  0  0  0  0  0  0  0
  186.9710  177.5520  146.1740 N   0  0  0  0  0  2  0  0  0  0  0  0
  186.1870  178.0780  145.1010 C   0  0  0  0  0  0  0  0  0  0  0  0
  189.3750  178.1760  148.5560 C   0  0  0  0  0  1  0  0  0  0  0  0
  189.4140  177.0780  147.6040 N   0  0  0  0  0  2  0  0  0  0  0  0
  1 17  1  0  0  0  0
  2 12  1  0  0  0  0
  2  5  1  0  0  0  0
  4 13  1  1  0  0  0
  5  9  1  6  0  0  0
  5  6  1  0  0  0  0
  6 13  1  0  0  0  0
  6  1  1  0  0  0  0
  7  4  1  0  0  0  0
 10  3  1  6  0  0  0
 10  7  1  0  0  0  0
 11  8  1  0  0  0  0
 11 10  1  0  0  0  0
 12  8  1  6  0  0  0
 12  5  1  0  0  0  0
 12  4  1  0  0  0  0
 15 16  1  6  0  0  0
 15  7  1  0  0  0  0
 15 14  1  0  0  0  0
 17 18  2  0  0  0  0
 19 23  1  0  0  0  0
 19 29  2  0  0  0  0
 21 23  1  0  0  0  0
 21 24  2  0  0  0  0
 23 20  1  6  0  0  0
 23 25  1  0  0  0  0
 24 27  1  0  0  0  0
 25 28  1  1  0  0  0
 25 26  1  0  0  0  0
 26 31  1  1  0  0  0
 27 22  2  0  0  0  0
 27 26  1  0  0  0  0
 29 18  1  0  0  0  0
 29 28  1  0  0  0  0
 31 30  1  0  0  0  0
M  END
>  <MODEL>
1

>  <REMARK>
 VINA RESULT:      -8.4      0.000      0.000
  Name = 
  5 active torsions:
  status: ('A' for Active; 'I' for Inactive)
    1  A    between atoms: N_7  and  C_30
    2  A    between atoms: N_8  and  P_12
    3  A    between atoms: C_16  and  C_30
    4  A    between atoms: C_22  and  N_24
    5  A    between atoms: C_26  and  C_31
                            x       y       z     vdW  Elec       q    Type
                         _______ _______ _______ _____ _____    ______ ____

>  <TORSDO>
F 5

$$$$
=
 OpenBabel10222415293D

 31 35  0  0  1  0  0  0  0  0999 V2000
  191.0470  176.3790  138.7540 C   0  0  0  0  0  2  0  0  0  0  0  0
  192.5270  174.4290  135.8540 C   0  0  0  0  0  2  0  0  0  0  0  0
  197.3130  173.8260  138.0950 C   0  0  0  0  0  1  0  0  0  0  0  0
  193.9040  175.3510  137.9210 C   0  0  2  0  0  3  0  0  0  0  0  0
  191.7600  174.7790  137.1150 C   0  0  1  0  0  0  0  0  0  0  0  0
  191.7170  176.2100  137.4690 N   0  0  0  0  0  0  0  0  0  0  0  0
  195.3450  175.3120  137.6300 N   0  0  0  0  0  0  0  0  0  0  0  0
  193.5670  172.8380  137.5810 C   0  0  0  0  0  2  0  0  0  0  0  0
  190.7260  173.9240  137.5120 O   0  0  0  0  0  1  0  0  0  0  0  0
  195.8020  173.9750  138.0970 C   0  0  1  0  0  3  0  0  0  0  0  0
  195.0950  172.7800  137.4030 C   0  0  0  0  0  2  0  0  0  0  0  0
  193.1490  174.2500  137.2440 C   0  0  1  0  0  0  0  0  0  0  0  0
  193.1200  176.6250  137.6570 C   0  0  0  0  0  2  0  0  0  0  0  0
  195.0210  177.2240  135.7710 N   0  0  0  0  0  1  0  0  0  0  0  0
  195.6810  175.5540  135.8520 P   0  0  1  0  0  0  0  0  0  0  0  0
  197.3220  176.0910  136.0350 O   0  0  0  0  0  1  0  0  0  0  0  0
  189.9840  177.4190  138.6270 C   0  0  0  0  0  3  0  0  0  0  0  0
  189.2600  177.8880  139.6460 C   0  0  0  0  0  3  0  0  0  0  0  0
  190.5770  177.5490  141.6390 N   0  0  0  0  0  0  0  0  0  0  0  0
  191.0970  175.6960  143.1220 C   0  0  0  0  0  1  0  0  0  0  0  0
  191.0470  177.9990  144.0270 C   0  0  0  0  0  3  0  0  0  0  0  0
  188.7270  177.4240  146.6740 O   0  0  0  0  0  0  0  0  0  0  0  0
  190.4490  177.0660  143.0050 C   0  0  1  0  0  0  0  0  0  0  0  0
  190.4660  178.1410  145.2260 C   0  0  0  0  0  3  0  0  0  0  0  0
  188.9710  176.9430  143.1580 C   0  0  1  0  0  3  0  0  0  0  0  0
  188.3410  177.0540  144.3350 C   0  0  1  0  0  3  0  0  0  0  0  0
  189.1580  177.5050  145.4930 C   0  0  0  0  0  0  0  0  0  0  0  0
  188.3330  177.1120  141.9020 N   0  0  0  0  0  2  0  0  0  0  0  0
  189.4140  177.5190  141.0610 C   0  0  0  0  0  0  0  0  0  0  0  0
  186.0080  178.0670  144.5460 C   0  0  0  0  0  1  0  0  0  0  0  0
  186.9130  176.9400  144.3910 N   0  0  0  0  0  2  0  0  0  0  0  0
  2  5  1  0  0  0  0
  4 13  1  6  0  0  0
  5 12  1  0  0  0  0
  5  6  1  0  0  0  0
  5  9  1  1  0  0  0
  6 13  1  0  0  0  0
  6  1  1  0  0  0  0
  7  4  1  0  0  0  0
  7 10  1  0  0  0  0
 10  3  1  6  0  0  0
 11  8  1  0  0  0  0
 11 10  1  0  0  0  0
 12  2  1  6  0  0  0
 12  8  1  0  0  0  0
 12  4  1  0  0  0  0
 15 14  1  1  0  0  0
 15 16  1  0  0  0  0
 15  7  1  0  0  0  0
 17  1  1  0  0  0  0
 17 18  2  0  0  0  0
 18 29  1  0  0  0  0
 19 23  1  0  0  0  0
 21 24  2  0  0  0  0
 23 20  1  1  0  0  0
 23 25  1  0  0  0  0
 23 21  1  0  0  0  0
 24 27  1  0  0  0  0
 25 28  1  6  0  0  0
 25 26  1  0  0  0  0
 26 31  1  6  0  0  0
 26 27  1  0  0  0  0
 27 22  2  0  0  0  0
 29 19  2  0  0  0  0
 29 28  1  0  0  0  0
 31 30  1  0  0  0  0
M  END
>  <MODEL>
2

>  <REMARK>
 VINA RESULT:      -8.2      7.131     10.336
  Name = 
  5 active torsions:
  status: ('A' for Active; 'I' for Inactive)
    1  A    between atoms: N_7  and  C_30
    2  A    between atoms: N_8  and  P_12
    3  A    between atoms: C_16  and  C_30
    4  A    between atoms: C_22  and  N_24
    5  A    between atoms: C_26  and  C_31
                            x       y       z     vdW  Elec       q    Type
                         _______ _______ _______ _____ _____    ______ ____

>  <TORSDO>
F 5

$$$$
=
 OpenBabel10222415293D

 31 35  0  0  1  0  0  0  0  0999 V2000
  189.9630  177.5170  141.8000 C   0  0  0  0  0  2  0  0  0  0  0  0
  189.6260  178.3620  138.1150 C   0  0  0  0  0  2  0  0  0  0  0  0
  190.5130  173.4000  136.4190 C   0  0  0  0  0  1  0  0  0  0  0  0
  190.4700  176.0380  139.0680 C   0  0  2  0  0  3  0  0  0  0  0  0
  189.2870  178.0230  139.5540 C   0  0  1  0  0  0  0  0  0  0  0  0
  190.4260  177.9620  140.4890 N   0  0  0  0  0  0  0  0  0  0  0  0
  191.1100  175.2540  138.0000 N   0  0  0  0  0  0  0  0  0  0  0  0
  188.2260  176.2250  137.8540 C   0  0  0  0  0  2  0  0  0  0  0  0
  188.0090  178.3490  140.0220 O   0  0  0  0  0  1  0  0  0  0  0  0
  190.0140  174.4520  137.3930 C   0  0  1  0  0  3  0  0  0  0  0  0
  188.8560  175.2980  136.7990 C   0  0  0  0  0  2  0  0  0  0  0  0
  189.3700  176.9170  138.5570 C   0  0  1  0  0  0  0  0  0  0  0  0
  191.3220  176.9120  139.9710 C   0  0  0  0  0  2  0  0  0  0  0  0
  193.3330  176.7470  137.7930 N   0  0  0  0  0  1  0  0  0  0  0  0
  191.9190  176.3290  136.7670 P   0  0  1  0  0  0  0  0  0  0  0  0
  192.7600  175.0630  135.9270 O   0  0  0  0  0  1  0  0  0  0  0  0
  191.0130  177.8070  142.8210 C   0  0  0  0  0  3  0  0  0  0  0  0
  190.7720  177.9900  144.1220 C   0  0  0  0  0  3  0  0  0  0  0  0
  189.3520  178.0050  146.0720 N   0  0  0  0  0  0  0  0  0  0  0  0
  187.8550  176.4460  147.1830 C   0  0  0  0  0  1  0  0  0  0  0  0
  187.4040  178.8750  147.3260 C   0  0  0  0  0  3  0  0  0  0  0  0
  184.0480  178.8120  146.1210 O   0  0  0  0  0  0  0  0  0  0  0  0
  187.9690  177.7790  146.4600 C   0  0  1  0  0  0  0  0  0  0  0  0
  186.1200  179.2380  147.1970 C   0  0  0  0  0  3  0  0  0  0  0  0
  187.2800  177.7000  145.1390 C   0  0  1  0  0  3  0  0  0  0  0  0
  185.9950  178.0280  144.9580 C   0  0  1  0  0  3  0  0  0  0  0  0
  185.3000  178.6730  146.1030 C   0  0  0  0  0  0  0  0  0  0  0  0
  188.2360  177.6450  144.0920 N   0  0  0  0  0  2  0  0  0  0  0  0
  189.4640  177.8820  144.7840 C   0  0  0  0  0  0  0  0  0  0  0  0
  185.1650  179.0830  142.7870 C   0  0  0  0  0  1  0  0  0  0  0  0
  185.4160  177.9400  143.6500 N   0  0  0  0  0  2  0  0  0  0  0  0
  1 17  1  0  0  0  0
  2 12  1  0  0  0  0
  2  5  1  0  0  0  0
  4 13  1  6  0  0  0
  5  9  1  1  0  0  0
  5  6  1  0  0  0  0
  6  1  1  0  0  0  0
  7  4  1  0  0  0  0
 10  3  1  6  0  0  0
 10  7  1  0  0  0  0
 11 10  1  0  0  0  0
 11  8  1  0  0  0  0
 12  8  1  6  0  0  0
 12  4  1  0  0  0  0
 12  5  1  0  0  0  0
 13  6  1  0  0  0  0
 15 16  1  6  0  0  0
 15 14  1  0  0  0  0
 15  7  1  0  0  0  0
 17 18  2  0  0  0  0
 18 29  1  0  0  0  0
 19 23  1  0  0  0  0
 23 20  1  1  0  0  0
 23 21  1  0  0  0  0
 24 21  2  0  0  0  0
 25 28  1  6  0  0  0
 25 23  1  0  0  0  0
 26 31  1  6  0  0  0
 26 25  1  0  0  0  0
 26 27  1  0  0  0  0
 27 22  2  0  0  0  0
 27 24  1  0  0  0  0
 28 29  1  0  0  0  0
 29 19  2  0  0  0  0
 30 31  1  0  0  0  0
M  END
>  <MODEL>
3

>  <REMARK>
 VINA RESULT:      -8.0      4.989      7.786
  Name = 
  5 active torsions:
  status: ('A' for Active; 'I' for Inactive)
    1  A    between atoms: N_7  and  C_30
    2  A    between atoms: N_8  and  P_12
    3  A    between atoms: C_16  and  C_30
    4  A    between atoms: C_22  and  N_24
    5  A    between atoms: C_26  and  C_31
                            x       y       z     vdW  Elec       q    Type
                         _______ _______ _______ _____ _____    ______ ____

>  <TORSDO>
F 5

$$$$
=
 OpenBabel10222415293D

 31 35  0  0  1  0  0  0  0  0999 V2000
  183.5940  178.2530  143.4690 C   0  0  0  0  0  2  0  0  0  0  0  0
  181.6370  179.3760  140.4160 C   0  0  0  0  0  2  0  0  0  0  0  0
  182.8340  175.0950  137.4970 C   0  0  0  0  0  1  0  0  0  0  0  0
  183.2770  177.2960  140.4860 C   0  0  2  0  0  3  0  0  0  0  0  0
  181.9840  178.7950  141.7740 C   0  0  1  0  0  0  0  0  0  0  0  0
  183.3850  178.9550  142.2070 N   0  0  0  0  0  0  0  0  0  0  0  0
  183.5920  176.8520  139.1200 N   0  0  0  0  0  0  0  0  0  0  0  0
  180.7530  176.9730  140.2200 C   0  0  0  0  0  2  0  0  0  0  0  0
  180.9620  178.6890  142.7230 O   0  0  0  0  0  1  0  0  0  0  0  0
  182.5490  175.8450  138.7860 C   0  0  1  0  0  3  0  0  0  0  0  0
  181.0960  176.3890  138.8380 C   0  0  0  0  0  2  0  0  0  0  0  0
  181.9020  177.8780  140.6000 C   0  0  1  0  0  0  0  0  0  0  0  0
  184.2060  178.2690  141.1920 C   0  0  0  0  0  2  0  0  0  0  0  0
  184.9290  179.1470  138.7190 N   0  0  0  0  0  1  0  0  0  0  0  0
  183.5850  178.2450  137.9390 P   0  0  1  0  0  0  0  0  0  0  0  0
  184.6180  177.5030  136.7570 O   0  0  0  0  0  1  0  0  0  0  0  0
  183.7160  179.2470  144.5760 C   0  0  0  0  0  3  0  0  0  0  0  0
  184.7890  179.3780  145.3590 C   0  0  0  0  0  3  0  0  0  0  0  0
  186.6410  178.4920  144.0910 N   0  0  0  0  0  0  0  0  0  0  0  0
  187.5570  176.2970  143.5940 C   0  0  0  0  0  1  0  0  0  0  0  0
  189.0710  178.2530  143.6870 C   0  0  0  0  0  3  0  0  0  0  0  0
  191.3850  176.9530  146.0700 O   0  0  0  0  0  0  0  0  0  0  0  0
  187.8120  177.6450  144.2500 C   0  0  1  0  0  0  0  0  0  0  0  0
  190.2460  178.0500  144.3010 C   0  0  0  0  0  3  0  0  0  0  0  0
  187.8840  177.4820  145.7310 C   0  0  1  0  0  3  0  0  0  0  0  0
  189.0260  177.2560  146.3920 C   0  0  1  0  0  3  0  0  0  0  0  0
  190.2870  177.3640  145.6100 C   0  0  0  0  0  0  0  0  0  0  0  0
  186.7100  177.9970  146.3370 N   0  0  0  0  0  2  0  0  0  0  0  0
  186.0470  178.6250  145.2380 C   0  0  0  0  0  0  0  0  0  0  0  0
  189.0710  178.2530  148.7410 C   0  0  0  0  0  1  0  0  0  0  0  0
  189.0090  177.1300  147.8200 N   0  0  0  0  0  2  0  0  0  0  0  0
  1 17  1  0  0  0  0
  2 12  1  0  0  0  0
  2  5  1  0  0  0  0
  4 12  1  0  0  0  0
  4 13  1  6  0  0  0
  5  6  1  0  0  0  0
  5  9  1  1  0  0  0
  6  1  1  0  0  0  0
  7  4  1  0  0  0  0
 10  3  1  6  0  0  0
 10 11  1  0  0  0  0
 10  7  1  0  0  0  0
 11  8  1  0  0  0  0
 12  8  1  6  0  0  0
 12  5  1  0  0  0  0
 13  6  1  0  0  0  0
 15 16  1  6  0  0  0
 15 14  1  0  0  0  0
 15  7  1  0  0  0  0
 17 18  2  0  0  0  0
 19 23  1  0  0  0  0
 19 29  2  0  0  0  0
 21 23  1  0  0  0  0
 21 24  2  0  0  0  0
 23 20  1  6  0  0  0
 23 25  1  0  0  0  0
 24 27  1  0  0  0  0
 25 28  1  1  0  0  0
 25 26  1  0  0  0  0
 26 31  1  1  0  0  0
 27 22  2  0  0  0  0
 27 26  1  0  0  0  0
 29 18  1  0  0  0  0
 29 28  1  0  0  0  0
 31 30  1  0  0  0  0
M  END
>  <MODEL>
4

>  <REMARK>
 VINA RESULT:      -7.9      1.975      2.950
  Name = 
  5 active torsions:
  status: ('A' for Active; 'I' for Inactive)
    1  A    between atoms: N_7  and  C_30
    2  A    between atoms: N_8  and  P_12
    3  A    between atoms: C_16  and  C_30
    4  A    between atoms: C_22  and  N_24
    5  A    between atoms: C_26  and  C_31
                            x       y       z     vdW  Elec       q    Type
                         _______ _______ _______ _____ _____    ______ ____

>  <TORSDO>
F 5

$$$$
=
 OpenBabel10222415293D

 31 35  0  0  1  0  0  0  0  0999 V2000
  188.9100  177.0090  139.0190 C   0  0  0  0  0  2  0  0  0  0  0  0
  190.1940  176.8490  135.4510 C   0  0  0  0  0  2  0  0  0  0  0  0
  193.0230  172.4040  136.1750 C   0  0  0  0  0  1  0  0  0  0  0  0
  191.0330  175.3070  137.4350 C   0  0  2  0  0  3  0  0  0  0  0  0
  189.3010  176.7170  136.6700 C   0  0  1  0  0  0  0  0  0  0  0  0
  189.8180  177.3110  137.9170 N   0  0  0  0  0  0  0  0  0  0  0  0
  192.2850  174.6320  137.0600 N   0  0  0  0  0  0  0  0  0  0  0  0
  189.6930  174.3310  135.4870 C   0  0  0  0  0  2  0  0  0  0  0  0
  187.9220  176.6030  136.4630 O   0  0  0  0  0  1  0  0  0  0  0  0
  191.8660  173.3540  136.4260 C   0  0  1  0  0  3  0  0  0  0  0  0
  190.9680  173.5280  135.1720 C   0  0  0  0  0  2  0  0  0  0  0  0
  190.1350  175.5500  136.2620 C   0  0  1  0  0  0  0  0  0  0  0  0
  191.0870  176.6160  138.2030 C   0  0  0  0  0  2  0  0  0  0  0  0
  193.9300  176.7520  137.1880 N   0  0  0  0  0  1  0  0  0  0  0  0
  193.2850  175.6520  135.9230 P   0  0  1  0  0  0  0  0  0  0  0  0
  194.6910  174.6320  135.9330 O   0  0  0  0  0  1  0  0  0  0  0  0
  188.1230  178.2300  139.3630 C   0  0  0  0  0  3  0  0  0  0  0  0
  187.8640  178.6360  140.6080 C   0  0  0  0  0  3  0  0  0  0  0  0
  189.6140  177.7680  142.0250 N   0  0  0  0  0  0  0  0  0  0  0  0
  190.1820  175.6270  143.0240 C   0  0  0  0  0  1  0  0  0  0  0  0
  190.8320  177.7180  144.1780 C   0  0  0  0  0  3  0  0  0  0  0  0
  189.3140  177.0180  147.3290 O   0  0  0  0  0  0  0  0  0  0  0  0
  189.7990  177.0740  143.2890 C   0  0  1  0  0  0  0  0  0  0  0  0
  190.6610  177.7260  145.5080 C   0  0  0  0  0  3  0  0  0  0  0  0
  188.4320  177.1360  143.8850 C   0  0  1  0  0  3  0  0  0  0  0  0
  188.2030  177.1250  145.2040 C   0  0  1  0  0  3  0  0  0  0  0  0
  189.3900  177.2450  146.0920 C   0  0  0  0  0  0  0  0  0  0  0  0
  187.5020  177.6130  142.9260 N   0  0  0  0  0  2  0  0  0  0  0  0
  188.3500  178.0050  141.8440 C   0  0  0  0  0  0  0  0  0  0  0  0
  186.2120  178.4400  146.1090 C   0  0  0  0  0  1  0  0  0  0  0  0
  186.8590  177.2060  145.6930 N   0  0  0  0  0  2  0  0  0  0  0  0
  1 17  1  0  0  0  0
  2  5  1  0  0  0  0
  4 13  1  6  0  0  0
  5  9  1  6  0  0  0
  5  6  1  0  0  0  0
  6 13  1  0  0  0  0
  6  1  1  0  0  0  0
  7  4  1  0  0  0  0
  8 12  1  0  0  0  0
 10  3  1  6  0  0  0
 10  7  1  0  0  0  0
 11  8  1  0  0  0  0
 11 10  1  0  0  0  0
 12  2  1  6  0  0  0
 12  5  1  0  0  0  0
 12  4  1  0  0  0  0
 15 16  1  1  0  0  0
 15  7  1  0  0  0  0
 15 14  1  0  0  0  0
 17 18  2  0  0  0  0
 18 29  1  0  0  0  0
 19 23  1  0  0  0  0
 21 24  2  0  0  0  0
 23 20  1  6  0  0  0
 23 25  1  0  0  0  0
 23 21  1  0  0  0  0
 24 27  1  0  0  0  0
 25 28  1  1  0  0  0
 25 26  1  0  0  0  0
 26 31  1  6  0  0  0
 26 27  1  0  0  0  0
 27 22  2  0  0  0  0
 29 19  2  0  0  0  0
 29 28  1  0  0  0  0
 31 30  1  0  0  0  0
M  END
>  <MODEL>
5

>  <REMARK>
 VINA RESULT:      -7.9      6.200      8.458
  Name = 
  5 active torsions:
  status: ('A' for Active; 'I' for Inactive)
    1  A    between atoms: N_7  and  C_30
    2  A    between atoms: N_8  and  P_12
    3  A    between atoms: C_16  and  C_30
    4  A    between atoms: C_22  and  N_24
    5  A    between atoms: C_26  and  C_31
                            x       y       z     vdW  Elec       q    Type
                         _______ _______ _______ _____ _____    ______ ____

>  <TORSDO>
F 5

$$$$
=
 OpenBabel10222415293D

 31 35  0  0  1  0  0  0  0  0999 V2000
  186.7500  177.6160  138.8970 C   0  0  0  0  0  2  0  0  0  0  0  0
  183.6920  179.8560  139.0940 C   0  0  0  0  0  2  0  0  0  0  0  0
  180.1890  175.8540  139.1290 C   0  0  0  0  0  1  0  0  0  0  0  0
  183.6320  177.2390  138.6810 C   0  0  2  0  0  3  0  0  0  0  0  0
  184.9180  179.0500  139.4820 C   0  0  1  0  0  0  0  0  0  0  0  0
  185.6740  178.4470  138.3680 N   0  0  0  0  0  0  0  0  0  0  0  0
  182.3040  176.8320  138.1980 N   0  0  0  0  0  0  0  0  0  0  0  0
  182.7490  178.2470  140.8590 C   0  0  0  0  0  2  0  0  0  0  0  0
  185.5670  179.3780  140.6770 O   0  0  0  0  0  1  0  0  0  0  0  0
  181.5220  176.5180  139.4250 C   0  0  1  0  0  3  0  0  0  0  0  0
  181.3790  177.7070  140.4120 C   0  0  0  0  0  2  0  0  0  0  0  0
  183.5740  178.4160  139.6050 C   0  0  1  0  0  0  0  0  0  0  0  0
  184.7330  177.5440  137.6790 C   0  0  0  0  0  2  0  0  0  0  0  0
  182.3320  177.7360  135.6690 N   0  0  0  0  0  1  0  0  0  0  0  0
  181.5110  178.1480  137.2130 P   0  0  1  0  0  0  0  0  0  0  0  0
  180.0740  177.2570  136.8180 O   0  0  0  0  0  1  0  0  0  0  0  0
  188.0640  178.2650  138.6120 C   0  0  0  0  0  3  0  0  0  0  0  0
  189.0490  178.4000  139.5040 C   0  0  0  0  0  3  0  0  0  0  0  0
  190.1550  177.6620  141.5170 N   0  0  0  0  0  0  0  0  0  0  0  0
  190.2440  175.6270  142.8430 C   0  0  0  0  0  1  0  0  0  0  0  0
  190.5440  177.8180  143.9560 C   0  0  0  0  0  3  0  0  0  0  0  0
  187.9950  177.4550  146.4230 O   0  0  0  0  0  0  0  0  0  0  0  0
  189.8570  177.0980  142.8230 C   0  0  1  0  0  0  0  0  0  0  0  0
  189.9220  177.9620  145.1340 C   0  0  0  0  0  3  0  0  0  0  0  0
  188.3730  177.2330  142.8940 C   0  0  1  0  0  3  0  0  0  0  0  0
  187.6990  177.3580  144.0440 C   0  0  1  0  0  3  0  0  0  0  0  0
  188.5070  177.5550  145.2770 C   0  0  0  0  0  0  0  0  0  0  0  0
  187.8580  177.6200  141.6300 N   0  0  0  0  0  2  0  0  0  0  0  0
  189.0450  177.8920  140.8840 C   0  0  0  0  0  0  0  0  0  0  0  0
  185.5710  178.7430  144.3040 C   0  0  0  0  0  1  0  0  0  0  0  0
  186.2730  177.5010  144.0210 N   0  0  0  0  0  2  0  0  0  0  0  0
  2  5  1  0  0  0  0
  4 13  1  6  0  0  0
  4 12  1  0  0  0  0
  5 12  1  0  0  0  0
  5  9  1  1  0  0  0
  6  1  1  0  0  0  0
  6  5  1  0  0  0  0
  7  4  1  0  0  0  0
  7 10  1  0  0  0  0
 10  3  1  6  0  0  0
 10 11  1  0  0  0  0
 11  8  1  0  0  0  0
 12  2  1  6  0  0  0
 12  8  1  0  0  0  0
 13  6  1  0  0  0  0
 15 14  1  6  0  0  0
 15  7  1  0  0  0  0
 16 15  1  0  0  0  0
 17  1  1  0  0  0  0
 17 18  2  0  0  0  0
 18 29  1  0  0  0  0
 19 23  1  0  0  0  0
 21 24  2  0  0  0  0
 23 20  1  1  0  0  0
 23 25  1  0  0  0  0
 23 21  1  0  0  0  0
 24 27  1  0  0  0  0
 25 28  1  6  0  0  0
 25 26  1  0  0  0  0
 26 31  1  6  0  0  0
 26 27  1  0  0  0  0
 27 22  2  0  0  0  0
 29 19  2  0  0  0  0
 29 28  1  0  0  0  0
 31 30  1  0  0  0  0
M  END
>  <MODEL>
6

>  <REMARK>
 VINA RESULT:      -7.6      2.634      3.931
  Name = 
  5 active torsions:
  status: ('A' for Active; 'I' for Inactive)
    1  A    between atoms: N_7  and  C_30
    2  A    between atoms: N_8  and  P_12
    3  A    between atoms: C_16  and  C_30
    4  A    between atoms: C_22  and  N_24
    5  A    between atoms: C_26  and  C_31
                            x       y       z     vdW  Elec       q    Type
                         _______ _______ _______ _____ _____    ______ ____

>  <TORSDO>
F 5

$$$$
=
 OpenBabel10222415293D

 31 35  0  0  1  0  0  0  0  0999 V2000
  184.7040  178.0640  141.9990 C   0  0  0  0  0  2  0  0  0  0  0  0
  184.1980  179.7720  138.6470 C   0  0  0  0  0  2  0  0  0  0  0  0
  186.6870  176.0090  135.8300 C   0  0  0  0  0  1  0  0  0  0  0  0
  185.7270  177.6470  139.0510 C   0  0  2  0  0  3  0  0  0  0  0  0
  183.9530  178.9530  139.9000 C   0  0  1  0  0  0  0  0  0  0  0  0
  185.0280  178.9800  140.9100 N   0  0  0  0  0  0  0  0  0  0  0  0
  186.6120  177.4310  137.8960 N   0  0  0  0  0  0  0  0  0  0  0  0
  183.5730  177.4760  137.6820 C   0  0  0  0  0  2  0  0  0  0  0  0
  182.6290  178.7280  140.2880 O   0  0  0  0  0  1  0  0  0  0  0  0
  185.8500  176.5390  136.9810 C   0  0  1  0  0  3  0  0  0  0  0  0
  184.4960  177.1240  136.5010 C   0  0  0  0  0  2  0  0  0  0  0  0
  184.4150  178.2550  138.6660 C   0  0  1  0  0  0  0  0  0  0  0  0
  186.2290  178.4460  140.2410 C   0  0  0  0  0  2  0  0  0  0  0  0
  188.6790  179.1470  137.8480 N   0  0  0  0  0  1  0  0  0  0  0  0
  187.0580  179.0040  137.0850 P   0  0  1  0  0  0  0  0  0  0  0  0
  187.6830  178.3010  135.6250 O   0  0  0  0  0  1  0  0  0  0  0  0
  184.4010  178.8480  143.2330 C   0  0  0  0  0  3  0  0  0  0  0  0
  185.1900  178.8960  144.3090 C   0  0  0  0  0  3  0  0  0  0  0  0
  187.3040  178.1290  143.4360 N   0  0  0  0  0  0  0  0  0  0  0  0
  188.4630  176.0040  143.2180 C   0  0  0  0  0  1  0  0  0  0  0  0
  189.7780  178.0850  143.4810 C   0  0  0  0  0  3  0  0  0  0  0  0
  191.7170  177.0730  146.2980 O   0  0  0  0  0  0  0  0  0  0  0  0
  188.4890  177.3910  143.8420 C   0  0  1  0  0  0  0  0  0  0  0  0
  190.8350  178.0060  144.3020 C   0  0  0  0  0  3  0  0  0  0  0  0
  188.3050  177.2870  145.3180 C   0  0  1  0  0  3  0  0  0  0  0  0
  189.3230  177.1830  146.1820 C   0  0  1  0  0  3  0  0  0  0  0  0
  190.6920  177.3720  145.6310 C   0  0  0  0  0  0  0  0  0  0  0  0
  187.0040  177.7200  145.6800 N   0  0  0  0  0  2  0  0  0  0  0  0
  186.5040  178.2500  144.4510 C   0  0  0  0  0  0  0  0  0  0  0  0
  189.0460  178.2520  148.4830 C   0  0  0  0  0  1  0  0  0  0  0  0
  189.0580  177.1060  147.5880 N   0  0  0  0  0  2  0  0  0  0  0  0
  1 17  1  0  0  0  0
  2 12  1  0  0  0  0
  2  5  1  0  0  0  0
  4 13  1  1  0  0  0
  5  9  1  1  0  0  0
  5  6  1  0  0  0  0
  6  1  1  0  0  0  0
  7  4  1  0  0  0  0
 10  3  1  6  0  0  0
 10  7  1  0  0  0  0
 11 10  1  0  0  0  0
 11  8  1  0  0  0  0
 12  8  1  6  0  0  0
 12  4  1  0  0  0  0
 12  5  1  0  0  0  0
 13  6  1  0  0  0  0
 15 16  1  6  0  0  0
 15 14  1  0  0  0  0
 15  7  1  0  0  0  0
 17 18  2  0  0  0  0
 18 29  1  0  0  0  0
 19 23  1  0  0  0  0
 19 29  2  0  0  0  0
 21 23  1  0  0  0  0
 21 24  2  0  0  0  0
 23 20  1  6  0  0  0
 23 25  1  0  0  0  0
 24 27  1  0  0  0  0
 25 28  1  1  0  0  0
 25 26  1  0  0  0  0
 26 31  1  1  0  0  0
 27 26  1  0  0  0  0
 27 22  2  0  0  0  0
 29 28  1  0  0  0  0
 31 30  1  0  0  0  0
M  END
>  <MODEL>
7

>  <REMARK>
 VINA RESULT:      -7.5      2.755      4.135
  Name = 
  5 active torsions:
  status: ('A' for Active; 'I' for Inactive)
    1  A    between atoms: N_7  and  C_30
    2  A    between atoms: N_8  and  P_12
    3  A    between atoms: C_16  and  C_30
    4  A    between atoms: C_22  and  N_24
    5  A    between atoms: C_26  and  C_31
                            x       y       z     vdW  Elec       q    Type
                         _______ _______ _______ _____ _____    ______ ____

>  <TORSDO>
F 5

$$$$
=
 OpenBabel10222415293D

 31 35  0  0  1  0  0  0  0  0999 V2000
  184.8230  179.0740  143.0220 C   0  0  0  0  0  2  0  0  0  0  0  0
  183.7100  177.6950  139.6660 C   0  0  0  0  0  2  0  0  0  0  0  0
  179.1820  180.4790  139.4990 C   0  0  0  0  0  1  0  0  0  0  0  0
  182.2140  179.1880  141.2630 C   0  0  2  0  0  3  0  0  0  0  0  0
  184.4150  178.5240  140.7230 C   0  0  1  0  0  0  0  0  0  0  0  0
  184.1770  178.1240  142.1220 N   0  0  0  0  0  0  0  0  0  0  0  0
  180.8050  179.1220  140.8470 N   0  0  0  0  0  0  0  0  0  0  0  0
  183.0400  180.0870  139.0150 C   0  0  0  0  0  2  0  0  0  0  0  0
  185.6050  179.1660  140.3670 O   0  0  0  0  0  1  0  0  0  0  0  0
  180.6330  180.2330  139.8730 C   0  0  1  0  0  3  0  0  0  0  0  0
  181.5520  180.1380  138.6260 C   0  0  0  0  0  2  0  0  0  0  0  0
  183.1620  179.0550  140.1120 C   0  0  1  0  0  0  0  0  0  0  0  0
  182.7240  178.2450  142.3400 C   0  0  0  0  0  2  0  0  0  0  0  0
  179.4740  176.8860  141.5160 N   0  0  0  0  0  1  0  0  0  0  0  0
  180.3960  177.5060  140.1040 P   0  0  1  0  0  0  0  0  0  0  0  0
  178.9720  178.0330  139.2620 O   0  0  0  0  0  1  0  0  0  0  0  0
  185.0040  178.4430  144.3630 C   0  0  0  0  0  3  0  0  0  0  0  0
  186.1420  177.8890  144.7890 C   0  0  0  0  0  3  0  0  0  0  0  0
  188.5320  177.5850  144.6640 N   0  0  0  0  0  0  0  0  0  0  0  0
  190.4570  178.9310  144.0410 C   0  0  0  0  0  1  0  0  0  0  0  0
  190.5280  176.4800  143.7040 C   0  0  0  0  0  3  0  0  0  0  0  0
  191.3590  176.4970  140.2350 O   0  0  0  0  0  0  0  0  0  0  0  0
  189.6340  177.6940  143.7210 C   0  0  1  0  0  0  0  0  0  0  0  0
  191.0750  176.0660  142.5520 C   0  0  0  0  0  3  0  0  0  0  0  0
  188.9200  177.8810  142.4240 C   0  0  1  0  0  3  0  0  0  0  0  0
  189.4290  177.5070  141.2440 C   0  0  1  0  0  3  0  0  0  0  0  0
  190.6800  176.7030  141.2760 C   0  0  0  0  0  0  0  0  0  0  0  0
  187.5380  178.1010  142.6540 N   0  0  0  0  0  2  0  0  0  0  0  0
  187.4170  177.8550  144.0560 C   0  0  0  0  0  0  0  0  0  0  0  0
  189.0270  178.6450  138.9950 C   0  0  0  0  0  1  0  0  0  0  0  0
  188.6680  177.7060  140.0460 N   0  0  0  0  0  2  0  0  0  0  0  0
  1 17  1  0  0  0  0
  2 12  1  0  0  0  0
  2  5  1  0  0  0  0
  4 13  1  1  0  0  0
  5  9  1  6  0  0  0
  5  6  1  0  0  0  0
  6 13  1  0  0  0  0
  6  1  1  0  0  0  0
  7  4  1  0  0  0  0
 10  3  1  6  0  0  0
 10  7  1  0  0  0  0
 11  8  1  0  0  0  0
 11 10  1  0  0  0  0
 12  8  1  6  0  0  0
 12  5  1  0  0  0  0
 12  4  1  0  0  0  0
 15 16  1  6  0  0  0
 15  7  1  0  0  0  0
 15 14  1  0  0  0  0
 17 18  2  0  0  0  0
 21 23  1  0  0  0  0
 22 27  2  0  0  0  0
 23 20  1  1  0  0  0
 23 19  1  0  0  0  0
 24 21  2  0  0  0  0
 25 28  1  1  0  0  0
 25 23  1  0  0  0  0
 26 31  1  1  0  0  0
 26 27  1  0  0  0  0
 26 25  1  0  0  0  0
 27 24  1  0  0  0  0
 28 29  1  0  0  0  0
 29 19  2  0  0  0  0
 29 18  1  0  0  0  0
 30 31  1  0  0  0  0
M  END
>  <MODEL>
8

>  <REMARK>
 VINA RESULT:      -7.5      1.884      3.055
  Name = 
  5 active torsions:
  status: ('A' for Active; 'I' for Inactive)
    1  A    between atoms: N_7  and  C_30
    2  A    between atoms: N_8  and  P_12
    3  A    between atoms: C_16  and  C_30
    4  A    between atoms: C_22  and  N_24
    5  A    between atoms: C_26  and  C_31
                            x       y       z     vdW  Elec       q    Type
                         _______ _______ _______ _____ _____    ______ ____

>  <TORSDO>
F 5

$$$$
=
 OpenBabel10222415293D

 31 35  0  0  1  0  0  0  0  0999 V2000
  189.8020  177.9060  138.1400 C   0  0  0  0  0  2  0  0  0  0  0  0
  187.2610  177.7890  135.3230 C   0  0  0  0  0  2  0  0  0  0  0  0
  184.8390  173.3870  137.0670 C   0  0  0  0  0  1  0  0  0  0  0  0
  187.6340  175.8690  137.1100 C   0  0  2  0  0  3  0  0  0  0  0  0
  187.9650  178.1540  136.6160 C   0  0  1  0  0  0  0  0  0  0  0  0
  189.3010  177.5600  136.8140 N   0  0  0  0  0  0  0  0  0  0  0  0
  186.9820  174.6280  136.6650 N   0  0  0  0  0  0  0  0  0  0  0  0
  185.4760  177.2420  137.0870 C   0  0  0  0  0  2  0  0  0  0  0  0
  187.6420  179.3750  137.2170 O   0  0  0  0  0  1  0  0  0  0  0  0
  185.6040  174.6890  137.2210 C   0  0  1  0  0  3  0  0  0  0  0  0
  184.7780  175.9140  136.7460 C   0  0  0  0  0  2  0  0  0  0  0  0
  186.9140  177.0970  136.6460 C   0  0  1  0  0  0  0  0  0  0  0  0
  189.1030  176.0990  136.7980 C   0  0  0  0  0  2  0  0  0  0  0  0
  188.7460  174.2940  134.6660 N   0  0  0  0  0  1  0  0  0  0  0  0
  186.9680  174.4880  134.8450 P   0  0  1  0  0  0  0  0  0  0  0  0
  186.6620  172.7800  134.7830 O   0  0  0  0  0  1  0  0  0  0  0  0
  190.7990  176.8840  138.5770 C   0  0  0  0  0  3  0  0  0  0  0  0
  191.0090  176.5290  139.8460 C   0  0  0  0  0  3  0  0  0  0  0  0
  188.9730  177.0680  141.0230 N   0  0  0  0  0  0  0  0  0  0  0  0
  187.9630  179.0530  141.9940 C   0  0  0  0  0  1  0  0  0  0  0  0
  187.4780  176.8360  142.9820 C   0  0  0  0  0  3  0  0  0  0  0  0
  188.4290  177.5870  146.3360 O   0  0  0  0  0  0  0  0  0  0  0  0
  188.5160  177.6640  142.2680 C   0  0  1  0  0  0  0  0  0  0  0  0
  187.4640  176.7860  144.3210 C   0  0  0  0  0  3  0  0  0  0  0  0
  189.7820  177.7670  143.0510 C   0  0  1  0  0  3  0  0  0  0  0  0
  189.8240  177.7450  144.3890 C   0  0  1  0  0  3  0  0  0  0  0  0
  188.5570  177.4140  145.0950 C   0  0  0  0  0  0  0  0  0  0  0  0
  190.8950  177.4760  142.2210 N   0  0  0  0  0  2  0  0  0  0  0  0
  190.2710  177.0220  141.0190 C   0  0  0  0  0  0  0  0  0  0  0  0
  191.6820  176.7480  145.8270 C   0  0  0  0  0  1  0  0  0  0  0  0
  191.0860  177.8320  145.0630 N   0  0  0  0  0  2  0  0  0  0  0  0
  1 17  1  0  0  0  0
  2  5  1  0  0  0  0
  4 13  1  6  0  0  0
  5 12  1  0  0  0  0
  5  6  1  0  0  0  0
  5  9  1  1  0  0  0
  6  1  1  0  0  0  0
  7  4  1  0  0  0  0
  7 10  1  0  0  0  0
 10  3  1  6  0  0  0
 11  8  1  0  0  0  0
 11 10  1  0  0  0  0
 12  2  1  6  0  0  0
 12  8  1  0  0  0  0
 12  4  1  0  0  0  0
 13  6  1  0  0  0  0
 15 14  1  1  0  0  0
 15  7  1  0  0  0  0
 16 15  1  0  0  0  0
 17 18  2  0  0  0  0
 18 29  1  0  0  0  0
 19 23  1  0  0  0  0
 21 24  2  0  0  0  0
 23 20  1  6  0  0  0
 23 21  1  0  0  0  0
 23 25  1  0  0  0  0
 24 27  1  0  0  0  0
 25 28  1  6  0  0  0
 25 26  1  0  0  0  0
 26 31  1  6  0  0  0
 26 27  1  0  0  0  0
 27 22  2  0  0  0  0
 29 19  2  0  0  0  0
 29 28  1  0  0  0  0
 31 30  1  0  0  0  0
M  END
>  <MODEL>
9

>  <REMARK>
 VINA RESULT:      -7.5      4.893      6.387
  Name = 
  5 active torsions:
  status: ('A' for Active; 'I' for Inactive)
    1  A    between atoms: N_7  and  C_30
    2  A    between atoms: N_8  and  P_12
    3  A    between atoms: C_16  and  C_30
    4  A    between atoms: C_22  and  N_24
    5  A    between atoms: C_26  and  C_31
                            x       y       z     vdW  Elec       q    Type
                         _______ _______ _______ _____ _____    ______ ____

>  <TORSDO>
F 5

$$$$
