=
 OpenBabel10222418283D

 28 30  0  0  0  0  0  0  0  0999 V2000
  189.0110  177.3170  140.5880 C   0  0  0  0  0  0  0  0  0  0  0  0
  187.4340  178.5120  141.3850 C   0  0  0  0  0  0  0  0  0  0  0  0
  189.6920  175.9410  142.6670 C   0  0  0  0  0  1  0  0  0  0  0  0
  188.8960  176.9630  141.9270 C   0  0  0  0  0  0  0  0  0  0  0  0
  188.1250  178.2450  140.3000 O   0  0  0  0  0  0  0  0  0  0  0  0
  187.8610  177.7270  142.4400 C   0  0  0  0  0  0  0  0  0  0  0  0
  185.9890  177.8150  144.0540 C   0  0  0  0  0  3  0  0  0  0  0  0
  187.6820  177.6940  146.2550 C   0  0  0  0  0  0  0  0  0  0  0  0
  187.3700  177.7450  143.8370 C   0  0  0  0  0  0  0  0  0  0  0  0
  189.9150  177.6190  147.2020 C   0  0  0  0  0  3  0  0  0  0  0  0
  188.5280  177.6480  147.3770 C   0  0  0  0  0  0  0  0  0  0  0  0
  186.3310  177.7520  146.4150 N   0  0  0  0  0  0  0  0  0  0  0  0
  185.4850  177.8160  145.3530 C   0  0  0  0  0  3  0  0  0  0  0  0
  190.4650  177.6380  145.9190 C   0  0  0  0  0  3  0  0  0  0  0  0
  187.9790  177.6380  148.7630 C   0  0  0  0  0  1  0  0  0  0  0  0
  188.2370  177.6950  144.9510 C   0  0  0  0  0  0  0  0  0  0  0  0
  189.6320  177.6790  144.8010 C   0  0  0  0  0  3  0  0  0  0  0  0
  189.9560  176.7760  139.5980 C   0  0  0  0  0  0  0  0  0  0  0  0
  191.1940  176.9180  139.7870 O   0  0  0  0  0  0  0  0  0  0  0  0
  189.4820  176.0930  138.4350 N   0  0  0  0  0  2  0  0  0  0  0  0
  189.5880  174.7710  135.9050 C   0  0  0  0  0  1  0  0  0  0  0  0
  191.4460  176.5210  136.7120 O   0  0  0  0  0  0  0  0  0  0  0  0
  191.3790  174.3400  137.8480 O   0  0  0  0  0  0  0  0  0  0  0  0
  190.5500  175.4380  137.2410 S   0  0  0  0  0  0  0  0  0  0  0  0
  186.4110  179.5040  141.4530 N   0  0  0  0  0  2  0  0  0  0  0  0
  185.0210  179.1750  141.1980 C   0  0  0  0  0  2  0  0  0  0  0  0
  184.8240  178.9390  139.7160 C   0  0  0  0  0  2  0  0  0  0  0  0
  184.2950  180.1430  139.1020 N   0  0  0  0  0  1  0  0  0  0  0  0
  1  4  2  0  0  0  0
  2 25  1  0  0  0  0
  2  6  2  0  0  0  0
  4  6  1  0  0  0  0
  4  3  1  0  0  0  0
  5  1  1  0  0  0  0
  5  2  1  0  0  0  0
  6  9  1  0  0  0  0
  7 13  1  0  0  0  0
  8 12  1  0  0  0  0
  8 11  1  0  0  0  0
  9  7  2  0  0  0  0
  9 16  1  0  0  0  0
 10 11  2  0  0  0  0
 11 15  1  0  0  0  0
 13 12  2  0  0  0  0
 14 10  1  0  0  0  0
 16  8  2  0  0  0  0
 17 16  1  0  0  0  0
 17 14  2  0  0  0  0
 18 19  2  0  0  0  0
 18  1  1  0  0  0  0
 20 18  1  0  0  0  0
 21 24  1  0  0  0  0
 22 24  2  0  0  0  0
 24 23  2  0  0  0  0
 24 20  1  0  0  0  0
 26 25  1  0  0  0  0
 27 26  1  0  0  0  0
 28 27  1  0  0  0  0
M  END
>  <MODEL>
1

>  <REMARK>
 VINA RESULT:      -8.8      0.000      0.000
  Name = 
  6 active torsions:
  status: ('A' for Active; 'I' for Inactive)
    1  A    between atoms: C_1  and  C_5
    2  A    between atoms: C_4  and  C_11
    3  A    between atoms: C_9  and  C_27
    4  A    between atoms: C_11  and  N_28
    5  A    between atoms: C_13  and  N_28
    6  A    between atoms: S_20  and  N_25
                            x       y       z     vdW  Elec       q    Type
                         _______ _______ _______ _____ _____    ______ ____

>  <TORSDO>
F 6

$$$$
=
 OpenBabel10222418283D

 28 30  0  0  0  0  0  0  0  0999 V2000
  185.1000  178.6670  143.0890 C   0  0  0  0  0  0  0  0  0  0  0  0
  186.9400  178.6810  142.0100 C   0  0  0  0  0  0  0  0  0  0  0  0
  185.7460  177.2580  145.1570 C   0  0  0  0  0  1  0  0  0  0  0  0
  185.9970  177.9220  143.8440 C   0  0  0  0  0  0  0  0  0  0  0  0
  185.6950  179.1020  142.0000 O   0  0  0  0  0  0  0  0  0  0  0  0
  187.1970  177.9440  143.1520 C   0  0  0  0  0  0  0  0  0  0  0  0
  189.1400  176.5420  142.5420 C   0  0  0  0  0  3  0  0  0  0  0  0
  190.2210  176.6610  145.0980 C   0  0  0  0  0  0  0  0  0  0  0  0
  188.4580  177.2660  143.5260 C   0  0  0  0  0  0  0  0  0  0  0  0
  190.1000  177.3790  147.4140 C   0  0  0  0  0  3  0  0  0  0  0  0
  190.7710  176.7020  146.3920 C   0  0  0  0  0  0  0  0  0  0  0  0
  190.8530  175.9790  144.1040 N   0  0  0  0  0  0  0  0  0  0  0  0
  190.3400  175.9040  142.8480 C   0  0  0  0  0  3  0  0  0  0  0  0
  188.8830  178.0150  147.1570 C   0  0  0  0  0  3  0  0  0  0  0  0
  192.0620  176.0250  146.7080 C   0  0  0  0  0  1  0  0  0  0  0  0
  188.9960  177.3210  144.8310 C   0  0  0  0  0  0  0  0  0  0  0  0
  188.3330  177.9840  145.8760 C   0  0  0  0  0  3  0  0  0  0  0  0
  183.6910  178.9560  143.4030 C   0  0  0  0  0  0  0  0  0  0  0  0
  183.4080  179.5370  144.4850 O   0  0  0  0  0  0  0  0  0  0  0  0
  182.6520  178.5860  142.4940 N   0  0  0  0  0  2  0  0  0  0  0  0
  179.9910  178.1030  141.5750 C   0  0  0  0  0  1  0  0  0  0  0  0
  180.6110  178.3630  144.1660 O   0  0  0  0  0  0  0  0  0  0  0  0
  180.7260  180.3830  142.7680 O   0  0  0  0  0  0  0  0  0  0  0  0
  180.9810  178.9030  142.8140 S   0  0  0  0  0  0  0  0  0  0  0  0
  187.8730  178.9290  140.9600 N   0  0  0  0  0  2  0  0  0  0  0  0
  187.7530  178.2710  139.6720 C   0  0  0  0  0  2  0  0  0  0  0  0
  189.0530  178.4180  138.9100 C   0  0  0  0  0  2  0  0  0  0  0  0
  188.8690  179.3580  137.8200 N   0  0  0  0  0  1  0  0  0  0  0  0
  1 18  1  0  0  0  0
  1  4  2  0  0  0  0
  2  6  2  0  0  0  0
  4  3  1  0  0  0  0
  5  2  1  0  0  0  0
  5  1  1  0  0  0  0
  6  9  1  0  0  0  0
  6  4  1  0  0  0  0
  7 13  2  0  0  0  0
  7  9  1  0  0  0  0
  8 11  1  0  0  0  0
  9 16  2  0  0  0  0
 11 15  1  0  0  0  0
 11 10  2  0  0  0  0
 12  8  2  0  0  0  0
 13 12  1  0  0  0  0
 14 10  1  0  0  0  0
 16  8  1  0  0  0  0
 16 17  1  0  0  0  0
 17 14  2  0  0  0  0
 18 19  2  0  0  0  0
 20 24  1  0  0  0  0
 20 18  1  0  0  0  0
 21 24  1  0  0  0  0
 23 24  2  0  0  0  0
 24 22  2  0  0  0  0
 25  2  1  0  0  0  0
 26 25  1  0  0  0  0
 27 26  1  0  0  0  0
 28 27  1  0  0  0  0
M  END
>  <MODEL>
2

>  <REMARK>
 VINA RESULT:      -8.8      3.958      6.237
  Name = 
  6 active torsions:
  status: ('A' for Active; 'I' for Inactive)
    1  A    between atoms: C_1  and  C_5
    2  A    between atoms: C_4  and  C_11
    3  A    between atoms: C_9  and  C_27
    4  A    between atoms: C_11  and  N_28
    5  A    between atoms: C_13  and  N_28
    6  A    between atoms: S_20  and  N_25
                            x       y       z     vdW  Elec       q    Type
                         _______ _______ _______ _____ _____    ______ ____

>  <TORSDO>
F 6

$$$$
=
 OpenBabel10222418283D

 28 30  0  0  0  0  0  0  0  0999 V2000
  188.4300  177.6560  139.2290 C   0  0  0  0  0  0  0  0  0  0  0  0
  187.5350  178.4980  140.9720 C   0  0  0  0  0  0  0  0  0  0  0  0
  190.6750  176.8040  140.1840 C   0  0  0  0  0  1  0  0  0  0  0  0
  189.3430  177.4720  140.2600 C   0  0  0  0  0  0  0  0  0  0  0  0
  187.3640  178.2730  139.6890 O   0  0  0  0  0  0  0  0  0  0  0  0
  188.7550  178.0040  141.3960 C   0  0  0  0  0  0  0  0  0  0  0  0
  190.6860  178.4560  142.8740 C   0  0  0  0  0  3  0  0  0  0  0  0
  189.2340  177.9270  145.1840 C   0  0  0  0  0  0  0  0  0  0  0  0
  189.3420  178.0850  142.7530 C   0  0  0  0  0  0  0  0  0  0  0  0
  187.1820  177.2330  146.2780 C   0  0  0  0  0  3  0  0  0  0  0  0
  188.5140  177.6470  146.3590 C   0  0  0  0  0  0  0  0  0  0  0  0
  190.5410  178.3020  145.2500 N   0  0  0  0  0  0  0  0  0  0  0  0
  191.2700  178.5610  144.1340 C   0  0  0  0  0  3  0  0  0  0  0  0
  186.5610  177.0930  145.0350 C   0  0  0  0  0  3  0  0  0  0  0  0
  189.1460  177.7740  147.7040 C   0  0  0  0  0  1  0  0  0  0  0  0
  188.6010  177.8030  143.9220 C   0  0  0  0  0  0  0  0  0  0  0  0
  187.2660  177.3730  143.8650 C   0  0  0  0  0  3  0  0  0  0  0  0
  188.5770  177.2490  137.8220 C   0  0  0  0  0  0  0  0  0  0  0  0
  189.2020  177.9990  137.0250 O   0  0  0  0  0  0  0  0  0  0  0  0
  188.0190  176.0170  137.3590 N   0  0  0  0  0  2  0  0  0  0  0  0
  187.3480  173.9230  135.5360 C   0  0  0  0  0  1  0  0  0  0  0  0
  187.5150  176.4920  134.8040 O   0  0  0  0  0  0  0  0  0  0  0  0
  189.6140  175.3360  135.3570 O   0  0  0  0  0  0  0  0  0  0  0  0
  188.1630  175.4910  135.7160 S   0  0  0  0  0  0  0  0  0  0  0  0
  186.5940  179.1900  141.7910 N   0  0  0  0  0  2  0  0  0  0  0  0
  185.2070  179.3390  141.3890 C   0  0  0  0  0  2  0  0  0  0  0  0
  184.3920  178.2010  141.9650 C   0  0  0  0  0  2  0  0  0  0  0  0
  183.7700  178.6320  143.2040 N   0  0  0  0  0  1  0  0  0  0  0  0
  1  5  1  0  0  0  0
  1  4  2  0  0  0  0
  2  6  2  0  0  0  0
  2 25  1  0  0  0  0
  3  4  1  0  0  0  0
  4  6  1  0  0  0  0
  5  2  1  0  0  0  0
  6  9  1  0  0  0  0
  7 13  1  0  0  0  0
  8 12  1  0  0  0  0
  8 11  1  0  0  0  0
  9  7  2  0  0  0  0
  9 16  1  0  0  0  0
 10 11  2  0  0  0  0
 11 15  1  0  0  0  0
 13 12  2  0  0  0  0
 14 10  1  0  0  0  0
 16  8  2  0  0  0  0
 17 16  1  0  0  0  0
 17 14  2  0  0  0  0
 18  1  1  0  0  0  0
 19 18  2  0  0  0  0
 20 18  1  0  0  0  0
 21 24  1  0  0  0  0
 22 24  2  0  0  0  0
 23 24  2  0  0  0  0
 24 20  1  0  0  0  0
 26 25  1  0  0  0  0
 26 27  1  0  0  0  0
 27 28  1  0  0  0  0
M  END
>  <MODEL>
3

>  <REMARK>
 VINA RESULT:      -8.2      1.985      2.868
  Name = 
  6 active torsions:
  status: ('A' for Active; 'I' for Inactive)
    1  A    between atoms: C_1  and  C_5
    2  A    between atoms: C_4  and  C_11
    3  A    between atoms: C_9  and  C_27
    4  A    between atoms: C_11  and  N_28
    5  A    between atoms: C_13  and  N_28
    6  A    between atoms: S_20  and  N_25
                            x       y       z     vdW  Elec       q    Type
                         _______ _______ _______ _____ _____    ______ ____

>  <TORSDO>
F 6

$$$$
=
 OpenBabel10222418283D

 28 30  0  0  0  0  0  0  0  0999 V2000
  190.4920  176.8000  139.9020 C   0  0  0  0  0  0  0  0  0  0  0  0
  190.1310  177.7440  141.7810 C   0  0  0  0  0  0  0  0  0  0  0  0
  188.1180  176.7950  138.8830 C   0  0  0  0  0  1  0  0  0  0  0  0
  189.1310  177.0760  139.9410 C   0  0  0  0  0  0  0  0  0  0  0  0
  191.0570  177.2100  141.0170 O   0  0  0  0  0  0  0  0  0  0  0  0
  188.8980  177.7030  141.1540 C   0  0  0  0  0  0  0  0  0  0  0  0
  186.7360  178.8580  140.8270 C   0  0  0  0  0  3  0  0  0  0  0  0
  185.9220  178.3970  143.4440 C   0  0  0  0  0  0  0  0  0  0  0  0
  187.5970  178.1660  141.6870 C   0  0  0  0  0  0  0  0  0  0  0  0
  186.3540  177.5320  145.6710 C   0  0  0  0  0  3  0  0  0  0  0  0
  185.5060  178.1820  144.7700 C   0  0  0  0  0  0  0  0  0  0  0  0
  185.1150  179.0550  142.5670 N   0  0  0  0  0  0  0  0  0  0  0  0
  185.4940  179.2940  141.2850 C   0  0  0  0  0  3  0  0  0  0  0  0
  187.6160  177.0960  145.2620 C   0  0  0  0  0  3  0  0  0  0  0  0
  184.1710  178.6440  145.2470 C   0  0  0  0  0  1  0  0  0  0  0  0
  187.1950  177.9390  143.0210 C   0  0  0  0  0  0  0  0  0  0  0  0
  188.0350  177.3000  143.9470 C   0  0  0  0  0  3  0  0  0  0  0  0
  191.2420  176.1510  138.8150 C   0  0  0  0  0  0  0  0  0  0  0  0
  190.8180  175.0650  138.3360 O   0  0  0  0  0  0  0  0  0  0  0  0
  192.4380  176.7420  138.3020 N   0  0  0  0  0  2  0  0  0  0  0  0
  194.0660  174.5000  137.6060 C   0  0  0  0  0  1  0  0  0  0  0  0
  192.4610  175.7330  135.8540 O   0  0  0  0  0  0  0  0  0  0  0  0
  194.4620  176.9510  136.6060 O   0  0  0  0  0  0  0  0  0  0  0  0
  193.3570  176.0220  137.0240 S   0  0  0  0  0  0  0  0  0  0  0  0
  190.3760  178.2570  143.0890 N   0  0  0  0  0  2  0  0  0  0  0  0
  191.6260  177.9990  143.7790 C   0  0  0  0  0  2  0  0  0  0  0  0
  191.4910  176.7430  144.6130 C   0  0  0  0  0  2  0  0  0  0  0  0
  191.7420  177.0590  146.0070 N   0  0  0  0  0  1  0  0  0  0  0  0
  1  4  2  0  0  0  0
  1  5  1  0  0  0  0
  2 25  1  0  0  0  0
  3  4  1  0  0  0  0
  4  6  1  0  0  0  0
  5  2  1  0  0  0  0
  6  9  1  0  0  0  0
  6  2  2  0  0  0  0
  7 13  2  0  0  0  0
  7  9  1  0  0  0  0
  8 11  1  0  0  0  0
  9 16  2  0  0  0  0
 11 15  1  0  0  0  0
 11 10  2  0  0  0  0
 12  8  2  0  0  0  0
 13 12  1  0  0  0  0
 14 10  1  0  0  0  0
 16  8  1  0  0  0  0
 16 17  1  0  0  0  0
 17 14  2  0  0  0  0
 18  1  1  0  0  0  0
 19 18  2  0  0  0  0
 20 18  1  0  0  0  0
 22 24  2  0  0  0  0
 23 24  2  0  0  0  0
 24 21  1  0  0  0  0
 24 20  1  0  0  0  0
 25 26  1  0  0  0  0
 26 27  1  0  0  0  0
 27 28  1  0  0  0  0
M  END
>  <MODEL>
4

>  <REMARK>
 VINA RESULT:      -8.2      2.194      4.282
  Name = 
  6 active torsions:
  status: ('A' for Active; 'I' for Inactive)
    1  A    between atoms: C_1  and  C_5
    2  A    between atoms: C_4  and  C_11
    3  A    between atoms: C_9  and  C_27
    4  A    between atoms: C_11  and  N_28
    5  A    between atoms: C_13  and  N_28
    6  A    between atoms: S_20  and  N_25
                            x       y       z     vdW  Elec       q    Type
                         _______ _______ _______ _____ _____    ______ ____

>  <TORSDO>
F 6

$$$$
=
 OpenBabel10222418283D

 28 30  0  0  0  0  0  0  0  0999 V2000
  184.5310  178.8690  140.4310 C   0  0  0  0  0  0  0  0  0  0  0  0
  186.6450  178.6470  140.5980 C   0  0  0  0  0  0  0  0  0  0  0  0
  183.7640  178.1120  142.7800 C   0  0  0  0  0  1  0  0  0  0  0  0
  184.7700  178.3940  141.7150 C   0  0  0  0  0  0  0  0  0  0  0  0
  185.6720  179.0060  139.7920 O   0  0  0  0  0  0  0  0  0  0  0  0
  186.1440  178.2660  141.8290 C   0  0  0  0  0  0  0  0  0  0  0  0
  187.9470  176.8600  142.7720 C   0  0  0  0  0  3  0  0  0  0  0  0
  187.3990  177.6410  145.3820 C   0  0  0  0  0  0  0  0  0  0  0  0
  186.9010  177.7620  142.9980 C   0  0  0  0  0  0  0  0  0  0  0  0
  186.0590  178.8830  146.9790 C   0  0  0  0  0  3  0  0  0  0  0  0
  187.1220  178.0170  146.7080 C   0  0  0  0  0  0  0  0  0  0  0  0
  188.4130  176.7750  145.1100 N   0  0  0  0  0  0  0  0  0  0  0  0
  188.6960  176.3770  143.8430 C   0  0  0  0  0  3  0  0  0  0  0  0
  185.2680  179.3770  145.9390 C   0  0  0  0  0  3  0  0  0  0  0  0
  187.9360  177.5030  147.8460 C   0  0  0  0  0  1  0  0  0  0  0  0
  186.6090  178.1540  144.3230 C   0  0  0  0  0  0  0  0  0  0  0  0
  185.5390  179.0120  144.6200 C   0  0  0  0  0  3  0  0  0  0  0  0
  183.2280  179.1850  139.8230 C   0  0  0  0  0  0  0  0  0  0  0  0
  182.2990  178.3350  139.8800 O   0  0  0  0  0  0  0  0  0  0  0  0
  183.0130  180.4400  139.1740 N   0  0  0  0  0  2  0  0  0  0  0  0
  181.5530  182.5670  137.9470 C   0  0  0  0  0  1  0  0  0  0  0  0
  181.2640  180.0030  137.2350 O   0  0  0  0  0  0  0  0  0  0  0  0
  180.3870  180.6710  139.4340 O   0  0  0  0  0  0  0  0  0  0  0  0
  181.5020  180.8620  138.4440 S   0  0  0  0  0  0  0  0  0  0  0  0
  188.0220  178.6270  140.2240 N   0  0  0  0  0  2  0  0  0  0  0  0
  188.5080  177.7430  139.1810 C   0  0  0  0  0  2  0  0  0  0  0  0
  189.4330  178.5120  138.2610 C   0  0  0  0  0  2  0  0  0  0  0  0
  188.6480  179.3770  137.4000 N   0  0  0  0  0  1  0  0  0  0  0  0
  1  4  2  0  0  0  0
  2  6  2  0  0  0  0
  4  6  1  0  0  0  0
  4  3  1  0  0  0  0
  5  1  1  0  0  0  0
  5  2  1  0  0  0  0
  6  9  1  0  0  0  0
  7  9  2  0  0  0  0
  7 13  1  0  0  0  0
  8 11  1  0  0  0  0
  9 16  1  0  0  0  0
 11 10  2  0  0  0  0
 11 15  1  0  0  0  0
 12  8  1  0  0  0  0
 13 12  2  0  0  0  0
 14 10  1  0  0  0  0
 16 17  1  0  0  0  0
 16  8  2  0  0  0  0
 17 14  2  0  0  0  0
 18 19  2  0  0  0  0
 18  1  1  0  0  0  0
 20 18  1  0  0  0  0
 21 24  1  0  0  0  0
 22 24  2  0  0  0  0
 24 20  1  0  0  0  0
 24 23  2  0  0  0  0
 25  2  1  0  0  0  0
 26 25  1  0  0  0  0
 27 26  1  0  0  0  0
 28 27  1  0  0  0  0
M  END
>  <MODEL>
5

>  <REMARK>
 VINA RESULT:      -8.0      3.629      5.914
  Name = 
  6 active torsions:
  status: ('A' for Active; 'I' for Inactive)
    1  A    between atoms: C_1  and  C_5
    2  A    between atoms: C_4  and  C_11
    3  A    between atoms: C_9  and  C_27
    4  A    between atoms: C_11  and  N_28
    5  A    between atoms: C_13  and  N_28
    6  A    between atoms: S_20  and  N_25
                            x       y       z     vdW  Elec       q    Type
                         _______ _______ _______ _____ _____    ______ ____

>  <TORSDO>
F 6

$$$$
=
 OpenBabel10222418283D

 28 30  0  0  0  0  0  0  0  0999 V2000
  188.2130  177.8280  140.6820 C   0  0  0  0  0  0  0  0  0  0  0  0
  188.7960  176.7530  142.4290 C   0  0  0  0  0  0  0  0  0  0  0  0
  186.3800  179.3770  141.6380 C   0  0  0  0  0  1  0  0  0  0  0  0
  187.4190  178.3100  141.7150 C   0  0  0  0  0  0  0  0  0  0  0  0
  189.0210  176.8990  141.1430 O   0  0  0  0  0  0  0  0  0  0  0  0
  187.8080  177.6240  142.8530 C   0  0  0  0  0  0  0  0  0  0  0  0
  185.8500  177.8790  144.3420 C   0  0  0  0  0  3  0  0  0  0  0  0
  187.4060  177.8520  146.6440 C   0  0  0  0  0  0  0  0  0  0  0  0
  187.2380  177.7510  144.2140 C   0  0  0  0  0  0  0  0  0  0  0  0
  189.5760  177.7700  147.7270 C   0  0  0  0  0  3  0  0  0  0  0  0
  188.1840  177.8550  147.8150 C   0  0  0  0  0  0  0  0  0  0  0  0
  186.0510  177.9640  146.7180 N   0  0  0  0  0  0  0  0  0  0  0  0
  185.2720  177.9830  145.6060 C   0  0  0  0  0  3  0  0  0  0  0  0
  190.2010  177.6860  146.4810 C   0  0  0  0  0  3  0  0  0  0  0  0
  187.5550  177.9550  149.1640 C   0  0  0  0  0  1  0  0  0  0  0  0
  188.0360  177.7480  145.3790 C   0  0  0  0  0  0  0  0  0  0  0  0
  189.4360  177.6780  145.3140 C   0  0  0  0  0  3  0  0  0  0  0  0
  188.1980  178.2500  139.2710 C   0  0  0  0  0  0  0  0  0  0  0  0
  189.0120  179.1290  138.8820 O   0  0  0  0  0  0  0  0  0  0  0  0
  187.2730  177.6710  138.3490 N   0  0  0  0  0  2  0  0  0  0  0  0
  188.6600  177.5130  135.8570 C   0  0  0  0  0  1  0  0  0  0  0  0
  185.9890  177.5420  136.0370 O   0  0  0  0  0  0  0  0  0  0  0  0
  187.1810  179.6280  136.5660 O   0  0  0  0  0  0  0  0  0  0  0  0
  187.2120  178.1290  136.6810 S   0  0  0  0  0  0  0  0  0  0  0  0
  189.4640  175.7970  143.2510 N   0  0  0  0  0  2  0  0  0  0  0  0
  190.8720  175.4990  143.0710 C   0  0  0  0  0  2  0  0  0  0  0  0
  191.6790  176.7710  143.2190 C   0  0  0  0  0  2  0  0  0  0  0  0
  192.1080  177.2250  141.9090 N   0  0  0  0  0  1  0  0  0  0  0  0
  1  5  1  0  0  0  0
  1  4  2  0  0  0  0
  2  6  2  0  0  0  0
  2 25  1  0  0  0  0
  3  4  1  0  0  0  0
  4  6  1  0  0  0  0
  5  2  1  0  0  0  0
  6  9  1  0  0  0  0
  7 13  1  0  0  0  0
  8 12  1  0  0  0  0
  8 11  1  0  0  0  0
  9  7  2  0  0  0  0
  9 16  1  0  0  0  0
 10 11  2  0  0  0  0
 11 15  1  0  0  0  0
 13 12  2  0  0  0  0
 14 10  1  0  0  0  0
 16  8  2  0  0  0  0
 17 16  1  0  0  0  0
 17 14  2  0  0  0  0
 18  1  1  0  0  0  0
 19 18  2  0  0  0  0
 20 18  1  0  0  0  0
 21 24  1  0  0  0  0
 22 24  2  0  0  0  0
 23 24  2  0  0  0  0
 24 20  1  0  0  0  0
 26 27  1  0  0  0  0
 26 25  1  0  0  0  0
 28 27  1  0  0  0  0
M  END
>  <MODEL>
6

>  <REMARK>
 VINA RESULT:      -8.0      2.246      3.727
  Name = 
  6 active torsions:
  status: ('A' for Active; 'I' for Inactive)
    1  A    between atoms: C_1  and  C_5
    2  A    between atoms: C_4  and  C_11
    3  A    between atoms: C_9  and  C_27
    4  A    between atoms: C_11  and  N_28
    5  A    between atoms: C_13  and  N_28
    6  A    between atoms: S_20  and  N_25
                            x       y       z     vdW  Elec       q    Type
                         _______ _______ _______ _____ _____    ______ ____

>  <TORSDO>
F 6

$$$$
=
 OpenBabel10222418283D

 28 30  0  0  0  0  0  0  0  0999 V2000
  187.8260  177.9930  140.7350 C   0  0  0  0  0  0  0  0  0  0  0  0
  189.4030  176.8170  141.5580 C   0  0  0  0  0  0  0  0  0  0  0  0
  188.8180  178.6170  138.4320 C   0  0  0  0  0  1  0  0  0  0  0  0
  188.8320  177.9710  139.7770 C   0  0  0  0  0  0  0  0  0  0  0  0
  188.2020  177.2960  141.7850 O   0  0  0  0  0  0  0  0  0  0  0  0
  189.8500  177.1940  140.3040 C   0  0  0  0  0  0  0  0  0  0  0  0
  192.3020  177.5040  140.2130 C   0  0  0  0  0  3  0  0  0  0  0  0
  192.5930  175.7720  138.0600 C   0  0  0  0  0  0  0  0  0  0  0  0
  191.1600  176.8940  139.6820 C   0  0  0  0  0  0  0  0  0  0  0  0
  191.6310  174.3130  136.3760 C   0  0  0  0  0  3  0  0  0  0  0  0
  192.7510  174.9090  136.9610 C   0  0  0  0  0  0  0  0  0  0  0  0
  193.6750  176.3810  138.6180 N   0  0  0  0  0  0  0  0  0  0  0  0
  193.5560  177.2340  139.6680 C   0  0  0  0  0  3  0  0  0  0  0  0
  190.3530  174.5710  136.8750 C   0  0  0  0  0  3  0  0  0  0  0  0
  194.0980  174.6170  136.3920 C   0  0  0  0  0  1  0  0  0  0  0  0
  191.2990  176.0220  138.5800 C   0  0  0  0  0  0  0  0  0  0  0  0
  190.1870  175.4220  137.9680 C   0  0  0  0  0  3  0  0  0  0  0  0
  186.5230  178.6730  140.6480 C   0  0  0  0  0  0  0  0  0  0  0  0
  186.2520  179.5910  141.4670 O   0  0  0  0  0  0  0  0  0  0  0  0
  185.5730  178.3010  139.6480 N   0  0  0  0  0  2  0  0  0  0  0  0
  183.0770  178.2230  138.2600 C   0  0  0  0  0  1  0  0  0  0  0  0
  183.3000  178.9970  140.8130 O   0  0  0  0  0  0  0  0  0  0  0  0
  184.2090  180.5020  139.0920 O   0  0  0  0  0  0  0  0  0  0  0  0
  184.0280  179.0670  139.5010 S   0  0  0  0  0  0  0  0  0  0  0  0
  190.1450  176.0450  142.5010 N   0  0  0  0  0  2  0  0  0  0  0  0
  190.4610  176.5640  143.8190 C   0  0  0  0  0  2  0  0  0  0  0  0
  191.6180  177.5330  143.7140 C   0  0  0  0  0  2  0  0  0  0  0  0
  191.1450  178.8800  143.9730 N   0  0  0  0  0  1  0  0  0  0  0  0
  1  5  1  0  0  0  0
  2  5  1  0  0  0  0
  2 25  1  0  0  0  0
  3  4  1  0  0  0  0
  4  6  1  0  0  0  0
  4  1  2  0  0  0  0
  6  2  2  0  0  0  0
  8 16  1  0  0  0  0
  8 12  2  0  0  0  0
  9  7  1  0  0  0  0
  9  6  1  0  0  0  0
 10 14  1  0  0  0  0
 10 11  2  0  0  0  0
 11  8  1  0  0  0  0
 12 13  1  0  0  0  0
 13  7  2  0  0  0  0
 14 17  2  0  0  0  0
 15 11  1  0  0  0  0
 16  9  2  0  0  0  0
 17 16  1  0  0  0  0
 18  1  1  0  0  0  0
 18 19  2  0  0  0  0
 20 18  1  0  0  0  0
 21 24  1  0  0  0  0
 23 24  2  0  0  0  0
 24 20  1  0  0  0  0
 24 22  2  0  0  0  0
 25 26  1  0  0  0  0
 27 26  1  0  0  0  0
 27 28  1  0  0  0  0
M  END
>  <MODEL>
7

>  <REMARK>
 VINA RESULT:      -8.0      3.595      7.767
  Name = 
  6 active torsions:
  status: ('A' for Active; 'I' for Inactive)
    1  A    between atoms: C_1  and  C_5
    2  A    between atoms: C_4  and  C_11
    3  A    between atoms: C_9  and  C_27
    4  A    between atoms: C_11  and  N_28
    5  A    between atoms: C_13  and  N_28
    6  A    between atoms: S_20  and  N_25
                            x       y       z     vdW  Elec       q    Type
                         _______ _______ _______ _____ _____    ______ ____

>  <TORSDO>
F 6

$$$$
=
 OpenBabel10222418283D

 28 30  0  0  0  0  0  0  0  0999 V2000
  184.5790  178.8770  142.3550 C   0  0  0  0  0  0  0  0  0  0  0  0
  185.2920  178.6630  140.3560 C   0  0  0  0  0  0  0  0  0  0  0  0
  182.0390  178.5460  142.0150 C   0  0  0  0  0  1  0  0  0  0  0  0
  183.4580  178.6470  141.5660 C   0  0  0  0  0  0  0  0  0  0  0  0
  185.6560  178.8820  141.5990 O   0  0  0  0  0  0  0  0  0  0  0  0
  183.9230  178.4910  140.2710 C   0  0  0  0  0  0  0  0  0  0  0  0
  183.1260  176.9840  138.4800 C   0  0  0  0  0  3  0  0  0  0  0  0
  181.5760  178.9630  137.2950 C   0  0  0  0  0  0  0  0  0  0  0  0
  183.1140  178.2610  139.0520 C   0  0  0  0  0  0  0  0  0  0  0  0
  180.7940  181.2580  137.1950 C   0  0  0  0  0  3  0  0  0  0  0  0
  180.7990  179.9590  136.6790 C   0  0  0  0  0  0  0  0  0  0  0  0
  181.6110  177.7020  136.7820 N   0  0  0  0  0  0  0  0  0  0  0  0
  182.3640  176.7210  137.3430 C   0  0  0  0  0  3  0  0  0  0  0  0
  181.5580  181.5730  138.3210 C   0  0  0  0  0  3  0  0  0  0  0  0
  179.9790  179.6650  135.4680 C   0  0  0  0  0  1  0  0  0  0  0  0
  182.3380  179.2740  138.4490 C   0  0  0  0  0  0  0  0  0  0  0  0
  182.3270  180.5890  138.9420 C   0  0  0  0  0  3  0  0  0  0  0  0
  184.6190  179.0920  143.8100 C   0  0  0  0  0  0  0  0  0  0  0  0
  183.7810  179.8680  144.3420 O   0  0  0  0  0  0  0  0  0  0  0  0
  185.5950  178.4280  144.6170 N   0  0  0  0  0  2  0  0  0  0  0  0
  187.1290  177.8090  146.9460 C   0  0  0  0  0  1  0  0  0  0  0  0
  185.7880  180.1070  146.6550 O   0  0  0  0  0  0  0  0  0  0  0  0
  184.4640  178.0610  146.9840 O   0  0  0  0  0  0  0  0  0  0  0  0
  185.6860  178.6440  146.3320 S   0  0  0  0  0  0  0  0  0  0  0  0
  186.1980  178.6430  139.2540 N   0  0  0  0  0  2  0  0  0  0  0  0
  187.5860  178.2550  139.4230 C   0  0  0  0  0  2  0  0  0  0  0  0
  188.2380  178.1140  138.0640 C   0  0  0  0  0  2  0  0  0  0  0  0
  187.5910  179.0100  137.1240 N   0  0  0  0  0  1  0  0  0  0  0  0
  1 18  1  0  0  0  0
  2  5  1  0  0  0  0
  4  3  1  0  0  0  0
  4  1  2  0  0  0  0
  5  1  1  0  0  0  0
  6  2  2  0  0  0  0
  6  4  1  0  0  0  0
  7  9  1  0  0  0  0
  8 16  1  0  0  0  0
  9  6  1  0  0  0  0
 10 14  1  0  0  0  0
 11 10  2  0  0  0  0
 11  8  1  0  0  0  0
 12  8  2  0  0  0  0
 12 13  1  0  0  0  0
 13  7  2  0  0  0  0
 14 17  2  0  0  0  0
 15 11  1  0  0  0  0
 16 17  1  0  0  0  0
 16  9  2  0  0  0  0
 18 19  2  0  0  0  0
 18 20  1  0  0  0  0
 20 24  1  0  0  0  0
 24 22  2  0  0  0  0
 24 21  1  0  0  0  0
 24 23  2  0  0  0  0
 25 26  1  0  0  0  0
 25  2  1  0  0  0  0
 27 26  1  0  0  0  0
 28 27  1  0  0  0  0
M  END
>  <MODEL>
8

>  <REMARK>
 VINA RESULT:      -7.6      4.321      9.029
  Name = 
  6 active torsions:
  status: ('A' for Active; 'I' for Inactive)
    1  A    between atoms: C_1  and  C_5
    2  A    between atoms: C_4  and  C_11
    3  A    between atoms: C_9  and  C_27
    4  A    between atoms: C_11  and  N_28
    5  A    between atoms: C_13  and  N_28
    6  A    between atoms: S_20  and  N_25
                            x       y       z     vdW  Elec       q    Type
                         _______ _______ _______ _____ _____    ______ ____

>  <TORSDO>
F 6

$$$$
=
 OpenBabel10222418283D

 28 30  0  0  0  0  0  0  0  0999 V2000
  188.2730  177.8380  141.7410 C   0  0  0  0  0  0  0  0  0  0  0  0
  188.9770  178.3910  139.8050 C   0  0  0  0  0  0  0  0  0  0  0  0
  190.1150  176.1870  142.4870 C   0  0  0  0  0  1  0  0  0  0  0  0
  189.4520  177.1300  141.5400 C   0  0  0  0  0  0  0  0  0  0  0  0
  188.0190  178.5780  140.6840 O   0  0  0  0  0  0  0  0  0  0  0  0
  189.9180  177.5010  140.2900 C   0  0  0  0  0  0  0  0  0  0  0  0
  192.3700  177.5250  139.9690 C   0  0  0  0  0  3  0  0  0  0  0  0
  192.2820  175.5700  137.9960 C   0  0  0  0  0  0  0  0  0  0  0  0
  191.1270  176.9980  139.6000 C   0  0  0  0  0  0  0  0  0  0  0  0
  191.0240  174.0700  136.5610 C   0  0  0  0  0  3  0  0  0  0  0  0
  192.2490  174.5920  136.9870 C   0  0  0  0  0  0  0  0  0  0  0  0
  193.4680  176.1060  138.3960 N   0  0  0  0  0  0  0  0  0  0  0  0
  193.5330  177.0650  139.3560 C   0  0  0  0  0  3  0  0  0  0  0  0
  189.8310  174.5160  137.1320 C   0  0  0  0  0  3  0  0  0  0  0  0
  193.5010  174.0980  136.3450 C   0  0  0  0  0  1  0  0  0  0  0  0
  191.0740  176.0120  138.5900 C   0  0  0  0  0  0  0  0  0  0  0  0
  189.8550  175.4830  138.1380 C   0  0  0  0  0  3  0  0  0  0  0  0
  187.4000  177.8050  142.9250 C   0  0  0  0  0  0  0  0  0  0  0  0
  186.1570  177.6710  142.7720 O   0  0  0  0  0  0  0  0  0  0  0  0
  187.9520  177.9210  144.2390 N   0  0  0  0  0  2  0  0  0  0  0  0
  188.0270  177.8760  147.0940 C   0  0  0  0  0  1  0  0  0  0  0  0
  186.0970  179.1080  145.7080 O   0  0  0  0  0  0  0  0  0  0  0  0
  186.1210  176.6490  145.6700 O   0  0  0  0  0  0  0  0  0  0  0  0
  186.9720  177.8880  145.6650 S   0  0  0  0  0  0  0  0  0  0  0  0
  189.0060  179.0030  138.5160 N   0  0  0  0  0  2  0  0  0  0  0  0
  188.1460  178.5440  137.4420 C   0  0  0  0  0  2  0  0  0  0  0  0
  188.9860  178.2370  136.2220 C   0  0  0  0  0  2  0  0  0  0  0  0
  188.1960  177.4780  135.2700 N   0  0  0  0  0  1  0  0  0  0  0  0
  1 18  1  0  0  0  0
  2  6  2  0  0  0  0
  2  5  1  0  0  0  0
  4  1  2  0  0  0  0
  4  3  1  0  0  0  0
  5  1  1  0  0  0  0
  6  4  1  0  0  0  0
  8 12  2  0  0  0  0
  8 16  1  0  0  0  0
  9  7  1  0  0  0  0
  9  6  1  0  0  0  0
 10 11  2  0  0  0  0
 10 14  1  0  0  0  0
 11  8  1  0  0  0  0
 12 13  1  0  0  0  0
 13  7  2  0  0  0  0
 14 17  2  0  0  0  0
 15 11  1  0  0  0  0
 16  9  2  0  0  0  0
 17 16  1  0  0  0  0
 18 20  1  0  0  0  0
 19 18  2  0  0  0  0
 20 24  1  0  0  0  0
 24 23  2  0  0  0  0
 24 22  2  0  0  0  0
 24 21  1  0  0  0  0
 25  2  1  0  0  0  0
 26 25  1  0  0  0  0
 27 26  1  0  0  0  0
 28 27  1  0  0  0  0
M  END
>  <MODEL>
9

>  <REMARK>
 VINA RESULT:      -7.6      3.326      7.794
  Name = 
  6 active torsions:
  status: ('A' for Active; 'I' for Inactive)
    1  A    between atoms: C_1  and  C_5
    2  A    between atoms: C_4  and  C_11
    3  A    between atoms: C_9  and  C_27
    4  A    between atoms: C_11  and  N_28
    5  A    between atoms: C_13  and  N_28
    6  A    between atoms: S_20  and  N_25
                            x       y       z     vdW  Elec       q    Type
                         _______ _______ _______ _____ _____    ______ ____

>  <TORSDO>
F 6

$$$$
