=
 OpenBabel10222415323D

 54 59  0  0  1  0  0  0  0  0999 V2000
  183.9470  177.3350  139.4690 C   0  0  0  0  0  2  0  0  0  0  0  0
  183.8810  172.2920  135.4080 N   0  0  0  0  0  2  0  0  0  0  0  0
  184.8790  173.2880  135.7840 C   0  0  1  0  0  3  0  0  0  0  0  0
  182.1150  174.4820  137.0690 N   0  0  0  0  0  0  0  0  0  0  0  0
  186.8640  173.7750  137.2100 C   0  0  0  0  0  2  0  0  0  0  0  0
  180.9510  177.0210  140.7690 C   0  0  2  0  0  3  0  0  0  0  0  0
  179.3940  173.2180  135.5820 C   0  0  0  0  0  1  0  0  0  0  0  0
  184.5730  177.9300  138.2010 C   0  0  2  0  0  3  0  0  0  0  0  0
  180.1200  173.5500  137.8750 N   0  0  0  0  0  2  0  0  0  0  0  0
  183.1570  178.3390  140.3410 C   0  0  2  0  0  0  0  0  0  0  0  0
  183.4110  180.1740  138.5590 C   0  0  0  0  0  2  0  0  0  0  0  0
  186.6280  178.1810  137.3580 C   0  0  0  0  0  2  0  0  0  0  0  0
  181.2860  175.1190  139.2180 C   0  0  0  0  0  0  0  0  0  0  0  0
  185.7340  172.7870  136.9430 C   0  0  0  0  0  2  0  0  0  0  0  0
  180.4260  172.8550  136.6320 C   0  0  2  0  0  3  0  0  0  0  0  0
  182.8270  172.2520  136.4160 C   0  0  0  0  0  2  0  0  0  0  0  0
  188.1770  176.6030  136.2500 C   0  0  0  0  0  2  0  0  0  0  0  0
  188.2920  172.9240  135.4690 O   0  0  0  0  0  1  0  0  0  0  0  0
  185.8480  178.4360  138.4930 O   0  0  0  0  0  0  0  0  0  0  0  0
  181.1100  174.5370  138.0610 C   0  0  0  0  0  0  0  0  0  0  0  0
  181.6510  178.1840  140.0480 C   0  0  0  0  0  2  0  0  0  0  0  0
  183.6730  179.0120  137.5940 C   0  0  0  0  0  2  0  0  0  0  0  0
  187.3610  176.8600  137.5060 C   0  0  0  0  0  2  0  0  0  0  0  0
  187.6350  174.0830  135.9110 C   0  0  1  0  0  0  0  0  0  0  0  0
  181.8100  173.3630  136.1870 C   0  0  2  0  0  3  0  0  0  0  0  0
  181.4590  175.6580  140.3960 C   0  0  0  0  0  3  0  0  0  0  0  0
  183.5600  179.7900  140.0340 C   0  0  0  0  0  2  0  0  0  0  0  0
  185.7940  173.5520  134.5940 C   0  0  0  0  0  2  0  0  0  0  0  0
  182.7850  175.6750  136.5800 C   0  0  0  0  0  1  0  0  0  0  0  0
  186.7440  174.5510  134.9070 O   0  0  0  0  0  0  0  0  0  0  0  0
  188.7040  175.1670  136.1550 C   0  0  2  0  0  3  0  0  0  0  0  0
  178.9380  177.9130  139.5000 C   0  0  0  0  0  1  0  0  0  0  0  0
  179.4260  177.1340  140.7120 C   0  0  0  0  0  2  0  0  0  0  0  0
  189.8970  173.6810  137.5710 O   0  0  0  0  0  0  0  0  0  0  0  0
  189.7360  174.8330  137.1990 C   0  0  0  0  0  0  0  0  0  0  0  0
  190.5660  175.9310  137.7810 C   0  0  0  0  0  2  0  0  0  0  0  0
  192.0410  175.5990  137.6470 C   0  0  0  0  0  1  0  0  0  0  0  0
  183.4350  178.0830  141.8300 C   0  0  0  0  0  2  0  0  0  0  0  0
  184.3750  179.1130  142.4500 C   0  0  0  0  0  2  0  0  0  0  0  0
  185.6860  179.0200  141.8270 N   0  0  0  0  0  2  0  0  0  0  0  0
  187.7230  177.9450  141.5700 O   0  0  0  0  0  0  0  0  0  0  0  0
  186.7450  178.1910  142.3220 C   0  0  0  0  0  0  0  0  0  0  0  0
  185.7450  177.8260  144.4510 O   0  0  0  0  0  0  0  0  0  0  0  0
  186.7230  177.6200  143.6850 C   0  0  0  0  0  0  0  0  0  0  0  0
  187.8670  176.7860  144.1770 C   0  0  0  0  0  2  0  0  0  0  0  0
  188.0000  178.1370  146.3030 C   0  0  0  0  0  2  0  0  0  0  0  0
  189.5040  178.6180  144.4440 N   0  0  0  0  0  2  0  0  0  0  0  0
  189.7190  176.7360  147.2480 C   0  0  0  0  0  2  0  0  0  0  0  0
  190.7230  178.0420  143.8990 C   0  0  0  0  0  2  0  0  0  0  0  0
  188.3810  178.1800  148.7600 C   0  0  0  0  0  1  0  0  0  0  0  0
  188.3460  177.3060  147.5210 C   0  0  1  0  0  3  0  0  0  0  0  0
  191.4540  176.9680  145.1570 S   0  0  0  0  0  0  0  0  0  0  0  0
  188.7890  177.5480  145.1390 C   0  0  2  0  0  0  0  0  0  0  0  0
  189.7890  176.5690  145.7440 C   0  0  2  0  0  3  0  0  0  0  0  0
  1 10  1  0  0  0  0
  2  3  1  0  0  0  0
  2 16  1  0  0  0  0
  3 28  1  6  0  0  0
  3 14  1  0  0  0  0
  4 20  1  0  0  0  0
  6 33  1  6  0  0  0
  8 22  1  1  0  0  0
  8 19  1  0  0  0  0
  8  1  1  0  0  0  0
  9 20  1  0  0  0  0
 10 38  1  1  0  0  0
 11 27  1  0  0  0  0
 12 23  1  0  0  0  0
 12 19  1  0  0  0  0
 13 26  2  0  0  0  0
 14  5  1  0  0  0  0
 15  7  1  6  0  0  0
 15  9  1  0  0  0  0
 17 23  1  0  0  0  0
 20 13  2  0  0  0  0
 21 10  1  0  0  0  0
 21  6  1  0  0  0  0
 22 11  1  0  0  0  0
 24 18  1  6  0  0  0
 24 31  1  0  0  0  0
 24  5  1  0  0  0  0
 25 16  1  1  0  0  0
 25 15  1  0  0  0  0
 25  4  1  0  0  0  0
 26  6  1  0  0  0  0
 27 10  1  0  0  0  0
 28 30  1  0  0  0  0
 29  4  1  0  0  0  0
 30 24  1  0  0  0  0
 31 17  1  0  0  0  0
 31 35  1  1  0  0  0
 32 33  1  0  0  0  0
 35 34  2  0  0  0  0
 35 36  1  0  0  0  0
 37 36  1  0  0  0  0
 38 39  1  0  0  0  0
 40 42  1  0  0  0  0
 40 39  1  0  0  0  0
 41 42  2  0  0  0  0
 42 44  1  0  0  0  0
 44 45  1  0  0  0  0
 44 43  2  0  0  0  0
 46 51  1  0  0  0  0
 47 53  1  0  0  0  0
 48 51  1  0  0  0  0
 49 47  1  0  0  0  0
 49 52  1  0  0  0  0
 51 50  1  1  0  0  0
 52 54  1  0  0  0  0
 53 45  1  6  0  0  0
 53 54  1  0  0  0  0
 53 46  1  0  0  0  0
 54 48  1  1  0  0  0
M  END
>  <MODEL>
1

>  <REMARK>
 VINA RESULT:      -7.9      0.000      0.000
  Name = 
  9 active torsions:
  status: ('A' for Active; 'I' for Inactive)
    1  A    between atoms: N_1  and  C_45
    2  A    between atoms: C_2  and  C_18
    3  A    between atoms: C_2  and  C_45
    4  A    between atoms: C_8  and  C_36
    5  A    between atoms: C_13  and  C_50
    6  A    between atoms: C_38  and  C_39
    7  A    between atoms: C_39  and  C_41
    8  A    between atoms: C_41  and  C_48
    9  A    between atoms: C_50  and  C_53
                            x       y       z     vdW  Elec       q    Type
                         _______ _______ _______ _____ _____    ______ ____

>  <TORSDO>
F 9

$$$$
=
 OpenBabel10222415323D

 54 59  0  0  1  0  0  0  0  0999 V2000
  183.9450  177.3220  139.4290 C   0  0  0  0  0  2  0  0  0  0  0  0
  184.8460  172.6450  135.0420 N   0  0  0  0  0  2  0  0  0  0  0  0
  185.6960  173.6790  135.6240 C   0  0  1  0  0  3  0  0  0  0  0  0
  182.6950  174.5510  136.5990 N   0  0  0  0  0  0  0  0  0  0  0  0
  187.4270  174.1910  137.3410 C   0  0  0  0  0  2  0  0  0  0  0  0
  180.8410  176.6770  140.2770 C   0  0  2  0  0  3  0  0  0  0  0  0
  180.3120  173.2160  134.6620 C   0  0  0  0  0  1  0  0  0  0  0  0
  184.6790  178.0660  138.3060 C   0  0  2  0  0  3  0  0  0  0  0  0
  180.6990  173.4080  137.0520 N   0  0  0  0  0  2  0  0  0  0  0  0
  182.9640  178.1870  140.2550 C   0  0  2  0  0  0  0  0  0  0  0  0
  183.2930  180.1800  138.6630 C   0  0  0  0  0  2  0  0  0  0  0  0
  186.7980  178.5400  137.7750 C   0  0  0  0  0  2  0  0  0  0  0  0
  181.5390  174.9420  138.6530 C   0  0  0  0  0  0  0  0  0  0  0  0
  186.4310  173.1470  136.8500 C   0  0  0  0  0  2  0  0  0  0  0  0
  181.2240  172.8440  135.8150 C   0  0  2  0  0  3  0  0  0  0  0  0
  183.6750  172.4430  135.8900 C   0  0  0  0  0  2  0  0  0  0  0  0
  188.6080  177.1800  136.7800 C   0  0  0  0  0  2  0  0  0  0  0  0
  189.1390  173.5990  135.7570 O   0  0  0  0  0  1  0  0  0  0  0  0
  185.8560  178.6400  138.8080 O   0  0  0  0  0  0  0  0  0  0  0  0
  181.5670  174.4480  137.4440 C   0  0  0  0  0  0  0  0  0  0  0  0
  181.5280  177.9460  139.7460 C   0  0  0  0  0  2  0  0  0  0  0  0
  183.7780  179.1240  137.6620 C   0  0  0  0  0  2  0  0  0  0  0  0
  187.6150  177.2690  137.9260 C   0  0  0  0  0  2  0  0  0  0  0  0
  188.3330  174.6640  136.1870 C   0  0  1  0  0  0  0  0  0  0  0  0
  182.6060  173.4890  135.6040 C   0  0  2  0  0  3  0  0  0  0  0  0
  181.5090  175.3920  139.8800 C   0  0  0  0  0  3  0  0  0  0  0  0
  183.2790  179.6860  140.1130 C   0  0  0  0  0  2  0  0  0  0  0  0
  186.7340  174.1090  134.5940 C   0  0  0  0  0  2  0  0  0  0  0  0
  183.3190  175.8270  136.2950 C   0  0  0  0  0  1  0  0  0  0  0  0
  187.5460  175.1470  135.1060 O   0  0  0  0  0  0  0  0  0  0  0  0
  189.2640  175.8010  136.6550 C   0  0  2  0  0  3  0  0  0  0  0  0
  178.9310  177.6140  138.8870 C   0  0  0  0  0  1  0  0  0  0  0  0
  179.3330  176.6800  140.0190 C   0  0  0  0  0  2  0  0  0  0  0  0
  190.8320  174.4290  137.7940 O   0  0  0  0  0  0  0  0  0  0  0  0
  190.1740  175.4590  137.8030 C   0  0  0  0  0  0  0  0  0  0  0  0
  190.2660  176.3950  138.9650 C   0  0  0  0  0  2  0  0  0  0  0  0
  191.7200  176.6770  139.2960 C   0  0  0  0  0  1  0  0  0  0  0  0
  183.0640  177.8290  141.7450 C   0  0  0  0  0  2  0  0  0  0  0  0
  183.4610  179.0150  142.6210 C   0  0  0  0  0  2  0  0  0  0  0  0
  183.2810  178.6700  144.0230 N   0  0  0  0  0  2  0  0  0  0  0  0
  184.0670  178.6190  146.2020 O   0  0  0  0  0  0  0  0  0  0  0  0
  184.3500  178.6320  144.9770 C   0  0  0  0  0  0  0  0  0  0  0  0
  186.0830  178.4390  143.3560 O   0  0  0  0  0  0  0  0  0  0  0  0
  185.7690  178.6060  144.5640 C   0  0  0  0  0  0  0  0  0  0  0  0
  186.8580  178.7780  145.5800 C   0  0  0  0  0  2  0  0  0  0  0  0
  187.8250  176.8130  144.3270 C   0  0  0  0  0  2  0  0  0  0  0  0
  187.4080  176.6590  146.7260 N   0  0  0  0  0  2  0  0  0  0  0  0
  190.0980  177.4380  144.8280 C   0  0  0  0  0  2  0  0  0  0  0  0
  188.0660  177.1110  147.9410 C   0  0  0  0  0  2  0  0  0  0  0  0
  189.6670  175.8950  142.9320 C   0  0  0  0  0  1  0  0  0  0  0  0
  189.1640  177.1110  143.6860 C   0  0  1  0  0  3  0  0  0  0  0  0
  189.7750  177.5400  147.5330 S   0  0  0  0  0  0  0  0  0  0  0  0
  187.8010  177.5690  145.6510 C   0  0  2  0  0  0  0  0  0  0  0  0
  189.2230  178.0670  145.8920 C   0  0  2  0  0  3  0  0  0  0  0  0
  1 10  1  0  0  0  0
  2  3  1  0  0  0  0
  2 16  1  0  0  0  0
  3 28  1  6  0  0  0
  3 14  1  0  0  0  0
  4 20  1  0  0  0  0
  6 33  1  6  0  0  0
  8 22  1  1  0  0  0
  8 19  1  0  0  0  0
  8  1  1  0  0  0  0
  9 20  1  0  0  0  0
 10 38  1  1  0  0  0
 11 27  1  0  0  0  0
 12 23  1  0  0  0  0
 12 19  1  0  0  0  0
 13 26  2  0  0  0  0
 14  5  1  0  0  0  0
 15  7  1  6  0  0  0
 15  9  1  0  0  0  0
 17 23  1  0  0  0  0
 20 13  2  0  0  0  0
 21 10  1  0  0  0  0
 21  6  1  0  0  0  0
 22 11  1  0  0  0  0
 24 18  1  6  0  0  0
 24 31  1  0  0  0  0
 24  5  1  0  0  0  0
 25 15  1  0  0  0  0
 25 16  1  1  0  0  0
 25  4  1  0  0  0  0
 26  6  1  0  0  0  0
 27 10  1  0  0  0  0
 28 30  1  0  0  0  0
 29  4  1  0  0  0  0
 30 24  1  0  0  0  0
 31 17  1  0  0  0  0
 31 35  1  1  0  0  0
 32 33  1  0  0  0  0
 34 35  2  0  0  0  0
 35 36  1  0  0  0  0
 36 37  1  0  0  0  0
 38 39  1  0  0  0  0
 39 40  1  0  0  0  0
 40 42  1  0  0  0  0
 42 41  2  0  0  0  0
 43 44  2  0  0  0  0
 44 42  1  0  0  0  0
 44 45  1  0  0  0  0
 46 53  1  0  0  0  0
 47 49  1  0  0  0  0
 51 50  1  1  0  0  0
 51 46  1  0  0  0  0
 51 48  1  0  0  0  0
 52 49  1  0  0  0  0
 53 45  1  6  0  0  0
 53 54  1  0  0  0  0
 53 47  1  0  0  0  0
 54 48  1  6  0  0  0
 54 52  1  0  0  0  0
M  END
>  <MODEL>
2

>  <REMARK>
 VINA RESULT:      -7.1      1.306      2.013
  Name = 
  9 active torsions:
  status: ('A' for Active; 'I' for Inactive)
    1  A    between atoms: N_1  and  C_45
    2  A    between atoms: C_2  and  C_18
    3  A    between atoms: C_2  and  C_45
    4  A    between atoms: C_8  and  C_36
    5  A    between atoms: C_13  and  C_50
    6  A    between atoms: C_38  and  C_39
    7  A    between atoms: C_39  and  C_41
    8  A    between atoms: C_41  and  C_48
    9  A    between atoms: C_50  and  C_53
                            x       y       z     vdW  Elec       q    Type
                         _______ _______ _______ _____ _____    ______ ____

>  <TORSDO>
F 9

$$$$
=
 OpenBabel10222415323D

 54 59  0  0  1  0  0  0  0  0999 V2000
  187.9010  176.9760  138.7030 C   0  0  0  0  0  2  0  0  0  0  0  0
  181.9840  177.9380  141.1500 N   0  0  0  0  0  2  0  0  0  0  0  0
  182.4990  177.5690  139.8350 C   0  0  1  0  0  3  0  0  0  0  0  0
  185.1880  178.5080  141.4490 N   0  0  0  0  0  0  0  0  0  0  0  0
  182.9570  175.6950  138.2570 C   0  0  0  0  0  2  0  0  0  0  0  0
  189.6860  177.3870  141.4250 C   0  0  2  0  0  3  0  0  0  0  0  0
  184.4590  180.4740  144.0590 C   0  0  0  0  0  1  0  0  0  0  0  0
  187.2470  177.8630  137.6340 C   0  0  2  0  0  3  0  0  0  0  0  0
  185.8560  178.5210  143.6960 N   0  0  0  0  0  2  0  0  0  0  0  0
  189.4330  177.1440  138.8440 C   0  0  2  0  0  0  0  0  0  0  0  0
  189.4230  179.1290  137.2090 C   0  0  0  0  0  2  0  0  0  0  0  0
  186.0790  177.5600  135.7530 C   0  0  0  0  0  2  0  0  0  0  0  0
  187.3020  177.5820  142.0680 C   0  0  0  0  0  0  0  0  0  0  0  0
  182.5690  176.0530  139.6880 C   0  0  0  0  0  2  0  0  0  0  0  0
  184.4830  179.0080  143.6720 C   0  0  2  0  0  3  0  0  0  0  0  0
  183.0090  177.6980  142.1600 C   0  0  0  0  0  2  0  0  0  0  0  0
  183.7200  176.9430  135.3410 C   0  0  0  0  0  2  0  0  0  0  0  0
  180.7280  175.9210  137.3800 O   0  0  0  0  0  1  0  0  0  0  0  0
  187.2750  177.2100  136.3940 O   0  0  0  0  0  0  0  0  0  0  0  0
  186.2470  178.2950  142.3600 C   0  0  0  0  0  0  0  0  0  0  0  0
  189.7290  178.0640  140.0460 C   0  0  0  0  0  2  0  0  0  0  0  0
  187.9330  179.2310  137.5550 C   0  0  0  0  0  2  0  0  0  0  0  0
  185.0070  176.5210  136.0280 C   0  0  0  0  0  2  0  0  0  0  0  0
  182.0360  176.4100  137.2490 C   0  0  1  0  0  0  0  0  0  0  0  0
  184.0000  178.8540  142.2190 C   0  0  2  0  0  3  0  0  0  0  0  0
  188.3420  176.8350  141.8080 C   0  0  0  0  0  3  0  0  0  0  0  0
  190.0470  177.7820  137.5870 C   0  0  0  0  0  2  0  0  0  0  0  0
  181.5610  178.1110  138.7620 C   0  0  0  0  0  2  0  0  0  0  0  0
  185.4110  179.0380  140.1150 C   0  0  0  0  0  1  0  0  0  0  0  0
  182.0560  177.8150  137.4710 O   0  0  0  0  0  0  0  0  0  0  0  0
  182.4980  176.1410  135.8020 C   0  0  2  0  0  3  0  0  0  0  0  0
  191.5190  177.5860  143.1740 C   0  0  0  0  0  1  0  0  0  0  0  0
  190.3180  178.2510  142.5180 C   0  0  0  0  0  2  0  0  0  0  0  0
  183.5340  174.0150  135.5960 O   0  0  0  0  0  0  0  0  0  0  0  0
  182.5370  174.6930  135.3960 C   0  0  0  0  0  0  0  0  0  0  0  0
  181.3390  174.0860  134.7390 C   0  0  0  0  0  2  0  0  0  0  0  0
  180.8650  172.8800  135.5280 C   0  0  0  0  0  1  0  0  0  0  0  0
  190.1010  175.7770  139.0460 C   0  0  0  0  0  2  0  0  0  0  0  0
  191.2070  175.4930  138.0330 C   0  0  0  0  0  2  0  0  0  0  0  0
  190.9530  174.2220  137.3730 N   0  0  0  0  0  2  0  0  0  0  0  0
  191.5730  172.5750  135.8650 O   0  0  0  0  0  0  0  0  0  0  0  0
  191.6370  173.7890  136.1900 C   0  0  0  0  0  0  0  0  0  0  0  0
  191.8570  175.7310  134.8310 O   0  0  0  0  0  0  0  0  0  0  0  0
  192.4100  174.7220  135.3450 C   0  0  0  0  0  0  0  0  0  0  0  0
  193.8660  174.4810  135.0840 C   0  0  0  0  0  2  0  0  0  0  0  0
  194.6040  174.8390  137.4700 C   0  0  0  0  0  2  0  0  0  0  0  0
  194.5130  176.7170  135.9160 N   0  0  0  0  0  2  0  0  0  0  0  0
  196.9390  174.5880  136.9300 C   0  0  0  0  0  2  0  0  0  0  0  0
  195.3410  177.2330  134.8380 C   0  0  0  0  0  2  0  0  0  0  0  0
  196.2150  174.3050  139.2870 C   0  0  0  0  0  1  0  0  0  0  0  0
  195.8500  174.0610  137.8360 C   0  0  1  0  0  3  0  0  0  0  0  0
  196.9890  176.5050  134.9910 S   0  0  0  0  0  0  0  0  0  0  0  0
  194.7790  175.2830  136.0220 C   0  0  2  0  0  0  0  0  0  0  0  0
  196.2330  175.0010  135.6550 C   0  0  2  0  0  3  0  0  0  0  0  0
  1 10  1  0  0  0  0
  2 16  1  0  0  0  0
  3 28  1  6  0  0  0
  3  2  1  0  0  0  0
  4 25  1  0  0  0  0
  4 20  1  0  0  0  0
  5 14  1  0  0  0  0
  6 26  1  0  0  0  0
  6 33  1  1  0  0  0
  8 22  1  6  0  0  0
  8  1  1  0  0  0  0
 10 38  1  1  0  0  0
 10 21  1  0  0  0  0
 11 22  1  0  0  0  0
 11 27  1  0  0  0  0
 12 23  1  0  0  0  0
 12 19  1  0  0  0  0
 13 20  2  0  0  0  0
 14  3  1  0  0  0  0
 15  9  1  0  0  0  0
 15  7  1  6  0  0  0
 17 31  1  0  0  0  0
 17 23  1  0  0  0  0
 19  8  1  0  0  0  0
 20  9  1  0  0  0  0
 21  6  1  0  0  0  0
 24 18  1  1  0  0  0
 24 30  1  0  0  0  0
 24  5  1  0  0  0  0
 25 16  1  1  0  0  0
 25 15  1  0  0  0  0
 26 13  2  0  0  0  0
 27 10  1  0  0  0  0
 29  4  1  0  0  0  0
 30 28  1  0  0  0  0
 31 35  1  1  0  0  0
 31 24  1  0  0  0  0
 33 32  1  0  0  0  0
 35 34  2  0  0  0  0
 36 35  1  0  0  0  0
 36 37  1  0  0  0  0
 39 38  1  0  0  0  0
 40 39  1  0  0  0  0
 41 42  2  0  0  0  0
 42 40  1  0  0  0  0
 43 44  2  0  0  0  0
 44 42  1  0  0  0  0
 45 44  1  0  0  0  0
 46 51  1  0  0  0  0
 47 53  1  0  0  0  0
 48 51  1  0  0  0  0
 49 52  1  0  0  0  0
 49 47  1  0  0  0  0
 51 50  1  1  0  0  0
 52 54  1  0  0  0  0
 53 45  1  6  0  0  0
 53 46  1  0  0  0  0
 54 53  1  0  0  0  0
 54 48  1  1  0  0  0
M  END
>  <MODEL>
3

>  <REMARK>
 VINA RESULT:      -6.5      3.559      8.680
  Name = 
  9 active torsions:
  status: ('A' for Active; 'I' for Inactive)
    1  A    between atoms: N_1  and  C_45
    2  A    between atoms: C_2  and  C_18
    3  A    between atoms: C_2  and  C_45
    4  A    between atoms: C_8  and  C_36
    5  A    between atoms: C_13  and  C_50
    6  A    between atoms: C_38  and  C_39
    7  A    between atoms: C_39  and  C_41
    8  A    between atoms: C_41  and  C_48
    9  A    between atoms: C_50  and  C_53
                            x       y       z     vdW  Elec       q    Type
                         _______ _______ _______ _____ _____    ______ ____

>  <TORSDO>
F 9

$$$$
=
 OpenBabel10222415323D

 54 59  0  0  1  0  0  0  0  0999 V2000
  185.3250  178.4630  137.9120 C   0  0  0  0  0  2  0  0  0  0  0  0
  179.7310  176.8350  135.0860 N   0  0  0  0  0  2  0  0  0  0  0  0
  180.2190  178.0240  135.7780 C   0  0  1  0  0  3  0  0  0  0  0  0
  182.5110  175.7830  136.4440 N   0  0  0  0  0  0  0  0  0  0  0  0
  181.1840  180.3060  135.5150 C   0  0  0  0  0  2  0  0  0  0  0  0
  187.0810  175.7790  137.2210 C   0  0  2  0  0  3  0  0  0  0  0  0
  181.3590  172.6630  136.0660 C   0  0  0  0  0  1  0  0  0  0  0  0
  184.2920  178.9000  138.9600 C   0  0  2  0  0  3  0  0  0  0  0  0
  183.3370  173.8780  135.3560 N   0  0  0  0  0  2  0  0  0  0  0  0
  186.6920  178.0220  138.4870 C   0  0  2  0  0  0  0  0  0  0  0  0
  185.7950  178.1780  140.8920 C   0  0  0  0  0  2  0  0  0  0  0  0
  183.1440  180.7560  139.4460 C   0  0  0  0  0  2  0  0  0  0  0  0
  184.8660  175.5090  136.1460 C   0  0  0  0  0  0  0  0  0  0  0  0
  180.8290  179.0120  134.7900 C   0  0  0  0  0  2  0  0  0  0  0  0
  181.8850  173.8210  135.2420 C   0  0  2  0  0  3  0  0  0  0  0  0
  180.8640  176.0130  134.6720 C   0  0  0  0  0  2  0  0  0  0  0  0
  181.1530  181.7990  138.4160 C   0  0  0  0  0  2  0  0  0  0  0  0
  178.9570  181.2110  135.4180 O   0  0  0  0  0  1  0  0  0  0  0  0
  184.4400  180.2680  139.2310 O   0  0  0  0  0  0  0  0  0  0  0  0
  183.6550  175.0200  136.1210 C   0  0  0  0  0  0  0  0  0  0  0  0
  186.7410  176.4820  138.5450 C   0  0  0  0  0  2  0  0  0  0  0  0
  184.4130  178.0650  140.2390 C   0  0  0  0  0  2  0  0  0  0  0  0
  182.5640  181.3010  138.1530 C   0  0  0  0  0  2  0  0  0  0  0  0
  179.9730  180.8350  136.3090 C   0  0  1  0  0  0  0  0  0  0  0  0
  181.3580  175.1450  135.8220 C   0  0  2  0  0  3  0  0  0  0  0  0
  186.0790  175.9950  136.1230 C   0  0  0  0  0  3  0  0  0  0  0  0
  186.9060  178.5640  139.9100 C   0  0  0  0  0  2  0  0  0  0  0  0
  179.0500  178.7080  136.4790 C   0  0  0  0  0  2  0  0  0  0  0  0
  182.3950  176.5090  137.6980 C   0  0  0  0  0  1  0  0  0  0  0  0
  179.4950  179.8380  137.2020 O   0  0  0  0  0  0  0  0  0  0  0  0
  180.3630  182.0790  137.1330 C   0  0  2  0  0  3  0  0  0  0  0  0
  188.7950  173.9490  136.8070 C   0  0  0  0  0  1  0  0  0  0  0  0
  187.4510  174.3080  137.4220 C   0  0  0  0  0  2  0  0  0  0  0  0
  180.8830  183.2170  135.1160 O   0  0  0  0  0  0  0  0  0  0  0  0
  180.8950  183.2400  136.3380 C   0  0  0  0  0  0  0  0  0  0  0  0
  181.4450  184.4280  137.0590 C   0  0  0  0  0  2  0  0  0  0  0  0
  180.3180  185.3540  137.4760 C   0  0  0  0  0  1  0  0  0  0  0  0
  187.8340  178.5550  137.6090 C   0  0  0  0  0  2  0  0  0  0  0  0
  189.1540  178.6940  138.3620 C   0  0  0  0  0  2  0  0  0  0  0  0
  189.8930  177.4420  138.2940 N   0  0  0  0  0  2  0  0  0  0  0  0
  190.8480  175.6060  139.3350 O   0  0  0  0  0  0  0  0  0  0  0  0
  190.4950  176.8100  139.4300 C   0  0  0  0  0  0  0  0  0  0  0  0
  191.8730  177.8710  141.0560 O   0  0  0  0  0  0  0  0  0  0  0  0
  190.7130  177.5270  140.7030 C   0  0  0  0  0  0  0  0  0  0  0  0
  189.5560  177.8570  141.5960 C   0  0  0  0  0  2  0  0  0  0  0  0
  190.4910  175.8100  142.7370 C   0  0  0  0  0  2  0  0  0  0  0  0
  188.1330  176.3840  142.9790 N   0  0  0  0  0  2  0  0  0  0  0  0
  190.9230  176.9860  144.7950 C   0  0  0  0  0  2  0  0  0  0  0  0
  187.3540  177.3300  143.7610 C   0  0  0  0  0  2  0  0  0  0  0  0
  192.1100  174.8500  144.3620 C   0  0  0  0  0  1  0  0  0  0  0  0
  191.5810  176.1270  143.7400 C   0  0  1  0  0  3  0  0  0  0  0  0
  188.3820  177.9160  145.1290 S   0  0  0  0  0  0  0  0  0  0  0  0
  189.4750  176.9430  142.8270 C   0  0  2  0  0  0  0  0  0  0  0  0
  189.8390  177.7540  144.0680 C   0  0  2  0  0  3  0  0  0  0  0  0
  1 10  1  0  0  0  0
  2  3  1  0  0  0  0
  3 14  1  6  0  0  0
  3 28  1  0  0  0  0
  4 29  1  0  0  0  0
  5 24  1  0  0  0  0
  6 33  1  1  0  0  0
  6 21  1  0  0  0  0
  8  1  1  6  0  0  0
  8 19  1  0  0  0  0
  8 22  1  0  0  0  0
  9 20  1  0  0  0  0
 10 38  1  6  0  0  0
 10 21  1  0  0  0  0
 10 27  1  0  0  0  0
 14  5  1  0  0  0  0
 15  9  1  0  0  0  0
 15 25  1  0  0  0  0
 15  7  1  1  0  0  0
 16  2  1  0  0  0  0
 19 12  1  0  0  0  0
 20 13  2  0  0  0  0
 20  4  1  0  0  0  0
 22 11  1  0  0  0  0
 23 17  1  0  0  0  0
 23 12  1  0  0  0  0
 24 18  1  6  0  0  0
 24 31  1  0  0  0  0
 24 30  1  0  0  0  0
 25 16  1  6  0  0  0
 25  4  1  0  0  0  0
 26 13  2  0  0  0  0
 26  6  1  0  0  0  0
 27 11  1  0  0  0  0
 28 30  1  0  0  0  0
 31 35  1  6  0  0  0
 31 17  1  0  0  0  0
 32 33  1  0  0  0  0
 34 35  2  0  0  0  0
 35 36  1  0  0  0  0
 36 37  1  0  0  0  0
 38 39  1  0  0  0  0
 40 39  1  0  0  0  0
 40 42  1  0  0  0  0
 41 42  2  0  0  0  0
 42 44  1  0  0  0  0
 44 43  2  0  0  0  0
 44 45  1  0  0  0  0
 46 53  1  0  0  0  0
 46 51  1  0  0  0  0
 47 49  1  0  0  0  0
 49 52  1  0  0  0  0
 51 50  1  1  0  0  0
 51 48  1  0  0  0  0
 53 45  1  6  0  0  0
 53 47  1  0  0  0  0
 53 54  1  0  0  0  0
 54 48  1  1  0  0  0
 54 52  1  0  0  0  0
M  END
>  <MODEL>
4

>  <REMARK>
 VINA RESULT:      -6.4      3.190      6.795
  Name = 
  9 active torsions:
  status: ('A' for Active; 'I' for Inactive)
    1  A    between atoms: N_1  and  C_45
    2  A    between atoms: C_2  and  C_18
    3  A    between atoms: C_2  and  C_45
    4  A    between atoms: C_8  and  C_36
    5  A    between atoms: C_13  and  C_50
    6  A    between atoms: C_38  and  C_39
    7  A    between atoms: C_39  and  C_41
    8  A    between atoms: C_41  and  C_48
    9  A    between atoms: C_50  and  C_53
                            x       y       z     vdW  Elec       q    Type
                         _______ _______ _______ _____ _____    ______ ____

>  <TORSDO>
F 9

$$$$
=
 OpenBabel10222415323D

 54 59  0  0  1  0  0  0  0  0999 V2000
  184.0890  176.3880  137.5350 C   0  0  0  0  0  2  0  0  0  0  0  0
  187.1710  171.0720  135.4930 N   0  0  0  0  0  2  0  0  0  0  0  0
  187.5490  172.4710  135.6630 C   0  0  1  0  0  3  0  0  0  0  0  0
  184.2930  172.5370  135.9920 N   0  0  0  0  0  0  0  0  0  0  0  0
  188.6770  174.1320  137.1390 C   0  0  0  0  0  2  0  0  0  0  0  0
  181.2040  175.0590  138.3560 C   0  0  2  0  0  3  0  0  0  0  0  0
  182.8400  169.8590  134.6040 C   0  0  0  0  0  1  0  0  0  0  0  0
  184.7840  176.8840  136.2600 C   0  0  2  0  0  3  0  0  0  0  0  0
  182.6680  171.0180  136.7310 N   0  0  0  0  0  2  0  0  0  0  0  0
  182.7550  177.0950  137.8690 C   0  0  2  0  0  0  0  0  0  0  0  0
  182.8000  178.3630  135.6320 C   0  0  0  0  0  2  0  0  0  0  0  0
  186.7350  177.8380  135.7290 C   0  0  0  0  0  2  0  0  0  0  0  0
  182.6870  173.2140  137.6260 C   0  0  0  0  0  0  0  0  0  0  0  0
  188.1470  172.7060  137.0460 C   0  0  0  0  0  2  0  0  0  0  0  0
  183.5710  170.2670  135.8690 C   0  0  2  0  0  3  0  0  0  0  0  0
  185.9650  170.7950  136.2680 C   0  0  0  0  0  2  0  0  0  0  0  0
  189.0230  176.9300  135.4960 C   0  0  0  0  0  2  0  0  0  0  0  0
  190.7670  173.6440  136.0530 O   0  0  0  0  0  1  0  0  0  0  0  0
  185.6180  177.9700  136.5650 O   0  0  0  0  0  0  0  0  0  0  0  0
  183.0990  172.3610  136.7270 C   0  0  0  0  0  0  0  0  0  0  0  0
  181.5840  176.2060  137.4050 C   0  0  0  0  0  2  0  0  0  0  0  0
  183.7620  177.2570  135.1810 C   0  0  0  0  0  2  0  0  0  0  0  0
  187.8390  177.0750  136.4380 C   0  0  0  0  0  2  0  0  0  0  0  0
  189.6180  174.4410  135.9580 C   0  0  1  0  0  0  0  0  0  0  0  0
  184.7180  171.2290  135.5100 C   0  0  2  0  0  3  0  0  0  0  0  0
  182.2830  174.0340  138.5610 C   0  0  0  0  0  3  0  0  0  0  0  0
  182.6410  178.4520  137.1540 C   0  0  0  0  0  2  0  0  0  0  0  0
  188.6010  172.8340  134.6200 C   0  0  0  0  0  2  0  0  0  0  0  0
  184.5660  173.7500  135.2410 C   0  0  0  0  0  1  0  0  0  0  0  0
  188.9560  174.1980  134.7230 O   0  0  0  0  0  0  0  0  0  0  0  0
  190.0640  175.9170  135.9870 C   0  0  2  0  0  3  0  0  0  0  0  0
  179.1680  173.8070  139.2190 C   0  0  0  0  0  1  0  0  0  0  0  0
  179.8440  174.4460  138.0160 C   0  0  0  0  0  2  0  0  0  0  0  0
  190.2430  177.0850  138.0470 O   0  0  0  0  0  0  0  0  0  0  0  0
  190.7850  176.3490  137.2350 C   0  0  0  0  0  0  0  0  0  0  0  0
  192.1800  175.8700  137.4740 C   0  0  0  0  0  2  0  0  0  0  0  0
  192.8150  176.6530  138.6080 C   0  0  0  0  0  1  0  0  0  0  0  0
  182.6550  177.3550  139.3790 C   0  0  0  0  0  2  0  0  0  0  0  0
  183.9340  177.9390  139.9730 C   0  0  0  0  0  2  0  0  0  0  0  0
  183.7050  178.3140  141.3600 N   0  0  0  0  0  2  0  0  0  0  0  0
  184.4010  179.3610  143.3060 O   0  0  0  0  0  0  0  0  0  0  0  0
  184.7340  178.7870  142.2380 C   0  0  0  0  0  0  0  0  0  0  0  0
  186.7600  179.4340  141.1690 O   0  0  0  0  0  0  0  0  0  0  0  0
  186.1680  178.6190  141.9260 C   0  0  0  0  0  0  0  0  0  0  0  0
  186.9430  177.4750  142.5070 C   0  0  0  0  0  2  0  0  0  0  0  0
  186.9810  178.6280  144.7510 C   0  0  0  0  0  2  0  0  0  0  0  0
  188.9230  178.7360  143.2800 N   0  0  0  0  0  2  0  0  0  0  0  0
  188.0020  176.7440  145.8550 C   0  0  0  0  0  2  0  0  0  0  0  0
  190.0250  177.8570  142.9220 C   0  0  0  0  0  2  0  0  0  0  0  0
  186.8210  178.4420  147.2260 C   0  0  0  0  0  1  0  0  0  0  0  0
  186.8140  177.6760  145.9180 C   0  0  1  0  0  3  0  0  0  0  0  0
  190.1430  176.5580  144.1750 S   0  0  0  0  0  0  0  0  0  0  0  0
  187.8090  177.8900  143.7050 C   0  0  2  0  0  0  0  0  0  0  0  0
  188.3460  176.6340  144.3840 C   0  0  2  0  0  3  0  0  0  0  0  0
  1 10  1  0  0  0  0
  2  3  1  0  0  0  0
  2 16  1  0  0  0  0
  3 28  1  6  0  0  0
  3 14  1  0  0  0  0
  4 20  1  0  0  0  0
  6 33  1  6  0  0  0
  6 26  1  0  0  0  0
  8 22  1  6  0  0  0
  8 19  1  0  0  0  0
  8  1  1  0  0  0  0
 10 38  1  1  0  0  0
 11 27  1  0  0  0  0
 12 23  1  0  0  0  0
 12 19  1  0  0  0  0
 13 26  2  0  0  0  0
 14  5  1  0  0  0  0
 15  7  1  6  0  0  0
 15  9  1  0  0  0  0
 17 31  1  0  0  0  0
 17 23  1  0  0  0  0
 20  9  1  0  0  0  0
 20 13  2  0  0  0  0
 21 10  1  0  0  0  0
 21  6  1  0  0  0  0
 22 11  1  0  0  0  0
 24 31  1  0  0  0  0
 24 18  1  1  0  0  0
 24  5  1  0  0  0  0
 25 15  1  0  0  0  0
 25  4  1  0  0  0  0
 25 16  1  1  0  0  0
 27 10  1  0  0  0  0
 28 30  1  0  0  0  0
 29  4  1  0  0  0  0
 30 24  1  0  0  0  0
 31 35  1  1  0  0  0
 33 32  1  0  0  0  0
 35 36  1  0  0  0  0
 35 34  2  0  0  0  0
 36 37  1  0  0  0  0
 38 39  1  0  0  0  0
 39 40  1  0  0  0  0
 40 42  1  0  0  0  0
 42 41  2  0  0  0  0
 43 44  2  0  0  0  0
 44 42  1  0  0  0  0
 44 45  1  0  0  0  0
 46 51  1  0  0  0  0
 47 53  1  0  0  0  0
 48 51  1  0  0  0  0
 49 47  1  0  0  0  0
 49 52  1  0  0  0  0
 51 50  1  1  0  0  0
 52 54  1  0  0  0  0
 53 45  1  6  0  0  0
 53 54  1  0  0  0  0
 53 46  1  0  0  0  0
 54 48  1  1  0  0  0
M  END
>  <MODEL>
5

>  <REMARK>
 VINA RESULT:      -5.4      1.805      2.747
  Name = 
  9 active torsions:
  status: ('A' for Active; 'I' for Inactive)
    1  A    between atoms: N_1  and  C_45
    2  A    between atoms: C_2  and  C_18
    3  A    between atoms: C_2  and  C_45
    4  A    between atoms: C_8  and  C_36
    5  A    between atoms: C_13  and  C_50
    6  A    between atoms: C_38  and  C_39
    7  A    between atoms: C_39  and  C_41
    8  A    between atoms: C_41  and  C_48
    9  A    between atoms: C_50  and  C_53
                            x       y       z     vdW  Elec       q    Type
                         _______ _______ _______ _____ _____    ______ ____

>  <TORSDO>
F 9

$$$$
=
 OpenBabel10222415323D

 54 59  0  0  1  0  0  0  0  0999 V2000
  187.0700  176.9730  139.1030 C   0  0  0  0  0  2  0  0  0  0  0  0
  181.1700  175.0800  137.2220 N   0  0  0  0  0  2  0  0  0  0  0  0
  182.5270  174.8020  136.7630 C   0  0  1  0  0  3  0  0  0  0  0  0
  182.9390  177.3100  138.8270 N   0  0  0  0  0  0  0  0  0  0  0  0
  184.4360  173.2020  136.8370 C   0  0  0  0  0  2  0  0  0  0  0  0
  186.2510  178.7710  141.7230 C   0  0  2  0  0  3  0  0  0  0  0  0
  180.1060  179.0360  139.2820 C   0  0  0  0  0  1  0  0  0  0  0  0
  187.1380  177.1570  137.5810 C   0  0  2  0  0  3  0  0  0  0  0  0
  181.8160  178.0980  140.7280 N   0  0  0  0  0  2  0  0  0  0  0  0
  187.9450  177.9520  139.9210 C   0  0  2  0  0  0  0  0  0  0  0  0
  188.5400  179.2790  137.8000 C   0  0  0  0  0  2  0  0  0  0  0  0
  187.7520  175.9330  135.8150 C   0  0  0  0  0  2  0  0  0  0  0  0
  184.1650  177.7850  140.8220 C   0  0  0  0  0  0  0  0  0  0  0  0
  183.0860  173.5590  137.4480 C   0  0  0  0  0  2  0  0  0  0  0  0
  180.7870  177.7650  139.7510 C   0  0  2  0  0  3  0  0  0  0  0  0
  181.2140  175.6160  138.5790 C   0  0  0  0  0  2  0  0  0  0  0  0
  186.6360  174.0910  134.5980 C   0  0  0  0  0  2  0  0  0  0  0  0
  183.5020  172.0390  134.9490 O   0  0  0  0  0  1  0  0  0  0  0  0
  188.1960  176.3990  137.0590 O   0  0  0  0  0  0  0  0  0  0  0  0
  183.0670  177.8680  140.1190 C   0  0  0  0  0  0  0  0  0  0  0  0
  187.0570  179.0950  140.4540 C   0  0  0  0  0  2  0  0  0  0  0  0
  187.2800  178.6360  137.2090 C   0  0  0  0  0  2  0  0  0  0  0  0
  187.1280  174.5560  135.9580 C   0  0  0  0  0  2  0  0  0  0  0  0
  184.3320  173.1140  135.3020 C   0  0  1  0  0  0  0  0  0  0  0  0
  181.5190  177.1090  138.5670 C   0  0  2  0  0  3  0  0  0  0  0  0
  185.2400  177.6730  141.5570 C   0  0  0  0  0  3  0  0  0  0  0  0
  189.0560  178.5700  139.0560 C   0  0  0  0  0  2  0  0  0  0  0  0
  182.5040  174.5500  135.2600 C   0  0  0  0  0  2  0  0  0  0  0  0
  183.8730  177.6160  137.7570 C   0  0  0  0  0  1  0  0  0  0  0  0
  183.8110  174.3260  134.7710 O   0  0  0  0  0  0  0  0  0  0  0  0
  185.7190  172.8660  134.6740 C   0  0  2  0  0  3  0  0  0  0  0  0
  184.9560  179.7270  143.6900 C   0  0  0  0  0  1  0  0  0  0  0  0
  185.6780  180.0260  142.3840 C   0  0  0  0  0  2  0  0  0  0  0  0
  185.7810  170.6200  135.4410 O   0  0  0  0  0  0  0  0  0  0  0  0
  186.4190  171.6140  135.1300 C   0  0  0  0  0  0  0  0  0  0  0  0
  187.9120  171.5980  135.2010 C   0  0  0  0  0  2  0  0  0  0  0  0
  188.4220  170.1700  135.1600 C   0  0  0  0  0  1  0  0  0  0  0  0
  188.6180  177.2160  141.0880 C   0  0  0  0  0  2  0  0  0  0  0  0
  189.9260  177.8650  141.5320 C   0  0  0  0  0  2  0  0  0  0  0  0
  190.8470  176.8410  142.0030 N   0  0  0  0  0  2  0  0  0  0  0  0
  191.8330  175.6600  143.7350 O   0  0  0  0  0  0  0  0  0  0  0  0
  191.2860  176.7300  143.3620 C   0  0  0  0  0  0  0  0  0  0  0  0
  192.0610  178.6300  144.5690 O   0  0  0  0  0  0  0  0  0  0  0  0
  191.1170  177.8300  144.3340 C   0  0  0  0  0  0  0  0  0  0  0  0
  189.8160  178.0100  145.0570 C   0  0  0  0  0  2  0  0  0  0  0  0
  190.8350  176.1350  146.4030 C   0  0  0  0  0  2  0  0  0  0  0  0
  188.4340  176.5520  146.4970 N   0  0  0  0  0  2  0  0  0  0  0  0
  191.0850  177.5000  148.3730 C   0  0  0  0  0  2  0  0  0  0  0  0
  187.5540  177.4990  147.1640 C   0  0  0  0  0  2  0  0  0  0  0  0
  192.4360  175.4280  148.1700 C   0  0  0  0  0  1  0  0  0  0  0  0
  191.8500  176.6100  147.4220 C   0  0  1  0  0  3  0  0  0  0  0  0
  188.4720  178.2670  148.5200 S   0  0  0  0  0  0  0  0  0  0  0  0
  189.7400  177.1940  146.3560 C   0  0  2  0  0  0  0  0  0  0  0  0
  189.9870  178.1260  147.5390 C   0  0  2  0  0  3  0  0  0  0  0  0
  1 10  1  0  0  0  0
  2 16  1  0  0  0  0
  3 28  1  6  0  0  0
  3  2  1  0  0  0  0
  3 14  1  0  0  0  0
  4 20  1  0  0  0  0
  5 14  1  0  0  0  0
  6 33  1  6  0  0  0
  8 22  1  1  0  0  0
  8  1  1  0  0  0  0
 10 21  1  0  0  0  0
 10 38  1  1  0  0  0
 11 27  1  0  0  0  0
 12 23  1  0  0  0  0
 12 19  1  0  0  0  0
 13 26  2  0  0  0  0
 15  7  1  6  0  0  0
 15  9  1  0  0  0  0
 17 31  1  0  0  0  0
 17 23  1  0  0  0  0
 19  8  1  0  0  0  0
 20  9  1  0  0  0  0
 20 13  2  0  0  0  0
 21  6  1  0  0  0  0
 22 11  1  0  0  0  0
 24 18  1  6  0  0  0
 24  5  1  0  0  0  0
 25 16  1  1  0  0  0
 25  4  1  0  0  0  0
 25 15  1  0  0  0  0
 26  6  1  0  0  0  0
 27 10  1  0  0  0  0
 29  4  1  0  0  0  0
 30 28  1  0  0  0  0
 30 24  1  0  0  0  0
 31 35  1  1  0  0  0
 31 24  1  0  0  0  0
 33 32  1  0  0  0  0
 35 36  1  0  0  0  0
 35 34  2  0  0  0  0
 37 36  1  0  0  0  0
 38 39  1  0  0  0  0
 39 40  1  0  0  0  0
 40 42  1  0  0  0  0
 42 41  2  0  0  0  0
 42 44  1  0  0  0  0
 44 43  2  0  0  0  0
 44 45  1  0  0  0  0
 46 51  1  0  0  0  0
 47 49  1  0  0  0  0
 49 52  1  0  0  0  0
 51 50  1  1  0  0  0
 51 48  1  0  0  0  0
 53 45  1  6  0  0  0
 53 46  1  0  0  0  0
 53 47  1  0  0  0  0
 53 54  1  0  0  0  0
 54 48  1  1  0  0  0
 54 52  1  0  0  0  0
M  END
>  <MODEL>
6

>  <REMARK>
 VINA RESULT:      -5.3      2.382      4.568
  Name = 
  9 active torsions:
  status: ('A' for Active; 'I' for Inactive)
    1  A    between atoms: N_1  and  C_45
    2  A    between atoms: C_2  and  C_18
    3  A    between atoms: C_2  and  C_45
    4  A    between atoms: C_8  and  C_36
    5  A    between atoms: C_13  and  C_50
    6  A    between atoms: C_38  and  C_39
    7  A    between atoms: C_39  and  C_41
    8  A    between atoms: C_41  and  C_48
    9  A    between atoms: C_50  and  C_53
                            x       y       z     vdW  Elec       q    Type
                         _______ _______ _______ _____ _____    ______ ____

>  <TORSDO>
F 9

$$$$
=
 OpenBabel10222415323D

 54 59  0  0  1  0  0  0  0  0999 V2000
  185.4810  174.8300  137.3010 C   0  0  0  0  0  2  0  0  0  0  0  0
  190.7010  177.3150  140.2170 N   0  0  0  0  0  2  0  0  0  0  0  0
  189.2770  177.6320  140.2270 C   0  0  1  0  0  3  0  0  0  0  0  0
  189.5530  175.5310  137.7310 N   0  0  0  0  0  0  0  0  0  0  0  0
  187.1200  177.3650  141.4460 C   0  0  0  0  0  2  0  0  0  0  0  0
  186.8830  172.3060  135.7420 C   0  0  2  0  0  3  0  0  0  0  0  0
  192.6900  175.3680  136.5730 C   0  0  0  0  0  1  0  0  0  0  0  0
  185.2950  176.3370  137.0740 C   0  0  2  0  0  3  0  0  0  0  0  0
  190.9900  173.7550  137.2070 N   0  0  0  0  0  2  0  0  0  0  0  0
  184.8920  173.9250  136.1930 C   0  0  2  0  0  0  0  0  0  0  0  0
  184.3450  175.9700  134.7330 C   0  0  0  0  0  2  0  0  0  0  0  0
  184.2880  178.0330  138.1250 C   0  0  0  0  0  2  0  0  0  0  0  0
  188.6450  173.4190  137.0790 C   0  0  0  0  0  0  0  0  0  0  0  0
  188.5680  176.8960  141.3590 C   0  0  0  0  0  2  0  0  0  0  0  0
  191.8340  174.8340  137.7040 C   0  0  2  0  0  3  0  0  0  0  0  0
  190.8960  175.9600  139.7110 C   0  0  0  0  0  2  0  0  0  0  0  0
  184.9100  179.3630  140.1150 C   0  0  0  0  0  2  0  0  0  0  0  0
  187.6230  179.3420  142.7210 O   0  0  0  0  0  1  0  0  0  0  0  0
  184.0660  176.7490  137.6100 O   0  0  0  0  0  0  0  0  0  0  0  0
  189.6630  174.2320  137.1870 C   0  0  0  0  0  0  0  0  0  0  0  0
  186.0270  173.4840  135.2470 C   0  0  0  0  0  2  0  0  0  0  0  0
  185.3960  176.6900  135.5860 C   0  0  0  0  0  2  0  0  0  0  0  0
  184.6540  177.9580  139.5960 C   0  0  0  0  0  2  0  0  0  0  0  0
  187.0500  178.9030  141.5190 C   0  0  1  0  0  0  0  0  0  0  0  0
  190.8760  175.9370  138.1880 C   0  0  2  0  0  3  0  0  0  0  0  0
  187.6480  172.5770  137.0060 C   0  0  0  0  0  3  0  0  0  0  0  0
  183.8350  174.6690  135.3610 C   0  0  0  0  0  2  0  0  0  0  0  0
  189.1000  179.1300  140.4470 C   0  0  0  0  0  2  0  0  0  0  0  0
  188.5890  176.4990  137.2340 C   0  0  0  0  0  1  0  0  0  0  0  0
  187.7320  179.4820  140.4130 O   0  0  0  0  0  0  0  0  0  0  0  0
  185.5850  179.3840  141.4910 C   0  0  2  0  0  3  0  0  0  0  0  0
  187.9940  170.2160  134.8180 C   0  0  0  0  0  1  0  0  0  0  0  0
  187.7440  171.7040  134.6300 C   0  0  0  0  0  2  0  0  0  0  0  0
  184.0810  177.8240  142.4620 O   0  0  0  0  0  0  0  0  0  0  0  0
  184.7120  178.8620  142.6000 C   0  0  0  0  0  0  0  0  0  0  0  0
  184.6210  179.6290  143.8790 C   0  0  0  0  0  2  0  0  0  0  0  0
  184.9000  178.7140  145.0580 C   0  0  0  0  0  1  0  0  0  0  0  0
  184.2150  172.6960  136.8170 C   0  0  0  0  0  2  0  0  0  0  0  0
  183.1090  172.1120  135.9410 C   0  0  0  0  0  2  0  0  0  0  0  0
  182.0370  171.5990  136.7800 N   0  0  0  0  0  2  0  0  0  0  0  0
  179.7800  171.3740  137.2540 O   0  0  0  0  0  0  0  0  0  0  0  0
  180.6840  172.0660  136.7160 C   0  0  0  0  0  0  0  0  0  0  0  0
  180.6570  173.5380  134.8460 O   0  0  0  0  0  0  0  0  0  0  0  0
  180.3200  173.3290  136.0420 C   0  0  0  0  0  0  0  0  0  0  0  0
  179.5450  174.3830  136.7720 C   0  0  0  0  0  2  0  0  0  0  0  0
  181.1150  176.2400  136.0980 C   0  0  0  0  0  2  0  0  0  0  0  0
  181.4390  175.0610  138.2090 N   0  0  0  0  0  2  0  0  0  0  0  0
  179.8680  177.9160  137.2980 C   0  0  0  0  0  2  0  0  0  0  0  0
  180.8420  175.0910  139.5350 C   0  0  0  0  0  2  0  0  0  0  0  0
  181.4260  178.6340  135.5050 C   0  0  0  0  0  1  0  0  0  0  0  0
  180.4260  177.5780  135.9350 C   0  0  1  0  0  3  0  0  0  0  0  0
  179.9260  176.6410  139.7080 S   0  0  0  0  0  0  0  0  0  0  0  0
  180.4290  175.5380  137.2650 C   0  0  2  0  0  0  0  0  0  0  0  0
  179.5460  176.5820  137.9400 C   0  0  2  0  0  3  0  0  0  0  0  0
  2  3  1  0  0  0  0
  3 28  1  1  0  0  0
  3 14  1  0  0  0  0
  4 25  1  0  0  0  0
  5 24  1  0  0  0  0
  6 33  1  6  0  0  0
  6 26  1  0  0  0  0
  8 22  1  6  0  0  0
  8  1  1  0  0  0  0
  8 19  1  0  0  0  0
  9 15  1  0  0  0  0
 10 38  1  1  0  0  0
 10  1  1  0  0  0  0
 11 27  1  0  0  0  0
 11 22  1  0  0  0  0
 12 23  1  0  0  0  0
 13 20  2  0  0  0  0
 14  5  1  0  0  0  0
 15  7  1  6  0  0  0
 15 25  1  0  0  0  0
 16  2  1  0  0  0  0
 17 31  1  0  0  0  0
 19 12  1  0  0  0  0
 20  9  1  0  0  0  0
 20  4  1  0  0  0  0
 21  6  1  0  0  0  0
 21 10  1  0  0  0  0
 23 17  1  0  0  0  0
 24 18  1  1  0  0  0
 25 16  1  1  0  0  0
 26 13  2  0  0  0  0
 27 10  1  0  0  0  0
 29  4  1  0  0  0  0
 30 28  1  0  0  0  0
 30 24  1  0  0  0  0
 31 24  1  0  0  0  0
 31 35  1  1  0  0  0
 33 32  1  0  0  0  0
 34 35  2  0  0  0  0
 35 36  1  0  0  0  0
 36 37  1  0  0  0  0
 39 40  1  0  0  0  0
 39 38  1  0  0  0  0
 42 40  1  0  0  0  0
 42 41  2  0  0  0  0
 43 44  2  0  0  0  0
 44 42  1  0  0  0  0
 44 45  1  0  0  0  0
 46 53  1  0  0  0  0
 47 49  1  0  0  0  0
 49 52  1  0  0  0  0
 51 50  1  1  0  0  0
 51 46  1  0  0  0  0
 51 48  1  0  0  0  0
 53 45  1  6  0  0  0
 53 54  1  0  0  0  0
 53 47  1  0  0  0  0
 54 48  1  6  0  0  0
 54 52  1  0  0  0  0
M  END
>  <MODEL>
7

>  <REMARK>
 VINA RESULT:      -5.0      3.248      9.439
  Name = 
  9 active torsions:
  status: ('A' for Active; 'I' for Inactive)
    1  A    between atoms: N_1  and  C_45
    2  A    between atoms: C_2  and  C_18
    3  A    between atoms: C_2  and  C_45
    4  A    between atoms: C_8  and  C_36
    5  A    between atoms: C_13  and  C_50
    6  A    between atoms: C_38  and  C_39
    7  A    between atoms: C_39  and  C_41
    8  A    between atoms: C_41  and  C_48
    9  A    between atoms: C_50  and  C_53
                            x       y       z     vdW  Elec       q    Type
                         _______ _______ _______ _____ _____    ______ ____

>  <TORSDO>
F 9

$$$$
=
 OpenBabel10222415323D

 54 59  0  0  1  0  0  0  0  0999 V2000
  184.4020  177.1810  139.7020 C   0  0  0  0  0  2  0  0  0  0  0  0
  190.8450  176.8480  140.2580 N   0  0  0  0  0  2  0  0  0  0  0  0
  189.7600  177.2330  141.1550 C   0  0  1  0  0  3  0  0  0  0  0  0
  188.2870  177.0670  138.2360 N   0  0  0  0  0  0  0  0  0  0  0  0
  188.2630  176.4960  143.0060 C   0  0  0  0  0  2  0  0  0  0  0  0
  184.0600  176.0000  136.6600 C   0  0  2  0  0  3  0  0  0  0  0  0
  190.4730  177.3310  135.7140 C   0  0  0  0  0  1  0  0  0  0  0  0
  184.7420  178.5240  140.3630 C   0  0  2  0  0  3  0  0  0  0  0  0
  188.6360  175.8440  136.2680 N   0  0  0  0  0  2  0  0  0  0  0  0
  183.1550  177.1990  138.7880 C   0  0  2  0  0  0  0  0  0  0  0  0
  182.9510  179.7520  139.0220 C   0  0  0  0  0  2  0  0  0  0  0  0
  184.9180  179.3220  142.4430 C   0  0  0  0  0  2  0  0  0  0  0  0
  186.4680  175.8900  137.2290 C   0  0  0  0  0  0  0  0  0  0  0  0
  189.2820  176.0350  141.9700 C   0  0  0  0  0  2  0  0  0  0  0  0
  189.9470  176.3070  136.7010 C   0  0  2  0  0  3  0  0  0  0  0  0
  190.3070  176.0680  139.1480 C   0  0  0  0  0  2  0  0  0  0  0  0
  186.6750  179.0980  144.1690 C   0  0  0  0  0  2  0  0  0  0  0  0
  189.9110  177.2280  144.5990 O   0  0  0  0  0  1  0  0  0  0  0  0
  184.0500  178.6450  141.5760 O   0  0  0  0  0  0  0  0  0  0  0  0
  187.6840  176.3640  137.1700 C   0  0  0  0  0  0  0  0  0  0  0  0
  183.6090  177.3140  137.3190 C   0  0  0  0  0  2  0  0  0  0  0  0
  184.4280  179.6960  139.4270 C   0  0  0  0  0  2  0  0  0  0  0  0
  185.7300  178.3320  143.2590 C   0  0  0  0  0  2  0  0  0  0  0  0
  188.8220  177.6700  143.8340 C   0  0  1  0  0  0  0  0  0  0  0  0
  189.7320  176.9780  138.0700 C   0  0  2  0  0  3  0  0  0  0  0  0
  185.2710  175.3700  137.2890 C   0  0  0  0  0  3  0  0  0  0  0  0
  182.2430  178.3970  139.1050 C   0  0  0  0  0  2  0  0  0  0  0  0
  190.2660  178.2970  142.1230 C   0  0  0  0  0  2  0  0  0  0  0  0
  187.6620  178.2280  138.8480 C   0  0  0  0  0  1  0  0  0  0  0  0
  189.2260  178.7300  142.9760 O   0  0  0  0  0  0  0  0  0  0  0  0
  187.7520  178.2120  144.8040 C   0  0  2  0  0  3  0  0  0  0  0  0
  183.4810  177.3660  134.5970 C   0  0  0  0  0  1  0  0  0  0  0  0
  184.1610  176.1170  135.1380 C   0  0  0  0  0  2  0  0  0  0  0  0
  186.0900  176.7430  145.6490 O   0  0  0  0  0  0  0  0  0  0  0  0
  187.2090  177.2130  145.7890 C   0  0  0  0  0  0  0  0  0  0  0  0
  188.0540  176.7990  146.9500 C   0  0  0  0  0  2  0  0  0  0  0  0
  187.9460  177.8210  148.0660 C   0  0  0  0  0  1  0  0  0  0  0  0
  182.3300  175.9200  138.9890 C   0  0  0  0  0  2  0  0  0  0  0  0
  180.8340  176.1290  138.7700 C   0  0  0  0  0  2  0  0  0  0  0  0
  180.6250  177.1760  137.7810 N   0  0  0  0  0  2  0  0  0  0  0  0
  179.7640  177.8870  135.7510 O   0  0  0  0  0  0  0  0  0  0  0  0
  180.2000  176.9260  136.4350 C   0  0  0  0  0  0  0  0  0  0  0  0
  180.4590  175.4390  134.5950 O   0  0  0  0  0  0  0  0  0  0  0  0
  180.2610  175.5800  135.8310 C   0  0  0  0  0  0  0  0  0  0  0  0
  180.0870  174.3570  136.6810 C   0  0  0  0  0  2  0  0  0  0  0  0
  182.2210  173.2920  135.8590 C   0  0  0  0  0  2  0  0  0  0  0  0
  180.0950  172.7780  134.7800 N   0  0  0  0  0  2  0  0  0  0  0  0
  181.9300  171.3290  137.2260 C   0  0  0  0  0  2  0  0  0  0  0  0
  178.9480  171.9300  135.0620 C   0  0  0  0  0  2  0  0  0  0  0  0
  184.1900  171.8540  136.3460 C   0  0  0  0  0  1  0  0  0  0  0  0
  182.9060  172.4370  136.9040 C   0  0  1  0  0  3  0  0  0  0  0  0
  179.4380  170.7110  136.3050 S   0  0  0  0  0  0  0  0  0  0  0  0
  180.7210  173.1050  136.0600 C   0  0  2  0  0  0  0  0  0  0  0  0
  180.5560  171.9370  137.0270 C   0  0  2  0  0  3  0  0  0  0  0  0
  1  8  1  0  0  0  0
  2  3  1  0  0  0  0
  3 14  1  1  0  0  0
  3 28  1  0  0  0  0
  4 29  1  0  0  0  0
  5 24  1  0  0  0  0
  6 33  1  6  0  0  0
  6 26  1  0  0  0  0
  6 21  1  0  0  0  0
  8 22  1  6  0  0  0
  8 19  1  0  0  0  0
  9 15  1  0  0  0  0
  9 20  1  0  0  0  0
 10 38  1  1  0  0  0
 10 27  1  0  0  0  0
 10  1  1  0  0  0  0
 11 27  1  0  0  0  0
 11 22  1  0  0  0  0
 12 23  1  0  0  0  0
 13 26  2  0  0  0  0
 14  5  1  0  0  0  0
 15  7  1  6  0  0  0
 15 25  1  0  0  0  0
 16  2  1  0  0  0  0
 17 31  1  0  0  0  0
 19 12  1  0  0  0  0
 20 13  2  0  0  0  0
 20  4  1  0  0  0  0
 21 10  1  0  0  0  0
 23 17  1  0  0  0  0
 24 18  1  1  0  0  0
 24 31  1  0  0  0  0
 25  4  1  0  0  0  0
 25 16  1  1  0  0  0
 28 30  1  0  0  0  0
 30 24  1  0  0  0  0
 31 35  1  6  0  0  0
 32 33  1  0  0  0  0
 34 35  2  0  0  0  0
 35 36  1  0  0  0  0
 36 37  1  0  0  0  0
 39 38  1  0  0  0  0
 40 39  1  0  0  0  0
 41 42  2  0  0  0  0
 42 40  1  0  0  0  0
 43 44  2  0  0  0  0
 44 42  1  0  0  0  0
 44 45  1  0  0  0  0
 46 53  1  0  0  0  0
 46 51  1  0  0  0  0
 47 49  1  0  0  0  0
 47 53  1  0  0  0  0
 49 52  1  0  0  0  0
 51 50  1  6  0  0  0
 51 48  1  0  0  0  0
 52 54  1  0  0  0  0
 53 45  1  1  0  0  0
 53 54  1  0  0  0  0
 54 48  1  6  0  0  0
M  END
>  <MODEL>
8

>  <REMARK>
 VINA RESULT:      -4.9      3.437      9.154
  Name = 
  9 active torsions:
  status: ('A' for Active; 'I' for Inactive)
    1  A    between atoms: N_1  and  C_45
    2  A    between atoms: C_2  and  C_18
    3  A    between atoms: C_2  and  C_45
    4  A    between atoms: C_8  and  C_36
    5  A    between atoms: C_13  and  C_50
    6  A    between atoms: C_38  and  C_39
    7  A    between atoms: C_39  and  C_41
    8  A    between atoms: C_41  and  C_48
    9  A    between atoms: C_50  and  C_53
                            x       y       z     vdW  Elec       q    Type
                         _______ _______ _______ _____ _____    ______ ____

>  <TORSDO>
F 9

$$$$
