=
 OpenBabel10222416133D

 44 47  0  0  1  0  0  0  0  0999 V2000
  190.2230  177.1740  141.1700 C   0  0  0  0  0  0  0  0  0  0  0  0
  189.0420  177.9180  141.2030 C   0  0  0  0  0  3  0  0  0  0  0  0
  188.8150  177.7030  138.7970 C   0  0  0  0  0  0  0  0  0  0  0  0
  188.3450  178.1860  140.0250 C   0  0  0  0  0  3  0  0  0  0  0  0
  189.9900  176.9210  138.7500 C   0  0  0  0  0  0  0  0  0  0  0  0
  190.6920  176.6850  139.9450 C   0  0  0  0  0  3  0  0  0  0  0  0
  190.4850  176.3720  137.4320 C   0  0  2  0  0  3  0  0  0  0  0  0
  192.3840  174.8270  137.5230 C   0  0  0  0  0  0  0  0  0  0  0  0
  193.3580  174.0210  137.8160 N   0  0  0  0  0  0  0  0  0  0  0  0
  190.5760  174.5940  137.3740 S   0  0  0  0  0  0  0  0  0  0  0  0
  192.2290  176.6370  137.2630 S   0  0  0  0  0  0  0  0  0  0  0  0
  195.1050  175.1440  138.9080 O   0  0  0  0  0  0  0  0  0  0  0  0
  195.6670  173.9850  136.9610 N   0  0  0  0  0  2  0  0  0  0  0  0
  194.7260  174.4200  137.9440 C   0  0  0  0  0  0  0  0  0  0  0  0
  197.7390  175.1040  135.7490 S   0  0  0  0  0  0  0  0  0  0  0  0
  197.0440  174.3510  137.0180 C   0  0  0  0  0  3  0  0  0  0  0  0
  188.0410  178.0360  137.5610 C   0  0  0  0  0  2  0  0  0  0  0  0
  186.8310  177.1690  137.4220 C   0  0  0  0  0  0  0  0  0  0  0  0
  186.9370  175.9540  137.5030 O   0  0  0  0  0  0  0  0  0  0  0  0
  185.4950  177.7940  137.1790 C   0  0  0  0  0  2  0  0  0  0  0  0
  184.6590  177.7100  138.4460 C   0  0  0  0  0  2  0  0  0  0  0  0
  184.1530  179.0850  138.8500 C   0  0  2  0  0  3  0  0  0  0  0  0
  184.8930  178.8740  140.9280 C   0  0  0  0  0  1  0  0  0  0  0  0
  185.0300  179.6530  139.7770 O   0  0  0  0  0  0  0  0  0  0  0  0
  182.8360  178.9560  139.4520 N   0  0  0  0  0  2  0  0  0  0  0  0
  180.7590  182.9840  137.5820 C   0  0  0  0  0  1  0  0  0  0  0  0
  181.8230  179.9560  139.3130 C   0  0  0  0  0  0  0  0  0  0  0  0
  181.9300  180.9290  138.4350 C   0  0  0  0  0  3  0  0  0  0  0  0
  179.8130  181.5210  139.4400 C   0  0  0  0  0  2  0  0  0  0  0  0
  180.3300  179.9940  140.3080 S   0  0  0  0  0  0  0  0  0  0  0  0
  180.8340  181.8270  138.4530 N   0  0  0  0  0  0  0  0  0  0  0  0
  190.8990  176.9200  142.3620 O   0  0  0  0  0  0  0  0  0  0  0  0
  191.2170  177.9490  143.2930 C   0  0  0  0  0  2  0  0  0  0  0  0
  189.4610  177.9120  145.0630 C   0  0  0  0  0  3  0  0  0  0  0  0
  189.0020  177.5530  146.3360 C   0  0  0  0  0  0  0  0  0  0  0  0
  189.8440  176.8510  147.2060 C   0  0  0  0  0  3  0  0  0  0  0  0
  190.7540  177.5690  144.6590 C   0  0  0  0  0  0  0  0  0  0  0  0
  191.5910  176.8590  145.5290 C   0  0  0  0  0  3  0  0  0  0  0  0
  191.1370  176.5050  146.8030 C   0  0  0  0  0  3  0  0  0  0  0  0
  187.6140  177.8970  146.7600 C   0  0  0  0  0  2  0  0  0  0  0  0
  186.6560  177.4830  145.7430 N   0  0  0  0  0  2  0  0  0  0  0  0
  184.9220  178.3360  144.4340 O   0  0  0  0  0  1  0  0  0  0  0  0
  185.7040  178.5710  145.5640 C   0  0  0  0  0  3  0  0  0  0  0  0
  184.8820  178.6590  146.6880 O   0  0  0  0  0  1  0  0  0  0  0  0
  1  2  1  0  0  0  0
  1 32  1  0  0  0  0
  3  4  1  0  0  0  0
  4  2  2  0  0  0  0
  5  3  2  0  0  0  0
  5  6  1  0  0  0  0
  6  1  2  0  0  0  0
  7  5  1  1  0  0  0
  8  9  2  0  0  0  0
  9 14  1  0  0  0  0
 10  7  1  0  0  0  0
 10  8  1  0  0  0  0
 11  7  1  0  0  0  0
 11  8  1  0  0  0  0
 13 16  1  0  0  0  0
 13 14  1  0  0  0  0
 14 12  2  0  0  0  0
 15 16  2  0  0  0  0
 17  3  1  0  0  0  0
 18 19  2  0  0  0  0
 18 17  1  0  0  0  0
 20 18  1  0  0  0  0
 20 21  1  0  0  0  0
 22 21  1  1  0  0  0
 22 25  1  0  0  0  0
 22 24  1  0  0  0  0
 24 23  1  0  0  0  0
 26 31  1  0  0  0  0
 27 25  1  0  0  0  0
 27 30  1  0  0  0  0
 28 31  1  0  0  0  0
 28 27  2  0  0  0  0
 29 30  1  0  0  0  0
 31 29  1  0  0  0  0
 32 33  1  0  0  0  0
 33 37  1  0  0  0  0
 34 35  1  0  0  0  0
 35 40  1  0  0  0  0
 35 36  2  0  0  0  0
 37 34  2  0  0  0  0
 37 38  1  0  0  0  0
 38 39  2  0  0  0  0
 39 36  1  0  0  0  0
 41 40  1  0  0  0  0
 42 43  1  0  0  0  0
 43 41  1  0  0  0  0
 43 44  1  0  0  0  0
M  END
>  <MODEL>
1

>  <REMARK>
 VINA RESULT:      -7.9      0.000      0.000
  Name = 
  17 active torsions:
  status: ('A' for Active; 'I' for Inactive)
    1  A    between atoms: O_2  and  C_19
    2  A    between atoms: O_3  and  C_9
    3  A    between atoms: O_3  and  C_42
    4  A    between atoms: C_5  and  N_27
    5  A    between atoms: C_6  and  C_8
    6  A    between atoms: C_6  and  C_32
    7  A    between atoms: C_7  and  C_28
    8  A    between atoms: C_8  and  C_13
    9  A    between atoms: C_13  and  C_19
   10  A    between atoms: C_16  and  N_33
   11  A    between atoms: C_17  and  C_20
   12  A    between atoms: C_17  and  N_35
   13  A    between atoms: C_19  and  N_27
   14  A    between atoms: C_24  and  C_32
   15  A    between atoms: N_29  and  C_37
   16  A    between atoms: C_31  and  N_35
   17  A    between atoms: C_36  and  C_42
                            x       y       z     vdW  Elec       q    Type
                         _______ _______ _______ _____ _____    ______ ____

>  <TORSDO>
F 17

$$$$
=
 OpenBabel10222416133D

 44 47  0  0  1  0  0  0  0  0999 V2000
  190.4760  177.1410  141.2410 C   0  0  0  0  0  0  0  0  0  0  0  0
  189.2580  177.8230  141.2520 C   0  0  0  0  0  3  0  0  0  0  0  0
  189.1540  177.7210  138.8310 C   0  0  0  0  0  0  0  0  0  0  0  0
  188.6040  178.1170  140.0560 C   0  0  0  0  0  3  0  0  0  0  0  0
  190.3690  177.0020  138.8030 C   0  0  0  0  0  0  0  0  0  0  0  0
  191.0270  176.7390  140.0170 C   0  0  0  0  0  3  0  0  0  0  0  0
  190.9530  176.5470  137.4850 C   0  0  2  0  0  3  0  0  0  0  0  0
  192.6660  174.7990  137.5800 C   0  0  0  0  0  0  0  0  0  0  0  0
  193.5150  173.8630  137.8710 N   0  0  0  0  0  0  0  0  0  0  0  0
  190.8720  174.7870  137.2240 S   0  0  0  0  0  0  0  0  0  0  0  0
  192.7220  176.6330  137.5240 S   0  0  0  0  0  0  0  0  0  0  0  0
  195.2360  175.0030  138.9860 O   0  0  0  0  0  0  0  0  0  0  0  0
  195.8860  173.2660  137.5700 N   0  0  0  0  0  2  0  0  0  0  0  0
  194.8940  174.0910  138.1830 C   0  0  0  0  0  0  0  0  0  0  0  0
  198.1510  174.4630  136.9030 S   0  0  0  0  0  0  0  0  0  0  0  0
  197.2780  173.4400  137.8250 C   0  0  0  0  0  3  0  0  0  0  0  0
  188.4220  178.0800  137.5770 C   0  0  0  0  0  2  0  0  0  0  0  0
  187.1910  177.2490  137.4050 C   0  0  0  0  0  0  0  0  0  0  0  0
  187.2730  176.0300  137.3870 O   0  0  0  0  0  0  0  0  0  0  0  0
  185.8620  177.9170  137.2510 C   0  0  0  0  0  2  0  0  0  0  0  0
  185.1680  177.9790  138.6030 C   0  0  0  0  0  2  0  0  0  0  0  0
  184.2190  179.1650  138.6670 C   0  0  2  0  0  3  0  0  0  0  0  0
  185.1590  179.0680  140.6720 C   0  0  0  0  0  1  0  0  0  0  0  0
  184.5170  179.9420  139.7900 O   0  0  0  0  0  0  0  0  0  0  0  0
  182.8520  178.6830  138.7660 N   0  0  0  0  0  2  0  0  0  0  0  0
  179.7320  179.7010  142.4090 C   0  0  0  0  0  1  0  0  0  0  0  0
  181.8210  179.4170  139.4330 C   0  0  0  0  0  0  0  0  0  0  0  0
  181.3930  179.0740  140.6280 C   0  0  0  0  0  3  0  0  0  0  0  0
  179.9610  180.9760  140.2150 C   0  0  0  0  0  2  0  0  0  0  0  0
  181.0120  180.8510  138.7220 S   0  0  0  0  0  0  0  0  0  0  0  0
  180.3630  179.9140  141.1190 N   0  0  0  0  0  0  0  0  0  0  0  0
  191.1100  176.8590  142.4500 O   0  0  0  0  0  0  0  0  0  0  0  0
  191.4090  177.8690  143.4080 C   0  0  0  0  0  2  0  0  0  0  0  0
  189.5450  177.7850  145.0610 C   0  0  0  0  0  3  0  0  0  0  0  0
  189.0180  177.4230  146.3060 C   0  0  0  0  0  0  0  0  0  0  0  0
  189.8260  176.7630  147.2380 C   0  0  0  0  0  3  0  0  0  0  0  0
  190.8730  177.4870  144.7460 C   0  0  0  0  0  0  0  0  0  0  0  0
  191.6780  176.8190  145.6770 C   0  0  0  0  0  3  0  0  0  0  0  0
  191.1550  176.4610  146.9240 C   0  0  0  0  0  3  0  0  0  0  0  0
  187.5930  177.7190  146.6340 C   0  0  0  0  0  2  0  0  0  0  0  0
  186.8860  178.1880  145.4490 N   0  0  0  0  0  2  0  0  0  0  0  0
  185.5480  179.4040  146.9240 O   0  0  0  0  0  1  0  0  0  0  0  0
  185.5250  178.5160  145.8490 C   0  0  0  0  0  3  0  0  0  0  0  0
  184.8530  179.1020  144.7760 O   0  0  0  0  0  1  0  0  0  0  0  0
  1  2  1  0  0  0  0
  1 32  1  0  0  0  0
  3  4  1  0  0  0  0
  4  2  2  0  0  0  0
  5  3  2  0  0  0  0
  5  6  1  0  0  0  0
  6  1  2  0  0  0  0
  7 11  1  0  0  0  0
  7  5  1  1  0  0  0
  8  9  2  0  0  0  0
  9 14  1  0  0  0  0
 10  7  1  0  0  0  0
 10  8  1  0  0  0  0
 11  8  1  0  0  0  0
 13 16  1  0  0  0  0
 13 14  1  0  0  0  0
 14 12  2  0  0  0  0
 15 16  2  0  0  0  0
 17  3  1  0  0  0  0
 18 17  1  0  0  0  0
 19 18  2  0  0  0  0
 20 18  1  0  0  0  0
 20 21  1  0  0  0  0
 22 21  1  1  0  0  0
 22 25  1  0  0  0  0
 22 24  1  0  0  0  0
 24 23  1  0  0  0  0
 25 27  1  0  0  0  0
 27 28  2  0  0  0  0
 28 31  1  0  0  0  0
 29 31  1  0  0  0  0
 30 27  1  0  0  0  0
 30 29  1  0  0  0  0
 31 26  1  0  0  0  0
 32 33  1  0  0  0  0
 33 37  1  0  0  0  0
 34 35  1  0  0  0  0
 35 40  1  0  0  0  0
 35 36  2  0  0  0  0
 37 34  2  0  0  0  0
 37 38  1  0  0  0  0
 38 39  2  0  0  0  0
 39 36  1  0  0  0  0
 41 43  1  0  0  0  0
 41 40  1  0  0  0  0
 43 42  1  0  0  0  0
 44 43  1  0  0  0  0
M  END
>  <MODEL>
2

>  <REMARK>
 VINA RESULT:      -7.8      0.974      1.351
  Name = 
  17 active torsions:
  status: ('A' for Active; 'I' for Inactive)
    1  A    between atoms: O_2  and  C_19
    2  A    between atoms: O_3  and  C_9
    3  A    between atoms: O_3  and  C_42
    4  A    between atoms: C_5  and  N_27
    5  A    between atoms: C_6  and  C_8
    6  A    between atoms: C_6  and  C_32
    7  A    between atoms: C_7  and  C_28
    8  A    between atoms: C_8  and  C_13
    9  A    between atoms: C_13  and  C_19
   10  A    between atoms: C_16  and  N_33
   11  A    between atoms: C_17  and  C_20
   12  A    between atoms: C_17  and  N_35
   13  A    between atoms: C_19  and  N_27
   14  A    between atoms: C_24  and  C_32
   15  A    between atoms: N_29  and  C_37
   16  A    between atoms: C_31  and  N_35
   17  A    between atoms: C_36  and  C_42
                            x       y       z     vdW  Elec       q    Type
                         _______ _______ _______ _____ _____    ______ ____

>  <TORSDO>
F 17

$$$$
=
 OpenBabel10222416133D

 44 47  0  0  1  0  0  0  0  0999 V2000
  190.4090  176.9050  140.8950 C   0  0  0  0  0  0  0  0  0  0  0  0
  189.3380  177.7860  140.7380 C   0  0  0  0  0  3  0  0  0  0  0  0
  189.6350  177.7510  138.3300 C   0  0  0  0  0  0  0  0  0  0  0  0
  188.9560  178.2110  139.4650 C   0  0  0  0  0  3  0  0  0  0  0  0
  190.7000  176.8340  138.4690 C   0  0  0  0  0  0  0  0  0  0  0  0
  191.0870  176.4390  139.7620 C   0  0  0  0  0  3  0  0  0  0  0  0
  191.4170  176.3120  137.2450 C   0  0  2  0  0  3  0  0  0  0  0  0
  193.2520  174.7340  137.6300 C   0  0  0  0  0  0  0  0  0  0  0  0
  194.1480  173.9060  138.0700 N   0  0  0  0  0  0  0  0  0  0  0  0
  191.4970  174.5340  137.1550 S   0  0  0  0  0  0  0  0  0  0  0  0
  193.1660  176.5530  137.3970 S   0  0  0  0  0  0  0  0  0  0  0  0
  195.6800  175.0220  139.4520 O   0  0  0  0  0  0  0  0  0  0  0  0
  196.5770  173.7980  137.6790 N   0  0  0  0  0  2  0  0  0  0  0  0
  195.4760  174.2800  138.4510 C   0  0  0  0  0  0  0  0  0  0  0  0
  199.0660  174.1010  136.8270 S   0  0  0  0  0  0  0  0  0  0  0  0
  197.9260  174.1360  137.9930 C   0  0  0  0  0  3  0  0  0  0  0  0
  189.1980  178.2540  136.9910 C   0  0  0  0  0  2  0  0  0  0  0  0
  187.9350  177.5920  136.5420 C   0  0  0  0  0  0  0  0  0  0  0  0
  187.9600  176.4410  136.1320 O   0  0  0  0  0  0  0  0  0  0  0  0
  186.6450  178.3450  136.5930 C   0  0  0  0  0  2  0  0  0  0  0  0
  185.4860  177.3740  136.4380 C   0  0  0  0  0  2  0  0  0  0  0  0
  184.7630  177.1800  137.7620 C   0  0  2  0  0  3  0  0  0  0  0  0
  183.5400  176.2260  136.1790 C   0  0  0  0  0  1  0  0  0  0  0  0
  183.5330  176.5570  137.5360 O   0  0  0  0  0  0  0  0  0  0  0  0
  184.5390  178.4750  138.3820 N   0  0  0  0  0  2  0  0  0  0  0  0
  181.7400  178.8360  142.3910 C   0  0  0  0  0  1  0  0  0  0  0  0
  184.2770  178.6260  139.7800 C   0  0  0  0  0  0  0  0  0  0  0  0
  183.0520  178.6190  140.2570 C   0  0  0  0  0  3  0  0  0  0  0  0
  184.2830  178.9610  142.3080 C   0  0  0  0  0  2  0  0  0  0  0  0
  185.5670  178.8450  141.0080 S   0  0  0  0  0  0  0  0  0  0  0  0
  182.9940  178.7910  141.6620 N   0  0  0  0  0  0  0  0  0  0  0  0
  190.7700  176.4960  142.1780 O   0  0  0  0  0  0  0  0  0  0  0  0
  191.2670  177.4020  143.1560 C   0  0  0  0  0  2  0  0  0  0  0  0
  189.0570  177.3210  144.3090 C   0  0  0  0  0  3  0  0  0  0  0  0
  188.2730  177.2250  145.4650 C   0  0  0  0  0  0  0  0  0  0  0  0
  188.8900  177.1250  146.7160 C   0  0  0  0  0  3  0  0  0  0  0  0
  190.4510  177.3140  144.4020 C   0  0  0  0  0  0  0  0  0  0  0  0
  191.0660  177.2050  145.6560 C   0  0  0  0  0  3  0  0  0  0  0  0
  190.2850  177.1160  146.8120 C   0  0  0  0  0  3  0  0  0  0  0  0
  186.7860  177.2070  145.3640 C   0  0  0  0  0  2  0  0  0  0  0  0
  186.2620  178.5670  145.3480 N   0  0  0  0  0  2  0  0  0  0  0  0
  185.6610  179.6370  147.3330 O   0  0  0  0  0  1  0  0  0  0  0  0
  185.2680  178.6700  146.4080 C   0  0  0  0  0  3  0  0  0  0  0  0
  184.0360  179.0250  145.8580 O   0  0  0  0  0  1  0  0  0  0  0  0
  1 32  1  0  0  0  0
  2  1  1  0  0  0  0
  3  5  2  0  0  0  0
  3  4  1  0  0  0  0
  4  2  2  0  0  0  0
  5  6  1  0  0  0  0
  6  1  2  0  0  0  0
  7 11  1  0  0  0  0
  7  5  1  1  0  0  0
  8  9  2  0  0  0  0
  9 14  1  0  0  0  0
 10  7  1  0  0  0  0
 10  8  1  0  0  0  0
 11  8  1  0  0  0  0
 13 16  1  0  0  0  0
 13 14  1  0  0  0  0
 14 12  2  0  0  0  0
 15 16  2  0  0  0  0
 17  3  1  0  0  0  0
 18 20  1  0  0  0  0
 18 17  1  0  0  0  0
 19 18  2  0  0  0  0
 21 20  1  0  0  0  0
 22 21  1  6  0  0  0
 22 25  1  0  0  0  0
 23 24  1  0  0  0  0
 24 22  1  0  0  0  0
 25 27  1  0  0  0  0
 27 28  2  0  0  0  0
 27 30  1  0  0  0  0
 28 31  1  0  0  0  0
 30 29  1  0  0  0  0
 31 29  1  0  0  0  0
 31 26  1  0  0  0  0
 32 33  1  0  0  0  0
 33 37  1  0  0  0  0
 34 37  2  0  0  0  0
 34 35  1  0  0  0  0
 35 36  2  0  0  0  0
 36 39  1  0  0  0  0
 37 38  1  0  0  0  0
 38 39  2  0  0  0  0
 40 35  1  0  0  0  0
 41 40  1  0  0  0  0
 41 43  1  0  0  0  0
 43 42  1  0  0  0  0
 44 43  1  0  0  0  0
M  END
>  <MODEL>
3

>  <REMARK>
 VINA RESULT:      -7.8      2.021      2.423
  Name = 
  17 active torsions:
  status: ('A' for Active; 'I' for Inactive)
    1  A    between atoms: O_2  and  C_19
    2  A    between atoms: O_3  and  C_9
    3  A    between atoms: O_3  and  C_42
    4  A    between atoms: C_5  and  N_27
    5  A    between atoms: C_6  and  C_8
    6  A    between atoms: C_6  and  C_32
    7  A    between atoms: C_7  and  C_28
    8  A    between atoms: C_8  and  C_13
    9  A    between atoms: C_13  and  C_19
   10  A    between atoms: C_16  and  N_33
   11  A    between atoms: C_17  and  C_20
   12  A    between atoms: C_17  and  N_35
   13  A    between atoms: C_19  and  N_27
   14  A    between atoms: C_24  and  C_32
   15  A    between atoms: N_29  and  C_37
   16  A    between atoms: C_31  and  N_35
   17  A    between atoms: C_36  and  C_42
                            x       y       z     vdW  Elec       q    Type
                         _______ _______ _______ _____ _____    ______ ____

>  <TORSDO>
F 17

$$$$
=
 OpenBabel10222416133D

 44 47  0  0  1  0  0  0  0  0999 V2000
  190.1840  176.9060  141.3590 C   0  0  0  0  0  0  0  0  0  0  0  0
  189.1140  177.8030  141.3870 C   0  0  0  0  0  3  0  0  0  0  0  0
  189.0640  177.8490  138.9620 C   0  0  0  0  0  0  0  0  0  0  0  0
  188.5610  178.2760  140.1970 C   0  0  0  0  0  3  0  0  0  0  0  0
  190.1240  176.9170  138.9160 C   0  0  0  0  0  0  0  0  0  0  0  0
  190.6850  176.4720  140.1260 C   0  0  0  0  0  3  0  0  0  0  0  0
  190.6500  176.4300  137.5860 C   0  0  2  0  0  3  0  0  0  0  0  0
  192.5670  174.9050  137.6480 C   0  0  0  0  0  0  0  0  0  0  0  0
  193.5450  174.1000  137.9260 N   0  0  0  0  0  0  0  0  0  0  0  0
  190.7660  174.6570  137.4560 S   0  0  0  0  0  0  0  0  0  0  0  0
  192.3930  176.7230  137.4610 S   0  0  0  0  0  0  0  0  0  0  0  0
  195.4470  175.3170  137.2900 O   0  0  0  0  0  0  0  0  0  0  0  0
  195.6500  173.9910  139.2000 N   0  0  0  0  0  2  0  0  0  0  0  0
  194.9060  174.5100  138.0970 C   0  0  0  0  0  0  0  0  0  0  0  0
  197.3910  175.3980  140.6150 S   0  0  0  0  0  0  0  0  0  0  0  0
  197.0120  174.3470  139.4280 C   0  0  0  0  0  3  0  0  0  0  0  0
  188.4470  178.4030  137.7160 C   0  0  0  0  0  2  0  0  0  0  0  0
  187.0310  177.9510  137.5580 C   0  0  0  0  0  0  0  0  0  0  0  0
  186.1140  178.7330  137.7570 O   0  0  0  0  0  0  0  0  0  0  0  0
  186.7450  176.5390  137.1590 C   0  0  0  0  0  2  0  0  0  0  0  0
  185.3860  176.4720  136.4790 C   0  0  0  0  0  2  0  0  0  0  0  0
  184.4520  175.5380  137.2330 C   0  0  2  0  0  3  0  0  0  0  0  0
  184.8250  173.4050  137.7040 C   0  0  0  0  0  1  0  0  0  0  0  0
  184.4950  174.2670  136.6550 O   0  0  0  0  0  0  0  0  0  0  0  0
  183.0950  176.0530  137.1600 N   0  0  0  0  0  2  0  0  0  0  0  0
  182.5380  178.5430  141.3470 C   0  0  0  0  0  1  0  0  0  0  0  0
  182.3890  176.5320  138.3080 C   0  0  0  0  0  0  0  0  0  0  0  0
  182.9580  177.3300  139.1850 C   0  0  0  0  0  3  0  0  0  0  0  0
  180.7790  177.0980  140.2030 C   0  0  0  0  0  2  0  0  0  0  0  0
  180.6880  176.0960  138.6740 S   0  0  0  0  0  0  0  0  0  0  0  0
  182.1040  177.6880  140.2570 N   0  0  0  0  0  0  0  0  0  0  0  0
  190.7180  176.4490  142.5630 O   0  0  0  0  0  0  0  0  0  0  0  0
  191.3800  177.3120  143.4810 C   0  0  0  0  0  2  0  0  0  0  0  0
  189.4840  177.5510  145.0820 C   0  0  0  0  0  3  0  0  0  0  0  0
  188.9180  177.3980  146.3530 C   0  0  0  0  0  0  0  0  0  0  0  0
  189.6770  176.8480  147.3910 C   0  0  0  0  0  3  0  0  0  0  0  0
  190.8020  177.1530  144.8470 C   0  0  0  0  0  0  0  0  0  0  0  0
  191.5580  176.5940  145.8850 C   0  0  0  0  0  3  0  0  0  0  0  0
  190.9970  176.4460  147.1570 C   0  0  0  0  0  3  0  0  0  0  0  0
  187.5030  177.8000  146.5990 C   0  0  0  0  0  2  0  0  0  0  0  0
  186.8300  178.0880  145.3390 N   0  0  0  0  0  2  0  0  0  0  0  0
  185.5250  179.2630  146.8760 O   0  0  0  0  0  1  0  0  0  0  0  0
  185.5000  178.5910  145.6530 C   0  0  0  0  0  3  0  0  0  0  0  0
  185.0840  179.4670  144.6500 O   0  0  0  0  0  1  0  0  0  0  0  0
  1  2  1  0  0  0  0
  1 32  1  0  0  0  0
  3  4  1  0  0  0  0
  4  2  2  0  0  0  0
  5  3  2  0  0  0  0
  5  6  1  0  0  0  0
  6  1  2  0  0  0  0
  7  5  1  1  0  0  0
  8  9  2  0  0  0  0
  9 14  1  0  0  0  0
 10  7  1  0  0  0  0
 10  8  1  0  0  0  0
 11  7  1  0  0  0  0
 11  8  1  0  0  0  0
 12 14  2  0  0  0  0
 13 16  1  0  0  0  0
 14 13  1  0  0  0  0
 16 15  2  0  0  0  0
 17  3  1  0  0  0  0
 18 17  1  0  0  0  0
 18 19  2  0  0  0  0
 20 18  1  0  0  0  0
 21 20  1  0  0  0  0
 22 21  1  6  0  0  0
 24 22  1  0  0  0  0
 24 23  1  0  0  0  0
 25 22  1  0  0  0  0
 25 27  1  0  0  0  0
 27 30  1  0  0  0  0
 27 28  2  0  0  0  0
 28 31  1  0  0  0  0
 29 31  1  0  0  0  0
 30 29  1  0  0  0  0
 31 26  1  0  0  0  0
 32 33  1  0  0  0  0
 33 37  1  0  0  0  0
 34 35  1  0  0  0  0
 35 40  1  0  0  0  0
 35 36  2  0  0  0  0
 37 34  2  0  0  0  0
 37 38  1  0  0  0  0
 38 39  2  0  0  0  0
 39 36  1  0  0  0  0
 41 43  1  0  0  0  0
 41 40  1  0  0  0  0
 43 42  1  0  0  0  0
 44 43  1  0  0  0  0
M  END
>  <MODEL>
4

>  <REMARK>
 VINA RESULT:      -7.6      2.106      2.634
  Name = 
  17 active torsions:
  status: ('A' for Active; 'I' for Inactive)
    1  A    between atoms: O_2  and  C_19
    2  A    between atoms: O_3  and  C_9
    3  A    between atoms: O_3  and  C_42
    4  A    between atoms: C_5  and  N_27
    5  A    between atoms: C_6  and  C_8
    6  A    between atoms: C_6  and  C_32
    7  A    between atoms: C_7  and  C_28
    8  A    between atoms: C_8  and  C_13
    9  A    between atoms: C_13  and  C_19
   10  A    between atoms: C_16  and  N_33
   11  A    between atoms: C_17  and  C_20
   12  A    between atoms: C_17  and  N_35
   13  A    between atoms: C_19  and  N_27
   14  A    between atoms: C_24  and  C_32
   15  A    between atoms: N_29  and  C_37
   16  A    between atoms: C_31  and  N_35
   17  A    between atoms: C_36  and  C_42
                            x       y       z     vdW  Elec       q    Type
                         _______ _______ _______ _____ _____    ______ ____

>  <TORSDO>
F 17

$$$$
=
 OpenBabel10222416133D

 44 47  0  0  1  0  0  0  0  0999 V2000
  187.9550  178.5180  141.1620 C   0  0  0  0  0  0  0  0  0  0  0  0
  186.6540  178.6700  141.6420 C   0  0  0  0  0  3  0  0  0  0  0  0
  185.7750  178.4430  139.3920 C   0  0  0  0  0  0  0  0  0  0  0  0
  185.5700  178.6390  140.7640 C   0  0  0  0  0  3  0  0  0  0  0  0
  187.0820  178.2540  138.8940 C   0  0  0  0  0  0  0  0  0  0  0  0
  188.1630  178.3160  139.7920 C   0  0  0  0  0  3  0  0  0  0  0  0
  187.3060  178.0120  137.4190 C   0  0  2  0  0  3  0  0  0  0  0  0
  188.9970  176.3450  136.8170 C   0  0  0  0  0  0  0  0  0  0  0  0
  189.8990  175.4170  136.7420 N   0  0  0  0  0  0  0  0  0  0  0  0
  187.1730  176.3020  136.9350 S   0  0  0  0  0  0  0  0  0  0  0  0
  189.0240  178.1690  137.0150 S   0  0  0  0  0  0  0  0  0  0  0  0
  191.9060  175.9210  135.6360 O   0  0  0  0  0  0  0  0  0  0  0  0
  192.0400  175.6050  137.9450 N   0  0  0  0  0  2  0  0  0  0  0  0
  191.3100  175.6600  136.7180 C   0  0  0  0  0  0  0  0  0  0  0  0
  194.4760  174.5900  137.7310 S   0  0  0  0  0  0  0  0  0  0  0  0
  193.4480  175.8270  137.9970 C   0  0  0  0  0  3  0  0  0  0  0  0
  184.5800  178.4370  138.4920 C   0  0  0  0  0  2  0  0  0  0  0  0
  183.6150  179.5200  138.8550 C   0  0  0  0  0  0  0  0  0  0  0  0
  184.0130  180.6650  139.0170 O   0  0  0  0  0  0  0  0  0  0  0  0
  182.1660  179.1950  139.0230 C   0  0  0  0  0  2  0  0  0  0  0  0
  182.0250  177.9230  139.8450 C   0  0  0  0  0  2  0  0  0  0  0  0
  181.1270  176.9210  139.1370 C   0  0  2  0  0  3  0  0  0  0  0  0
  179.6560  175.7210  140.2810 C   0  0  0  0  0  1  0  0  0  0  0  0
  181.0050  175.7690  139.9190 O   0  0  0  0  0  0  0  0  0  0  0  0
  181.7140  176.5710  137.8540 N   0  0  0  0  0  2  0  0  0  0  0  0
  185.0710  173.0020  137.6850 C   0  0  0  0  0  1  0  0  0  0  0  0
  182.2110  175.2620  137.5650 C   0  0  0  0  0  0  0  0  0  0  0  0
  183.4470  174.9140  137.8510 C   0  0  0  0  0  3  0  0  0  0  0  0
  182.6710  172.8590  136.8440 C   0  0  0  0  0  2  0  0  0  0  0  0
  181.2240  173.9800  136.7890 S   0  0  0  0  0  0  0  0  0  0  0  0
  183.7570  173.5820  137.4810 N   0  0  0  0  0  0  0  0  0  0  0  0
  189.0200  178.5530  142.0610 O   0  0  0  0  0  0  0  0  0  0  0  0
  189.6910  177.3750  142.4960 C   0  0  0  0  0  2  0  0  0  0  0  0
  188.5640  177.6240  144.7060 C   0  0  0  0  0  3  0  0  0  0  0  0
  188.5690  177.5650  146.1050 C   0  0  0  0  0  0  0  0  0  0  0  0
  189.7390  177.2030  146.7820 C   0  0  0  0  0  3  0  0  0  0  0  0
  189.7220  177.3200  143.9860 C   0  0  0  0  0  0  0  0  0  0  0  0
  190.8900  176.9500  144.6660 C   0  0  0  0  0  3  0  0  0  0  0  0
  190.8980  176.8960  146.0630 C   0  0  0  0  0  3  0  0  0  0  0  0
  187.3270  177.8650  146.8740 C   0  0  0  0  0  2  0  0  0  0  0  0
  186.1610  177.7950  146.0030 N   0  0  0  0  0  2  0  0  0  0  0  0
  184.0580  178.8060  146.0340 O   0  0  0  0  0  1  0  0  0  0  0  0
  185.4280  179.0450  146.1450 C   0  0  0  0  0  3  0  0  0  0  0  0
  185.7030  179.6070  147.3920 O   0  0  0  0  0  1  0  0  0  0  0  0
  1  2  1  0  0  0  0
  1 32  1  0  0  0  0
  3  4  1  0  0  0  0
  4  2  2  0  0  0  0
  5  3  2  0  0  0  0
  5  6  1  0  0  0  0
  6  1  2  0  0  0  0
  7  5  1  1  0  0  0
  8 10  1  0  0  0  0
  8 11  1  0  0  0  0
  9  8  2  0  0  0  0
 10  7  1  0  0  0  0
 11  7  1  0  0  0  0
 12 14  2  0  0  0  0
 13 16  1  0  0  0  0
 14  9  1  0  0  0  0
 14 13  1  0  0  0  0
 15 16  2  0  0  0  0
 17 18  1  0  0  0  0
 17  3  1  0  0  0  0
 18 19  2  0  0  0  0
 18 20  1  0  0  0  0
 20 21  1  0  0  0  0
 22 21  1  1  0  0  0
 22 24  1  0  0  0  0
 24 23  1  0  0  0  0
 25 22  1  0  0  0  0
 27 28  2  0  0  0  0
 27 25  1  0  0  0  0
 29 31  1  0  0  0  0
 30 29  1  0  0  0  0
 30 27  1  0  0  0  0
 31 26  1  0  0  0  0
 31 28  1  0  0  0  0
 32 33  1  0  0  0  0
 33 37  1  0  0  0  0
 34 35  1  0  0  0  0
 35 36  2  0  0  0  0
 35 40  1  0  0  0  0
 37 38  1  0  0  0  0
 37 34  2  0  0  0  0
 38 39  2  0  0  0  0
 39 36  1  0  0  0  0
 41 43  1  0  0  0  0
 41 40  1  0  0  0  0
 42 43  1  0  0  0  0
 43 44  1  0  0  0  0
M  END
>  <MODEL>
5

>  <REMARK>
 VINA RESULT:      -7.6      2.829      4.283
  Name = 
  17 active torsions:
  status: ('A' for Active; 'I' for Inactive)
    1  A    between atoms: O_2  and  C_19
    2  A    between atoms: O_3  and  C_9
    3  A    between atoms: O_3  and  C_42
    4  A    between atoms: C_5  and  N_27
    5  A    between atoms: C_6  and  C_8
    6  A    between atoms: C_6  and  C_32
    7  A    between atoms: C_7  and  C_28
    8  A    between atoms: C_8  and  C_13
    9  A    between atoms: C_13  and  C_19
   10  A    between atoms: C_16  and  N_33
   11  A    between atoms: C_17  and  C_20
   12  A    between atoms: C_17  and  N_35
   13  A    between atoms: C_19  and  N_27
   14  A    between atoms: C_24  and  C_32
   15  A    between atoms: N_29  and  C_37
   16  A    between atoms: C_31  and  N_35
   17  A    between atoms: C_36  and  C_42
                            x       y       z     vdW  Elec       q    Type
                         _______ _______ _______ _____ _____    ______ ____

>  <TORSDO>
F 17

$$$$
=
 OpenBabel10222416133D

 44 47  0  0  1  0  0  0  0  0999 V2000
  186.6150  178.5210  141.8390 C   0  0  0  0  0  0  0  0  0  0  0  0
  187.0740  177.8910  142.9970 C   0  0  0  0  0  3  0  0  0  0  0  0
  189.0690  177.1560  141.8300 C   0  0  0  0  0  0  0  0  0  0  0  0
  188.2900  177.2080  142.9920 C   0  0  0  0  0  3  0  0  0  0  0  0
  188.6360  177.8150  140.6600 C   0  0  0  0  0  0  0  0  0  0  0  0
  187.3940  178.4760  140.6770 C   0  0  0  0  0  3  0  0  0  0  0  0
  189.4880  177.7860  139.4110 C   0  0  2  0  0  3  0  0  0  0  0  0
  188.3070  177.5930  137.2730 C   0  0  0  0  0  0  0  0  0  0  0  0
  187.4780  177.5200  136.2790 N   0  0  0  0  0  0  0  0  0  0  0  0
  189.0290  179.0010  138.1910 S   0  0  0  0  0  0  0  0  0  0  0  0
  189.0820  176.3810  138.4120 S   0  0  0  0  0  0  0  0  0  0  0  0
  187.4380  175.8290  134.6520 O   0  0  0  0  0  0  0  0  0  0  0  0
  185.9450  175.5980  136.4310 N   0  0  0  0  0  2  0  0  0  0  0  0
  186.9780  176.2950  135.7330 C   0  0  0  0  0  0  0  0  0  0  0  0
  185.1400  173.1320  136.9650 S   0  0  0  0  0  0  0  0  0  0  0  0
  185.3920  174.3780  135.9430 C   0  0  0  0  0  3  0  0  0  0  0  0
  190.3560  176.3930  141.8740 C   0  0  0  0  0  2  0  0  0  0  0  0
  191.5050  177.2760  142.2410 C   0  0  0  0  0  0  0  0  0  0  0  0
  192.3890  177.4980  141.4270 O   0  0  0  0  0  0  0  0  0  0  0  0
  191.5680  177.8810  143.6060 C   0  0  0  0  0  2  0  0  0  0  0  0
  191.6460  176.7750  144.6460 C   0  0  0  0  0  2  0  0  0  0  0  0
  191.1400  177.2660  145.9940 C   0  0  2  0  0  3  0  0  0  0  0  0
  192.1770  175.5060  146.8560 C   0  0  0  0  0  1  0  0  0  0  0  0
  192.0390  176.8900  146.9950 O   0  0  0  0  0  0  0  0  0  0  0  0
  189.8420  176.6720  146.2650 N   0  0  0  0  0  2  0  0  0  0  0  0
  185.3010  178.4720  146.6950 C   0  0  0  0  0  1  0  0  0  0  0  0
  188.7800  177.3950  146.8940 C   0  0  0  0  0  0  0  0  0  0  0  0
  187.5830  177.4730  146.3550 C   0  0  0  0  0  3  0  0  0  0  0  0
  187.2210  178.8090  148.3360 C   0  0  0  0  0  2  0  0  0  0  0  0
  188.9650  178.2640  148.4530 S   0  0  0  0  0  0  0  0  0  0  0  0
  186.6700  178.2400  147.1190 N   0  0  0  0  0  0  0  0  0  0  0  0
  185.3960  179.1970  141.8700 O   0  0  0  0  0  0  0  0  0  0  0  0
  184.6380  179.3500  143.0660 C   0  0  0  0  0  2  0  0  0  0  0  0
  182.8050  178.6460  141.5300 C   0  0  0  0  0  3  0  0  0  0  0  0
  181.4710  178.3040  141.2800 C   0  0  0  0  0  0  0  0  0  0  0  0
  180.5400  178.3220  142.3240 C   0  0  0  0  0  3  0  0  0  0  0  0
  183.2090  179.0030  142.8190 C   0  0  0  0  0  0  0  0  0  0  0  0
  182.2770  179.0120  143.8650 C   0  0  0  0  0  3  0  0  0  0  0  0
  180.9430  178.6760  143.6160 C   0  0  0  0  0  3  0  0  0  0  0  0
  181.0430  177.8990  139.9100 C   0  0  0  0  0  2  0  0  0  0  0  0
  182.2060  177.6610  139.0640 N   0  0  0  0  0  2  0  0  0  0  0  0
  182.1650  176.5650  137.0040 O   0  0  0  0  0  1  0  0  0  0  0  0
  182.0010  176.3930  138.3790 C   0  0  0  0  0  3  0  0  0  0  0  0
  182.9270  175.4580  138.8440 O   0  0  0  0  0  1  0  0  0  0  0  0
  1 32  1  0  0  0  0
  1  2  1  0  0  0  0
  3 17  1  0  0  0  0
  3  4  1  0  0  0  0
  4  2  2  0  0  0  0
  5  6  1  0  0  0  0
  5  3  2  0  0  0  0
  6  1  2  0  0  0  0
  7  5  1  1  0  0  0
  8 10  1  0  0  0  0
  8 11  1  0  0  0  0
  9  8  2  0  0  0  0
 10  7  1  0  0  0  0
 11  7  1  0  0  0  0
 12 14  2  0  0  0  0
 14  9  1  0  0  0  0
 14 13  1  0  0  0  0
 16 13  1  0  0  0  0
 16 15  2  0  0  0  0
 17 18  1  0  0  0  0
 18 20  1  0  0  0  0
 19 18  2  0  0  0  0
 20 21  1  0  0  0  0
 22 21  1  6  0  0  0
 22 25  1  0  0  0  0
 22 24  1  0  0  0  0
 23 24  1  0  0  0  0
 25 27  1  0  0  0  0
 26 31  1  0  0  0  0
 27 30  1  0  0  0  0
 28 27  2  0  0  0  0
 28 31  1  0  0  0  0
 29 30  1  0  0  0  0
 31 29  1  0  0  0  0
 32 33  1  0  0  0  0
 34 37  1  0  0  0  0
 35 34  2  0  0  0  0
 35 36  1  0  0  0  0
 36 39  2  0  0  0  0
 37 33  1  0  0  0  0
 37 38  2  0  0  0  0
 39 38  1  0  0  0  0
 40 35  1  0  0  0  0
 41 40  1  0  0  0  0
 42 43  1  0  0  0  0
 43 44  1  0  0  0  0
 43 41  1  0  0  0  0
M  END
>  <MODEL>
6

>  <REMARK>
 VINA RESULT:      -7.4      3.835      8.454
  Name = 
  17 active torsions:
  status: ('A' for Active; 'I' for Inactive)
    1  A    between atoms: O_2  and  C_19
    2  A    between atoms: O_3  and  C_9
    3  A    between atoms: O_3  and  C_42
    4  A    between atoms: C_5  and  N_27
    5  A    between atoms: C_6  and  C_8
    6  A    between atoms: C_6  and  C_32
    7  A    between atoms: C_7  and  C_28
    8  A    between atoms: C_8  and  C_13
    9  A    between atoms: C_13  and  C_19
   10  A    between atoms: C_16  and  N_33
   11  A    between atoms: C_17  and  C_20
   12  A    between atoms: C_17  and  N_35
   13  A    between atoms: C_19  and  N_27
   14  A    between atoms: C_24  and  C_32
   15  A    between atoms: N_29  and  C_37
   16  A    between atoms: C_31  and  N_35
   17  A    between atoms: C_36  and  C_42
                            x       y       z     vdW  Elec       q    Type
                         _______ _______ _______ _____ _____    ______ ____

>  <TORSDO>
F 17

$$$$
=
 OpenBabel10222416133D

 44 47  0  0  1  0  0  0  0  0999 V2000
  185.7740  178.9520  141.5980 C   0  0  0  0  0  0  0  0  0  0  0  0
  187.1350  178.6520  141.5290 C   0  0  0  0  0  3  0  0  0  0  0  0
  186.9480  178.2530  139.1440 C   0  0  0  0  0  0  0  0  0  0  0  0
  187.7180  178.2980  140.3130 C   0  0  0  0  0  3  0  0  0  0  0  0
  185.5770  178.5860  139.1890 C   0  0  0  0  0  0  0  0  0  0  0  0
  185.0020  178.9130  140.4300 C   0  0  0  0  0  3  0  0  0  0  0  0
  184.7480  178.5670  137.9260 C   0  0  2  0  0  3  0  0  0  0  0  0
  183.2070  176.6830  137.6440 C   0  0  0  0  0  0  0  0  0  0  0  0
  182.4570  175.6290  137.7270 N   0  0  0  0  0  0  0  0  0  0  0  0
  182.9960  178.4100  138.2090 S   0  0  0  0  0  0  0  0  0  0  0  0
  184.9240  177.0160  137.0880 S   0  0  0  0  0  0  0  0  0  0  0  0
  182.0620  173.6430  136.5410 O   0  0  0  0  0  0  0  0  0  0  0  0
  184.1150  173.8100  137.6390 N   0  0  0  0  0  2  0  0  0  0  0  0
  182.8370  174.3280  137.2660 C   0  0  0  0  0  0  0  0  0  0  0  0
  185.6760  172.3810  136.0470 S   0  0  0  0  0  0  0  0  0  0  0  0
  184.5580  172.5190  137.2260 C   0  0  0  0  0  3  0  0  0  0  0  0
  187.6190  177.8490  137.8690 C   0  0  0  0  0  2  0  0  0  0  0  0
  188.9640  178.4860  137.7310 C   0  0  0  0  0  0  0  0  0  0  0  0
  189.0540  179.6910  137.5500 O   0  0  0  0  0  0  0  0  0  0  0  0
  190.1950  177.6420  137.8120 C   0  0  0  0  0  2  0  0  0  0  0  0
  189.8010  176.1960  138.0680 C   0  0  0  0  0  2  0  0  0  0  0  0
  190.4090  175.2780  137.0200 C   0  0  2  0  0  3  0  0  0  0  0  0
  189.3650  173.3310  136.8440 C   0  0  0  0  0  1  0  0  0  0  0  0
  190.4230  173.9660  137.4990 O   0  0  0  0  0  0  0  0  0  0  0  0
  191.7710  175.7020  136.7400 N   0  0  0  0  0  2  0  0  0  0  0  0
  195.8060  174.1290  139.0390 C   0  0  0  0  0  1  0  0  0  0  0  0
  192.9020  174.8540  136.9540 C   0  0  0  0  0  0  0  0  0  0  0  0
  193.7150  175.0310  137.9730 C   0  0  0  0  0  3  0  0  0  0  0  0
  194.7920  173.1420  136.9200 C   0  0  0  0  0  2  0  0  0  0  0  0
  193.3310  173.4880  135.8730 S   0  0  0  0  0  0  0  0  0  0  0  0
  194.7810  174.1000  138.0110 N   0  0  0  0  0  0  0  0  0  0  0  0
  185.2160  179.3030  142.8270 O   0  0  0  0  0  0  0  0  0  0  0  0
  184.6580  178.3390  143.7140 C   0  0  0  0  0  2  0  0  0  0  0  0
  186.7660  177.7350  144.8990 C   0  0  0  0  0  3  0  0  0  0  0  0
  187.5510  177.6600  146.0560 C   0  0  0  0  0  0  0  0  0  0  0  0
  187.0340  178.1040  147.2770 C   0  0  0  0  0  3  0  0  0  0  0  0
  185.4710  178.2550  144.9610 C   0  0  0  0  0  0  0  0  0  0  0  0
  184.9580  178.7070  146.1840 C   0  0  0  0  0  3  0  0  0  0  0  0
  185.7380  178.6280  147.3410 C   0  0  0  0  0  3  0  0  0  0  0  0
  188.9430  177.1280  145.9870 C   0  0  0  0  0  2  0  0  0  0  0  0
  189.8500  178.1440  145.4690 N   0  0  0  0  0  2  0  0  0  0  0  0
  190.1730  178.6270  143.2090 O   0  0  0  0  0  1  0  0  0  0  0  0
  190.3720  177.6630  144.1980 C   0  0  0  0  0  3  0  0  0  0  0  0
  191.7370  177.4020  144.3240 O   0  0  0  0  0  1  0  0  0  0  0  0
  1 32  1  0  0  0  0
  2  1  1  0  0  0  0
  3  5  2  0  0  0  0
  3  4  1  0  0  0  0
  4  2  2  0  0  0  0
  5  6  1  0  0  0  0
  6  1  2  0  0  0  0
  7 10  1  0  0  0  0
  7  5  1  1  0  0  0
  8  9  2  0  0  0  0
  8 10  1  0  0  0  0
 11  8  1  0  0  0  0
 11  7  1  0  0  0  0
 12 14  2  0  0  0  0
 14 13  1  0  0  0  0
 14  9  1  0  0  0  0
 15 16  2  0  0  0  0
 16 13  1  0  0  0  0
 17  3  1  0  0  0  0
 18 20  1  0  0  0  0
 18 17  1  0  0  0  0
 19 18  2  0  0  0  0
 20 21  1  0  0  0  0
 22 24  1  0  0  0  0
 22 21  1  1  0  0  0
 23 24  1  0  0  0  0
 25 27  1  0  0  0  0
 25 22  1  0  0  0  0
 27 28  2  0  0  0  0
 28 31  1  0  0  0  0
 29 31  1  0  0  0  0
 30 29  1  0  0  0  0
 30 27  1  0  0  0  0
 31 26  1  0  0  0  0
 32 33  1  0  0  0  0
 33 37  1  0  0  0  0
 34 37  2  0  0  0  0
 34 35  1  0  0  0  0
 35 36  2  0  0  0  0
 36 39  1  0  0  0  0
 37 38  1  0  0  0  0
 38 39  2  0  0  0  0
 40 35  1  0  0  0  0
 41 40  1  0  0  0  0
 42 43  1  0  0  0  0
 43 44  1  0  0  0  0
 43 41  1  0  0  0  0
M  END
>  <MODEL>
7

>  <REMARK>
 VINA RESULT:      -7.0      2.827      8.726
  Name = 
  17 active torsions:
  status: ('A' for Active; 'I' for Inactive)
    1  A    between atoms: O_2  and  C_19
    2  A    between atoms: O_3  and  C_9
    3  A    between atoms: O_3  and  C_42
    4  A    between atoms: C_5  and  N_27
    5  A    between atoms: C_6  and  C_8
    6  A    between atoms: C_6  and  C_32
    7  A    between atoms: C_7  and  C_28
    8  A    between atoms: C_8  and  C_13
    9  A    between atoms: C_13  and  C_19
   10  A    between atoms: C_16  and  N_33
   11  A    between atoms: C_17  and  C_20
   12  A    between atoms: C_17  and  N_35
   13  A    between atoms: C_19  and  N_27
   14  A    between atoms: C_24  and  C_32
   15  A    between atoms: N_29  and  C_37
   16  A    between atoms: C_31  and  N_35
   17  A    between atoms: C_36  and  C_42
                            x       y       z     vdW  Elec       q    Type
                         _______ _______ _______ _____ _____    ______ ____

>  <TORSDO>
F 17

$$$$
=
 OpenBabel10222416133D

 44 47  0  0  1  0  0  0  0  0999 V2000
  189.6320  177.4910  139.8110 C   0  0  0  0  0  0  0  0  0  0  0  0
  188.4880  178.2400  139.5290 C   0  0  0  0  0  3  0  0  0  0  0  0
  188.5250  177.4690  137.2300 C   0  0  0  0  0  0  0  0  0  0  0  0
  187.9410  178.2340  138.2460 C   0  0  0  0  0  3  0  0  0  0  0  0
  189.6630  176.6800  137.5060 C   0  0  0  0  0  0  0  0  0  0  0  0
  190.2150  176.7200  138.7990 C   0  0  0  0  0  3  0  0  0  0  0  0
  190.2800  175.8290  136.4200 C   0  0  2  0  0  3  0  0  0  0  0  0
  192.2410  174.4980  137.0400 C   0  0  0  0  0  0  0  0  0  0  0  0
  193.2290  173.8700  137.5980 N   0  0  0  0  0  0  0  0  0  0  0  0
  190.4630  174.1120  136.8590 S   0  0  0  0  0  0  0  0  0  0  0  0
  192.0160  176.1550  136.2840 S   0  0  0  0  0  0  0  0  0  0  0  0
  194.7890  175.6230  137.6380 O   0  0  0  0  0  0  0  0  0  0  0  0
  195.6460  173.4610  137.8400 N   0  0  0  0  0  2  0  0  0  0  0  0
  194.5630  174.3810  137.6890 C   0  0  0  0  0  0  0  0  0  0  0  0
  197.9200  173.9680  136.5820 S   0  0  0  0  0  0  0  0  0  0  0  0
  197.0010  173.8960  137.9270 C   0  0  0  0  0  3  0  0  0  0  0  0
  187.9100  177.5140  135.8670 C   0  0  0  0  0  2  0  0  0  0  0  0
  186.7290  176.6020  135.7680 C   0  0  0  0  0  0  0  0  0  0  0  0
  186.8950  175.4020  135.6010 O   0  0  0  0  0  0  0  0  0  0  0  0
  185.3480  177.1640  135.8690 C   0  0  0  0  0  2  0  0  0  0  0  0
  184.3760  176.0540  136.2350 C   0  0  0  0  0  2  0  0  0  0  0  0
  184.1220  176.0320  137.7340 C   0  0  2  0  0  3  0  0  0  0  0  0
  182.5710  174.6070  137.0450 C   0  0  0  0  0  1  0  0  0  0  0  0
  183.4780  174.8420  138.0820 O   0  0  0  0  0  0  0  0  0  0  0  0
  183.2790  177.1590  138.0970 N   0  0  0  0  0  2  0  0  0  0  0  0
  185.3040  179.2760  142.0290 C   0  0  0  0  0  1  0  0  0  0  0  0
  183.2910  177.7420  139.4030 C   0  0  0  0  0  0  0  0  0  0  0  0
  184.3970  178.2050  139.9430 C   0  0  0  0  0  3  0  0  0  0  0  0
  182.8510  178.6510  141.7450 C   0  0  0  0  0  2  0  0  0  0  0  0
  181.8280  177.8930  140.4300 S   0  0  0  0  0  0  0  0  0  0  0  0
  184.2110  178.7330  141.2440 N   0  0  0  0  0  0  0  0  0  0  0  0
  190.1580  177.5150  141.1020 O   0  0  0  0  0  0  0  0  0  0  0  0
  190.1320  176.3770  141.9580 C   0  0  0  0  0  2  0  0  0  0  0  0
  190.0560  176.8360  144.4070 C   0  0  0  0  0  3  0  0  0  0  0  0
  189.3590  177.1370  145.5830 C   0  0  0  0  0  0  0  0  0  0  0  0
  187.9680  177.2840  145.5480 C   0  0  0  0  0  3  0  0  0  0  0  0
  189.3680  176.6840  143.2010 C   0  0  0  0  0  0  0  0  0  0  0  0
  187.9760  176.8400  143.1670 C   0  0  0  0  0  3  0  0  0  0  0  0
  187.2770  177.1360  144.3410 C   0  0  0  0  0  3  0  0  0  0  0  0
  190.0950  177.3230  146.8670 C   0  0  0  0  0  2  0  0  0  0  0  0
  191.5240  177.1170  146.6670 N   0  0  0  0  0  2  0  0  0  0  0  0
  192.5100  175.0050  146.5730 O   0  0  0  0  0  1  0  0  0  0  0  0
  191.9080  175.9330  147.4230 C   0  0  0  0  0  3  0  0  0  0  0  0
  192.8060  176.2940  148.4290 O   0  0  0  0  0  1  0  0  0  0  0  0
  1 32  1  0  0  0  0
  2  1  1  0  0  0  0
  3  5  2  0  0  0  0
  3  4  1  0  0  0  0
  4  2  2  0  0  0  0
  5  6  1  0  0  0  0
  6  1  2  0  0  0  0
  7 10  1  0  0  0  0
  7  5  1  1  0  0  0
  8  9  2  0  0  0  0
  9 14  1  0  0  0  0
 10  8  1  0  0  0  0
 11  7  1  0  0  0  0
 11  8  1  0  0  0  0
 12 14  2  0  0  0  0
 13 16  1  0  0  0  0
 14 13  1  0  0  0  0
 15 16  2  0  0  0  0
 17  3  1  0  0  0  0
 18 17  1  0  0  0  0
 18 20  1  0  0  0  0
 19 18  2  0  0  0  0
 20 21  1  0  0  0  0
 22 21  1  6  0  0  0
 22 24  1  0  0  0  0
 22 25  1  0  0  0  0
 23 24  1  0  0  0  0
 25 27  1  0  0  0  0
 27 28  2  0  0  0  0
 27 30  1  0  0  0  0
 28 31  1  0  0  0  0
 30 29  1  0  0  0  0
 31 29  1  0  0  0  0
 31 26  1  0  0  0  0
 32 33  1  0  0  0  0
 33 37  1  0  0  0  0
 34 35  1  0  0  0  0
 35 40  1  0  0  0  0
 36 35  2  0  0  0  0
 37 34  2  0  0  0  0
 38 37  1  0  0  0  0
 38 39  2  0  0  0  0
 39 36  1  0  0  0  0
 41 40  1  0  0  0  0
 41 43  1  0  0  0  0
 42 43  1  0  0  0  0
 43 44  1  0  0  0  0
M  END
>  <MODEL>
8

>  <REMARK>
 VINA RESULT:      -6.9      2.723      3.533
  Name = 
  17 active torsions:
  status: ('A' for Active; 'I' for Inactive)
    1  A    between atoms: O_2  and  C_19
    2  A    between atoms: O_3  and  C_9
    3  A    between atoms: O_3  and  C_42
    4  A    between atoms: C_5  and  N_27
    5  A    between atoms: C_6  and  C_8
    6  A    between atoms: C_6  and  C_32
    7  A    between atoms: C_7  and  C_28
    8  A    between atoms: C_8  and  C_13
    9  A    between atoms: C_13  and  C_19
   10  A    between atoms: C_16  and  N_33
   11  A    between atoms: C_17  and  C_20
   12  A    between atoms: C_17  and  N_35
   13  A    between atoms: C_19  and  N_27
   14  A    between atoms: C_24  and  C_32
   15  A    between atoms: N_29  and  C_37
   16  A    between atoms: C_31  and  N_35
   17  A    between atoms: C_36  and  C_42
                            x       y       z     vdW  Elec       q    Type
                         _______ _______ _______ _____ _____    ______ ____

>  <TORSDO>
F 17

$$$$
=
 OpenBabel10222416133D

 44 47  0  0  1  0  0  0  0  0999 V2000
  186.3090  178.5680  140.0970 C   0  0  0  0  0  0  0  0  0  0  0  0
  186.9480  178.7060  141.3300 C   0  0  0  0  0  3  0  0  0  0  0  0
  184.8320  178.4200  142.4810 C   0  0  0  0  0  0  0  0  0  0  0  0
  186.2150  178.6390  142.5150 C   0  0  0  0  0  3  0  0  0  0  0  0
  184.1750  178.2460  141.2440 C   0  0  0  0  0  0  0  0  0  0  0  0
  184.9270  178.3440  140.0600 C   0  0  0  0  0  3  0  0  0  0  0  0
  182.6880  177.9800  141.2040 C   0  0  2  0  0  3  0  0  0  0  0  0
  181.4310  179.0110  139.3710 C   0  0  0  0  0  0  0  0  0  0  0  0
  180.9890  179.6210  138.3150 N   0  0  0  0  0  0  0  0  0  0  0  0
  182.1070  177.3340  139.6480 S   0  0  0  0  0  0  0  0  0  0  0  0
  181.7860  179.5020  141.1030 S   0  0  0  0  0  0  0  0  0  0  0  0
  179.9080  181.4750  139.2630 O   0  0  0  0  0  0  0  0  0  0  0  0
  180.8540  181.7880  137.1530 N   0  0  0  0  0  2  0  0  0  0  0  0
  180.5510  180.9830  138.2930 C   0  0  0  0  0  0  0  0  0  0  0  0
  181.5410  184.3450  137.2070 S   0  0  0  0  0  0  0  0  0  0  0  0
  180.4420  183.1500  137.0570 C   0  0  0  0  0  3  0  0  0  0  0  0
  184.0910  178.3770  143.7800 C   0  0  0  0  0  2  0  0  0  0  0  0
  184.9990  178.6330  144.9390 C   0  0  0  0  0  0  0  0  0  0  0  0
  185.0530  179.7470  145.4400 O   0  0  0  0  0  0  0  0  0  0  0  0
  185.8440  177.5240  145.4770 C   0  0  0  0  0  2  0  0  0  0  0  0
  186.7400  178.0610  146.5830 C   0  0  0  0  0  2  0  0  0  0  0  0
  188.0330  177.2660  146.6630 C   0  0  2  0  0  3  0  0  0  0  0  0
  188.8580  178.2530  148.4670 C   0  0  0  0  0  1  0  0  0  0  0  0
  188.3580  177.0340  148.0020 O   0  0  0  0  0  0  0  0  0  0  0  0
  189.1030  178.0220  146.0320 N   0  0  0  0  0  2  0  0  0  0  0  0
  190.2220  176.7480  141.4320 C   0  0  0  0  0  1  0  0  0  0  0  0
  189.9210  177.4800  144.9920 C   0  0  0  0  0  0  0  0  0  0  0  0
  189.5250  177.4690  143.7380 C   0  0  0  0  0  3  0  0  0  0  0  0
  191.6740  176.3890  143.4940 C   0  0  0  0  0  2  0  0  0  0  0  0
  191.5390  176.7630  145.2820 S   0  0  0  0  0  0  0  0  0  0  0  0
  190.4660  176.8820  142.8560 N   0  0  0  0  0  0  0  0  0  0  0  0
  187.0650  178.6400  138.9280 O   0  0  0  0  0  0  0  0  0  0  0  0
  186.6060  178.1110  137.6880 C   0  0  0  0  0  2  0  0  0  0  0  0
  188.6520  176.6860  137.7370 C   0  0  0  0  0  3  0  0  0  0  0  0
  189.3250  175.4880  137.4700 C   0  0  0  0  0  0  0  0  0  0  0  0
  188.6500  174.4350  136.8450 C   0  0  0  0  0  3  0  0  0  0  0  0
  187.3080  176.8310  137.3820 C   0  0  0  0  0  0  0  0  0  0  0  0
  186.6320  175.7720  136.7630 C   0  0  0  0  0  3  0  0  0  0  0  0
  187.3040  174.5770  136.4910 C   0  0  0  0  0  3  0  0  0  0  0  0
  190.7530  175.3240  137.8710 C   0  0  0  0  0  2  0  0  0  0  0  0
  191.4150  176.6200  137.9340 N   0  0  0  0  0  2  0  0  0  0  0  0
  193.5540  176.9440  138.8090 O   0  0  0  0  0  1  0  0  0  0  0  0
  192.8410  176.3970  137.7420 C   0  0  0  0  0  3  0  0  0  0  0  0
  193.0920  175.0260  137.6700 O   0  0  0  0  0  1  0  0  0  0  0  0
  1  2  1  0  0  0  0
  2  4  2  0  0  0  0
  3  4  1  0  0  0  0
  3 17  1  0  0  0  0
  5  3  2  0  0  0  0
  6  1  2  0  0  0  0
  6  5  1  0  0  0  0
  7  5  1  6  0  0  0
  8 10  1  0  0  0  0
  8 11  1  0  0  0  0
  9  8  2  0  0  0  0
 10  7  1  0  0  0  0
 11  7  1  0  0  0  0
 13 14  1  0  0  0  0
 14  9  1  0  0  0  0
 14 12  2  0  0  0  0
 16 13  1  0  0  0  0
 16 15  2  0  0  0  0
 17 18  1  0  0  0  0
 18 19  2  0  0  0  0
 18 20  1  0  0  0  0
 20 21  1  0  0  0  0
 22 21  1  1  0  0  0
 22 24  1  0  0  0  0
 24 23  1  0  0  0  0
 25 22  1  0  0  0  0
 26 31  1  0  0  0  0
 27 30  1  0  0  0  0
 27 25  1  0  0  0  0
 28 27  2  0  0  0  0
 29 30  1  0  0  0  0
 31 29  1  0  0  0  0
 31 28  1  0  0  0  0
 32  1  1  0  0  0  0
 33 32  1  0  0  0  0
 35 34  1  0  0  0  0
 35 40  1  0  0  0  0
 36 35  2  0  0  0  0
 37 33  1  0  0  0  0
 37 34  2  0  0  0  0
 38 37  1  0  0  0  0
 39 38  2  0  0  0  0
 39 36  1  0  0  0  0
 40 41  1  0  0  0  0
 43 41  1  0  0  0  0
 43 42  1  0  0  0  0
 44 43  1  0  0  0  0
M  END
>  <MODEL>
9

>  <REMARK>
 VINA RESULT:      -6.9      3.191     10.595
  Name = 
  17 active torsions:
  status: ('A' for Active; 'I' for Inactive)
    1  A    between atoms: O_2  and  C_19
    2  A    between atoms: O_3  and  C_9
    3  A    between atoms: O_3  and  C_42
    4  A    between atoms: C_5  and  N_27
    5  A    between atoms: C_6  and  C_8
    6  A    between atoms: C_6  and  C_32
    7  A    between atoms: C_7  and  C_28
    8  A    between atoms: C_8  and  C_13
    9  A    between atoms: C_13  and  C_19
   10  A    between atoms: C_16  and  N_33
   11  A    between atoms: C_17  and  C_20
   12  A    between atoms: C_17  and  N_35
   13  A    between atoms: C_19  and  N_27
   14  A    between atoms: C_24  and  C_32
   15  A    between atoms: N_29  and  C_37
   16  A    between atoms: C_31  and  N_35
   17  A    between atoms: C_36  and  C_42
                            x       y       z     vdW  Elec       q    Type
                         _______ _______ _______ _____ _____    ______ ____

>  <TORSDO>
F 17

$$$$
