=
 OpenBabel10222416163D

 46 49  0  0  1  0  0  0  0  0999 V2000
  184.4880  179.5100  144.8310 C   0  0  0  0  0  2  0  0  0  0  0  0
  186.6410  177.7230  143.8330 N   0  0  0  0  0  0  0  0  0  0  0  0
  184.6670  178.4590  142.5620 C   0  0  0  0  0  2  0  0  0  0  0  0
  186.1800  178.5930  142.7480 C   0  0  0  0  0  2  0  0  0  0  0  0
  183.9200  178.4540  143.8950 C   0  0  2  0  0  3  0  0  0  0  0  0
  186.6190  178.1880  145.2050 C   0  0  0  0  0  0  0  0  0  0  0  0
  185.6230  178.9930  145.6750 C   0  0  0  0  0  0  0  0  0  0  0  0
  185.6650  179.4800  147.0120 N   0  0  0  0  0  1  0  0  0  0  0  0
  189.6280  177.5590  146.9820 C   0  0  0  0  0  3  0  0  0  0  0  0
  187.5860  176.9040  147.1310 N   0  0  0  0  0  0  0  0  0  0  0  0
  188.7810  176.7840  147.6840 N   0  0  0  0  0  0  0  0  0  0  0  0
  188.9940  178.1890  145.9720 N   0  0  0  0  0  2  0  0  0  0  0  0
  187.7240  177.7560  146.1010 C   0  0  0  0  0  0  0  0  0  0  0  0
  187.1620  176.3800  143.5470 C   0  0  0  0  0  2  0  0  0  0  0  0
  188.6730  176.3370  143.3680 C   0  0  0  0  0  2  0  0  0  0  0  0
  190.2810  176.8000  141.6040 C   0  0  0  0  0  3  0  0  0  0  0  0
  189.0140  176.7340  141.9810 C   0  0  0  0  0  3  0  0  0  0  0  0
  190.7860  176.2800  139.3330 N   0  0  0  0  0  0  0  0  0  0  0  0
  190.6110  177.1890  140.2370 C   0  0  0  0  0  3  0  0  0  0  0  0
  191.1120  176.6590  137.9650 C   0  0  1  0  0  3  0  0  0  0  0  0
  192.6670  175.8750  137.4490 S   0  0  0  0  0  1  0  0  0  0  0  0
  190.0470  176.2330  137.0720 N   0  0  0  0  0  2  0  0  0  0  0  0
  186.6790  177.0030  135.9370 N   0  0  0  0  0  0  0  0  0  0  0  0
  187.6800  176.2150  135.2070 C   0  0  0  0  0  2  0  0  0  0  0  0
  188.4820  178.1130  137.2170 C   0  0  0  0  0  2  0  0  0  0  0  0
  185.5240  176.1250  136.0620 C   0  0  0  0  0  1  0  0  0  0  0  0
  187.1880  177.2910  137.2930 C   0  0  1  0  0  3  0  0  0  0  0  0
  188.9560  177.0240  135.0080 C   0  0  0  0  0  2  0  0  0  0  0  0
  186.1780  178.1060  138.0930 C   0  0  0  0  0  1  0  0  0  0  0  0
  189.5450  177.4110  136.3710 C   0  0  2  0  0  3  0  0  0  0  0  0
  182.4440  178.7240  143.6610 C   0  0  0  0  0  2  0  0  0  0  0  0
  180.0030  179.6750  142.4860 O   0  0  0  0  0  0  0  0  0  0  0  0
  182.1710  178.8350  142.2340 N   0  0  0  0  0  2  0  0  0  0  0  0
  180.9460  179.3540  141.7150 C   0  0  0  0  0  0  0  0  0  0  0  0
  180.7920  179.5290  140.2480 C   0  0  0  0  0  2  0  0  0  0  0  0
  182.0830  179.8270  139.6540 N   0  0  0  0  0  2  0  0  0  0  0  0
  181.8970  179.7770  138.2100 C   0  0  1  0  0  3  0  0  0  0  0  0
  182.2450  177.9030  136.6140 C   0  0  0  0  0  2  0  0  0  0  0  0
  182.5500  177.3950  138.0050 C   0  0  0  0  0  2  0  0  0  0  0  0
  181.4280  178.3910  137.7970 C   0  0  0  0  0  3  0  0  0  0  0  0
  180.8760  180.8180  137.7980 C   0  0  0  0  0  2  0  0  0  0  0  0
  181.5340  182.0960  137.6400 N   0  0  0  0  0  2  0  0  0  0  0  0
  180.5080  183.1230  137.7240 C   0  0  0  0  0  2  0  0  0  0  0  0
  180.9940  184.5520  135.7640 C   0  0  0  0  0  1  0  0  0  0  0  0
  181.0750  184.4540  137.2720 C   0  0  2  0  0  3  0  0  0  0  0  0
  182.4060  184.5570  137.6700 O   0  0  0  0  0  1  0  0  0  0  0  0
  1  7  1  0  0  0  0
  2  6  1  0  0  0  0
  3  4  1  0  0  0  0
  3  5  1  0  0  0  0
  4  2  1  0  0  0  0
  5 31  1  6  0  0  0
  5  1  1  0  0  0  0
  6  7  2  0  0  0  0
  6 13  1  0  0  0  0
  7  8  1  0  0  0  0
  9 11  2  0  0  0  0
 10 11  1  0  0  0  0
 12 13  1  0  0  0  0
 12  9  1  0  0  0  0
 13 10  2  0  0  0  0
 14  2  1  0  0  0  0
 15 14  1  0  0  0  0
 16 17  2  0  0  0  0
 17 15  1  0  0  0  0
 18 19  2  0  0  0  0
 19 16  1  0  0  0  0
 20 21  1  6  0  0  0
 20 18  1  0  0  0  0
 22 20  1  0  0  0  0
 23 26  1  0  0  0  0
 23 27  1  0  0  0  0
 24 23  1  0  0  0  0
 25 27  1  0  0  0  0
 27 29  1  1  0  0  0
 28 24  1  0  0  0  0
 28 30  1  0  0  0  0
 30 22  1  1  0  0  0
 30 25  1  0  0  0  0
 33 31  1  0  0  0  0
 34 33  1  0  0  0  0
 34 32  2  0  0  0  0
 35 34  1  0  0  0  0
 36 35  1  0  0  0  0
 37 41  1  1  0  0  0
 37 36  1  0  0  0  0
 38 40  1  0  0  0  0
 38 39  1  0  0  0  0
 40 39  1  0  0  0  0
 40 37  1  0  0  0  0
 42 43  1  0  0  0  0
 42 41  1  0  0  0  0
 45 44  1  6  0  0  0
 45 46  1  0  0  0  0
 45 43  1  0  0  0  0
M  END
>  <MODEL>
1

>  <REMARK>
 VINA RESULT:      -7.2      0.000      0.000
  Name = 
  18 active torsions:
  status: ('A' for Active; 'I' for Inactive)
    1  A    between atoms: N_3  and  C_20
    2  A    between atoms: N_5  and  C_21
    3  A    between atoms: N_5  and  C_25
    4  A    between atoms: C_6  and  C_21
    5  A    between atoms: C_7  and  C_41
    6  A    between atoms: N_10  and  C_23
    7  A    between atoms: N_10  and  C_37
    8  A    between atoms: N_12  and  C_17
    9  A    between atoms: C_15  and  C_27
   10  A    between atoms: C_15  and  N_33
   11  A    between atoms: C_17  and  C_18
   12  A    between atoms: C_18  and  C_22
   13  A    between atoms: C_20  and  N_24
   14  A    between atoms: C_23  and  C_36
   15  A    between atoms: N_24  and  C_44
   16  A    between atoms: C_25  and  C_37
   17  A    between atoms: C_30  and  C_37
   18  A    between atoms: C_38  and  C_40
                            x       y       z     vdW  Elec       q    Type
                         _______ _______ _______ _____ _____    ______ ____

>  <TORSDO>
F 18

$$$$
=
 OpenBabel10222416163D

 46 49  0  0  1  0  0  0  0  0999 V2000
  191.4380  176.5150  144.0430 C   0  0  0  0  0  2  0  0  0  0  0  0
  188.5920  177.2250  144.5080 N   0  0  0  0  0  0  0  0  0  0  0  0
  189.6520  176.8530  142.3180 C   0  0  0  0  0  2  0  0  0  0  0  0
  188.6910  176.3010  143.3750 C   0  0  0  0  0  2  0  0  0  0  0  0
  190.9250  177.4270  142.9390 C   0  0  2  0  0  3  0  0  0  0  0  0
  189.5410  177.1490  145.6000 C   0  0  0  0  0  0  0  0  0  0  0  0
  190.8540  176.8430  145.3910 C   0  0  0  0  0  0  0  0  0  0  0  0
  191.7450  176.7190  146.4940 N   0  0  0  0  0  1  0  0  0  0  0  0
  188.6850  178.3590  148.8270 C   0  0  0  0  0  3  0  0  0  0  0  0
  188.2200  176.6120  147.6640 N   0  0  0  0  0  0  0  0  0  0  0  0
  187.9960  177.2030  148.8260 N   0  0  0  0  0  0  0  0  0  0  0  0
  189.3590  178.5300  147.6710 N   0  0  0  0  0  2  0  0  0  0  0  0
  189.0400  177.4220  146.9740 C   0  0  0  0  0  0  0  0  0  0  0  0
  187.5130  178.2200  144.5720 C   0  0  0  0  0  2  0  0  0  0  0  0
  186.1330  177.6100  144.7700 C   0  0  0  0  0  2  0  0  0  0  0  0
  185.4750  178.1450  142.4920 C   0  0  0  0  0  3  0  0  0  0  0  0
  185.1930  178.1920  143.7840 C   0  0  0  0  0  3  0  0  0  0  0  0
  183.4410  178.1030  141.2510 N   0  0  0  0  0  0  0  0  0  0  0  0
  184.5450  178.7190  141.5250 C   0  0  0  0  0  3  0  0  0  0  0  0
  182.5040  178.6700  140.2910 C   0  0  1  0  0  3  0  0  0  0  0  0
  183.3970  179.6230  139.0280 S   0  0  0  0  0  1  0  0  0  0  0  0
  181.7610  177.6020  139.6410 N   0  0  0  0  0  2  0  0  0  0  0  0
  178.9340  175.4110  138.9880 N   0  0  0  0  0  0  0  0  0  0  0  0
  179.5280  176.3630  138.0410 C   0  0  0  0  0  2  0  0  0  0  0  0
  179.8400  176.7230  140.8810 C   0  0  0  0  0  2  0  0  0  0  0  0
  179.0030  174.1190  138.3190 C   0  0  0  0  0  1  0  0  0  0  0  0
  179.7750  175.3480  140.2010 C   0  0  1  0  0  3  0  0  0  0  0  0
  179.5230  177.7710  138.6240 C   0  0  0  0  0  2  0  0  0  0  0  0
  179.1990  174.3660  141.2140 C   0  0  0  0  0  1  0  0  0  0  0  0
  180.3430  177.8020  139.9210 C   0  0  2  0  0  3  0  0  0  0  0  0
  191.9930  177.5840  141.8720 C   0  0  0  0  0  2  0  0  0  0  0  0
  193.5410  177.1430  139.4950 O   0  0  0  0  0  0  0  0  0  0  0  0
  191.4640  177.2070  140.5680 N   0  0  0  0  0  2  0  0  0  0  0  0
  192.2960  176.9650  139.4320 C   0  0  0  0  0  0  0  0  0  0  0  0
  191.6820  176.4830  138.1690 C   0  0  0  0  0  2  0  0  0  0  0  0
  190.5850  175.5810  138.4720 N   0  0  0  0  0  2  0  0  0  0  0  0
  189.5280  175.8740  137.5120 C   0  0  1  0  0  3  0  0  0  0  0  0
  187.6170  177.4620  137.5100 C   0  0  0  0  0  2  0  0  0  0  0  0
  188.2890  177.5430  138.8620 C   0  0  0  0  0  2  0  0  0  0  0  0
  189.1260  177.3370  137.6160 C   0  0  0  0  0  3  0  0  0  0  0  0
  190.0220  175.5670  136.1130 C   0  0  0  0  0  2  0  0  0  0  0  0
  189.0220  174.7910  135.4130 N   0  0  0  0  0  2  0  0  0  0  0  0
  188.6830  173.6600  136.2620 C   0  0  0  0  0  2  0  0  0  0  0  0
  186.3840  173.9360  137.1340 C   0  0  0  0  0  1  0  0  0  0  0  0
  187.2290  173.2840  136.0600 C   0  0  2  0  0  3  0  0  0  0  0  0
  187.0860  171.9000  136.1390 O   0  0  0  0  0  1  0  0  0  0  0  0
  1  7  1  0  0  0  0
  2 14  1  0  0  0  0
  2  6  1  0  0  0  0
  3  5  1  0  0  0  0
  3  4  1  0  0  0  0
  4  2  1  0  0  0  0
  5 31  1  6  0  0  0
  5  1  1  0  0  0  0
  6 13  1  0  0  0  0
  7  6  2  0  0  0  0
  7  8  1  0  0  0  0
 10 11  1  0  0  0  0
 11  9  2  0  0  0  0
 12  9  1  0  0  0  0
 13 10  2  0  0  0  0
 13 12  1  0  0  0  0
 14 15  1  0  0  0  0
 16 17  2  0  0  0  0
 17 15  1  0  0  0  0
 18 19  2  0  0  0  0
 19 16  1  0  0  0  0
 20 21  1  6  0  0  0
 20 18  1  0  0  0  0
 22 20  1  0  0  0  0
 23 27  1  0  0  0  0
 24 28  1  0  0  0  0
 24 23  1  0  0  0  0
 26 23  1  0  0  0  0
 27 25  1  0  0  0  0
 27 29  1  1  0  0  0
 28 30  1  0  0  0  0
 30 22  1  6  0  0  0
 30 25  1  0  0  0  0
 33 31  1  0  0  0  0
 34 32  2  0  0  0  0
 34 33  1  0  0  0  0
 35 36  1  0  0  0  0
 35 34  1  0  0  0  0
 37 41  1  6  0  0  0
 37 40  1  0  0  0  0
 37 36  1  0  0  0  0
 38 40  1  0  0  0  0
 38 39  1  0  0  0  0
 40 39  1  0  0  0  0
 42 41  1  0  0  0  0
 42 43  1  0  0  0  0
 45 46  1  0  0  0  0
 45 43  1  0  0  0  0
 45 44  1  1  0  0  0
M  END
>  <MODEL>
2

>  <REMARK>
 VINA RESULT:      -7.1      4.007      8.253
  Name = 
  18 active torsions:
  status: ('A' for Active; 'I' for Inactive)
    1  A    between atoms: N_3  and  C_20
    2  A    between atoms: N_5  and  C_21
    3  A    between atoms: N_5  and  C_25
    4  A    between atoms: C_6  and  C_21
    5  A    between atoms: C_7  and  C_41
    6  A    between atoms: N_10  and  C_23
    7  A    between atoms: N_10  and  C_37
    8  A    between atoms: N_12  and  C_17
    9  A    between atoms: C_15  and  C_27
   10  A    between atoms: C_15  and  N_33
   11  A    between atoms: C_17  and  C_18
   12  A    between atoms: C_18  and  C_22
   13  A    between atoms: C_20  and  N_24
   14  A    between atoms: C_23  and  C_36
   15  A    between atoms: N_24  and  C_44
   16  A    between atoms: C_25  and  C_37
   17  A    between atoms: C_30  and  C_37
   18  A    between atoms: C_38  and  C_40
                            x       y       z     vdW  Elec       q    Type
                         _______ _______ _______ _____ _____    ______ ____

>  <TORSDO>
F 18

$$$$
=
 OpenBabel10222416163D

 46 49  0  0  1  0  0  0  0  0999 V2000
  184.4440  179.5120  145.0150 C   0  0  0  0  0  2  0  0  0  0  0  0
  186.5680  177.7580  143.9020 N   0  0  0  0  0  0  0  0  0  0  0  0
  184.5130  178.4580  142.7420 C   0  0  0  0  0  2  0  0  0  0  0  0
  186.0320  178.6180  142.8430 C   0  0  0  0  0  2  0  0  0  0  0  0
  183.8420  178.4430  144.1140 C   0  0  2  0  0  3  0  0  0  0  0  0
  186.6140  178.2270  145.2720 C   0  0  0  0  0  0  0  0  0  0  0  0
  185.6320  179.0150  145.7950 C   0  0  0  0  0  0  0  0  0  0  0  0
  185.7410  179.5060  147.1270 N   0  0  0  0  0  1  0  0  0  0  0  0
  188.9500  176.8660  147.5740 C   0  0  0  0  0  3  0  0  0  0  0  0
  189.0350  178.2510  145.9320 N   0  0  0  0  0  0  0  0  0  0  0  0
  189.7710  177.6520  146.8530 N   0  0  0  0  0  2  0  0  0  0  0  0
  187.6790  176.9450  147.1300 N   0  0  0  0  0  0  0  0  0  0  0  0
  187.7750  177.8150  146.1060 C   0  0  0  0  0  0  0  0  0  0  0  0
  187.0940  176.4230  143.5890 C   0  0  0  0  0  2  0  0  0  0  0  0
  188.6090  176.3840  143.4450 C   0  0  0  0  0  2  0  0  0  0  0  0
  190.2020  176.5930  141.6210 C   0  0  0  0  0  3  0  0  0  0  0  0
  188.9850  176.8300  142.0830 C   0  0  0  0  0  3  0  0  0  0  0  0
  190.7660  176.1590  139.3460 N   0  0  0  0  0  0  0  0  0  0  0  0
  190.5650  177.0330  140.2780 C   0  0  0  0  0  3  0  0  0  0  0  0
  191.1240  176.5890  138.0020 C   0  0  1  0  0  3  0  0  0  0  0  0
  192.5350  175.6230  137.3890 S   0  0  0  0  0  1  0  0  0  0  0  0
  189.9950  176.3970  137.1070 N   0  0  0  0  0  2  0  0  0  0  0  0
  186.7830  177.5050  135.8110 N   0  0  0  0  0  0  0  0  0  0  0  0
  187.8350  176.8220  135.0480 C   0  0  0  0  0  2  0  0  0  0  0  0
  188.4690  178.2840  137.4470 C   0  0  0  0  0  2  0  0  0  0  0  0
  185.6000  176.6690  135.6560 C   0  0  0  0  0  1  0  0  0  0  0  0
  187.1550  177.5180  137.2400 C   0  0  1  0  0  3  0  0  0  0  0  0
  189.1440  177.5980  135.1300 C   0  0  0  0  0  2  0  0  0  0  0  0
  186.0860  178.2140  138.0750 C   0  0  0  0  0  1  0  0  0  0  0  0
  189.5970  177.7040  136.5920 C   0  0  2  0  0  3  0  0  0  0  0  0
  182.3510  178.6880  143.9620 C   0  0  0  0  0  2  0  0  0  0  0  0
  179.7610  178.1160  142.8640 O   0  0  0  0  0  0  0  0  0  0  0  0
  181.9910  178.7500  142.5520 N   0  0  0  0  0  2  0  0  0  0  0  0
  180.6700  178.4890  142.0750 C   0  0  0  0  0  0  0  0  0  0  0  0
  180.3650  178.6760  140.6340 C   0  0  0  0  0  2  0  0  0  0  0  0
  180.7730  180.0060  140.2170 N   0  0  0  0  0  2  0  0  0  0  0  0
  181.2500  179.8850  138.8460 C   0  0  1  0  0  3  0  0  0  0  0  0
  180.6820  181.4540  137.0040 C   0  0  0  0  0  2  0  0  0  0  0  0
  180.2310  182.0780  138.3060 C   0  0  0  0  0  2  0  0  0  0  0  0
  181.5080  181.2650  138.2640 C   0  0  0  0  0  3  0  0  0  0  0  0
  182.5240  179.0640  138.8280 C   0  0  0  0  0  2  0  0  0  0  0  0
  182.6070  178.3370  137.5810 N   0  0  0  0  0  2  0  0  0  0  0  0
  182.0250  177.0240  137.8090 C   0  0  0  0  0  2  0  0  0  0  0  0
  183.2990  174.9020  137.8280 C   0  0  0  0  0  1  0  0  0  0  0  0
  182.9890  176.1650  138.6030 C   0  0  2  0  0  3  0  0  0  0  0  0
  182.4170  175.8260  139.8270 O   0  0  0  0  0  1  0  0  0  0  0  0
  1  7  1  0  0  0  0
  2  6  1  0  0  0  0
  3  4  1  0  0  0  0
  3  5  1  0  0  0  0
  4  2  1  0  0  0  0
  5 31  1  6  0  0  0
  5  1  1  0  0  0  0
  6  7  2  0  0  0  0
  6 13  1  0  0  0  0
  7  8  1  0  0  0  0
 10 13  2  0  0  0  0
 10 11  1  0  0  0  0
 11  9  1  0  0  0  0
 12  9  2  0  0  0  0
 13 12  1  0  0  0  0
 14  2  1  0  0  0  0
 15 14  1  0  0  0  0
 16 17  2  0  0  0  0
 17 15  1  0  0  0  0
 18 19  2  0  0  0  0
 19 16  1  0  0  0  0
 20 21  1  6  0  0  0
 20 18  1  0  0  0  0
 22 20  1  0  0  0  0
 23 27  1  0  0  0  0
 24 28  1  0  0  0  0
 24 23  1  0  0  0  0
 26 23  1  0  0  0  0
 27 25  1  0  0  0  0
 27 29  1  1  0  0  0
 28 30  1  0  0  0  0
 30 22  1  1  0  0  0
 30 25  1  0  0  0  0
 33 31  1  0  0  0  0
 34 33  1  0  0  0  0
 34 32  2  0  0  0  0
 35 34  1  0  0  0  0
 36 35  1  0  0  0  0
 37 41  1  1  0  0  0
 37 36  1  0  0  0  0
 38 40  1  0  0  0  0
 38 39  1  0  0  0  0
 40 39  1  0  0  0  0
 40 37  1  0  0  0  0
 42 43  1  0  0  0  0
 42 41  1  0  0  0  0
 43 45  1  0  0  0  0
 45 44  1  6  0  0  0
 45 46  1  0  0  0  0
M  END
>  <MODEL>
3

>  <REMARK>
 VINA RESULT:      -7.1      1.654      2.928
  Name = 
  18 active torsions:
  status: ('A' for Active; 'I' for Inactive)
    1  A    between atoms: N_3  and  C_20
    2  A    between atoms: N_5  and  C_21
    3  A    between atoms: N_5  and  C_25
    4  A    between atoms: C_6  and  C_21
    5  A    between atoms: C_7  and  C_41
    6  A    between atoms: N_10  and  C_23
    7  A    between atoms: N_10  and  C_37
    8  A    between atoms: N_12  and  C_17
    9  A    between atoms: C_15  and  C_27
   10  A    between atoms: C_15  and  N_33
   11  A    between atoms: C_17  and  C_18
   12  A    between atoms: C_18  and  C_22
   13  A    between atoms: C_20  and  N_24
   14  A    between atoms: C_23  and  C_36
   15  A    between atoms: N_24  and  C_44
   16  A    between atoms: C_25  and  C_37
   17  A    between atoms: C_30  and  C_37
   18  A    between atoms: C_38  and  C_40
                            x       y       z     vdW  Elec       q    Type
                         _______ _______ _______ _____ _____    ______ ____

>  <TORSDO>
F 18

$$$$
=
 OpenBabel10222416163D

 46 49  0  0  1  0  0  0  0  0999 V2000
  190.5570  177.2050  139.6460 C   0  0  0  0  0  2  0  0  0  0  0  0
  187.7750  178.2360  139.4970 N   0  0  0  0  0  0  0  0  0  0  0  0
  189.1710  178.1240  141.5210 C   0  0  0  0  0  2  0  0  0  0  0  0
  188.5450  179.0310  140.4570 C   0  0  0  0  0  2  0  0  0  0  0  0
  189.7890  176.8650  140.9150 C   0  0  2  0  0  3  0  0  0  0  0  0
  188.4270  177.6470  138.3450 C   0  0  0  0  0  0  0  0  0  0  0  0
  189.6970  177.1540  138.4110 C   0  0  0  0  0  0  0  0  0  0  0  0
  190.3270  176.6370  137.2440 N   0  0  0  0  0  1  0  0  0  0  0  0
  186.7930  178.1350  135.2300 C   0  0  0  0  0  3  0  0  0  0  0  0
  187.0220  176.5030  136.6090 N   0  0  0  0  0  0  0  0  0  0  0  0
  186.4790  176.8450  135.4540 N   0  0  0  0  0  2  0  0  0  0  0  0
  187.5400  178.6390  136.2330 N   0  0  0  0  0  0  0  0  0  0  0  0
  187.6630  177.5900  137.0700 C   0  0  0  0  0  0  0  0  0  0  0  0
  186.3290  178.0500  139.6670 C   0  0  0  0  0  2  0  0  0  0  0  0
  185.7580  178.7750  140.8770 C   0  0  0  0  0  2  0  0  0  0  0  0
  183.4580  178.5170  141.6220 C   0  0  0  0  0  3  0  0  0  0  0  0
  184.2980  178.9570  140.6980 C   0  0  0  0  0  3  0  0  0  0  0  0
  181.5830  179.4080  140.4510 N   0  0  0  0  0  0  0  0  0  0  0  0
  182.0220  178.7000  141.4400 C   0  0  0  0  0  3  0  0  0  0  0  0
  180.1520  179.5940  140.2600 C   0  0  1  0  0  3  0  0  0  0  0  0
  179.4540  180.5600  141.6310 S   0  0  0  0  0  1  0  0  0  0  0  0
  179.9100  180.2990  139.0120 N   0  0  0  0  0  2  0  0  0  0  0  0
  180.6980  182.1260  135.9680 N   0  0  0  0  0  0  0  0  0  0  0  0
  180.2140  180.7410  136.0460 C   0  0  0  0  0  2  0  0  0  0  0  0
  181.5570  181.9610  138.2830 C   0  0  0  0  0  2  0  0  0  0  0  0
  179.7330  182.8160  135.1230 C   0  0  0  0  0  1  0  0  0  0  0  0
  180.6480  182.7310  137.3150 C   0  0  1  0  0  3  0  0  0  0  0  0
  181.1410  179.9000  136.9150 C   0  0  0  0  0  2  0  0  0  0  0  0
  181.1380  184.1740  137.2820 C   0  0  0  0  0  1  0  0  0  0  0  0
  181.1910  180.4760  138.3360 C   0  0  2  0  0  3  0  0  0  0  0  0
  190.7260  176.2170  141.9180 C   0  0  0  0  0  2  0  0  0  0  0  0
  191.9670  175.3260  144.3490 O   0  0  0  0  0  0  0  0  0  0  0  0
  190.5540  176.8190  143.2330 N   0  0  0  0  0  2  0  0  0  0  0  0
  191.2330  176.3480  144.3990 C   0  0  0  0  0  0  0  0  0  0  0  0
  191.0790  177.0850  145.6790 C   0  0  0  0  0  2  0  0  0  0  0  0
  190.0940  178.1400  145.5190 N   0  0  0  0  0  2  0  0  0  0  0  0
  188.8120  177.5780  145.9230 C   0  0  1  0  0  3  0  0  0  0  0  0
  188.1660  177.2190  148.2960 C   0  0  0  0  0  2  0  0  0  0  0  0
  189.3850  178.1130  148.2750 C   0  0  0  0  0  2  0  0  0  0  0  0
  188.3300  178.2530  147.1970 C   0  0  0  0  0  3  0  0  0  0  0  0
  187.8030  177.7790  144.8110 C   0  0  0  0  0  2  0  0  0  0  0  0
  186.5240  177.2450  145.2250 N   0  0  0  0  0  2  0  0  0  0  0  0
  185.4950  178.0320  144.5650 C   0  0  0  0  0  2  0  0  0  0  0  0
  184.8510  178.3210  146.9370 C   0  0  0  0  0  1  0  0  0  0  0  0
  184.8380  178.9620  145.5650 C   0  0  2  0  0  3  0  0  0  0  0  0
  183.5200  179.2070  145.1840 O   0  0  0  0  0  1  0  0  0  0  0  0
  1  5  1  0  0  0  0
  2 14  1  0  0  0  0
  2  4  1  0  0  0  0
  4  3  1  0  0  0  0
  5  3  1  0  0  0  0
  5 31  1  1  0  0  0
  6  7  2  0  0  0  0
  6  2  1  0  0  0  0
  7  1  1  0  0  0  0
  8  7  1  0  0  0  0
  9 11  1  0  0  0  0
  9 12  2  0  0  0  0
 10 13  2  0  0  0  0
 11 10  1  0  0  0  0
 12 13  1  0  0  0  0
 13  6  1  0  0  0  0
 14 15  1  0  0  0  0
 17 15  1  0  0  0  0
 17 16  2  0  0  0  0
 18 19  2  0  0  0  0
 19 16  1  0  0  0  0
 20 18  1  0  0  0  0
 20 21  1  1  0  0  0
 22 20  1  0  0  0  0
 23 24  1  0  0  0  0
 23 27  1  0  0  0  0
 24 28  1  0  0  0  0
 25 30  1  0  0  0  0
 26 23  1  0  0  0  0
 27 29  1  6  0  0  0
 27 25  1  0  0  0  0
 28 30  1  0  0  0  0
 30 22  1  6  0  0  0
 31 33  1  0  0  0  0
 32 34  2  0  0  0  0
 33 34  1  0  0  0  0
 34 35  1  0  0  0  0
 36 35  1  0  0  0  0
 36 37  1  0  0  0  0
 37 41  1  6  0  0  0
 37 40  1  0  0  0  0
 39 38  1  0  0  0  0
 40 39  1  0  0  0  0
 40 38  1  0  0  0  0
 41 42  1  0  0  0  0
 43 42  1  0  0  0  0
 43 45  1  0  0  0  0
 45 44  1  1  0  0  0
 46 45  1  0  0  0  0
M  END
>  <MODEL>
4

>  <REMARK>
 VINA RESULT:      -7.0      3.355      9.654
  Name = 
  18 active torsions:
  status: ('A' for Active; 'I' for Inactive)
    1  A    between atoms: N_3  and  C_20
    2  A    between atoms: N_5  and  C_21
    3  A    between atoms: N_5  and  C_25
    4  A    between atoms: C_6  and  C_21
    5  A    between atoms: C_7  and  C_41
    6  A    between atoms: N_10  and  C_23
    7  A    between atoms: N_10  and  C_37
    8  A    between atoms: N_12  and  C_17
    9  A    between atoms: C_15  and  C_27
   10  A    between atoms: C_15  and  N_33
   11  A    between atoms: C_17  and  C_18
   12  A    between atoms: C_18  and  C_22
   13  A    between atoms: C_20  and  N_24
   14  A    between atoms: C_23  and  C_36
   15  A    between atoms: N_24  and  C_44
   16  A    between atoms: C_25  and  C_37
   17  A    between atoms: C_30  and  C_37
   18  A    between atoms: C_38  and  C_40
                            x       y       z     vdW  Elec       q    Type
                         _______ _______ _______ _____ _____    ______ ____

>  <TORSDO>
F 18

$$$$
=
 OpenBabel10222416163D

 46 49  0  0  1  0  0  0  0  0999 V2000
  191.5200  176.5300  143.8460 C   0  0  0  0  0  2  0  0  0  0  0  0
  188.6100  176.8790  144.3260 N   0  0  0  0  0  0  0  0  0  0  0  0
  189.6810  176.4950  142.1440 C   0  0  0  0  0  2  0  0  0  0  0  0
  188.8200  175.8970  143.2590 C   0  0  0  0  0  2  0  0  0  0  0  0
  190.8720  177.2810  142.6930 C   0  0  2  0  0  3  0  0  0  0  0  0
  189.5750  177.0130  145.3980 C   0  0  0  0  0  0  0  0  0  0  0  0
  190.9140  176.8740  145.1810 C   0  0  0  0  0  0  0  0  0  0  0  0
  191.8290  176.9530  146.2690 N   0  0  0  0  0  1  0  0  0  0  0  0
  188.7160  178.2720  148.6050 C   0  0  0  0  0  3  0  0  0  0  0  0
  188.1810  176.5520  147.4330 N   0  0  0  0  0  0  0  0  0  0  0  0
  187.9640  177.1560  148.5890 N   0  0  0  0  0  0  0  0  0  0  0  0
  189.4230  178.4040  147.4650 N   0  0  0  0  0  2  0  0  0  0  0  0
  189.0600  177.3150  146.7600 C   0  0  0  0  0  0  0  0  0  0  0  0
  187.4060  177.7190  144.3450 C   0  0  0  0  0  2  0  0  0  0  0  0
  186.9910  178.2220  142.9690 C   0  0  0  0  0  2  0  0  0  0  0  0
  184.7150  179.0190  143.2780 C   0  0  0  0  0  3  0  0  0  0  0  0
  185.5240  178.0790  142.8160 C   0  0  0  0  0  3  0  0  0  0  0  0
  182.7590  178.7600  141.9400 N   0  0  0  0  0  0  0  0  0  0  0  0
  183.2720  178.8740  143.1220 C   0  0  0  0  0  3  0  0  0  0  0  0
  181.3210  178.6100  141.7750 C   0  0  1  0  0  3  0  0  0  0  0  0
  180.4510  179.2400  143.2400 S   0  0  0  0  0  1  0  0  0  0  0  0
  180.8800  179.3540  140.6060 N   0  0  0  0  0  2  0  0  0  0  0  0
  180.5110  179.3620  136.9890 N   0  0  0  0  0  0  0  0  0  0  0  0
  180.3430  178.2020  137.8730 C   0  0  0  0  0  2  0  0  0  0  0  0
  181.9350  180.4580  138.6900 C   0  0  0  0  0  2  0  0  0  0  0  0
  179.2510  179.4740  136.2680 C   0  0  0  0  0  1  0  0  0  0  0  0
  180.6820  180.5760  137.8130 C   0  0  1  0  0  3  0  0  0  0  0  0
  181.6030  177.9720  138.6980 C   0  0  0  0  0  2  0  0  0  0  0  0
  180.8550  181.8100  136.9350 C   0  0  0  0  0  1  0  0  0  0  0  0
  181.8920  179.2040  139.5650 C   0  0  2  0  0  3  0  0  0  0  0  0
  191.8940  177.5040  141.5920 C   0  0  0  0  0  2  0  0  0  0  0  0
  193.3560  176.9730  139.1800 O   0  0  0  0  0  0  0  0  0  0  0  0
  191.3110  177.1980  140.2930 N   0  0  0  0  0  2  0  0  0  0  0  0
  192.0990  176.9050  139.1370 C   0  0  0  0  0  0  0  0  0  0  0  0
  191.4240  176.5030  137.8780 C   0  0  0  0  0  2  0  0  0  0  0  0
  190.5060  175.4090  138.1440 N   0  0  0  0  0  2  0  0  0  0  0  0
  189.6940  175.2460  136.9450 C   0  0  1  0  0  3  0  0  0  0  0  0
  190.3750  173.6500  135.1660 C   0  0  0  0  0  2  0  0  0  0  0  0
  191.1200  173.2860  136.4300 C   0  0  0  0  0  2  0  0  0  0  0  0
  189.6940  173.7870  136.5150 C   0  0  0  0  0  3  0  0  0  0  0  0
  188.2790  175.7060  137.2310 C   0  0  0  0  0  2  0  0  0  0  0  0
  187.6300  176.0560  135.9860 N   0  0  0  0  0  2  0  0  0  0  0  0
  186.6380  177.0750  136.2880 C   0  0  0  0  0  2  0  0  0  0  0  0
  185.8560  178.1900  138.3540 C   0  0  0  0  0  1  0  0  0  0  0  0
  187.0690  177.8660  137.5070 C   0  0  2  0  0  3  0  0  0  0  0  0
  187.6800  179.0520  137.1060 O   0  0  0  0  0  1  0  0  0  0  0  0
  1  7  1  0  0  0  0
  2 14  1  0  0  0  0
  2  6  1  0  0  0  0
  3  5  1  0  0  0  0
  3  4  1  0  0  0  0
  4  2  1  0  0  0  0
  5 31  1  6  0  0  0
  5  1  1  0  0  0  0
  6 13  1  0  0  0  0
  7  6  2  0  0  0  0
  7  8  1  0  0  0  0
 10 11  1  0  0  0  0
 11  9  2  0  0  0  0
 12  9  1  0  0  0  0
 13 10  2  0  0  0  0
 13 12  1  0  0  0  0
 15 14  1  0  0  0  0
 17 15  1  0  0  0  0
 17 16  2  0  0  0  0
 18 19  2  0  0  0  0
 19 16  1  0  0  0  0
 20 18  1  0  0  0  0
 20 21  1  1  0  0  0
 22 20  1  0  0  0  0
 23 27  1  0  0  0  0
 23 24  1  0  0  0  0
 24 28  1  0  0  0  0
 25 30  1  0  0  0  0
 26 23  1  0  0  0  0
 27 29  1  6  0  0  0
 27 25  1  0  0  0  0
 28 30  1  0  0  0  0
 30 22  1  1  0  0  0
 33 31  1  0  0  0  0
 34 32  2  0  0  0  0
 34 33  1  0  0  0  0
 35 36  1  0  0  0  0
 35 34  1  0  0  0  0
 37 41  1  1  0  0  0
 37 36  1  0  0  0  0
 38 39  1  0  0  0  0
 38 40  1  0  0  0  0
 39 40  1  0  0  0  0
 40 37  1  0  0  0  0
 42 43  1  0  0  0  0
 42 41  1  0  0  0  0
 43 45  1  0  0  0  0
 45 44  1  1  0  0  0
 46 45  1  0  0  0  0
M  END
>  <MODEL>
5

>  <REMARK>
 VINA RESULT:      -7.0      3.504      7.885
  Name = 
  18 active torsions:
  status: ('A' for Active; 'I' for Inactive)
    1  A    between atoms: N_3  and  C_20
    2  A    between atoms: N_5  and  C_21
    3  A    between atoms: N_5  and  C_25
    4  A    between atoms: C_6  and  C_21
    5  A    between atoms: C_7  and  C_41
    6  A    between atoms: N_10  and  C_23
    7  A    between atoms: N_10  and  C_37
    8  A    between atoms: N_12  and  C_17
    9  A    between atoms: C_15  and  C_27
   10  A    between atoms: C_15  and  N_33
   11  A    between atoms: C_17  and  C_18
   12  A    between atoms: C_18  and  C_22
   13  A    between atoms: C_20  and  N_24
   14  A    between atoms: C_23  and  C_36
   15  A    between atoms: N_24  and  C_44
   16  A    between atoms: C_25  and  C_37
   17  A    between atoms: C_30  and  C_37
   18  A    between atoms: C_38  and  C_40
                            x       y       z     vdW  Elec       q    Type
                         _______ _______ _______ _____ _____    ______ ____

>  <TORSDO>
F 18

$$$$
=
 OpenBabel10222416163D

 46 49  0  0  1  0  0  0  0  0999 V2000
  191.4070  176.4400  143.9860 C   0  0  0  0  0  2  0  0  0  0  0  0
  188.5740  177.2210  144.4150 N   0  0  0  0  0  0  0  0  0  0  0  0
  189.6470  176.8110  142.2390 C   0  0  0  0  0  2  0  0  0  0  0  0
  188.6630  176.2890  143.2890 C   0  0  0  0  0  2  0  0  0  0  0  0
  190.9270  177.3570  142.8710 C   0  0  2  0  0  3  0  0  0  0  0  0
  189.5090  177.1290  145.5180 C   0  0  0  0  0  0  0  0  0  0  0  0
  190.8150  176.7900  145.3250 C   0  0  0  0  0  0  0  0  0  0  0  0
  191.6920  176.6510  146.4390 N   0  0  0  0  0  1  0  0  0  0  0  0
  188.0040  177.2410  148.7320 C   0  0  0  0  0  3  0  0  0  0  0  0
  189.2850  178.5320  147.5860 N   0  0  0  0  0  0  0  0  0  0  0  0
  188.6610  178.4160  148.7460 N   0  0  0  0  0  0  0  0  0  0  0  0
  188.1950  176.5860  147.5690 N   0  0  0  0  0  2  0  0  0  0  0  0
  189.0000  177.4210  146.8840 C   0  0  0  0  0  0  0  0  0  0  0  0
  187.5180  178.2410  144.4620 C   0  0  0  0  0  2  0  0  0  0  0  0
  186.1480  177.6860  144.8240 C   0  0  0  0  0  2  0  0  0  0  0  0
  184.9020  177.9680  142.7560 C   0  0  0  0  0  3  0  0  0  0  0  0
  185.1130  178.3580  144.0030 C   0  0  0  0  0  3  0  0  0  0  0  0
  183.3900  178.0370  140.9140 N   0  0  0  0  0  0  0  0  0  0  0  0
  183.8810  178.6320  141.9530 C   0  0  0  0  0  3  0  0  0  0  0  0
  182.3670  178.6890  140.1090 C   0  0  1  0  0  3  0  0  0  0  0  0
  183.1110  179.9930  139.0860 S   0  0  0  0  0  1  0  0  0  0  0  0
  181.7270  177.7140  139.2430 N   0  0  0  0  0  2  0  0  0  0  0  0
  180.5860  174.4660  138.0710 N   0  0  0  0  0  0  0  0  0  0  0  0
  179.8080  175.4210  138.8710 C   0  0  0  0  0  2  0  0  0  0  0  0
  182.6860  175.4860  138.8920 C   0  0  0  0  0  2  0  0  0  0  0  0
  179.7860  174.2310  136.8770 C   0  0  0  0  0  1  0  0  0  0  0  0
  181.8540  175.1020  137.6610 C   0  0  1  0  0  3  0  0  0  0  0  0
  180.5410  175.7600  140.1630 C   0  0  0  0  0  2  0  0  0  0  0  0
  182.6960  174.1480  136.8220 C   0  0  0  0  0  1  0  0  0  0  0  0
  181.9000  176.3930  139.8400 C   0  0  2  0  0  3  0  0  0  0  0  0
  192.0110  177.4830  141.8140 C   0  0  0  0  0  2  0  0  0  0  0  0
  193.5470  177.1280  139.4160 O   0  0  0  0  0  0  0  0  0  0  0  0
  191.4750  177.1540  140.5000 N   0  0  0  0  0  2  0  0  0  0  0  0
  192.3010  176.9530  139.3520 C   0  0  0  0  0  0  0  0  0  0  0  0
  191.6810  176.5180  138.0750 C   0  0  0  0  0  2  0  0  0  0  0  0
  190.6300  175.5530  138.3460 N   0  0  0  0  0  2  0  0  0  0  0  0
  189.6660  175.6720  137.2600 C   0  0  1  0  0  3  0  0  0  0  0  0
  190.0620  173.9800  135.4830 C   0  0  0  0  0  2  0  0  0  0  0  0
  190.5010  173.3840  136.8010 C   0  0  0  0  0  2  0  0  0  0  0  0
  189.2880  174.2890  136.7520 C   0  0  0  0  0  3  0  0  0  0  0  0
  188.4340  176.3990  137.7590 C   0  0  0  0  0  2  0  0  0  0  0  0
  188.3150  177.6640  137.0690 N   0  0  0  0  0  2  0  0  0  0  0  0
  186.9560  178.1400  137.2720 C   0  0  0  0  0  2  0  0  0  0  0  0
  186.0780  177.4620  135.0600 C   0  0  0  0  0  1  0  0  0  0  0  0
  185.9800  177.2300  136.5530 C   0  0  2  0  0  3  0  0  0  0  0  0
  184.6820  177.5050  136.9780 O   0  0  0  0  0  1  0  0  0  0  0  0
  1  7  1  0  0  0  0
  2 14  1  0  0  0  0
  2  6  1  0  0  0  0
  3  5  1  0  0  0  0
  3  4  1  0  0  0  0
  4  2  1  0  0  0  0
  5 31  1  6  0  0  0
  5  1  1  0  0  0  0
  6 13  1  0  0  0  0
  7  6  2  0  0  0  0
  7  8  1  0  0  0  0
  9 11  2  0  0  0  0
 10 11  1  0  0  0  0
 12  9  1  0  0  0  0
 13 12  1  0  0  0  0
 13 10  2  0  0  0  0
 14 15  1  0  0  0  0
 16 17  2  0  0  0  0
 17 15  1  0  0  0  0
 18 19  2  0  0  0  0
 19 16  1  0  0  0  0
 20 21  1  6  0  0  0
 20 18  1  0  0  0  0
 22 20  1  0  0  0  0
 23 24  1  0  0  0  0
 24 28  1  0  0  0  0
 25 30  1  0  0  0  0
 26 23  1  0  0  0  0
 27 29  1  6  0  0  0
 27 23  1  0  0  0  0
 27 25  1  0  0  0  0
 30 22  1  6  0  0  0
 30 28  1  0  0  0  0
 33 31  1  0  0  0  0
 34 32  2  0  0  0  0
 34 33  1  0  0  0  0
 35 36  1  0  0  0  0
 35 34  1  0  0  0  0
 37 41  1  1  0  0  0
 37 36  1  0  0  0  0
 38 40  1  0  0  0  0
 38 39  1  0  0  0  0
 40 39  1  0  0  0  0
 40 37  1  0  0  0  0
 42 43  1  0  0  0  0
 42 41  1  0  0  0  0
 45 44  1  6  0  0  0
 45 46  1  0  0  0  0
 45 43  1  0  0  0  0
M  END
>  <MODEL>
6

>  <REMARK>
 VINA RESULT:      -6.8      3.524      7.576
  Name = 
  18 active torsions:
  status: ('A' for Active; 'I' for Inactive)
    1  A    between atoms: N_3  and  C_20
    2  A    between atoms: N_5  and  C_21
    3  A    between atoms: N_5  and  C_25
    4  A    between atoms: C_6  and  C_21
    5  A    between atoms: C_7  and  C_41
    6  A    between atoms: N_10  and  C_23
    7  A    between atoms: N_10  and  C_37
    8  A    between atoms: N_12  and  C_17
    9  A    between atoms: C_15  and  C_27
   10  A    between atoms: C_15  and  N_33
   11  A    between atoms: C_17  and  C_18
   12  A    between atoms: C_18  and  C_22
   13  A    between atoms: C_20  and  N_24
   14  A    between atoms: C_23  and  C_36
   15  A    between atoms: N_24  and  C_44
   16  A    between atoms: C_25  and  C_37
   17  A    between atoms: C_30  and  C_37
   18  A    between atoms: C_38  and  C_40
                            x       y       z     vdW  Elec       q    Type
                         _______ _______ _______ _____ _____    ______ ____

>  <TORSDO>
F 18

$$$$
=
 OpenBabel10222416163D

 46 49  0  0  1  0  0  0  0  0999 V2000
  191.1600  176.3940  143.6970 C   0  0  0  0  0  2  0  0  0  0  0  0
  188.3850  177.2650  144.3010 N   0  0  0  0  0  0  0  0  0  0  0  0
  189.3240  176.8760  142.0600 C   0  0  0  0  0  2  0  0  0  0  0  0
  188.3790  176.3610  143.1480 C   0  0  0  0  0  2  0  0  0  0  0  0
  190.6560  177.3590  142.6340 C   0  0  2  0  0  3  0  0  0  0  0  0
  189.3750  177.1090  145.3480 C   0  0  0  0  0  0  0  0  0  0  0  0
  190.6550  176.7290  145.0750 C   0  0  0  0  0  0  0  0  0  0  0  0
  191.5850  176.5270  146.1350 N   0  0  0  0  0  1  0  0  0  0  0  0
  188.6820  178.3290  148.6100 C   0  0  0  0  0  3  0  0  0  0  0  0
  188.2010  176.5550  147.4960 N   0  0  0  0  0  0  0  0  0  0  0  0
  188.0310  177.1520  148.6630 N   0  0  0  0  0  0  0  0  0  0  0  0
  189.2770  178.5070  147.4130 N   0  0  0  0  0  2  0  0  0  0  0  0
  188.9510  177.3820  146.7480 C   0  0  0  0  0  0  0  0  0  0  0  0
  187.3730  178.3210  144.4320 C   0  0  0  0  0  2  0  0  0  0  0  0
  186.0290  177.8180  144.9400 C   0  0  0  0  0  2  0  0  0  0  0  0
  183.8480  178.7230  144.3620 C   0  0  0  0  0  3  0  0  0  0  0  0
  184.9740  178.1570  143.9570 C   0  0  0  0  0  3  0  0  0  0  0  0
  181.6000  178.6510  143.5730 N   0  0  0  0  0  0  0  0  0  0  0  0
  182.8140  179.0570  143.3880 C   0  0  0  0  0  3  0  0  0  0  0  0
  180.5600  178.9820  142.6090 C   0  0  1  0  0  3  0  0  0  0  0  0
  179.2060  179.8750  143.4270 S   0  0  0  0  0  1  0  0  0  0  0  0
  181.1140  179.8200  141.5590 N   0  0  0  0  0  2  0  0  0  0  0  0
  182.7810  178.5010  138.6080 N   0  0  0  0  0  0  0  0  0  0  0  0
  182.5850  179.9200  138.9300 C   0  0  0  0  0  2  0  0  0  0  0  0
  180.8610  177.9050  140.0520 C   0  0  0  0  0  2  0  0  0  0  0  0
  184.2200  178.3450  138.4500 C   0  0  0  0  0  1  0  0  0  0  0  0
  182.3520  177.6820  139.7600 C   0  0  1  0  0  3  0  0  0  0  0  0
  181.1050  180.2240  139.1280 C   0  0  0  0  0  2  0  0  0  0  0  0
  182.5420  176.1970  139.4740 C   0  0  0  0  0  1  0  0  0  0  0  0
  180.5500  179.3840  140.2850 C   0  0  2  0  0  3  0  0  0  0  0  0
  191.6840  177.4740  141.5230 C   0  0  0  0  0  2  0  0  0  0  0  0
  192.9540  176.6670  139.0780 O   0  0  0  0  0  0  0  0  0  0  0  0
  191.0380  177.3660  140.2220 N   0  0  0  0  0  2  0  0  0  0  0  0
  191.7200  176.9200  139.0490 C   0  0  0  0  0  0  0  0  0  0  0  0
  190.9590  176.7390  137.7870 C   0  0  0  0  0  2  0  0  0  0  0  0
  189.8880  175.7800  137.9960 N   0  0  0  0  0  2  0  0  0  0  0  0
  188.7830  176.1990  137.1440 C   0  0  1  0  0  3  0  0  0  0  0  0
  187.7610  178.3670  136.4860 C   0  0  0  0  0  2  0  0  0  0  0  0
  188.7170  178.6290  137.6270 C   0  0  0  0  0  2  0  0  0  0  0  0
  189.0590  177.5860  136.5830 C   0  0  0  0  0  3  0  0  0  0  0  0
  188.6160  175.2040  136.0130 C   0  0  0  0  0  2  0  0  0  0  0  0
  187.2200  175.1360  135.6390 N   0  0  0  0  0  2  0  0  0  0  0  0
  186.7190  173.8430  136.0740 C   0  0  0  0  0  2  0  0  0  0  0  0
  185.0270  172.7790  137.5330 C   0  0  0  0  0  1  0  0  0  0  0  0
  185.8850  174.0100  137.3280 C   0  0  2  0  0  3  0  0  0  0  0  0
  185.0630  175.1280  137.2010 O   0  0  0  0  0  1  0  0  0  0  0  0
  1  7  1  0  0  0  0
  2 14  1  0  0  0  0
  2  6  1  0  0  0  0
  3  5  1  0  0  0  0
  3  4  1  0  0  0  0
  4  2  1  0  0  0  0
  5 31  1  6  0  0  0
  5  1  1  0  0  0  0
  6 13  1  0  0  0  0
  7  6  2  0  0  0  0
  7  8  1  0  0  0  0
  9 11  2  0  0  0  0
 10 11  1  0  0  0  0
 12  9  1  0  0  0  0
 13 12  1  0  0  0  0
 13 10  2  0  0  0  0
 14 15  1  0  0  0  0
 17 16  2  0  0  0  0
 17 15  1  0  0  0  0
 19 18  2  0  0  0  0
 19 16  1  0  0  0  0
 20 21  1  1  0  0  0
 20 18  1  0  0  0  0
 22 20  1  0  0  0  0
 23 24  1  0  0  0  0
 23 27  1  0  0  0  0
 24 28  1  0  0  0  0
 25 30  1  0  0  0  0
 26 23  1  0  0  0  0
 27 29  1  6  0  0  0
 27 25  1  0  0  0  0
 28 30  1  0  0  0  0
 30 22  1  1  0  0  0
 33 31  1  0  0  0  0
 34 32  2  0  0  0  0
 34 33  1  0  0  0  0
 35 36  1  0  0  0  0
 35 34  1  0  0  0  0
 37 41  1  6  0  0  0
 37 36  1  0  0  0  0
 38 40  1  0  0  0  0
 38 39  1  0  0  0  0
 40 37  1  0  0  0  0
 40 39  1  0  0  0  0
 42 41  1  0  0  0  0
 42 43  1  0  0  0  0
 43 45  1  0  0  0  0
 45 44  1  6  0  0  0
 46 45  1  0  0  0  0
M  END
>  <MODEL>
7

>  <REMARK>
 VINA RESULT:      -6.8      3.592      8.028
  Name = 
  18 active torsions:
  status: ('A' for Active; 'I' for Inactive)
    1  A    between atoms: N_3  and  C_20
    2  A    between atoms: N_5  and  C_21
    3  A    between atoms: N_5  and  C_25
    4  A    between atoms: C_6  and  C_21
    5  A    between atoms: C_7  and  C_41
    6  A    between atoms: N_10  and  C_23
    7  A    between atoms: N_10  and  C_37
    8  A    between atoms: N_12  and  C_17
    9  A    between atoms: C_15  and  C_27
   10  A    between atoms: C_15  and  N_33
   11  A    between atoms: C_17  and  C_18
   12  A    between atoms: C_18  and  C_22
   13  A    between atoms: C_20  and  N_24
   14  A    between atoms: C_23  and  C_36
   15  A    between atoms: N_24  and  C_44
   16  A    between atoms: C_25  and  C_37
   17  A    between atoms: C_30  and  C_37
   18  A    between atoms: C_38  and  C_40
                            x       y       z     vdW  Elec       q    Type
                         _______ _______ _______ _____ _____    ______ ____

>  <TORSDO>
F 18

$$$$
=
 OpenBabel10222416163D

 46 49  0  0  1  0  0  0  0  0999 V2000
  189.5330  177.0690  138.3540 C   0  0  0  0  0  2  0  0  0  0  0  0
  187.1730  176.0630  136.8570 N   0  0  0  0  0  0  0  0  0  0  0  0
  187.3500  178.2440  137.9820 C   0  0  0  0  0  2  0  0  0  0  0  0
  187.3150  177.5050  136.6420 C   0  0  0  0  0  2  0  0  0  0  0  0
  188.2410  177.5410  139.0060 C   0  0  2  0  0  3  0  0  0  0  0  0
  188.3430  175.2360  137.0710 C   0  0  0  0  0  0  0  0  0  0  0  0
  189.4210  175.6840  137.7740 C   0  0  0  0  0  0  0  0  0  0  0  0
  190.5780  174.8650  137.9130 N   0  0  0  0  0  1  0  0  0  0  0  0
  188.0410  171.7890  136.2710 C   0  0  0  0  0  3  0  0  0  0  0  0
  188.7810  173.5420  135.2720 N   0  0  0  0  0  0  0  0  0  0  0  0
  188.5940  172.2410  135.1300 N   0  0  0  0  0  2  0  0  0  0  0  0
  187.8630  172.7880  137.1600 N   0  0  0  0  0  0  0  0  0  0  0  0
  188.3340  173.8630  136.4980 C   0  0  0  0  0  0  0  0  0  0  0  0
  185.8490  175.4280  136.8280 C   0  0  0  0  0  2  0  0  0  0  0  0
  185.0020  175.8380  135.6310 C   0  0  0  0  0  2  0  0  0  0  0  0
  183.5230  177.5090  136.5970 C   0  0  0  0  0  3  0  0  0  0  0  0
  183.6720  176.2900  136.1030 C   0  0  0  0  0  3  0  0  0  0  0  0
  182.0840  179.0940  137.6440 N   0  0  0  0  0  0  0  0  0  0  0  0
  182.2110  177.9480  137.0580 C   0  0  0  0  0  3  0  0  0  0  0  0
  180.7780  179.5430  138.1040 C   0  0  1  0  0  3  0  0  0  0  0  0
  179.5110  178.3040  137.7060 S   0  0  0  0  0  1  0  0  0  0  0  0
  180.8070  179.7450  139.5430 N   0  0  0  0  0  2  0  0  0  0  0  0
  181.6240  178.6180  142.9030 N   0  0  0  0  0  0  0  0  0  0  0  0
  182.5080  178.5630  141.7320 C   0  0  0  0  0  2  0  0  0  0  0  0
  179.6490  178.6640  141.4130 C   0  0  0  0  0  2  0  0  0  0  0  0
  182.3590  179.3870  143.8970 C   0  0  0  0  0  1  0  0  0  0  0  0
  180.4020  179.3690  142.5490 C   0  0  1  0  0  3  0  0  0  0  0  0
  181.8520  177.7800  140.6020 C   0  0  0  0  0  2  0  0  0  0  0  0
  179.4530  179.4560  143.7380 C   0  0  0  0  0  1  0  0  0  0  0  0
  180.5420  178.4620  140.1870 C   0  0  2  0  0  3  0  0  0  0  0  0
  188.5650  178.4900  140.1460 C   0  0  0  0  0  2  0  0  0  0  0  0
  186.0170  179.3870  141.1180 O   0  0  0  0  0  0  0  0  0  0  0  0
  187.9160  178.0460  141.3720 N   0  0  0  0  0  2  0  0  0  0  0  0
  186.6260  178.5050  141.7800 C   0  0  0  0  0  0  0  0  0  0  0  0
  185.9940  177.9220  142.9910 C   0  0  0  0  0  2  0  0  0  0  0  0
  186.9970  177.2290  143.7790 N   0  0  0  0  0  2  0  0  0  0  0  0
  187.2060  178.0250  144.9810 C   0  0  1  0  0  3  0  0  0  0  0  0
  186.1450  178.6240  147.1470 C   0  0  0  0  0  2  0  0  0  0  0  0
  185.0460  178.4260  146.1280 C   0  0  0  0  0  2  0  0  0  0  0  0
  186.2780  177.5460  146.0860 C   0  0  0  0  0  3  0  0  0  0  0  0
  188.6500  177.9000  145.4220 C   0  0  0  0  0  2  0  0  0  0  0  0
  189.4680  177.5460  144.2830 N   0  0  0  0  0  2  0  0  0  0  0  0
  190.6950  176.9600  144.7980 C   0  0  0  0  0  2  0  0  0  0  0  0
  190.5370  176.0160  142.5170 C   0  0  0  0  0  1  0  0  0  0  0  0
  191.4730  176.3180  143.6670 C   0  0  2  0  0  3  0  0  0  0  0  0
  192.0560  175.1330  144.1110 O   0  0  0  0  0  1  0  0  0  0  0  0
  1  5  1  0  0  0  0
  2  6  1  0  0  0  0
  3  5  1  0  0  0  0
  4  2  1  0  0  0  0
  4  3  1  0  0  0  0
  5 31  1  1  0  0  0
  6  7  2  0  0  0  0
  7  8  1  0  0  0  0
  7  1  1  0  0  0  0
  9 12  2  0  0  0  0
 10 13  2  0  0  0  0
 11 10  1  0  0  0  0
 11  9  1  0  0  0  0
 13  6  1  0  0  0  0
 13 12  1  0  0  0  0
 14  2  1  0  0  0  0
 15 17  1  0  0  0  0
 15 14  1  0  0  0  0
 16 19  1  0  0  0  0
 17 16  2  0  0  0  0
 18 20  1  0  0  0  0
 19 18  2  0  0  0  0
 20 21  1  1  0  0  0
 20 22  1  0  0  0  0
 23 26  1  0  0  0  0
 24 23  1  0  0  0  0
 25 27  1  0  0  0  0
 27 23  1  0  0  0  0
 27 29  1  1  0  0  0
 28 24  1  0  0  0  0
 30 22  1  1  0  0  0
 30 28  1  0  0  0  0
 30 25  1  0  0  0  0
 31 33  1  0  0  0  0
 32 34  2  0  0  0  0
 33 34  1  0  0  0  0
 34 35  1  0  0  0  0
 35 36  1  0  0  0  0
 36 37  1  0  0  0  0
 37 41  1  1  0  0  0
 37 40  1  0  0  0  0
 39 38  1  0  0  0  0
 40 39  1  0  0  0  0
 40 38  1  0  0  0  0
 42 43  1  0  0  0  0
 42 41  1  0  0  0  0
 45 44  1  6  0  0  0
 45 46  1  0  0  0  0
 45 43  1  0  0  0  0
M  END
>  <MODEL>
8

>  <REMARK>
 VINA RESULT:      -6.7      3.490      9.803
  Name = 
  18 active torsions:
  status: ('A' for Active; 'I' for Inactive)
    1  A    between atoms: N_3  and  C_20
    2  A    between atoms: N_5  and  C_21
    3  A    between atoms: N_5  and  C_25
    4  A    between atoms: C_6  and  C_21
    5  A    between atoms: C_7  and  C_41
    6  A    between atoms: N_10  and  C_23
    7  A    between atoms: N_10  and  C_37
    8  A    between atoms: N_12  and  C_17
    9  A    between atoms: C_15  and  C_27
   10  A    between atoms: C_15  and  N_33
   11  A    between atoms: C_17  and  C_18
   12  A    between atoms: C_18  and  C_22
   13  A    between atoms: C_20  and  N_24
   14  A    between atoms: C_23  and  C_36
   15  A    between atoms: N_24  and  C_44
   16  A    between atoms: C_25  and  C_37
   17  A    between atoms: C_30  and  C_37
   18  A    between atoms: C_38  and  C_40
                            x       y       z     vdW  Elec       q    Type
                         _______ _______ _______ _____ _____    ______ ____

>  <TORSDO>
F 18

$$$$
=
 OpenBabel10222416163D

 46 49  0  0  1  0  0  0  0  0999 V2000
  188.9900  176.2230  136.6300 C   0  0  0  0  0  2  0  0  0  0  0  0
  186.0690  176.2650  136.0930 N   0  0  0  0  0  0  0  0  0  0  0  0
  187.5660  178.2180  136.1060 C   0  0  0  0  0  2  0  0  0  0  0  0
  186.7400  177.2570  135.2480 C   0  0  0  0  0  2  0  0  0  0  0  0
  188.3590  177.4890  137.1910 C   0  0  2  0  0  3  0  0  0  0  0  0
  186.7520  175.0450  136.4720 C   0  0  0  0  0  0  0  0  0  0  0  0
  188.0890  175.0220  136.7400 C   0  0  0  0  0  0  0  0  0  0  0  0
  188.7370  173.7940  137.0520 N   0  0  0  0  0  1  0  0  0  0  0  0
  184.9740  171.9980  136.0680 C   0  0  0  0  0  3  0  0  0  0  0  0
  185.3480  173.3580  137.6890 N   0  0  0  0  0  0  0  0  0  0  0  0
  184.7430  172.2260  137.3740 N   0  0  0  0  0  0  0  0  0  0  0  0
  185.7290  172.9740  135.5250 N   0  0  0  0  0  2  0  0  0  0  0  0
  185.9430  173.8000  136.5680 C   0  0  0  0  0  0  0  0  0  0  0  0
  184.6870  176.4750  136.5400 C   0  0  0  0  0  2  0  0  0  0  0  0
  184.5800  177.0230  137.9560 C   0  0  0  0  0  2  0  0  0  0  0  0
  182.4020  177.2420  139.0130 C   0  0  0  0  0  3  0  0  0  0  0  0
  183.2710  177.6970  138.1250 C   0  0  0  0  0  3  0  0  0  0  0  0
  181.0520  179.2040  139.1370 N   0  0  0  0  0  0  0  0  0  0  0  0
  181.1160  177.9120  139.1750 C   0  0  0  0  0  3  0  0  0  0  0  0
  179.7730  179.8800  139.2940 C   0  0  1  0  0  3  0  0  0  0  0  0
  179.6740  180.6650  140.9300 S   0  0  0  0  0  1  0  0  0  0  0  0
  179.6280  180.9010  138.2700 N   0  0  0  0  0  2  0  0  0  0  0  0
  180.6370  183.2780  135.7090 N   0  0  0  0  0  0  0  0  0  0  0  0
  179.9880  181.9810  135.4790 C   0  0  0  0  0  2  0  0  0  0  0  0
  181.4660  182.4790  137.9000 C   0  0  0  0  0  2  0  0  0  0  0  0
  179.7650  184.2550  135.0730 C   0  0  0  0  0  1  0  0  0  0  0  0
  180.6600  183.5550  137.1600 C   0  0  1  0  0  3  0  0  0  0  0  0
  180.8040  180.8560  136.1050 C   0  0  0  0  0  2  0  0  0  0  0  0
  181.3220  184.8980  137.4480 C   0  0  0  0  0  1  0  0  0  0  0  0
  180.9220  181.0770  137.6180 C   0  0  2  0  0  3  0  0  0  0  0  0
  189.4440  178.3990  137.7370 C   0  0  0  0  0  2  0  0  0  0  0  0
  190.9070  176.4500  139.2540 O   0  0  0  0  0  0  0  0  0  0  0  0
  189.4920  178.3110  139.1900 N   0  0  0  0  0  2  0  0  0  0  0  0
  190.2730  177.3370  139.8850 C   0  0  0  0  0  0  0  0  0  0  0  0
  190.3470  177.3840  141.3670 C   0  0  0  0  0  2  0  0  0  0  0  0
  189.1320  177.9780  141.8980 N   0  0  0  0  0  2  0  0  0  0  0  0
  189.1720  177.7870  143.3420 C   0  0  1  0  0  3  0  0  0  0  0  0
  187.0980  177.6580  144.7040 C   0  0  0  0  0  2  0  0  0  0  0  0
  186.7180  177.4550  143.2550 C   0  0  0  0  0  2  0  0  0  0  0  0
  188.0230  176.8910  143.7770 C   0  0  0  0  0  3  0  0  0  0  0  0
  190.4970  177.1620  143.7290 C   0  0  0  0  0  2  0  0  0  0  0  0
  190.3580  176.5010  145.0080 N   0  0  0  0  0  2  0  0  0  0  0  0
  191.2780  177.1470  145.9300 C   0  0  0  0  0  2  0  0  0  0  0  0
  189.7550  177.2850  147.8750 C   0  0  0  0  0  1  0  0  0  0  0  0
  191.0230  176.6540  147.3400 C   0  0  2  0  0  3  0  0  0  0  0  0
  192.0930  177.0050  148.1610 O   0  0  0  0  0  1  0  0  0  0  0  0
  1  7  1  0  0  0  0
  1  5  1  0  0  0  0
  2  6  1  0  0  0  0
  2 14  1  0  0  0  0
  3  5  1  0  0  0  0
  4  2  1  0  0  0  0
  4  3  1  0  0  0  0
  5 31  1  6  0  0  0
  6 13  1  0  0  0  0
  6  7  2  0  0  0  0
  7  8  1  0  0  0  0
  9 11  2  0  0  0  0
 11 10  1  0  0  0  0
 12  9  1  0  0  0  0
 12 13  1  0  0  0  0
 13 10  2  0  0  0  0
 14 15  1  0  0  0  0
 15 17  1  0  0  0  0
 16 19  1  0  0  0  0
 17 16  2  0  0  0  0
 18 19  2  0  0  0  0
 18 20  1  0  0  0  0
 20 21  1  1  0  0  0
 22 20  1  0  0  0  0
 23 27  1  0  0  0  0
 24 23  1  0  0  0  0
 24 28  1  0  0  0  0
 26 23  1  0  0  0  0
 27 29  1  6  0  0  0
 27 25  1  0  0  0  0
 28 30  1  0  0  0  0
 30 25  1  0  0  0  0
 30 22  1  1  0  0  0
 31 33  1  0  0  0  0
 32 34  2  0  0  0  0
 33 34  1  0  0  0  0
 34 35  1  0  0  0  0
 35 36  1  0  0  0  0
 36 37  1  0  0  0  0
 37 41  1  6  0  0  0
 37 40  1  0  0  0  0
 39 40  1  0  0  0  0
 39 38  1  0  0  0  0
 40 38  1  0  0  0  0
 41 42  1  0  0  0  0
 42 43  1  0  0  0  0
 43 45  1  0  0  0  0
 45 44  1  1  0  0  0
 45 46  1  0  0  0  0
M  END
>  <MODEL>
9

>  <REMARK>
 VINA RESULT:      -6.6      3.947     10.479
  Name = 
  18 active torsions:
  status: ('A' for Active; 'I' for Inactive)
    1  A    between atoms: N_3  and  C_20
    2  A    between atoms: N_5  and  C_21
    3  A    between atoms: N_5  and  C_25
    4  A    between atoms: C_6  and  C_21
    5  A    between atoms: C_7  and  C_41
    6  A    between atoms: N_10  and  C_23
    7  A    between atoms: N_10  and  C_37
    8  A    between atoms: N_12  and  C_17
    9  A    between atoms: C_15  and  C_27
   10  A    between atoms: C_15  and  N_33
   11  A    between atoms: C_17  and  C_18
   12  A    between atoms: C_18  and  C_22
   13  A    between atoms: C_20  and  N_24
   14  A    between atoms: C_23  and  C_36
   15  A    between atoms: N_24  and  C_44
   16  A    between atoms: C_25  and  C_37
   17  A    between atoms: C_30  and  C_37
   18  A    between atoms: C_38  and  C_40
                            x       y       z     vdW  Elec       q    Type
                         _______ _______ _______ _____ _____    ______ ____

>  <TORSDO>
F 18

$$$$
