=
 OpenBabel10222420013D

 36 40  0  0  1  0  0  0  0  0999 V2000
  188.7200  177.4960  140.5130 C   0  0  0  0  0  0  0  0  0  0  0  0
  190.0270  177.2050  140.7620 N   0  0  0  0  0  0  0  0  0  0  0  0
  190.5810  177.0030  139.5550 C   0  0  0  0  0  0  0  0  0  0  0  0
  188.4470  177.4680  139.1350 C   0  0  0  0  0  3  0  0  0  0  0  0
  190.0510  176.9920  137.2380 C   0  0  0  0  0  0  0  0  0  0  0  0
  192.2680  176.5610  137.9960 C   0  0  0  0  0  3  0  0  0  0  0  0
  191.3570  176.6950  136.9800 N   0  0  0  0  0  2  0  0  0  0  0  0
  189.6630  177.1470  138.5630 C   0  0  0  0  0  0  0  0  0  0  0  0
  189.2270  177.1250  136.2960 O   0  0  0  0  0  0  0  0  0  0  0  0
  191.8830  176.7180  139.2970 N   0  0  0  0  0  0  0  0  0  0  0  0
  187.7000  177.8280  141.5370 C   0  0  0  0  0  0  0  0  0  0  0  0
  186.5900  177.3790  143.6560 C   0  0  0  0  0  3  0  0  0  0  0  0
  186.8500  178.9280  141.3470 C   0  0  0  0  0  3  0  0  0  0  0  0
  187.5550  177.0540  142.6990 C   0  0  0  0  0  3  0  0  0  0  0  0
  185.8850  179.2580  142.3040 C   0  0  0  0  0  3  0  0  0  0  0  0
  185.7600  178.4870  143.4630 C   0  0  0  0  0  0  0  0  0  0  0  0
  184.7300  178.8260  144.4820 C   0  0  0  0  0  2  0  0  0  0  0  0
  183.6240  179.5430  143.8520 N   0  0  0  0  0  2  0  0  0  0  0  0
  182.5950  178.6110  143.3790 C   0  0  0  0  0  3  0  0  0  0  0  0
  180.8280  178.5300  141.7440 C   0  0  0  0  0  2  0  0  0  0  0  0
  181.2720  178.7800  144.1170 C   0  0  0  0  0  2  0  0  0  0  0  0
  180.2150  178.9990  143.0470 C   0  0  0  0  0  2  0  0  0  0  0  0
  182.3170  178.7580  141.8910 C   0  0  0  0  0  2  0  0  0  0  0  0
  190.2100  178.3850  142.9230 C   0  0  0  0  0  2  0  0  0  0  0  0
  190.9530  178.4010  144.2560 C   0  0  0  0  0  2  0  0  0  0  0  0
  190.5690  175.8930  142.7720 C   0  0  0  0  0  2  0  0  0  0  0  0
  190.7170  177.2340  142.0520 C   0  0  1  0  0  3  0  0  0  0  0  0
  191.3090  175.9290  144.1050 C   0  0  0  0  0  2  0  0  0  0  0  0
  190.7740  177.0670  144.9750 C   0  0  1  0  0  3  0  0  0  0  0  0
  191.5170  177.1030  146.3010 C   0  0  0  0  0  2  0  0  0  0  0  0
  190.6200  176.7500  147.3890 N   0  0  0  0  0  2  0  0  0  0  0  0
  189.2640  176.8320  146.8660 C   0  0  0  0  0  2  0  0  0  0  0  0
  187.8410  176.4520  148.7360 F   0  0  0  0  0  0  0  0  0  0  0  0
  189.0390  178.4950  148.7150 C   0  0  0  0  0  1  0  0  0  0  0  0
  187.1570  178.0830  147.1760 C   0  0  0  0  0  1  0  0  0  0  0  0
  188.3220  177.4390  147.8960 C   0  0  0  0  0  0  0  0  0  0  0  0
  1  2  1  0  0  0  0
  1 11  1  0  0  0  0
  3  2  1  0  0  0  0
  4  1  2  0  0  0  0
  5  8  1  0  0  0  0
  6 10  2  0  0  0  0
  7  5  1  0  0  0  0
  7  6  1  0  0  0  0
  8  4  1  0  0  0  0
  8  3  2  0  0  0  0
  9  5  2  0  0  0  0
 10  3  1  0  0  0  0
 11 14  1  0  0  0  0
 13 11  2  0  0  0  0
 13 15  1  0  0  0  0
 14 12  2  0  0  0  0
 15 16  2  0  0  0  0
 16 12  1  0  0  0  0
 16 17  1  0  0  0  0
 18 17  1  0  0  0  0
 19 18  1  0  0  0  0
 19 21  1  0  0  0  0
 20 23  1  0  0  0  0
 20 22  1  0  0  0  0
 22 21  1  0  0  0  0
 23 19  1  0  0  0  0
 24 25  1  0  0  0  0
 25 29  1  0  0  0  0
 26 28  1  0  0  0  0
 27  2  1  6  0  0  0
 27 26  1  0  0  0  0
 27 24  1  0  0  0  0
 28 29  1  0  0  0  0
 29 30  1  1  0  0  0
 30 31  1  0  0  0  0
 32 31  1  0  0  0  0
 32 36  1  0  0  0  0
 35 36  1  0  0  0  0
 36 34  1  0  0  0  0
 36 33  1  0  0  0  0
M  END
>  <MODEL>
1

>  <REMARK>
 VINA RESULT:      -8.9      0.000      0.000
  Name = 
  9 active torsions:
  status: ('A' for Active; 'I' for Inactive)
    1  A    between atoms: C_1  and  C_3
    2  A    between atoms: N_2  and  C_20
    3  A    between atoms: N_4  and  C_10
    4  A    between atoms: N_4  and  C_15
    5  A    between atoms: C_8  and  N_27
    6  A    between atoms: C_8  and  C_33
    7  A    between atoms: C_10  and  C_34
    8  A    between atoms: C_24  and  N_27
    9  A    between atoms: C_24  and  C_36
                            x       y       z     vdW  Elec       q    Type
                         _______ _______ _______ _____ _____    ______ ____

>  <TORSDO>
F 9

$$$$
=
 OpenBabel10222420013D

 36 40  0  0  1  0  0  0  0  0999 V2000
  186.4620  178.0260  144.8880 C   0  0  0  0  0  0  0  0  0  0  0  0
  187.6630  177.7340  144.3140 N   0  0  0  0  0  0  0  0  0  0  0  0
  188.5080  177.5400  145.3400 C   0  0  0  0  0  0  0  0  0  0  0  0
  186.5560  178.0230  146.2900 C   0  0  0  0  0  3  0  0  0  0  0  0
  188.5880  177.5370  147.7150 C   0  0  0  0  0  0  0  0  0  0  0  0
  190.5190  177.0230  146.4170 C   0  0  0  0  0  3  0  0  0  0  0  0
  189.9060  177.1970  147.6320 N   0  0  0  0  0  0  0  0  0  0  0  0
  187.8800  177.7120  146.5330 C   0  0  0  0  0  0  0  0  0  0  0  0
  188.0350  177.6820  148.8360 O   0  0  0  0  0  0  0  0  0  0  0  0
  189.8170  177.1920  145.2570 N   0  0  0  0  0  2  0  0  0  0  0  0
  185.1980  178.2890  144.1580 C   0  0  0  0  0  0  0  0  0  0  0  0
  183.9050  178.3370  142.0970 C   0  0  0  0  0  3  0  0  0  0  0  0
  184.0750  178.7640  144.8520 C   0  0  0  0  0  3  0  0  0  0  0  0
  185.1010  178.0850  142.7720 C   0  0  0  0  0  3  0  0  0  0  0  0
  182.8750  179.0140  144.1800 C   0  0  0  0  0  3  0  0  0  0  0  0
  182.7870  178.7940  142.8020 C   0  0  0  0  0  0  0  0  0  0  0  0
  181.5170  179.0670  142.0780 C   0  0  0  0  0  2  0  0  0  0  0  0
  181.1680  177.9240  141.2360 N   0  0  0  0  0  2  0  0  0  0  0  0
  181.0880  178.3170  139.8250 C   0  0  0  0  0  3  0  0  0  0  0  0
  182.5540  178.6310  137.9400 C   0  0  0  0  0  2  0  0  0  0  0  0
  181.2760  179.8170  139.6280 C   0  0  0  0  0  2  0  0  0  0  0  0
  182.4050  179.9750  138.6230 C   0  0  0  0  0  2  0  0  0  0  0  0
  182.1200  177.6050  138.9640 C   0  0  0  0  0  2  0  0  0  0  0  0
  188.2370  178.8760  142.2000 C   0  0  0  0  0  2  0  0  0  0  0  0
  188.5180  178.6480  140.7180 C   0  0  0  0  0  2  0  0  0  0  0  0
  189.1060  176.5610  142.7030 C   0  0  0  0  0  2  0  0  0  0  0  0
  187.9480  177.5410  142.8910 C   0  0  1  0  0  3  0  0  0  0  0  0
  189.3790  176.3520  141.2180 C   0  0  0  0  0  2  0  0  0  0  0  0
  189.6930  177.6890  140.5450 C   0  0  1  0  0  3  0  0  0  0  0  0
  189.9600  177.4790  139.0640 C   0  0  0  0  0  2  0  0  0  0  0  0
  189.1690  178.4070  138.2740 N   0  0  0  0  0  2  0  0  0  0  0  0
  188.6170  177.6530  137.1580 C   0  0  0  0  0  2  0  0  0  0  0  0
  187.3650  179.5500  136.4490 F   0  0  0  0  0  0  0  0  0  0  0  0
  186.7210  177.4570  135.5440 C   0  0  0  0  0  1  0  0  0  0  0  0
  186.2920  178.0330  137.9030 C   0  0  0  0  0  1  0  0  0  0  0  0
  187.2580  178.2050  136.7500 C   0  0  0  0  0  0  0  0  0  0  0  0
  1  4  2  0  0  0  0
  2  1  1  0  0  0  0
  2  3  1  0  0  0  0
  3  8  2  0  0  0  0
  4  8  1  0  0  0  0
  5  9  2  0  0  0  0
  6  7  2  0  0  0  0
  7  5  1  0  0  0  0
  8  5  1  0  0  0  0
 10  3  1  0  0  0  0
 10  6  1  0  0  0  0
 11 13  1  0  0  0  0
 11  1  1  0  0  0  0
 12 14  1  0  0  0  0
 12 16  2  0  0  0  0
 14 11  2  0  0  0  0
 15 13  2  0  0  0  0
 16 15  1  0  0  0  0
 17 16  1  0  0  0  0
 18 17  1  0  0  0  0
 19 18  1  0  0  0  0
 20 22  1  0  0  0  0
 20 23  1  0  0  0  0
 21 19  1  0  0  0  0
 22 21  1  0  0  0  0
 23 19  1  0  0  0  0
 25 24  1  0  0  0  0
 26 27  1  0  0  0  0
 27 24  1  1  0  0  0
 27  2  1  0  0  0  0
 28 26  1  0  0  0  0
 29 30  1  6  0  0  0
 29 25  1  0  0  0  0
 29 28  1  0  0  0  0
 31 30  1  0  0  0  0
 32 31  1  0  0  0  0
 33 36  1  0  0  0  0
 34 36  1  0  0  0  0
 36 32  1  0  0  0  0
 36 35  1  0  0  0  0
M  END
>  <MODEL>
2

>  <REMARK>
 VINA RESULT:      -8.9      3.624      6.986
  Name = 
  9 active torsions:
  status: ('A' for Active; 'I' for Inactive)
    1  A    between atoms: C_1  and  C_3
    2  A    between atoms: N_2  and  C_20
    3  A    between atoms: N_4  and  C_10
    4  A    between atoms: N_4  and  C_15
    5  A    between atoms: C_8  and  N_27
    6  A    between atoms: C_8  and  C_33
    7  A    between atoms: C_10  and  C_34
    8  A    between atoms: C_24  and  N_27
    9  A    between atoms: C_24  and  C_36
                            x       y       z     vdW  Elec       q    Type
                         _______ _______ _______ _____ _____    ______ ____

>  <TORSDO>
F 9

$$$$
=
 OpenBabel10222420013D

 36 40  0  0  1  0  0  0  0  0999 V2000
  183.0490  178.7100  143.2380 C   0  0  0  0  0  0  0  0  0  0  0  0
  182.7850  178.5080  141.9160 N   0  0  0  0  0  0  0  0  0  0  0  0
  181.5030  178.8750  141.7520 C   0  0  0  0  0  0  0  0  0  0  0  0
  181.9180  179.2010  143.9120 C   0  0  0  0  0  3  0  0  0  0  0  0
  179.6360  179.7210  142.9550 C   0  0  0  0  0  0  0  0  0  0  0  0
  179.5050  179.3020  140.6130 C   0  0  0  0  0  3  0  0  0  0  0  0
  178.9310  179.7160  141.7870 N   0  0  0  0  0  0  0  0  0  0  0  0
  180.9550  179.2870  142.9250 C   0  0  0  0  0  0  0  0  0  0  0  0
  179.1010  180.1150  144.0230 O   0  0  0  0  0  0  0  0  0  0  0  0
  180.8040  178.8790  140.5890 N   0  0  0  0  0  2  0  0  0  0  0  0
  184.3550  178.4790  143.9020 C   0  0  0  0  0  0  0  0  0  0  0  0
  186.6480  177.6660  143.8540 C   0  0  0  0  0  3  0  0  0  0  0  0
  184.5340  178.8510  145.2430 C   0  0  0  0  0  3  0  0  0  0  0  0
  185.4230  177.8780  143.2170 C   0  0  0  0  0  3  0  0  0  0  0  0
  185.7600  178.6420  145.8820 C   0  0  0  0  0  3  0  0  0  0  0  0
  186.8210  178.0560  145.1850 C   0  0  0  0  0  0  0  0  0  0  0  0
  188.1250  177.8230  145.8620 C   0  0  0  0  0  2  0  0  0  0  0  0
  188.8660  176.7720  145.1670 N   0  0  0  0  0  2  0  0  0  0  0  0
  190.2610  177.1680  144.9520 C   0  0  0  0  0  3  0  0  0  0  0  0
  191.5270  178.7030  143.5950 C   0  0  0  0  0  2  0  0  0  0  0  0
  190.9300  176.3640  143.8430 C   0  0  0  0  0  2  0  0  0  0  0  0
  191.4850  177.3800  142.8580 C   0  0  0  0  0  2  0  0  0  0  0  0
  190.4000  178.6420  144.6030 C   0  0  0  0  0  2  0  0  0  0  0  0
  183.0570  177.1800  139.8520 C   0  0  0  0  0  2  0  0  0  0  0  0
  184.0620  176.7660  138.7810 C   0  0  0  0  0  2  0  0  0  0  0  0
  184.3250  179.3360  140.1860 C   0  0  0  0  0  2  0  0  0  0  0  0
  183.7260  178.1070  140.8700 C   0  0  1  0  0  3  0  0  0  0  0  0
  185.3190  178.9050  139.1120 C   0  0  0  0  0  2  0  0  0  0  0  0
  184.6320  178.0010  138.0880 C   0  0  1  0  0  3  0  0  0  0  0  0
  185.6260  177.5690  137.0220 C   0  0  0  0  0  2  0  0  0  0  0  0
  186.9010  178.2370  137.2250 N   0  0  0  0  0  2  0  0  0  0  0  0
  187.8370  177.2300  137.7010 C   0  0  0  0  0  2  0  0  0  0  0  0
  189.1010  179.1940  138.1620 F   0  0  0  0  0  0  0  0  0  0  0  0
  188.6320  177.7800  140.0040 C   0  0  0  0  0  1  0  0  0  0  0  0
  190.2430  177.1320  138.2530 C   0  0  0  0  0  1  0  0  0  0  0  0
  188.9480  177.8680  138.5220 C   0  0  0  0  0  0  0  0  0  0  0  0
  1 11  1  0  0  0  0
  1  4  2  0  0  0  0
  2  1  1  0  0  0  0
  3  2  1  0  0  0  0
  3  8  2  0  0  0  0
  5  9  2  0  0  0  0
  6  7  2  0  0  0  0
  7  5  1  0  0  0  0
  8  5  1  0  0  0  0
  8  4  1  0  0  0  0
 10  6  1  0  0  0  0
 10  3  1  0  0  0  0
 11 13  1  0  0  0  0
 12 16  2  0  0  0  0
 13 15  2  0  0  0  0
 14 12  1  0  0  0  0
 14 11  2  0  0  0  0
 16 17  1  0  0  0  0
 16 15  1  0  0  0  0
 18 17  1  0  0  0  0
 19 18  1  0  0  0  0
 20 23  1  0  0  0  0
 21 19  1  0  0  0  0
 22 20  1  0  0  0  0
 22 21  1  0  0  0  0
 23 19  1  0  0  0  0
 25 24  1  0  0  0  0
 26 27  1  0  0  0  0
 27 24  1  6  0  0  0
 27  2  1  0  0  0  0
 28 26  1  0  0  0  0
 29 30  1  6  0  0  0
 29 25  1  0  0  0  0
 29 28  1  0  0  0  0
 30 31  1  0  0  0  0
 31 32  1  0  0  0  0
 32 36  1  0  0  0  0
 33 36  1  0  0  0  0
 35 36  1  0  0  0  0
 36 34  1  0  0  0  0
M  END
>  <MODEL>
3

>  <REMARK>
 VINA RESULT:      -8.8      3.604      8.932
  Name = 
  9 active torsions:
  status: ('A' for Active; 'I' for Inactive)
    1  A    between atoms: C_1  and  C_3
    2  A    between atoms: N_2  and  C_20
    3  A    between atoms: N_4  and  C_10
    4  A    between atoms: N_4  and  C_15
    5  A    between atoms: C_8  and  N_27
    6  A    between atoms: C_8  and  C_33
    7  A    between atoms: C_10  and  C_34
    8  A    between atoms: C_24  and  N_27
    9  A    between atoms: C_24  and  C_36
                            x       y       z     vdW  Elec       q    Type
                         _______ _______ _______ _____ _____    ______ ____

>  <TORSDO>
F 9

$$$$
=
 OpenBabel10222420013D

 36 40  0  0  1  0  0  0  0  0999 V2000
  189.3980  177.3620  139.5040 C   0  0  0  0  0  0  0  0  0  0  0  0
  189.1960  177.6540  140.8200 N   0  0  0  0  0  0  0  0  0  0  0  0
  187.9590  178.1750  140.8800 C   0  0  0  0  0  0  0  0  0  0  0  0
  188.2800  177.7110  138.7290 C   0  0  0  0  0  3  0  0  0  0  0  0
  186.0980  178.7230  139.5080 C   0  0  0  0  0  0  0  0  0  0  0  0
  186.0380  179.0770  141.8630 C   0  0  0  0  0  3  0  0  0  0  0  0
  185.4450  179.1450  140.6290 N   0  0  0  0  0  2  0  0  0  0  0  0
  187.3880  178.2280  139.6480 C   0  0  0  0  0  0  0  0  0  0  0  0
  185.5380  178.7810  138.3820 O   0  0  0  0  0  0  0  0  0  0  0  0
  187.3050  178.5850  141.9960 N   0  0  0  0  0  0  0  0  0  0  0  0
  190.6170  176.7330  138.9380 C   0  0  0  0  0  0  0  0  0  0  0  0
  191.6880  175.0600  137.5320 C   0  0  0  0  0  3  0  0  0  0  0  0
  191.8840  177.2210  139.2910 C   0  0  0  0  0  3  0  0  0  0  0  0
  190.5330  175.6420  138.0580 C   0  0  0  0  0  3  0  0  0  0  0  0
  193.0430  176.6430  138.7650 C   0  0  0  0  0  3  0  0  0  0  0  0
  192.9450  175.5650  137.8790 C   0  0  0  0  0  0  0  0  0  0  0  0
  194.1740  174.9390  137.3210 C   0  0  0  0  0  2  0  0  0  0  0  0
  194.3120  173.5750  137.8290 N   0  0  0  0  0  2  0  0  0  0  0  0
  195.6350  173.3690  138.4260 C   0  0  0  0  0  3  0  0  0  0  0  0
  197.4950  174.6770  139.2220 C   0  0  0  0  0  2  0  0  0  0  0  0
  196.7400  173.2910  137.3790 C   0  0  0  0  0  2  0  0  0  0  0  0
  197.7740  174.3320  137.7740 C   0  0  0  0  0  2  0  0  0  0  0  0
  196.0070  174.4690  139.4090 C   0  0  0  0  0  2  0  0  0  0  0  0
  190.3030  178.5820  142.8230 C   0  0  0  0  0  2  0  0  0  0  0  0
  191.2340  178.2390  143.9820 C   0  0  0  0  0  2  0  0  0  0  0  0
  189.5150  176.1860  142.7670 C   0  0  0  0  0  2  0  0  0  0  0  0
  190.0770  177.3470  141.9470 C   0  0  1  0  0  3  0  0  0  0  0  0
  190.4520  175.8620  143.9270 C   0  0  0  0  0  2  0  0  0  0  0  0
  190.6480  177.0970  144.8080 C   0  0  1  0  0  3  0  0  0  0  0  0
  191.5860  176.7730  145.9600 C   0  0  0  0  0  2  0  0  0  0  0  0
  190.8480  176.7310  147.2110 N   0  0  0  0  0  2  0  0  0  0  0  0
  189.8660  177.8040  147.1620 C   0  0  0  0  0  2  0  0  0  0  0  0
  188.5500  175.9520  147.8720 F   0  0  0  0  0  0  0  0  0  0  0  0
  188.0520  178.0460  148.8610 C   0  0  0  0  0  1  0  0  0  0  0  0
  187.4950  177.5620  146.5080 C   0  0  0  0  0  1  0  0  0  0  0  0
  188.4990  177.3090  147.6130 C   0  0  0  0  0  0  0  0  0  0  0  0
  1  2  1  0  0  0  0
  2  3  1  0  0  0  0
  3 10  1  0  0  0  0
  4  1  2  0  0  0  0
  4  8  1  0  0  0  0
  5  8  1  0  0  0  0
  5  7  1  0  0  0  0
  6 10  2  0  0  0  0
  7  6  1  0  0  0  0
  8  3  2  0  0  0  0
  9  5  2  0  0  0  0
 11 13  1  0  0  0  0
 11  1  1  0  0  0  0
 12 16  2  0  0  0  0
 12 14  1  0  0  0  0
 14 11  2  0  0  0  0
 15 13  2  0  0  0  0
 16 15  1  0  0  0  0
 17 18  1  0  0  0  0
 17 16  1  0  0  0  0
 18 19  1  0  0  0  0
 19 23  1  0  0  0  0
 20 23  1  0  0  0  0
 21 22  1  0  0  0  0
 21 19  1  0  0  0  0
 22 20  1  0  0  0  0
 24 25  1  0  0  0  0
 25 29  1  0  0  0  0
 26 28  1  0  0  0  0
 27  2  1  6  0  0  0
 27 26  1  0  0  0  0
 27 24  1  0  0  0  0
 28 29  1  0  0  0  0
 29 30  1  1  0  0  0
 30 31  1  0  0  0  0
 32 31  1  0  0  0  0
 32 36  1  0  0  0  0
 35 36  1  0  0  0  0
 36 33  1  0  0  0  0
 36 34  1  0  0  0  0
M  END
>  <MODEL>
4

>  <REMARK>
 VINA RESULT:      -8.7      2.573      7.955
  Name = 
  9 active torsions:
  status: ('A' for Active; 'I' for Inactive)
    1  A    between atoms: C_1  and  C_3
    2  A    between atoms: N_2  and  C_20
    3  A    between atoms: N_4  and  C_10
    4  A    between atoms: N_4  and  C_15
    5  A    between atoms: C_8  and  N_27
    6  A    between atoms: C_8  and  C_33
    7  A    between atoms: C_10  and  C_34
    8  A    between atoms: C_24  and  N_27
    9  A    between atoms: C_24  and  C_36
                            x       y       z     vdW  Elec       q    Type
                         _______ _______ _______ _____ _____    ______ ____

>  <TORSDO>
F 9

$$$$
=
 OpenBabel10222420013D

 36 40  0  0  1  0  0  0  0  0999 V2000
  188.7160  177.6460  143.9950 C   0  0  0  0  0  0  0  0  0  0  0  0
  187.5890  178.0170  144.6650 N   0  0  0  0  0  0  0  0  0  0  0  0
  187.8830  177.8580  145.9670 C   0  0  0  0  0  0  0  0  0  0  0  0
  189.7260  177.2420  144.8840 C   0  0  0  0  0  3  0  0  0  0  0  0
  189.6440  177.1780  147.4100 C   0  0  0  0  0  0  0  0  0  0  0  0
  187.5560  177.9240  148.2820 C   0  0  0  0  0  3  0  0  0  0  0  0
  188.8270  177.4470  148.4700 N   0  0  0  0  0  0  0  0  0  0  0  0
  189.1490  177.3910  146.1300 C   0  0  0  0  0  0  0  0  0  0  0  0
  190.8130  176.7520  147.5970 O   0  0  0  0  0  0  0  0  0  0  0  0
  187.0750  178.1360  147.0210 N   0  0  0  0  0  2  0  0  0  0  0  0
  188.8930  177.6790  142.5230 C   0  0  0  0  0  0  0  0  0  0  0  0
  188.4030  178.6460  140.3440 C   0  0  0  0  0  3  0  0  0  0  0  0
  189.7320  176.7430  141.8980 C   0  0  0  0  0  3  0  0  0  0  0  0
  188.2260  178.6260  141.7290 C   0  0  0  0  0  3  0  0  0  0  0  0
  189.9130  176.7620  140.5110 C   0  0  0  0  0  3  0  0  0  0  0  0
  189.2530  177.7190  139.7340 C   0  0  0  0  0  0  0  0  0  0  0  0
  189.4340  177.7390  138.2580 C   0  0  0  0  0  2  0  0  0  0  0  0
  188.5980  178.7830  137.6680 N   0  0  0  0  0  2  0  0  0  0  0  0
  187.5120  178.2000  136.8740 C   0  0  0  0  0  3  0  0  0  0  0  0
  185.4700  176.9680  137.2130 C   0  0  0  0  0  2  0  0  0  0  0  0
  187.7790  176.7450  136.5020 C   0  0  0  0  0  2  0  0  0  0  0  0
  186.5730  175.9560  136.9820 C   0  0  0  0  0  2  0  0  0  0  0  0
  186.1720  178.2540  137.5920 C   0  0  0  0  0  2  0  0  0  0  0  0
  185.6940  177.6170  143.1330 C   0  0  0  0  0  2  0  0  0  0  0  0
  184.4300  178.2440  142.5530 C   0  0  0  0  0  2  0  0  0  0  0  0
  185.4060  179.0050  145.2200 C   0  0  0  0  0  2  0  0  0  0  0  0
  186.3660  178.5910  144.1040 C   0  0  1  0  0  3  0  0  0  0  0  0
  184.1440  179.6210  144.6230 C   0  0  0  0  0  2  0  0  0  0  0  0
  183.4690  178.6280  143.6750 C   0  0  1  0  0  3  0  0  0  0  0  0
  182.2150  179.2460  143.0790 C   0  0  0  0  0  2  0  0  0  0  0  0
  181.7070  178.4100  142.0030 N   0  0  0  0  0  2  0  0  0  0  0  0
  181.3500  179.2990  140.9070 C   0  0  0  0  0  2  0  0  0  0  0  0
  183.4070  179.7080  139.7810 F   0  0  0  0  0  0  0  0  0  0  0  0
  182.4890  177.5360  139.5530 C   0  0  0  0  0  1  0  0  0  0  0  0
  181.4730  179.4930  138.4470 C   0  0  0  0  0  1  0  0  0  0  0  0
  182.2110  179.0220  139.6820 C   0  0  0  0  0  0  0  0  0  0  0  0
  1  2  1  0  0  0  0
  1  4  2  0  0  0  0
  2  3  1  0  0  0  0
  3  8  2  0  0  0  0
  3 10  1  0  0  0  0
  4  8  1  0  0  0  0
  5  9  2  0  0  0  0
  5  7  1  0  0  0  0
  6  7  2  0  0  0  0
  8  5  1  0  0  0  0
 10  6  1  0  0  0  0
 11  1  1  0  0  0  0
 12 14  1  0  0  0  0
 13 11  1  0  0  0  0
 14 11  2  0  0  0  0
 15 13  2  0  0  0  0
 16 12  2  0  0  0  0
 16 15  1  0  0  0  0
 17 16  1  0  0  0  0
 18 17  1  0  0  0  0
 19 23  1  0  0  0  0
 19 18  1  0  0  0  0
 20 23  1  0  0  0  0
 21 19  1  0  0  0  0
 21 22  1  0  0  0  0
 22 20  1  0  0  0  0
 25 24  1  0  0  0  0
 25 29  1  0  0  0  0
 27 24  1  6  0  0  0
 27  2  1  0  0  0  0
 27 26  1  0  0  0  0
 28 26  1  0  0  0  0
 29 30  1  6  0  0  0
 29 28  1  0  0  0  0
 31 30  1  0  0  0  0
 32 31  1  0  0  0  0
 34 36  1  0  0  0  0
 35 36  1  0  0  0  0
 36 33  1  0  0  0  0
 36 32  1  0  0  0  0
M  END
>  <MODEL>
5

>  <REMARK>
 VINA RESULT:      -8.3      3.309      8.065
  Name = 
  9 active torsions:
  status: ('A' for Active; 'I' for Inactive)
    1  A    between atoms: C_1  and  C_3
    2  A    between atoms: N_2  and  C_20
    3  A    between atoms: N_4  and  C_10
    4  A    between atoms: N_4  and  C_15
    5  A    between atoms: C_8  and  N_27
    6  A    between atoms: C_8  and  C_33
    7  A    between atoms: C_10  and  C_34
    8  A    between atoms: C_24  and  N_27
    9  A    between atoms: C_24  and  C_36
                            x       y       z     vdW  Elec       q    Type
                         _______ _______ _______ _____ _____    ______ ____

>  <TORSDO>
F 9

$$$$
=
 OpenBabel10222420013D

 36 40  0  0  1  0  0  0  0  0999 V2000
  189.8300  177.0390  139.8060 C   0  0  0  0  0  0  0  0  0  0  0  0
  189.4450  176.9030  138.5050 N   0  0  0  0  0  0  0  0  0  0  0  0
  190.5790  176.6640  137.8250 C   0  0  0  0  0  0  0  0  0  0  0  0
  191.2200  176.8930  139.9420 C   0  0  0  0  0  3  0  0  0  0  0  0
  192.9210  176.4110  138.1350 C   0  0  0  0  0  0  0  0  0  0  0  0
  191.9330  176.1880  135.9780 C   0  0  0  0  0  3  0  0  0  0  0  0
  193.0350  176.1830  136.7940 N   0  0  0  0  0  0  0  0  0  0  0  0
  191.6570  176.6580  138.6530 C   0  0  0  0  0  0  0  0  0  0  0  0
  193.9390  176.3920  138.8740 O   0  0  0  0  0  0  0  0  0  0  0  0
  190.6910  176.4270  136.4930 N   0  0  0  0  0  2  0  0  0  0  0  0
  188.9200  177.2830  140.9520 C   0  0  0  0  0  0  0  0  0  0  0  0
  187.1060  178.5210  142.0000 C   0  0  0  0  0  3  0  0  0  0  0  0
  189.0250  176.4950  142.1080 C   0  0  0  0  0  3  0  0  0  0  0  0
  187.9560  178.3030  140.9130 C   0  0  0  0  0  3  0  0  0  0  0  0
  188.1740  176.7090  143.1970 C   0  0  0  0  0  3  0  0  0  0  0  0
  187.2090  177.7190  143.1400 C   0  0  0  0  0  0  0  0  0  0  0  0
  186.3060  177.9580  144.2970 C   0  0  0  0  0  2  0  0  0  0  0  0
  186.7820  177.2160  145.4630 N   0  0  0  0  0  2  0  0  0  0  0  0
  187.5890  178.0740  146.3370 C   0  0  0  0  0  3  0  0  0  0  0  0
  189.3010  177.8590  148.0180 C   0  0  0  0  0  2  0  0  0  0  0  0
  186.9360  178.2970  147.6970 C   0  0  0  0  0  2  0  0  0  0  0  0
  187.9670  177.8870  148.7350 C   0  0  0  0  0  2  0  0  0  0  0  0
  188.9810  177.5110  146.5800 C   0  0  0  0  0  2  0  0  0  0  0  0
  187.8410  178.0680  137.0330 C   0  0  0  0  0  2  0  0  0  0  0  0
  186.4100  178.0340  136.5050 C   0  0  0  0  0  2  0  0  0  0  0  0
  187.7930  175.5570  137.2770 C   0  0  0  0  0  2  0  0  0  0  0  0
  188.0820  176.8860  137.9750 C   0  0  1  0  0  3  0  0  0  0  0  0
  186.3620  175.5440  136.7470 C   0  0  0  0  0  2  0  0  0  0  0  0
  186.1440  176.7140  135.7870 C   0  0  1  0  0  3  0  0  0  0  0  0
  184.7170  176.7010  135.2640 C   0  0  0  0  0  2  0  0  0  0  0  0
  183.8210  176.1420  136.2640 N   0  0  0  0  0  2  0  0  0  0  0  0
  182.9900  177.2340  136.7480 C   0  0  0  0  0  2  0  0  0  0  0  0
  181.4610  177.4570  138.5590 F   0  0  0  0  0  0  0  0  0  0  0  0
  183.0480  175.7050  138.7220 C   0  0  0  0  0  1  0  0  0  0  0  0
  183.7030  178.0710  138.9610 C   0  0  0  0  0  1  0  0  0  0  0  0
  182.7650  177.1190  138.2500 C   0  0  0  0  0  0  0  0  0  0  0  0
  1  4  2  0  0  0  0
  1 11  1  0  0  0  0
  2  1  1  0  0  0  0
  3  2  1  0  0  0  0
  3  8  2  0  0  0  0
  5  8  1  0  0  0  0
  5  9  2  0  0  0  0
  6 10  1  0  0  0  0
  6  7  2  0  0  0  0
  7  5  1  0  0  0  0
  8  4  1  0  0  0  0
 10  3  1  0  0  0  0
 11 13  1  0  0  0  0
 12 16  2  0  0  0  0
 13 15  2  0  0  0  0
 14 11  2  0  0  0  0
 14 12  1  0  0  0  0
 16 15  1  0  0  0  0
 16 17  1  0  0  0  0
 17 18  1  0  0  0  0
 18 19  1  0  0  0  0
 19 23  1  0  0  0  0
 19 21  1  0  0  0  0
 20 22  1  0  0  0  0
 21 22  1  0  0  0  0
 23 20  1  0  0  0  0
 25 24  1  0  0  0  0
 26 27  1  0  0  0  0
 27 24  1  6  0  0  0
 27  2  1  0  0  0  0
 28 26  1  0  0  0  0
 29 30  1  1  0  0  0
 29 25  1  0  0  0  0
 29 28  1  0  0  0  0
 30 31  1  0  0  0  0
 31 32  1  0  0  0  0
 32 36  1  0  0  0  0
 36 33  1  0  0  0  0
 36 34  1  0  0  0  0
 36 35  1  0  0  0  0
M  END
>  <MODEL>
6

>  <REMARK>
 VINA RESULT:      -8.3      3.496      7.132
  Name = 
  9 active torsions:
  status: ('A' for Active; 'I' for Inactive)
    1  A    between atoms: C_1  and  C_3
    2  A    between atoms: N_2  and  C_20
    3  A    between atoms: N_4  and  C_10
    4  A    between atoms: N_4  and  C_15
    5  A    between atoms: C_8  and  N_27
    6  A    between atoms: C_8  and  C_33
    7  A    between atoms: C_10  and  C_34
    8  A    between atoms: C_24  and  N_27
    9  A    between atoms: C_24  and  C_36
                            x       y       z     vdW  Elec       q    Type
                         _______ _______ _______ _____ _____    ______ ____

>  <TORSDO>
F 9

$$$$
=
 OpenBabel10222420013D

 36 40  0  0  1  0  0  0  0  0999 V2000
  186.5530  177.9770  144.8810 C   0  0  0  0  0  0  0  0  0  0  0  0
  187.7610  177.6850  144.3220 N   0  0  0  0  0  0  0  0  0  0  0  0
  188.5920  177.4860  145.3590 C   0  0  0  0  0  0  0  0  0  0  0  0
  186.6270  177.9700  146.2830 C   0  0  0  0  0  3  0  0  0  0  0  0
  188.6380  177.4760  147.7350 C   0  0  0  0  0  0  0  0  0  0  0  0
  190.5860  176.9620  146.4630 C   0  0  0  0  0  3  0  0  0  0  0  0
  189.9570  177.1340  147.6690 N   0  0  0  0  0  0  0  0  0  0  0  0
  187.9470  177.6550  146.5430 C   0  0  0  0  0  0  0  0  0  0  0  0
  188.0700  177.6180  148.8490 O   0  0  0  0  0  0  0  0  0  0  0  0
  189.9010  177.1360  145.2940 N   0  0  0  0  0  2  0  0  0  0  0  0
  185.3000  178.2440  144.1340 C   0  0  0  0  0  0  0  0  0  0  0  0
  182.9880  179.0030  144.0620 C   0  0  0  0  0  3  0  0  0  0  0  0
  185.2340  177.9740  142.7580 C   0  0  0  0  0  3  0  0  0  0  0  0
  184.1620  178.7550  144.7780 C   0  0  0  0  0  3  0  0  0  0  0  0
  184.0610  178.2230  142.0380 C   0  0  0  0  0  3  0  0  0  0  0  0
  182.9390  178.7450  142.6890 C   0  0  0  0  0  0  0  0  0  0  0  0
  181.6860  179.0050  141.9320 C   0  0  0  0  0  2  0  0  0  0  0  0
  181.5680  178.0570  140.8250 N   0  0  0  0  0  2  0  0  0  0  0  0
  181.0770  178.7240  139.6140 C   0  0  0  0  0  3  0  0  0  0  0  0
  181.8080  180.3840  138.0300 C   0  0  0  0  0  2  0  0  0  0  0  0
  180.3350  180.0190  139.9230 C   0  0  0  0  0  2  0  0  0  0  0  0
  181.0100  181.1020  139.0980 C   0  0  0  0  0  2  0  0  0  0  0  0
  182.1960  179.0540  138.6380 C   0  0  0  0  0  2  0  0  0  0  0  0
  188.2830  178.8380  142.2010 C   0  0  0  0  0  2  0  0  0  0  0  0
  188.5860  178.6130  140.7220 C   0  0  0  0  0  2  0  0  0  0  0  0
  189.2780  176.5810  142.7310 C   0  0  0  0  0  2  0  0  0  0  0  0
  188.0650  177.4960  142.9030 C   0  0  1  0  0  3  0  0  0  0  0  0
  189.5720  176.3740  141.2480 C   0  0  0  0  0  2  0  0  0  0  0  0
  189.8140  177.7210  140.5660 C   0  0  1  0  0  3  0  0  0  0  0  0
  190.1020  177.5130  139.0880 C   0  0  0  0  0  2  0  0  0  0  0  0
  190.5780  176.1600  138.8550 N   0  0  0  0  0  2  0  0  0  0  0  0
  191.4410  176.2080  137.6840 C   0  0  0  0  0  2  0  0  0  0  0  0
  192.5680  174.1300  137.9630 F   0  0  0  0  0  0  0  0  0  0  0  0
  190.3900  174.0360  137.0370 C   0  0  0  0  0  1  0  0  0  0  0  0
  192.3030  174.9230  135.7580 C   0  0  0  0  0  1  0  0  0  0  0  0
  191.6920  174.8090  137.1380 C   0  0  0  0  0  0  0  0  0  0  0  0
  1  4  2  0  0  0  0
  2  1  1  0  0  0  0
  2  3  1  0  0  0  0
  3  8  2  0  0  0  0
  4  8  1  0  0  0  0
  5  9  2  0  0  0  0
  6  7  2  0  0  0  0
  7  5  1  0  0  0  0
  8  5  1  0  0  0  0
 10  3  1  0  0  0  0
 10  6  1  0  0  0  0
 11 14  1  0  0  0  0
 11  1  1  0  0  0  0
 12 14  2  0  0  0  0
 13 11  2  0  0  0  0
 15 16  2  0  0  0  0
 15 13  1  0  0  0  0
 16 12  1  0  0  0  0
 17 16  1  0  0  0  0
 18 17  1  0  0  0  0
 19 21  1  0  0  0  0
 19 18  1  0  0  0  0
 20 23  1  0  0  0  0
 20 22  1  0  0  0  0
 22 21  1  0  0  0  0
 23 19  1  0  0  0  0
 25 24  1  0  0  0  0
 26 27  1  0  0  0  0
 27 24  1  1  0  0  0
 27  2  1  0  0  0  0
 28 26  1  0  0  0  0
 29 30  1  6  0  0  0
 29 25  1  0  0  0  0
 29 28  1  0  0  0  0
 31 30  1  0  0  0  0
 32 31  1  0  0  0  0
 34 36  1  0  0  0  0
 35 36  1  0  0  0  0
 36 32  1  0  0  0  0
 36 33  1  0  0  0  0
M  END
>  <MODEL>
7

>  <REMARK>
 VINA RESULT:      -8.2      3.514      7.015
  Name = 
  9 active torsions:
  status: ('A' for Active; 'I' for Inactive)
    1  A    between atoms: C_1  and  C_3
    2  A    between atoms: N_2  and  C_20
    3  A    between atoms: N_4  and  C_10
    4  A    between atoms: N_4  and  C_15
    5  A    between atoms: C_8  and  N_27
    6  A    between atoms: C_8  and  C_33
    7  A    between atoms: C_10  and  C_34
    8  A    between atoms: C_24  and  N_27
    9  A    between atoms: C_24  and  C_36
                            x       y       z     vdW  Elec       q    Type
                         _______ _______ _______ _____ _____    ______ ____

>  <TORSDO>
F 9

$$$$
=
 OpenBabel10222420013D

 36 40  0  0  1  0  0  0  0  0999 V2000
  190.5850  176.8300  139.1620 C   0  0  0  0  0  0  0  0  0  0  0  0
  189.9160  176.8040  137.9750 N   0  0  0  0  0  0  0  0  0  0  0  0
  190.8520  176.5360  137.0490 C   0  0  0  0  0  0  0  0  0  0  0  0
  191.9560  176.5840  138.9780 C   0  0  0  0  0  3  0  0  0  0  0  0
  193.1780  176.1100  136.8160 C   0  0  0  0  0  0  0  0  0  0  0  0
  191.7280  176.0930  134.9250 C   0  0  0  0  0  3  0  0  0  0  0  0
  192.9770  175.9630  135.4750 N   0  0  0  0  0  2  0  0  0  0  0  0
  192.0800  176.4050  137.6140 C   0  0  0  0  0  0  0  0  0  0  0  0
  194.3280  175.9760  137.3080 O   0  0  0  0  0  0  0  0  0  0  0  0
  190.6510  176.3800  135.7160 N   0  0  0  0  0  0  0  0  0  0  0  0
  189.9710  177.0580  140.4930 C   0  0  0  0  0  0  0  0  0  0  0  0
  189.8530  176.6160  142.8840 C   0  0  0  0  0  3  0  0  0  0  0  0
  188.8910  177.9440  140.6220 C   0  0  0  0  0  3  0  0  0  0  0  0
  190.4400  176.3920  141.6360 C   0  0  0  0  0  3  0  0  0  0  0  0
  188.3020  178.1730  141.8700 C   0  0  0  0  0  3  0  0  0  0  0  0
  188.7880  177.5140  143.0030 C   0  0  0  0  0  0  0  0  0  0  0  0
  188.1600  177.7450  144.3320 C   0  0  0  0  0  2  0  0  0  0  0  0
  186.7610  177.3240  144.3030 N   0  0  0  0  0  2  0  0  0  0  0  0
  185.8630  178.4810  144.3630 C   0  0  0  0  0  3  0  0  0  0  0  0
  183.6540  179.0280  145.1530 C   0  0  0  0  0  2  0  0  0  0  0  0
  184.9430  178.5670  143.1490 C   0  0  0  0  0  2  0  0  0  0  0  0
  183.5270  178.6390  143.6950 C   0  0  0  0  0  2  0  0  0  0  0  0
  184.9870  178.4730  145.6060 C   0  0  0  0  0  2  0  0  0  0  0  0
  188.1390  178.0700  136.8200 C   0  0  0  0  0  2  0  0  0  0  0  0
  186.6280  178.1680  136.6250 C   0  0  0  0  0  2  0  0  0  0  0  0
  187.9080  175.5920  137.2350 C   0  0  0  0  0  2  0  0  0  0  0  0
  188.4730  176.9120  137.7620 C   0  0  1  0  0  3  0  0  0  0  0  0
  186.4000  175.7110  137.0370 C   0  0  0  0  0  2  0  0  0  0  0  0
  186.0820  176.8540  136.0730 C   0  0  1  0  0  3  0  0  0  0  0  0
  184.5790  176.9730  135.8810 C   0  0  0  0  0  2  0  0  0  0  0  0
  183.8870  176.6260  137.1120 N   0  0  0  0  0  2  0  0  0  0  0  0
  183.1400  177.8040  137.5270 C   0  0  0  0  0  2  0  0  0  0  0  0
  184.9100  177.9540  139.1120 F   0  0  0  0  0  0  0  0  0  0  0  0
  183.3770  179.7590  139.0620 C   0  0  0  0  0  1  0  0  0  0  0  0
  182.7430  177.5480  139.9510 C   0  0  0  0  0  1  0  0  0  0  0  0
  183.5770  178.2630  138.9110 C   0  0  0  0  0  0  0  0  0  0  0  0
  1 11  1  0  0  0  0
  2  1  1  0  0  0  0
  3  8  2  0  0  0  0
  3  2  1  0  0  0  0
  4  1  2  0  0  0  0
  5  9  2  0  0  0  0
  5  8  1  0  0  0  0
  6  7  1  0  0  0  0
  6 10  2  0  0  0  0
  7  5  1  0  0  0  0
  8  4  1  0  0  0  0
 10  3  1  0  0  0  0
 11 13  2  0  0  0  0
 11 14  1  0  0  0  0
 12 16  1  0  0  0  0
 13 15  1  0  0  0  0
 14 12  2  0  0  0  0
 15 16  2  0  0  0  0
 16 17  1  0  0  0  0
 18 17  1  0  0  0  0
 18 19  1  0  0  0  0
 19 23  1  0  0  0  0
 20 23  1  0  0  0  0
 21 22  1  0  0  0  0
 21 19  1  0  0  0  0
 22 20  1  0  0  0  0
 25 24  1  0  0  0  0
 26 27  1  0  0  0  0
 27 24  1  6  0  0  0
 27  2  1  0  0  0  0
 28 26  1  0  0  0  0
 29 30  1  1  0  0  0
 29 25  1  0  0  0  0
 29 28  1  0  0  0  0
 30 31  1  0  0  0  0
 31 32  1  0  0  0  0
 32 36  1  0  0  0  0
 36 34  1  0  0  0  0
 36 33  1  0  0  0  0
 36 35  1  0  0  0  0
M  END
>  <MODEL>
8

>  <REMARK>
 VINA RESULT:      -8.2      3.165      6.374
  Name = 
  9 active torsions:
  status: ('A' for Active; 'I' for Inactive)
    1  A    between atoms: C_1  and  C_3
    2  A    between atoms: N_2  and  C_20
    3  A    between atoms: N_4  and  C_10
    4  A    between atoms: N_4  and  C_15
    5  A    between atoms: C_8  and  N_27
    6  A    between atoms: C_8  and  C_33
    7  A    between atoms: C_10  and  C_34
    8  A    between atoms: C_24  and  N_27
    9  A    between atoms: C_24  and  C_36
                            x       y       z     vdW  Elec       q    Type
                         _______ _______ _______ _____ _____    ______ ____

>  <TORSDO>
F 9

$$$$
=
 OpenBabel10222420013D

 36 40  0  0  1  0  0  0  0  0999 V2000
  191.4500  176.8200  138.9580 C   0  0  0  0  0  0  0  0  0  0  0  0
  190.7040  176.7310  137.8220 N   0  0  0  0  0  0  0  0  0  0  0  0
  191.5640  176.3510  136.8620 C   0  0  0  0  0  0  0  0  0  0  0  0
  192.7960  176.5010  138.7080 C   0  0  0  0  0  3  0  0  0  0  0  0
  193.8520  175.8070  136.5180 C   0  0  0  0  0  0  0  0  0  0  0  0
  192.2800  175.7060  134.7310 C   0  0  0  0  0  3  0  0  0  0  0  0
  193.5570  175.5650  135.2080 N   0  0  0  0  0  2  0  0  0  0  0  0
  192.8220  176.2110  137.3580 C   0  0  0  0  0  0  0  0  0  0  0  0
  195.0270  175.6620  136.9460 O   0  0  0  0  0  0  0  0  0  0  0  0
  191.2690  176.1000  135.5620 N   0  0  0  0  0  0  0  0  0  0  0  0
  190.9350  177.1770  140.3020 C   0  0  0  0  0  0  0  0  0  0  0  0
  189.0850  177.5610  141.8360 C   0  0  0  0  0  3  0  0  0  0  0  0
  191.8320  177.4890  141.3360 C   0  0  0  0  0  3  0  0  0  0  0  0
  189.5570  177.2240  140.5660 C   0  0  0  0  0  3  0  0  0  0  0  0
  191.3630  177.8250  142.6090 C   0  0  0  0  0  3  0  0  0  0  0  0
  189.9880  177.8540  142.8620 C   0  0  0  0  0  0  0  0  0  0  0  0
  189.4820  178.2200  144.2120 C   0  0  0  0  0  2  0  0  0  0  0  0
  190.0440  177.3180  145.2160 N   0  0  0  0  0  2  0  0  0  0  0  0
  189.0720  177.0430  146.2780 C   0  0  0  0  0  3  0  0  0  0  0  0
  187.3870  178.2060  147.5470 C   0  0  0  0  0  2  0  0  0  0  0  0
  189.6380  177.3080  147.6690 C   0  0  0  0  0  2  0  0  0  0  0  0
  188.6740  178.2700  148.3430 C   0  0  0  0  0  2  0  0  0  0  0  0
  187.8010  177.8660  146.1310 C   0  0  0  0  0  2  0  0  0  0  0  0
  188.9030  178.0400  136.7530 C   0  0  0  0  0  2  0  0  0  0  0  0
  187.3880  178.1860  136.6460 C   0  0  0  0  0  2  0  0  0  0  0  0
  188.6160  175.5770  137.2200 C   0  0  0  0  0  2  0  0  0  0  0  0
  189.2540  176.8840  137.6920 C   0  0  1  0  0  3  0  0  0  0  0  0
  187.1040  175.7430  137.1090 C   0  0  0  0  0  2  0  0  0  0  0  0
  186.7670  176.8840  136.1480 C   0  0  1  0  0  3  0  0  0  0  0  0
  185.2600  177.0510  136.0430 C   0  0  0  0  0  2  0  0  0  0  0  0
  184.6310  176.7520  137.3190 N   0  0  0  0  0  2  0  0  0  0  0  0
  183.6890  177.8270  137.5910 C   0  0  0  0  0  2  0  0  0  0  0  0
  185.2920  178.5940  139.1750 F   0  0  0  0  0  0  0  0  0  0  0  0
  183.2380  179.7710  139.0920 C   0  0  0  0  0  1  0  0  0  0  0  0
  183.3850  177.4900  140.0200 C   0  0  0  0  0  1  0  0  0  0  0  0
  183.9350  178.4290  138.9670 C   0  0  0  0  0  0  0  0  0  0  0  0
  1 11  1  0  0  0  0
  2  1  1  0  0  0  0
  3  8  2  0  0  0  0
  3  2  1  0  0  0  0
  4  1  2  0  0  0  0
  5  9  2  0  0  0  0
  5  8  1  0  0  0  0
  6  7  1  0  0  0  0
  6 10  2  0  0  0  0
  7  5  1  0  0  0  0
  8  4  1  0  0  0  0
 10  3  1  0  0  0  0
 11 14  2  0  0  0  0
 11 13  1  0  0  0  0
 12 16  2  0  0  0  0
 13 15  2  0  0  0  0
 14 12  1  0  0  0  0
 15 16  1  0  0  0  0
 16 17  1  0  0  0  0
 17 18  1  0  0  0  0
 18 19  1  0  0  0  0
 19 21  1  0  0  0  0
 20 22  1  0  0  0  0
 21 22  1  0  0  0  0
 23 19  1  0  0  0  0
 23 20  1  0  0  0  0
 25 24  1  0  0  0  0
 26 27  1  0  0  0  0
 27 24  1  6  0  0  0
 27  2  1  0  0  0  0
 28 26  1  0  0  0  0
 29 30  1  1  0  0  0
 29 25  1  0  0  0  0
 29 28  1  0  0  0  0
 30 31  1  0  0  0  0
 31 32  1  0  0  0  0
 32 36  1  0  0  0  0
 36 34  1  0  0  0  0
 36 33  1  0  0  0  0
 36 35  1  0  0  0  0
M  END
>  <MODEL>
9

>  <REMARK>
 VINA RESULT:      -8.1      3.209      7.099
  Name = 
  9 active torsions:
  status: ('A' for Active; 'I' for Inactive)
    1  A    between atoms: C_1  and  C_3
    2  A    between atoms: N_2  and  C_20
    3  A    between atoms: N_4  and  C_10
    4  A    between atoms: N_4  and  C_15
    5  A    between atoms: C_8  and  N_27
    6  A    between atoms: C_8  and  C_33
    7  A    between atoms: C_10  and  C_34
    8  A    between atoms: C_24  and  N_27
    9  A    between atoms: C_24  and  C_36
                            x       y       z     vdW  Elec       q    Type
                         _______ _______ _______ _____ _____    ______ ____

>  <TORSDO>
F 9

$$$$
