=
 OpenBabel10222421273D

 40 45  0  0  1  0  0  0  0  0999 V2000
  187.3900  177.2830  144.0580 N   0  0  0  0  0  0  0  0  0  0  0  0
  186.5090  178.0740  146.2040 C   0  0  0  0  0  0  0  0  0  0  0  0
  189.5450  177.4870  143.0050 N   0  0  1  0  0  0  0  0  0  0  0  0
  189.6070  176.8350  140.5960 C   0  0  1  0  0  3  0  0  0  0  0  0
  188.2010  178.4010  149.5590 C   0  0  0  0  0  1  0  0  0  0  0  0
  188.1350  177.2940  142.7880 C   0  0  2  0  0  0  0  0  0  0  0  0
  187.9730  178.1200  148.1180 C   0  0  0  0  0  0  0  0  0  0  0  0
  190.1490  176.4770  143.8900 C   0  0  2  0  0  3  0  0  0  0  0  0
  190.0960  177.7380  141.6570 C   0  0  1  0  0  3  0  0  0  0  0  0
  188.9930  177.6540  147.3480 N   0  0  0  0  0  0  0  0  0  0  0  0
  190.0000  176.8900  145.2980 N   0  0  0  0  0  2  0  0  0  0  0  0
  186.7140  178.3370  147.5590 C   0  0  0  0  0  3  0  0  0  0  0  0
  187.7160  177.9930  141.5420 C   0  0  0  0  0  2  0  0  0  0  0  0
  188.8410  177.3770  146.0240 C   0  0  0  0  0  0  0  0  0  0  0  0
  188.9680  178.1600  140.7750 N   0  0  2  0  0  0  0  0  0  0  0  0
  187.4830  176.1300  143.0880 C   0  0  0  0  0  2  0  0  0  0  0  0
  187.5730  177.5910  145.4270 C   0  0  0  0  0  0  0  0  0  0  0  0
  190.7000  176.8770  139.1860 S   0  0  0  0  0  0  0  0  0  0  0  0
  191.9940  177.5650  139.5230 O   0  0  0  0  0  0  0  0  0  0  0  0
  190.9890  175.4680  138.7500 O   0  0  0  0  0  0  0  0  0  0  0  0
  189.8900  177.7450  137.8570 C   0  0  2  0  0  3  0  0  0  0  0  0
  189.5310  179.0090  138.2880 F   0  0  0  0  0  0  0  0  0  0  0  0
  188.6550  176.9750  137.4180 C   0  0  0  0  0  2  0  0  0  0  0  0
  186.4090  178.0010  137.3400 C   0  0  0  0  0  0  0  0  0  0  0  0
  186.2420  178.7040  138.3700 O   0  0  0  0  0  0  0  0  0  0  0  0
  187.7030  177.8660  136.6340 C   0  0  2  0  0  3  0  0  0  0  0  0
  185.8590  176.6480  135.5360 C   0  0  0  0  0  2  0  0  0  0  0  0
  187.3000  177.1410  135.3510 C   0  0  0  0  0  2  0  0  0  0  0  0
  185.3480  177.3100  136.7200 N   0  0  0  0  0  2  0  0  0  0  0  0
  192.1520  174.9910  144.3240 C   0  0  0  0  0  1  0  0  0  0  0  0
  191.6260  176.2090  143.5820 C   0  0  0  0  0  2  0  0  0  0  0  0
  185.1560  178.3000  145.6150 C   0  0  0  0  0  2  0  0  0  0  0  0
  185.0210  179.7330  145.1430 C   0  0  0  0  0  2  0  0  0  0  0  0
  185.0270  179.7660  143.6910 N   0  0  0  0  0  2  0  0  0  0  0  0
  183.9580  178.8890  143.2380 C   0  0  2  0  0  3  0  0  0  0  0  0
  184.7190  179.4830  141.0600 O   0  0  0  0  0  0  0  0  0  0  0  0
  183.5370  177.5210  141.1820 O   0  0  0  0  0  1  0  0  0  0  0  0
  184.0940  178.6530  141.7700 C   0  0  0  0  0  0  0  0  0  0  0  0
  182.6080  179.5140  143.5620 C   0  0  0  0  0  2  0  0  0  0  0  0
  181.7070  178.5040  144.0930 N   0  0  0  0  0  1  0  0  0  0  0  0
  1 17  1  0  0  0  0
  2 12  1  0  0  0  0
  3  8  1  0  0  0  0
  4 15  1  0  0  0  0
  4  9  1  0  0  0  0
  6  3  1  0  0  0  0
  6 16  1  0  0  0  0
  6  1  1  0  0  0  0
  7  5  1  0  0  0  0
  8 11  1  0  0  0  0
  9  3  1  0  0  0  0
 10  7  1  0  0  0  0
 11 14  1  0  0  0  0
 12  7  2  0  0  0  0
 13  6  1  0  0  0  0
 14 10  2  0  0  0  0
 15 13  1  0  0  0  0
 15  9  1  0  0  0  0
 16  1  1  0  0  0  0
 17 14  1  0  0  0  0
 17  2  2  0  0  0  0
 18 19  2  0  0  0  0
 18  4  1  0  0  0  0
 20 18  2  0  0  0  0
 21 22  1  0  0  0  0
 21 18  1  0  0  0  0
 23 21  1  0  0  0  0
 24 25  2  0  0  0  0
 26 24  1  0  0  0  0
 26 23  1  0  0  0  0
 27 29  1  0  0  0  0
 28 27  1  0  0  0  0
 28 26  1  0  0  0  0
 29 24  1  0  0  0  0
 31  8  1  0  0  0  0
 31 30  1  0  0  0  0
 32  2  1  0  0  0  0
 33 32  1  0  0  0  0
 34 33  1  0  0  0  0
 35 39  1  0  0  0  0
 35 34  1  0  0  0  0
 36 38  2  0  0  0  0
 37 38  1  0  0  0  0
 38 35  1  0  0  0  0
 39 40  1  0  0  0  0
M  END
>  <MODEL>
1

>  <REMARK>
 VINA RESULT:      -7.5      0.000      0.000
  Name = 
  11 active torsions:
  status: ('A' for Active; 'I' for Inactive)
    1  A    between atoms: C_1  and  S_7
    2  A    between atoms: C_1  and  C_14
    3  A    between atoms: C_3  and  C_26
    4  A    between atoms: N_4  and  C_25
    5  A    between atoms: N_4  and  CA_30
    6  A    between atoms: C_6  and  S_7
    7  A    between atoms: C_14  and  C_23
    8  A    between atoms: C_17  and  C_34
    9  A    between atoms: C_18  and  CA_30
   10  A    between atoms: C_25  and  C_26
   11  A    between atoms: CA_30  and  C_31
                            x       y       z     vdW  Elec       q    Type
                         _______ _______ _______ _____ _____    ______ ____

>  <TORSDO>
F 11

$$$$
=
 OpenBabel10222421273D

 40 45  0  0  1  0  0  0  0  0999 V2000
  184.7140  178.3860  141.7410 N   0  0  0  0  0  0  0  0  0  0  0  0
  186.1860  178.0670  143.6750 C   0  0  0  0  0  0  0  0  0  0  0  0
  182.3540  178.0430  141.4150 N   0  0  1  0  0  0  0  0  0  0  0  0
  181.5950  178.1300  139.0390 C   0  0  1  0  0  3  0  0  0  0  0  0
  185.5260  178.5890  147.3510 C   0  0  0  0  0  1  0  0  0  0  0  0
  183.6400  178.1190  140.7710 C   0  0  2  0  0  0  0  0  0  0  0  0
  185.3280  178.5230  145.8800 C   0  0  0  0  0  0  0  0  0  0  0  0
  182.0040  179.2540  142.1760 C   0  0  2  0  0  3  0  0  0  0  0  0
  181.4480  177.5160  140.3730 C   0  0  1  0  0  3  0  0  0  0  0  0
  184.1210  178.8470  145.3430 N   0  0  0  0  0  0  0  0  0  0  0  0
  182.5550  179.1670  143.5410 N   0  0  0  0  0  2  0  0  0  0  0  0
  186.3810  178.1300  145.0550 C   0  0  0  0  0  3  0  0  0  0  0  0
  183.7030  177.1360  139.6550 C   0  0  0  0  0  2  0  0  0  0  0  0
  183.8840  178.8070  144.0030 C   0  0  0  0  0  0  0  0  0  0  0  0
  182.2890  176.8540  139.3310 N   0  0  2  0  0  0  0  0  0  0  0  0
  184.3230  179.2900  140.5980 C   0  0  0  0  0  2  0  0  0  0  0  0
  184.9350  178.4070  143.1400 C   0  0  0  0  0  0  0  0  0  0  0  0
  180.1470  177.8170  138.0430 S   0  0  0  0  0  0  0  0  0  0  0  0
  180.0030  176.3500  137.7440 O   0  0  0  0  0  0  0  0  0  0  0  0
  178.9310  178.2930  138.7850 O   0  0  0  0  0  0  0  0  0  0  0  0
  180.2930  178.7250  136.5170 C   0  0  2  0  0  3  0  0  0  0  0  0
  181.6290  178.8460  136.1810 F   0  0  0  0  0  0  0  0  0  0  0  0
  179.6720  180.1030  136.6780 C   0  0  0  0  0  2  0  0  0  0  0  0
  180.3830  181.9540  138.1520 C   0  0  0  0  0  0  0  0  0  0  0  0
  180.4750  181.5270  139.3320 O   0  0  0  0  0  0  0  0  0  0  0  0
  180.7340  181.1560  136.9560 C   0  0  2  0  0  3  0  0  0  0  0  0
  180.0330  183.4610  136.4220 C   0  0  0  0  0  2  0  0  0  0  0  0
  180.6900  182.2010  135.8430 C   0  0  0  0  0  2  0  0  0  0  0  0
  179.9810  183.2730  137.8580 N   0  0  0  0  0  2  0  0  0  0  0  0
  179.8950  179.0450  143.5600 C   0  0  0  0  0  1  0  0  0  0  0  0
  180.4940  179.5100  142.2430 C   0  0  0  0  0  2  0  0  0  0  0  0
  187.3210  177.6530  142.7980 C   0  0  0  0  0  2  0  0  0  0  0  0
  188.0400  176.4610  143.3960 C   0  0  0  0  0  2  0  0  0  0  0  0
  189.4710  176.6120  143.2000 N   0  0  0  0  0  2  0  0  0  0  0  0
  189.8930  177.7570  143.9910 C   0  0  2  0  0  3  0  0  0  0  0  0
  191.6360  177.8270  142.3680 O   0  0  0  0  0  0  0  0  0  0  0  0
  191.7150  179.4760  143.9590 O   0  0  0  0  0  1  0  0  0  0  0  0
  191.1270  178.3500  143.3930 C   0  0  0  0  0  0  0  0  0  0  0  0
  190.1430  177.3260  145.4300 C   0  0  0  0  0  2  0  0  0  0  0  0
  191.3460  176.5130  145.5040 N   0  0  0  0  0  1  0  0  0  0  0  0
  1 17  1  0  0  0  0
  2 12  1  0  0  0  0
  3  8  1  0  0  0  0
  4 15  1  0  0  0  0
  4  9  1  0  0  0  0
  6  3  1  0  0  0  0
  6  1  1  0  0  0  0
  7  5  1  0  0  0  0
  8 31  1  0  0  0  0
  8 11  1  0  0  0  0
  9  3  1  0  0  0  0
 10  7  1  0  0  0  0
 11 14  1  0  0  0  0
 12  7  2  0  0  0  0
 13  6  1  0  0  0  0
 14 10  2  0  0  0  0
 15 13  1  0  0  0  0
 15  9  1  0  0  0  0
 16  6  1  0  0  0  0
 16  1  1  0  0  0  0
 17  2  2  0  0  0  0
 17 14  1  0  0  0  0
 18 20  2  0  0  0  0
 18  4  1  0  0  0  0
 19 18  2  0  0  0  0
 21 23  1  0  0  0  0
 21 18  1  0  0  0  0
 22 21  1  0  0  0  0
 23 26  1  0  0  0  0
 24 25  2  0  0  0  0
 26 24  1  0  0  0  0
 27 29  1  0  0  0  0
 28 27  1  0  0  0  0
 28 26  1  0  0  0  0
 29 24  1  0  0  0  0
 31 30  1  0  0  0  0
 32 33  1  0  0  0  0
 32  2  1  0  0  0  0
 34 33  1  0  0  0  0
 34 35  1  0  0  0  0
 35 39  1  0  0  0  0
 36 38  2  0  0  0  0
 38 37  1  0  0  0  0
 38 35  1  0  0  0  0
 39 40  1  0  0  0  0
M  END
>  <MODEL>
2

>  <REMARK>
 VINA RESULT:      -7.3      4.321      7.707
  Name = 
  11 active torsions:
  status: ('A' for Active; 'I' for Inactive)
    1  A    between atoms: C_1  and  S_7
    2  A    between atoms: C_1  and  C_14
    3  A    between atoms: C_3  and  C_26
    4  A    between atoms: N_4  and  C_25
    5  A    between atoms: N_4  and  CA_30
    6  A    between atoms: C_6  and  S_7
    7  A    between atoms: C_14  and  C_23
    8  A    between atoms: C_17  and  C_34
    9  A    between atoms: C_18  and  CA_30
   10  A    between atoms: C_25  and  C_26
   11  A    between atoms: CA_30  and  C_31
                            x       y       z     vdW  Elec       q    Type
                         _______ _______ _______ _____ _____    ______ ____

>  <TORSDO>
F 11

$$$$
=
 OpenBabel10222421273D

 40 45  0  0  1  0  0  0  0  0999 V2000
  184.4700  178.3840  141.0530 N   0  0  0  0  0  0  0  0  0  0  0  0
  185.8470  178.1340  143.0660 C   0  0  0  0  0  0  0  0  0  0  0  0
  182.1680  177.8620  140.5780 N   0  0  1  0  0  0  0  0  0  0  0  0
  181.5450  177.9490  138.1620 C   0  0  1  0  0  3  0  0  0  0  0  0
  184.9320  178.5070  146.7050 C   0  0  0  0  0  1  0  0  0  0  0  0
  183.4790  178.0570  140.0150 C   0  0  2  0  0  0  0  0  0  0  0  0
  184.8270  178.4630  145.2240 C   0  0  0  0  0  0  0  0  0  0  0  0
  181.6770  179.0210  141.3410 C   0  0  2  0  0  3  0  0  0  0  0  0
  181.3710  177.2910  139.4720 C   0  0  1  0  0  3  0  0  0  0  0  0
  183.6310  178.7030  144.6210 N   0  0  0  0  0  0  0  0  0  0  0  0
  182.1530  178.9430  142.7350 N   0  0  0  0  0  2  0  0  0  0  0  0
  185.9550  178.1770  144.4560 C   0  0  0  0  0  3  0  0  0  0  0  0
  183.6880  177.1110  138.8840 C   0  0  0  0  0  2  0  0  0  0  0  0
  183.4770  178.6790  143.2690 C   0  0  0  0  0  0  0  0  0  0  0  0
  182.3230  176.7260  138.4690 N   0  0  2  0  0  0  0  0  0  0  0  0
  184.0740  179.2830  139.9080 C   0  0  0  0  0  2  0  0  0  0  0  0
  184.6060  178.3860  142.4630 C   0  0  0  0  0  0  0  0  0  0  0  0
  180.1890  177.5470  137.0740 S   0  0  0  0  0  0  0  0  0  0  0  0
  180.4390  176.2500  136.3540 O   0  0  0  0  0  0  0  0  0  0  0  0
  178.9310  177.4270  137.8860 O   0  0  0  0  0  0  0  0  0  0  0  0
  179.9960  178.8610  135.8870 C   0  0  2  0  0  3  0  0  0  0  0  0
  181.1630  178.9950  135.1570 F   0  0  0  0  0  0  0  0  0  0  0  0
  179.6830  180.1620  136.6080 C   0  0  0  0  0  2  0  0  0  0  0  0
  180.9940  181.9840  137.6410 C   0  0  0  0  0  0  0  0  0  0  0  0
  181.5500  181.5490  138.6830 O   0  0  0  0  0  0  0  0  0  0  0  0
  180.7980  181.1800  136.4150 C   0  0  2  0  0  3  0  0  0  0  0  0
  180.0110  183.5080  136.1940 C   0  0  0  0  0  2  0  0  0  0  0  0
  180.3320  182.2300  135.4080 C   0  0  0  0  0  2  0  0  0  0  0  0
  180.5480  183.3160  137.5260 N   0  0  0  0  0  2  0  0  0  0  0  0
  179.5230  178.7190  142.6380 C   0  0  0  0  0  1  0  0  0  0  0  0
  180.1500  179.1530  141.3230 C   0  0  0  0  0  2  0  0  0  0  0  0
  187.0610  177.8350  142.2500 C   0  0  0  0  0  2  0  0  0  0  0  0
  188.3150  178.0850  143.0630 C   0  0  0  0  0  2  0  0  0  0  0  0
  189.4530  178.2130  142.1700 N   0  0  0  0  0  2  0  0  0  0  0  0
  189.7580  176.8820  141.6720 C   0  0  2  0  0  3  0  0  0  0  0  0
  190.4000  174.9990  142.9830 O   0  0  0  0  0  0  0  0  0  0  0  0
  191.7770  176.8250  143.1550 O   0  0  0  0  0  1  0  0  0  0  0  0
  190.6580  176.1810  142.6380 C   0  0  0  0  0  0  0  0  0  0  0  0
  190.4130  176.9820  140.3000 C   0  0  0  0  0  2  0  0  0  0  0  0
  189.6730  177.9110  139.4630 N   0  0  0  0  0  1  0  0  0  0  0  0
  1 17  1  0  0  0  0
  2 12  1  0  0  0  0
  3  8  1  0  0  0  0
  4 15  1  0  0  0  0
  4  9  1  0  0  0  0
  6  3  1  0  0  0  0
  6  1  1  0  0  0  0
  7  5  1  0  0  0  0
  8 11  1  0  0  0  0
  9  3  1  0  0  0  0
 10  7  1  0  0  0  0
 11 14  1  0  0  0  0
 12  7  2  0  0  0  0
 13  6  1  0  0  0  0
 14 10  2  0  0  0  0
 15 13  1  0  0  0  0
 15  9  1  0  0  0  0
 16  6  1  0  0  0  0
 16  1  1  0  0  0  0
 17  2  2  0  0  0  0
 17 14  1  0  0  0  0
 18 20  2  0  0  0  0
 18  4  1  0  0  0  0
 19 18  2  0  0  0  0
 21 23  1  0  0  0  0
 21 18  1  0  0  0  0
 22 21  1  0  0  0  0
 24 25  2  0  0  0  0
 26 23  1  0  0  0  0
 26 24  1  0  0  0  0
 27 29  1  0  0  0  0
 28 27  1  0  0  0  0
 28 26  1  0  0  0  0
 29 24  1  0  0  0  0
 31  8  1  0  0  0  0
 31 30  1  0  0  0  0
 32 33  1  0  0  0  0
 32  2  1  0  0  0  0
 34 33  1  0  0  0  0
 35 34  1  0  0  0  0
 35 38  1  0  0  0  0
 38 36  2  0  0  0  0
 38 37  1  0  0  0  0
 39 35  1  0  0  0  0
 40 39  1  0  0  0  0
M  END
>  <MODEL>
3

>  <REMARK>
 VINA RESULT:      -6.9      4.503      7.864
  Name = 
  11 active torsions:
  status: ('A' for Active; 'I' for Inactive)
    1  A    between atoms: C_1  and  S_7
    2  A    between atoms: C_1  and  C_14
    3  A    between atoms: C_3  and  C_26
    4  A    between atoms: N_4  and  C_25
    5  A    between atoms: N_4  and  CA_30
    6  A    between atoms: C_6  and  S_7
    7  A    between atoms: C_14  and  C_23
    8  A    between atoms: C_17  and  C_34
    9  A    between atoms: C_18  and  CA_30
   10  A    between atoms: C_25  and  C_26
   11  A    between atoms: CA_30  and  C_31
                            x       y       z     vdW  Elec       q    Type
                         _______ _______ _______ _____ _____    ______ ____

>  <TORSDO>
F 11

$$$$
=
 OpenBabel10222421273D

 40 45  0  0  1  0  0  0  0  0999 V2000
  188.0090  178.2230  139.8180 N   0  0  0  0  0  0  0  0  0  0  0  0
  185.9240  178.6930  141.0180 C   0  0  0  0  0  0  0  0  0  0  0  0
  188.5220  176.8130  137.9340 N   0  0  1  0  0  0  0  0  0  0  0  0
  190.9580  176.4510  137.5240 C   0  0  1  0  0  3  0  0  0  0  0  0
  182.3900  178.9890  139.7370 C   0  0  0  0  0  1  0  0  0  0  0  0
  189.0470  177.4520  139.1140 C   0  0  2  0  0  0  0  0  0  0  0  0
  183.8610  178.7830  139.7770 C   0  0  0  0  0  0  0  0  0  0  0  0
  187.9120  177.7530  136.9790 C   0  0  2  0  0  3  0  0  0  0  0  0
  189.5930  175.8890  137.5070 C   0  0  1  0  0  3  0  0  0  0  0  0
  184.5360  178.4910  138.6340 N   0  0  0  0  0  0  0  0  0  0  0  0
  186.4990  177.9820  137.3340 N   0  0  0  0  0  2  0  0  0  0  0  0
  184.5430  178.8920  140.9890 C   0  0  0  0  0  3  0  0  0  0  0  0
  190.0580  176.5690  139.7570 C   0  0  0  0  0  2  0  0  0  0  0  0
  185.8830  178.2960  138.6110 C   0  0  0  0  0  0  0  0  0  0  0  0
  190.4860  175.6530  138.6800 N   0  0  2  0  0  0  0  0  0  0  0  0
  189.2620  178.7990  139.2050 C   0  0  0  0  0  2  0  0  0  0  0  0
  186.6040  178.3960  139.8280 C   0  0  0  0  0  0  0  0  0  0  0  0
  192.0530  175.4660  136.5160 S   0  0  0  0  0  0  0  0  0  0  0  0
  191.7920  173.9970  136.7090 O   0  0  0  0  0  0  0  0  0  0  0  0
  191.8380  175.8190  135.0710 O   0  0  0  0  0  0  0  0  0  0  0  0
  193.7360  175.8380  136.9640 C   0  0  2  0  0  3  0  0  0  0  0  0
  194.1610  176.9520  136.2640 F   0  0  0  0  0  0  0  0  0  0  0  0
  194.6290  174.6510  136.6410 C   0  0  0  0  0  2  0  0  0  0  0  0
  196.9970  174.4610  137.3170 C   0  0  0  0  0  0  0  0  0  0  0  0
  197.5810  175.5490  137.0760 O   0  0  0  0  0  0  0  0  0  0  0  0
  195.5950  174.3630  137.7800 C   0  0  2  0  0  3  0  0  0  0  0  0
  196.7250  172.1760  137.6150 C   0  0  0  0  0  2  0  0  0  0  0  0
  195.4800  172.8880  138.1580 C   0  0  0  0  0  2  0  0  0  0  0  0
  197.6530  173.2170  137.2200 N   0  0  0  0  0  2  0  0  0  0  0  0
  186.7410  176.5850  135.0620 C   0  0  0  0  0  1  0  0  0  0  0  0
  188.0100  177.2830  135.5240 C   0  0  0  0  0  2  0  0  0  0  0  0
  186.6500  178.8200  142.3170 C   0  0  0  0  0  2  0  0  0  0  0  0
  185.9990  177.9450  143.3700 C   0  0  0  0  0  2  0  0  0  0  0  0
  187.0280  177.3080  144.1720 N   0  0  0  0  0  2  0  0  0  0  0  0
  187.1220  178.0540  145.4170 C   0  0  2  0  0  3  0  0  0  0  0  0
  189.3950  177.4320  145.7750 O   0  0  0  0  0  0  0  0  0  0  0  0
  187.9870  177.0550  147.5460 O   0  0  0  0  0  1  0  0  0  0  0  0
  188.2310  177.4980  146.2500 C   0  0  0  0  0  0  0  0  0  0  0  0
  185.7970  177.9800  146.1640 C   0  0  0  0  0  2  0  0  0  0  0  0
  185.4750  179.2760  146.7370 N   0  0  0  0  0  1  0  0  0  0  0  0
  1 17  1  0  0  0  0
  2 32  1  0  0  0  0
  3  6  1  0  0  0  0
  4 15  1  0  0  0  0
  5  7  1  0  0  0  0
  6 16  1  0  0  0  0
  6 13  1  0  0  0  0
  6  1  1  0  0  0  0
  7 12  2  0  0  0  0
  8 11  1  0  0  0  0
  8  3  1  0  0  0  0
  9  4  1  0  0  0  0
  9  3  1  0  0  0  0
  9 15  1  0  0  0  0
 10  7  1  0  0  0  0
 11 14  1  0  0  0  0
 12  2  1  0  0  0  0
 14 10  2  0  0  0  0
 14 17  1  0  0  0  0
 15 13  1  0  0  0  0
 16  1  1  0  0  0  0
 17  2  2  0  0  0  0
 18 19  2  0  0  0  0
 18 21  1  0  0  0  0
 18  4  1  0  0  0  0
 20 18  2  0  0  0  0
 22 21  1  0  0  0  0
 23 21  1  0  0  0  0
 23 26  1  0  0  0  0
 24 26  1  0  0  0  0
 25 24  2  0  0  0  0
 26 28  1  0  0  0  0
 27 28  1  0  0  0  0
 29 24  1  0  0  0  0
 29 27  1  0  0  0  0
 30 31  1  0  0  0  0
 31  8  1  0  0  0  0
 32 33  1  0  0  0  0
 33 34  1  0  0  0  0
 34 35  1  0  0  0  0
 35 39  1  0  0  0  0
 35 38  1  0  0  0  0
 36 38  2  0  0  0  0
 38 37  1  0  0  0  0
 39 40  1  0  0  0  0
M  END
>  <MODEL>
4

>  <REMARK>
 VINA RESULT:      -6.9      4.162      7.200
  Name = 
  11 active torsions:
  status: ('A' for Active; 'I' for Inactive)
    1  A    between atoms: C_1  and  S_7
    2  A    between atoms: C_1  and  C_14
    3  A    between atoms: C_3  and  C_26
    4  A    between atoms: N_4  and  C_25
    5  A    between atoms: N_4  and  CA_30
    6  A    between atoms: C_6  and  S_7
    7  A    between atoms: C_14  and  C_23
    8  A    between atoms: C_17  and  C_34
    9  A    between atoms: C_18  and  CA_30
   10  A    between atoms: C_25  and  C_26
   11  A    between atoms: CA_30  and  C_31
                            x       y       z     vdW  Elec       q    Type
                         _______ _______ _______ _____ _____    ______ ____

>  <TORSDO>
F 11

$$$$
=
 OpenBabel10222421273D

 40 45  0  0  1  0  0  0  0  0999 V2000
  186.4770  178.0860  143.7470 N   0  0  0  0  0  0  0  0  0  0  0  0
  186.0280  178.7440  146.0650 C   0  0  0  0  0  0  0  0  0  0  0  0
  188.5150  177.8090  142.4960 N   0  0  1  0  0  0  0  0  0  0  0  0
  188.2130  177.5670  140.0300 C   0  0  1  0  0  3  0  0  0  0  0  0
  187.9550  178.0070  149.2220 C   0  0  0  0  0  1  0  0  0  0  0  0
  187.1030  178.0810  142.4150 C   0  0  2  0  0  0  0  0  0  0  0  0
  187.5570  178.0440  147.7910 C   0  0  0  0  0  0  0  0  0  0  0  0
  188.8320  176.5360  143.1640 C   0  0  2  0  0  3  0  0  0  0  0  0
  189.0270  178.1000  141.1410 C   0  0  1  0  0  3  0  0  0  0  0  0
  188.3290  177.4270  146.8570 N   0  0  0  0  0  0  0  0  0  0  0  0
  188.9130  176.7410  144.6230 N   0  0  0  0  0  2  0  0  0  0  0  0
  186.3930  178.7110  147.4120 C   0  0  0  0  0  3  0  0  0  0  0  0
  186.8410  179.0650  141.3290 C   0  0  0  0  0  2  0  0  0  0  0  0
  188.0120  177.4260  145.5330 C   0  0  0  0  0  0  0  0  0  0  0  0
  188.0300  178.9750  140.4550 N   0  0  2  0  0  0  0  0  0  0  0  0
  186.1440  177.1310  142.6270 C   0  0  0  0  0  2  0  0  0  0  0  0
  186.8360  178.1000  145.1170 C   0  0  0  0  0  0  0  0  0  0  0  0
  189.1700  177.5110  138.5240 S   0  0  0  0  0  0  0  0  0  0  0  0
  188.4390  176.7570  137.4470 O   0  0  0  0  0  0  0  0  0  0  0  0
  189.4290  178.9150  138.0570 O   0  0  0  0  0  0  0  0  0  0  0  0
  190.7250  176.7110  138.8620 C   0  0  2  0  0  3  0  0  0  0  0  0
  191.5180  177.5520  139.6230 F   0  0  0  0  0  0  0  0  0  0  0  0
  191.4270  176.3790  137.5560 C   0  0  0  0  0  2  0  0  0  0  0  0
  193.7500  175.6320  137.9420 C   0  0  0  0  0  0  0  0  0  0  0  0
  194.1650  176.1230  139.0240 O   0  0  0  0  0  0  0  0  0  0  0  0
  192.3570  175.1860  137.7190 C   0  0  2  0  0  3  0  0  0  0  0  0
  193.8330  174.7860  135.7820 C   0  0  0  0  0  2  0  0  0  0  0  0
  192.4580  174.4580  136.3800 C   0  0  0  0  0  2  0  0  0  0  0  0
  194.6030  175.4080  136.8420 N   0  0  0  0  0  2  0  0  0  0  0  0
  191.2980  176.1590  143.5970 C   0  0  0  0  0  1  0  0  0  0  0  0
  190.1300  175.8960  142.6600 C   0  0  0  0  0  2  0  0  0  0  0  0
  184.7760  179.4530  145.6670 C   0  0  0  0  0  2  0  0  0  0  0  0
  183.9280  178.5630  144.7810 C   0  0  0  0  0  2  0  0  0  0  0  0
  183.2710  179.3730  143.7700 N   0  0  0  0  0  2  0  0  0  0  0  0
  182.2320  178.5510  143.1720 C   0  0  2  0  0  3  0  0  0  0  0  0
  183.2890  178.0660  141.0920 O   0  0  0  0  0  1  0  0  0  0  0  0
  181.3690  179.3110  140.9460 O   0  0  0  0  0  0  0  0  0  0  0  0
  182.3300  178.6270  141.6830 C   0  0  0  0  0  0  0  0  0  0  0  0
  180.8640  179.0220  143.6480 C   0  0  0  0  0  2  0  0  0  0  0  0
  180.0270  177.8770  143.9690 N   0  0  0  0  0  1  0  0  0  0  0  0
  1 17  1  0  0  0  0
  2 12  1  0  0  0  0
  3  8  1  0  0  0  0
  4 15  1  0  0  0  0
  4  9  1  0  0  0  0
  6  3  1  0  0  0  0
  6 16  1  0  0  0  0
  6  1  1  0  0  0  0
  7  5  1  0  0  0  0
  8 11  1  0  0  0  0
  9  3  1  0  0  0  0
 10  7  1  0  0  0  0
 11 14  1  0  0  0  0
 12  7  2  0  0  0  0
 13  6  1  0  0  0  0
 14 10  2  0  0  0  0
 15  9  1  0  0  0  0
 15 13  1  0  0  0  0
 16  1  1  0  0  0  0
 17 14  1  0  0  0  0
 17  2  2  0  0  0  0
 18 21  1  0  0  0  0
 18  4  1  0  0  0  0
 19 18  2  0  0  0  0
 20 18  2  0  0  0  0
 21 22  1  0  0  0  0
 23 26  1  0  0  0  0
 23 21  1  0  0  0  0
 24 25  2  0  0  0  0
 26 24  1  0  0  0  0
 27 28  1  0  0  0  0
 27 29  1  0  0  0  0
 28 26  1  0  0  0  0
 29 24  1  0  0  0  0
 31  8  1  0  0  0  0
 31 30  1  0  0  0  0
 32  2  1  0  0  0  0
 33 32  1  0  0  0  0
 34 33  1  0  0  0  0
 35 39  1  0  0  0  0
 35 34  1  0  0  0  0
 36 38  1  0  0  0  0
 37 38  2  0  0  0  0
 38 35  1  0  0  0  0
 39 40  1  0  0  0  0
M  END
>  <MODEL>
5

>  <REMARK>
 VINA RESULT:      -6.8      2.389      3.417
  Name = 
  11 active torsions:
  status: ('A' for Active; 'I' for Inactive)
    1  A    between atoms: C_1  and  S_7
    2  A    between atoms: C_1  and  C_14
    3  A    between atoms: C_3  and  C_26
    4  A    between atoms: N_4  and  C_25
    5  A    between atoms: N_4  and  CA_30
    6  A    between atoms: C_6  and  S_7
    7  A    between atoms: C_14  and  C_23
    8  A    between atoms: C_17  and  C_34
    9  A    between atoms: C_18  and  CA_30
   10  A    between atoms: C_25  and  C_26
   11  A    between atoms: CA_30  and  C_31
                            x       y       z     vdW  Elec       q    Type
                         _______ _______ _______ _____ _____    ______ ____

>  <TORSDO>
F 11

$$$$
=
 OpenBabel10222421273D

 40 45  0  0  1  0  0  0  0  0999 V2000
  187.1330  177.4340  144.0390 N   0  0  0  0  0  0  0  0  0  0  0  0
  186.7040  177.9250  146.4020 C   0  0  0  0  0  0  0  0  0  0  0  0
  188.9000  178.0780  142.5360 N   0  0  1  0  0  0  0  0  0  0  0  0
  188.4600  177.5970  140.1260 C   0  0  1  0  0  3  0  0  0  0  0  0
  189.1060  178.3360  149.2800 C   0  0  0  0  0  1  0  0  0  0  0  0
  187.5270  177.6540  142.6380 C   0  0  2  0  0  0  0  0  0  0  0  0
  188.5730  178.1090  147.9120 C   0  0  0  0  0  0  0  0  0  0  0  0
  189.8540  177.1370  143.1450 C   0  0  2  0  0  3  0  0  0  0  0  0
  189.0520  178.5040  141.1290 C   0  0  1  0  0  3  0  0  0  0  0  0
  189.4280  177.8770  146.8800 N   0  0  0  0  0  0  0  0  0  0  0  0
  189.9990  177.4300  144.5830 N   0  0  0  0  0  2  0  0  0  0  0  0
  187.1960  178.1350  147.6910 C   0  0  0  0  0  3  0  0  0  0  0  0
  186.7080  178.3450  141.6040 C   0  0  0  0  0  2  0  0  0  0  0  0
  188.9960  177.6600  145.6070 C   0  0  0  0  0  0  0  0  0  0  0  0
  187.6880  178.7750  140.5850 N   0  0  2  0  0  0  0  0  0  0  0  0
  187.1590  176.3780  142.9620 C   0  0  0  0  0  2  0  0  0  0  0  0
  187.6020  177.6850  145.3520 C   0  0  0  0  0  0  0  0  0  0  0  0
  189.1470  177.9160  138.5100 S   0  0  0  0  0  0  0  0  0  0  0  0
  189.0580  179.3770  138.1630 O   0  0  0  0  0  0  0  0  0  0  0  0
  190.5880  177.4920  138.4990 O   0  0  0  0  0  0  0  0  0  0  0  0
  188.2480  176.9610  137.3050 C   0  0  2  0  0  3  0  0  0  0  0  0
  188.6600  177.3190  136.0350 F   0  0  0  0  0  0  0  0  0  0  0  0
  186.7570  177.2140  137.4570 C   0  0  0  0  0  2  0  0  0  0  0  0
  184.5240  176.3880  136.7950 C   0  0  0  0  0  0  0  0  0  0  0  0
  183.7440  177.3670  136.6740 O   0  0  0  0  0  0  0  0  0  0  0  0
  185.9580  176.4260  136.4300 C   0  0  2  0  0  3  0  0  0  0  0  0
  185.2090  174.2110  137.2190 C   0  0  0  0  0  2  0  0  0  0  0  0
  186.3570  174.9540  136.5240 C   0  0  0  0  0  2  0  0  0  0  0  0
  184.0850  175.1270  137.2470 N   0  0  0  0  0  2  0  0  0  0  0  0
  192.1310  178.2380  143.0390 C   0  0  0  0  0  1  0  0  0  0  0  0
  191.2310  177.1510  142.4730 C   0  0  0  0  0  2  0  0  0  0  0  0
  185.2280  177.9460  146.1740 C   0  0  0  0  0  2  0  0  0  0  0  0
  184.8680  179.0160  145.1640 C   0  0  0  0  0  2  0  0  0  0  0  0
  183.4250  179.1840  145.1330 N   0  0  0  0  0  2  0  0  0  0  0  0
  183.0410  179.3290  143.7380 C   0  0  2  0  0  3  0  0  0  0  0  0
  180.9600  178.2610  144.1900 O   0  0  0  0  0  1  0  0  0  0  0  0
  180.8340  180.1290  142.8650 O   0  0  0  0  0  0  0  0  0  0  0  0
  181.5580  179.2060  143.6120 C   0  0  0  0  0  0  0  0  0  0  0  0
  183.7440  178.2690  142.8980 C   0  0  0  0  0  2  0  0  0  0  0  0
  183.2300  178.2900  141.5390 N   0  0  0  0  0  1  0  0  0  0  0  0
  1 17  1  0  0  0  0
  2 12  1  0  0  0  0
  3  6  1  0  0  0  0
  3  8  1  0  0  0  0
  4 15  1  0  0  0  0
  4  9  1  0  0  0  0
  6 16  1  0  0  0  0
  6  1  1  0  0  0  0
  7  5  1  0  0  0  0
  8 11  1  0  0  0  0
  9  3  1  0  0  0  0
 10  7  1  0  0  0  0
 11 14  1  0  0  0  0
 12  7  2  0  0  0  0
 13  6  1  0  0  0  0
 14 10  2  0  0  0  0
 15  9  1  0  0  0  0
 15 13  1  0  0  0  0
 16  1  1  0  0  0  0
 17 14  1  0  0  0  0
 17  2  2  0  0  0  0
 18  4  1  0  0  0  0
 19 18  2  0  0  0  0
 20 18  2  0  0  0  0
 21 23  1  0  0  0  0
 21 18  1  0  0  0  0
 22 21  1  0  0  0  0
 24 29  1  0  0  0  0
 25 24  2  0  0  0  0
 26 28  1  0  0  0  0
 26 24  1  0  0  0  0
 26 23  1  0  0  0  0
 27 29  1  0  0  0  0
 28 27  1  0  0  0  0
 31 30  1  0  0  0  0
 31  8  1  0  0  0  0
 32  2  1  0  0  0  0
 33 32  1  0  0  0  0
 34 33  1  0  0  0  0
 35 34  1  0  0  0  0
 37 38  2  0  0  0  0
 38 35  1  0  0  0  0
 38 36  1  0  0  0  0
 39 35  1  0  0  0  0
 40 39  1  0  0  0  0
M  END
>  <MODEL>
6

>  <REMARK>
 VINA RESULT:      -6.8      1.803      2.140
  Name = 
  11 active torsions:
  status: ('A' for Active; 'I' for Inactive)
    1  A    between atoms: C_1  and  S_7
    2  A    between atoms: C_1  and  C_14
    3  A    between atoms: C_3  and  C_26
    4  A    between atoms: N_4  and  C_25
    5  A    between atoms: N_4  and  CA_30
    6  A    between atoms: C_6  and  S_7
    7  A    between atoms: C_14  and  C_23
    8  A    between atoms: C_17  and  C_34
    9  A    between atoms: C_18  and  CA_30
   10  A    between atoms: C_25  and  C_26
   11  A    between atoms: CA_30  and  C_31
                            x       y       z     vdW  Elec       q    Type
                         _______ _______ _______ _____ _____    ______ ____

>  <TORSDO>
F 11

$$$$
=
 OpenBabel10222421273D

 40 45  0  0  1  0  0  0  0  0999 V2000
  187.9200  178.1830  139.3920 N   0  0  0  0  0  0  0  0  0  0  0  0
  185.8120  178.6760  140.5420 C   0  0  0  0  0  0  0  0  0  0  0  0
  188.5290  176.5470  137.7340 N   0  0  1  0  0  0  0  0  0  0  0  0
  190.9830  176.3060  137.3430 C   0  0  1  0  0  3  0  0  0  0  0  0
  182.2590  178.5120  139.2890 C   0  0  0  0  0  1  0  0  0  0  0  0
  189.0100  177.3940  138.7950 C   0  0  2  0  0  0  0  0  0  0  0  0
  183.7420  178.4240  139.3350 C   0  0  0  0  0  0  0  0  0  0  0  0
  187.8450  177.2830  136.6580 C   0  0  2  0  0  3  0  0  0  0  0  0
  189.6640  175.6490  137.4330 C   0  0  1  0  0  3  0  0  0  0  0  0
  184.4320  178.0130  138.2380 N   0  0  0  0  0  0  0  0  0  0  0  0
  186.4200  177.4580  136.9980 N   0  0  0  0  0  2  0  0  0  0  0  0
  184.4200  178.7650  140.5050 C   0  0  0  0  0  3  0  0  0  0  0  0
  190.0880  176.6950  139.5480 C   0  0  0  0  0  2  0  0  0  0  0  0
  185.7890  177.9160  138.2220 C   0  0  0  0  0  0  0  0  0  0  0  0
  190.5790  175.6600  138.6140 N   0  0  2  0  0  0  0  0  0  0  0  0
  189.1230  178.7510  138.6790 C   0  0  0  0  0  2  0  0  0  0  0  0
  186.5060  178.2520  139.3990 C   0  0  0  0  0  0  0  0  0  0  0  0
  192.1440  175.2630  136.4770 S   0  0  0  0  0  0  0  0  0  0  0  0
  191.8430  173.8080  136.7110 O   0  0  0  0  0  0  0  0  0  0  0  0
  192.0590  175.5550  135.0060 O   0  0  0  0  0  0  0  0  0  0  0  0
  193.7880  175.6330  137.0530 C   0  0  2  0  0  3  0  0  0  0  0  0
  194.2270  176.8060  136.4660 F   0  0  0  0  0  0  0  0  0  0  0  0
  194.7270  174.4920  136.6960 C   0  0  0  0  0  2  0  0  0  0  0  0
  197.1510  174.5050  137.1730 C   0  0  0  0  0  0  0  0  0  0  0  0
  197.6260  175.6270  136.8570 O   0  0  0  0  0  0  0  0  0  0  0  0
  195.8040  174.3140  137.7550 C   0  0  2  0  0  3  0  0  0  0  0  0
  197.0860  172.2160  137.5470 C   0  0  0  0  0  2  0  0  0  0  0  0
  195.8370  172.8460  138.1770 C   0  0  0  0  0  2  0  0  0  0  0  0
  197.8930  173.3130  137.0500 N   0  0  0  0  0  2  0  0  0  0  0  0
  186.7810  175.7120  134.9830 C   0  0  0  0  0  1  0  0  0  0  0  0
  187.9710  176.6070  135.2890 C   0  0  0  0  0  2  0  0  0  0  0  0
  186.5330  179.0500  141.7940 C   0  0  0  0  0  2  0  0  0  0  0  0
  186.3990  177.9500  142.8270 C   0  0  0  0  0  2  0  0  0  0  0  0
  185.3400  178.2900  143.7610 N   0  0  0  0  0  2  0  0  0  0  0  0
  185.7870  177.8800  145.0820 C   0  0  2  0  0  3  0  0  0  0  0  0
  183.8290  178.6260  146.2180 O   0  0  0  0  0  0  0  0  0  0  0  0
  185.8010  179.5110  146.9840 O   0  0  0  0  0  1  0  0  0  0  0  0
  185.0820  178.6900  146.1220 C   0  0  0  0  0  0  0  0  0  0  0  0
  187.2960  178.0550  145.1930 C   0  0  0  0  0  2  0  0  0  0  0  0
  187.8340  177.1250  146.1710 N   0  0  0  0  0  1  0  0  0  0  0  0
  1 17  1  0  0  0  0
  2 32  1  0  0  0  0
  3  6  1  0  0  0  0
  4  9  1  0  0  0  0
  4 15  1  0  0  0  0
  5  7  1  0  0  0  0
  6  1  1  0  0  0  0
  6 13  1  0  0  0  0
  7 12  2  0  0  0  0
  8 11  1  0  0  0  0
  8  3  1  0  0  0  0
  9  3  1  0  0  0  0
  9 15  1  0  0  0  0
 10  7  1  0  0  0  0
 11 14  1  0  0  0  0
 12  2  1  0  0  0  0
 14 10  2  0  0  0  0
 14 17  1  0  0  0  0
 15 13  1  0  0  0  0
 16  6  1  0  0  0  0
 16  1  1  0  0  0  0
 17  2  2  0  0  0  0
 18 19  2  0  0  0  0
 18 21  1  0  0  0  0
 18  4  1  0  0  0  0
 20 18  2  0  0  0  0
 22 21  1  0  0  0  0
 23 21  1  0  0  0  0
 23 26  1  0  0  0  0
 24 26  1  0  0  0  0
 25 24  2  0  0  0  0
 26 28  1  0  0  0  0
 27 28  1  0  0  0  0
 29 24  1  0  0  0  0
 29 27  1  0  0  0  0
 30 31  1  0  0  0  0
 31  8  1  0  0  0  0
 32 33  1  0  0  0  0
 33 34  1  0  0  0  0
 34 35  1  0  0  0  0
 35 39  1  0  0  0  0
 35 38  1  0  0  0  0
 38 36  2  0  0  0  0
 38 37  1  0  0  0  0
 39 40  1  0  0  0  0
M  END
>  <MODEL>
7

>  <REMARK>
 VINA RESULT:      -6.7      4.110      7.326
  Name = 
  11 active torsions:
  status: ('A' for Active; 'I' for Inactive)
    1  A    between atoms: C_1  and  S_7
    2  A    between atoms: C_1  and  C_14
    3  A    between atoms: C_3  and  C_26
    4  A    between atoms: N_4  and  C_25
    5  A    between atoms: N_4  and  CA_30
    6  A    between atoms: C_6  and  S_7
    7  A    between atoms: C_14  and  C_23
    8  A    between atoms: C_17  and  C_34
    9  A    between atoms: C_18  and  CA_30
   10  A    between atoms: C_25  and  C_26
   11  A    between atoms: CA_30  and  C_31
                            x       y       z     vdW  Elec       q    Type
                         _______ _______ _______ _____ _____    ______ ____

>  <TORSDO>
F 11

$$$$
=
 OpenBabel10222421273D

 40 45  0  0  1  0  0  0  0  0999 V2000
  186.4270  178.1280  143.6900 N   0  0  0  0  0  0  0  0  0  0  0  0
  185.9980  178.6890  146.0370 C   0  0  0  0  0  0  0  0  0  0  0  0
  188.4540  177.9350  142.4050 N   0  0  1  0  0  0  0  0  0  0  0  0
  188.1250  177.7830  139.9350 C   0  0  1  0  0  3  0  0  0  0  0  0
  187.9760  177.8640  149.1400 C   0  0  0  0  0  1  0  0  0  0  0  0
  187.0370  178.1850  142.3510 C   0  0  2  0  0  0  0  0  0  0  0  0
  187.5600  177.9490  147.7170 C   0  0  0  0  0  0  0  0  0  0  0  0
  188.8010  176.6420  143.0200 C   0  0  2  0  0  3  0  0  0  0  0  0
  188.9430  178.2860  141.0560 C   0  0  1  0  0  3  0  0  0  0  0  0
  188.3300  177.3820  146.7490 N   0  0  0  0  0  0  0  0  0  0  0  0
  188.8960  176.7920  144.4840 N   0  0  0  0  0  2  0  0  0  0  0  0
  186.3800  178.6100  147.3770 C   0  0  0  0  0  3  0  0  0  0  0  0
  186.7450  179.2050  141.3080 C   0  0  0  0  0  2  0  0  0  0  0  0
  187.9960  177.4260  145.4300 C   0  0  0  0  0  0  0  0  0  0  0  0
  187.9230  179.1690  140.4170 N   0  0  2  0  0  0  0  0  0  0  0  0
  186.0960  177.2110  142.5380 C   0  0  0  0  0  2  0  0  0  0  0  0
  186.8040  178.0950  145.0550 C   0  0  0  0  0  0  0  0  0  0  0  0
  189.0630  177.8000  138.4170 S   0  0  0  0  0  0  0  0  0  0  0  0
  189.0880  179.1770  137.8120 O   0  0  0  0  0  0  0  0  0  0  0  0
  190.4710  177.3620  138.7080 O   0  0  0  0  0  0  0  0  0  0  0  0
  188.3200  176.6570  137.2710 C   0  0  2  0  0  3  0  0  0  0  0  0
  187.5590  175.7370  137.9680 F   0  0  0  0  0  0  0  0  0  0  0  0
  189.4050  175.9410  136.4830 C   0  0  0  0  0  2  0  0  0  0  0  0
  190.9770  174.1180  137.0420 C   0  0  0  0  0  0  0  0  0  0  0  0
  191.7370  174.5010  137.9680 O   0  0  0  0  0  0  0  0  0  0  0  0
  189.5500  174.4950  136.9360 C   0  0  2  0  0  3  0  0  0  0  0  0
  190.2860  172.9510  135.1580 C   0  0  0  0  0  2  0  0  0  0  0  0
  189.0530  173.5810  135.8190 C   0  0  0  0  0  2  0  0  0  0  0  0
  191.4090  173.2350  136.0310 N   0  0  0  0  0  2  0  0  0  0  0  0
  191.2310  176.1110  143.4920 C   0  0  0  0  0  1  0  0  0  0  0  0
  190.1020  176.0440  142.4750 C   0  0  0  0  0  2  0  0  0  0  0  0
  184.7290  179.3910  145.6820 C   0  0  0  0  0  2  0  0  0  0  0  0
  183.8540  178.4950  144.8300 C   0  0  0  0  0  2  0  0  0  0  0  0
  183.2390  179.2820  143.7750 N   0  0  0  0  0  2  0  0  0  0  0  0
  182.1240  178.5060  143.2570 C   0  0  2  0  0  3  0  0  0  0  0  0
  181.1370  179.2860  141.2330 O   0  0  0  0  0  1  0  0  0  0  0  0
  183.0500  178.0490  140.9750 O   0  0  0  0  0  0  0  0  0  0  0  0
  182.0720  178.6370  141.7700 C   0  0  0  0  0  0  0  0  0  0  0  0
  180.8230  178.9880  143.8870 C   0  0  0  0  0  2  0  0  0  0  0  0
  179.8930  177.8800  144.0180 N   0  0  0  0  0  1  0  0  0  0  0  0
  1 17  1  0  0  0  0
  2 12  1  0  0  0  0
  3  8  1  0  0  0  0
  4 15  1  0  0  0  0
  4  9  1  0  0  0  0
  6  3  1  0  0  0  0
  6 16  1  0  0  0  0
  6  1  1  0  0  0  0
  7  5  1  0  0  0  0
  8 11  1  0  0  0  0
  9  3  1  0  0  0  0
 10  7  1  0  0  0  0
 11 14  1  0  0  0  0
 12  7  2  0  0  0  0
 13  6  1  0  0  0  0
 14 10  2  0  0  0  0
 15  9  1  0  0  0  0
 15 13  1  0  0  0  0
 16  1  1  0  0  0  0
 17 14  1  0  0  0  0
 17  2  2  0  0  0  0
 18 20  2  0  0  0  0
 18  4  1  0  0  0  0
 19 18  2  0  0  0  0
 21 22  1  0  0  0  0
 21 18  1  0  0  0  0
 23 26  1  0  0  0  0
 23 21  1  0  0  0  0
 24 25  2  0  0  0  0
 26 24  1  0  0  0  0
 27 28  1  0  0  0  0
 27 29  1  0  0  0  0
 28 26  1  0  0  0  0
 29 24  1  0  0  0  0
 31  8  1  0  0  0  0
 31 30  1  0  0  0  0
 32  2  1  0  0  0  0
 33 32  1  0  0  0  0
 34 33  1  0  0  0  0
 35 34  1  0  0  0  0
 35 39  1  0  0  0  0
 36 38  1  0  0  0  0
 37 38  2  0  0  0  0
 38 35  1  0  0  0  0
 39 40  1  0  0  0  0
M  END
>  <MODEL>
8

>  <REMARK>
 VINA RESULT:      -6.7      2.245      2.812
  Name = 
  11 active torsions:
  status: ('A' for Active; 'I' for Inactive)
    1  A    between atoms: C_1  and  S_7
    2  A    between atoms: C_1  and  C_14
    3  A    between atoms: C_3  and  C_26
    4  A    between atoms: N_4  and  C_25
    5  A    between atoms: N_4  and  CA_30
    6  A    between atoms: C_6  and  S_7
    7  A    between atoms: C_14  and  C_23
    8  A    between atoms: C_17  and  C_34
    9  A    between atoms: C_18  and  CA_30
   10  A    between atoms: C_25  and  C_26
   11  A    between atoms: CA_30  and  C_31
                            x       y       z     vdW  Elec       q    Type
                         _______ _______ _______ _____ _____    ______ ____

>  <TORSDO>
F 11

$$$$
=
 OpenBabel10222421273D

 40 45  0  0  1  0  0  0  0  0999 V2000
  188.2000  178.1460  139.4550 N   0  0  0  0  0  0  0  0  0  0  0  0
  186.0630  178.6230  140.5570 C   0  0  0  0  0  0  0  0  0  0  0  0
  188.8550  176.5230  137.8010 N   0  0  1  0  0  0  0  0  0  0  0  0
  191.3180  176.2940  137.4680 C   0  0  1  0  0  3  0  0  0  0  0  0
  182.5420  178.4550  139.2180 C   0  0  0  0  0  1  0  0  0  0  0  0
  189.3070  177.3640  138.8790 C   0  0  2  0  0  0  0  0  0  0  0  0
  184.0230  178.3720  139.3000 C   0  0  0  0  0  0  0  0  0  0  0  0
  188.1940  177.2640  136.7140 C   0  0  2  0  0  3  0  0  0  0  0  0
  190.0000  175.6320  137.5220 C   0  0  1  0  0  3  0  0  0  0  0  0
  184.7410  177.9710  138.2170 N   0  0  0  0  0  0  0  0  0  0  0  0
  186.7610  177.4320  137.0210 N   0  0  0  0  0  2  0  0  0  0  0  0
  184.6720  178.7070  140.4880 C   0  0  0  0  0  3  0  0  0  0  0  0
  190.3690  176.6640  139.6530 C   0  0  0  0  0  2  0  0  0  0  0  0
  186.0990  177.8790  138.2330 C   0  0  0  0  0  0  0  0  0  0  0  0
  190.8860  175.6380  138.7240 N   0  0  2  0  0  0  0  0  0  0  0  0
  189.4180  178.7230  138.7750 C   0  0  0  0  0  2  0  0  0  0  0  0
  186.7860  178.2090  139.4280 C   0  0  0  0  0  0  0  0  0  0  0  0
  192.5040  175.2610  136.6220 S   0  0  0  0  0  0  0  0  0  0  0  0
  191.8250  174.1030  135.9430 O   0  0  0  0  0  0  0  0  0  0  0  0
  193.2230  176.0860  135.5930 O   0  0  0  0  0  0  0  0  0  0  0  0
  193.6820  174.6500  137.8100 C   0  0  2  0  0  3  0  0  0  0  0  0
  194.1140  175.6950  138.6070 F   0  0  0  0  0  0  0  0  0  0  0  0
  194.8640  174.0260  137.0870 C   0  0  0  0  0  2  0  0  0  0  0  0
  197.2640  174.0680  137.6710 C   0  0  0  0  0  0  0  0  0  0  0  0
  197.6330  175.2640  137.8040 O   0  0  0  0  0  0  0  0  0  0  0  0
  195.9300  173.5680  138.0700 C   0  0  2  0  0  3  0  0  0  0  0  0
  197.4160  171.8020  137.1960 C   0  0  0  0  0  2  0  0  0  0  0  0
  196.0980  172.0550  137.9400 C   0  0  0  0  0  2  0  0  0  0  0  0
  198.1220  173.0680  137.1700 N   0  0  0  0  0  2  0  0  0  0  0  0
  187.1720  175.7070  134.9990 C   0  0  0  0  0  1  0  0  0  0  0  0
  188.3550  176.5980  135.3440 C   0  0  0  0  0  2  0  0  0  0  0  0
  186.7530  178.9910  141.8300 C   0  0  0  0  0  2  0  0  0  0  0  0
  186.6140  177.8750  142.8450 C   0  0  0  0  0  2  0  0  0  0  0  0
  187.7620  176.9900  142.7490 N   0  0  0  0  0  2  0  0  0  0  0  0
  188.7940  177.5340  143.6160 C   0  0  2  0  0  3  0  0  0  0  0  0
  190.2250  175.6870  143.1450 O   0  0  0  0  0  1  0  0  0  0  0  0
  191.2230  177.7500  143.0400 O   0  0  0  0  0  0  0  0  0  0  0  0
  190.1160  176.9360  143.2560 C   0  0  0  0  0  0  0  0  0  0  0  0
  188.4500  177.2450  145.0720 C   0  0  0  0  0  2  0  0  0  0  0  0
  189.5660  177.6060  145.9290 N   0  0  0  0  0  1  0  0  0  0  0  0
  2 32  1  0  0  0  0
  3  6  1  0  0  0  0
  4  9  1  0  0  0  0
  4 15  1  0  0  0  0
  5  7  1  0  0  0  0
  6  1  1  0  0  0  0
  6 13  1  0  0  0  0
  7 12  2  0  0  0  0
  8 11  1  0  0  0  0
  8  3  1  0  0  0  0
  9  3  1  0  0  0  0
  9 15  1  0  0  0  0
 10 14  2  0  0  0  0
 10  7  1  0  0  0  0
 11 14  1  0  0  0  0
 12  2  1  0  0  0  0
 14 17  1  0  0  0  0
 15 13  1  0  0  0  0
 16  6  1  0  0  0  0
 16  1  1  0  0  0  0
 17  1  1  0  0  0  0
 17  2  2  0  0  0  0
 18  4  1  0  0  0  0
 18 21  1  0  0  0  0
 19 18  2  0  0  0  0
 20 18  2  0  0  0  0
 21 22  1  0  0  0  0
 23 21  1  0  0  0  0
 23 26  1  0  0  0  0
 24 25  2  0  0  0  0
 24 26  1  0  0  0  0
 27 28  1  0  0  0  0
 28 26  1  0  0  0  0
 29 27  1  0  0  0  0
 29 24  1  0  0  0  0
 30 31  1  0  0  0  0
 31  8  1  0  0  0  0
 32 33  1  0  0  0  0
 34 33  1  0  0  0  0
 34 35  1  0  0  0  0
 35 39  1  0  0  0  0
 36 38  1  0  0  0  0
 37 38  2  0  0  0  0
 38 35  1  0  0  0  0
 39 40  1  0  0  0  0
M  END
>  <MODEL>
9

>  <REMARK>
 VINA RESULT:      -6.6      4.160      7.602
  Name = 
  11 active torsions:
  status: ('A' for Active; 'I' for Inactive)
    1  A    between atoms: C_1  and  S_7
    2  A    between atoms: C_1  and  C_14
    3  A    between atoms: C_3  and  C_26
    4  A    between atoms: N_4  and  C_25
    5  A    between atoms: N_4  and  CA_30
    6  A    between atoms: C_6  and  S_7
    7  A    between atoms: C_14  and  C_23
    8  A    between atoms: C_17  and  C_34
    9  A    between atoms: C_18  and  CA_30
   10  A    between atoms: C_25  and  C_26
   11  A    between atoms: CA_30  and  C_31
                            x       y       z     vdW  Elec       q    Type
                         _______ _______ _______ _____ _____    ______ ____

>  <TORSDO>
F 11

$$$$
