=
 OpenBabel10222417323D

 59 63  0  0  1  0  0  0  0  0999 V2000
  184.6090  176.9200  137.1970 N   0  0  0  0  0  2  0  0  0  0  0  0
  182.4680  177.7060  136.5300 N   0  0  0  0  0  0  0  0  0  0  0  0
  182.7630  181.0700  138.9380 N   0  0  0  0  0  1  0  0  0  0  0  0
  183.3830  178.6390  138.5840 C   0  0  2  0  0  3  0  0  0  0  0  0
  181.2450  178.4790  136.7460 C   0  0  0  0  0  2  0  0  0  0  0  0
  182.5120  179.8310  138.2860 C   0  0  0  0  0  0  0  0  0  0  0  0
  183.4570  177.7490  137.3760 C   0  0  0  0  0  0  0  0  0  0  0  0
  181.5500  179.7440  137.4160 N   0  0  0  0  0  0  0  0  0  0  0  0
  182.8300  177.8830  139.7000 N   0  0  0  0  0  2  0  0  0  0  0  0
  183.7870  178.7320  143.7420 C   0  0  0  0  0  0  0  0  0  0  0  0
  182.1440  178.6180  141.9540 C   0  0  0  0  0  3  0  0  0  0  0  0
  184.4360  177.9770  141.5250 C   0  0  0  0  0  3  0  0  0  0  0  0
  182.4730  178.9040  143.2840 C   0  0  0  0  0  3  0  0  0  0  0  0
  183.1280  178.1530  141.0700 C   0  0  0  0  0  0  0  0  0  0  0  0
  184.7650  178.2650  142.8520 C   0  0  0  0  0  3  0  0  0  0  0  0
  183.2780  178.9880  146.0430 O   0  0  0  0  0  0  0  0  0  0  0  0
  184.1510  179.0500  145.1360 C   0  0  0  0  0  0  0  0  0  0  0  0
  185.5380  179.4820  145.5020 C   0  0  0  0  0  2  0  0  0  0  0  0
  185.7770  177.4590  146.7250 O   0  0  0  0  0  0  0  0  0  0  0  0
  186.3320  178.3730  146.1300 C   0  0  0  0  0  0  0  0  0  0  0  0
  192.0030  176.1110  146.7170 C   0  0  0  0  0  2  0  0  0  0  0  0
  189.6780  176.6940  146.4730 C   0  0  2  0  0  3  0  0  0  0  0  0
  188.9020  178.3310  148.0710 O   0  0  0  0  0  1  0  0  0  0  0  0
  189.6830  177.8270  144.2310 C   0  0  2  0  0  3  0  0  0  0  0  0
  187.8160  178.3490  145.9410 C   0  0  1  0  0  3  0  0  0  0  0  0
  191.8130  176.8600  145.3990 C   0  0  0  0  0  2  0  0  0  0  0  0
  190.4710  177.5520  145.5280 C   0  0  2  0  0  3  0  0  0  0  0  0
  188.4900  177.4920  147.0340 C   0  0  1  0  0  3  0  0  0  0  0  0
  188.1630  177.9080  144.5050 C   0  0  0  0  0  2  0  0  0  0  0  0
  190.6900  176.2090  147.4880 C   0  0  0  0  0  2  0  0  0  0  0  0
  189.4720  177.2180  141.8710 C   0  0  1  0  0  0  0  0  0  0  0  0
  188.6300  176.3610  142.6820 C   0  0  0  0  0  2  0  0  0  0  0  0
  189.9440  176.8020  143.2150 N   0  0  2  0  0  0  0  0  0  0  0  0
  190.2390  176.5860  140.7280 C   0  0  0  0  0  1  0  0  0  0  0  0
  189.0600  178.5500  141.7570 O   0  0  0  0  0  1  0  0  0  0  0  0
  184.6900  175.8620  136.1980 C   0  0  2  0  0  3  0  0  0  0  0  0
  184.1470  174.6240  136.7420 N   0  0  0  0  0  2  0  0  0  0  0  0
  184.1300  173.6340  135.6770 C   0  0  0  0  0  2  0  0  0  0  0  0
  183.5920  172.0470  137.3410 F   0  0  0  0  0  0  0  0  0  0  0  0
  184.4090  172.2620  136.2460 C   0  0  0  0  0  3  0  0  0  0  0  0
  185.7310  172.1740  136.6360 F   0  0  0  0  0  0  0  0  0  0  0  0
  186.1410  175.6670  135.7600 C   0  0  0  0  0  2  0  0  0  0  0  0
  187.2270  175.2860  137.1720 S   0  0  0  0  0  0  0  0  0  0  0  0
  188.7100  175.7550  136.2410 C   0  0  0  0  0  2  0  0  0  0  0  0
  189.2410  174.5450  135.4990 C   0  0  0  0  0  2  0  0  0  0  0  0
  190.7060  174.7450  135.1530 C   0  0  0  0  0  2  0  0  0  0  0  0
  191.5800  173.6830  135.8290 C   0  0  1  0  0  3  0  0  0  0  0  0
  192.4860  171.6530  135.2060 C   0  0  0  0  0  1  0  0  0  0  0  0
  192.4780  173.0340  134.9460 O   0  0  0  0  0  0  0  0  0  0  0  0
  192.2110  174.1590  137.1540 C   0  0  2  0  0  3  0  0  0  0  0  0
  191.2480  174.5180  138.1000 O   0  0  0  0  0  1  0  0  0  0  0  0
  192.7880  176.4850  137.4600 O   0  0  0  0  0  1  0  0  0  0  0  0
  193.2710  175.2550  137.0040 C   0  0  1  0  0  3  0  0  0  0  0  0
  194.5860  174.9190  137.6480 C   0  0  0  0  0  3  0  0  0  0  0  0
  195.6650  174.8480  136.9560 N   0  0  0  0  0  0  0  0  0  0  0  0
  197.1220  174.9190  139.1810 O   0  0  0  0  0  1  0  0  0  0  0  0
  197.4650  172.8250  137.6500 O   0  0  0  0  0  1  0  0  0  0  0  0
  198.4250  175.3150  136.9440 O   0  0  0  0  0  0  0  0  0  0  0  0
  197.1770  174.4880  137.7320 P   0  0  0  0  0  0  0  0  0  0  0  0
  1  7  1  0  0  0  0
  2  5  1  0  0  0  0
  2  7  2  0  0  0  0
  4  9  1  1  0  0  0
  5  8  1  0  0  0  0
  6  4  1  0  0  0  0
  6  3  1  0  0  0  0
  7  4  1  0  0  0  0
  8  6  2  0  0  0  0
  9 14  1  0  0  0  0
 10 17  1  0  0  0  0
 11 13  2  0  0  0  0
 12 15  1  0  0  0  0
 13 10  1  0  0  0  0
 14 12  2  0  0  0  0
 14 11  1  0  0  0  0
 15 10  2  0  0  0  0
 17 18  1  0  0  0  0
 17 16  2  0  0  0  0
 18 20  1  0  0  0  0
 20 19  2  0  0  0  0
 21 30  1  0  0  0  0
 22 28  1  0  0  0  0
 22 30  1  1  0  0  0
 24 29  1  1  0  0  0
 24 27  1  0  0  0  0
 25 20  1  6  0  0  0
 25 28  1  0  0  0  0
 26 21  1  0  0  0  0
 27 26  1  6  0  0  0
 27 22  1  0  0  0  0
 28 23  1  1  0  0  0
 29 25  1  0  0  0  0
 31 34  1  6  0  0  0
 31 32  1  0  0  0  0
 31 33  1  0  0  0  0
 33 32  1  1  0  0  0
 33 24  1  0  0  0  0
 35 31  1  0  0  0  0
 36 42  1  1  0  0  0
 36 37  1  0  0  0  0
 36  1  1  0  0  0  0
 38 40  1  0  0  0  0
 38 37  1  0  0  0  0
 40 41  1  0  0  0  0
 40 39  1  0  0  0  0
 42 43  1  0  0  0  0
 44 43  1  0  0  0  0
 45 44  1  0  0  0  0
 46 45  1  0  0  0  0
 47 46  1  6  0  0  0
 47 50  1  0  0  0  0
 49 48  1  0  0  0  0
 49 47  1  0  0  0  0
 50 51  1  1  0  0  0
 53 50  1  0  0  0  0
 53 52  1  1  0  0  0
 53 54  1  0  0  0  0
 55 54  2  0  0  0  0
 55 59  1  0  0  0  0
 57 59  1  0  0  0  0
 58 59  2  0  0  0  0
 59 56  1  0  0  0  0
M  END
>  <MODEL>
1

>  <REMARK>
 VINA RESULT:      -7.7      0.000      0.000
  Name = 
  22 active torsions:
  status: ('A' for Active; 'I' for Inactive)
    1  A    between atoms: C_1  and  C_34
    2  A    between atoms: C_3  and  C_33
    3  A    between atoms: C_3  and  C_41
    4  A    between atoms: C_3  and  O_54
    5  A    between atoms: C_4  and  C_8
    6  A    between atoms: C_4  and  N_47
    7  A    between atoms: N_9  and  C_16
    8  A    between atoms: C_12  and  C_16
    9  A    between atoms: C_12  and  S_59
   10  A    between atoms: C_14  and  C_33
   11  A    between atoms: C_14  and  C_49
   12  A    between atoms: C_16  and  N_47
   13  A    between atoms: N_19  and  C_35
   14  A    between atoms: N_19  and  C_48
   15  A    between atoms: C_23  and  N_26
   16  A    between atoms: C_27  and  C_29
   17  A    between atoms: C_29  and  C_56
   18  A    between atoms: C_31  and  C_40
   19  A    between atoms: C_31  and  C_41
   20  A    between atoms: C_34  and  C_56
   21  A    between atoms: N_44  and  P_45
   22  A    between atoms: C_49  and  S_59
                            x       y       z     vdW  Elec       q    Type
                         _______ _______ _______ _____ _____    ______ ____

>  <TORSDO>
F 22

$$$$
=
 OpenBabel10222417323D

 59 63  0  0  1  0  0  0  0  0999 V2000
  185.4330  176.9010  137.1630 N   0  0  0  0  0  2  0  0  0  0  0  0
  184.0980  175.6930  135.6130 N   0  0  0  0  0  0  0  0  0  0  0  0
  181.3000  178.7460  135.3800 N   0  0  0  0  0  1  0  0  0  0  0  0
  183.0130  177.5250  136.7930 C   0  0  2  0  0  3  0  0  0  0  0  0
  182.8230  175.3800  134.9660 C   0  0  0  0  0  2  0  0  0  0  0  0
  182.0930  177.5870  135.6010 C   0  0  0  0  0  0  0  0  0  0  0  0
  184.2020  176.6640  136.4740 C   0  0  0  0  0  0  0  0  0  0  0  0
  182.0420  176.6000  134.7570 N   0  0  0  0  0  0  0  0  0  0  0  0
  182.3100  176.9620  137.9380 N   0  0  0  0  0  2  0  0  0  0  0  0
  182.4620  178.4930  141.8880 C   0  0  0  0  0  0  0  0  0  0  0  0
  183.6010  177.5510  139.9580 C   0  0  0  0  0  3  0  0  0  0  0  0
  181.2140  177.9390  139.8770 C   0  0  0  0  0  3  0  0  0  0  0  0
  183.6380  178.0490  141.2650 C   0  0  0  0  0  3  0  0  0  0  0  0
  182.3850  177.4950  139.2600 C   0  0  0  0  0  0  0  0  0  0  0  0
  181.2520  178.4360  141.1830 C   0  0  0  0  0  3  0  0  0  0  0  0
  181.4770  178.8510  144.0150 O   0  0  0  0  0  0  0  0  0  0  0  0
  182.4850  179.0010  143.2730 C   0  0  0  0  0  0  0  0  0  0  0  0
  183.6760  179.7290  143.8180 C   0  0  0  0  0  2  0  0  0  0  0  0
  183.3840  178.6360  145.9070 O   0  0  0  0  0  0  0  0  0  0  0  0
  184.1650  179.1350  145.1070 C   0  0  0  0  0  0  0  0  0  0  0  0
  189.2670  177.3140  147.9840 C   0  0  0  0  0  2  0  0  0  0  0  0
  187.1490  177.7350  146.9140 C   0  0  2  0  0  3  0  0  0  0  0  0
  186.0950  179.7970  147.5990 O   0  0  0  0  0  1  0  0  0  0  0  0
  187.8540  178.0500  144.5230 C   0  0  2  0  0  3  0  0  0  0  0  0
  185.6370  179.0790  145.3650 C   0  0  1  0  0  3  0  0  0  0  0  0
  189.5020  177.5730  146.4960 C   0  0  0  0  0  2  0  0  0  0  0  0
  188.2340  178.2420  146.0060 C   0  0  2  0  0  3  0  0  0  0  0  0
  185.9190  178.6510  146.8220 C   0  0  1  0  0  3  0  0  0  0  0  0
  186.3280  178.1880  144.3130 C   0  0  0  0  0  2  0  0  0  0  0  0
  187.8050  177.6390  148.2740 C   0  0  0  0  0  2  0  0  0  0  0  0
  189.4830  176.8760  143.1260 C   0  0  1  0  0  0  0  0  0  0  0  0
  188.1620  176.7750  142.5390 C   0  0  0  0  0  2  0  0  0  0  0  0
  188.3030  176.7480  144.0170 N   0  0  2  0  0  0  0  0  0  0  0  0
  190.3680  175.6470  143.1000 C   0  0  0  0  0  1  0  0  0  0  0  0
  190.0780  178.1410  143.0820 O   0  0  0  0  0  1  0  0  0  0  0  0
  186.5730  175.9960  137.1040 C   0  0  2  0  0  3  0  0  0  0  0  0
  187.8140  176.7590  137.1280 N   0  0  0  0  0  2  0  0  0  0  0  0
  188.1610  177.0110  138.5170 C   0  0  0  0  0  2  0  0  0  0  0  0
  188.7770  178.7940  139.9390 F   0  0  0  0  0  0  0  0  0  0  0  0
  188.8760  178.3380  138.6370 C   0  0  0  0  0  3  0  0  0  0  0  0
  188.3020  179.2600  137.7830 F   0  0  0  0  0  0  0  0  0  0  0  0
  186.4940  175.1380  135.8410 C   0  0  0  0  0  2  0  0  0  0  0  0
  188.0540  175.1760  134.9000 S   0  0  0  0  0  0  0  0  0  0  0  0
  188.8210  173.9550  136.0000 C   0  0  0  0  0  2  0  0  0  0  0  0
  190.2140  173.6330  135.4980 C   0  0  0  0  0  2  0  0  0  0  0  0
  191.2020  173.6450  136.6520 C   0  0  0  0  0  2  0  0  0  0  0  0
  192.4030  174.5440  136.3390 C   0  0  1  0  0  3  0  0  0  0  0  0
  191.3200  176.5450  136.7280 C   0  0  0  0  0  1  0  0  0  0  0  0
  192.0490  175.7990  135.7860 O   0  0  0  0  0  0  0  0  0  0  0  0
  193.4340  174.6120  137.4850 C   0  0  2  0  0  3  0  0  0  0  0  0
  194.1490  175.8110  137.4840 O   0  0  0  0  0  1  0  0  0  0  0  0
  194.3000  172.6260  136.4170 O   0  0  0  0  0  1  0  0  0  0  0  0
  194.3770  173.4070  137.5730 C   0  0  1  0  0  3  0  0  0  0  0  0
  195.8010  173.7730  137.8840 C   0  0  0  0  0  3  0  0  0  0  0  0
  196.6570  173.9650  136.9470 N   0  0  0  0  0  0  0  0  0  0  0  0
  198.9340  175.0790  136.1410 O   0  0  0  0  0  0  0  0  0  0  0  0
  198.2730  175.4970  138.6380 O   0  0  0  0  0  1  0  0  0  0  0  0
  199.1680  173.0370  137.7630 O   0  0  0  0  0  1  0  0  0  0  0  0
  198.2880  174.4180  137.3370 P   0  0  0  0  0  0  0  0  0  0  0  0
  2  7  2  0  0  0  0
  3  6  1  0  0  0  0
  4  9  1  1  0  0  0
  5  2  1  0  0  0  0
  6  4  1  0  0  0  0
  7  4  1  0  0  0  0
  7  1  1  0  0  0  0
  8  5  1  0  0  0  0
  8  6  2  0  0  0  0
  9 14  1  0  0  0  0
 10 17  1  0  0  0  0
 11 13  2  0  0  0  0
 12 15  1  0  0  0  0
 13 10  1  0  0  0  0
 14 12  2  0  0  0  0
 14 11  1  0  0  0  0
 15 10  2  0  0  0  0
 17 18  1  0  0  0  0
 17 16  2  0  0  0  0
 18 20  1  0  0  0  0
 20 19  2  0  0  0  0
 21 30  1  0  0  0  0
 22 30  1  1  0  0  0
 24 29  1  1  0  0  0
 24 27  1  0  0  0  0
 25 20  1  6  0  0  0
 25 28  1  0  0  0  0
 26 21  1  0  0  0  0
 27 26  1  1  0  0  0
 27 22  1  0  0  0  0
 28 22  1  0  0  0  0
 28 23  1  1  0  0  0
 29 25  1  0  0  0  0
 31 34  1  6  0  0  0
 31 33  1  0  0  0  0
 32 31  1  0  0  0  0
 33 32  1  6  0  0  0
 33 24  1  0  0  0  0
 35 31  1  0  0  0  0
 36 42  1  6  0  0  0
 36 37  1  0  0  0  0
 36  1  1  0  0  0  0
 37 38  1  0  0  0  0
 38 40  1  0  0  0  0
 40 39  1  0  0  0  0
 41 40  1  0  0  0  0
 43 42  1  0  0  0  0
 43 44  1  0  0  0  0
 45 44  1  0  0  0  0
 45 46  1  0  0  0  0
 47 46  1  1  0  0  0
 47 50  1  0  0  0  0
 49 47  1  0  0  0  0
 49 48  1  0  0  0  0
 50 51  1  6  0  0  0
 50 53  1  0  0  0  0
 53 52  1  6  0  0  0
 53 54  1  0  0  0  0
 55 59  1  0  0  0  0
 55 54  2  0  0  0  0
 56 59  2  0  0  0  0
 59 58  1  0  0  0  0
 59 57  1  0  0  0  0
M  END
>  <MODEL>
2

>  <REMARK>
 VINA RESULT:      -7.1      2.290      3.288
  Name = 
  22 active torsions:
  status: ('A' for Active; 'I' for Inactive)
    1  A    between atoms: C_1  and  C_34
    2  A    between atoms: C_3  and  C_33
    3  A    between atoms: C_3  and  C_41
    4  A    between atoms: C_3  and  O_54
    5  A    between atoms: C_4  and  C_8
    6  A    between atoms: C_4  and  N_47
    7  A    between atoms: N_9  and  C_16
    8  A    between atoms: C_12  and  C_16
    9  A    between atoms: C_12  and  S_59
   10  A    between atoms: C_14  and  C_33
   11  A    between atoms: C_14  and  C_49
   12  A    between atoms: C_16  and  N_47
   13  A    between atoms: N_19  and  C_35
   14  A    between atoms: N_19  and  C_48
   15  A    between atoms: C_23  and  N_26
   16  A    between atoms: C_27  and  C_29
   17  A    between atoms: C_29  and  C_56
   18  A    between atoms: C_31  and  C_40
   19  A    between atoms: C_31  and  C_41
   20  A    between atoms: C_34  and  C_56
   21  A    between atoms: N_44  and  P_45
   22  A    between atoms: C_49  and  S_59
                            x       y       z     vdW  Elec       q    Type
                         _______ _______ _______ _____ _____    ______ ____

>  <TORSDO>
F 22

$$$$
=
 OpenBabel10222417323D

 59 63  0  0  1  0  0  0  0  0999 V2000
  185.1580  178.2560  137.9190 N   0  0  0  0  0  2  0  0  0  0  0  0
  183.5410  177.0330  136.6800 N   0  0  0  0  0  0  0  0  0  0  0  0
  180.5010  179.6500  137.7340 N   0  0  0  0  0  1  0  0  0  0  0  0
  182.6920  178.5540  138.3810 C   0  0  2  0  0  3  0  0  0  0  0  0
  182.1690  176.6050  136.4050 C   0  0  0  0  0  2  0  0  0  0  0  0
  181.4430  178.6030  137.5390 C   0  0  0  0  0  0  0  0  0  0  0  0
  183.8060  177.9140  137.6010 C   0  0  0  0  0  0  0  0  0  0  0  0
  181.2350  177.7120  136.6170 N   0  0  0  0  0  0  0  0  0  0  0  0
  182.4490  177.7780  139.5900 N   0  0  0  0  0  2  0  0  0  0  0  0
  183.9320  178.7460  143.4410 C   0  0  0  0  0  0  0  0  0  0  0  0
  184.3260  177.9300  141.1860 C   0  0  0  0  0  3  0  0  0  0  0  0
  182.1040  178.6220  141.8450 C   0  0  0  0  0  3  0  0  0  0  0  0
  184.8030  178.2440  142.4630 C   0  0  0  0  0  3  0  0  0  0  0  0
  182.9720  178.1190  140.8740 C   0  0  0  0  0  0  0  0  0  0  0  0
  182.5810  178.9340  143.1210 C   0  0  0  0  0  3  0  0  0  0  0  0
  183.5980  179.2010  145.7440 O   0  0  0  0  0  0  0  0  0  0  0  0
  184.4190  179.0610  144.7980 C   0  0  0  0  0  0  0  0  0  0  0  0
  185.8780  179.2540  145.0790 C   0  0  0  0  0  2  0  0  0  0  0  0
  185.9100  177.7790  146.9410 O   0  0  0  0  0  0  0  0  0  0  0  0
  186.4520  178.1390  145.9040 C   0  0  0  0  0  0  0  0  0  0  0  0
  191.6730  177.4760  142.7540 C   0  0  0  0  0  2  0  0  0  0  0  0
  189.7160  178.0400  144.0430 C   0  0  2  0  0  3  0  0  0  0  0  0
  187.6350  177.3900  143.0030 O   0  0  0  0  0  1  0  0  0  0  0  0
  190.0050  176.5620  146.0540 C   0  0  2  0  0  3  0  0  0  0  0  0
  187.6510  177.4060  145.3940 C   0  0  1  0  0  3  0  0  0  0  0  0
  191.6530  176.6300  144.0260 C   0  0  0  0  0  2  0  0  0  0  0  0
  190.2290  176.7160  144.5360 C   0  0  2  0  0  3  0  0  0  0  0  0
  188.1810  178.0600  144.0990 C   0  0  1  0  0  3  0  0  0  0  0  0
  188.7130  177.2830  146.5060 C   0  0  0  0  0  2  0  0  0  0  0  0
  190.3320  178.1990  142.6690 C   0  0  0  0  0  2  0  0  0  0  0  0
  191.6440  176.0790  147.8040 C   0  0  1  0  0  0  0  0  0  0  0  0
  190.7360  177.1170  148.2480 C   0  0  0  0  0  2  0  0  0  0  0  0
  191.1460  177.0730  146.8210 N   0  0  2  0  0  0  0  0  0  0  0  0
  193.1140  176.2290  148.1370 C   0  0  0  0  0  1  0  0  0  0  0  0
  191.1000  174.7940  147.6980 O   0  0  0  0  0  1  0  0  0  0  0  0
  186.3120  177.5390  137.3930 C   0  0  2  0  0  3  0  0  0  0  0  0
  187.5340  178.0600  137.9900 N   0  0  0  0  0  2  0  0  0  0  0  0
  188.2400  176.9510  138.6110 C   0  0  0  0  0  2  0  0  0  0  0  0
  189.1150  178.8350  139.7350 F   0  0  0  0  0  0  0  0  0  0  0  0
  189.0660  177.4530  139.7740 C   0  0  0  0  0  3  0  0  0  0  0  0
  190.3490  176.9460  139.6940 F   0  0  0  0  0  0  0  0  0  0  0  0
  186.3590  177.6700  135.8710 C   0  0  0  0  0  2  0  0  0  0  0  0
  188.0650  177.8620  135.2620 S   0  0  0  0  0  0  0  0  0  0  0  0
  188.1360  176.1330  134.7220 C   0  0  0  0  0  2  0  0  0  0  0  0
  189.5780  175.6680  134.7130 C   0  0  0  0  0  2  0  0  0  0  0  0
  190.3310  176.2770  135.8830 C   0  0  0  0  0  2  0  0  0  0  0  0
  191.5020  175.3840  136.3070 C   0  0  1  0  0  3  0  0  0  0  0  0
  189.8670  174.1390  137.3560 C   0  0  0  0  0  1  0  0  0  0  0  0
  191.1140  174.0840  136.7110 O   0  0  0  0  0  0  0  0  0  0  0  0
  192.6920  175.4260  135.3240 C   0  0  2  0  0  3  0  0  0  0  0  0
  192.8350  174.2310  134.6150 O   0  0  0  0  0  1  0  0  0  0  0  0
  193.8940  177.0920  136.5950 O   0  0  0  0  0  1  0  0  0  0  0  0
  194.0230  175.8620  135.9440 C   0  0  1  0  0  3  0  0  0  0  0  0
  194.6360  174.8330  136.8520 C   0  0  0  0  0  3  0  0  0  0  0  0
  195.8440  174.9500  137.2690 N   0  0  0  0  0  0  0  0  0  0  0  0
  197.9450  173.4690  137.9510 O   0  0  0  0  0  0  0  0  0  0  0  0
  196.4740  174.3500  139.9260 O   0  0  0  0  0  1  0  0  0  0  0  0
  195.6020  172.3400  138.2480 O   0  0  0  0  0  1  0  0  0  0  0  0
  196.5150  173.7610  138.3420 P   0  0  0  0  0  0  0  0  0  0  0  0
  2  7  2  0  0  0  0
  4  9  1  1  0  0  0
  5  8  1  0  0  0  0
  5  2  1  0  0  0  0
  6  3  1  0  0  0  0
  6  4  1  0  0  0  0
  7  1  1  0  0  0  0
  7  4  1  0  0  0  0
  8  6  2  0  0  0  0
  9 14  1  0  0  0  0
 10 17  1  0  0  0  0
 11 13  1  0  0  0  0
 12 15  2  0  0  0  0
 13 10  2  0  0  0  0
 14 11  2  0  0  0  0
 14 12  1  0  0  0  0
 15 10  1  0  0  0  0
 17 18  1  0  0  0  0
 17 16  2  0  0  0  0
 18 20  1  0  0  0  0
 20 19  2  0  0  0  0
 21 26  1  0  0  0  0
 22 30  1  6  0  0  0
 22 28  1  0  0  0  0
 22 27  1  0  0  0  0
 24 29  1  1  0  0  0
 24 33  1  0  0  0  0
 25 20  1  1  0  0  0
 25 29  1  0  0  0  0
 27 26  1  1  0  0  0
 27 24  1  0  0  0  0
 28 23  1  6  0  0  0
 28 25  1  0  0  0  0
 30 21  1  0  0  0  0
 31 34  1  1  0  0  0
 31 32  1  0  0  0  0
 33 31  1  0  0  0  0
 33 32  1  1  0  0  0
 35 31  1  0  0  0  0
 36 42  1  6  0  0  0
 36  1  1  0  0  0  0
 36 37  1  0  0  0  0
 37 38  1  0  0  0  0
 38 40  1  0  0  0  0
 39 40  1  0  0  0  0
 41 40  1  0  0  0  0
 43 42  1  0  0  0  0
 44 43  1  0  0  0  0
 45 44  1  0  0  0  0
 45 46  1  0  0  0  0
 47 46  1  6  0  0  0
 47 49  1  0  0  0  0
 49 48  1  0  0  0  0
 50 51  1  1  0  0  0
 50 53  1  0  0  0  0
 50 47  1  0  0  0  0
 53 52  1  1  0  0  0
 53 54  1  0  0  0  0
 54 55  2  0  0  0  0
 55 59  1  0  0  0  0
 56 59  2  0  0  0  0
 58 59  1  0  0  0  0
 59 57  1  0  0  0  0
M  END
>  <MODEL>
3

>  <REMARK>
 VINA RESULT:      -6.6      2.267      3.534
  Name = 
  22 active torsions:
  status: ('A' for Active; 'I' for Inactive)
    1  A    between atoms: C_1  and  C_34
    2  A    between atoms: C_3  and  C_33
    3  A    between atoms: C_3  and  C_41
    4  A    between atoms: C_3  and  O_54
    5  A    between atoms: C_4  and  C_8
    6  A    between atoms: C_4  and  N_47
    7  A    between atoms: N_9  and  C_16
    8  A    between atoms: C_12  and  C_16
    9  A    between atoms: C_12  and  S_59
   10  A    between atoms: C_14  and  C_33
   11  A    between atoms: C_14  and  C_49
   12  A    between atoms: C_16  and  N_47
   13  A    between atoms: N_19  and  C_35
   14  A    between atoms: N_19  and  C_48
   15  A    between atoms: C_23  and  N_26
   16  A    between atoms: C_27  and  C_29
   17  A    between atoms: C_29  and  C_56
   18  A    between atoms: C_31  and  C_40
   19  A    between atoms: C_31  and  C_41
   20  A    between atoms: C_34  and  C_56
   21  A    between atoms: N_44  and  P_45
   22  A    between atoms: C_49  and  S_59
                            x       y       z     vdW  Elec       q    Type
                         _______ _______ _______ _____ _____    ______ ____

>  <TORSDO>
F 22

$$$$
=
 OpenBabel10222417323D

 59 63  0  0  1  0  0  0  0  0999 V2000
  182.6270  177.9050  136.4170 N   0  0  0  0  0  2  0  0  0  0  0  0
  180.2960  178.3640  136.4370 N   0  0  0  0  0  0  0  0  0  0  0  0
  180.7440  181.4060  139.2200 N   0  0  0  0  0  1  0  0  0  0  0  0
  181.5880  179.1900  138.3280 C   0  0  2  0  0  3  0  0  0  0  0  0
  179.0790  178.8700  137.0720 C   0  0  0  0  0  2  0  0  0  0  0  0
  180.5070  180.2320  138.4550 C   0  0  0  0  0  0  0  0  0  0  0  0
  181.4600  178.4820  137.0090 C   0  0  0  0  0  0  0  0  0  0  0  0
  179.3690  180.0780  137.8460 N   0  0  0  0  0  0  0  0  0  0  0  0
  181.4720  178.2160  139.4050 N   0  0  0  0  0  2  0  0  0  0  0  0
  183.1460  178.8270  143.2510 C   0  0  0  0  0  0  0  0  0  0  0  0
  181.2160  178.8610  141.7740 C   0  0  0  0  0  3  0  0  0  0  0  0
  183.3710  178.1620  140.9240 C   0  0  0  0  0  3  0  0  0  0  0  0
  181.7810  179.0690  143.0370 C   0  0  0  0  0  3  0  0  0  0  0  0
  182.0130  178.4060  140.7130 C   0  0  0  0  0  0  0  0  0  0  0  0
  183.9350  178.3700  142.1860 C   0  0  0  0  0  3  0  0  0  0  0  0
  183.0380  179.0640  145.6080 O   0  0  0  0  0  0  0  0  0  0  0  0
  183.7580  179.0620  144.5730 C   0  0  0  0  0  0  0  0  0  0  0  0
  185.2240  179.3340  144.7180 C   0  0  0  0  0  2  0  0  0  0  0  0
  185.1610  177.8330  146.5580 O   0  0  0  0  0  0  0  0  0  0  0  0
  185.8480  178.5220  145.8160 C   0  0  0  0  0  0  0  0  0  0  0  0
  191.2850  176.1200  147.3290 C   0  0  0  0  0  2  0  0  0  0  0  0
  189.0580  176.7620  146.6690 C   0  0  2  0  0  3  0  0  0  0  0  0
  187.9590  178.2380  148.2330 O   0  0  0  0  0  1  0  0  0  0  0  0
  189.5240  178.1190  144.6070 C   0  0  2  0  0  3  0  0  0  0  0  0
  187.3380  178.4940  145.9370 C   0  0  1  0  0  3  0  0  0  0  0  0
  191.3690  177.0030  146.0840 C   0  0  0  0  0  2  0  0  0  0  0  0
  190.0260  177.7000  146.0030 C   0  0  2  0  0  3  0  0  0  0  0  0
  187.7760  177.5180  147.0510 C   0  0  1  0  0  3  0  0  0  0  0  0
  187.9790  178.1970  144.5670 C   0  0  0  0  0  2  0  0  0  0  0  0
  189.8400  176.1590  147.8160 C   0  0  0  0  0  2  0  0  0  0  0  0
  191.0950  177.7880  142.7620 C   0  0  1  0  0  0  0  0  0  0  0  0
  189.7390  177.8460  142.2540 C   0  0  0  0  0  2  0  0  0  0  0  0
  189.9960  177.2000  143.5660 N   0  0  2  0  0  0  0  0  0  0  0  0
  192.0350  176.7620  142.1650 C   0  0  0  0  0  1  0  0  0  0  0  0
  191.6210  178.9920  143.2410 O   0  0  0  0  0  1  0  0  0  0  0  0
  182.5850  177.0090  135.2690 C   0  0  2  0  0  3  0  0  0  0  0  0
  181.8180  175.8150  135.5990 N   0  0  0  0  0  2  0  0  0  0  0  0
  182.7560  174.7340  135.8530 C   0  0  0  0  0  2  0  0  0  0  0  0
  180.7130  173.8380  136.6280 F   0  0  0  0  0  0  0  0  0  0  0  0
  182.0070  173.4930  136.2830 C   0  0  0  0  0  3  0  0  0  0  0  0
  182.6350  172.9170  137.3710 F   0  0  0  0  0  0  0  0  0  0  0  0
  184.0060  176.6350  134.8460 C   0  0  0  0  0  2  0  0  0  0  0  0
  185.2540  177.3570  135.9600 S   0  0  0  0  0  0  0  0  0  0  0  0
  186.6140  176.6050  135.0270 C   0  0  0  0  0  2  0  0  0  0  0  0
  186.8530  175.1970  135.5340 C   0  0  0  0  0  2  0  0  0  0  0  0
  188.1560  174.6540  134.9740 C   0  0  0  0  0  2  0  0  0  0  0  0
  189.0190  174.0410  136.0830 C   0  0  1  0  0  3  0  0  0  0  0  0
  189.2480  171.9800  135.0720 C   0  0  0  0  0  1  0  0  0  0  0  0
  189.9410  173.0710  135.6220 O   0  0  0  0  0  0  0  0  0  0  0  0
  189.6140  175.0900  137.0460 C   0  0  2  0  0  3  0  0  0  0  0  0
  188.6710  175.5640  137.9610 O   0  0  0  0  0  1  0  0  0  0  0  0
  190.0300  177.4680  136.9640 O   0  0  0  0  0  1  0  0  0  0  0  0
  190.3480  176.2480  136.3620 C   0  0  1  0  0  3  0  0  0  0  0  0
  191.8360  176.0580  136.2770 C   0  0  0  0  0  3  0  0  0  0  0  0
  192.4380  175.1940  137.0110 N   0  0  0  0  0  0  0  0  0  0  0  0
  194.8270  176.3150  136.6810 O   0  0  0  0  0  1  0  0  0  0  0  0
  194.7430  174.2410  138.2740 O   0  0  0  0  0  1  0  0  0  0  0  0
  194.4870  173.9840  135.5380 O   0  0  0  0  0  0  0  0  0  0  0  0
  194.1550  174.9740  136.8690 P   0  0  0  0  0  0  0  0  0  0  0  0
  1  7  1  0  0  0  0
  2  7  2  0  0  0  0
  2  5  1  0  0  0  0
  4  6  1  0  0  0  0
  4  9  1  1  0  0  0
  5  8  1  0  0  0  0
  6  3  1  0  0  0  0
  7  4  1  0  0  0  0
  8  6  2  0  0  0  0
  9 14  1  0  0  0  0
 10 17  1  0  0  0  0
 11 13  2  0  0  0  0
 12 15  1  0  0  0  0
 13 10  1  0  0  0  0
 14 12  2  0  0  0  0
 14 11  1  0  0  0  0
 15 10  2  0  0  0  0
 17 18  1  0  0  0  0
 17 16  2  0  0  0  0
 18 20  1  0  0  0  0
 20 19  2  0  0  0  0
 21 30  1  0  0  0  0
 22 28  1  0  0  0  0
 22 30  1  1  0  0  0
 24 29  1  1  0  0  0
 24 27  1  0  0  0  0
 25 20  1  6  0  0  0
 25 28  1  0  0  0  0
 26 21  1  0  0  0  0
 27 26  1  6  0  0  0
 27 22  1  0  0  0  0
 28 23  1  1  0  0  0
 29 25  1  0  0  0  0
 31 34  1  6  0  0  0
 31 35  1  0  0  0  0
 31 33  1  0  0  0  0
 32 31  1  0  0  0  0
 33 32  1  6  0  0  0
 33 24  1  0  0  0  0
 36 42  1  1  0  0  0
 36 37  1  0  0  0  0
 36  1  1  0  0  0  0
 37 38  1  0  0  0  0
 38 40  1  0  0  0  0
 40 39  1  0  0  0  0
 40 41  1  0  0  0  0
 42 43  1  0  0  0  0
 44 45  1  0  0  0  0
 44 43  1  0  0  0  0
 46 45  1  0  0  0  0
 47 46  1  6  0  0  0
 47 50  1  0  0  0  0
 48 49  1  0  0  0  0
 49 47  1  0  0  0  0
 50 51  1  6  0  0  0
 53 52  1  1  0  0  0
 53 50  1  0  0  0  0
 54 53  1  0  0  0  0
 54 55  2  0  0  0  0
 56 59  1  0  0  0  0
 58 59  2  0  0  0  0
 59 55  1  0  0  0  0
 59 57  1  0  0  0  0
M  END
>  <MODEL>
4

>  <REMARK>
 VINA RESULT:      -6.4      1.886      2.220
  Name = 
  22 active torsions:
  status: ('A' for Active; 'I' for Inactive)
    1  A    between atoms: C_1  and  C_34
    2  A    between atoms: C_3  and  C_33
    3  A    between atoms: C_3  and  C_41
    4  A    between atoms: C_3  and  O_54
    5  A    between atoms: C_4  and  C_8
    6  A    between atoms: C_4  and  N_47
    7  A    between atoms: N_9  and  C_16
    8  A    between atoms: C_12  and  C_16
    9  A    between atoms: C_12  and  S_59
   10  A    between atoms: C_14  and  C_33
   11  A    between atoms: C_14  and  C_49
   12  A    between atoms: C_16  and  N_47
   13  A    between atoms: N_19  and  C_35
   14  A    between atoms: N_19  and  C_48
   15  A    between atoms: C_23  and  N_26
   16  A    between atoms: C_27  and  C_29
   17  A    between atoms: C_29  and  C_56
   18  A    between atoms: C_31  and  C_40
   19  A    between atoms: C_31  and  C_41
   20  A    between atoms: C_34  and  C_56
   21  A    between atoms: N_44  and  P_45
   22  A    between atoms: C_49  and  S_59
                            x       y       z     vdW  Elec       q    Type
                         _______ _______ _______ _____ _____    ______ ____

>  <TORSDO>
F 22

$$$$
=
 OpenBabel10222417323D

 59 63  0  0  1  0  0  0  0  0999 V2000
  188.0590  176.1110  135.9430 N   0  0  0  0  0  2  0  0  0  0  0  0
  188.3140  173.8520  136.6330 N   0  0  0  0  0  0  0  0  0  0  0  0
  184.7030  172.7420  134.9220 N   0  0  0  0  0  1  0  0  0  0  0  0
  186.0640  174.5650  136.0370 C   0  0  2  0  0  3  0  0  0  0  0  0
  187.7810  172.5380  136.9960 C   0  0  0  0  0  2  0  0  0  0  0  0
  185.8190  173.1120  135.7210 C   0  0  0  0  0  0  0  0  0  0  0  0
  187.5370  174.8070  136.2090 C   0  0  0  0  0  0  0  0  0  0  0  0
  186.6370  172.1980  136.1490 N   0  0  0  0  0  0  0  0  0  0  0  0
  185.3730  174.9320  137.2660 N   0  0  0  0  0  2  0  0  0  0  0  0
  181.3780  176.3470  137.3230 C   0  0  0  0  0  0  0  0  0  0  0  0
  183.2650  175.3440  138.4820 C   0  0  0  0  0  3  0  0  0  0  0  0
  183.4730  175.9650  136.1530 C   0  0  0  0  0  3  0  0  0  0  0  0
  181.9440  175.8050  138.4860 C   0  0  0  0  0  3  0  0  0  0  0  0
  184.0340  175.4230  137.3110 C   0  0  0  0  0  0  0  0  0  0  0  0
  182.1540  176.4250  136.1580 C   0  0  0  0  0  3  0  0  0  0  0  0
  179.0410  175.9980  137.1180 O   0  0  0  0  0  0  0  0  0  0  0  0
  179.9790  176.8180  137.3100 C   0  0  0  0  0  0  0  0  0  0  0  0
  179.6410  178.2660  137.4870 C   0  0  0  0  0  2  0  0  0  0  0  0
  181.5460  179.5820  136.9530 O   0  0  0  0  0  0  0  0  0  0  0  0
  180.8460  179.0940  137.8300 C   0  0  0  0  0  0  0  0  0  0  0  0
  180.4750  178.2480  143.8940 C   0  0  0  0  0  2  0  0  0  0  0  0
  180.6050  178.2600  141.4870 C   0  0  2  0  0  3  0  0  0  0  0  0
  179.0860  179.8130  140.4300 O   0  0  0  0  0  1  0  0  0  0  0  0
  182.9220  179.1590  141.1200 C   0  0  2  0  0  3  0  0  0  0  0  0
  181.1330  179.3920  139.2670 C   0  0  1  0  0  3  0  0  0  0  0  0
  181.8310  178.8120  143.4700 C   0  0  0  0  0  2  0  0  0  0  0  0
  181.6640  179.1880  142.0120 C   0  0  2  0  0  3  0  0  0  0  0  0
  180.0270  178.8130  140.1750 C   0  0  1  0  0  3  0  0  0  0  0  0
  182.5520  178.9160  139.6370 C   0  0  0  0  0  2  0  0  0  0  0  0
  179.6270  178.1120  142.6330 C   0  0  0  0  0  2  0  0  0  0  0  0
  185.0490  178.7250  142.2460 C   0  0  1  0  0  0  0  0  0  0  0  0
  185.1490  178.3730  140.8440 C   0  0  0  0  0  2  0  0  0  0  0  0
  183.8720  178.1340  141.5630 N   0  0  2  0  0  0  0  0  0  0  0  0
  185.6970  177.8050  143.2590 C   0  0  0  0  0  1  0  0  0  0  0  0
  184.9630  180.0920  142.5290 O   0  0  0  0  0  1  0  0  0  0  0  0
  189.4150  176.5190  136.2900 C   0  0  2  0  0  3  0  0  0  0  0  0
  190.3530  175.4540  135.9560 N   0  0  0  0  0  2  0  0  0  0  0  0
  191.6440  175.7980  136.5300 C   0  0  0  0  0  2  0  0  0  0  0  0
  193.2010  175.1840  138.1960 F   0  0  0  0  0  0  0  0  0  0  0  0
  192.0110  174.8000  137.6050 C   0  0  0  0  0  3  0  0  0  0  0  0
  192.1590  173.5430  137.0500 F   0  0  0  0  0  0  0  0  0  0  0  0
  189.4930  176.8580  137.7780 C   0  0  0  0  0  2  0  0  0  0  0  0
  188.8460  178.5250  138.1260 S   0  0  0  0  0  0  0  0  0  0  0  0
  189.2190  178.3710  139.8930 C   0  0  0  0  0  2  0  0  0  0  0  0
  190.2650  177.2940  140.0940 C   0  0  0  0  0  2  0  0  0  0  0  0
  191.0090  177.5240  141.3980 C   0  0  0  0  0  2  0  0  0  0  0  0
  190.0900  177.2950  142.6030 C   0  0  1  0  0  3  0  0  0  0  0  0
  188.3890  175.7940  143.0280 C   0  0  0  0  0  1  0  0  0  0  0  0
  189.7730  175.9340  142.8310 O   0  0  0  0  0  0  0  0  0  0  0  0
  190.5240  178.0760  143.8620 C   0  0  2  0  0  3  0  0  0  0  0  0
  191.6270  178.8970  143.6210 O   0  0  0  0  0  1  0  0  0  0  0  0
  191.9570  177.5200  145.7250 O   0  0  0  0  0  1  0  0  0  0  0  0
  190.7400  177.2140  145.1100 C   0  0  1  0  0  3  0  0  0  0  0  0
  189.6060  177.2770  146.0940 C   0  0  0  0  0  3  0  0  0  0  0  0
  188.5260  177.9150  145.8240 N   0  0  0  0  0  0  0  0  0  0  0  0
  186.1510  176.9620  146.5480 O   0  0  0  0  0  0  0  0  0  0  0  0
  187.8070  177.5180  148.4950 O   0  0  0  0  0  1  0  0  0  0  0  0
  186.5630  179.5020  147.0340 O   0  0  0  0  0  1  0  0  0  0  0  0
  187.2200  177.9440  146.9690 P   0  0  0  0  0  0  0  0  0  0  0  0
  1  7  1  0  0  0  0
  1 36  1  0  0  0  0
  2  5  1  0  0  0  0
  3  6  1  0  0  0  0
  4  7  1  0  0  0  0
  4  9  1  1  0  0  0
  6  4  1  0  0  0  0
  6  8  2  0  0  0  0
  7  2  2  0  0  0  0
  8  5  1  0  0  0  0
  9 14  1  0  0  0  0
 10 13  1  0  0  0  0
 11 13  2  0  0  0  0
 12 15  1  0  0  0  0
 12 14  2  0  0  0  0
 14 11  1  0  0  0  0
 15 10  2  0  0  0  0
 16 17  2  0  0  0  0
 17 10  1  0  0  0  0
 17 18  1  0  0  0  0
 18 20  1  0  0  0  0
 19 20  2  0  0  0  0
 22 27  1  0  0  0  0
 22 30  1  1  0  0  0
 24 29  1  6  0  0  0
 24 33  1  0  0  0  0
 24 27  1  0  0  0  0
 25 20  1  6  0  0  0
 25 29  1  0  0  0  0
 25 28  1  0  0  0  0
 26 21  1  0  0  0  0
 27 26  1  1  0  0  0
 28 23  1  1  0  0  0
 28 22  1  0  0  0  0
 30 21  1  0  0  0  0
 31 35  1  0  0  0  0
 31 34  1  1  0  0  0
 32 31  1  0  0  0  0
 33 32  1  6  0  0  0
 33 31  1  0  0  0  0
 36 42  1  1  0  0  0
 37 36  1  0  0  0  0
 37 38  1  0  0  0  0
 38 40  1  0  0  0  0
 40 39  1  0  0  0  0
 41 40  1  0  0  0  0
 42 43  1  0  0  0  0
 43 44  1  0  0  0  0
 44 45  1  0  0  0  0
 45 46  1  0  0  0  0
 47 46  1  6  0  0  0
 47 49  1  0  0  0  0
 47 50  1  0  0  0  0
 49 48  1  0  0  0  0
 50 51  1  6  0  0  0
 50 53  1  0  0  0  0
 53 52  1  1  0  0  0
 53 54  1  0  0  0  0
 55 54  2  0  0  0  0
 55 59  1  0  0  0  0
 56 59  2  0  0  0  0
 59 58  1  0  0  0  0
 59 57  1  0  0  0  0
M  END
>  <MODEL>
5

>  <REMARK>
 VINA RESULT:      -6.2      4.089      8.702
  Name = 
  22 active torsions:
  status: ('A' for Active; 'I' for Inactive)
    1  A    between atoms: C_1  and  C_34
    2  A    between atoms: C_3  and  C_33
    3  A    between atoms: C_3  and  C_41
    4  A    between atoms: C_3  and  O_54
    5  A    between atoms: C_4  and  C_8
    6  A    between atoms: C_4  and  N_47
    7  A    between atoms: N_9  and  C_16
    8  A    between atoms: C_12  and  C_16
    9  A    between atoms: C_12  and  S_59
   10  A    between atoms: C_14  and  C_33
   11  A    between atoms: C_14  and  C_49
   12  A    between atoms: C_16  and  N_47
   13  A    between atoms: N_19  and  C_35
   14  A    between atoms: N_19  and  C_48
   15  A    between atoms: C_23  and  N_26
   16  A    between atoms: C_27  and  C_29
   17  A    between atoms: C_29  and  C_56
   18  A    between atoms: C_31  and  C_40
   19  A    between atoms: C_31  and  C_41
   20  A    between atoms: C_34  and  C_56
   21  A    between atoms: N_44  and  P_45
   22  A    between atoms: C_49  and  S_59
                            x       y       z     vdW  Elec       q    Type
                         _______ _______ _______ _____ _____    ______ ____

>  <TORSDO>
F 22

$$$$
=
 OpenBabel10222417323D

 59 63  0  0  1  0  0  0  0  0999 V2000
  182.8420  176.1150  136.4770 N   0  0  0  0  0  2  0  0  0  0  0  0
  180.7700  176.4990  137.5750 N   0  0  0  0  0  0  0  0  0  0  0  0
  181.3840  180.6000  137.6690 N   0  0  0  0  0  1  0  0  0  0  0  0
  182.4180  178.2870  137.6960 C   0  0  2  0  0  3  0  0  0  0  0  0
  179.8820  177.2860  138.4310 C   0  0  0  0  0  2  0  0  0  0  0  0
  181.2340  179.2010  137.8740 C   0  0  0  0  0  0  0  0  0  0  0  0
  181.9520  176.9330  137.2420 C   0  0  0  0  0  0  0  0  0  0  0  0
  180.0690  178.7160  138.1860 N   0  0  0  0  0  0  0  0  0  0  0  0
  183.1350  178.1470  138.9560 N   0  0  0  0  0  2  0  0  0  0  0  0
  187.3550  178.0870  139.3580 C   0  0  0  0  0  0  0  0  0  0  0  0
  185.3790  177.9200  137.9520 C   0  0  0  0  0  3  0  0  0  0  0  0
  185.1380  178.3410  140.3220 C   0  0  0  0  0  3  0  0  0  0  0  0
  186.7700  177.8930  138.0980 C   0  0  0  0  0  3  0  0  0  0  0  0
  184.5580  178.1450  139.0680 C   0  0  0  0  0  0  0  0  0  0  0  0
  186.5280  178.3130  140.4670 C   0  0  0  0  0  3  0  0  0  0  0  0
  189.5240  179.0300  139.1930 O   0  0  0  0  0  0  0  0  0  0  0  0
  188.8190  178.0400  139.5280 C   0  0  0  0  0  0  0  0  0  0  0  0
  189.5050  176.8200  140.0630 C   0  0  0  0  0  2  0  0  0  0  0  0
  191.4150  177.7830  141.0960 O   0  0  0  0  0  0  0  0  0  0  0  0
  190.3880  177.1320  141.2360 C   0  0  0  0  0  0  0  0  0  0  0  0
  190.6670  176.8750  147.3580 C   0  0  0  0  0  2  0  0  0  0  0  0
  190.6690  177.2770  144.9820 C   0  0  2  0  0  3  0  0  0  0  0  0
  191.7190  175.5260  143.6910 O   0  0  0  0  0  1  0  0  0  0  0  0
  188.2130  177.1770  144.4610 C   0  0  2  0  0  3  0  0  0  0  0  0
  189.9500  176.7130  142.6030 C   0  0  1  0  0  3  0  0  0  0  0  0
  189.2310  176.8140  146.8410 C   0  0  0  0  0  2  0  0  0  0  0  0
  189.3570  176.6360  145.3420 C   0  0  2  0  0  3  0  0  0  0  0  0
  191.1280  176.7870  143.5990 C   0  0  1  0  0  3  0  0  0  0  0  0
  188.7160  177.5270  143.0400 C   0  0  0  0  0  2  0  0  0  0  0  0
  191.5840  176.9470  146.1410 C   0  0  0  0  0  2  0  0  0  0  0  0
  186.2630  178.0380  145.6600 C   0  0  1  0  0  0  0  0  0  0  0  0
  186.3150  178.6050  144.3280 C   0  0  0  0  0  2  0  0  0  0  0  0
  187.5820  178.3570  145.0620 N   0  0  2  0  0  0  0  0  0  0  0  0
  185.8720  178.9480  146.8060 C   0  0  0  0  0  1  0  0  0  0  0  0
  185.9420  176.6780  145.7350 O   0  0  0  0  0  1  0  0  0  0  0  0
  182.5870  174.7110  136.1800 C   0  0  2  0  0  3  0  0  0  0  0  0
  181.8580  174.0960  137.2820 N   0  0  0  0  0  2  0  0  0  0  0  0
  181.5260  172.7340  136.8970 C   0  0  0  0  0  2  0  0  0  0  0  0
  179.3550  173.3850  136.2310 F   0  0  0  0  0  0  0  0  0  0  0  0
  180.0390  172.5050  137.0500 C   0  0  0  0  0  3  0  0  0  0  0  0
  179.6640  172.7150  138.3630 F   0  0  0  0  0  0  0  0  0  0  0  0
  183.9070  173.9810  135.9350 C   0  0  0  0  0  2  0  0  0  0  0  0
  185.2390  174.6140  137.0060 S   0  0  0  0  0  0  0  0  0  0  0  0
  186.2970  174.9830  135.5810 C   0  0  0  0  0  2  0  0  0  0  0  0
  186.3590  173.7720  134.6740 C   0  0  0  0  0  2  0  0  0  0  0  0
  187.7820  173.2450  134.6020 C   0  0  0  0  0  2  0  0  0  0  0  0
  188.3070  172.8870  135.9970 C   0  0  1  0  0  3  0  0  0  0  0  0
  188.2700  170.7710  135.0780 C   0  0  0  0  0  1  0  0  0  0  0  0
  188.2860  171.5000  136.2790 O   0  0  0  0  0  0  0  0  0  0  0  0
  189.6300  173.5980  136.3540 C   0  0  2  0  0  3  0  0  0  0  0  0
  189.5620  174.2560  137.5840 O   0  0  0  0  0  1  0  0  0  0  0  0
  189.5630  175.7770  135.3150 O   0  0  0  0  0  1  0  0  0  0  0  0
  190.1780  174.5230  135.2630 C   0  0  1  0  0  3  0  0  0  0  0  0
  191.6750  174.6540  135.2730 C   0  0  0  0  0  3  0  0  0  0  0  0
  192.3320  174.6770  136.3750 N   0  0  0  0  0  0  0  0  0  0  0  0
  194.6720  173.4140  136.3270 O   0  0  0  0  0  1  0  0  0  0  0  0
  194.5490  175.6530  134.9790 O   0  0  0  0  0  0  0  0  0  0  0  0
  194.5880  175.6180  137.7390 O   0  0  0  0  0  1  0  0  0  0  0  0
  194.0640  174.7980  136.3540 P   0  0  0  0  0  0  0  0  0  0  0  0
  1  7  1  0  0  0  0
  2  5  1  0  0  0  0
  3  6  1  0  0  0  0
  4  6  1  0  0  0  0
  4  9  1  1  0  0  0
  6  8  2  0  0  0  0
  7  2  2  0  0  0  0
  7  4  1  0  0  0  0
  8  5  1  0  0  0  0
  9 14  1  0  0  0  0
 10 17  1  0  0  0  0
 10 15  1  0  0  0  0
 11 13  1  0  0  0  0
 11 14  2  0  0  0  0
 12 15  2  0  0  0  0
 13 10  2  0  0  0  0
 14 12  1  0  0  0  0
 16 17  2  0  0  0  0
 17 18  1  0  0  0  0
 18 20  1  0  0  0  0
 19 20  2  0  0  0  0
 22 27  1  0  0  0  0
 22 30  1  1  0  0  0
 24 29  1  6  0  0  0
 24 33  1  0  0  0  0
 24 27  1  0  0  0  0
 25 20  1  6  0  0  0
 25 29  1  0  0  0  0
 25 28  1  0  0  0  0
 26 21  1  0  0  0  0
 27 26  1  1  0  0  0
 28 23  1  1  0  0  0
 28 22  1  0  0  0  0
 30 21  1  0  0  0  0
 31 35  1  0  0  0  0
 31 34  1  1  0  0  0
 32 31  1  0  0  0  0
 33 32  1  6  0  0  0
 33 31  1  0  0  0  0
 36 42  1  1  0  0  0
 36  1  1  0  0  0  0
 36 37  1  0  0  0  0
 38 40  1  0  0  0  0
 38 37  1  0  0  0  0
 39 40  1  0  0  0  0
 40 41  1  0  0  0  0
 42 43  1  0  0  0  0
 44 43  1  0  0  0  0
 45 44  1  0  0  0  0
 46 45  1  0  0  0  0
 47 46  1  6  0  0  0
 47 49  1  0  0  0  0
 47 50  1  0  0  0  0
 48 49  1  0  0  0  0
 50 51  1  1  0  0  0
 53 54  1  0  0  0  0
 53 52  1  1  0  0  0
 53 50  1  0  0  0  0
 54 55  2  0  0  0  0
 56 59  1  0  0  0  0
 57 59  2  0  0  0  0
 59 55  1  0  0  0  0
 59 58  1  0  0  0  0
M  END
>  <MODEL>
6

>  <REMARK>
 VINA RESULT:      -6.0      2.341      4.149
  Name = 
  22 active torsions:
  status: ('A' for Active; 'I' for Inactive)
    1  A    between atoms: C_1  and  C_34
    2  A    between atoms: C_3  and  C_33
    3  A    between atoms: C_3  and  C_41
    4  A    between atoms: C_3  and  O_54
    5  A    between atoms: C_4  and  C_8
    6  A    between atoms: C_4  and  N_47
    7  A    between atoms: N_9  and  C_16
    8  A    between atoms: C_12  and  C_16
    9  A    between atoms: C_12  and  S_59
   10  A    between atoms: C_14  and  C_33
   11  A    between atoms: C_14  and  C_49
   12  A    between atoms: C_16  and  N_47
   13  A    between atoms: N_19  and  C_35
   14  A    between atoms: N_19  and  C_48
   15  A    between atoms: C_23  and  N_26
   16  A    between atoms: C_27  and  C_29
   17  A    between atoms: C_29  and  C_56
   18  A    between atoms: C_31  and  C_40
   19  A    between atoms: C_31  and  C_41
   20  A    between atoms: C_34  and  C_56
   21  A    between atoms: N_44  and  P_45
   22  A    between atoms: C_49  and  S_59
                            x       y       z     vdW  Elec       q    Type
                         _______ _______ _______ _____ _____    ______ ____

>  <TORSDO>
F 22

$$$$
=
 OpenBabel10222417323D

 59 63  0  0  1  0  0  0  0  0999 V2000
  186.6160  176.9280  143.5830 N   0  0  0  0  0  2  0  0  0  0  0  0
  186.0170  178.9430  144.6920 N   0  0  0  0  0  0  0  0  0  0  0  0
  182.0030  178.4600  143.7680 N   0  0  0  0  0  1  0  0  0  0  0  0
  184.4110  178.0590  143.0900 C   0  0  2  0  0  3  0  0  0  0  0  0
  185.1410  180.0950  144.9050 C   0  0  0  0  0  2  0  0  0  0  0  0
  183.3780  178.7930  143.9060 C   0  0  0  0  0  0  0  0  0  0  0  0
  185.7090  178.0030  143.8450 C   0  0  0  0  0  0  0  0  0  0  0  0
  183.7380  179.7080  144.7550 N   0  0  0  0  0  0  0  0  0  0  0  0
  184.6250  178.7440  141.8220 N   0  0  0  0  0  2  0  0  0  0  0  0
  182.1080  178.4250  138.4260 C   0  0  0  0  0  0  0  0  0  0  0  0
  182.9940  177.4680  140.4770 C   0  0  0  0  0  3  0  0  0  0  0  0
  183.6870  179.6790  139.7820 C   0  0  0  0  0  3  0  0  0  0  0  0
  182.1740  177.3700  139.3480 C   0  0  0  0  0  3  0  0  0  0  0  0
  183.7540  178.6270  140.6970 C   0  0  0  0  0  0  0  0  0  0  0  0
  182.8690  179.5800  138.6540 C   0  0  0  0  0  3  0  0  0  0  0  0
  180.0580  178.6920  137.2650 O   0  0  0  0  0  0  0  0  0  0  0  0
  181.2630  178.3250  137.2210 C   0  0  0  0  0  0  0  0  0  0  0  0
  181.7940  177.7600  135.9390 C   0  0  0  0  0  2  0  0  0  0  0  0
  180.8760  175.5870  136.2230 O   0  0  0  0  0  0  0  0  0  0  0  0
  181.8650  176.2610  135.9640 C   0  0  0  0  0  0  0  0  0  0  0  0
  187.6710  174.4380  136.7340 C   0  0  0  0  0  2  0  0  0  0  0  0
  185.3560  175.1080  136.7480 C   0  0  2  0  0  3  0  0  0  0  0  0
  184.9280  177.1840  135.5900 O   0  0  0  0  0  1  0  0  0  0  0  0
  184.3040  173.2890  135.3710 C   0  0  2  0  0  3  0  0  0  0  0  0
  183.1450  175.5900  135.5770 C   0  0  1  0  0  3  0  0  0  0  0  0
  186.8600  173.4500  135.8960 C   0  0  0  0  0  2  0  0  0  0  0  0
  185.5560  174.1610  135.5980 C   0  0  2  0  0  3  0  0  0  0  0  0
  184.3320  176.1880  136.3650 C   0  0  1  0  0  3  0  0  0  0  0  0
  183.0110  174.0620  135.7230 C   0  0  0  0  0  2  0  0  0  0  0  0
  186.7470  175.6020  137.0810 C   0  0  0  0  0  2  0  0  0  0  0  0
  183.2350  171.1390  135.8360 C   0  0  1  0  0  0  0  0  0  0  0  0
  183.1430  171.9990  136.9980 C   0  0  0  0  0  2  0  0  0  0  0  0
  184.3630  172.0490  136.1530 N   0  0  2  0  0  0  0  0  0  0  0  0
  183.5470  169.6730  136.0590 C   0  0  0  0  0  1  0  0  0  0  0  0
  182.4480  171.5050  134.7390 O   0  0  0  0  0  1  0  0  0  0  0  0
  187.9850  176.8950  144.0800 C   0  0  2  0  0  3  0  0  0  0  0  0
  187.9820  176.8480  145.5370 N   0  0  0  0  0  2  0  0  0  0  0  0
  188.9920  177.7780  146.0180 C   0  0  0  0  0  2  0  0  0  0  0  0
  188.2590  176.6870  147.9800 F   0  0  0  0  0  0  0  0  0  0  0  0
  189.1630  177.6230  147.5120 C   0  0  0  0  0  3  0  0  0  0  0  0
  188.9370  178.8330  148.1390 F   0  0  0  0  0  0  0  0  0  0  0  0
  188.7510  178.1200  143.5830 C   0  0  0  0  0  2  0  0  0  0  0  0
  189.6170  177.7850  142.0150 S   0  0  0  0  0  0  0  0  0  0  0  0
  188.2840  178.5370  141.0430 C   0  0  0  0  0  2  0  0  0  0  0  0
  188.6600  178.5190  139.5760 C   0  0  0  0  0  2  0  0  0  0  0  0
  189.8160  177.5620  139.3440 C   0  0  0  0  0  2  0  0  0  0  0  0
  189.9110  177.1630  137.8670 C   0  0  1  0  0  3  0  0  0  0  0  0
  189.0560  178.0600  135.9200 C   0  0  0  0  0  1  0  0  0  0  0  0
  189.9580  178.2640  136.9780 O   0  0  0  0  0  0  0  0  0  0  0  0
  190.9640  176.0690  137.5940 C   0  0  2  0  0  3  0  0  0  0  0  0
  190.6070  174.8390  138.1510 O   0  0  0  0  0  1  0  0  0  0  0  0
  192.4760  176.8460  139.3100 O   0  0  0  0  0  1  0  0  0  0  0  0
  192.3990  176.4490  137.9720 C   0  0  1  0  0  3  0  0  0  0  0  0
  193.4120  175.3820  137.6660 C   0  0  0  0  0  3  0  0  0  0  0  0
  194.6440  175.5210  137.9970 N   0  0  0  0  0  0  0  0  0  0  0  0
  197.1910  174.8110  137.7070 O   0  0  0  0  0  1  0  0  0  0  0  0
  195.6220  173.0320  138.8100 O   0  0  0  0  0  1  0  0  0  0  0  0
  195.4820  173.6230  136.1180 O   0  0  0  0  0  0  0  0  0  0  0  0
  195.7850  174.2570  137.6570 P   0  0  0  0  0  0  0  0  0  0  0  0
  1  7  1  0  0  0  0
  1 36  1  0  0  0  0
  2  5  1  0  0  0  0
  3  6  1  0  0  0  0
  4  9  1  6  0  0  0
  4  7  1  0  0  0  0
  4  6  1  0  0  0  0
  6  8  2  0  0  0  0
  7  2  2  0  0  0  0
  8  5  1  0  0  0  0
 10 15  2  0  0  0  0
 10 13  1  0  0  0  0
 11 14  1  0  0  0  0
 12 14  2  0  0  0  0
 13 11  2  0  0  0  0
 14  9  1  0  0  0  0
 15 12  1  0  0  0  0
 17 16  2  0  0  0  0
 17 10  1  0  0  0  0
 18 20  1  0  0  0  0
 18 17  1  0  0  0  0
 20 19  2  0  0  0  0
 21 30  1  0  0  0  0
 22 30  1  6  0  0  0
 24 27  1  0  0  0  0
 24 29  1  1  0  0  0
 24 33  1  0  0  0  0
 25 29  1  0  0  0  0
 25 20  1  1  0  0  0
 25 28  1  0  0  0  0
 26 21  1  0  0  0  0
 27 26  1  1  0  0  0
 27 22  1  0  0  0  0
 28 23  1  6  0  0  0
 28 22  1  0  0  0  0
 31 34  1  1  0  0  0
 31 33  1  0  0  0  0
 31 32  1  0  0  0  0
 33 32  1  1  0  0  0
 35 31  1  0  0  0  0
 36 42  1  1  0  0  0
 36 37  1  0  0  0  0
 37 38  1  0  0  0  0
 38 40  1  0  0  0  0
 40 39  1  0  0  0  0
 40 41  1  0  0  0  0
 43 42  1  0  0  0  0
 44 43  1  0  0  0  0
 45 44  1  0  0  0  0
 46 45  1  0  0  0  0
 47 46  1  1  0  0  0
 48 49  1  0  0  0  0
 49 47  1  0  0  0  0
 50 47  1  0  0  0  0
 50 53  1  0  0  0  0
 50 51  1  1  0  0  0
 53 52  1  1  0  0  0
 54 53  1  0  0  0  0
 54 55  2  0  0  0  0
 58 59  2  0  0  0  0
 59 56  1  0  0  0  0
 59 55  1  0  0  0  0
 59 57  1  0  0  0  0
M  END
>  <MODEL>
7

>  <REMARK>
 VINA RESULT:      -5.8      4.022      8.316
  Name = 
  22 active torsions:
  status: ('A' for Active; 'I' for Inactive)
    1  A    between atoms: C_1  and  C_34
    2  A    between atoms: C_3  and  C_33
    3  A    between atoms: C_3  and  C_41
    4  A    between atoms: C_3  and  O_54
    5  A    between atoms: C_4  and  C_8
    6  A    between atoms: C_4  and  N_47
    7  A    between atoms: N_9  and  C_16
    8  A    between atoms: C_12  and  C_16
    9  A    between atoms: C_12  and  S_59
   10  A    between atoms: C_14  and  C_33
   11  A    between atoms: C_14  and  C_49
   12  A    between atoms: C_16  and  N_47
   13  A    between atoms: N_19  and  C_35
   14  A    between atoms: N_19  and  C_48
   15  A    between atoms: C_23  and  N_26
   16  A    between atoms: C_27  and  C_29
   17  A    between atoms: C_29  and  C_56
   18  A    between atoms: C_31  and  C_40
   19  A    between atoms: C_31  and  C_41
   20  A    between atoms: C_34  and  C_56
   21  A    between atoms: N_44  and  P_45
   22  A    between atoms: C_49  and  S_59
                            x       y       z     vdW  Elec       q    Type
                         _______ _______ _______ _____ _____    ______ ____

>  <TORSDO>
F 22

$$$$
=
 OpenBabel10222417323D

 59 63  0  0  1  0  0  0  0  0999 V2000
  182.5900  177.9000  136.9740 N   0  0  0  0  0  2  0  0  0  0  0  0
  180.2180  178.0340  136.9390 N   0  0  0  0  0  0  0  0  0  0  0  0
  180.2030  181.4110  139.3480 N   0  0  0  0  0  1  0  0  0  0  0  0
  181.3550  179.2430  138.7210 C   0  0  2  0  0  3  0  0  0  0  0  0
  178.9330  178.4390  137.5110 C   0  0  0  0  0  2  0  0  0  0  0  0
  180.1400  180.1340  138.7260 C   0  0  0  0  0  0  0  0  0  0  0  0
  181.3450  178.3770  137.4940 C   0  0  0  0  0  0  0  0  0  0  0  0
  179.0440  179.7560  138.1390 N   0  0  0  0  0  0  0  0  0  0  0  0
  181.3550  178.3930  139.9040 N   0  0  0  0  0  2  0  0  0  0  0  0
  183.9330  178.8580  143.2380 C   0  0  0  0  0  0  0  0  0  0  0  0
  183.6280  178.4100  140.8680 C   0  0  0  0  0  3  0  0  0  0  0  0
  181.7060  178.8720  142.2630 C   0  0  0  0  0  3  0  0  0  0  0  0
  184.4690  178.5560  141.9770 C   0  0  0  0  0  3  0  0  0  0  0  0
  182.2410  178.5680  141.0100 C   0  0  0  0  0  0  0  0  0  0  0  0
  182.5470  179.0170  143.3710 C   0  0  0  0  0  3  0  0  0  0  0  0
  185.2470  180.1280  144.7480 O   0  0  0  0  0  0  0  0  0  0  0  0
  184.8070  178.9940  144.4190 C   0  0  0  0  0  0  0  0  0  0  0  0
  185.2180  177.8020  145.2280 C   0  0  0  0  0  2  0  0  0  0  0  0
  186.7310  178.6130  146.8700 O   0  0  0  0  0  0  0  0  0  0  0  0
  186.5780  177.9710  145.8400 C   0  0  0  0  0  0  0  0  0  0  0  0
  191.5810  177.4660  142.3270 C   0  0  0  0  0  2  0  0  0  0  0  0
  189.7130  177.9650  143.7660 C   0  0  2  0  0  3  0  0  0  0  0  0
  187.5690  177.3560  142.8370 O   0  0  0  0  0  1  0  0  0  0  0  0
  190.1340  176.4000  145.6860 C   0  0  2  0  0  3  0  0  0  0  0  0
  187.7420  177.2650  145.2200 C   0  0  1  0  0  3  0  0  0  0  0  0
  191.6460  176.5640  143.5600 C   0  0  0  0  0  2  0  0  0  0  0  0
  190.2580  176.6220  144.1650 C   0  0  2  0  0  3  0  0  0  0  0  0
  188.1850  177.9780  143.9240 C   0  0  1  0  0  3  0  0  0  0  0  0
  188.8740  177.0970  146.2530 C   0  0  0  0  0  2  0  0  0  0  0  0
  190.2380  178.1870  142.3630 C   0  0  0  0  0  2  0  0  0  0  0  0
  191.6580  176.0210  147.5610 C   0  0  1  0  0  0  0  0  0  0  0  0
  190.9000  177.2370  147.7770 C   0  0  0  0  0  2  0  0  0  0  0  0
  191.3230  176.8800  146.3990 N   0  0  2  0  0  0  0  0  0  0  0  0
  193.1290  176.0270  147.9240 C   0  0  0  0  0  1  0  0  0  0  0  0
  190.9400  174.8250  147.6600 O   0  0  0  0  0  1  0  0  0  0  0  0
  182.6890  176.8810  135.9370 C   0  0  2  0  0  3  0  0  0  0  0  0
  181.4280  176.1580  135.8310 N   0  0  0  0  0  2  0  0  0  0  0  0
  181.6570  174.7890  136.2640 C   0  0  0  0  0  2  0  0  0  0  0  0
  180.9430  173.1690  137.8280 F   0  0  0  0  0  0  0  0  0  0  0  0
  180.9060  174.5230  137.5490 C   0  0  0  0  0  3  0  0  0  0  0  0
  179.5920  174.9290  137.4180 F   0  0  0  0  0  0  0  0  0  0  0  0
  183.8340  175.9200  136.2570 C   0  0  0  0  0  2  0  0  0  0  0  0
  185.1580  176.7390  137.2050 S   0  0  0  0  0  0  0  0  0  0  0  0
  186.2390  176.8160  135.7520 C   0  0  0  0  0  2  0  0  0  0  0  0
  185.9120  175.6660  134.8210 C   0  0  0  0  0  2  0  0  0  0  0  0
  186.9390  174.5570  134.9800 C   0  0  0  0  0  2  0  0  0  0  0  0
  187.6660  174.6700  136.3250 C   0  0  1  0  0  3  0  0  0  0  0  0
  186.1400  173.1080  137.0710 C   0  0  0  0  0  1  0  0  0  0  0  0
  187.4660  173.5590  137.1790 O   0  0  0  0  0  0  0  0  0  0  0  0
  189.1340  175.1240  136.1920 C   0  0  2  0  0  3  0  0  0  0  0  0
  189.4800  175.4190  134.8710 O   0  0  0  0  0  1  0  0  0  0  0  0
  190.1280  172.9230  136.2290 O   0  0  0  0  0  1  0  0  0  0  0  0
  190.1590  174.1830  136.8320 C   0  0  1  0  0  3  0  0  0  0  0  0
  191.5570  174.7350  136.8590 C   0  0  0  0  0  3  0  0  0  0  0  0
  192.0980  175.1190  137.9580 N   0  0  0  0  0  0  0  0  0  0  0  0
  193.9330  176.6430  136.7810 O   0  0  0  0  0  0  0  0  0  0  0  0
  194.0010  176.5770  139.3950 O   0  0  0  0  0  1  0  0  0  0  0  0
  194.8080  174.4260  137.8660 O   0  0  0  0  0  1  0  0  0  0  0  0
  193.7260  175.7240  137.9630 P   0  0  0  0  0  0  0  0  0  0  0  0
  1  7  1  0  0  0  0
  2  7  2  0  0  0  0
  2  5  1  0  0  0  0
  4  6  1  0  0  0  0
  4  9  1  1  0  0  0
  5  8  1  0  0  0  0
  6  3  1  0  0  0  0
  7  4  1  0  0  0  0
  8  6  2  0  0  0  0
  9 14  1  0  0  0  0
 10 15  1  0  0  0  0
 10 17  1  0  0  0  0
 11 14  2  0  0  0  0
 11 13  1  0  0  0  0
 12 15  2  0  0  0  0
 13 10  2  0  0  0  0
 14 12  1  0  0  0  0
 17 16  2  0  0  0  0
 17 18  1  0  0  0  0
 18 20  1  0  0  0  0
 20 19  2  0  0  0  0
 21 30  1  0  0  0  0
 21 26  1  0  0  0  0
 22 30  1  6  0  0  0
 22 28  1  0  0  0  0
 22 27  1  0  0  0  0
 24 29  1  1  0  0  0
 24 33  1  0  0  0  0
 25 20  1  1  0  0  0
 25 29  1  0  0  0  0
 27 26  1  1  0  0  0
 27 24  1  0  0  0  0
 28 23  1  6  0  0  0
 28 25  1  0  0  0  0
 31 35  1  0  0  0  0
 31 32  1  0  0  0  0
 31 34  1  1  0  0  0
 33 31  1  0  0  0  0
 33 32  1  1  0  0  0
 36 42  1  1  0  0  0
 36  1  1  0  0  0  0
 37 36  1  0  0  0  0
 37 38  1  0  0  0  0
 38 40  1  0  0  0  0
 40 39  1  0  0  0  0
 41 40  1  0  0  0  0
 42 43  1  0  0  0  0
 44 43  1  0  0  0  0
 45 46  1  0  0  0  0
 45 44  1  0  0  0  0
 47 46  1  6  0  0  0
 47 49  1  0  0  0  0
 48 49  1  0  0  0  0
 50 51  1  6  0  0  0
 50 47  1  0  0  0  0
 50 53  1  0  0  0  0
 53 52  1  6  0  0  0
 53 54  1  0  0  0  0
 54 55  2  0  0  0  0
 55 59  1  0  0  0  0
 56 59  2  0  0  0  0
 58 59  1  0  0  0  0
 59 57  1  0  0  0  0
M  END
>  <MODEL>
8

>  <REMARK>
 VINA RESULT:      -5.7      2.135      3.665
  Name = 
  22 active torsions:
  status: ('A' for Active; 'I' for Inactive)
    1  A    between atoms: C_1  and  C_34
    2  A    between atoms: C_3  and  C_33
    3  A    between atoms: C_3  and  C_41
    4  A    between atoms: C_3  and  O_54
    5  A    between atoms: C_4  and  C_8
    6  A    between atoms: C_4  and  N_47
    7  A    between atoms: N_9  and  C_16
    8  A    between atoms: C_12  and  C_16
    9  A    between atoms: C_12  and  S_59
   10  A    between atoms: C_14  and  C_33
   11  A    between atoms: C_14  and  C_49
   12  A    between atoms: C_16  and  N_47
   13  A    between atoms: N_19  and  C_35
   14  A    between atoms: N_19  and  C_48
   15  A    between atoms: C_23  and  N_26
   16  A    between atoms: C_27  and  C_29
   17  A    between atoms: C_29  and  C_56
   18  A    between atoms: C_31  and  C_40
   19  A    between atoms: C_31  and  C_41
   20  A    between atoms: C_34  and  C_56
   21  A    between atoms: N_44  and  P_45
   22  A    between atoms: C_49  and  S_59
                            x       y       z     vdW  Elec       q    Type
                         _______ _______ _______ _____ _____    ______ ____

>  <TORSDO>
F 22

$$$$
=
 OpenBabel10222417323D

 59 63  0  0  1  0  0  0  0  0999 V2000
  188.3870  178.4230  144.8270 N   0  0  0  0  0  2  0  0  0  0  0  0
  188.2990  176.7490  146.5110 N   0  0  0  0  0  0  0  0  0  0  0  0
  192.3460  177.1270  147.3380 N   0  0  0  0  0  1  0  0  0  0  0  0
  190.4990  177.2790  145.6110 C   0  0  2  0  0  3  0  0  0  0  0  0
  188.9100  175.7080  147.3380 C   0  0  0  0  0  2  0  0  0  0  0  0
  191.0240  176.7920  146.9370 C   0  0  0  0  0  0  0  0  0  0  0  0
  189.0100  177.4700  145.6920 C   0  0  0  0  0  0  0  0  0  0  0  0
  190.2670  176.0940  147.7290 N   0  0  0  0  0  0  0  0  0  0  0  0
  190.7980  176.3070  144.5680 N   0  0  0  0  0  2  0  0  0  0  0  0
  190.1940  177.0770  140.4430 C   0  0  0  0  0  0  0  0  0  0  0  0
  191.5900  177.2460  142.4260 C   0  0  0  0  0  3  0  0  0  0  0  0
  189.4480  176.1280  142.5520 C   0  0  0  0  0  3  0  0  0  0  0  0
  191.3760  177.5030  141.0680 C   0  0  0  0  0  3  0  0  0  0  0  0
  190.6230  176.5560  143.1730 C   0  0  0  0  0  0  0  0  0  0  0  0
  189.2350  176.3860  141.1960 C   0  0  0  0  0  3  0  0  0  0  0  0
  189.5800  178.5110  138.6580 O   0  0  0  0  0  0  0  0  0  0  0  0
  189.9480  177.3600  139.0160 C   0  0  0  0  0  0  0  0  0  0  0  0
  190.0940  176.2950  137.9720 C   0  0  0  0  0  2  0  0  0  0  0  0
  190.0250  177.3970  135.8680 O   0  0  0  0  0  0  0  0  0  0  0  0
  189.4460  176.6790  136.6730 C   0  0  0  0  0  0  0  0  0  0  0  0
  184.8490  172.6370  137.0540 C   0  0  0  0  0  2  0  0  0  0  0  0
  186.6980  174.1730  137.2200 C   0  0  2  0  0  3  0  0  0  0  0  0
  188.3850  173.8660  135.5180 O   0  0  0  0  0  1  0  0  0  0  0  0
  185.5690  176.3630  136.7230 C   0  0  2  0  0  3  0  0  0  0  0  0
  188.1110  176.0980  136.3310 C   0  0  1  0  0  3  0  0  0  0  0  0
  184.3540  174.0480  136.7400 C   0  0  0  0  0  2  0  0  0  0  0  0
  185.6050  174.8470  136.4380 C   0  0  2  0  0  3  0  0  0  0  0  0
  188.0700  174.5920  136.6680 C   0  0  1  0  0  3  0  0  0  0  0  0
  186.9880  176.9140  137.0010 C   0  0  0  0  0  2  0  0  0  0  0  0
  186.3710  172.6980  137.1360 C   0  0  0  0  0  2  0  0  0  0  0  0
  183.4780  177.4160  137.4270 C   0  0  1  0  0  0  0  0  0  0  0  0
  184.6070  178.1560  137.9540 C   0  0  0  0  0  2  0  0  0  0  0  0
  184.6910  176.6770  137.8550 N   0  0  2  0  0  0  0  0  0  0  0  0
  182.2810  177.2060  138.3320 C   0  0  0  0  0  1  0  0  0  0  0  0
  183.2760  177.5070  136.0460 O   0  0  0  0  0  1  0  0  0  0  0  0
  186.9430  178.5290  144.6580 C   0  0  2  0  0  3  0  0  0  0  0  0
  186.2710  178.1490  145.8930 N   0  0  0  0  0  2  0  0  0  0  0  0
  185.6800  179.3460  146.4700 C   0  0  0  0  0  2  0  0  0  0  0  0
  186.0540  180.8490  148.2530 F   0  0  0  0  0  0  0  0  0  0  0  0
  186.1540  179.5170  147.8960 C   0  0  0  0  0  3  0  0  0  0  0  0
  187.4690  179.1100  148.0060 F   0  0  0  0  0  0  0  0  0  0  0  0
  186.4860  177.6410  143.5010 C   0  0  0  0  0  2  0  0  0  0  0  0
  185.9010  178.6250  142.0840 S   0  0  0  0  0  0  0  0  0  0  0  0
  184.2460  178.7970  142.8030 C   0  0  0  0  0  2  0  0  0  0  0  0
  183.2060  178.6380  141.7130 C   0  0  0  0  0  2  0  0  0  0  0  0
  181.8110  178.6640  142.3140 C   0  0  0  0  0  2  0  0  0  0  0  0
  180.7450  178.8220  141.2240 C   0  0  1  0  0  3  0  0  0  0  0  0
  179.4890  176.9270  140.8260 C   0  0  0  0  0  1  0  0  0  0  0  0
  179.5300  178.1540  141.5090 O   0  0  0  0  0  0  0  0  0  0  0  0
  180.5820  180.2750  140.7320 C   0  0  2  0  0  3  0  0  0  0  0  0
  179.5620  180.9510  141.4050 O   0  0  0  0  0  1  0  0  0  0  0  0
  179.3010  179.7580  138.7510 O   0  0  0  0  0  1  0  0  0  0  0  0
  180.4360  180.4280  139.2140 C   0  0  1  0  0  3  0  0  0  0  0  0
  180.4510  181.8550  138.7440 C   0  0  0  0  0  3  0  0  0  0  0  0
  180.9180  182.1690  137.5900 N   0  0  0  0  0  0  0  0  0  0  0  0
  180.8190  183.8750  135.5520 O   0  0  0  0  0  0  0  0  0  0  0  0
  179.5460  184.6000  137.7190 O   0  0  0  0  0  1  0  0  0  0  0  0
  182.3020  184.6010  137.5830 O   0  0  0  0  0  1  0  0  0  0  0  0
  180.8940  183.8230  137.0600 P   0  0  0  0  0  0  0  0  0  0  0  0
  1  7  1  0  0  0  0
  2  5  1  0  0  0  0
  4  9  1  6  0  0  0
  4  7  1  0  0  0  0
  4  6  1  0  0  0  0
  5  8  1  0  0  0  0
  6  3  1  0  0  0  0
  6  8  2  0  0  0  0
  7  2  2  0  0  0  0
 10 13  2  0  0  0  0
 10 15  1  0  0  0  0
 11 14  2  0  0  0  0
 12 14  1  0  0  0  0
 13 11  1  0  0  0  0
 14  9  1  0  0  0  0
 15 12  2  0  0  0  0
 16 17  2  0  0  0  0
 17 10  1  0  0  0  0
 18 17  1  0  0  0  0
 19 20  2  0  0  0  0
 20 18  1  0  0  0  0
 21 30  1  0  0  0  0
 22 30  1  6  0  0  0
 24 29  1  1  0  0  0
 24 33  1  0  0  0  0
 25 28  1  0  0  0  0
 25 20  1  1  0  0  0
 25 29  1  0  0  0  0
 26 21  1  0  0  0  0
 27 24  1  0  0  0  0
 27 26  1  1  0  0  0
 27 22  1  0  0  0  0
 28 23  1  6  0  0  0
 28 22  1  0  0  0  0
 31 33  1  0  0  0  0
 31 32  1  0  0  0  0
 31 34  1  1  0  0  0
 33 32  1  1  0  0  0
 35 31  1  0  0  0  0
 36 42  1  6  0  0  0
 36  1  1  0  0  0  0
 36 37  1  0  0  0  0
 37 38  1  0  0  0  0
 38 40  1  0  0  0  0
 40 41  1  0  0  0  0
 40 39  1  0  0  0  0
 43 44  1  0  0  0  0
 43 42  1  0  0  0  0
 45 46  1  0  0  0  0
 45 44  1  0  0  0  0
 47 49  1  0  0  0  0
 47 46  1  1  0  0  0
 48 49  1  0  0  0  0
 50 47  1  0  0  0  0
 50 51  1  1  0  0  0
 53 52  1  1  0  0  0
 53 50  1  0  0  0  0
 54 53  1  0  0  0  0
 55 54  2  0  0  0  0
 56 59  2  0  0  0  0
 59 58  1  0  0  0  0
 59 55  1  0  0  0  0
 59 57  1  0  0  0  0
M  END
>  <MODEL>
9

>  <REMARK>
 VINA RESULT:      -5.6      5.151     11.847
  Name = 
  22 active torsions:
  status: ('A' for Active; 'I' for Inactive)
    1  A    between atoms: C_1  and  C_34
    2  A    between atoms: C_3  and  C_33
    3  A    between atoms: C_3  and  C_41
    4  A    between atoms: C_3  and  O_54
    5  A    between atoms: C_4  and  C_8
    6  A    between atoms: C_4  and  N_47
    7  A    between atoms: N_9  and  C_16
    8  A    between atoms: C_12  and  C_16
    9  A    between atoms: C_12  and  S_59
   10  A    between atoms: C_14  and  C_33
   11  A    between atoms: C_14  and  C_49
   12  A    between atoms: C_16  and  N_47
   13  A    between atoms: N_19  and  C_35
   14  A    between atoms: N_19  and  C_48
   15  A    between atoms: C_23  and  N_26
   16  A    between atoms: C_27  and  C_29
   17  A    between atoms: C_29  and  C_56
   18  A    between atoms: C_31  and  C_40
   19  A    between atoms: C_31  and  C_41
   20  A    between atoms: C_34  and  C_56
   21  A    between atoms: N_44  and  P_45
   22  A    between atoms: C_49  and  S_59
                            x       y       z     vdW  Elec       q    Type
                         _______ _______ _______ _____ _____    ______ ____

>  <TORSDO>
F 22

$$$$
