=
 OpenBabel10222416003D

 25 28  0  0  1  0  0  0  0  0999 V2000
  190.0850  177.1020  146.6300 N   0  0  0  0  0  2  0  0  0  0  0  0
  185.5380  177.8660  143.0070 C   0  0  2  0  0  3  0  0  0  0  0  0
  187.3590  177.5560  144.4390 C   0  0  0  0  0  0  0  0  0  0  0  0
  185.4390  178.9940  142.0640 N   0  0  0  0  0  0  0  0  0  0  0  0
  187.6030  178.1280  142.0370 C   0  0  0  0  0  0  0  0  0  0  0  0
  191.7470  176.2710  145.2840 O   0  0  0  0  0  0  0  0  0  0  0  0
  185.2180  178.2980  144.4130 C   0  0  0  0  0  0  0  0  0  0  0  0
  186.9410  177.4560  143.0780 N   0  0  0  0  0  0  0  0  0  0  0  0
  189.6960  176.7720  144.3900 N   0  0  0  0  0  2  0  0  0  0  0  0
  190.5700  176.6940  145.4260 C   0  0  0  0  0  0  0  0  0  0  0  0
  184.1170  178.7660  144.8020 O   0  0  0  0  0  0  0  0  0  0  0  0
  188.6020  177.2630  144.9890 C   0  0  0  0  0  0  0  0  0  0  0  0
  187.8340  177.9650  147.1830 C   0  0  0  0  0  0  0  0  0  0  0  0
  186.7010  179.0330  141.3120 C   0  0  0  0  0  2  0  0  0  0  0  0
  186.5700  178.2750  146.6310 C   0  0  0  0  0  3  0  0  0  0  0  0
  188.8290  177.9920  141.7860 O   0  0  0  0  0  0  0  0  0  0  0  0
  186.3700  178.0550  145.2550 C   0  0  0  0  0  0  0  0  0  0  0  0
  188.8280  177.4590  146.3240 C   0  0  0  0  0  0  0  0  0  0  0  0
  188.0940  178.1770  148.6330 C   0  0  0  0  0  1  0  0  0  0  0  0
  184.3880  178.6630  141.1120 C   0  0  0  0  0  2  0  0  0  0  0  0
  184.8320  178.9500  139.6780 C   0  0  2  0  0  3  0  0  0  0  0  0
  184.3840  180.2160  139.2890 O   0  0  0  0  0  1  0  0  0  0  0  0
  182.9410  178.2180  138.2110 C   0  0  0  0  0  1  0  0  0  0  0  0
  185.2300  177.7900  137.5630 N   0  0  0  0  0  1  0  0  0  0  0  0
  184.3350  177.8800  138.7060 C   0  0  1  0  0  3  0  0  0  0  0  0
  2  8  1  0  0  0  0
  2  7  1  1  0  0  0
  3 12  2  0  0  0  0
  3 17  1  0  0  0  0
  4  2  1  0  0  0  0
  5  8  1  0  0  0  0
  6 10  2  0  0  0  0
  7 11  2  0  0  0  0
  7 17  1  0  0  0  0
  8  3  1  0  0  0  0
  9 12  1  0  0  0  0
  9 10  1  0  0  0  0
 10  1  1  0  0  0  0
 12 18  1  0  0  0  0
 13 19  1  0  0  0  0
 14  5  1  0  0  0  0
 14  4  1  0  0  0  0
 15 13  1  0  0  0  0
 16  5  2  0  0  0  0
 17 15  2  0  0  0  0
 18  1  1  0  0  0  0
 18 13  2  0  0  0  0
 20  4  1  0  0  0  0
 21 22  1  6  0  0  0
 21 20  1  0  0  0  0
 24 25  1  0  0  0  0
 25 23  1  6  0  0  0
 25 21  1  0  0  0  0
M  END
>  <MODEL>
1

>  <REMARK>
 VINA RESULT:      -9.0      0.000      0.000
  Name = 
  3 active torsions:
  status: ('A' for Active; 'I' for Inactive)
    1  A    between atoms: N_4  and  C_24
    2  A    between atoms: C_10  and  C_11
    3  A    between atoms: C_11  and  C_24
                            x       y       z     vdW  Elec       q    Type
                         _______ _______ _______ _____ _____    ______ ____

>  <TORSDO>
F 3

$$$$
=
 OpenBabel10222416003D

 25 28  0  0  1  0  0  0  0  0999 V2000
  190.6480  176.9270  147.7010 N   0  0  0  0  0  2  0  0  0  0  0  0
  188.7050  176.8930  142.1680 C   0  0  2  0  0  3  0  0  0  0  0  0
  189.4930  176.9000  144.3690 C   0  0  0  0  0  0  0  0  0  0  0  0
  189.1280  177.8800  141.1600 N   0  0  0  0  0  0  0  0  0  0  0  0
  190.9740  177.1730  142.3960 C   0  0  0  0  0  0  0  0  0  0  0  0
  192.7630  176.0490  147.5630 O   0  0  0  0  0  0  0  0  0  0  0  0
  187.6950  177.4780  143.1170 C   0  0  0  0  0  0  0  0  0  0  0  0
  189.8560  176.5960  143.0230 N   0  0  0  0  0  0  0  0  0  0  0  0
  191.4970  176.2840  145.6660 N   0  0  0  0  0  2  0  0  0  0  0  0
  191.6910  176.4020  147.0040 C   0  0  0  0  0  0  0  0  0  0  0  0
  186.5580  177.9140  142.8000 O   0  0  0  0  0  0  0  0  0  0  0  0
  190.2560  176.7690  145.5240 C   0  0  0  0  0  0  0  0  0  0  0  0
  188.4510  177.6920  146.8610 C   0  0  0  0  0  0  0  0  0  0  0  0
  190.5970  177.9110  141.1830 C   0  0  0  0  0  2  0  0  0  0  0  0
  187.6710  177.8380  145.6900 C   0  0  0  0  0  3  0  0  0  0  0  0
  192.1460  177.0930  142.8470 O   0  0  0  0  0  0  0  0  0  0  0  0
  188.2270  177.4280  144.4630 C   0  0  0  0  0  0  0  0  0  0  0  0
  189.7450  177.1510  146.7340 C   0  0  0  0  0  0  0  0  0  0  0  0
  187.9080  178.1060  148.1830 C   0  0  0  0  0  1  0  0  0  0  0  0
  188.7350  177.3550  139.8590 C   0  0  0  0  0  2  0  0  0  0  0  0
  189.4840  178.0620  138.7300 C   0  0  2  0  0  3  0  0  0  0  0  0
  188.7340  179.1500  138.2740 O   0  0  0  0  0  1  0  0  0  0  0  0
  191.1960  176.5260  137.7420 C   0  0  0  0  0  1  0  0  0  0  0  0
  188.8410  176.0210  137.5490 N   0  0  0  0  0  1  0  0  0  0  0  0
  189.8050  177.1090  137.5780 C   0  0  1  0  0  3  0  0  0  0  0  0
  2  8  1  0  0  0  0
  2  7  1  1  0  0  0
  3 17  2  0  0  0  0
  3 12  1  0  0  0  0
  4 14  1  0  0  0  0
  4  2  1  0  0  0  0
  5 16  2  0  0  0  0
  5  8  1  0  0  0  0
  7 17  1  0  0  0  0
  8  3  1  0  0  0  0
  9 10  1  0  0  0  0
 10  6  2  0  0  0  0
 10  1  1  0  0  0  0
 11  7  2  0  0  0  0
 12  9  1  0  0  0  0
 12 18  2  0  0  0  0
 13 19  1  0  0  0  0
 14  5  1  0  0  0  0
 15 13  2  0  0  0  0
 17 15  1  0  0  0  0
 18 13  1  0  0  0  0
 18  1  1  0  0  0  0
 20  4  1  0  0  0  0
 21 22  1  6  0  0  0
 21 20  1  0  0  0  0
 24 25  1  0  0  0  0
 25 23  1  1  0  0  0
 25 21  1  0  0  0  0
M  END
>  <MODEL>
2

>  <REMARK>
 VINA RESULT:      -9.0      2.885      3.561
  Name = 
  3 active torsions:
  status: ('A' for Active; 'I' for Inactive)
    1  A    between atoms: N_4  and  C_24
    2  A    between atoms: C_10  and  C_11
    3  A    between atoms: C_11  and  C_24
                            x       y       z     vdW  Elec       q    Type
                         _______ _______ _______ _____ _____    ______ ____

>  <TORSDO>
F 3

$$$$
=
 OpenBabel10222416003D

 25 28  0  0  1  0  0  0  0  0999 V2000
  186.6790  178.1830  147.4100 N   0  0  0  0  0  2  0  0  0  0  0  0
  189.3400  176.7750  142.3770 C   0  0  2  0  0  3  0  0  0  0  0  0
  188.2930  177.3310  144.3910 C   0  0  0  0  0  0  0  0  0  0  0  0
  190.3910  177.6040  141.7620 N   0  0  0  0  0  0  0  0  0  0  0  0
  190.7490  177.4530  144.0610 C   0  0  0  0  0  0  0  0  0  0  0  0
  188.2120  177.6450  149.0290 O   0  0  0  0  0  0  0  0  0  0  0  0
  187.9740  177.3620  142.1480 C   0  0  0  0  0  0  0  0  0  0  0  0
  189.5070  176.8350  143.8300 N   0  0  0  0  0  0  0  0  0  0  0  0
  188.7180  177.3050  146.8190 N   0  0  0  0  0  2  0  0  0  0  0  0
  187.8870  177.7080  147.8150 C   0  0  0  0  0  0  0  0  0  0  0  0
  187.4330  177.5410  141.0260 O   0  0  0  0  0  0  0  0  0  0  0  0
  187.9790  177.5490  145.7280 C   0  0  0  0  0  0  0  0  0  0  0  0
  185.7940  178.4100  145.1110 C   0  0  0  0  0  0  0  0  0  0  0  0
  191.3890  177.8740  142.8070 C   0  0  0  0  0  2  0  0  0  0  0  0
  186.1080  178.2010  143.7470 C   0  0  0  0  0  3  0  0  0  0  0  0
  191.2290  177.6500  145.2070 O   0  0  0  0  0  0  0  0  0  0  0  0
  187.3670  177.6580  143.4280 C   0  0  0  0  0  0  0  0  0  0  0  0
  186.7620  178.0690  146.0750 C   0  0  0  0  0  0  0  0  0  0  0  0
  184.4750  178.9790  145.5010 C   0  0  0  0  0  1  0  0  0  0  0  0
  191.0460  176.7830  140.7520 C   0  0  0  0  0  2  0  0  0  0  0  0
  191.1010  177.5030  139.4060 C   0  0  2  0  0  3  0  0  0  0  0  0
  189.8680  178.1070  139.1430 O   0  0  0  0  0  1  0  0  0  0  0  0
  192.9960  176.3970  138.2000 C   0  0  0  0  0  1  0  0  0  0  0  0
  190.8900  175.2470  138.4890 N   0  0  0  0  0  1  0  0  0  0  0  0
  191.4880  176.5540  138.2710 C   0  0  1  0  0  3  0  0  0  0  0  0
  1 10  1  0  0  0  0
  2  7  1  1  0  0  0
  2  8  1  0  0  0  0
  3 12  1  0  0  0  0
  4  2  1  0  0  0  0
  4 14  1  0  0  0  0
  5 16  2  0  0  0  0
  7 17  1  0  0  0  0
  8  5  1  0  0  0  0
  8  3  1  0  0  0  0
  9 10  1  0  0  0  0
 10  6  2  0  0  0  0
 11  7  2  0  0  0  0
 12 18  2  0  0  0  0
 12  9  1  0  0  0  0
 13 19  1  0  0  0  0
 13 18  1  0  0  0  0
 14  5  1  0  0  0  0
 15 13  2  0  0  0  0
 17 15  1  0  0  0  0
 17  3  2  0  0  0  0
 18  1  1  0  0  0  0
 20  4  1  0  0  0  0
 21 22  1  6  0  0  0
 21 20  1  0  0  0  0
 25 23  1  1  0  0  0
 25 24  1  0  0  0  0
 25 21  1  0  0  0  0
M  END
>  <MODEL>
3

>  <REMARK>
 VINA RESULT:      -8.5      3.107      4.832
  Name = 
  3 active torsions:
  status: ('A' for Active; 'I' for Inactive)
    1  A    between atoms: N_4  and  C_24
    2  A    between atoms: C_10  and  C_11
    3  A    between atoms: C_11  and  C_24
                            x       y       z     vdW  Elec       q    Type
                         _______ _______ _______ _____ _____    ______ ____

>  <TORSDO>
F 3

$$$$
=
 OpenBabel10222416003D

 25 28  0  0  1  0  0  0  0  0999 V2000
  183.8630  178.9790  140.8910 N   0  0  0  0  0  2  0  0  0  0  0  0
  188.2810  178.0840  144.6420 C   0  0  2  0  0  3  0  0  0  0  0  0
  186.5310  178.4420  143.1350 C   0  0  0  0  0  0  0  0  0  0  0  0
  188.9740  176.7900  144.7770 N   0  0  0  0  0  0  0  0  0  0  0  0
  188.6310  177.2710  142.5220 C   0  0  0  0  0  0  0  0  0  0  0  0
  184.8880  179.1850  138.8490 O   0  0  0  0  0  0  0  0  0  0  0  0
  186.9440  178.0630  145.3310 C   0  0  0  0  0  0  0  0  0  0  0  0
  187.9450  178.2720  143.2300 N   0  0  0  0  0  0  0  0  0  0  0  0
  186.1490  178.8110  140.7280 N   0  0  0  0  0  2  0  0  0  0  0  0
  184.9640  179.0010  140.0920 C   0  0  0  0  0  0  0  0  0  0  0  0
  186.7570  177.8840  146.5620 O   0  0  0  0  0  0  0  0  0  0  0  0
  185.7570  178.6600  142.0010 C   0  0  0  0  0  0  0  0  0  0  0  0
  183.7310  178.6440  143.3380 C   0  0  0  0  0  0  0  0  0  0  0  0
  189.3630  176.3710  143.4240 C   0  0  0  0  0  2  0  0  0  0  0  0
  184.5090  178.4120  144.4970 C   0  0  0  0  0  3  0  0  0  0  0  0
  188.5890  177.1470  141.2710 O   0  0  0  0  0  0  0  0  0  0  0  0
  185.9060  178.3190  144.3540 C   0  0  0  0  0  0  0  0  0  0  0  0
  184.3970  178.7620  142.1030 C   0  0  0  0  0  0  0  0  0  0  0  0
  182.2500  178.7540  143.4370 C   0  0  0  0  0  1  0  0  0  0  0  0
  190.2060  177.0410  145.5140 C   0  0  0  0  0  2  0  0  0  0  0  0
  190.1060  176.5240  146.9480 C   0  0  2  0  0  3  0  0  0  0  0  0
  189.8040  177.5800  147.8120 O   0  0  0  0  0  1  0  0  0  0  0  0
  192.1390  175.2790  146.1830 C   0  0  0  0  0  1  0  0  0  0  0  0
  192.2530  176.7530  148.0950 N   0  0  0  0  0  1  0  0  0  0  0  0
  191.3900  175.8200  147.3870 C   0  0  1  0  0  3  0  0  0  0  0  0
  1 18  1  0  0  0  0
  2  4  1  0  0  0  0
  2  7  1  1  0  0  0
  3  8  1  0  0  0  0
  3 17  1  0  0  0  0
  4 20  1  0  0  0  0
  5  8  1  0  0  0  0
  5 14  1  0  0  0  0
  6 10  2  0  0  0  0
  7 11  2  0  0  0  0
  8  2  1  0  0  0  0
  9 12  1  0  0  0  0
 10  9  1  0  0  0  0
 10  1  1  0  0  0  0
 12 18  1  0  0  0  0
 12  3  2  0  0  0  0
 13 19  1  0  0  0  0
 13 15  1  0  0  0  0
 14  4  1  0  0  0  0
 16  5  2  0  0  0  0
 17 15  2  0  0  0  0
 17  7  1  0  0  0  0
 18 13  2  0  0  0  0
 20 21  1  0  0  0  0
 21 25  1  0  0  0  0
 21 22  1  1  0  0  0
 25 23  1  6  0  0  0
 25 24  1  0  0  0  0
M  END
>  <MODEL>
4

>  <REMARK>
 VINA RESULT:      -8.4      1.856      6.940
  Name = 
  3 active torsions:
  status: ('A' for Active; 'I' for Inactive)
    1  A    between atoms: N_4  and  C_24
    2  A    between atoms: C_10  and  C_11
    3  A    between atoms: C_11  and  C_24
                            x       y       z     vdW  Elec       q    Type
                         _______ _______ _______ _____ _____    ______ ____

>  <TORSDO>
F 3

$$$$
=
 OpenBabel10222416003D

 25 28  0  0  1  0  0  0  0  0999 V2000
  189.6590  176.9450  148.0860 N   0  0  0  0  0  2  0  0  0  0  0  0
  189.5190  178.2500  142.3700 C   0  0  2  0  0  3  0  0  0  0  0  0
  189.5600  177.7370  144.6500 C   0  0  0  0  0  0  0  0  0  0  0  0
  188.7140  177.4980  141.3920 N   0  0  0  0  0  0  0  0  0  0  0  0
  187.4660  177.8630  143.3260 C   0  0  0  0  0  0  0  0  0  0  0  0
  187.6820  177.7720  148.9030 O   0  0  0  0  0  0  0  0  0  0  0  0
  190.7660  177.4980  142.7470 C   0  0  0  0  0  0  0  0  0  0  0  0
  188.7620  178.3200  143.6210 N   0  0  0  0  0  0  0  0  0  0  0  0
  188.1800  177.9960  146.6770 N   0  0  0  0  0  2  0  0  0  0  0  0
  188.4660  177.5810  147.9370 C   0  0  0  0  0  0  0  0  0  0  0  0
  191.6920  177.1750  141.9590 O   0  0  0  0  0  0  0  0  0  0  0  0
  189.2640  177.5890  146.0010 C   0  0  0  0  0  0  0  0  0  0  0  0
  191.3730  176.4450  146.3740 C   0  0  0  0  0  0  0  0  0  0  0  0
  187.3490  177.4220  141.9300 C   0  0  0  0  0  2  0  0  0  0  0  0
  191.6790  176.5820  144.9990 C   0  0  0  0  0  3  0  0  0  0  0  0
  186.5350  177.8100  144.1710 O   0  0  0  0  0  0  0  0  0  0  0  0
  190.7480  177.2360  144.1700 C   0  0  0  0  0  0  0  0  0  0  0  0
  190.1480  176.9650  146.8360 C   0  0  0  0  0  0  0  0  0  0  0  0
  192.3260  175.7650  147.2920 C   0  0  0  0  0  1  0  0  0  0  0  0
  188.6480  178.3070  140.1820 C   0  0  0  0  0  2  0  0  0  0  0  0
  189.0420  177.4920  138.9510 C   0  0  2  0  0  3  0  0  0  0  0  0
  190.4350  177.4390  138.8450 O   0  0  0  0  0  1  0  0  0  0  0  0
  186.9120  178.0700  137.7690 C   0  0  0  0  0  1  0  0  0  0  0  0
  188.8890  179.4250  137.4620 N   0  0  0  0  0  1  0  0  0  0  0  0
  188.4270  178.0620  137.6730 C   0  0  1  0  0  3  0  0  0  0  0  0
  2  7  1  1  0  0  0
  2  8  1  0  0  0  0
  3 12  1  0  0  0  0
  4 14  1  0  0  0  0
  4  2  1  0  0  0  0
  5  8  1  0  0  0  0
  5 16  2  0  0  0  0
  7 17  1  0  0  0  0
  8  3  1  0  0  0  0
  9 10  1  0  0  0  0
 10  1  1  0  0  0  0
 10  6  2  0  0  0  0
 11  7  2  0  0  0  0
 12  9  1  0  0  0  0
 12 18  2  0  0  0  0
 13 18  1  0  0  0  0
 13 19  1  0  0  0  0
 14  5  1  0  0  0  0
 15 13  2  0  0  0  0
 17  3  2  0  0  0  0
 17 15  1  0  0  0  0
 18  1  1  0  0  0  0
 20  4  1  0  0  0  0
 21 22  1  6  0  0  0
 21 20  1  0  0  0  0
 24 25  1  0  0  0  0
 25 23  1  1  0  0  0
 25 21  1  0  0  0  0
M  END
>  <MODEL>
5

>  <REMARK>
 VINA RESULT:      -8.2      2.660      4.212
  Name = 
  3 active torsions:
  status: ('A' for Active; 'I' for Inactive)
    1  A    between atoms: N_4  and  C_24
    2  A    between atoms: C_10  and  C_11
    3  A    between atoms: C_11  and  C_24
                            x       y       z     vdW  Elec       q    Type
                         _______ _______ _______ _____ _____    ______ ____

>  <TORSDO>
F 3

$$$$
=
 OpenBabel10222416003D

 25 28  0  0  1  0  0  0  0  0999 V2000
  190.4400  177.3350  145.9730 N   0  0  0  0  0  2  0  0  0  0  0  0
  184.9940  177.8720  143.8630 C   0  0  2  0  0  3  0  0  0  0  0  0
  187.1700  177.6530  144.6900 C   0  0  0  0  0  0  0  0  0  0  0  0
  184.5600  179.0100  143.0340 N   0  0  0  0  0  0  0  0  0  0  0  0
  186.6670  178.2880  142.3440 C   0  0  0  0  0  0  0  0  0  0  0  0
  191.6780  176.6420  144.1710 O   0  0  0  0  0  0  0  0  0  0  0  0
  185.0770  178.2530  145.3160 C   0  0  0  0  0  0  0  0  0  0  0  0
  186.3780  177.5530  143.5070 N   0  0  0  0  0  0  0  0  0  0  0  0
  189.4310  177.0250  143.9320 N   0  0  0  0  0  2  0  0  0  0  0  0
  190.5730  176.9840  144.6660 C   0  0  0  0  0  0  0  0  0  0  0  0
  184.1130  178.6400  146.0270 O   0  0  0  0  0  0  0  0  0  0  0  0
  188.5340  177.4310  144.8420 C   0  0  0  0  0  0  0  0  0  0  0  0
  188.4040  178.0370  147.1900 C   0  0  0  0  0  0  0  0  0  0  0  0
  185.5420  179.1460  141.9490 C   0  0  0  0  0  2  0  0  0  0  0  0
  187.0180  178.2750  147.0420 C   0  0  0  0  0  3  0  0  0  0  0  0
  187.7710  178.2380  141.7420 O   0  0  0  0  0  0  0  0  0  0  0  0
  186.4370  178.0700  145.7760 C   0  0  0  0  0  0  0  0  0  0  0  0
  189.1300  177.6140  146.0600 C   0  0  0  0  0  0  0  0  0  0  0  0
  189.0650  178.2360  148.5090 C   0  0  0  0  0  1  0  0  0  0  0  0
  183.2960  178.6300  142.4170 C   0  0  0  0  0  2  0  0  0  0  0  0
  182.1160  179.2960  143.1210 C   0  0  2  0  0  3  0  0  0  0  0  0
  181.8730  178.6610  144.3420 O   0  0  0  0  0  1  0  0  0  0  0  0
  179.8750  180.3410  142.7280 C   0  0  0  0  0  1  0  0  0  0  0  0
  181.2080  179.5660  140.8680 N   0  0  0  0  0  1  0  0  0  0  0  0
  180.8590  179.2880  142.2510 C   0  0  1  0  0  3  0  0  0  0  0  0
  1 18  1  0  0  0  0
  2  7  1  1  0  0  0
  3 12  2  0  0  0  0
  3 17  1  0  0  0  0
  4  2  1  0  0  0  0
  5  8  1  0  0  0  0
  6 10  2  0  0  0  0
  7 17  1  0  0  0  0
  7 11  2  0  0  0  0
  8  2  1  0  0  0  0
  8  3  1  0  0  0  0
  9 10  1  0  0  0  0
  9 12  1  0  0  0  0
 10  1  1  0  0  0  0
 12 18  1  0  0  0  0
 13 19  1  0  0  0  0
 14  5  1  0  0  0  0
 14  4  1  0  0  0  0
 15 13  1  0  0  0  0
 16  5  2  0  0  0  0
 17 15  2  0  0  0  0
 18 13  2  0  0  0  0
 20  4  1  0  0  0  0
 20 21  1  0  0  0  0
 21 22  1  1  0  0  0
 24 25  1  0  0  0  0
 25 23  1  1  0  0  0
 25 21  1  0  0  0  0
M  END
>  <MODEL>
6

>  <REMARK>
 VINA RESULT:      -8.2      2.055      2.550
  Name = 
  3 active torsions:
  status: ('A' for Active; 'I' for Inactive)
    1  A    between atoms: N_4  and  C_24
    2  A    between atoms: C_10  and  C_11
    3  A    between atoms: C_11  and  C_24
                            x       y       z     vdW  Elec       q    Type
                         _______ _______ _______ _____ _____    ______ ____

>  <TORSDO>
F 3

$$$$
=
 OpenBabel10222416003D

 25 28  0  0  1  0  0  0  0  0999 V2000
  183.2810  179.1330  142.4770 N   0  0  0  0  0  2  0  0  0  0  0  0
  187.7610  176.9850  145.5930 C   0  0  2  0  0  3  0  0  0  0  0  0
  185.9660  177.8410  144.3640 C   0  0  0  0  0  0  0  0  0  0  0  0
  188.5680  177.8050  146.5140 N   0  0  0  0  0  0  0  0  0  0  0  0
  186.3080  178.3150  146.7760 C   0  0  0  0  0  0  0  0  0  0  0  0
  181.5710  179.3140  143.9960 O   0  0  0  0  0  0  0  0  0  0  0  0
  188.1410  177.2390  144.1590 C   0  0  0  0  0  0  0  0  0  0  0  0
  186.3730  177.4460  145.6730 N   0  0  0  0  0  0  0  0  0  0  0  0
  183.6140  178.5160  144.6650 N   0  0  0  0  0  2  0  0  0  0  0  0
  182.7610  179.0040  143.7270 C   0  0  0  0  0  0  0  0  0  0  0  0
  189.2720  177.0230  143.6530 O   0  0  0  0  0  0  0  0  0  0  0  0
  184.7330  178.3340  143.9510 C   0  0  0  0  0  0  0  0  0  0  0  0
  185.5620  178.6000  141.6840 C   0  0  0  0  0  0  0  0  0  0  0  0
  187.6250  178.5080  147.3960 C   0  0  0  0  0  2  0  0  0  0  0  0
  186.8230  178.1090  142.0980 C   0  0  0  0  0  3  0  0  0  0  0  0
  185.2510  178.8820  147.1560 O   0  0  0  0  0  0  0  0  0  0  0  0
  186.9840  177.7380  143.4460 C   0  0  0  0  0  0  0  0  0  0  0  0
  184.5390  178.6980  142.6460 C   0  0  0  0  0  0  0  0  0  0  0  0
  185.3390  179.0030  140.2680 C   0  0  0  0  0  1  0  0  0  0  0  0
  189.3250  176.8840  147.3510 C   0  0  0  0  0  2  0  0  0  0  0  0
  190.8280  177.1260  147.2190 C   0  0  2  0  0  3  0  0  0  0  0  0
  191.0990  177.7550  146.0000 O   0  0  0  0  0  1  0  0  0  0  0  0
  192.0550  175.3340  145.9750 C   0  0  0  0  0  1  0  0  0  0  0  0
  192.8090  176.0460  148.1570 N   0  0  0  0  0  1  0  0  0  0  0  0
  191.6240  175.8280  147.3430 C   0  0  1  0  0  3  0  0  0  0  0  0
  1 18  1  0  0  0  0
  1 10  1  0  0  0  0
  2  7  1  6  0  0  0
  2  8  1  0  0  0  0
  2  4  1  0  0  0  0
  3  8  1  0  0  0  0
  4 20  1  0  0  0  0
  4 14  1  0  0  0  0
  5 16  2  0  0  0  0
  5 14  1  0  0  0  0
  8  5  1  0  0  0  0
 10  6  2  0  0  0  0
 10  9  1  0  0  0  0
 11  7  2  0  0  0  0
 12  3  1  0  0  0  0
 12  9  1  0  0  0  0
 13 15  2  0  0  0  0
 13 18  1  0  0  0  0
 15 17  1  0  0  0  0
 17  7  1  0  0  0  0
 17  3  2  0  0  0  0
 18 12  2  0  0  0  0
 19 13  1  0  0  0  0
 21 22  1  6  0  0  0
 21 25  1  0  0  0  0
 21 20  1  0  0  0  0
 25 23  1  6  0  0  0
 25 24  1  0  0  0  0
M  END
>  <MODEL>
7

>  <REMARK>
 VINA RESULT:      -8.0      2.270      7.466
  Name = 
  3 active torsions:
  status: ('A' for Active; 'I' for Inactive)
    1  A    between atoms: N_4  and  C_24
    2  A    between atoms: C_10  and  C_11
    3  A    between atoms: C_11  and  C_24
                            x       y       z     vdW  Elec       q    Type
                         _______ _______ _______ _____ _____    ______ ____

>  <TORSDO>
F 3

$$$$
=
 OpenBabel10222416003D

 25 28  0  0  1  0  0  0  0  0999 V2000
  189.3760  176.9480  146.0470 N   0  0  0  0  0  2  0  0  0  0  0  0
  184.5970  179.1580  143.4640 C   0  0  2  0  0  3  0  0  0  0  0  0
  186.4970  178.2840  144.5070 C   0  0  0  0  0  0  0  0  0  0  0  0
  183.2510  178.5820  143.6320 N   0  0  0  0  0  0  0  0  0  0  0  0
  184.3460  178.6440  145.6890 C   0  0  0  0  0  0  0  0  0  0  0  0
  189.2200  177.6540  148.2240 O   0  0  0  0  0  0  0  0  0  0  0  0
  185.4270  178.3420  142.5110 C   0  0  0  0  0  0  0  0  0  0  0  0
  185.3050  179.0330  144.7390 N   0  0  0  0  0  0  0  0  0  0  0  0
  187.5900  178.2280  146.7170 N   0  0  0  0  0  2  0  0  0  0  0  0
  188.7520  177.6120  147.0560 C   0  0  0  0  0  0  0  0  0  0  0  0
  185.1630  178.1400  141.2970 O   0  0  0  0  0  0  0  0  0  0  0  0
  187.4870  177.9240  145.4160 C   0  0  0  0  0  0  0  0  0  0  0  0
  188.6830  176.7120  143.6840 C   0  0  0  0  0  0  0  0  0  0  0  0
  183.0270  178.4340  145.0760 C   0  0  0  0  0  2  0  0  0  0  0  0
  187.6760  177.0660  142.7550 C   0  0  0  0  0  3  0  0  0  0  0  0
  184.6020  178.4650  146.9080 O   0  0  0  0  0  0  0  0  0  0  0  0
  186.6000  177.8540  143.2050 C   0  0  0  0  0  0  0  0  0  0  0  0
  188.5500  177.1630  145.0110 C   0  0  0  0  0  0  0  0  0  0  0  0
  189.8430  175.8830  143.2570 C   0  0  0  0  0  1  0  0  0  0  0  0
  182.2990  179.5760  143.1540 C   0  0  0  0  0  2  0  0  0  0  0  0
  181.2750  178.9490  142.2090 C   0  0  2  0  0  3  0  0  0  0  0  0
  181.5930  179.2710  140.8860 O   0  0  0  0  0  1  0  0  0  0  0  0
  179.4980  179.0180  143.9710 C   0  0  0  0  0  1  0  0  0  0  0  0
  179.7290  180.8330  142.3930 N   0  0  0  0  0  1  0  0  0  0  0  0
  179.8510  179.3920  142.5430 C   0  0  1  0  0  3  0  0  0  0  0  0
  1 10  1  0  0  0  0
  2  7  1  6  0  0  0
  2  4  1  0  0  0  0
  2  8  1  0  0  0  0
  3  8  1  0  0  0  0
  3 12  1  0  0  0  0
  4 14  1  0  0  0  0
  5 16  2  0  0  0  0
  7 17  1  0  0  0  0
  8  5  1  0  0  0  0
  9 10  1  0  0  0  0
 10  6  2  0  0  0  0
 11  7  2  0  0  0  0
 12  9  1  0  0  0  0
 13 18  1  0  0  0  0
 14  5  1  0  0  0  0
 15 17  1  0  0  0  0
 15 13  2  0  0  0  0
 17  3  2  0  0  0  0
 18 12  2  0  0  0  0
 18  1  1  0  0  0  0
 19 13  1  0  0  0  0
 20  4  1  0  0  0  0
 21 22  1  6  0  0  0
 21 25  1  0  0  0  0
 21 20  1  0  0  0  0
 24 25  1  0  0  0  0
 25 23  1  1  0  0  0
M  END
>  <MODEL>
8

>  <REMARK>
 VINA RESULT:      -7.9      2.828      4.160
  Name = 
  3 active torsions:
  status: ('A' for Active; 'I' for Inactive)
    1  A    between atoms: N_4  and  C_24
    2  A    between atoms: C_10  and  C_11
    3  A    between atoms: C_11  and  C_24
                            x       y       z     vdW  Elec       q    Type
                         _______ _______ _______ _____ _____    ______ ____

>  <TORSDO>
F 3

$$$$
=
 OpenBabel10222416003D

 25 28  0  0  1  0  0  0  0  0999 V2000
  188.1040  177.4920  147.1190 N   0  0  0  0  0  2  0  0  0  0  0  0
  187.3920  177.5920  141.2990 C   0  0  2  0  0  3  0  0  0  0  0  0
  187.6910  177.5460  143.6160 C   0  0  0  0  0  0  0  0  0  0  0  0
  188.0180  178.6030  140.4280 N   0  0  0  0  0  0  0  0  0  0  0  0
  189.5580  177.8640  142.0140 C   0  0  0  0  0  0  0  0  0  0  0  0
  190.2020  176.6150  147.4170 O   0  0  0  0  0  0  0  0  0  0  0  0
  186.2000  178.1560  142.0220 C   0  0  0  0  0  0  0  0  0  0  0  0
  188.3350  177.2730  142.3730 N   0  0  0  0  0  0  0  0  0  0  0  0
  189.3720  176.8970  145.2980 N   0  0  0  0  0  2  0  0  0  0  0  0
  189.2740  176.9830  146.6500 C   0  0  0  0  0  0  0  0  0  0  0  0
  185.1560  178.6000  141.4780 O   0  0  0  0  0  0  0  0  0  0  0  0
  188.1880  177.3870  144.9050 C   0  0  0  0  0  0  0  0  0  0  0  0
  186.1350  178.2790  145.8450 C   0  0  0  0  0  0  0  0  0  0  0  0
  189.4480  178.6310  140.7660 C   0  0  0  0  0  2  0  0  0  0  0  0
  185.6240  178.4540  144.5370 C   0  0  0  0  0  3  0  0  0  0  0  0
  190.6070  177.7720  142.7040 O   0  0  0  0  0  0  0  0  0  0  0  0
  186.4320  178.0730  143.4490 C   0  0  0  0  0  0  0  0  0  0  0  0
  187.4280  177.7400  145.9860 C   0  0  0  0  0  0  0  0  0  0  0  0
  185.3190  178.6630  147.0290 C   0  0  0  0  0  1  0  0  0  0  0  0
  187.9160  178.1090  139.0610 C   0  0  0  0  0  2  0  0  0  0  0  0
  189.1440  178.5000  138.2400 C   0  0  2  0  0  3  0  0  0  0  0  0
  188.8840  179.6770  137.5310 O   0  0  0  0  0  1  0  0  0  0  0  0
  189.9880  176.1500  138.0700 C   0  0  0  0  0  1  0  0  0  0  0  0
  188.4660  177.0280  136.4100 N   0  0  0  0  0  1  0  0  0  0  0  0
  189.5700  177.3820  137.2890 C   0  0  1  0  0  3  0  0  0  0  0  0
  2  7  1  1  0  0  0
  2  8  1  0  0  0  0
  3 12  1  0  0  0  0
  4 14  1  0  0  0  0
  4  2  1  0  0  0  0
  5  8  1  0  0  0  0
  5 16  2  0  0  0  0
  7 17  1  0  0  0  0
  8  3  1  0  0  0  0
  9 10  1  0  0  0  0
 10  1  1  0  0  0  0
 10  6  2  0  0  0  0
 11  7  2  0  0  0  0
 12  9  1  0  0  0  0
 12 18  2  0  0  0  0
 13 18  1  0  0  0  0
 13 19  1  0  0  0  0
 14  5  1  0  0  0  0
 15 13  2  0  0  0  0
 17  3  2  0  0  0  0
 17 15  1  0  0  0  0
 18  1  1  0  0  0  0
 20  4  1  0  0  0  0
 21 22  1  6  0  0  0
 21 20  1  0  0  0  0
 24 25  1  0  0  0  0
 25 23  1  1  0  0  0
 25 21  1  0  0  0  0
M  END
>  <MODEL>
9

>  <REMARK>
 VINA RESULT:      -7.8      2.554      3.183
  Name = 
  3 active torsions:
  status: ('A' for Active; 'I' for Inactive)
    1  A    between atoms: N_4  and  C_24
    2  A    between atoms: C_10  and  C_11
    3  A    between atoms: C_11  and  C_24
                            x       y       z     vdW  Elec       q    Type
                         _______ _______ _______ _____ _____    ______ ____

>  <TORSDO>
F 3

$$$$
