=
 OpenBabel10222420263D

 31 34  0  0  1  0  0  0  0  0999 V2000
  189.2380  176.2190  143.0990 C   0  0  0  0  0  2  0  0  0  0  0  0
  189.1870  177.4380  143.7790 O   0  0  0  0  0  0  0  0  0  0  0  0
  189.1610  177.0950  145.1340 C   0  0  2  0  0  3  0  0  0  0  0  0
  186.6930  177.0680  145.1240 C   0  0  0  0  0  3  0  0  0  0  0  0
  187.8270  177.4300  145.7350 C   0  0  0  0  0  0  0  0  0  0  0  0
  185.3160  177.3640  145.6700 C   0  0  0  0  0  0  0  0  0  0  0  0
  183.5560  179.1530  145.4450 N   0  0  0  0  0  1  0  0  0  0  0  0
  185.2850  178.2010  146.9790 C   0  0  0  0  0  0  0  0  0  0  0  0
  187.7920  178.2130  146.9740 C   0  0  0  0  0  3  0  0  0  0  0  0
  184.9620  178.8440  145.6380 C   0  0  1  0  0  0  0  0  0  0  0  0
  185.8850  179.7590  145.1180 O   0  0  0  0  0  1  0  0  0  0  0  0
  186.6410  178.5780  147.5330 C   0  0  0  0  0  3  0  0  0  0  0  0
  190.2890  177.8090  145.8680 C   0  0  0  0  0  2  0  0  0  0  0  0
  191.8900  175.9880  145.2830 O   0  0  0  0  0  0  0  0  0  0  0  0
  191.3690  176.8490  146.2410 C   0  0  0  0  0  0  0  0  0  0  0  0
  191.8260  176.8380  147.4140 O   0  0  0  0  0  1  0  0  0  0  0  0
  190.3940  176.2200  142.1070 C   0  0  0  0  0  2  0  0  0  0  0  0
  190.2250  177.3180  141.0660 C   0  0  0  0  0  2  0  0  0  0  0  0
  188.9260  177.2080  140.4280 N   0  0  0  0  0  0  0  0  0  0  0  0
  189.0080  177.9790  139.1760 C   0  0  2  0  0  3  0  0  0  0  0  0
  188.3710  178.5680  140.3700 C   0  0  1  0  0  3  0  0  0  0  0  0
  188.2640  176.0190  137.8520 O   0  0  0  0  0  0  0  0  0  0  0  0
  190.8000  176.3440  135.3670 O   0  0  0  0  0  0  0  0  0  0  0  0
  189.7660  174.3330  137.0740 C   0  0  0  0  0  1  0  0  0  0  0  0
  189.8720  176.6510  136.1610 C   0  0  0  0  0  0  0  0  0  0  0  0
  189.5790  175.8090  137.3730 C   0  0  1  0  0  3  0  0  0  0  0  0
  188.0290  178.2140  136.8360 C   0  0  0  0  0  2  0  0  0  0  0  0
  188.0450  177.3920  138.1270 C   0  0  2  0  0  3  0  0  0  0  0  0
  189.1620  177.8750  135.9810 N   0  0  0  0  0  2  0  0  0  0  0  0
  186.3780  178.6340  141.8550 C   0  0  0  0  0  1  0  0  0  0  0  0
  186.8490  178.4900  140.4220 C   0  0  0  0  0  2  0  0  0  0  0  0
  1  2  1  0  0  0  0
  2  3  1  0  0  0  0
  3  5  1  0  0  0  0
  3 13  1  1  0  0  0
  4  6  2  3  0  0  0
  4  5  1  0  0  0  0
  5  9  2  0  0  0  0
  6  8  1  0  0  0  0
  7 10  1  0  0  0  0
  8 12  2  3  0  0  0
  9 12  1  0  0  0  0
 10 11  1  6  0  0  0
 10  6  1  0  0  0  0
 10  8  1  0  0  0  0
 13 15  1  0  0  0  0
 14 15  2  0  0  0  0
 15 16  1  0  0  0  0
 17  1  1  0  0  0  0
 18 17  1  0  0  0  0
 19 18  1  0  0  0  0
 20 21  1  0  0  0  0
 20 19  1  1  0  0  0
 21 31  1  6  0  0  0
 21 19  1  0  0  0  0
 22 28  1  0  0  0  0
 23 25  2  0  0  0  0
 25 26  1  0  0  0  0
 26 24  1  6  0  0  0
 26 22  1  0  0  0  0
 28 27  1  6  0  0  0
 28 20  1  0  0  0  0
 29 25  1  0  0  0  0
 29 27  1  0  0  0  0
 31 30  1  0  0  0  0
M  END
>  <MODEL>
1

>  <REMARK>
 VINA RESULT:      -7.2      0.000      0.000
  Name = 
  10 active torsions:
  status: ('A' for Active; 'I' for Inactive)
    1  A    between atoms: C_4  and  C_16
    2  A    between atoms: N_5  and  C_31
    3  A    between atoms: O_6  and  C_9
    4  A    between atoms: O_6  and  C_22
    5  A    between atoms: C_8  and  C_25
    6  A    between atoms: C_9  and  C_29
    7  A    between atoms: C_11  and  C_22
    8  A    between atoms: C_16  and  C_22
    9  A    between atoms: C_21  and  C_27
   10  A    between atoms: C_29  and  C_31
                            x       y       z     vdW  Elec       q    Type
                         _______ _______ _______ _____ _____    ______ ____

>  <TORSDO>
F 10

$$$$
=
 OpenBabel10222420263D

 31 34  0  0  1  0  0  0  0  0999 V2000
  185.9100  178.1910  146.1970 C   0  0  0  0  0  2  0  0  0  0  0  0
  186.8620  177.4390  145.5050 O   0  0  0  0  0  0  0  0  0  0  0  0
  188.0930  177.8330  146.0400 C   0  0  2  0  0  3  0  0  0  0  0  0
  188.9760  178.0820  143.7480 C   0  0  0  0  0  3  0  0  0  0  0  0
  189.1790  177.6980  145.0140 C   0  0  0  0  0  0  0  0  0  0  0  0
  190.0220  177.9830  142.6630 C   0  0  0  0  0  0  0  0  0  0  0  0
  190.7190  176.3470  140.8790 N   0  0  0  0  0  1  0  0  0  0  0  0
  191.3610  177.3210  143.0900 C   0  0  0  0  0  0  0  0  0  0  0  0
  190.4480  177.0800  145.4120 C   0  0  0  0  0  3  0  0  0  0  0  0
  190.3400  176.5490  142.2660 C   0  0  1  0  0  0  0  0  0  0  0  0
  189.6640  175.4960  142.8930 O   0  0  0  0  0  1  0  0  0  0  0  0
  191.4340  176.8940  144.5390 C   0  0  0  0  0  3  0  0  0  0  0  0
  188.4030  177.0050  147.2810 C   0  0  0  0  0  2  0  0  0  0  0  0
  187.6230  178.1290  149.3670 O   0  0  0  0  0  1  0  0  0  0  0  0
  188.6470  177.8890  148.4590 C   0  0  0  0  0  0  0  0  0  0  0  0
  189.7860  178.3930  148.6440 O   0  0  0  0  0  0  0  0  0  0  0  0
  185.2410  179.1830  145.2560 C   0  0  0  0  0  2  0  0  0  0  0  0
  184.3280  178.4730  144.2650 C   0  0  0  0  0  2  0  0  0  0  0  0
  184.4800  179.0490  142.9410 N   0  0  0  0  0  0  0  0  0  0  0  0
  184.0900  178.0030  141.9820 C   0  0  2  0  0  3  0  0  0  0  0  0
  185.5160  178.2610  142.2580 C   0  0  1  0  0  3  0  0  0  0  0  0
  182.3580  179.4110  140.9010 O   0  0  0  0  0  0  0  0  0  0  0  0
  179.9370  176.8030  140.6750 O   0  0  0  0  0  0  0  0  0  0  0  0
  180.0860  179.4640  141.6350 C   0  0  0  0  0  1  0  0  0  0  0  0
  181.0370  177.4090  140.5910 C   0  0  0  0  0  0  0  0  0  0  0  0
  181.3270  178.6110  141.4490 C   0  0  1  0  0  3  0  0  0  0  0  0
  183.3270  177.6130  139.5830 C   0  0  0  0  0  2  0  0  0  0  0  0
  183.5320  178.6420  140.6970 C   0  0  2  0  0  3  0  0  0  0  0  0
  182.0740  176.8860  139.7620 N   0  0  0  0  0  2  0  0  0  0  0  0
  187.2750  178.3390  140.5020 C   0  0  0  0  0  1  0  0  0  0  0  0
  186.2400  179.1510  141.2540 C   0  0  0  0  0  2  0  0  0  0  0  0
  2  3  1  0  0  0  0
  2  1  1  0  0  0  0
  3 13  1  1  0  0  0
  4  5  1  0  0  0  0
  5  9  2  0  0  0  0
  5  3  1  0  0  0  0
  6  8  1  0  0  0  0
  6  4  2  3  0  0  0
  8 12  2  3  0  0  0
 10  7  1  6  0  0  0
 10  6  1  0  0  0  0
 10 11  1  0  0  0  0
 10  8  1  0  0  0  0
 12  9  1  0  0  0  0
 13 15  1  0  0  0  0
 15 16  2  0  0  0  0
 15 14  1  0  0  0  0
 17  1  1  0  0  0  0
 18 17  1  0  0  0  0
 19 18  1  0  0  0  0
 20 21  1  0  0  0  0
 20 19  1  1  0  0  0
 21 31  1  6  0  0  0
 21 19  1  0  0  0  0
 22 26  1  0  0  0  0
 25 23  2  0  0  0  0
 25 26  1  0  0  0  0
 26 24  1  6  0  0  0
 27 29  1  0  0  0  0
 28 27  1  6  0  0  0
 28 22  1  0  0  0  0
 28 20  1  0  0  0  0
 29 25  1  0  0  0  0
 30 31  1  0  0  0  0
M  END
>  <MODEL>
2

>  <REMARK>
 VINA RESULT:      -7.2      3.304      6.307
  Name = 
  10 active torsions:
  status: ('A' for Active; 'I' for Inactive)
    1  A    between atoms: C_4  and  C_16
    2  A    between atoms: N_5  and  C_31
    3  A    between atoms: O_6  and  C_9
    4  A    between atoms: O_6  and  C_22
    5  A    between atoms: C_8  and  C_25
    6  A    between atoms: C_9  and  C_29
    7  A    between atoms: C_11  and  C_22
    8  A    between atoms: C_16  and  C_22
    9  A    between atoms: C_21  and  C_27
   10  A    between atoms: C_29  and  C_31
                            x       y       z     vdW  Elec       q    Type
                         _______ _______ _______ _____ _____    ______ ____

>  <TORSDO>
F 10

$$$$
=
 OpenBabel10222420263D

 31 34  0  0  1  0  0  0  0  0999 V2000
  185.0260  178.9380  142.5430 C   0  0  0  0  0  2  0  0  0  0  0  0
  185.5110  177.7370  143.0640 O   0  0  0  0  0  0  0  0  0  0  0  0
  186.1900  178.0970  144.2330 C   0  0  2  0  0  3  0  0  0  0  0  0
  188.4300  177.8030  145.2270 C   0  0  0  0  0  3  0  0  0  0  0  0
  187.5910  177.5600  144.2130 C   0  0  0  0  0  0  0  0  0  0  0  0
  189.8500  177.2920  145.2800 C   0  0  0  0  0  0  0  0  0  0  0  0
  192.1540  178.0930  144.6490 N   0  0  0  0  0  1  0  0  0  0  0  0
  190.3230  176.5090  144.0240 C   0  0  0  0  0  0  0  0  0  0  0  0
  188.0410  176.8150  143.0330 C   0  0  0  0  0  3  0  0  0  0  0  0
  190.7640  177.9480  144.2550 C   0  0  1  0  0  0  0  0  0  0  0  0
  190.2460  178.9300  143.4020 O   0  0  0  0  0  1  0  0  0  0  0  0
  189.2830  176.3500  142.9370 C   0  0  0  0  0  3  0  0  0  0  0  0
  185.4250  177.5930  145.4490 C   0  0  0  0  0  2  0  0  0  0  0  0
  185.4920  179.3810  147.1880 O   0  0  0  0  0  1  0  0  0  0  0  0
  184.7900  178.7270  146.1830 C   0  0  0  0  0  0  0  0  0  0  0  0
  183.6310  179.1090  145.8730 O   0  0  0  0  0  0  0  0  0  0  0  0
  185.4950  179.1130  141.1050 C   0  0  0  0  0  2  0  0  0  0  0  0
  184.3340  178.9750  140.1280 C   0  0  0  0  0  2  0  0  0  0  0  0
  184.5080  177.7900  139.3070 N   0  0  0  0  0  0  0  0  0  0  0  0
  184.9800  178.2560  137.9930 C   0  0  2  0  0  3  0  0  0  0  0  0
  183.5590  177.9100  138.1910 C   0  0  1  0  0  3  0  0  0  0  0  0
  186.9710  176.7800  138.0900 O   0  0  0  0  0  0  0  0  0  0  0  0
  189.2680  179.2910  137.0280 O   0  0  0  0  0  0  0  0  0  0  0  0
  189.0140  177.4270  139.1450 C   0  0  0  0  0  1  0  0  0  0  0  0
  188.2430  178.5620  137.0630 C   0  0  0  0  0  0  0  0  0  0  0  0
  187.8140  177.8900  138.3390 C   0  0  1  0  0  3  0  0  0  0  0  0
  186.2570  177.5590  135.9020 C   0  0  0  0  0  2  0  0  0  0  0  0
  185.8440  177.1720  137.3230 C   0  0  2  0  0  3  0  0  0  0  0  0
  187.4030  178.4620  135.9140 N   0  0  0  0  0  2  0  0  0  0  0  0
  182.5950  175.7350  138.9170 C   0  0  0  0  0  1  0  0  0  0  0  0
  183.1420  176.5150  137.7380 C   0  0  0  0  0  2  0  0  0  0  0  0
  1  2  1  0  0  0  0
  2  3  1  0  0  0  0
  3 13  1  1  0  0  0
  4  6  1  0  0  0  0
  5  3  1  0  0  0  0
  5  4  2  0  0  0  0
  8 10  1  0  0  0  0
  8  6  2  0  0  0  0
  9  5  1  0  0  0  0
 10 11  1  6  0  0  0
 10  7  1  0  0  0  0
 10  6  1  0  0  0  0
 12  9  2  0  0  0  0
 12  8  1  0  0  0  0
 13 15  1  0  0  0  0
 15 14  1  0  0  0  0
 16 15  2  0  0  0  0
 17  1  1  0  0  0  0
 18 17  1  0  0  0  0
 19 18  1  0  0  0  0
 20 21  1  0  0  0  0
 20 19  1  1  0  0  0
 21 31  1  6  0  0  0
 21 19  1  0  0  0  0
 22 26  1  0  0  0  0
 23 25  2  0  0  0  0
 25 26  1  0  0  0  0
 26 24  1  6  0  0  0
 27 29  1  0  0  0  0
 28 27  1  6  0  0  0
 28 20  1  0  0  0  0
 28 22  1  0  0  0  0
 29 25  1  0  0  0  0
 31 30  1  0  0  0  0
M  END
>  <MODEL>
3

>  <REMARK>
 VINA RESULT:      -7.1      2.561      4.935
  Name = 
  10 active torsions:
  status: ('A' for Active; 'I' for Inactive)
    1  A    between atoms: C_4  and  C_16
    2  A    between atoms: N_5  and  C_31
    3  A    between atoms: O_6  and  C_9
    4  A    between atoms: O_6  and  C_22
    5  A    between atoms: C_8  and  C_25
    6  A    between atoms: C_9  and  C_29
    7  A    between atoms: C_11  and  C_22
    8  A    between atoms: C_16  and  C_22
    9  A    between atoms: C_21  and  C_27
   10  A    between atoms: C_29  and  C_31
                            x       y       z     vdW  Elec       q    Type
                         _______ _______ _______ _____ _____    ______ ____

>  <TORSDO>
F 10

$$$$
=
 OpenBabel10222420263D

 31 34  0  0  1  0  0  0  0  0999 V2000
  189.6150  176.8960  142.3030 C   0  0  0  0  0  2  0  0  0  0  0  0
  189.1260  177.8680  143.1800 O   0  0  0  0  0  0  0  0  0  0  0  0
  189.2590  177.3040  144.4530 C   0  0  2  0  0  3  0  0  0  0  0  0
  186.8070  177.1810  144.7040 C   0  0  0  0  0  3  0  0  0  0  0  0
  187.9950  177.4820  145.2410 C   0  0  0  0  0  0  0  0  0  0  0  0
  185.4940  177.3280  145.4360 C   0  0  0  0  0  0  0  0  0  0  0  0
  183.6820  179.0580  145.7040 N   0  0  0  0  0  1  0  0  0  0  0  0
  185.5930  177.9360  146.8620 C   0  0  0  0  0  0  0  0  0  0  0  0
  188.0820  178.0490  146.5900 C   0  0  0  0  0  3  0  0  0  0  0  0
  185.1070  178.7770  145.6900 C   0  0  1  0  0  0  0  0  0  0  0  0
  185.9460  179.8020  145.2360 O   0  0  0  0  0  1  0  0  0  0  0  0
  186.9940  178.2700  147.3230 C   0  0  0  0  0  3  0  0  0  0  0  0
  190.4470  177.9310  145.1720 C   0  0  0  0  0  2  0  0  0  0  0  0
  191.8230  175.9010  144.7150 O   0  0  0  0  0  0  0  0  0  0  0  0
  191.4150  176.8830  145.6100 C   0  0  0  0  0  0  0  0  0  0  0  0
  191.8810  176.9030  146.7790 O   0  0  0  0  0  1  0  0  0  0  0  0
  189.6540  177.4440  140.8830 C   0  0  0  0  0  2  0  0  0  0  0  0
  188.5090  178.4180  140.6370 C   0  0  0  0  0  2  0  0  0  0  0  0
  188.3300  178.6310  139.2120 N   0  0  0  0  0  0  0  0  0  0  0  0
  187.4400  177.5600  138.7370 C   0  0  2  0  0  3  0  0  0  0  0  0
  188.8980  177.4550  138.5380 C   0  0  1  0  0  3  0  0  0  0  0  0
  185.6960  179.0640  137.8160 O   0  0  0  0  0  0  0  0  0  0  0  0
  182.9570  177.0290  138.8480 O   0  0  0  0  0  0  0  0  0  0  0  0
  183.7720  179.7330  139.0610 C   0  0  0  0  0  1  0  0  0  0  0  0
  184.0620  177.3630  138.3450 C   0  0  0  0  0  0  0  0  0  0  0  0
  184.7640  178.6190  138.7840 C   0  0  1  0  0  3  0  0  0  0  0  0
  185.9610  176.8830  136.7760 C   0  0  0  0  0  2  0  0  0  0  0  0
  186.6320  178.0410  137.5170 C   0  0  2  0  0  3  0  0  0  0  0  0
  184.7210  176.4830  137.4360 N   0  0  0  0  0  2  0  0  0  0  0  0
  190.2820  176.7640  136.5900 C   0  0  0  0  0  1  0  0  0  0  0  0
  189.4160  177.8680  137.1640 C   0  0  0  0  0  2  0  0  0  0  0  0
  1  2  1  0  0  0  0
  2  3  1  0  0  0  0
  3 13  1  1  0  0  0
  3  5  1  0  0  0  0
  4  5  2  0  0  0  0
  4  6  1  0  0  0  0
  5  9  1  0  0  0  0
  6 10  1  0  0  0  0
  6  8  2  0  0  0  0
  8 12  1  0  0  0  0
  9 12  2  0  0  0  0
 10 11  1  6  0  0  0
 10  7  1  0  0  0  0
 10  8  1  0  0  0  0
 13 15  1  0  0  0  0
 14 15  2  0  0  0  0
 15 16  1  0  0  0  0
 17  1  1  0  0  0  0
 18 17  1  0  0  0  0
 19 18  1  0  0  0  0
 20 19  1  1  0  0  0
 21 31  1  6  0  0  0
 21 20  1  0  0  0  0
 21 19  1  0  0  0  0
 22 26  1  0  0  0  0
 25 26  1  0  0  0  0
 25 23  2  0  0  0  0
 26 24  1  6  0  0  0
 27 29  1  0  0  0  0
 28 27  1  1  0  0  0
 28 22  1  0  0  0  0
 28 20  1  0  0  0  0
 29 25  1  0  0  0  0
 30 31  1  0  0  0  0
M  END
>  <MODEL>
4

>  <REMARK>
 VINA RESULT:      -7.1      2.009      3.373
  Name = 
  10 active torsions:
  status: ('A' for Active; 'I' for Inactive)
    1  A    between atoms: C_4  and  C_16
    2  A    between atoms: N_5  and  C_31
    3  A    between atoms: O_6  and  C_9
    4  A    between atoms: O_6  and  C_22
    5  A    between atoms: C_8  and  C_25
    6  A    between atoms: C_9  and  C_29
    7  A    between atoms: C_11  and  C_22
    8  A    between atoms: C_16  and  C_22
    9  A    between atoms: C_21  and  C_27
   10  A    between atoms: C_29  and  C_31
                            x       y       z     vdW  Elec       q    Type
                         _______ _______ _______ _____ _____    ______ ____

>  <TORSDO>
F 10

$$$$
=
 OpenBabel10222420263D

 31 34  0  0  1  0  0  0  0  0999 V2000
  188.8680  177.1740  141.0430 C   0  0  0  0  0  2  0  0  0  0  0  0
  188.3700  178.4800  141.0460 O   0  0  0  0  0  0  0  0  0  0  0  0
  187.7890  178.6480  139.7850 C   0  0  2  0  0  3  0  0  0  0  0  0
  185.5690  178.1950  138.8050 C   0  0  0  0  0  3  0  0  0  0  0  0
  186.2950  178.5380  139.8750 C   0  0  0  0  0  0  0  0  0  0  0  0
  184.0650  178.0590  138.8210 C   0  0  0  0  0  0  0  0  0  0  0  0
  182.0500  179.4920  138.3380 N   0  0  0  0  0  1  0  0  0  0  0  0
  183.3790  178.4230  140.1660 C   0  0  0  0  0  0  0  0  0  0  0  0
  185.6420  178.8740  141.1440 C   0  0  0  0  0  3  0  0  0  0  0  0
  183.3440  179.3880  138.9900 C   0  0  1  0  0  0  0  0  0  0  0  0
  184.0910  180.5670  139.0950 O   0  0  0  0  0  1  0  0  0  0  0  0
  184.3190  178.8370  141.2760 C   0  0  0  0  0  3  0  0  0  0  0  0
  188.3580  177.6200  138.8150 C   0  0  0  0  0  2  0  0  0  0  0  0
  189.6760  177.5270  136.6990 O   0  0  0  0  0  0  0  0  0  0  0  0
  189.0540  178.2920  137.6790 C   0  0  0  0  0  0  0  0  0  0  0  0
  189.0540  179.5480  137.5930 O   0  0  0  0  0  1  0  0  0  0  0  0
  188.7610  176.5690  142.4360 C   0  0  0  0  0  2  0  0  0  0  0  0
  187.3840  176.8150  143.0390 C   0  0  0  0  0  2  0  0  0  0  0  0
  187.4710  177.7970  144.1040 N   0  0  0  0  0  0  0  0  0  0  0  0
  187.8340  177.0590  145.3250 C   0  0  2  0  0  3  0  0  0  0  0  0
  186.4320  177.4480  145.0830 C   0  0  1  0  0  3  0  0  0  0  0  0
  189.7340  178.6140  145.6780 O   0  0  0  0  0  0  0  0  0  0  0  0
  192.1660  176.0410  146.0960 O   0  0  0  0  0  0  0  0  0  0  0  0
  191.8240  178.3860  144.5450 C   0  0  0  0  0  1  0  0  0  0  0  0
  191.0990  176.6950  146.2280 C   0  0  0  0  0  0  0  0  0  0  0  0
  190.6440  177.6590  145.1660 C   0  0  1  0  0  3  0  0  0  0  0  0
  189.0430  177.2410  147.5600 C   0  0  0  0  0  2  0  0  0  0  0  0
  188.6240  177.9710  146.2820 C   0  0  2  0  0  3  0  0  0  0  0  0
  190.2420  176.4380  147.3400 N   0  0  0  0  0  2  0  0  0  0  0  0
  184.5180  179.0020  145.4120 C   0  0  0  0  0  1  0  0  0  0  0  0
  185.9590  178.7160  145.7840 C   0  0  0  0  0  2  0  0  0  0  0  0
  1  2  1  0  0  0  0
  1 17  1  0  0  0  0
  3 13  1  6  0  0  0
  3  5  1  0  0  0  0
  3  2  1  0  0  0  0
  4  6  2  3  0  0  0
  4  5  1  0  0  0  0
  5  9  2  0  0  0  0
  6 10  1  0  0  0  0
  6  8  1  0  0  0  0
  8 12  2  3  0  0  0
  9 12  1  0  0  0  0
 10  7  1  6  0  0  0
 10 11  1  0  0  0  0
 10  8  1  0  0  0  0
 14 15  2  0  0  0  0
 15 13  1  0  0  0  0
 16 15  1  0  0  0  0
 17 18  1  0  0  0  0
 18 19  1  0  0  0  0
 19 21  1  0  0  0  0
 20 19  1  6  0  0  0
 20 28  1  0  0  0  0
 21 20  1  0  0  0  0
 21 31  1  1  0  0  0
 22 28  1  0  0  0  0
 23 25  2  0  0  0  0
 25 29  1  0  0  0  0
 26 24  1  1  0  0  0
 26 22  1  0  0  0  0
 26 25  1  0  0  0  0
 28 27  1  1  0  0  0
 29 27  1  0  0  0  0
 30 31  1  0  0  0  0
M  END
>  <MODEL>
5

>  <REMARK>
 VINA RESULT:      -7.1      2.898      7.339
  Name = 
  10 active torsions:
  status: ('A' for Active; 'I' for Inactive)
    1  A    between atoms: C_4  and  C_16
    2  A    between atoms: N_5  and  C_31
    3  A    between atoms: O_6  and  C_9
    4  A    between atoms: O_6  and  C_22
    5  A    between atoms: C_8  and  C_25
    6  A    between atoms: C_9  and  C_29
    7  A    between atoms: C_11  and  C_22
    8  A    between atoms: C_16  and  C_22
    9  A    between atoms: C_21  and  C_27
   10  A    between atoms: C_29  and  C_31
                            x       y       z     vdW  Elec       q    Type
                         _______ _______ _______ _____ _____    ______ ____

>  <TORSDO>
F 10

$$$$
=
 OpenBabel10222420263D

 31 34  0  0  1  0  0  0  0  0999 V2000
  186.4970  177.9150  144.0860 C   0  0  0  0  0  2  0  0  0  0  0  0
  186.0370  177.9300  142.7670 O   0  0  0  0  0  0  0  0  0  0  0  0
  184.6740  178.2310  142.8640 C   0  0  2  0  0  3  0  0  0  0  0  0
  182.7920  178.4870  141.2880 C   0  0  0  0  0  3  0  0  0  0  0  0
  184.1090  178.5520  141.5110 C   0  0  0  0  0  0  0  0  0  0  0  0
  182.1510  178.8000  139.9570 C   0  0  0  0  0  0  0  0  0  0  0  0
  181.4340  177.5590  137.8850 N   0  0  0  0  0  1  0  0  0  0  0  0
  183.1380  179.1390  138.8070 C   0  0  0  0  0  0  0  0  0  0  0  0
  185.0360  178.8790  140.4230 C   0  0  0  0  0  3  0  0  0  0  0  0
  182.4690  177.7740  138.8800 C   0  0  1  0  0  0  0  0  0  0  0  0
  183.2740  176.6730  139.1970 O   0  0  0  0  0  1  0  0  0  0  0  0
  184.6010  179.1310  139.1920 C   0  0  0  0  0  3  0  0  0  0  0  0
  184.4700  179.3880  143.8340 C   0  0  0  0  0  2  0  0  0  0  0  0
  182.1720  178.7040  144.5200 O   0  0  0  0  0  0  0  0  0  0  0  0
  183.4730  179.0290  144.8840 C   0  0  0  0  0  0  0  0  0  0  0  0
  183.8160  178.9930  146.0950 O   0  0  0  0  0  1  0  0  0  0  0  0
  187.8010  177.1340  144.1770 C   0  0  0  0  0  2  0  0  0  0  0  0
  188.2160  176.5940  142.8150 C   0  0  0  0  0  2  0  0  0  0  0  0
  189.2720  177.4160  142.2510 N   0  0  0  0  0  0  0  0  0  0  0  0
  190.0530  176.5410  141.3610 C   0  0  2  0  0  3  0  0  0  0  0  0
  190.5430  176.8430  142.7200 C   0  0  1  0  0  3  0  0  0  0  0  0
  189.7390  178.0540  139.4210 O   0  0  0  0  0  0  0  0  0  0  0  0
  188.9610  175.4460  137.1180 O   0  0  0  0  0  0  0  0  0  0  0  0
  187.8560  177.9150  137.9590 C   0  0  0  0  0  1  0  0  0  0  0  0
  189.5550  176.0910  138.0210 C   0  0  0  0  0  0  0  0  0  0  0  0
  188.8370  177.1430  138.8230 C   0  0  1  0  0  3  0  0  0  0  0  0
  191.6310  176.5300  139.3620 C   0  0  0  0  0  2  0  0  0  0  0  0
  190.6840  177.3660  140.2240 C   0  0  2  0  0  3  0  0  0  0  0  0
  190.8930  175.7450  138.3770 N   0  0  0  0  0  2  0  0  0  0  0  0
  191.3030  178.8060  144.0430 C   0  0  0  0  0  1  0  0  0  0  0  0
  191.5830  177.9530  142.8230 C   0  0  0  0  0  2  0  0  0  0  0  0
  1 17  1  0  0  0  0
  2  3  1  0  0  0  0
  2  1  1  0  0  0  0
  3 13  1  1  0  0  0
  4  5  1  0  0  0  0
  5  3  1  0  0  0  0
  6  4  2  3  0  0  0
  8 10  1  0  0  0  0
  8 12  2  3  0  0  0
  8  6  1  0  0  0  0
  9  5  2  0  0  0  0
 10  7  1  6  0  0  0
 10 11  1  0  0  0  0
 10  6  1  0  0  0  0
 12  9  1  0  0  0  0
 13 15  1  0  0  0  0
 14 15  2  0  0  0  0
 15 16  1  0  0  0  0
 18 17  1  0  0  0  0
 19 21  1  0  0  0  0
 19 18  1  0  0  0  0
 20 19  1  1  0  0  0
 20 21  1  0  0  0  0
 21 31  1  6  0  0  0
 22 28  1  0  0  0  0
 23 25  2  0  0  0  0
 25 29  1  0  0  0  0
 25 26  1  0  0  0  0
 26 24  1  6  0  0  0
 26 22  1  0  0  0  0
 28 27  1  6  0  0  0
 28 20  1  0  0  0  0
 29 27  1  0  0  0  0
 31 30  1  0  0  0  0
M  END
>  <MODEL>
6

>  <REMARK>
 VINA RESULT:      -7.0      2.959      5.671
  Name = 
  10 active torsions:
  status: ('A' for Active; 'I' for Inactive)
    1  A    between atoms: C_4  and  C_16
    2  A    between atoms: N_5  and  C_31
    3  A    between atoms: O_6  and  C_9
    4  A    between atoms: O_6  and  C_22
    5  A    between atoms: C_8  and  C_25
    6  A    between atoms: C_9  and  C_29
    7  A    between atoms: C_11  and  C_22
    8  A    between atoms: C_16  and  C_22
    9  A    between atoms: C_21  and  C_27
   10  A    between atoms: C_29  and  C_31
                            x       y       z     vdW  Elec       q    Type
                         _______ _______ _______ _____ _____    ______ ____

>  <TORSDO>
F 10

$$$$
=
 OpenBabel10222420263D

 31 34  0  0  1  0  0  0  0  0999 V2000
  187.9040  177.9340  138.9110 C   0  0  0  0  0  2  0  0  0  0  0  0
  188.7380  178.5340  139.8580 O   0  0  0  0  0  0  0  0  0  0  0  0
  187.9170  178.7630  140.9670 C   0  0  2  0  0  3  0  0  0  0  0  0
  189.7920  178.3840  142.5260 C   0  0  0  0  0  3  0  0  0  0  0  0
  188.5150  178.1520  142.2000 C   0  0  0  0  0  0  0  0  0  0  0  0
  190.4610  177.8090  143.7520 C   0  0  0  0  0  0  0  0  0  0  0  0
  191.8380  175.7890  144.3610 N   0  0  0  0  0  1  0  0  0  0  0  0
  189.5850  176.8450  144.5980 C   0  0  0  0  0  0  0  0  0  0  0  0
  187.6910  177.2460  143.0060 C   0  0  0  0  0  3  0  0  0  0  0  0
  190.6660  176.3030  143.6750 C   0  0  1  0  0  0  0  0  0  0  0  0
  190.2540  175.6130  142.5290 O   0  0  0  0  0  1  0  0  0  0  0  0
  188.1770  176.6400  144.0860 C   0  0  0  0  0  3  0  0  0  0  0  0
  186.5230  178.2080  140.7000 C   0  0  0  0  0  2  0  0  0  0  0  0
  184.7360  179.7660  139.9240 O   0  0  0  0  0  0  0  0  0  0  0  0
  185.4800  179.2410  140.9730 C   0  0  0  0  0  0  0  0  0  0  0  0
  185.2570  179.6140  142.1540 O   0  0  0  0  0  1  0  0  0  0  0  0
  188.2700  178.4140  137.5130 C   0  0  0  0  0  2  0  0  0  0  0  0
  188.0390  177.3220  136.4770 C   0  0  0  0  0  2  0  0  0  0  0  0
  188.3710  176.0230  137.0360 N   0  0  0  0  0  0  0  0  0  0  0  0
  189.6470  175.6190  136.4250 C   0  0  2  0  0  3  0  0  0  0  0  0
  188.3740  175.0730  135.9150 C   0  0  1  0  0  3  0  0  0  0  0  0
  190.7600  175.3150  138.6200 O   0  0  0  0  0  0  0  0  0  0  0  0
  193.7930  176.9200  137.6520 O   0  0  0  0  0  0  0  0  0  0  0  0
  191.8990  177.0830  139.7520 C   0  0  0  0  0  1  0  0  0  0  0  0
  192.7920  176.1570  137.6160 C   0  0  0  0  0  0  0  0  0  0  0  0
  191.5510  176.4690  138.4080 C   0  0  1  0  0  3  0  0  0  0  0  0
  191.6690  174.0990  136.7230 C   0  0  0  0  0  2  0  0  0  0  0  0
  190.4290  174.7030  137.3840 C   0  0  2  0  0  3  0  0  0  0  0  0
  192.7810  175.0440  136.7230 N   0  0  0  0  0  2  0  0  0  0  0  0
  186.6320  173.7590  137.1080 C   0  0  0  0  0  1  0  0  0  0  0  0
  187.9860  173.6910  136.4300 C   0  0  0  0  0  2  0  0  0  0  0  0
  1  2  1  0  0  0  0
  2  3  1  0  0  0  0
  3 13  1  6  0  0  0
  3  5  1  0  0  0  0
  4  6  1  0  0  0  0
  5  4  2  0  0  0  0
  5  9  1  0  0  0  0
  6  8  2  0  0  0  0
  9 12  2  0  0  0  0
 10 11  1  6  0  0  0
 10  6  1  0  0  0  0
 10  7  1  0  0  0  0
 10  8  1  0  0  0  0
 12  8  1  0  0  0  0
 13 15  1  0  0  0  0
 14 15  2  0  0  0  0
 15 16  1  0  0  0  0
 17  1  1  0  0  0  0
 18 19  1  0  0  0  0
 18 17  1  0  0  0  0
 20 19  1  1  0  0  0
 20 28  1  0  0  0  0
 21 20  1  0  0  0  0
 21 31  1  1  0  0  0
 21 19  1  0  0  0  0
 25 23  2  0  0  0  0
 25 26  1  0  0  0  0
 26 22  1  0  0  0  0
 26 24  1  1  0  0  0
 28 27  1  6  0  0  0
 28 22  1  0  0  0  0
 29 27  1  0  0  0  0
 29 25  1  0  0  0  0
 31 30  1  0  0  0  0
M  END
>  <MODEL>
7

>  <REMARK>
 VINA RESULT:      -7.0      3.008      5.555
  Name = 
  10 active torsions:
  status: ('A' for Active; 'I' for Inactive)
    1  A    between atoms: C_4  and  C_16
    2  A    between atoms: N_5  and  C_31
    3  A    between atoms: O_6  and  C_9
    4  A    between atoms: O_6  and  C_22
    5  A    between atoms: C_8  and  C_25
    6  A    between atoms: C_9  and  C_29
    7  A    between atoms: C_11  and  C_22
    8  A    between atoms: C_16  and  C_22
    9  A    between atoms: C_21  and  C_27
   10  A    between atoms: C_29  and  C_31
                            x       y       z     vdW  Elec       q    Type
                         _______ _______ _______ _____ _____    ______ ____

>  <TORSDO>
F 10

$$$$
=
 OpenBabel10222420263D

 31 34  0  0  1  0  0  0  0  0999 V2000
  191.1170  176.6950  141.9440 C   0  0  0  0  0  2  0  0  0  0  0  0
  190.2570  176.3530  140.8980 O   0  0  0  0  0  0  0  0  0  0  0  0
  190.7600  177.0280  139.7810 C   0  0  2  0  0  3  0  0  0  0  0  0
  188.4150  177.7130  139.4320 C   0  0  0  0  0  3  0  0  0  0  0  0
  189.6380  177.5310  138.9210 C   0  0  0  0  0  0  0  0  0  0  0  0
  187.2400  178.2210  138.6300 C   0  0  0  0  0  0  0  0  0  0  0  0
  185.3260  177.2630  137.3010 N   0  0  0  0  0  1  0  0  0  0  0  0
  187.5160  178.4550  137.1200 C   0  0  0  0  0  0  0  0  0  0  0  0
  189.8950  177.7600  137.4960 C   0  0  0  0  0  3  0  0  0  0  0  0
  186.7490  177.2270  137.5880 C   0  0  1  0  0  0  0  0  0  0  0  0
  187.3820  175.9840  137.4730 O   0  0  0  0  0  1  0  0  0  0  0  0
  188.9310  178.1650  136.6730 C   0  0  0  0  0  3  0  0  0  0  0  0
  191.6840  176.1050  138.9950 C   0  0  0  0  0  2  0  0  0  0  0  0
  193.6690  177.4150  139.7480 O   0  0  0  0  0  1  0  0  0  0  0  0
  192.9900  176.7730  138.7190 C   0  0  0  0  0  0  0  0  0  0  0  0
  193.4880  176.7320  137.5640 O   0  0  0  0  0  0  0  0  0  0  0  0
  191.1620  178.2080  142.1120 C   0  0  0  0  0  2  0  0  0  0  0  0
  190.5690  178.6310  143.4490 C   0  0  0  0  0  2  0  0  0  0  0  0
  190.2180  177.4610  144.2340 N   0  0  0  0  0  0  0  0  0  0  0  0
  189.6380  177.9610  145.4920 C   0  0  2  0  0  3  0  0  0  0  0  0
  191.0420  177.5100  145.4510 C   0  0  1  0  0  3  0  0  0  0  0  0
  187.4070  176.8890  145.3300 O   0  0  0  0  0  0  0  0  0  0  0  0
  185.6720  179.5390  146.9670 O   0  0  0  0  0  0  0  0  0  0  0  0
  185.4640  178.0490  144.5670 C   0  0  0  0  0  1  0  0  0  0  0  0
  186.5430  178.6610  146.7300 C   0  0  0  0  0  0  0  0  0  0  0  0
  186.7710  178.1530  145.3320 C   0  0  1  0  0  3  0  0  0  0  0  0
  188.3700  177.1460  147.5460 C   0  0  0  0  0  2  0  0  0  0  0  0
  188.6260  176.9430  146.0520 C   0  0  2  0  0  3  0  0  0  0  0  0
  187.4100  178.2220  147.7750 N   0  0  0  0  0  2  0  0  0  0  0  0
  192.0240  176.1240  147.2670 C   0  0  0  0  0  1  0  0  0  0  0  0
  191.3020  176.0870  145.9350 C   0  0  0  0  0  2  0  0  0  0  0  0
  1 17  1  0  0  0  0
  2  1  1  0  0  0  0
  3 13  1  6  0  0  0
  3  2  1  0  0  0  0
  5  4  1  0  0  0  0
  5  3  1  0  0  0  0
  6  4  2  3  0  0  0
  8 10  1  0  0  0  0
  8  6  1  0  0  0  0
  9  5  2  0  0  0  0
 10  7  1  6  0  0  0
 10  6  1  0  0  0  0
 11 10  1  0  0  0  0
 12  8  2  3  0  0  0
 12  9  1  0  0  0  0
 15 13  1  0  0  0  0
 15 14  1  0  0  0  0
 16 15  2  0  0  0  0
 17 18  1  0  0  0  0
 18 19  1  0  0  0  0
 19 21  1  0  0  0  0
 20 19  1  6  0  0  0
 20 28  1  0  0  0  0
 21 20  1  0  0  0  0
 21 31  1  1  0  0  0
 22 26  1  0  0  0  0
 22 28  1  0  0  0  0
 25 23  2  0  0  0  0
 25 29  1  0  0  0  0
 26 24  1  1  0  0  0
 26 25  1  0  0  0  0
 27 29  1  0  0  0  0
 28 27  1  1  0  0  0
 31 30  1  0  0  0  0
M  END
>  <MODEL>
8

>  <REMARK>
 VINA RESULT:      -6.9      2.379      8.113
  Name = 
  10 active torsions:
  status: ('A' for Active; 'I' for Inactive)
    1  A    between atoms: C_4  and  C_16
    2  A    between atoms: N_5  and  C_31
    3  A    between atoms: O_6  and  C_9
    4  A    between atoms: O_6  and  C_22
    5  A    between atoms: C_8  and  C_25
    6  A    between atoms: C_9  and  C_29
    7  A    between atoms: C_11  and  C_22
    8  A    between atoms: C_16  and  C_22
    9  A    between atoms: C_21  and  C_27
   10  A    between atoms: C_29  and  C_31
                            x       y       z     vdW  Elec       q    Type
                         _______ _______ _______ _____ _____    ______ ____

>  <TORSDO>
F 10

$$$$
=
 OpenBabel10222420263D

 31 34  0  0  1  0  0  0  0  0999 V2000
  191.1970  177.1060  142.0290 C   0  0  0  0  0  2  0  0  0  0  0  0
  191.0930  177.7120  140.7750 O   0  0  0  0  0  0  0  0  0  0  0  0
  189.7920  177.4320  140.3450 C   0  0  2  0  0  3  0  0  0  0  0  0
  189.1010  177.9060  138.0230 C   0  0  0  0  0  3  0  0  0  0  0  0
  189.7780  177.1280  138.8760 C   0  0  0  0  0  0  0  0  0  0  0  0
  189.0450  177.6660  136.5330 C   0  0  0  0  0  0  0  0  0  0  0  0
  187.5600  176.4770  134.8820 N   0  0  0  0  0  1  0  0  0  0  0  0
  189.7750  176.3880  136.0380 C   0  0  0  0  0  0  0  0  0  0  0  0
  190.4700  175.9250  138.4010 C   0  0  0  0  0  3  0  0  0  0  0  0
  188.2570  176.4210  136.1540 C   0  0  1  0  0  0  0  0  0  0  0  0
  187.6670  175.6490  137.1610 O   0  0  0  0  0  1  0  0  0  0  0  0
  190.4580  175.5780  137.1170 C   0  0  0  0  0  3  0  0  0  0  0  0
  188.8780  178.6070  140.6720 C   0  0  0  0  0  2  0  0  0  0  0  0
  187.9130  177.0870  142.3990 O   0  0  0  0  0  1  0  0  0  0  0  0
  187.7490  178.1710  141.5450 C   0  0  0  0  0  0  0  0  0  0  0  0
  186.6590  178.8010  141.5290 O   0  0  0  0  0  0  0  0  0  0  0  0
  191.7710  178.0890  143.0400 C   0  0  0  0  0  2  0  0  0  0  0  0
  190.7190  178.5080  144.0590 C   0  0  0  0  0  2  0  0  0  0  0  0
  190.2890  177.3590  144.8360 N   0  0  0  0  0  0  0  0  0  0  0  0
  189.7210  177.8890  146.0870 C   0  0  2  0  0  3  0  0  0  0  0  0
  191.0970  177.3570  146.0640 C   0  0  1  0  0  3  0  0  0  0  0  0
  187.4750  176.8680  145.8280 O   0  0  0  0  0  0  0  0  0  0  0  0
  185.7130  179.6500  147.1950 O   0  0  0  0  0  0  0  0  0  0  0  0
  185.6240  178.0340  144.8710 C   0  0  0  0  0  1  0  0  0  0  0  0
  186.5710  178.7370  147.0670 C   0  0  0  0  0  0  0  0  0  0  0  0
  186.8780  178.1470  145.7180 C   0  0  1  0  0  3  0  0  0  0  0  0
  188.2930  177.2240  148.0890 C   0  0  0  0  0  2  0  0  0  0  0  0
  188.6440  176.9310  146.6290 C   0  0  2  0  0  3  0  0  0  0  0  0
  187.3520  178.3360  148.1920 N   0  0  0  0  0  2  0  0  0  0  0  0
  192.2960  175.8730  147.6590 C   0  0  0  0  0  1  0  0  0  0  0  0
  191.2670  175.9210  146.5480 C   0  0  0  0  0  2  0  0  0  0  0  0
  1 17  1  0  0  0  0
  2  1  1  0  0  0  0
  3 13  1  6  0  0  0
  3  2  1  0  0  0  0
  4  5  1  0  0  0  0
  5  3  1  0  0  0  0
  6  4  2  3  0  0  0
  8 10  1  0  0  0  0
  8  6  1  0  0  0  0
  8 12  2  3  0  0  0
  9  5  2  0  0  0  0
 10  7  1  6  0  0  0
 10  6  1  0  0  0  0
 10 11  1  0  0  0  0
 12  9  1  0  0  0  0
 13 15  1  0  0  0  0
 15 14  1  0  0  0  0
 16 15  2  0  0  0  0
 17 18  1  0  0  0  0
 18 19  1  0  0  0  0
 19 21  1  0  0  0  0
 20 19  1  6  0  0  0
 20 28  1  0  0  0  0
 21 20  1  0  0  0  0
 21 31  1  1  0  0  0
 22 28  1  0  0  0  0
 25 23  2  0  0  0  0
 25 29  1  0  0  0  0
 26 24  1  6  0  0  0
 26 22  1  0  0  0  0
 26 25  1  0  0  0  0
 27 29  1  0  0  0  0
 28 27  1  1  0  0  0
 31 30  1  0  0  0  0
M  END
>  <MODEL>
9

>  <REMARK>
 VINA RESULT:      -6.9      2.173      8.540
  Name = 
  10 active torsions:
  status: ('A' for Active; 'I' for Inactive)
    1  A    between atoms: C_4  and  C_16
    2  A    between atoms: N_5  and  C_31
    3  A    between atoms: O_6  and  C_9
    4  A    between atoms: O_6  and  C_22
    5  A    between atoms: C_8  and  C_25
    6  A    between atoms: C_9  and  C_29
    7  A    between atoms: C_11  and  C_22
    8  A    between atoms: C_16  and  C_22
    9  A    between atoms: C_21  and  C_27
   10  A    between atoms: C_29  and  C_31
                            x       y       z     vdW  Elec       q    Type
                         _______ _______ _______ _____ _____    ______ ____

>  <TORSDO>
F 10

$$$$
