=
 OpenBabel10222418153D

 59 62  0  0  1  0  0  0  0  0999 V2000
  188.2270  178.4670  140.3330 C   0  0  0  0  0  2  0  0  0  0  0  0
  188.9630  177.2190  142.3810 C   0  0  0  0  0  3  0  0  0  0  0  0
  186.6320  177.9090  142.2770 C   0  0  0  0  0  2  0  0  0  0  0  0
  187.8540  177.5160  143.0640 C   0  0  0  0  0  0  0  0  0  0  0  0
  188.9430  177.2220  140.8790 C   0  0  2  0  0  3  0  0  0  0  0  0
  187.0080  178.9060  141.1690 C   0  0  2  0  0  3  0  0  0  0  0  0
  187.8240  177.5410  144.5530 C   0  0  0  0  0  0  0  0  0  0  0  0
  185.5510  178.6980  144.6740 C   0  0  0  0  0  1  0  0  0  0  0  0
  188.9360  177.0190  145.2310 C   0  0  0  0  0  3  0  0  0  0  0  0
  185.7480  178.5320  147.4820 O   0  0  0  0  0  1  0  0  0  0  0  0
  186.7440  178.0600  145.3180 C   0  0  0  0  0  0  0  0  0  0  0  0
  186.8020  178.0260  146.7230 C   0  0  0  0  0  0  0  0  0  0  0  0
  187.9650  177.4620  148.7630 O   0  0  0  0  0  1  0  0  0  0  0  0
  187.9200  177.4900  147.3730 C   0  0  0  0  0  0  0  0  0  0  0  0
  188.9930  176.9890  146.6310 C   0  0  0  0  0  0  0  0  0  0  0  0
  191.4420  176.8210  146.9630 C   0  0  0  0  0  1  0  0  0  0  0  0
  190.1050  176.4660  147.3000 O   0  0  0  0  0  0  0  0  0  0  0  0
  185.9150  179.1300  140.3310 O   0  0  0  0  0  0  0  0  0  0  0  0
  184.7990  178.7240  141.0740 C   0  0  0  0  0  2  0  0  0  0  0  0
  183.6070  178.5080  140.1570 C   0  0  0  0  0  2  0  0  0  0  0  0
  184.0620  178.3440  138.7850 N   0  0  0  0  0  2  0  0  0  0  0  0
  183.4670  177.1130  138.2890 C   0  0  0  0  0  2  0  0  0  0  0  0
  183.5780  177.0640  136.7960 C   0  0  0  0  0  0  0  0  0  0  0  0
  182.7370  177.6210  136.1080 O   0  0  0  0  0  0  0  0  0  0  0  0
  184.7040  176.3350  136.1260 C   0  0  1  0  0  3  0  0  0  0  0  0
  184.2530  175.0530  135.5970 N   0  0  0  0  0  2  0  0  0  0  0  0
  185.1190  173.9220  135.4720 C   0  0  0  0  0  0  0  0  0  0  0  0
  186.3130  173.9780  135.8650 O   0  0  0  0  0  0  0  0  0  0  0  0
  184.5900  172.6480  134.9050 C   0  0  0  0  0  2  0  0  0  0  0  0
  183.7340  171.6870  137.0430 C   0  0  0  0  0  1  0  0  0  0  0  0
  182.6770  171.0750  134.8940 C   0  0  0  0  0  1  0  0  0  0  0  0
  183.3510  172.1930  135.6630 C   0  0  0  0  0  3  0  0  0  0  0  0
  185.2850  177.1700  135.0230 C   0  0  0  0  0  3  0  0  0  0  0  0
  186.3960  177.9070  135.1710 C   0  0  0  0  0  3  0  0  0  0  0  0
  187.1620  177.9880  136.4580 C   0  0  1  0  0  3  0  0  0  0  0  0
  188.5290  177.4030  136.2730 C   0  0  0  0  0  2  0  0  0  0  0  0
  189.4530  178.4780  136.5830 N   0  0  0  0  0  2  0  0  0  0  0  0
  188.7090  179.4480  137.2810 N   0  0  0  0  0  2  0  0  0  0  0  0
  187.3820  179.3740  136.8170 N   0  0  0  0  0  2  0  0  0  0  0  0
  190.2460  177.1630  140.3840 O   0  0  0  0  0  0  0  0  0  0  0  0
  190.1960  176.2150  139.3580 C   0  0  0  0  0  2  0  0  0  0  0  0
  192.4920  176.8120  139.2380 O   0  0  0  0  0  1  0  0  0  0  0  0
  191.4220  176.3540  138.4650 C   0  0  1  0  0  3  0  0  0  0  0  0
  191.7850  175.0160  137.8110 C   0  0  1  0  0  3  0  0  0  0  0  0
  190.6240  174.2660  137.5950 O   0  0  0  0  0  1  0  0  0  0  0  0
  192.5030  175.2200  136.4710 C   0  0  2  0  0  3  0  0  0  0  0  0
  191.8570  173.5510  134.8620 O   0  0  0  0  0  1  0  0  0  0  0  0
  191.5980  174.8540  135.2970 C   0  0  0  0  0  2  0  0  0  0  0  0
  193.6820  174.4660  136.4060 O   0  0  0  0  0  0  0  0  0  0  0  0
  194.6950  175.3920  136.1260 C   0  0  2  0  0  3  0  0  0  0  0  0
  197.6230  176.0750  136.0140 O   0  0  0  0  0  1  0  0  0  0  0  0
  197.9820  174.5200  137.7850 C   0  0  0  0  0  2  0  0  0  0  0  0
  196.3530  174.2530  139.3160 C   0  0  0  0  0  2  0  0  0  0  0  0
  195.7180  175.3610  137.1860 N   0  0  0  0  0  0  0  0  0  0  0  0
  195.2690  174.4450  138.2420 C   0  0  0  0  0  2  0  0  0  0  0  0
  197.5150  174.9920  139.0240 O   0  0  0  0  0  0  0  0  0  0  0  0
  197.0470  174.9830  136.6610 C   0  0  1  0  0  3  0  0  0  0  0  0
  194.0820  176.7750  135.8900 C   0  0  0  0  0  2  0  0  0  0  0  0
  195.0410  177.6520  135.3780 O   0  0  0  0  0  1  0  0  0  0  0  0
  1  5  1  0  0  0  0
  1  6  1  0  0  0  0
  2  4  2  0  0  0  0
  3  4  1  0  0  0  0
  4  7  1  0  0  0  0
  5 40  1  6  0  0  0
  5  2  1  0  0  0  0
  6 18  1  6  0  0  0
  6  3  1  0  0  0  0
  7  9  2  0  0  0  0
  7 11  1  0  0  0  0
  8 11  1  0  0  0  0
  9 15  1  0  0  0  0
 11 12  2  0  0  0  0
 12 14  1  0  0  0  0
 12 10  1  0  0  0  0
 14 13  1  0  0  0  0
 15 17  1  0  0  0  0
 15 14  2  0  0  0  0
 16 17  1  0  0  0  0
 18 19  1  0  0  0  0
 20 19  1  0  0  0  0
 21 20  1  0  0  0  0
 22 21  1  0  0  0  0
 23 22  1  0  0  0  0
 24 23  2  0  0  0  0
 25 33  1  6  0  0  0
 25 23  1  0  0  0  0
 26 25  1  0  0  0  0
 27 26  1  0  0  0  0
 27 28  2  0  0  0  0
 29 27  1  0  0  0  0
 29 32  1  0  0  0  0
 31 32  1  0  0  0  0
 32 30  1  0  0  0  0
 33 34  2  0  0  0  0
 35 34  1  6  0  0  0
 35 39  1  0  0  0  0
 36 35  1  0  0  0  0
 36 37  1  0  0  0  0
 37 38  1  0  0  0  0
 39 38  1  0  0  0  0
 41 40  1  0  0  0  0
 43 42  1  1  0  0  0
 43 41  1  0  0  0  0
 44 45  1  6  0  0  0
 44 43  1  0  0  0  0
 46 48  1  6  0  0  0
 46 44  1  0  0  0  0
 47 48  1  0  0  0  0
 49 46  1  0  0  0  0
 50 58  1  1  0  0  0
 50 49  1  0  0  0  0
 50 54  1  0  0  0  0
 52 56  1  0  0  0  0
 54 55  1  0  0  0  0
 55 53  1  0  0  0  0
 56 53  1  0  0  0  0
 57 51  1  1  0  0  0
 57 54  1  0  0  0  0
 57 52  1  0  0  0  0
 59 58  1  0  0  0  0
M  END
>  <MODEL>
1

>  <REMARK>
 VINA RESULT:      -7.8      0.000      0.000
  Name = 
  24 active torsions:
  status: ('A' for Active; 'I' for Inactive)
    1  A    between atoms: C_3  and  C_17
    2  A    between atoms: C_6  and  N_24
    3  A    between atoms: C_6  and  C_48
    4  A    between atoms: C_7  and  C_56
    5  A    between atoms: N_10  and  C_43
    6  A    between atoms: C_12  and  C_16
    7  A    between atoms: C_13  and  C_32
    8  A    between atoms: C_14  and  N_24
    9  A    between atoms: C_14  and  C_55
   10  A    between atoms: O_15  and  C_48
   11  A    between atoms: O_15  and  C_52
   12  A    between atoms: C_16  and  O_29
   13  A    between atoms: C_16  and  N_34
   14  A    between atoms: C_21  and  C_33
   15  A    between atoms: C_21  and  C_46
   16  A    between atoms: O_23  and  C_31
   17  A    between atoms: O_23  and  C_40
   18  A    between atoms: O_29  and  C_33
   19  A    between atoms: C_31  and  C_46
   20  A    between atoms: C_32  and  C_58
   21  A    between atoms: C_33  and  C_35
   22  A    between atoms: C_38  and  C_43
   23  A    between atoms: C_43  and  C_55
   24  A    between atoms: C_45  and  O_49
                            x       y       z     vdW  Elec       q    Type
                         _______ _______ _______ _____ _____    ______ ____

>  <TORSDO>
F 24

$$$$
=
 OpenBabel10222418153D

 59 62  0  0  1  0  0  0  0  0999 V2000
  188.8680  178.0450  139.4160 C   0  0  0  0  0  2  0  0  0  0  0  0
  189.9090  176.7620  141.3040 C   0  0  0  0  0  3  0  0  0  0  0  0
  187.6520  177.6050  141.6440 C   0  0  0  0  0  2  0  0  0  0  0  0
  188.9770  177.1360  142.1850 C   0  0  0  0  0  0  0  0  0  0  0  0
  189.5960  176.7580  139.8350 C   0  0  2  0  0  3  0  0  0  0  0  0
  187.8670  178.5680  140.4660 C   0  0  2  0  0  3  0  0  0  0  0  0
  189.2410  177.1710  143.6510 C   0  0  0  0  0  0  0  0  0  0  0  0
  191.7730  176.9890  143.3880 C   0  0  0  0  0  1  0  0  0  0  0  0
  188.1310  177.2430  144.5060 C   0  0  0  0  0  3  0  0  0  0  0  0
  191.9590  177.1530  146.1960 O   0  0  0  0  0  1  0  0  0  0  0  0
  190.5400  177.1350  144.2250 C   0  0  0  0  0  0  0  0  0  0  0  0
  190.6890  177.1870  145.6230 C   0  0  0  0  0  0  0  0  0  0  0  0
  189.7230  177.3210  147.8320 O   0  0  0  0  0  1  0  0  0  0  0  0
  189.5630  177.2690  146.4520 C   0  0  0  0  0  0  0  0  0  0  0  0
  188.2800  177.2930  145.8980 C   0  0  0  0  0  0  0  0  0  0  0  0
  186.7490  178.5780  147.3600 C   0  0  0  0  0  1  0  0  0  0  0  0
  187.1680  177.3650  146.7440 O   0  0  0  0  0  0  0  0  0  0  0  0
  186.6480  178.8600  139.8530 O   0  0  0  0  0  0  0  0  0  0  0  0
  186.4570  177.8330  138.9200 C   0  0  0  0  0  2  0  0  0  0  0  0
  185.3530  178.2080  137.9450 C   0  0  0  0  0  2  0  0  0  0  0  0
  184.2800  177.2280  138.0130 N   0  0  0  0  0  2  0  0  0  0  0  0
  183.0510  177.9240  137.6700 C   0  0  0  0  0  2  0  0  0  0  0  0
  182.1230  177.9200  138.8460 C   0  0  0  0  0  0  0  0  0  0  0  0
  181.7450  176.8580  139.3150 O   0  0  0  0  0  0  0  0  0  0  0  0
  181.6410  179.2010  139.4580 C   0  0  1  0  0  3  0  0  0  0  0  0
  181.5990  179.1000  140.9120 N   0  0  0  0  0  2  0  0  0  0  0  0
  182.7050  178.6280  141.6860 C   0  0  0  0  0  0  0  0  0  0  0  0
  183.7930  178.3190  141.1330 O   0  0  0  0  0  0  0  0  0  0  0  0
  182.5810  178.5350  143.1690 C   0  0  0  0  0  2  0  0  0  0  0  0
  183.8180  178.7940  145.3210 C   0  0  0  0  0  1  0  0  0  0  0  0
  184.7890  179.6540  143.2170 C   0  0  0  0  0  1  0  0  0  0  0  0
  183.9530  178.5490  143.8280 C   0  0  0  0  0  3  0  0  0  0  0  0
  182.5250  180.3420  139.0480 C   0  0  0  0  0  3  0  0  0  0  0  0
  182.0670  181.4260  138.4020 C   0  0  0  0  0  3  0  0  0  0  0  0
  180.6310  181.6010  138.0080 C   0  0  1  0  0  3  0  0  0  0  0  0
  180.3220  183.0580  137.8480 C   0  0  0  0  0  2  0  0  0  0  0  0
  179.8870  183.2120  136.4720 N   0  0  0  0  0  2  0  0  0  0  0  0
  179.5720  181.9190  136.0120 N   0  0  0  0  0  2  0  0  0  0  0  0
  180.4000  181.0140  136.7030 N   0  0  0  0  0  2  0  0  0  0  0  0
  190.7700  176.6100  139.0960 O   0  0  0  0  0  0  0  0  0  0  0  0
  190.3460  176.1940  137.8310 C   0  0  0  0  0  2  0  0  0  0  0  0
  190.4050  173.8210  137.7390 O   0  0  0  0  0  1  0  0  0  0  0  0
  191.1350  174.9640  137.4010 C   0  0  1  0  0  3  0  0  0  0  0  0
  191.4080  174.9810  135.8930 C   0  0  1  0  0  3  0  0  0  0  0  0
  191.2400  176.2780  135.3980 O   0  0  0  0  0  1  0  0  0  0  0  0
  192.8300  174.5050  135.5730 C   0  0  2  0  0  3  0  0  0  0  0  0
  192.9200  172.1540  136.0780 O   0  0  0  0  0  1  0  0  0  0  0  0
  192.8280  173.0760  135.0330 C   0  0  0  0  0  2  0  0  0  0  0  0
  193.6580  174.5770  136.7010 O   0  0  0  0  0  0  0  0  0  0  0  0
  194.8940  175.0300  136.2220 C   0  0  2  0  0  3  0  0  0  0  0  0
  197.7790  175.8840  136.2060 O   0  0  0  0  0  1  0  0  0  0  0  0
  198.0860  174.6340  138.2140 C   0  0  0  0  0  2  0  0  0  0  0  0
  196.3620  174.4870  139.6520 C   0  0  0  0  0  2  0  0  0  0  0  0
  195.8320  175.2240  137.3410 N   0  0  0  0  0  0  0  0  0  0  0  0
  195.3550  174.4460  138.4910 C   0  0  0  0  0  2  0  0  0  0  0  0
  197.5000  175.2510  139.3320 O   0  0  0  0  0  0  0  0  0  0  0  0
  197.2170  174.8630  136.9710 C   0  0  1  0  0  3  0  0  0  0  0  0
  194.6890  176.2760  135.3550 C   0  0  0  0  0  2  0  0  0  0  0  0
  194.8450  177.4330  136.1210 O   0  0  0  0  0  1  0  0  0  0  0  0
  1  5  1  0  0  0  0
  1  6  1  0  0  0  0
  2  4  2  0  0  0  0
  3  4  1  0  0  0  0
  4  7  1  0  0  0  0
  5 40  1  6  0  0  0
  5  2  1  0  0  0  0
  6 18  1  6  0  0  0
  6  3  1  0  0  0  0
  7 11  2  0  0  0  0
  7  9  1  0  0  0  0
  8 11  1  0  0  0  0
  9 15  2  0  0  0  0
 11 12  1  0  0  0  0
 12 10  1  0  0  0  0
 12 14  2  0  0  0  0
 14 13  1  0  0  0  0
 15 14  1  0  0  0  0
 15 17  1  0  0  0  0
 17 16  1  0  0  0  0
 19 18  1  0  0  0  0
 20 21  1  0  0  0  0
 20 19  1  0  0  0  0
 22 21  1  0  0  0  0
 22 23  1  0  0  0  0
 23 24  2  0  0  0  0
 23 25  1  0  0  0  0
 25 33  1  1  0  0  0
 25 26  1  0  0  0  0
 26 27  1  0  0  0  0
 27 29  1  0  0  0  0
 28 27  2  0  0  0  0
 29 32  1  0  0  0  0
 31 32  1  0  0  0  0
 32 30  1  0  0  0  0
 34 33  2  0  0  0  0
 35 34  1  6  0  0  0
 36 35  1  0  0  0  0
 37 36  1  0  0  0  0
 38 37  1  0  0  0  0
 38 39  1  0  0  0  0
 39 35  1  0  0  0  0
 41 40  1  0  0  0  0
 43 42  1  6  0  0  0
 43 41  1  0  0  0  0
 44 45  1  1  0  0  0
 44 43  1  0  0  0  0
 46 48  1  1  0  0  0
 46 44  1  0  0  0  0
 46 49  1  0  0  0  0
 48 47  1  0  0  0  0
 50 58  1  1  0  0  0
 50 49  1  0  0  0  0
 50 54  1  0  0  0  0
 52 56  1  0  0  0  0
 54 55  1  0  0  0  0
 55 53  1  0  0  0  0
 56 53  1  0  0  0  0
 57 51  1  1  0  0  0
 57 54  1  0  0  0  0
 57 52  1  0  0  0  0
 58 59  1  0  0  0  0
M  END
>  <MODEL>
2

>  <REMARK>
 VINA RESULT:      -7.1      2.625      4.938
  Name = 
  24 active torsions:
  status: ('A' for Active; 'I' for Inactive)
    1  A    between atoms: C_3  and  C_17
    2  A    between atoms: C_6  and  N_24
    3  A    between atoms: C_6  and  C_48
    4  A    between atoms: C_7  and  C_56
    5  A    between atoms: N_10  and  C_43
    6  A    between atoms: C_12  and  C_16
    7  A    between atoms: C_13  and  C_32
    8  A    between atoms: C_14  and  N_24
    9  A    between atoms: C_14  and  C_55
   10  A    between atoms: O_15  and  C_48
   11  A    between atoms: O_15  and  C_52
   12  A    between atoms: C_16  and  O_29
   13  A    between atoms: C_16  and  N_34
   14  A    between atoms: C_21  and  C_33
   15  A    between atoms: C_21  and  C_46
   16  A    between atoms: O_23  and  C_31
   17  A    between atoms: O_23  and  C_40
   18  A    between atoms: O_29  and  C_33
   19  A    between atoms: C_31  and  C_46
   20  A    between atoms: C_32  and  C_58
   21  A    between atoms: C_33  and  C_35
   22  A    between atoms: C_38  and  C_43
   23  A    between atoms: C_43  and  C_55
   24  A    between atoms: C_45  and  O_49
                            x       y       z     vdW  Elec       q    Type
                         _______ _______ _______ _____ _____    ______ ____

>  <TORSDO>
F 24

$$$$
=
 OpenBabel10222418153D

 59 62  0  0  1  0  0  0  0  0999 V2000
  189.4780  177.9680  139.6930 C   0  0  0  0  0  2  0  0  0  0  0  0
  190.3080  176.7920  141.7470 C   0  0  0  0  0  3  0  0  0  0  0  0
  187.9780  177.4950  141.7330 C   0  0  0  0  0  2  0  0  0  0  0  0
  189.2350  177.1230  142.4730 C   0  0  0  0  0  0  0  0  0  0  0  0
  190.2140  176.7400  140.2490 C   0  0  2  0  0  3  0  0  0  0  0  0
  188.3040  178.4470  140.5710 C   0  0  2  0  0  3  0  0  0  0  0  0
  189.2790  177.2030  143.9600 C   0  0  0  0  0  0  0  0  0  0  0  0
  186.7830  177.6870  144.1930 C   0  0  0  0  0  1  0  0  0  0  0  0
  190.5260  177.0400  144.5800 C   0  0  0  0  0  3  0  0  0  0  0  0
  187.1670  177.7040  146.9860 O   0  0  0  0  0  1  0  0  0  0  0  0
  188.1390  177.4340  144.7770 C   0  0  0  0  0  0  0  0  0  0  0  0
  188.2790  177.4780  146.1760 C   0  0  0  0  0  0  0  0  0  0  0  0
  189.6600  177.3480  148.1520 O   0  0  0  0  0  1  0  0  0  0  0  0
  189.5350  177.3020  146.7680 C   0  0  0  0  0  0  0  0  0  0  0  0
  190.6650  177.0870  145.9730 C   0  0  0  0  0  0  0  0  0  0  0  0
  192.3590  175.6720  147.0970 C   0  0  0  0  0  1  0  0  0  0  0  0
  191.9130  176.9230  146.5840 O   0  0  0  0  0  0  0  0  0  0  0  0
  187.1730  178.6480  139.7800 O   0  0  0  0  0  0  0  0  0  0  0  0
  186.1010  178.1940  140.5590 C   0  0  0  0  0  2  0  0  0  0  0  0
  185.0750  179.3010  140.7360 C   0  0  0  0  0  2  0  0  0  0  0  0
  184.4610  179.6160  139.4560 N   0  0  0  0  0  2  0  0  0  0  0  0
  183.0260  179.4540  139.6250 C   0  0  0  0  0  2  0  0  0  0  0  0
  182.3000  180.3320  138.6530 C   0  0  0  0  0  0  0  0  0  0  0  0
  182.5400  181.5290  138.6230 O   0  0  0  0  0  0  0  0  0  0  0  0
  181.2740  179.7700  137.7160 C   0  0  1  0  0  3  0  0  0  0  0  0
  180.8310  180.7790  136.7610 N   0  0  0  0  0  2  0  0  0  0  0  0
  179.6400  181.5480  136.9480 C   0  0  0  0  0  0  0  0  0  0  0  0
  178.9410  181.4120  137.9860 O   0  0  0  0  0  0  0  0  0  0  0  0
  179.2410  182.5500  135.9180 C   0  0  0  0  0  2  0  0  0  0  0  0
  179.4160  184.7480  137.0880 C   0  0  0  0  0  1  0  0  0  0  0  0
  180.1150  184.5370  134.7260 C   0  0  0  0  0  1  0  0  0  0  0  0
  180.0570  183.8270  136.0630 C   0  0  0  0  0  3  0  0  0  0  0  0
  181.8270  178.5810  136.9860 C   0  0  0  0  0  3  0  0  0  0  0  0
  181.4210  177.3240  137.2220 C   0  0  0  0  0  3  0  0  0  0  0  0
  180.3870  176.9760  138.2510 C   0  0  1  0  0  3  0  0  0  0  0  0
  179.4150  175.9890  137.6790 C   0  0  0  0  0  2  0  0  0  0  0  0
  179.5050  174.8190  138.5340 N   0  0  0  0  0  2  0  0  0  0  0  0
  180.1430  175.2430  139.7150 N   0  0  0  0  0  2  0  0  0  0  0  0
  181.0100  176.2970  139.3700 N   0  0  0  0  0  2  0  0  0  0  0  0
  191.4900  176.6530  139.6930 O   0  0  0  0  0  0  0  0  0  0  0  0
  191.2730  176.5290  138.3180 C   0  0  0  0  0  2  0  0  0  0  0  0
  190.3100  174.4320  137.7540 O   0  0  0  0  0  1  0  0  0  0  0  0
  191.5340  175.0930  137.8810 C   0  0  1  0  0  3  0  0  0  0  0  0
  192.2910  175.0490  136.5490 C   0  0  1  0  0  3  0  0  0  0  0  0
  191.7850  176.0270  135.6860 O   0  0  0  0  0  1  0  0  0  0  0  0
  193.7940  175.2870  136.7460 C   0  0  2  0  0  3  0  0  0  0  0  0
  194.8650  177.3060  135.9920 O   0  0  0  0  0  1  0  0  0  0  0  0
  194.3900  176.0610  135.5720 C   0  0  0  0  0  2  0  0  0  0  0  0
  194.4840  174.0790  136.9090 O   0  0  0  0  0  0  0  0  0  0  0  0
  195.6910  174.4250  137.5290 C   0  0  2  0  0  3  0  0  0  0  0  0
  196.4140  171.5800  136.8730 O   0  0  0  0  0  1  0  0  0  0  0  0
  198.7010  172.2510  136.8060 C   0  0  0  0  0  2  0  0  0  0  0  0
  199.1810  174.3350  136.1040 C   0  0  0  0  0  2  0  0  0  0  0  0
  196.8280  173.8880  136.7630 N   0  0  0  0  0  0  0  0  0  0  0  0
  197.9060  174.8850  136.7660 C   0  0  0  0  0  2  0  0  0  0  0  0
  199.0110  173.0090  135.6640 O   0  0  0  0  0  0  0  0  0  0  0  0
  197.2850  172.5850  137.2900 C   0  0  1  0  0  3  0  0  0  0  0  0
  195.6640  173.9880  138.9970 C   0  0  0  0  0  2  0  0  0  0  0  0
  196.2740  174.9500  139.8030 O   0  0  0  0  0  1  0  0  0  0  0  0
  1  5  1  0  0  0  0
  1  6  1  0  0  0  0
  2  4  2  0  0  0  0
  3  4  1  0  0  0  0
  4  7  1  0  0  0  0
  5 40  1  6  0  0  0
  5  2  1  0  0  0  0
  6 18  1  6  0  0  0
  6  3  1  0  0  0  0
  7  9  2  0  0  0  0
  7 11  1  0  0  0  0
  8 11  1  0  0  0  0
  9 15  1  0  0  0  0
 11 12  2  0  0  0  0
 12 14  1  0  0  0  0
 12 10  1  0  0  0  0
 14 13  1  0  0  0  0
 15 17  1  0  0  0  0
 15 14  2  0  0  0  0
 17 16  1  0  0  0  0
 18 19  1  0  0  0  0
 19 20  1  0  0  0  0
 21 22  1  0  0  0  0
 21 20  1  0  0  0  0
 23 22  1  0  0  0  0
 24 23  2  0  0  0  0
 25 33  1  6  0  0  0
 25 23  1  0  0  0  0
 26 27  1  0  0  0  0
 26 25  1  0  0  0  0
 27 28  2  0  0  0  0
 29 32  1  0  0  0  0
 29 27  1  0  0  0  0
 31 32  1  0  0  0  0
 32 30  1  0  0  0  0
 33 34  2  0  0  0  0
 35 34  1  6  0  0  0
 35 39  1  0  0  0  0
 36 35  1  0  0  0  0
 36 37  1  0  0  0  0
 37 38  1  0  0  0  0
 39 38  1  0  0  0  0
 41 40  1  0  0  0  0
 43 42  1  6  0  0  0
 43 41  1  0  0  0  0
 44 45  1  6  0  0  0
 44 46  1  0  0  0  0
 44 43  1  0  0  0  0
 46 48  1  6  0  0  0
 46 49  1  0  0  0  0
 48 47  1  0  0  0  0
 49 50  1  0  0  0  0
 50 58  1  1  0  0  0
 52 57  1  0  0  0  0
 53 55  1  0  0  0  0
 54 55  1  0  0  0  0
 54 57  1  0  0  0  0
 54 50  1  0  0  0  0
 56 53  1  0  0  0  0
 56 52  1  0  0  0  0
 57 51  1  6  0  0  0
 58 59  1  0  0  0  0
M  END
>  <MODEL>
3

>  <REMARK>
 VINA RESULT:      -6.7      3.134      5.343
  Name = 
  24 active torsions:
  status: ('A' for Active; 'I' for Inactive)
    1  A    between atoms: C_3  and  C_17
    2  A    between atoms: C_6  and  N_24
    3  A    between atoms: C_6  and  C_48
    4  A    between atoms: C_7  and  C_56
    5  A    between atoms: N_10  and  C_43
    6  A    between atoms: C_12  and  C_16
    7  A    between atoms: C_13  and  C_32
    8  A    between atoms: C_14  and  N_24
    9  A    between atoms: C_14  and  C_55
   10  A    between atoms: O_15  and  C_48
   11  A    between atoms: O_15  and  C_52
   12  A    between atoms: C_16  and  O_29
   13  A    between atoms: C_16  and  N_34
   14  A    between atoms: C_21  and  C_33
   15  A    between atoms: C_21  and  C_46
   16  A    between atoms: O_23  and  C_31
   17  A    between atoms: O_23  and  C_40
   18  A    between atoms: O_29  and  C_33
   19  A    between atoms: C_31  and  C_46
   20  A    between atoms: C_32  and  C_58
   21  A    between atoms: C_33  and  C_35
   22  A    between atoms: C_38  and  C_43
   23  A    between atoms: C_43  and  C_55
   24  A    between atoms: C_45  and  O_49
                            x       y       z     vdW  Elec       q    Type
                         _______ _______ _______ _____ _____    ______ ____

>  <TORSDO>
F 24

$$$$
=
 OpenBabel10222418153D

 59 62  0  0  1  0  0  0  0  0999 V2000
  188.3550  178.4090  140.3110 C   0  0  0  0  0  2  0  0  0  0  0  0
  189.4590  177.1940  142.2070 C   0  0  0  0  0  3  0  0  0  0  0  0
  187.1250  177.8200  142.4970 C   0  0  0  0  0  2  0  0  0  0  0  0
  188.4730  177.4650  143.0670 C   0  0  0  0  0  0  0  0  0  0  0  0
  189.1870  177.1870  140.7310 C   0  0  2  0  0  3  0  0  0  0  0  0
  187.2820  178.8200  141.3400 C   0  0  2  0  0  3  0  0  0  0  0  0
  188.6930  177.4980  144.5400 C   0  0  0  0  0  0  0  0  0  0  0  0
  191.1370  176.7790  144.3790 C   0  0  0  0  0  1  0  0  0  0  0  0
  187.5980  177.8330  145.3510 C   0  0  0  0  0  3  0  0  0  0  0  0
  191.2670  177.0040  147.1860 O   0  0  0  0  0  1  0  0  0  0  0  0
  189.9370  177.2110  145.1640 C   0  0  0  0  0  0  0  0  0  0  0  0
  190.0510  177.2830  146.5650 C   0  0  0  0  0  0  0  0  0  0  0  0
  189.0680  177.6980  148.7310 O   0  0  0  0  0  1  0  0  0  0  0  0
  188.9430  177.6300  147.3480 C   0  0  0  0  0  0  0  0  0  0  0  0
  187.7120  177.9020  146.7450 C   0  0  0  0  0  0  0  0  0  0  0  0
  185.3520  178.6090  147.0050 C   0  0  0  0  0  1  0  0  0  0  0  0
  186.6150  178.2370  147.5470 O   0  0  0  0  0  0  0  0  0  0  0  0
  186.0580  179.0090  140.6980 O   0  0  0  0  0  0  0  0  0  0  0  0
  185.1010  178.9600  141.7190 C   0  0  0  0  0  2  0  0  0  0  0  0
  183.7030  178.8990  141.1270 C   0  0  0  0  0  2  0  0  0  0  0  0
  183.7410  178.2320  139.8360 N   0  0  0  0  0  2  0  0  0  0  0  0
  182.8420  177.0930  139.9230 C   0  0  0  0  0  2  0  0  0  0  0  0
  182.3830  176.7050  138.5510 C   0  0  0  0  0  0  0  0  0  0  0  0
  181.3150  177.1210  138.1300 O   0  0  0  0  0  0  0  0  0  0  0  0
  183.2090  175.8050  137.6820 C   0  0  1  0  0  3  0  0  0  0  0  0
  182.5490  174.5200  137.4860 N   0  0  0  0  0  2  0  0  0  0  0  0
  183.1900  173.4120  136.8480 C   0  0  0  0  0  0  0  0  0  0  0  0
  184.3870  173.4920  136.4670 O   0  0  0  0  0  0  0  0  0  0  0  0
  182.4440  172.1340  136.6660 C   0  0  0  0  0  2  0  0  0  0  0  0
  180.1240  171.3810  137.1940 C   0  0  0  0  0  1  0  0  0  0  0  0
  180.6540  172.3020  134.9630 C   0  0  0  0  0  1  0  0  0  0  0  0
  180.9620  172.4010  136.4420 C   0  0  0  0  0  3  0  0  0  0  0  0
  183.4730  176.4550  136.3550 C   0  0  0  0  0  3  0  0  0  0  0  0
  184.6810  176.9080  135.9910 C   0  0  0  0  0  3  0  0  0  0  0  0
  185.8890  176.8290  136.8750 C   0  0  1  0  0  3  0  0  0  0  0  0
  187.0140  176.1640  136.1420 C   0  0  0  0  0  2  0  0  0  0  0  0
  188.0870  177.1400  136.1130 N   0  0  0  0  0  2  0  0  0  0  0  0
  187.7700  178.1020  137.0910 N   0  0  0  0  0  2  0  0  0  0  0  0
  186.3670  178.1630  137.1820 N   0  0  0  0  0  2  0  0  0  0  0  0
  190.3890  177.1610  140.0230 O   0  0  0  0  0  0  0  0  0  0  0  0
  190.3590  175.9570  139.3130 C   0  0  0  0  0  2  0  0  0  0  0  0
  191.5300  177.4300  137.8650 O   0  0  0  0  0  1  0  0  0  0  0  0
  190.9490  176.1610  137.9240 C   0  0  1  0  0  3  0  0  0  0  0  0
  192.0000  175.0910  137.6070 C   0  0  1  0  0  3  0  0  0  0  0  0
  191.3910  173.8340  137.5500 O   0  0  0  0  0  1  0  0  0  0  0  0
  192.7000  175.3680  136.2700 C   0  0  2  0  0  3  0  0  0  0  0  0
  191.2440  176.2950  134.5940 O   0  0  0  0  0  1  0  0  0  0  0  0
  191.7670  175.0990  135.0910 C   0  0  0  0  0  2  0  0  0  0  0  0
  193.8610  174.5950  136.1340 O   0  0  0  0  0  0  0  0  0  0  0  0
  194.9030  175.5200  135.9960 C   0  0  2  0  0  3  0  0  0  0  0  0
  197.8060  174.9610  135.4350 O   0  0  0  0  0  1  0  0  0  0  0  0
  197.8420  173.5770  137.3760 C   0  0  0  0  0  2  0  0  0  0  0  0
  196.5200  174.1370  139.1090 C   0  0  0  0  0  2  0  0  0  0  0  0
  196.0020  175.1880  136.9200 N   0  0  0  0  0  0  0  0  0  0  0  0
  195.4250  174.6390  138.1530 C   0  0  0  0  0  2  0  0  0  0  0  0
  197.8080  174.3170  138.5700 O   0  0  0  0  0  0  0  0  0  0  0  0
  196.9780  174.2610  136.3100 C   0  0  1  0  0  3  0  0  0  0  0  0
  194.3600  176.9420  136.1570 C   0  0  0  0  0  2  0  0  0  0  0  0
  195.1290  177.8450  135.4200 O   0  0  0  0  0  1  0  0  0  0  0  0
  1  5  1  0  0  0  0
  1  6  1  0  0  0  0
  2  4  2  0  0  0  0
  3  4  1  0  0  0  0
  4  7  1  0  0  0  0
  5 40  1  6  0  0  0
  5  2  1  0  0  0  0
  6 18  1  6  0  0  0
  6  3  1  0  0  0  0
  7 11  2  0  0  0  0
  7  9  1  0  0  0  0
  8 11  1  0  0  0  0
  9 15  2  0  0  0  0
 11 12  1  0  0  0  0
 12 10  1  0  0  0  0
 12 14  2  0  0  0  0
 14 13  1  0  0  0  0
 15 14  1  0  0  0  0
 15 17  1  0  0  0  0
 16 17  1  0  0  0  0
 18 19  1  0  0  0  0
 20 19  1  0  0  0  0
 21 22  1  0  0  0  0
 21 20  1  0  0  0  0
 23 22  1  0  0  0  0
 24 23  2  0  0  0  0
 25 33  1  6  0  0  0
 25 23  1  0  0  0  0
 26 25  1  0  0  0  0
 27 26  1  0  0  0  0
 28 27  2  0  0  0  0
 29 27  1  0  0  0  0
 31 32  1  0  0  0  0
 32 29  1  0  0  0  0
 32 30  1  0  0  0  0
 34 33  2  0  0  0  0
 35 34  1  6  0  0  0
 35 39  1  0  0  0  0
 36 35  1  0  0  0  0
 37 36  1  0  0  0  0
 37 38  1  0  0  0  0
 38 39  1  0  0  0  0
 41 40  1  0  0  0  0
 43 42  1  1  0  0  0
 43 41  1  0  0  0  0
 44 45  1  6  0  0  0
 44 43  1  0  0  0  0
 46 48  1  6  0  0  0
 46 44  1  0  0  0  0
 47 48  1  0  0  0  0
 49 46  1  0  0  0  0
 50 49  1  0  0  0  0
 50 58  1  1  0  0  0
 50 54  1  0  0  0  0
 52 56  1  0  0  0  0
 54 55  1  0  0  0  0
 55 53  1  0  0  0  0
 56 53  1  0  0  0  0
 57 51  1  6  0  0  0
 57 54  1  0  0  0  0
 57 52  1  0  0  0  0
 59 58  1  0  0  0  0
M  END
>  <MODEL>
4

>  <REMARK>
 VINA RESULT:      -6.6      1.344      2.144
  Name = 
  24 active torsions:
  status: ('A' for Active; 'I' for Inactive)
    1  A    between atoms: C_3  and  C_17
    2  A    between atoms: C_6  and  N_24
    3  A    between atoms: C_6  and  C_48
    4  A    between atoms: C_7  and  C_56
    5  A    between atoms: N_10  and  C_43
    6  A    between atoms: C_12  and  C_16
    7  A    between atoms: C_13  and  C_32
    8  A    between atoms: C_14  and  N_24
    9  A    between atoms: C_14  and  C_55
   10  A    between atoms: O_15  and  C_48
   11  A    between atoms: O_15  and  C_52
   12  A    between atoms: C_16  and  O_29
   13  A    between atoms: C_16  and  N_34
   14  A    between atoms: C_21  and  C_33
   15  A    between atoms: C_21  and  C_46
   16  A    between atoms: O_23  and  C_31
   17  A    between atoms: O_23  and  C_40
   18  A    between atoms: O_29  and  C_33
   19  A    between atoms: C_31  and  C_46
   20  A    between atoms: C_32  and  C_58
   21  A    between atoms: C_33  and  C_35
   22  A    between atoms: C_38  and  C_43
   23  A    between atoms: C_43  and  C_55
   24  A    between atoms: C_45  and  O_49
                            x       y       z     vdW  Elec       q    Type
                         _______ _______ _______ _____ _____    ______ ____

>  <TORSDO>
F 24

$$$$
=
 OpenBabel10222418153D

 59 62  0  0  1  0  0  0  0  0999 V2000
  189.3590  178.0170  139.6480 C   0  0  0  0  0  2  0  0  0  0  0  0
  190.3960  176.8260  141.5970 C   0  0  0  0  0  3  0  0  0  0  0  0
  188.0670  177.4960  141.8150 C   0  0  0  0  0  2  0  0  0  0  0  0
  189.3940  177.1320  142.4260 C   0  0  0  0  0  0  0  0  0  0  0  0
  190.1600  176.7920  140.1140 C   0  0  2  0  0  3  0  0  0  0  0  0
  188.2680  178.4680  140.6420 C   0  0  2  0  0  3  0  0  0  0  0  0
  189.5800  177.1940  143.9030 C   0  0  0  0  0  0  0  0  0  0  0  0
  191.9100  176.1540  143.8420 C   0  0  0  0  0  1  0  0  0  0  0  0
  188.5190  177.7020  144.6670 C   0  0  0  0  0  3  0  0  0  0  0  0
  191.9970  176.4710  146.6420 O   0  0  0  0  0  1  0  0  0  0  0  0
  190.7580  176.7710  144.5740 C   0  0  0  0  0  0  0  0  0  0  0  0
  190.8450  176.8830  145.9750 C   0  0  0  0  0  0  0  0  0  0  0  0
  189.8720  177.5080  148.0930 O   0  0  0  0  0  1  0  0  0  0  0  0
  189.7740  177.4030  146.7110 C   0  0  0  0  0  0  0  0  0  0  0  0
  188.6050  177.8100  146.0610 C   0  0  0  0  0  0  0  0  0  0  0  0
  186.2020  177.8650  146.6600 C   0  0  0  0  0  1  0  0  0  0  0  0
  187.5420  178.3190  146.8160 O   0  0  0  0  0  0  0  0  0  0  0  0
  187.0640  178.6630  139.9650 O   0  0  0  0  0  0  0  0  0  0  0  0
  186.0700  178.2840  140.8770 C   0  0  0  0  0  2  0  0  0  0  0  0
  184.9380  179.2970  140.8720 C   0  0  0  0  0  2  0  0  0  0  0  0
  184.5490  179.5970  139.5030 N   0  0  0  0  0  2  0  0  0  0  0  0
  183.1200  179.3480  139.4070 C   0  0  0  0  0  2  0  0  0  0  0  0
  182.4690  180.4390  138.6150 C   0  0  0  0  0  0  0  0  0  0  0  0
  182.9010  181.5790  138.6860 O   0  0  0  0  0  0  0  0  0  0  0  0
  181.2860  180.1610  137.7360 C   0  0  1  0  0  3  0  0  0  0  0  0
  180.9150  178.7520  137.7930 N   0  0  0  0  0  2  0  0  0  0  0  0
  181.2970  177.8120  136.7850 C   0  0  0  0  0  0  0  0  0  0  0  0
  182.0210  178.1630  135.8170 O   0  0  0  0  0  0  0  0  0  0  0  0
  180.8640  176.3900  136.9020 C   0  0  0  0  0  2  0  0  0  0  0  0
  178.9310  174.9500  136.2570 C   0  0  0  0  0  1  0  0  0  0  0  0
  180.6690  175.5140  134.5940 C   0  0  0  0  0  1  0  0  0  0  0  0
  179.8920  176.0280  135.7870 C   0  0  0  0  0  3  0  0  0  0  0  0
  180.1210  181.0150  138.1400 C   0  0  0  0  0  3  0  0  0  0  0  0
  179.7460  182.1090  137.4600 C   0  0  0  0  0  3  0  0  0  0  0  0
  180.4600  182.6010  136.2370 C   0  0  1  0  0  3  0  0  0  0  0  0
  179.4640  182.9760  135.1830 C   0  0  0  0  0  2  0  0  0  0  0  0
  179.7020  184.3820  134.9110 N   0  0  0  0  0  2  0  0  0  0  0  0
  180.9730  184.6760  135.4400 N   0  0  0  0  0  2  0  0  0  0  0  0
  181.1780  183.8230  136.5410 N   0  0  0  0  0  2  0  0  0  0  0  0
  191.3780  176.7300  139.4370 O   0  0  0  0  0  0  0  0  0  0  0  0
  191.0340  176.7310  138.0820 C   0  0  0  0  0  2  0  0  0  0  0  0
  189.3410  175.8310  136.6820 O   0  0  0  0  0  1  0  0  0  0  0  0
  190.1600  175.5240  137.7710 C   0  0  1  0  0  3  0  0  0  0  0  0
  191.0130  174.2910  137.4510 C   0  0  1  0  0  3  0  0  0  0  0  0
  190.3770  173.5180  136.4740 O   0  0  0  0  0  1  0  0  0  0  0  0
  192.4070  174.6850  136.9470 C   0  0  2  0  0  3  0  0  0  0  0  0
  192.5710  176.0090  134.9440 O   0  0  0  0  0  1  0  0  0  0  0  0
  192.4590  174.7000  135.4210 C   0  0  0  0  0  2  0  0  0  0  0  0
  193.3910  173.8170  137.4400 O   0  0  0  0  0  0  0  0  0  0  0  0
  194.5400  174.6050  137.5760 C   0  0  2  0  0  3  0  0  0  0  0  0
  195.9360  172.0260  138.2460 O   0  0  0  0  0  1  0  0  0  0  0  0
  197.9280  172.9430  137.3100 C   0  0  0  0  0  2  0  0  0  0  0  0
  197.7350  174.3750  135.5850 C   0  0  0  0  0  2  0  0  0  0  0  0
  195.6860  173.9490  136.9230 N   0  0  0  0  0  0  0  0  0  0  0  0
  196.4420  174.9630  136.1770 C   0  0  0  0  0  2  0  0  0  0  0  0
  197.8860  173.0130  135.9070 O   0  0  0  0  0  0  0  0  0  0  0  0
  196.5400  173.2310  137.8930 C   0  0  1  0  0  3  0  0  0  0  0  0
  194.7690  174.9380  139.0530 C   0  0  0  0  0  2  0  0  0  0  0  0
  194.4980  176.2850  139.2970 O   0  0  0  0  0  1  0  0  0  0  0  0
  1  5  1  0  0  0  0
  1  6  1  0  0  0  0
  2  4  2  0  0  0  0
  3  4  1  0  0  0  0
  4  7  1  0  0  0  0
  5 40  1  6  0  0  0
  5  2  1  0  0  0  0
  6 18  1  6  0  0  0
  6  3  1  0  0  0  0
  7 11  2  0  0  0  0
  7  9  1  0  0  0  0
  8 11  1  0  0  0  0
  9 15  2  0  0  0  0
 11 12  1  0  0  0  0
 12 10  1  0  0  0  0
 12 14  2  0  0  0  0
 14 13  1  0  0  0  0
 15 14  1  0  0  0  0
 15 17  1  0  0  0  0
 16 17  1  0  0  0  0
 18 19  1  0  0  0  0
 20 19  1  0  0  0  0
 21 20  1  0  0  0  0
 22 21  1  0  0  0  0
 23 24  2  0  0  0  0
 23 22  1  0  0  0  0
 25 26  1  0  0  0  0
 25 33  1  1  0  0  0
 25 23  1  0  0  0  0
 27 29  1  0  0  0  0
 27 26  1  0  0  0  0
 28 27  2  0  0  0  0
 31 32  1  0  0  0  0
 32 30  1  0  0  0  0
 32 29  1  0  0  0  0
 34 33  2  0  0  0  0
 35 39  1  0  0  0  0
 35 34  1  1  0  0  0
 36 35  1  0  0  0  0
 37 36  1  0  0  0  0
 37 38  1  0  0  0  0
 38 39  1  0  0  0  0
 41 40  1  0  0  0  0
 43 42  1  6  0  0  0
 43 41  1  0  0  0  0
 44 45  1  6  0  0  0
 44 43  1  0  0  0  0
 46 48  1  6  0  0  0
 46 49  1  0  0  0  0
 46 44  1  0  0  0  0
 47 48  1  0  0  0  0
 49 50  1  0  0  0  0
 50 58  1  1  0  0  0
 52 57  1  0  0  0  0
 53 56  1  0  0  0  0
 53 55  1  0  0  0  0
 54 50  1  0  0  0  0
 54 57  1  0  0  0  0
 55 54  1  0  0  0  0
 56 52  1  0  0  0  0
 57 51  1  6  0  0  0
 58 59  1  0  0  0  0
M  END
>  <MODEL>
5

>  <REMARK>
 VINA RESULT:      -6.4      3.064      4.534
  Name = 
  24 active torsions:
  status: ('A' for Active; 'I' for Inactive)
    1  A    between atoms: C_3  and  C_17
    2  A    between atoms: C_6  and  N_24
    3  A    between atoms: C_6  and  C_48
    4  A    between atoms: C_7  and  C_56
    5  A    between atoms: N_10  and  C_43
    6  A    between atoms: C_12  and  C_16
    7  A    between atoms: C_13  and  C_32
    8  A    between atoms: C_14  and  N_24
    9  A    between atoms: C_14  and  C_55
   10  A    between atoms: O_15  and  C_48
   11  A    between atoms: O_15  and  C_52
   12  A    between atoms: C_16  and  O_29
   13  A    between atoms: C_16  and  N_34
   14  A    between atoms: C_21  and  C_33
   15  A    between atoms: C_21  and  C_46
   16  A    between atoms: O_23  and  C_31
   17  A    between atoms: O_23  and  C_40
   18  A    between atoms: O_29  and  C_33
   19  A    between atoms: C_31  and  C_46
   20  A    between atoms: C_32  and  C_58
   21  A    between atoms: C_33  and  C_35
   22  A    between atoms: C_38  and  C_43
   23  A    between atoms: C_43  and  C_55
   24  A    between atoms: C_45  and  O_49
                            x       y       z     vdW  Elec       q    Type
                         _______ _______ _______ _____ _____    ______ ____

>  <TORSDO>
F 24

$$$$
=
 OpenBabel10222418153D

 59 62  0  0  1  0  0  0  0  0999 V2000
  189.7200  176.2870  136.7140 C   0  0  0  0  0  2  0  0  0  0  0  0
  191.0210  174.3350  135.8240 C   0  0  0  0  0  3  0  0  0  0  0  0
  191.7290  175.2630  137.9600 C   0  0  0  0  0  2  0  0  0  0  0  0
  192.0200  174.4940  136.6980 C   0  0  0  0  0  0  0  0  0  0  0  0
  189.6520  174.8610  136.1450 C   0  0  2  0  0  3  0  0  0  0  0  0
  190.9310  176.5360  137.6370 C   0  0  2  0  0  3  0  0  0  0  0  0
  193.3990  174.0040  136.4220 C   0  0  0  0  0  0  0  0  0  0  0  0
  194.2740  176.2980  135.7220 C   0  0  0  0  0  1  0  0  0  0  0  0
  193.6460  172.6350  136.5950 C   0  0  0  0  0  3  0  0  0  0  0  0
  196.7980  175.0950  135.3580 O   0  0  0  0  0  1  0  0  0  0  0  0
  194.4680  174.8390  135.9970 C   0  0  0  0  0  0  0  0  0  0  0  0
  195.7430  174.2850  135.7750 C   0  0  0  0  0  0  0  0  0  0  0  0
  197.2260  172.3810  135.7430 O   0  0  0  0  0  1  0  0  0  0  0  0
  195.9630  172.9150  135.9660 C   0  0  0  0  0  0  0  0  0  0  0  0
  194.9150  172.0840  136.3710 C   0  0  0  0  0  0  0  0  0  0  0  0
  195.4420  170.1430  137.8170 C   0  0  0  0  0  1  0  0  0  0  0  0
  195.1530  170.7160  136.5470 O   0  0  0  0  0  0  0  0  0  0  0  0
  190.5080  177.1520  138.8160 O   0  0  0  0  0  0  0  0  0  0  0  0
  189.2510  177.6890  138.5130 C   0  0  0  0  0  2  0  0  0  0  0  0
  188.7460  178.5320  139.6720 C   0  0  0  0  0  2  0  0  0  0  0  0
  188.1020  177.6790  140.6590 N   0  0  0  0  0  2  0  0  0  0  0  0
  188.1960  178.3680  141.9360 C   0  0  0  0  0  2  0  0  0  0  0  0
  187.8130  177.4340  143.0430 C   0  0  0  0  0  0  0  0  0  0  0  0
  188.0390  176.2390  142.9320 O   0  0  0  0  0  0  0  0  0  0  0  0
  187.1480  177.9390  144.2880 C   0  0  1  0  0  3  0  0  0  0  0  0
  185.7810  178.3660  144.0120 N   0  0  0  0  0  2  0  0  0  0  0  0
  185.0170  179.1500  144.9320 C   0  0  0  0  0  0  0  0  0  0  0  0
  185.5210  179.5480  146.0140 O   0  0  0  0  0  0  0  0  0  0  0  0
  183.6170  179.5340  144.5870 C   0  0  0  0  0  2  0  0  0  0  0  0
  183.6670  178.7770  142.2100 C   0  0  0  0  0  1  0  0  0  0  0  0
  181.5350  178.8070  143.4600 C   0  0  0  0  0  1  0  0  0  0  0  0
  183.0270  178.5670  143.5710 C   0  0  0  0  0  3  0  0  0  0  0  0
  187.1490  176.8780  145.3490 C   0  0  0  0  0  3  0  0  0  0  0  0
  188.1530  176.7230  146.2260 C   0  0  0  0  0  3  0  0  0  0  0  0
  189.3830  177.5800  146.2260 C   0  0  1  0  0  3  0  0  0  0  0  0
  189.9970  177.5880  147.5930 C   0  0  0  0  0  2  0  0  0  0  0  0
  191.3370  177.0580  147.4170 N   0  0  0  0  0  2  0  0  0  0  0  0
  191.6130  177.1360  146.0390 N   0  0  0  0  0  2  0  0  0  0  0  0
  190.3890  177.0030  145.3560 N   0  0  0  0  0  2  0  0  0  0  0  0
  188.8510  174.8390  135.0030 O   0  0  0  0  0  0  0  0  0  0  0  0
  187.5440  174.7230  135.4850 C   0  0  0  0  0  2  0  0  0  0  0  0
  187.3740  172.4060  134.9940 O   0  0  0  0  0  1  0  0  0  0  0  0
  186.8000  173.6460  134.7060 C   0  0  1  0  0  3  0  0  0  0  0  0
  185.3110  173.6300  135.0700 C   0  0  1  0  0  3  0  0  0  0  0  0
  184.8590  172.3090  135.1500 O   0  0  0  0  0  1  0  0  0  0  0  0
  185.0510  174.3280  136.4110 C   0  0  2  0  0  3  0  0  0  0  0  0
  186.0190  172.8770  138.0690 O   0  0  0  0  0  1  0  0  0  0  0  0
  184.8080  173.3120  137.5260 C   0  0  0  0  0  2  0  0  0  0  0  0
  183.9580  175.2000  136.3280 O   0  0  0  0  0  0  0  0  0  0  0  0
  184.3400  176.3390  137.0480 C   0  0  2  0  0  3  0  0  0  0  0  0
  182.6350  175.5900  139.4100 O   0  0  0  0  0  1  0  0  0  0  0  0
  180.7980  176.6670  138.3360 C   0  0  0  0  0  2  0  0  0  0  0  0
  181.2220  178.4590  137.0420 C   0  0  0  0  0  2  0  0  0  0  0  0
  183.1540  177.0060  137.6110 N   0  0  0  0  0  0  0  0  0  0  0  0
  182.5480  177.8420  136.5670 C   0  0  0  0  0  2  0  0  0  0  0  0
  180.9050  178.0680  138.3570 O   0  0  0  0  0  0  0  0  0  0  0  0
  182.1870  176.0380  138.1690 C   0  0  1  0  0  3  0  0  0  0  0  0
  185.2060  177.2430  136.1650 C   0  0  0  0  0  2  0  0  0  0  0  0
  186.1870  177.8760  136.9300 O   0  0  0  0  0  1  0  0  0  0  0  0
  1  6  1  0  0  0  0
  2  5  1  0  0  0  0
  2  4  2  0  0  0  0
  4  3  1  0  0  0  0
  5 40  1  6  0  0  0
  5  1  1  0  0  0  0
  6  3  1  0  0  0  0
  6 18  1  1  0  0  0
  7  9  1  0  0  0  0
  7  4  1  0  0  0  0
  8 11  1  0  0  0  0
 10 12  1  0  0  0  0
 11  7  2  0  0  0  0
 12 14  2  0  0  0  0
 12 11  1  0  0  0  0
 13 14  1  0  0  0  0
 14 15  1  0  0  0  0
 15 17  1  0  0  0  0
 15  9  2  0  0  0  0
 17 16  1  0  0  0  0
 19 18  1  0  0  0  0
 19 20  1  0  0  0  0
 20 21  1  0  0  0  0
 21 22  1  0  0  0  0
 22 23  1  0  0  0  0
 23 25  1  0  0  0  0
 24 23  2  0  0  0  0
 25 33  1  1  0  0  0
 26 25  1  0  0  0  0
 26 27  1  0  0  0  0
 27 28  2  0  0  0  0
 29 27  1  0  0  0  0
 30 32  1  0  0  0  0
 31 32  1  0  0  0  0
 32 29  1  0  0  0  0
 33 34  2  0  0  0  0
 35 34  1  1  0  0  0
 35 36  1  0  0  0  0
 37 36  1  0  0  0  0
 38 37  1  0  0  0  0
 39 38  1  0  0  0  0
 39 35  1  0  0  0  0
 40 41  1  0  0  0  0
 43 42  1  1  0  0  0
 43 44  1  0  0  0  0
 43 41  1  0  0  0  0
 44 45  1  1  0  0  0
 44 46  1  0  0  0  0
 46 48  1  1  0  0  0
 48 47  1  0  0  0  0
 49 46  1  0  0  0  0
 49 50  1  0  0  0  0
 50 58  1  6  0  0  0
 50 54  1  0  0  0  0
 52 56  1  0  0  0  0
 53 56  1  0  0  0  0
 54 57  1  0  0  0  0
 55 53  1  0  0  0  0
 55 54  1  0  0  0  0
 57 52  1  0  0  0  0
 57 51  1  1  0  0  0
 58 59  1  0  0  0  0
M  END
>  <MODEL>
6

>  <REMARK>
 VINA RESULT:      -6.3      3.146     10.576
  Name = 
  24 active torsions:
  status: ('A' for Active; 'I' for Inactive)
    1  A    between atoms: C_3  and  C_17
    2  A    between atoms: C_6  and  N_24
    3  A    between atoms: C_6  and  C_48
    4  A    between atoms: C_7  and  C_56
    5  A    between atoms: N_10  and  C_43
    6  A    between atoms: C_12  and  C_16
    7  A    between atoms: C_13  and  C_32
    8  A    between atoms: C_14  and  N_24
    9  A    between atoms: C_14  and  C_55
   10  A    between atoms: O_15  and  C_48
   11  A    between atoms: O_15  and  C_52
   12  A    between atoms: C_16  and  O_29
   13  A    between atoms: C_16  and  N_34
   14  A    between atoms: C_21  and  C_33
   15  A    between atoms: C_21  and  C_46
   16  A    between atoms: O_23  and  C_31
   17  A    between atoms: O_23  and  C_40
   18  A    between atoms: O_29  and  C_33
   19  A    between atoms: C_31  and  C_46
   20  A    between atoms: C_32  and  C_58
   21  A    between atoms: C_33  and  C_35
   22  A    between atoms: C_38  and  C_43
   23  A    between atoms: C_43  and  C_55
   24  A    between atoms: C_45  and  O_49
                            x       y       z     vdW  Elec       q    Type
                         _______ _______ _______ _____ _____    ______ ____

>  <TORSDO>
F 24

$$$$
=
 OpenBabel10222418153D

 59 62  0  0  1  0  0  0  0  0999 V2000
  188.8780  178.0140  140.1410 C   0  0  0  0  0  2  0  0  0  0  0  0
  189.7870  176.8130  142.1480 C   0  0  0  0  0  3  0  0  0  0  0  0
  187.5230  177.6920  142.3090 C   0  0  0  0  0  2  0  0  0  0  0  0
  188.8070  177.2380  142.9510 C   0  0  0  0  0  0  0  0  0  0  0  0
  189.5640  176.7420  140.6640 C   0  0  2  0  0  3  0  0  0  0  0  0
  187.8210  178.5960  141.1020 C   0  0  2  0  0  3  0  0  0  0  0  0
  188.9810  177.3410  144.4270 C   0  0  0  0  0  0  0  0  0  0  0  0
  191.4510  176.6960  144.3680 C   0  0  0  0  0  1  0  0  0  0  0  0
  187.8530  177.6740  145.1900 C   0  0  0  0  0  3  0  0  0  0  0  0
  191.4880  177.0450  147.1650 O   0  0  0  0  0  1  0  0  0  0  0  0
  190.2150  177.1220  145.0980 C   0  0  0  0  0  0  0  0  0  0  0  0
  190.2830  177.2580  146.4970 C   0  0  0  0  0  0  0  0  0  0  0  0
  189.2230  177.7310  148.6140 O   0  0  0  0  0  1  0  0  0  0  0  0
  189.1420  177.6010  147.2320 C   0  0  0  0  0  0  0  0  0  0  0  0
  187.9210  177.8060  146.5830 C   0  0  0  0  0  0  0  0  0  0  0  0
  185.8920  179.1750  146.9580 C   0  0  0  0  0  1  0  0  0  0  0  0
  186.7910  178.1390  147.3370 O   0  0  0  0  0  0  0  0  0  0  0  0
  186.6450  178.8690  140.4020 O   0  0  0  0  0  0  0  0  0  0  0  0
  185.6530  178.9710  141.3850 C   0  0  0  0  0  2  0  0  0  0  0  0
  184.3140  179.3030  140.7490 C   0  0  0  0  0  2  0  0  0  0  0  0
  183.2490  178.5950  141.4420 N   0  0  0  0  0  2  0  0  0  0  0  0
  182.6210  177.7200  140.4650 C   0  0  0  0  0  2  0  0  0  0  0  0
  181.2140  178.1700  140.2140 C   0  0  0  0  0  0  0  0  0  0  0  0
  180.4680  178.3770  141.1580 O   0  0  0  0  0  0  0  0  0  0  0  0
  180.7000  178.3670  138.8200 C   0  0  1  0  0  3  0  0  0  0  0  0
  180.2020  179.7250  138.6350 N   0  0  0  0  0  2  0  0  0  0  0  0
  181.0700  180.8550  138.5110 C   0  0  0  0  0  0  0  0  0  0  0  0
  182.3210  180.7100  138.5100 O   0  0  0  0  0  0  0  0  0  0  0  0
  180.4870  182.2170  138.3420 C   0  0  0  0  0  2  0  0  0  0  0  0
  180.4640  184.2840  136.9440 C   0  0  0  0  0  1  0  0  0  0  0  0
  180.4880  182.0580  135.8700 C   0  0  0  0  0  1  0  0  0  0  0  0
  180.9840  182.8610  137.0550 C   0  0  0  0  0  3  0  0  0  0  0  0
  181.7770  178.0730  137.8180 C   0  0  0  0  0  3  0  0  0  0  0  0
  181.8820  176.8970  137.1810 C   0  0  0  0  0  3  0  0  0  0  0  0
  180.9460  175.7500  137.4160 C   0  0  1  0  0  3  0  0  0  0  0  0
  180.2180  175.4200  136.1480 C   0  0  0  0  0  2  0  0  0  0  0  0
  180.5600  174.0400  135.8550 N   0  0  0  0  0  2  0  0  0  0  0  0
  181.0840  173.5030  137.0450 N   0  0  0  0  0  2  0  0  0  0  0  0
  181.6990  174.5560  137.7480 N   0  0  0  0  0  2  0  0  0  0  0  0
  190.7790  176.5480  140.0070 O   0  0  0  0  0  0  0  0  0  0  0  0
  190.4260  176.1920  138.7020 C   0  0  0  0  0  2  0  0  0  0  0  0
  191.9160  174.4940  137.9680 O   0  0  0  0  0  1  0  0  0  0  0  0
  191.6790  175.8690  137.8980 C   0  0  1  0  0  3  0  0  0  0  0  0
  191.5230  176.2970  136.4350 C   0  0  1  0  0  3  0  0  0  0  0  0
  192.0810  175.3270  135.5960 O   0  0  0  0  0  1  0  0  0  0  0  0
  190.0490  176.4940  136.0590 C   0  0  2  0  0  3  0  0  0  0  0  0
  188.1400  177.9160  136.4100 O   0  0  0  0  0  1  0  0  0  0  0  0
  189.5280  177.8440  136.5470 C   0  0  0  0  0  2  0  0  0  0  0  0
  189.2490  175.4680  136.5810 O   0  0  0  0  0  0  0  0  0  0  0  0
  188.5380  174.9630  135.4850 C   0  0  2  0  0  3  0  0  0  0  0  0
  186.8480  173.2950  137.3330 O   0  0  0  0  0  1  0  0  0  0  0  0
  185.0070  173.6580  135.8630 C   0  0  0  0  0  2  0  0  0  0  0  0
  184.8960  175.6140  134.7560 C   0  0  0  0  0  2  0  0  0  0  0  0
  187.0900  175.0140  135.7520 N   0  0  0  0  0  0  0  0  0  0  0  0
  186.4260  175.6550  134.6100 C   0  0  0  0  0  2  0  0  0  0  0  0
  184.5000  174.9670  135.9410 O   0  0  0  0  0  0  0  0  0  0  0  0
  186.5310  173.6740  136.0300 C   0  0  1  0  0  3  0  0  0  0  0  0
  189.0590  173.5680  135.1270 C   0  0  0  0  0  2  0  0  0  0  0  0
  189.8100  173.0440  136.1800 O   0  0  0  0  0  1  0  0  0  0  0  0
  1  5  1  0  0  0  0
  1  6  1  0  0  0  0
  2  4  2  0  0  0  0
  3  4  1  0  0  0  0
  4  7  1  0  0  0  0
  5 40  1  6  0  0  0
  5  2  1  0  0  0  0
  6 18  1  6  0  0  0
  6  3  1  0  0  0  0
  7 11  2  0  0  0  0
  7  9  1  0  0  0  0
  8 11  1  0  0  0  0
  9 15  2  0  0  0  0
 11 12  1  0  0  0  0
 12 10  1  0  0  0  0
 12 14  2  0  0  0  0
 14 13  1  0  0  0  0
 15 14  1  0  0  0  0
 15 17  1  0  0  0  0
 16 17  1  0  0  0  0
 18 19  1  0  0  0  0
 20 19  1  0  0  0  0
 20 21  1  0  0  0  0
 22 21  1  0  0  0  0
 23 22  1  0  0  0  0
 23 24  2  0  0  0  0
 25 33  1  6  0  0  0
 25 23  1  0  0  0  0
 26 25  1  0  0  0  0
 27 26  1  0  0  0  0
 28 27  2  0  0  0  0
 29 27  1  0  0  0  0
 30 32  1  0  0  0  0
 31 32  1  0  0  0  0
 32 29  1  0  0  0  0
 34 33  2  0  0  0  0
 35 34  1  6  0  0  0
 35 39  1  0  0  0  0
 36 35  1  0  0  0  0
 37 36  1  0  0  0  0
 37 38  1  0  0  0  0
 38 39  1  0  0  0  0
 41 40  1  0  0  0  0
 43 42  1  6  0  0  0
 43 41  1  0  0  0  0
 44 45  1  6  0  0  0
 44 43  1  0  0  0  0
 46 44  1  0  0  0  0
 46 48  1  1  0  0  0
 46 49  1  0  0  0  0
 47 48  1  0  0  0  0
 50 58  1  1  0  0  0
 50 54  1  0  0  0  0
 50 49  1  0  0  0  0
 52 56  1  0  0  0  0
 52 57  1  0  0  0  0
 53 56  1  0  0  0  0
 54 57  1  0  0  0  0
 55 53  1  0  0  0  0
 55 54  1  0  0  0  0
 57 51  1  1  0  0  0
 58 59  1  0  0  0  0
M  END
>  <MODEL>
7

>  <REMARK>
 VINA RESULT:      -5.9      2.843      6.551
  Name = 
  24 active torsions:
  status: ('A' for Active; 'I' for Inactive)
    1  A    between atoms: C_3  and  C_17
    2  A    between atoms: C_6  and  N_24
    3  A    between atoms: C_6  and  C_48
    4  A    between atoms: C_7  and  C_56
    5  A    between atoms: N_10  and  C_43
    6  A    between atoms: C_12  and  C_16
    7  A    between atoms: C_13  and  C_32
    8  A    between atoms: C_14  and  N_24
    9  A    between atoms: C_14  and  C_55
   10  A    between atoms: O_15  and  C_48
   11  A    between atoms: O_15  and  C_52
   12  A    between atoms: C_16  and  O_29
   13  A    between atoms: C_16  and  N_34
   14  A    between atoms: C_21  and  C_33
   15  A    between atoms: C_21  and  C_46
   16  A    between atoms: O_23  and  C_31
   17  A    between atoms: O_23  and  C_40
   18  A    between atoms: O_29  and  C_33
   19  A    between atoms: C_31  and  C_46
   20  A    between atoms: C_32  and  C_58
   21  A    between atoms: C_33  and  C_35
   22  A    between atoms: C_38  and  C_43
   23  A    between atoms: C_43  and  C_55
   24  A    between atoms: C_45  and  O_49
                            x       y       z     vdW  Elec       q    Type
                         _______ _______ _______ _____ _____    ______ ____

>  <TORSDO>
F 24

$$$$
=
 OpenBabel10222418153D

 59 62  0  0  1  0  0  0  0  0999 V2000
  186.9330  177.7280  138.5780 C   0  0  0  0  0  2  0  0  0  0  0  0
  184.5120  177.5920  137.9350 C   0  0  0  0  0  3  0  0  0  0  0  0
  185.0610  178.8670  139.9340 C   0  0  0  0  0  2  0  0  0  0  0  0
  184.0860  178.0710  139.1070 C   0  0  0  0  0  0  0  0  0  0  0  0
  185.9000  177.9060  137.4550 C   0  0  2  0  0  3  0  0  0  0  0  0
  186.4280  178.1650  139.9690 C   0  0  2  0  0  3  0  0  0  0  0  0
  182.7240  177.7770  139.6350 C   0  0  0  0  0  0  0  0  0  0  0  0
  182.2060  176.0270  137.8500 C   0  0  0  0  0  1  0  0  0  0  0  0
  182.2900  178.5120  140.7490 C   0  0  0  0  0  3  0  0  0  0  0  0
  179.7200  175.6380  139.1210 O   0  0  0  0  0  1  0  0  0  0  0  0
  181.8490  176.8050  139.0790 C   0  0  0  0  0  0  0  0  0  0  0  0
  180.5850  176.5890  139.6590 C   0  0  0  0  0  0  0  0  0  0  0  0
  178.9310  177.1060  141.3390 O   0  0  0  0  0  1  0  0  0  0  0  0
  180.1820  177.3300  140.7760 C   0  0  0  0  0  0  0  0  0  0  0  0
  181.0300  178.2970  141.3230 C   0  0  0  0  0  0  0  0  0  0  0  0
  179.7870  180.1930  142.3210 C   0  0  0  0  0  1  0  0  0  0  0  0
  180.6040  179.0330  142.4340 O   0  0  0  0  0  0  0  0  0  0  0  0
  187.3760  178.9860  140.5800 O   0  0  0  0  0  0  0  0  0  0  0  0
  188.5780  178.2710  140.5030 C   0  0  0  0  0  2  0  0  0  0  0  0
  189.0270  177.8460  141.8900 C   0  0  0  0  0  2  0  0  0  0  0  0
  188.6780  176.4520  142.1170 N   0  0  0  0  0  2  0  0  0  0  0  0
  188.3760  176.3180  143.5320 C   0  0  0  0  0  2  0  0  0  0  0  0
  189.4560  176.9650  144.3440 C   0  0  0  0  0  0  0  0  0  0  0  0
  190.6260  176.7940  144.0390 O   0  0  0  0  0  0  0  0  0  0  0  0
  189.1290  177.8180  145.5320 C   0  0  1  0  0  3  0  0  0  0  0  0
  187.9590  178.6480  145.2720 N   0  0  0  0  0  2  0  0  0  0  0  0
  186.6640  178.3440  145.7980 C   0  0  0  0  0  0  0  0  0  0  0  0
  186.4930  177.3560  146.5580 O   0  0  0  0  0  0  0  0  0  0  0  0
  185.5100  179.2300  145.4720 C   0  0  0  0  0  2  0  0  0  0  0  0
  185.1970  178.1360  143.2520 C   0  0  0  0  0  1  0  0  0  0  0  0
  183.3590  179.4410  144.2640 C   0  0  0  0  0  1  0  0  0  0  0  0
  184.5230  178.5180  144.5580 C   0  0  0  0  0  3  0  0  0  0  0  0
  188.8920  176.9620  146.7420 C   0  0  0  0  0  3  0  0  0  0  0  0
  189.8870  176.4880  147.5080 C   0  0  0  0  0  3  0  0  0  0  0  0
  191.3360  176.7490  147.2260 C   0  0  1  0  0  3  0  0  0  0  0  0
  192.0090  177.2630  148.4620 C   0  0  0  0  0  2  0  0  0  0  0  0
  193.0620  176.3070  148.7540 N   0  0  0  0  0  2  0  0  0  0  0  0
  193.2490  175.5570  147.5780 N   0  0  0  0  0  2  0  0  0  0  0  0
  192.0110  175.5060  146.9100 N   0  0  0  0  0  2  0  0  0  0  0  0
  186.2260  177.0920  136.3710 O   0  0  0  0  0  0  0  0  0  0  0  0
  187.4470  177.5900  135.9050 C   0  0  0  0  0  2  0  0  0  0  0  0
  188.4580  175.7100  134.8640 O   0  0  0  0  0  1  0  0  0  0  0  0
  188.5170  176.5110  136.0060 C   0  0  1  0  0  3  0  0  0  0  0  0
  189.9140  177.1290  136.1380 C   0  0  1  0  0  3  0  0  0  0  0  0
  189.8740  178.1980  137.0400 O   0  0  0  0  0  1  0  0  0  0  0  0
  190.9410  176.1010  136.6280 C   0  0  2  0  0  3  0  0  0  0  0  0
  190.3830  175.8690  138.9570 O   0  0  0  0  0  1  0  0  0  0  0  0
  191.3450  176.3690  138.0760 C   0  0  0  0  0  2  0  0  0  0  0  0
  192.0840  176.0960  135.8170 O   0  0  0  0  0  0  0  0  0  0  0  0
  192.6370  174.8190  135.9690 C   0  0  2  0  0  3  0  0  0  0  0  0
  194.8460  172.8830  136.6230 O   0  0  0  0  0  1  0  0  0  0  0  0
  196.3910  174.6880  136.4240 C   0  0  0  0  0  2  0  0  0  0  0  0
  195.9410  176.3180  134.9400 C   0  0  0  0  0  2  0  0  0  0  0  0
  194.0570  174.8300  135.5750 N   0  0  0  0  0  0  0  0  0  0  0  0
  194.4330  176.2050  135.2250 C   0  0  0  0  0  2  0  0  0  0  0  0
  196.5960  175.0820  135.0910 O   0  0  0  0  0  0  0  0  0  0  0  0
  194.9290  174.2740  136.6310 C   0  0  1  0  0  3  0  0  0  0  0  0
  191.7870  173.7930  135.2150 C   0  0  0  0  0  2  0  0  0  0  0  0
  191.6960  172.6050  135.9430 O   0  0  0  0  0  1  0  0  0  0  0  0
  1  6  1  0  0  0  0
  2  4  2  0  0  0  0
  3  6  1  0  0  0  0
  4  7  1  0  0  0  0
  4  3  1  0  0  0  0
  5 40  1  6  0  0  0
  5  2  1  0  0  0  0
  5  1  1  0  0  0  0
  6 18  1  6  0  0  0
  7  9  1  0  0  0  0
  8 11  1  0  0  0  0
  9 15  2  0  0  0  0
 10 12  1  0  0  0  0
 11  7  2  0  0  0  0
 11 12  1  0  0  0  0
 12 14  2  0  0  0  0
 14 15  1  0  0  0  0
 14 13  1  0  0  0  0
 15 17  1  0  0  0  0
 16 17  1  0  0  0  0
 19 18  1  0  0  0  0
 19 20  1  0  0  0  0
 20 21  1  0  0  0  0
 21 22  1  0  0  0  0
 22 23  1  0  0  0  0
 23 25  1  0  0  0  0
 24 23  2  0  0  0  0
 25 33  1  1  0  0  0
 26 25  1  0  0  0  0
 26 27  1  0  0  0  0
 27 28  2  0  0  0  0
 29 27  1  0  0  0  0
 30 32  1  0  0  0  0
 31 32  1  0  0  0  0
 32 29  1  0  0  0  0
 33 34  2  0  0  0  0
 35 34  1  1  0  0  0
 35 36  1  0  0  0  0
 36 37  1  0  0  0  0
 38 37  1  0  0  0  0
 39 35  1  0  0  0  0
 39 38  1  0  0  0  0
 41 43  1  0  0  0  0
 41 40  1  0  0  0  0
 43 42  1  6  0  0  0
 43 44  1  0  0  0  0
 44 46  1  0  0  0  0
 44 45  1  1  0  0  0
 46 48  1  1  0  0  0
 48 47  1  0  0  0  0
 49 50  1  0  0  0  0
 49 46  1  0  0  0  0
 50 58  1  6  0  0  0
 52 57  1  0  0  0  0
 53 56  1  0  0  0  0
 53 55  1  0  0  0  0
 54 50  1  0  0  0  0
 54 57  1  0  0  0  0
 55 54  1  0  0  0  0
 56 52  1  0  0  0  0
 57 51  1  6  0  0  0
 58 59  1  0  0  0  0
M  END
>  <MODEL>
8

>  <REMARK>
 VINA RESULT:      -5.8      3.528      8.146
  Name = 
  24 active torsions:
  status: ('A' for Active; 'I' for Inactive)
    1  A    between atoms: C_3  and  C_17
    2  A    between atoms: C_6  and  N_24
    3  A    between atoms: C_6  and  C_48
    4  A    between atoms: C_7  and  C_56
    5  A    between atoms: N_10  and  C_43
    6  A    between atoms: C_12  and  C_16
    7  A    between atoms: C_13  and  C_32
    8  A    between atoms: C_14  and  N_24
    9  A    between atoms: C_14  and  C_55
   10  A    between atoms: O_15  and  C_48
   11  A    between atoms: O_15  and  C_52
   12  A    between atoms: C_16  and  O_29
   13  A    between atoms: C_16  and  N_34
   14  A    between atoms: C_21  and  C_33
   15  A    between atoms: C_21  and  C_46
   16  A    between atoms: O_23  and  C_31
   17  A    between atoms: O_23  and  C_40
   18  A    between atoms: O_29  and  C_33
   19  A    between atoms: C_31  and  C_46
   20  A    between atoms: C_32  and  C_58
   21  A    between atoms: C_33  and  C_35
   22  A    between atoms: C_38  and  C_43
   23  A    between atoms: C_43  and  C_55
   24  A    between atoms: C_45  and  O_49
                            x       y       z     vdW  Elec       q    Type
                         _______ _______ _______ _____ _____    ______ ____

>  <TORSDO>
F 24

$$$$
=
 OpenBabel10222418153D

 59 62  0  0  1  0  0  0  0  0999 V2000
  185.3290  178.3900  140.6220 C   0  0  0  0  0  2  0  0  0  0  0  0
  185.3630  178.4960  143.1280 C   0  0  0  0  0  3  0  0  0  0  0  0
  187.4400  179.0020  141.9660 C   0  0  0  0  0  2  0  0  0  0  0  0
  186.6960  178.5450  143.1930 C   0  0  0  0  0  0  0  0  0  0  0  0
  184.6540  178.9490  141.8840 C   0  0  2  0  0  3  0  0  0  0  0  0
  186.8680  178.3240  140.7110 C   0  0  2  0  0  3  0  0  0  0  0  0
  187.4480  178.0940  144.3980 C   0  0  0  0  0  0  0  0  0  0  0  0
  185.6060  178.7730  146.0300 C   0  0  0  0  0  1  0  0  0  0  0  0
  188.7340  177.5700  144.2000 C   0  0  0  0  0  3  0  0  0  0  0  0
  187.2330  177.7640  148.1010 O   0  0  0  0  0  1  0  0  0  0  0  0
  186.9400  178.1650  145.7230 C   0  0  0  0  0  0  0  0  0  0  0  0
  187.7210  177.6990  146.7980 C   0  0  0  0  0  0  0  0  0  0  0  0
  189.7600  176.7160  147.6380 O   0  0  0  0  0  1  0  0  0  0  0  0
  188.9980  177.1720  146.5690 C   0  0  0  0  0  0  0  0  0  0  0  0
  189.5120  177.1100  145.2700 C   0  0  0  0  0  0  0  0  0  0  0  0
  191.2890  176.2560  143.7710 C   0  0  0  0  0  1  0  0  0  0  0  0
  190.7940  176.5880  145.0640 O   0  0  0  0  0  0  0  0  0  0  0  0
  187.4320  178.8790  139.5630 O   0  0  0  0  0  0  0  0  0  0  0  0
  188.4730  178.0100  139.2140 C   0  0  0  0  0  2  0  0  0  0  0  0
  189.3860  178.6660  138.1910 C   0  0  0  0  0  2  0  0  0  0  0  0
  189.7530  177.7020  137.1660 N   0  0  0  0  0  2  0  0  0  0  0  0
  189.1500  176.4350  137.5440 C   0  0  0  0  0  2  0  0  0  0  0  0
  190.1650  175.3390  137.4340 C   0  0  0  0  0  0  0  0  0  0  0  0
  190.8570  175.0570  138.3990 O   0  0  0  0  0  0  0  0  0  0  0  0
  190.3540  174.5820  136.1540 C   0  0  1  0  0  3  0  0  0  0  0  0
  189.0690  174.2000  135.5800 N   0  0  0  0  0  2  0  0  0  0  0  0
  188.2250  173.2070  136.1690 C   0  0  0  0  0  0  0  0  0  0  0  0
  188.5440  172.6500  137.2510 O   0  0  0  0  0  0  0  0  0  0  0  0
  186.9320  172.8560  135.5130 C   0  0  0  0  0  2  0  0  0  0  0  0
  186.0270  175.0750  136.2070 C   0  0  0  0  0  1  0  0  0  0  0  0
  185.6280  173.0770  137.6070 C   0  0  0  0  0  1  0  0  0  0  0  0
  185.7720  173.5780  136.1850 C   0  0  0  0  0  3  0  0  0  0  0  0
  191.1320  175.4040  135.1690 C   0  0  0  0  0  3  0  0  0  0  0  0
  192.4650  175.5500  135.2300 C   0  0  0  0  0  3  0  0  0  0  0  0
  193.3110  174.9230  136.2970 C   0  0  1  0  0  3  0  0  0  0  0  0
  194.1610  173.8430  135.7010 C   0  0  0  0  0  2  0  0  0  0  0  0
  195.5320  174.2400  135.9660 N   0  0  0  0  0  2  0  0  0  0  0  0
  195.4690  175.2210  136.9730 N   0  0  0  0  0  2  0  0  0  0  0  0
  194.2440  175.8980  136.8260 N   0  0  0  0  0  2  0  0  0  0  0  0
  183.3160  178.5560  141.9260 O   0  0  0  0  0  0  0  0  0  0  0  0
  183.0120  178.1850  140.6130 C   0  0  0  0  0  2  0  0  0  0  0  0
  182.3690  179.5180  138.7550 O   0  0  0  0  0  1  0  0  0  0  0  0
  181.9690  179.1330  140.0370 C   0  0  1  0  0  3  0  0  0  0  0  0
  180.5900  178.4670  139.9750 C   0  0  1  0  0  3  0  0  0  0  0  0
  179.6840  179.1810  140.7660 O   0  0  0  0  0  1  0  0  0  0  0  0
  180.0570  178.4060  138.5380 C   0  0  2  0  0  3  0  0  0  0  0  0
  178.9630  179.8750  136.9770 O   0  0  0  0  0  1  0  0  0  0  0  0
  178.9660  179.4500  138.3070 C   0  0  0  0  0  2  0  0  0  0  0  0
  179.5580  177.1330  138.2320 O   0  0  0  0  0  0  0  0  0  0  0  0
  180.0810  176.2870  139.2190 C   0  0  2  0  0  3  0  0  0  0  0  0
  182.9130  175.9410  138.2640 O   0  0  0  0  0  1  0  0  0  0  0  0
  182.1050  174.3750  136.6570 C   0  0  0  0  0  2  0  0  0  0  0  0
  180.3260  173.1090  137.2030 C   0  0  0  0  0  2  0  0  0  0  0  0
  180.7370  175.1240  138.5950 N   0  0  0  0  0  0  0  0  0  0  0  0
  179.7030  174.2710  137.9960 C   0  0  0  0  0  2  0  0  0  0  0  0
  181.7320  173.1490  137.2350 O   0  0  0  0  0  0  0  0  0  0  0  0
  181.7560  175.5290  137.6040 C   0  0  1  0  0  3  0  0  0  0  0  0
  178.9830  175.9210  140.2220 C   0  0  0  0  0  2  0  0  0  0  0  0
  179.5150  175.8130  141.5080 O   0  0  0  0  0  1  0  0  0  0  0  0
  1  6  1  0  0  0  0
  1  5  1  0  0  0  0
  2  4  2  0  0  0  0
  3  4  1  0  0  0  0
  4  7  1  0  0  0  0
  5 40  1  1  0  0  0
  5  2  1  0  0  0  0
  6 18  1  6  0  0  0
  6  3  1  0  0  0  0
  7 11  1  0  0  0  0
  9  7  2  0  0  0  0
  9 15  1  0  0  0  0
 11  8  1  0  0  0  0
 11 12  2  0  0  0  0
 12 10  1  0  0  0  0
 14 12  1  0  0  0  0
 14 13  1  0  0  0  0
 15 14  2  0  0  0  0
 16 17  1  0  0  0  0
 17 15  1  0  0  0  0
 19 18  1  0  0  0  0
 20 19  1  0  0  0  0
 21 22  1  0  0  0  0
 21 20  1  0  0  0  0
 23 22  1  0  0  0  0
 23 24  2  0  0  0  0
 25 33  1  6  0  0  0
 25 23  1  0  0  0  0
 26 25  1  0  0  0  0
 26 27  1  0  0  0  0
 27 28  2  0  0  0  0
 29 27  1  0  0  0  0
 29 32  1  0  0  0  0
 32 30  1  0  0  0  0
 32 31  1  0  0  0  0
 33 34  2  0  0  0  0
 35 34  1  6  0  0  0
 35 39  1  0  0  0  0
 36 37  1  0  0  0  0
 36 35  1  0  0  0  0
 37 38  1  0  0  0  0
 39 38  1  0  0  0  0
 41 40  1  0  0  0  0
 43 42  1  6  0  0  0
 43 41  1  0  0  0  0
 44 43  1  0  0  0  0
 44 45  1  1  0  0  0
 46 48  1  1  0  0  0
 46 44  1  0  0  0  0
 47 48  1  0  0  0  0
 49 46  1  0  0  0  0
 49 50  1  0  0  0  0
 50 58  1  1  0  0  0
 52 56  1  0  0  0  0
 52 57  1  0  0  0  0
 53 56  1  0  0  0  0
 53 55  1  0  0  0  0
 54 50  1  0  0  0  0
 55 54  1  0  0  0  0
 57 51  1  1  0  0  0
 57 54  1  0  0  0  0
 58 59  1  0  0  0  0
M  END
>  <MODEL>
9

>  <REMARK>
 VINA RESULT:      -5.8      2.698      8.887
  Name = 
  24 active torsions:
  status: ('A' for Active; 'I' for Inactive)
    1  A    between atoms: C_3  and  C_17
    2  A    between atoms: C_6  and  N_24
    3  A    between atoms: C_6  and  C_48
    4  A    between atoms: C_7  and  C_56
    5  A    between atoms: N_10  and  C_43
    6  A    between atoms: C_12  and  C_16
    7  A    between atoms: C_13  and  C_32
    8  A    between atoms: C_14  and  N_24
    9  A    between atoms: C_14  and  C_55
   10  A    between atoms: O_15  and  C_48
   11  A    between atoms: O_15  and  C_52
   12  A    between atoms: C_16  and  O_29
   13  A    between atoms: C_16  and  N_34
   14  A    between atoms: C_21  and  C_33
   15  A    between atoms: C_21  and  C_46
   16  A    between atoms: O_23  and  C_31
   17  A    between atoms: O_23  and  C_40
   18  A    between atoms: O_29  and  C_33
   19  A    between atoms: C_31  and  C_46
   20  A    between atoms: C_32  and  C_58
   21  A    between atoms: C_33  and  C_35
   22  A    between atoms: C_38  and  C_43
   23  A    between atoms: C_43  and  C_55
   24  A    between atoms: C_45  and  O_49
                            x       y       z     vdW  Elec       q    Type
                         _______ _______ _______ _____ _____    ______ ____

>  <TORSDO>
F 24

$$$$
