=
 OpenBabel10222417313D

 59 68  0  0  1  0  0  0  0  0999 V2000
  180.3010  179.3670  140.8910 N   0  0  0  0  0  2  0  0  0  0  0  0
  180.4800  178.4240  141.9860 C   0  0  0  0  0  2  0  0  0  0  0  0
  183.9410  178.9150  145.6510 C   0  0  0  0  0  1  0  0  0  0  0  0
  182.0620  178.6850  143.9710 C   0  0  0  0  0  3  0  0  0  0  0  0
  181.8170  178.6260  142.6040 C   0  0  0  0  0  0  0  0  0  0  0  0
  184.2350  178.8980  143.1290 C   0  0  0  0  0  0  0  0  0  0  0  0
  183.4250  178.8400  144.2590 C   0  0  0  0  0  0  0  0  0  0  0  0
  183.2650  178.7550  141.7610 S   0  0  0  0  0  0  0  0  0  0  0  0
  185.7250  179.0160  143.1300 C   0  0  1  0  0  3  0  0  0  0  0  0
  188.3280  177.8860  140.4090 N   0  0  0  0  0  2  0  0  0  0  0  0
  187.2580  177.3030  142.4550 N   0  0  0  0  0  0  0  0  0  0  0  0
  186.3290  177.7220  143.4090 N   0  0  0  0  0  2  0  0  0  0  0  0
  187.3700  178.1030  141.4490 C   0  0  0  0  0  0  0  0  0  0  0  0
  186.3360  179.5570  141.4880 S   0  0  0  0  0  0  0  0  0  0  0  0
  189.1670  176.6940  140.3400 C   0  0  0  0  0  2  0  0  0  0  0  0
  190.6160  177.0810  140.5850 C   0  0  0  0  0  2  0  0  0  0  0  0
  191.5060  178.1790  142.6540 C   0  0  0  0  0  3  0  0  0  0  0  0
  190.9490  177.0530  142.0380 C   0  0  0  0  0  0  0  0  0  0  0  0
  191.7960  178.1560  144.0220 C   0  0  0  0  0  3  0  0  0  0  0  0
  191.5250  177.0140  144.7820 C   0  0  0  0  0  0  0  0  0  0  0  0
  190.9660  175.8870  144.1600 C   0  0  0  0  0  3  0  0  0  0  0  0
  190.6830  175.9070  142.7910 C   0  0  0  0  0  3  0  0  0  0  0  0
  191.8100  177.0270  146.1490 O   0  0  0  0  0  0  0  0  0  0  0  0
  190.7420  177.6750  148.2150 C   0  0  0  0  0  2  0  0  0  0  0  0
  189.6680  177.5260  147.1650 C   0  0  2  0  0  0  0  0  0  0  0  0
  190.8740  176.6020  147.1360 C   0  0  1  0  0  3  0  0  0  0  0  0
  189.6610  178.5560  146.2160 O   0  0  0  0  0  1  0  0  0  0  0  0
  187.1530  177.5520  146.9630 C   0  0  0  0  0  2  0  0  0  0  0  0
  188.3520  176.9080  147.6420 C   0  0  0  0  0  3  0  0  0  0  0  0
  187.5260  177.9540  148.3750 C   0  0  0  0  0  2  0  0  0  0  0  0
  179.7250  178.6610  139.8270 N   0  0  0  0  0  2  0  0  0  0  0  0
  182.0880  176.0540  138.5300 C   0  0  0  0  0  0  0  0  0  0  0  0
  180.2480  177.4060  139.3910 C   0  0  0  0  0  0  0  0  0  0  0  0
  181.2430  174.9290  138.5490 C   0  0  0  0  0  3  0  0  0  0  0  0
  181.5780  177.2890  138.9610 C   0  0  0  0  0  3  0  0  0  0  0  0
  179.9190  175.0400  138.9820 C   0  0  0  0  0  3  0  0  0  0  0  0
  179.4210  176.2780  139.3980 C   0  0  0  0  0  3  0  0  0  0  0  0
  187.8190  177.0730  136.5420 C   0  0  0  0  0  0  0  0  0  0  0  0
  189.5860  175.9330  136.7800 C   0  0  0  0  0  0  0  0  0  0  0  0
  183.4830  175.9540  138.0350 C   0  0  0  0  0  0  0  0  0  0  0  0
  184.3330  177.2140  137.9460 C   0  0  0  0  0  2  0  0  0  0  0  0
  189.1270  177.2110  136.7970 N   0  0  0  0  0  2  0  0  0  0  0  0
  186.7120  179.0530  137.4060 O   0  0  0  0  0  0  0  0  0  0  0  0
  188.5600  174.9880  136.6580 C   0  0  0  0  0  3  0  0  0  0  0  0
  186.0640  175.6690  136.9010 C   0  0  0  0  0  0  0  0  0  0  0  0
  183.9850  174.7500  137.6720 C   0  0  0  0  0  3  0  0  0  0  0  0
  185.5720  176.9720  137.2120 N   0  0  0  0  0  0  0  0  0  0  0  0
  187.4510  175.7750  136.4600 C   0  0  0  0  0  0  0  0  0  0  0  0
  185.3480  174.5770  137.1340 C   0  0  0  0  0  3  0  0  0  0  0  0
  186.6900  177.8440  137.0530 C   0  0  0  0  0  0  0  0  0  0  0  0
  193.2290  176.2220  137.7030 C   0  0  0  0  0  2  0  0  0  0  0  0
  195.0230  174.7150  137.2720 O   0  0  0  0  0  1  0  0  0  0  0  0
  193.7390  175.0590  136.8550 C   0  0  1  0  0  3  0  0  0  0  0  0
  192.7850  173.8830  137.0570 C   0  0  1  0  0  3  0  0  0  0  0  0
  190.9920  175.5880  137.0190 C   0  0  0  0  0  0  0  0  0  0  0  0
  191.8270  176.5090  137.4090 N   0  0  0  0  0  0  0  0  0  0  0  0
  191.4390  174.2780  136.7870 O   0  0  0  0  0  0  0  0  0  0  0  0
  192.1810  172.4300  135.2330 O   0  0  0  0  0  1  0  0  0  0  0  0
  193.1680  172.6850  136.1910 C   0  0  0  0  0  2  0  0  0  0  0  0
  1  2  1  0  0  0  0
  2  5  1  0  0  0  0
  4  7  1  0  0  0  0
  5  4  2  0  0  0  0
  6  7  2  0  0  0  0
  7  3  1  0  0  0  0
  8  5  1  0  0  0  0
  8  6  1  0  0  0  0
  9  6  1  6  0  0  0
  9 12  1  0  0  0  0
 10 13  1  0  0  0  0
 11 12  1  0  0  0  0
 13 14  1  0  0  0  0
 13 11  2  0  0  0  0
 14  9  1  0  0  0  0
 15 10  1  0  0  0  0
 15 16  1  0  0  0  0
 16 18  1  0  0  0  0
 17 19  1  0  0  0  0
 18 17  2  0  0  0  0
 18 22  1  0  0  0  0
 19 20  2  0  0  0  0
 20 23  1  0  0  0  0
 21 20  1  0  0  0  0
 22 21  2  0  0  0  0
 25 27  1  6  0  0  0
 25 29  1  0  0  0  0
 25 24  1  0  0  0  0
 26 23  1  6  0  0  0
 26 25  1  0  0  0  0
 26 24  1  0  0  0  0
 28 29  1  0  0  0  0
 28 30  1  0  0  0  0
 29 30  1  0  0  0  0
 31  1  1  0  0  0  0
 32 34  2  0  0  0  0
 32 35  1  0  0  0  0
 33 37  1  0  0  0  0
 33 31  1  0  0  0  0
 34 36  1  0  0  0  0
 35 33  2  0  0  0  0
 36 37  2  0  0  0  0
 38 42  1  0  0  0  0
 38 50  1  0  0  0  0
 39 42  1  0  0  0  0
 39 55  1  0  0  0  0
 40 32  1  0  0  0  0
 41 40  1  0  0  0  0
 44 39  2  0  0  0  0
 45 49  2  0  0  0  0
 45 47  1  0  0  0  0
 46 40  2  0  0  0  0
 47 41  1  0  0  0  0
 48 38  2  0  0  0  0
 48 44  1  0  0  0  0
 48 45  1  0  0  0  0
 49 46  1  0  0  0  0
 50 47  1  0  0  0  0
 50 43  2  0  0  0  0
 53 54  1  0  0  0  0
 53 52  1  1  0  0  0
 53 51  1  0  0  0  0
 54 59  1  6  0  0  0
 55 56  2  0  0  0  0
 56 51  1  0  0  0  0
 57 55  1  0  0  0  0
 57 54  1  0  0  0  0
 58 59  1  0  0  0  0
M  END
>  <MODEL>
1

>  <REMARK>
 VINA RESULT:      -8.4      0.000      0.000
  Name = 
  14 active torsions:
  status: ('A' for Active; 'I' for Inactive)
    1  A    between atoms: C_4  and  C_26
    2  A    between atoms: C_5  and  N_58
    3  A    between atoms: C_9  and  C_22
    4  A    between atoms: C_12  and  C_14
    5  A    between atoms: C_13  and  C_20
    6  A    between atoms: N_16  and  C_45
    7  A    between atoms: N_16  and  N_58
    8  A    between atoms: C_17  and  C_36
    9  A    between atoms: C_22  and  C_46
   10  A    between atoms: C_23  and  O_55
   11  A    between atoms: C_24  and  C_29
   12  A    between atoms: N_28  and  C_46
   13  A    between atoms: C_31  and  C_45
   14  A    between atoms: C_39  and  O_55
                            x       y       z     vdW  Elec       q    Type
                         _______ _______ _______ _____ _____    ______ ____

>  <TORSDO>
F 14

$$$$
=
 OpenBabel10222417313D

 59 68  0  0  1  0  0  0  0  0999 V2000
  189.6850  172.4900  135.5940 N   0  0  0  0  0  2  0  0  0  0  0  0
  190.0960  173.7080  134.9100 C   0  0  0  0  0  2  0  0  0  0  0  0
  192.5750  176.6850  138.1730 C   0  0  0  0  0  1  0  0  0  0  0  0
  191.5090  175.0730  136.5380 C   0  0  0  0  0  3  0  0  0  0  0  0
  190.3040  174.7930  135.9040 C   0  0  0  0  0  0  0  0  0  0  0  0
  190.1500  176.7610  137.4210 C   0  0  0  0  0  0  0  0  0  0  0  0
  191.4140  176.1800  137.3910 C   0  0  0  0  0  0  0  0  0  0  0  0
  189.1380  175.9040  136.3840 S   0  0  0  0  0  0  0  0  0  0  0  0
  189.7670  177.9750  138.2040 C   0  0  1  0  0  3  0  0  0  0  0  0
  187.0320  178.3890  140.9990 N   0  0  0  0  0  2  0  0  0  0  0  0
  187.5250  178.6690  138.6860 N   0  0  0  0  0  0  0  0  0  0  0  0
  188.5080  178.5120  137.7080 N   0  0  0  0  0  2  0  0  0  0  0  0
  187.8740  178.2420  139.8520 C   0  0  0  0  0  0  0  0  0  0  0  0
  189.5180  177.5560  139.9720 S   0  0  0  0  0  0  0  0  0  0  0  0
  185.6760  178.9240  140.9240 C   0  0  0  0  0  2  0  0  0  0  0  0
  184.8010  178.2310  141.9550 C   0  0  0  0  0  2  0  0  0  0  0  0
  184.8410  178.8400  144.3850 C   0  0  0  0  0  3  0  0  0  0  0  0
  185.4520  178.2100  143.2950 C   0  0  0  0  0  0  0  0  0  0  0  0
  185.4440  178.7980  145.6460 C   0  0  0  0  0  3  0  0  0  0  0  0
  186.6550  178.1230  145.8270 C   0  0  0  0  0  0  0  0  0  0  0  0
  187.2640  177.4910  144.7310 C   0  0  0  0  0  3  0  0  0  0  0  0
  186.6660  177.5390  143.4690 C   0  0  0  0  0  3  0  0  0  0  0  0
  187.2250  178.0840  147.1020 O   0  0  0  0  0  0  0  0  0  0  0  0
  188.9100  178.2240  148.8240 C   0  0  0  0  0  2  0  0  0  0  0  0
  189.4030  177.2610  147.7720 C   0  0  2  0  0  0  0  0  0  0  0  0
  188.5750  178.4640  147.3540 C   0  0  1  0  0  3  0  0  0  0  0  0
  188.7350  176.0290  147.7790 O   0  0  0  0  0  1  0  0  0  0  0  0
  191.2040  176.7820  146.0720 C   0  0  0  0  0  2  0  0  0  0  0  0
  190.8980  177.3250  147.4590 C   0  0  0  0  0  3  0  0  0  0  0  0
  191.4520  175.9180  147.2910 C   0  0  0  0  0  2  0  0  0  0  0  0
  188.9430  171.7320  134.6790 N   0  0  0  0  0  2  0  0  0  0  0  0
  185.3090  172.0460  135.5510 C   0  0  0  0  0  0  0  0  0  0  0  0
  187.5750  171.3980  134.9180 C   0  0  0  0  0  0  0  0  0  0  0  0
  184.9000  170.7120  135.3730 C   0  0  0  0  0  3  0  0  0  0  0  0
  186.6520  172.3780  135.3130 C   0  0  0  0  0  3  0  0  0  0  0  0
  185.8150  169.7340  134.9740 C   0  0  0  0  0  3  0  0  0  0  0  0
  187.1520  170.0760  134.7520 C   0  0  0  0  0  3  0  0  0  0  0  0
  180.5340  175.2090  137.7940 C   0  0  0  0  0  0  0  0  0  0  0  0
  180.4610  177.0660  138.8060 C   0  0  0  0  0  0  0  0  0  0  0  0
  184.3530  173.0840  136.0120 C   0  0  0  0  0  0  0  0  0  0  0  0
  183.0910  172.6570  136.7470 C   0  0  0  0  0  2  0  0  0  0  0  0
  179.9260  175.8180  138.8210 N   0  0  0  0  0  2  0  0  0  0  0  0
  180.4120  172.8210  138.2080 O   0  0  0  0  0  0  0  0  0  0  0  0
  181.4960  177.2040  137.8730 C   0  0  0  0  0  3  0  0  0  0  0  0
  182.5150  175.1350  136.6760 C   0  0  0  0  0  0  0  0  0  0  0  0
  184.6130  174.3920  135.7780 C   0  0  0  0  0  3  0  0  0  0  0  0
  182.1580  173.7710  136.8980 N   0  0  0  0  0  0  0  0  0  0  0  0
  181.4690  175.9960  137.2170 C   0  0  0  0  0  0  0  0  0  0  0  0
  183.6920  175.4760  136.1690 C   0  0  0  0  0  3  0  0  0  0  0  0
  180.9520  173.8170  137.6590 C   0  0  0  0  0  0  0  0  0  0  0  0
  179.3690  180.3660  140.2650 C   0  0  0  0  0  2  0  0  0  0  0  0
  179.4610  181.1270  142.5210 O   0  0  0  0  0  1  0  0  0  0  0  0
  180.0020  180.1910  141.6430 C   0  0  1  0  0  3  0  0  0  0  0  0
  179.6860  178.7740  142.1220 C   0  0  1  0  0  3  0  0  0  0  0  0
  180.0880  178.1040  139.7740 C   0  0  0  0  0  0  0  0  0  0  0  0
  179.7880  179.3010  139.3570 N   0  0  0  0  0  0  0  0  0  0  0  0
  180.0940  177.8130  141.1470 O   0  0  0  0  0  0  0  0  0  0  0  0
  179.3790  178.0860  144.4100 O   0  0  0  0  0  1  0  0  0  0  0  0
  180.3400  178.4710  143.4680 C   0  0  0  0  0  2  0  0  0  0  0  0
  2  1  1  0  0  0  0
  2  5  1  0  0  0  0
  4  7  1  0  0  0  0
  5  8  1  0  0  0  0
  5  4  2  0  0  0  0
  7  6  2  0  0  0  0
  7  3  1  0  0  0  0
  8  6  1  0  0  0  0
  9  6  1  6  0  0  0
  9 14  1  0  0  0  0
 11 13  2  0  0  0  0
 12  9  1  0  0  0  0
 12 11  1  0  0  0  0
 13 14  1  0  0  0  0
 13 10  1  0  0  0  0
 15 10  1  0  0  0  0
 15 16  1  0  0  0  0
 16 18  1  0  0  0  0
 17 19  1  0  0  0  0
 18 22  1  0  0  0  0
 18 17  2  0  0  0  0
 19 20  2  0  0  0  0
 20 23  1  0  0  0  0
 21 20  1  0  0  0  0
 22 21  2  0  0  0  0
 25 27  1  6  0  0  0
 25 24  1  0  0  0  0
 26 23  1  1  0  0  0
 26 25  1  0  0  0  0
 26 24  1  0  0  0  0
 28 30  1  0  0  0  0
 28 29  1  0  0  0  0
 29 25  1  0  0  0  0
 30 29  1  0  0  0  0
 31 33  1  0  0  0  0
 31  1  1  0  0  0  0
 32 40  1  0  0  0  0
 33 35  1  0  0  0  0
 34 32  1  0  0  0  0
 35 32  2  0  0  0  0
 36 34  2  0  0  0  0
 37 33  2  0  0  0  0
 37 36  1  0  0  0  0
 38 42  1  0  0  0  0
 39 42  1  0  0  0  0
 39 55  1  0  0  0  0
 40 41  1  0  0  0  0
 41 47  1  0  0  0  0
 44 39  2  0  0  0  0
 45 47  1  0  0  0  0
 45 48  1  0  0  0  0
 46 40  2  0  0  0  0
 46 49  1  0  0  0  0
 47 50  1  0  0  0  0
 48 38  2  0  0  0  0
 48 44  1  0  0  0  0
 49 45  2  0  0  0  0
 50 38  1  0  0  0  0
 50 43  2  0  0  0  0
 51 53  1  0  0  0  0
 53 54  1  0  0  0  0
 53 52  1  1  0  0  0
 54 59  1  1  0  0  0
 55 57  1  0  0  0  0
 56 55  2  0  0  0  0
 56 51  1  0  0  0  0
 57 54  1  0  0  0  0
 59 58  1  0  0  0  0
M  END
>  <MODEL>
2

>  <REMARK>
 VINA RESULT:      -8.3      3.622      8.808
  Name = 
  14 active torsions:
  status: ('A' for Active; 'I' for Inactive)
    1  A    between atoms: C_4  and  C_26
    2  A    between atoms: C_5  and  N_58
    3  A    between atoms: C_9  and  C_22
    4  A    between atoms: C_12  and  C_14
    5  A    between atoms: C_13  and  C_20
    6  A    between atoms: N_16  and  C_45
    7  A    between atoms: N_16  and  N_58
    8  A    between atoms: C_17  and  C_36
    9  A    between atoms: C_22  and  C_46
   10  A    between atoms: C_23  and  O_55
   11  A    between atoms: C_24  and  C_29
   12  A    between atoms: N_28  and  C_46
   13  A    between atoms: C_31  and  C_45
   14  A    between atoms: C_39  and  O_55
                            x       y       z     vdW  Elec       q    Type
                         _______ _______ _______ _____ _____    ______ ____

>  <TORSDO>
F 14

$$$$
=
 OpenBabel10222417313D

 59 68  0  0  1  0  0  0  0  0999 V2000
  184.1640  178.6760  145.9320 N   0  0  0  0  0  2  0  0  0  0  0  0
  184.4250  178.9850  144.5330 C   0  0  0  0  0  2  0  0  0  0  0  0
  179.4480  178.9520  143.5940 C   0  0  0  0  0  1  0  0  0  0  0  0
  181.8870  178.9760  144.2710 C   0  0  0  0  0  3  0  0  0  0  0  0
  183.1690  178.8510  143.7500 C   0  0  0  0  0  0  0  0  0  0  0  0
  181.4040  178.6200  142.0090 C   0  0  0  0  0  0  0  0  0  0  0  0
  180.8990  178.8430  143.2860 C   0  0  0  0  0  0  0  0  0  0  0  0
  183.0850  178.5880  142.0920 S   0  0  0  0  0  0  0  0  0  0  0  0
  180.5920  178.4820  140.7620 C   0  0  1  0  0  3  0  0  0  0  0  0
  180.0820  175.3510  138.4400 N   0  0  0  0  0  2  0  0  0  0  0  0
  181.2960  177.3750  138.7570 N   0  0  0  0  0  0  0  0  0  0  0  0
  181.4630  178.4780  139.5960 N   0  0  0  0  0  2  0  0  0  0  0  0
  180.4470  176.5080  139.1970 C   0  0  0  0  0  0  0  0  0  0  0  0
  179.6720  176.8970  140.7570 S   0  0  0  0  0  0  0  0  0  0  0  0
  180.7180  174.9970  137.1750 C   0  0  0  0  0  2  0  0  0  0  0  0
  181.5210  173.7190  137.3520 C   0  0  0  0  0  2  0  0  0  0  0  0
  183.1140  174.0690  135.4500 C   0  0  0  0  0  3  0  0  0  0  0  0
  182.9050  173.8670  136.8190 C   0  0  0  0  0  0  0  0  0  0  0  0
  184.4130  174.2290  134.9580 C   0  0  0  0  0  3  0  0  0  0  0  0
  185.5080  174.1970  135.8280 C   0  0  0  0  0  0  0  0  0  0  0  0
  185.2920  173.9950  137.2000 C   0  0  0  0  0  3  0  0  0  0  0  0
  183.9950  173.8270  137.6920 C   0  0  0  0  0  3  0  0  0  0  0  0
  186.7920  174.3770  135.3090 O   0  0  0  0  0  0  0  0  0  0  0  0
  188.6160  175.9160  134.9510 C   0  0  0  0  0  2  0  0  0  0  0  0
  187.5640  176.6270  135.7670 C   0  0  2  0  0  0  0  0  0  0  0  0
  187.7930  175.1400  135.9760 C   0  0  1  0  0  3  0  0  0  0  0  0
  186.4220  176.9750  135.0330 O   0  0  0  0  0  1  0  0  0  0  0  0
  186.9580  178.0830  137.7360 C   0  0  0  0  0  2  0  0  0  0  0  0
  188.0870  177.5550  136.8640 C   0  0  0  0  0  3  0  0  0  0  0  0
  187.5470  178.9610  136.6520 C   0  0  0  0  0  2  0  0  0  0  0  0
  185.2930  179.0720  146.6610 N   0  0  0  0  0  2  0  0  0  0  0  0
  188.3430  177.6400  145.0150 C   0  0  0  0  0  0  0  0  0  0  0  0
  186.5620  178.4420  146.4770 C   0  0  0  0  0  0  0  0  0  0  0  0
  189.0530  177.2090  146.1510 C   0  0  0  0  0  3  0  0  0  0  0  0
  187.0980  178.2630  145.1930 C   0  0  0  0  0  3  0  0  0  0  0  0
  188.5250  177.3920  147.4320 C   0  0  0  0  0  3  0  0  0  0  0  0
  187.2780  178.0030  147.5940 C   0  0  0  0  0  3  0  0  0  0  0  0
  191.7810  177.2080  139.9330 C   0  0  0  0  0  0  0  0  0  0  0  0
  191.6960  175.8390  138.3210 C   0  0  0  0  0  0  0  0  0  0  0  0
  188.8780  177.4160  143.6490 C   0  0  0  0  0  0  0  0  0  0  0  0
  190.3700  177.5870  143.3980 C   0  0  0  0  0  2  0  0  0  0  0  0
  192.5740  176.4890  139.1280 N   0  0  0  0  0  0  0  0  0  0  0  0
  193.0540  177.6910  141.9420 O   0  0  0  0  0  0  0  0  0  0  0  0
  190.3620  176.0320  138.7010 C   0  0  0  0  0  3  0  0  0  0  0  0
  189.7550  177.1460  140.9690 C   0  0  0  0  0  0  0  0  0  0  0  0
  188.0410  177.0610  142.6460 C   0  0  0  0  0  3  0  0  0  0  0  0
  190.6760  177.5770  141.9700 N   0  0  0  0  0  0  0  0  0  0  0  0
  190.4710  176.9570  139.7110 C   0  0  1  0  0  3  0  0  0  0  0  0
  188.4920  176.8600  141.2560 C   0  0  0  0  0  3  0  0  0  0  0  0
  191.9560  177.5490  141.3410 C   0  0  0  0  0  0  0  0  0  0  0  0
  191.5870  173.2730  135.5620 C   0  0  0  0  0  2  0  0  0  0  0  0
  193.3630  172.0130  134.5960 O   0  0  0  0  0  1  0  0  0  0  0  0
  193.0100  172.7460  135.7260 C   0  0  1  0  0  3  0  0  0  0  0  0
  193.9360  173.9520  135.8840 C   0  0  1  0  0  3  0  0  0  0  0  0
  192.1200  174.9150  137.2630 C   0  0  0  0  0  0  0  0  0  0  0  0
  191.2350  174.1810  136.6510 N   0  0  0  0  0  0  0  0  0  0  0  0
  193.4820  174.7970  136.9420 O   0  0  0  0  0  0  0  0  0  0  0  0
  196.1860  174.6440  136.3950 O   0  0  0  0  0  1  0  0  0  0  0  0
  195.3820  173.5300  136.1290 C   0  0  0  0  0  2  0  0  0  0  0  0
  1 31  1  0  0  0  0
  2  1  1  0  0  0  0
  5  4  2  0  0  0  0
  5  2  1  0  0  0  0
  6  8  1  0  0  0  0
  6  7  2  0  0  0  0
  7  3  1  0  0  0  0
  7  4  1  0  0  0  0
  8  5  1  0  0  0  0
  9  6  1  1  0  0  0
 10 13  1  0  0  0  0
 11 13  2  0  0  0  0
 11 12  1  0  0  0  0
 12  9  1  0  0  0  0
 13 14  1  0  0  0  0
 14  9  1  0  0  0  0
 15 16  1  0  0  0  0
 15 10  1  0  0  0  0
 17 18  1  0  0  0  0
 18 16  1  0  0  0  0
 18 22  2  0  0  0  0
 19 17  2  0  0  0  0
 19 20  1  0  0  0  0
 20 21  2  0  0  0  0
 21 22  1  0  0  0  0
 23 20  1  0  0  0  0
 24 25  1  0  0  0  0
 24 26  1  0  0  0  0
 25 27  1  6  0  0  0
 25 26  1  0  0  0  0
 25 29  1  0  0  0  0
 26 23  1  6  0  0  0
 29 28  1  0  0  0  0
 30 29  1  0  0  0  0
 30 28  1  0  0  0  0
 32 35  2  0  0  0  0
 32 34  1  0  0  0  0
 33 31  1  0  0  0  0
 33 37  2  0  0  0  0
 34 36  2  0  0  0  0
 35 33  1  0  0  0  0
 36 37  1  0  0  0  0
 38 50  1  0  0  0  0
 39 44  2  0  0  0  0
 39 42  1  0  0  0  0
 40 32  1  0  0  0  0
 41 40  1  0  0  0  0
 42 38  2  0  0  0  0
 45 49  2  0  0  0  0
 45 47  1  0  0  0  0
 46 40  2  0  0  0  0
 47 41  1  0  0  0  0
 48 44  1  1  0  0  0
 48 38  1  0  0  0  0
 48 45  1  0  0  0  0
 49 46  1  0  0  0  0
 50 43  2  0  0  0  0
 50 47  1  0  0  0  0
 51 53  1  0  0  0  0
 51 56  1  0  0  0  0
 53 52  1  6  0  0  0
 53 54  1  0  0  0  0
 54 59  1  1  0  0  0
 54 57  1  0  0  0  0
 55 39  1  0  0  0  0
 56 55  2  0  0  0  0
 57 55  1  0  0  0  0
 59 58  1  0  0  0  0
M  END
>  <MODEL>
3

>  <REMARK>
 VINA RESULT:      -7.7      2.045      7.872
  Name = 
  14 active torsions:
  status: ('A' for Active; 'I' for Inactive)
    1  A    between atoms: C_4  and  C_26
    2  A    between atoms: C_5  and  N_58
    3  A    between atoms: C_9  and  C_22
    4  A    between atoms: C_12  and  C_14
    5  A    between atoms: C_13  and  C_20
    6  A    between atoms: N_16  and  C_45
    7  A    between atoms: N_16  and  N_58
    8  A    between atoms: C_17  and  C_36
    9  A    between atoms: C_22  and  C_46
   10  A    between atoms: C_23  and  O_55
   11  A    between atoms: C_24  and  C_29
   12  A    between atoms: N_28  and  C_46
   13  A    between atoms: C_31  and  C_45
   14  A    between atoms: C_39  and  O_55
                            x       y       z     vdW  Elec       q    Type
                         _______ _______ _______ _____ _____    ______ ____

>  <TORSDO>
F 14

$$$$
=
 OpenBabel10222417313D

 59 68  0  0  1  0  0  0  0  0999 V2000
  184.1850  179.9540  139.3460 N   0  0  0  0  0  2  0  0  0  0  0  0
  184.8120  178.8450  140.0500 C   0  0  0  0  0  2  0  0  0  0  0  0
  181.6140  178.6870  143.9750 C   0  0  0  0  0  1  0  0  0  0  0  0
  183.0420  178.7920  141.8880 C   0  0  0  0  0  3  0  0  0  0  0  0
  184.3660  178.8380  141.4680 C   0  0  0  0  0  0  0  0  0  0  0  0
  184.1520  178.7660  143.9480 C   0  0  0  0  0  0  0  0  0  0  0  0
  182.9290  178.7530  143.2840 C   0  0  0  0  0  0  0  0  0  0  0  0
  185.3860  178.8230  142.8040 S   0  0  0  0  0  0  0  0  0  0  0  0
  184.3410  178.6890  145.4280 C   0  0  1  0  0  3  0  0  0  0  0  0
  187.6640  178.4960  147.5200 N   0  0  0  0  0  2  0  0  0  0  0  0
  185.8790  177.2440  146.5630 N   0  0  0  0  0  0  0  0  0  0  0  0
  184.7030  177.3340  145.8170 N   0  0  0  0  0  2  0  0  0  0  0  0
  186.4860  178.3730  146.7190 C   0  0  0  0  0  0  0  0  0  0  0  0
  185.7050  179.7900  145.9670 S   0  0  0  0  0  0  0  0  0  0  0  0
  188.3360  177.3510  148.1250 C   0  0  0  0  0  2  0  0  0  0  0  0
  189.8400  177.5610  148.0750 C   0  0  0  0  0  2  0  0  0  0  0  0
  191.2900  176.4030  146.3910 C   0  0  0  0  0  3  0  0  0  0  0  0
  190.3650  177.4100  146.6880 C   0  0  0  0  0  0  0  0  0  0  0  0
  191.7630  176.2500  145.0840 C   0  0  0  0  0  3  0  0  0  0  0  0
  191.3100  177.0960  144.0660 C   0  0  0  0  0  0  0  0  0  0  0  0
  190.3820  178.1040  144.3690 C   0  0  0  0  0  3  0  0  0  0  0  0
  189.9140  178.2630  145.6770 C   0  0  0  0  0  3  0  0  0  0  0  0
  191.7880  176.9080  142.7670 O   0  0  0  0  0  0  0  0  0  0  0  0
  192.0990  177.2830  140.4040 C   0  0  0  0  0  2  0  0  0  0  0  0
  190.6150  177.2130  140.6690 C   0  0  2  0  0  0  0  0  0  0  0  0
  191.5320  177.8300  141.7120 C   0  0  1  0  0  3  0  0  0  0  0  0
  190.1540  175.9190  140.9470 O   0  0  0  0  0  1  0  0  0  0  0  0
  188.4830  177.5140  139.3540 C   0  0  0  0  0  2  0  0  0  0  0  0
  189.7480  178.1850  139.8670 C   0  0  0  0  0  3  0  0  0  0  0  0
  189.6580  177.7240  138.4210 C   0  0  0  0  0  2  0  0  0  0  0  0
  183.3890  179.4050  138.3330 N   0  0  0  0  0  2  0  0  0  0  0  0
  184.9140  176.1680  137.2120 C   0  0  0  0  0  0  0  0  0  0  0  0
  183.5260  178.0420  137.9290 C   0  0  0  0  0  0  0  0  0  0  0  0
  183.7600  175.3650  137.1470 C   0  0  0  0  0  3  0  0  0  0  0  0
  184.7830  177.5060  137.6120 C   0  0  0  0  0  3  0  0  0  0  0  0
  182.5070  175.8930  137.4680 C   0  0  0  0  0  3  0  0  0  0  0  0
  182.3900  177.2310  137.8540 C   0  0  0  0  0  3  0  0  0  0  0  0
  190.5380  175.1630  134.9330 C   0  0  0  0  0  0  0  0  0  0  0  0
  192.1810  174.0930  135.7310 C   0  0  0  0  0  0  0  0  0  0  0  0
  186.2440  175.6260  136.8360 C   0  0  0  0  0  0  0  0  0  0  0  0
  187.2180  176.5130  136.0730 C   0  0  0  0  0  2  0  0  0  0  0  0
  191.8700  175.2320  135.0600 N   0  0  0  0  0  0  0  0  0  0  0  0
  189.7340  177.4290  134.6020 O   0  0  0  0  0  0  0  0  0  0  0  0
  191.0490  173.3820  136.1490 C   0  0  0  0  0  3  0  0  0  0  0  0
  188.6730  174.4260  136.0100 C   0  0  0  0  0  0  0  0  0  0  0  0
  186.5760  174.3590  137.1750 C   0  0  0  0  0  3  0  0  0  0  0  0
  188.3570  175.7470  135.5730 N   0  0  0  0  0  0  0  0  0  0  0  0
  190.0220  174.0870  135.5680 C   0  0  1  0  0  3  0  0  0  0  0  0
  187.8620  173.7390  136.8020 C   0  0  0  0  0  3  0  0  0  0  0  0
  189.5490  176.2360  134.9580 C   0  0  0  0  0  0  0  0  0  0  0  0
  195.5820  172.4700  135.7130 C   0  0  0  0  0  2  0  0  0  0  0  0
  197.2500  172.4330  137.4140 O   0  0  0  0  0  1  0  0  0  0  0  0
  195.8900  172.6410  137.1990 C   0  0  1  0  0  3  0  0  0  0  0  0
  195.5050  174.0670  137.5910 C   0  0  1  0  0  3  0  0  0  0  0  0
  193.5550  173.7380  136.1050 C   0  0  0  0  0  0  0  0  0  0  0  0
  194.2000  172.8380  135.4180 N   0  0  0  0  0  0  0  0  0  0  0  0
  194.1530  174.3410  137.2220 O   0  0  0  0  0  0  0  0  0  0  0  0
  196.9110  174.9950  139.3140 O   0  0  0  0  0  1  0  0  0  0  0  0
  195.7070  174.3200  139.0830 C   0  0  0  0  0  2  0  0  0  0  0  0
  1  2  1  0  0  0  0
  2  5  1  0  0  0  0
  4  7  1  0  0  0  0
  5  4  2  0  0  0  0
  5  8  1  0  0  0  0
  7  6  2  0  0  0  0
  7  3  1  0  0  0  0
  8  6  1  0  0  0  0
  9  6  1  6  0  0  0
  9 12  1  0  0  0  0
  9 14  1  0  0  0  0
 10 15  1  0  0  0  0
 11 13  2  0  0  0  0
 12 11  1  0  0  0  0
 13 10  1  0  0  0  0
 14 13  1  0  0  0  0
 16 15  1  0  0  0  0
 17 18  1  0  0  0  0
 18 16  1  0  0  0  0
 19 17  2  0  0  0  0
 20 21  2  0  0  0  0
 20 19  1  0  0  0  0
 21 22  1  0  0  0  0
 22 18  2  0  0  0  0
 23 20  1  0  0  0  0
 24 25  1  0  0  0  0
 24 26  1  0  0  0  0
 25 27  1  1  0  0  0
 25 26  1  0  0  0  0
 26 23  1  1  0  0  0
 28 29  1  0  0  0  0
 29 25  1  0  0  0  0
 30 28  1  0  0  0  0
 30 29  1  0  0  0  0
 31  1  1  0  0  0  0
 32 35  1  0  0  0  0
 33 31  1  0  0  0  0
 34 32  2  0  0  0  0
 34 36  1  0  0  0  0
 35 33  2  0  0  0  0
 36 37  2  0  0  0  0
 37 33  1  0  0  0  0
 38 50  1  0  0  0  0
 38 42  2  0  0  0  0
 38 48  1  0  0  0  0
 39 55  1  0  0  0  0
 39 44  2  0  0  0  0
 40 46  2  0  0  0  0
 40 32  1  0  0  0  0
 41 40  1  0  0  0  0
 42 39  1  0  0  0  0
 43 50  2  0  0  0  0
 45 49  2  0  0  0  0
 47 45  1  0  0  0  0
 47 41  1  0  0  0  0
 48 45  1  0  0  0  0
 48 44  1  1  0  0  0
 49 46  1  0  0  0  0
 50 47  1  0  0  0  0
 51 53  1  0  0  0  0
 53 52  1  6  0  0  0
 53 54  1  0  0  0  0
 54 59  1  1  0  0  0
 55 57  1  0  0  0  0
 56 51  1  0  0  0  0
 56 55  2  0  0  0  0
 57 54  1  0  0  0  0
 59 58  1  0  0  0  0
M  END
>  <MODEL>
4

>  <REMARK>
 VINA RESULT:      -7.3      2.223      4.486
  Name = 
  14 active torsions:
  status: ('A' for Active; 'I' for Inactive)
    1  A    between atoms: C_4  and  C_26
    2  A    between atoms: C_5  and  N_58
    3  A    between atoms: C_9  and  C_22
    4  A    between atoms: C_12  and  C_14
    5  A    between atoms: C_13  and  C_20
    6  A    between atoms: N_16  and  C_45
    7  A    between atoms: N_16  and  N_58
    8  A    between atoms: C_17  and  C_36
    9  A    between atoms: C_22  and  C_46
   10  A    between atoms: C_23  and  O_55
   11  A    between atoms: C_24  and  C_29
   12  A    between atoms: N_28  and  C_46
   13  A    between atoms: C_31  and  C_45
   14  A    between atoms: C_39  and  O_55
                            x       y       z     vdW  Elec       q    Type
                         _______ _______ _______ _____ _____    ______ ____

>  <TORSDO>
F 14

$$$$
=
 OpenBabel10222417313D

 59 68  0  0  1  0  0  0  0  0999 V2000
  192.7860  175.2420  137.0730 N   0  0  0  0  0  2  0  0  0  0  0  0
  192.8170  176.6420  137.4720 C   0  0  0  0  0  2  0  0  0  0  0  0
  192.4900  178.0630  142.3230 C   0  0  0  0  0  1  0  0  0  0  0  0
  192.8580  177.4130  139.9040 C   0  0  0  0  0  3  0  0  0  0  0  0
  192.2340  176.7860  138.8320 C   0  0  0  0  0  0  0  0  0  0  0  0
  190.8070  176.8350  140.8710 C   0  0  0  0  0  0  0  0  0  0  0  0
  192.0500  177.4350  141.0480 C   0  0  0  0  0  0  0  0  0  0  0  0
  190.7000  176.2730  139.2880 S   0  0  0  0  0  0  0  0  0  0  0  0
  189.7260  176.7490  141.9000 C   0  0  1  0  0  3  0  0  0  0  0  0
  189.7460  177.9120  145.6550 N   0  0  0  0  0  2  0  0  0  0  0  0
  190.0230  176.0660  144.1770 N   0  0  0  0  0  0  0  0  0  0  0  0
  190.0130  175.6740  142.8380 N   0  0  0  0  0  2  0  0  0  0  0  0
  189.8470  177.3320  144.3520 C   0  0  0  0  0  0  0  0  0  0  0  0
  189.6250  178.3020  142.8700 S   0  0  0  0  0  0  0  0  0  0  0  0
  189.9470  177.1470  146.8820 C   0  0  0  0  0  2  0  0  0  0  0  0
  189.0190  177.6720  147.9640 C   0  0  0  0  0  2  0  0  0  0  0  0
  186.9670  179.1050  147.8450 C   0  0  0  0  0  3  0  0  0  0  0  0
  187.6620  177.9670  147.4220 C   0  0  0  0  0  0  0  0  0  0  0  0
  185.7030  179.3900  147.3170 C   0  0  0  0  0  3  0  0  0  0  0  0
  185.1320  178.5450  146.3590 C   0  0  0  0  0  0  0  0  0  0  0  0
  185.8340  177.4050  145.9380 C   0  0  0  0  0  3  0  0  0  0  0  0
  187.0930  177.1160  146.4710 C   0  0  0  0  0  3  0  0  0  0  0  0
  183.8760  178.8650  145.8380 O   0  0  0  0  0  0  0  0  0  0  0  0
  182.5970  179.5020  143.8930 C   0  0  0  0  0  2  0  0  0  0  0  0
  184.0230  179.2730  143.4550 C   0  0  2  0  0  0  0  0  0  0  0  0
  183.4340  178.4140  144.5610 C   0  0  1  0  0  3  0  0  0  0  0  0
  184.9070  180.2800  143.8650 O   0  0  0  0  0  1  0  0  0  0  0  0
  185.5580  177.9210  141.9780 C   0  0  0  0  0  2  0  0  0  0  0  0
  184.2010  178.5990  142.0940 C   0  0  0  0  0  3  0  0  0  0  0  0
  185.3300  179.2700  141.3280 C   0  0  0  0  0  2  0  0  0  0  0  0
  192.2440  175.1910  135.7830 N   0  0  0  0  0  2  0  0  0  0  0  0
  188.5660  174.5090  135.5140 C   0  0  0  0  0  0  0  0  0  0  0  0
  191.0060  174.5300  135.5170 C   0  0  0  0  0  0  0  0  0  0  0  0
  188.5980  173.2090  134.9780 C   0  0  0  0  0  3  0  0  0  0  0  0
  189.7810  175.1640  135.7720 C   0  0  0  0  0  3  0  0  0  0  0  0
  189.8170  172.5770  134.7160 C   0  0  0  0  0  3  0  0  0  0  0  0
  191.0190  173.2350  134.9900 C   0  0  0  0  0  3  0  0  0  0  0  0
  182.8360  175.9390  137.2340 C   0  0  0  0  0  0  0  0  0  0  0  0
  182.0460  177.7210  138.0590 C   0  0  0  0  0  0  0  0  0  0  0  0
  187.2770  175.1740  135.8310 C   0  0  0  0  0  0  0  0  0  0  0  0
  186.1910  174.3840  136.5480 C   0  0  0  0  0  2  0  0  0  0  0  0
  181.9800  176.3690  138.1710 N   0  0  0  0  0  2  0  0  0  0  0  0
  183.5230  173.7000  137.8690 O   0  0  0  0  0  0  0  0  0  0  0  0
  183.0350  178.1450  137.1640 C   0  0  0  0  0  3  0  0  0  0  0  0
  184.7970  176.4870  136.2150 C   0  0  0  0  0  0  0  0  0  0  0  0
  187.0820  176.4680  135.4840 C   0  0  0  0  0  3  0  0  0  0  0  0
  184.9210  175.1050  136.5510 N   0  0  0  0  0  0  0  0  0  0  0  0
  183.4790  176.9610  136.6260 C   0  0  0  0  0  0  0  0  0  0  0  0
  185.8160  177.1830  135.7300 C   0  0  0  0  0  3  0  0  0  0  0  0
  183.7210  174.7790  137.2510 C   0  0  0  0  0  0  0  0  0  0  0  0
  180.4770  180.8580  139.4380 C   0  0  0  0  0  2  0  0  0  0  0  0
  179.4180  181.2220  141.5410 O   0  0  0  0  0  1  0  0  0  0  0  0
  180.3010  180.3750  140.8760 C   0  0  1  0  0  3  0  0  0  0  0  0
  179.7330  178.9570  140.8230 C   0  0  1  0  0  3  0  0  0  0  0  0
  181.2650  178.6290  138.9070 C   0  0  0  0  0  0  0  0  0  0  0  0
  181.2660  179.9070  138.6580 N   0  0  0  0  0  0  0  0  0  0  0  0
  180.5510  178.1200  140.0030 O   0  0  0  0  0  0  0  0  0  0  0  0
  179.3200  176.9790  142.1350 O   0  0  0  0  0  1  0  0  0  0  0  0
  179.5870  178.3510  142.2160 C   0  0  0  0  0  2  0  0  0  0  0  0
  1  2  1  0  0  0  0
  2  5  1  0  0  0  0
  4  7  1  0  0  0  0
  5  8  1  0  0  0  0
  5  4  2  0  0  0  0
  6  7  2  0  0  0  0
  7  3  1  0  0  0  0
  8  6  1  0  0  0  0
  9  6  1  6  0  0  0
  9 12  1  0  0  0  0
  9 14  1  0  0  0  0
 10 15  1  0  0  0  0
 11 13  2  0  0  0  0
 12 11  1  0  0  0  0
 13 10  1  0  0  0  0
 14 13  1  0  0  0  0
 15 16  1  0  0  0  0
 18 17  1  0  0  0  0
 18 16  1  0  0  0  0
 19 17  2  0  0  0  0
 20 19  1  0  0  0  0
 21 20  2  0  0  0  0
 21 22  1  0  0  0  0
 22 18  2  0  0  0  0
 23 20  1  0  0  0  0
 24 26  1  0  0  0  0
 25 27  1  1  0  0  0
 25 24  1  0  0  0  0
 25 26  1  0  0  0  0
 26 23  1  1  0  0  0
 28 29  1  0  0  0  0
 29 25  1  0  0  0  0
 30 28  1  0  0  0  0
 30 29  1  0  0  0  0
 31  1  1  0  0  0  0
 32 35  1  0  0  0  0
 32 40  1  0  0  0  0
 33 35  2  0  0  0  0
 33 31  1  0  0  0  0
 34 32  2  0  0  0  0
 36 34  1  0  0  0  0
 36 37  2  0  0  0  0
 37 33  1  0  0  0  0
 38 50  1  0  0  0  0
 38 42  1  0  0  0  0
 39 42  1  0  0  0  0
 39 55  1  0  0  0  0
 40 41  1  0  0  0  0
 41 47  1  0  0  0  0
 44 39  2  0  0  0  0
 45 47  1  0  0  0  0
 45 48  1  0  0  0  0
 46 49  1  0  0  0  0
 46 40  2  0  0  0  0
 47 50  1  0  0  0  0
 48 44  1  0  0  0  0
 48 38  2  0  0  0  0
 49 45  2  0  0  0  0
 50 43  2  0  0  0  0
 51 53  1  0  0  0  0
 53 52  1  1  0  0  0
 54 53  1  0  0  0  0
 54 59  1  1  0  0  0
 55 57  1  0  0  0  0
 56 55  2  0  0  0  0
 56 51  1  0  0  0  0
 57 54  1  0  0  0  0
 58 59  1  0  0  0  0
M  END
>  <MODEL>
5

>  <REMARK>
 VINA RESULT:      -6.9      3.323      8.958
  Name = 
  14 active torsions:
  status: ('A' for Active; 'I' for Inactive)
    1  A    between atoms: C_4  and  C_26
    2  A    between atoms: C_5  and  N_58
    3  A    between atoms: C_9  and  C_22
    4  A    between atoms: C_12  and  C_14
    5  A    between atoms: C_13  and  C_20
    6  A    between atoms: N_16  and  C_45
    7  A    between atoms: N_16  and  N_58
    8  A    between atoms: C_17  and  C_36
    9  A    between atoms: C_22  and  C_46
   10  A    between atoms: C_23  and  O_55
   11  A    between atoms: C_24  and  C_29
   12  A    between atoms: N_28  and  C_46
   13  A    between atoms: C_31  and  C_45
   14  A    between atoms: C_39  and  O_55
                            x       y       z     vdW  Elec       q    Type
                         _______ _______ _______ _____ _____    ______ ____

>  <TORSDO>
F 14

$$$$
=
 OpenBabel10222417313D

 59 68  0  0  1  0  0  0  0  0999 V2000
  188.2820  176.9810  148.5700 N   0  0  0  0  0  2  0  0  0  0  0  0
  189.3410  177.9120  148.2080 C   0  0  0  0  0  2  0  0  0  0  0  0
  192.7570  174.8800  146.0190 C   0  0  0  0  0  1  0  0  0  0  0  0
  191.1220  176.3260  147.3010 C   0  0  0  0  0  3  0  0  0  0  0  0
  190.1730  177.3260  147.1250 C   0  0  0  0  0  0  0  0  0  0  0  0
  191.2380  176.6330  144.9840 C   0  0  0  0  0  0  0  0  0  0  0  0
  191.7190  175.9430  146.0930 C   0  0  0  0  0  0  0  0  0  0  0  0
  190.0640  177.7260  145.4960 S   0  0  0  0  0  0  0  0  0  0  0  0
  191.6570  176.4070  143.5680 C   0  0  1  0  0  3  0  0  0  0  0  0
  190.1480  177.8740  140.2470 N   0  0  0  0  0  2  0  0  0  0  0  0
  190.1780  176.0080  141.7250 N   0  0  0  0  0  0  0  0  0  0  0  0
  190.7230  175.5060  142.9080 N   0  0  0  0  0  2  0  0  0  0  0  0
  190.5390  177.2170  141.4560 C   0  0  0  0  0  0  0  0  0  0  0  0
  191.6480  177.9810  142.6270 S   0  0  0  0  0  0  0  0  0  0  0  0
  189.2240  177.2820  139.2850 C   0  0  0  0  0  2  0  0  0  0  0  0
  189.8560  177.2930  137.9030 C   0  0  0  0  0  2  0  0  0  0  0  0
  190.7480  174.9980  137.4410 C   0  0  0  0  0  3  0  0  0  0  0  0
  190.9860  176.3260  137.8130 C   0  0  0  0  0  0  0  0  0  0  0  0
  191.8140  174.0990  137.3360 C   0  0  0  0  0  3  0  0  0  0  0  0
  193.1220  174.5220  137.5940 C   0  0  0  0  0  0  0  0  0  0  0  0
  193.3560  175.8550  137.9660 C   0  0  0  0  0  3  0  0  0  0  0  0
  192.2900  176.7520  138.0790 C   0  0  0  0  0  3  0  0  0  0  0  0
  194.1680  173.6050  137.4640 O   0  0  0  0  0  0  0  0  0  0  0  0
  196.4140  172.7230  137.5220 C   0  0  0  0  0  2  0  0  0  0  0  0
  196.4340  173.9860  136.6950 C   0  0  2  0  0  0  0  0  0  0  0  0
  195.4980  173.8890  137.8880 C   0  0  1  0  0  3  0  0  0  0  0  0
  195.8380  173.8430  135.4350 O   0  0  0  0  0  1  0  0  0  0  0  0
  198.6920  174.6320  135.7740 C   0  0  0  0  0  2  0  0  0  0  0  0
  197.6650  174.8760  136.8690 C   0  0  0  0  0  3  0  0  0  0  0  0
  198.8890  174.0170  137.1440 C   0  0  0  0  0  2  0  0  0  0  0  0
  187.4670  176.8220  147.4430 N   0  0  0  0  0  2  0  0  0  0  0  0
  185.3150  178.8610  145.1460 C   0  0  0  0  0  0  0  0  0  0  0  0
  186.7140  177.9100  146.9040 C   0  0  0  0  0  0  0  0  0  0  0  0
  185.2440  180.0600  145.8800 C   0  0  0  0  0  3  0  0  0  0  0  0
  186.0490  177.7890  145.6740 C   0  0  0  0  0  3  0  0  0  0  0  0
  185.9000  180.1830  147.1070 C   0  0  0  0  0  3  0  0  0  0  0  0
  186.6380  179.1110  147.6160 C   0  0  0  0  0  3  0  0  0  0  0  0
  183.9000  178.5790  139.1670 C   0  0  0  0  0  0  0  0  0  0  0  0
  182.4320  177.4450  138.1470 C   0  0  0  0  0  0  0  0  0  0  0  0
  184.6530  178.7340  143.8240 C   0  0  0  0  0  0  0  0  0  0  0  0
  185.5070  178.7230  142.5640 C   0  0  0  0  0  2  0  0  0  0  0  0
  183.7220  177.8590  138.0500 N   0  0  0  0  0  0  0  0  0  0  0  0
  186.2850  178.6250  139.6110 O   0  0  0  0  0  0  0  0  0  0  0  0
  181.8440  177.7760  139.3740 C   0  0  0  0  0  3  0  0  0  0  0  0
  183.2700  178.6770  141.3520 C   0  0  0  0  0  0  0  0  0  0  0  0
  183.3060  178.6280  143.7510 C   0  0  0  0  0  3  0  0  0  0  0  0
  184.6870  178.8450  141.3610 N   0  0  0  0  0  0  0  0  0  0  0  0
  182.8150  178.5450  139.9710 C   0  0  1  0  0  3  0  0  0  0  0  0
  182.5750  178.5390  142.4720 C   0  0  0  0  0  3  0  0  0  0  0  0
  185.0910  178.7150  139.9990 C   0  0  0  0  0  0  0  0  0  0  0  0
  179.9150  176.1460  135.6600 C   0  0  0  0  0  2  0  0  0  0  0  0
  179.8010  174.0180  134.5940 O   0  0  0  0  0  1  0  0  0  0  0  0
  180.3460  174.6820  135.6910 C   0  0  1  0  0  3  0  0  0  0  0  0
  181.8720  174.6450  135.6250 C   0  0  1  0  0  3  0  0  0  0  0  0
  181.7860  176.6080  137.1300 C   0  0  0  0  0  0  0  0  0  0  0  0
  180.5950  176.9140  136.7000 N   0  0  0  0  0  0  0  0  0  0  0  0
  182.4370  175.4600  136.6530 O   0  0  0  0  0  0  0  0  0  0  0  0
  183.5090  173.1640  136.5890 O   0  0  0  0  0  1  0  0  0  0  0  0
  182.4110  173.2200  135.7230 C   0  0  0  0  0  2  0  0  0  0  0  0
  2  1  1  0  0  0  0
  3  7  1  0  0  0  0
  5  4  2  0  0  0  0
  5  2  1  0  0  0  0
  6  8  1  0  0  0  0
  6  7  2  0  0  0  0
  7  4  1  0  0  0  0
  8  5  1  0  0  0  0
  9  6  1  1  0  0  0
 10 13  1  0  0  0  0
 11 12  1  0  0  0  0
 12  9  1  0  0  0  0
 13 11  2  0  0  0  0
 13 14  1  0  0  0  0
 14  9  1  0  0  0  0
 15 10  1  0  0  0  0
 16 15  1  0  0  0  0
 17 18  1  0  0  0  0
 18 16  1  0  0  0  0
 18 22  2  0  0  0  0
 19 17  2  0  0  0  0
 19 20  1  0  0  0  0
 20 21  2  0  0  0  0
 21 22  1  0  0  0  0
 23 20  1  0  0  0  0
 24 26  1  0  0  0  0
 25 27  1  6  0  0  0
 25 29  1  0  0  0  0
 25 24  1  0  0  0  0
 25 26  1  0  0  0  0
 26 23  1  6  0  0  0
 28 29  1  0  0  0  0
 28 30  1  0  0  0  0
 29 30  1  0  0  0  0
 31  1  1  0  0  0  0
 32 35  2  0  0  0  0
 32 34  1  0  0  0  0
 33 31  1  0  0  0  0
 33 37  2  0  0  0  0
 34 36  2  0  0  0  0
 35 33  1  0  0  0  0
 36 37  1  0  0  0  0
 38 48  1  0  0  0  0
 38 50  1  0  0  0  0
 39 44  2  0  0  0  0
 40 32  1  0  0  0  0
 41 40  1  0  0  0  0
 42 39  1  0  0  0  0
 42 38  2  0  0  0  0
 43 50  2  0  0  0  0
 45 47  1  0  0  0  0
 45 49  2  0  0  0  0
 46 40  2  0  0  0  0
 47 41  1  0  0  0  0
 48 44  1  1  0  0  0
 48 45  1  0  0  0  0
 49 46  1  0  0  0  0
 50 47  1  0  0  0  0
 51 53  1  0  0  0  0
 51 56  1  0  0  0  0
 53 52  1  6  0  0  0
 54 53  1  0  0  0  0
 54 59  1  1  0  0  0
 54 57  1  0  0  0  0
 55 39  1  0  0  0  0
 56 55  2  0  0  0  0
 57 55  1  0  0  0  0
 59 58  1  0  0  0  0
M  END
>  <MODEL>
6

>  <REMARK>
 VINA RESULT:      -6.9      3.023      9.159
  Name = 
  14 active torsions:
  status: ('A' for Active; 'I' for Inactive)
    1  A    between atoms: C_4  and  C_26
    2  A    between atoms: C_5  and  N_58
    3  A    between atoms: C_9  and  C_22
    4  A    between atoms: C_12  and  C_14
    5  A    between atoms: C_13  and  C_20
    6  A    between atoms: N_16  and  C_45
    7  A    between atoms: N_16  and  N_58
    8  A    between atoms: C_17  and  C_36
    9  A    between atoms: C_22  and  C_46
   10  A    between atoms: C_23  and  O_55
   11  A    between atoms: C_24  and  C_29
   12  A    between atoms: N_28  and  C_46
   13  A    between atoms: C_31  and  C_45
   14  A    between atoms: C_39  and  O_55
                            x       y       z     vdW  Elec       q    Type
                         _______ _______ _______ _____ _____    ______ ____

>  <TORSDO>
F 14

$$$$
=
 OpenBabel10222417313D

 59 68  0  0  1  0  0  0  0  0999 V2000
  184.7670  179.7690  139.2930 N   0  0  0  0  0  2  0  0  0  0  0  0
  185.1140  178.9310  140.4310 C   0  0  0  0  0  2  0  0  0  0  0  0
  189.4320  177.5780  138.1550 C   0  0  0  0  0  1  0  0  0  0  0  0
  187.1820  178.2480  139.1010 C   0  0  0  0  0  3  0  0  0  0  0  0
  186.5220  178.4730  140.3040 C   0  0  0  0  0  0  0  0  0  0  0  0
  188.8950  177.7930  140.6280 C   0  0  0  0  0  0  0  0  0  0  0  0
  188.5150  177.8630  139.2910 C   0  0  0  0  0  0  0  0  0  0  0  0
  187.5760  178.2100  141.5870 S   0  0  0  0  0  0  0  0  0  0  0  0
  190.2610  177.4530  141.1290 C   0  0  1  0  0  3  0  0  0  0  0  0
  191.4070  176.3660  144.7300 N   0  0  0  0  0  2  0  0  0  0  0  0
  191.2040  178.1850  143.2070 N   0  0  0  0  0  0  0  0  0  0  0  0
  190.7890  178.5510  141.9250 N   0  0  0  0  0  2  0  0  0  0  0  0
  190.9810  176.9470  143.4940 C   0  0  0  0  0  0  0  0  0  0  0  0
  190.2070  175.9750  142.2130 S   0  0  0  0  0  0  0  0  0  0  0  0
  192.0200  177.1430  145.8030 C   0  0  0  0  0  2  0  0  0  0  0  0
  191.3690  176.7780  147.1270 C   0  0  0  0  0  2  0  0  0  0  0  0
  189.1310  176.8230  148.2520 C   0  0  0  0  0  3  0  0  0  0  0  0
  189.9070  177.0650  147.1130 C   0  0  0  0  0  0  0  0  0  0  0  0
  187.7640  177.1160  148.2420 C   0  0  0  0  0  3  0  0  0  0  0  0
  187.1660  177.6580  147.0990 C   0  0  0  0  0  0  0  0  0  0  0  0
  187.9480  177.8990  145.9600 C   0  0  0  0  0  3  0  0  0  0  0  0
  189.3140  177.6000  145.9660 C   0  0  0  0  0  3  0  0  0  0  0  0
  185.8010  177.9550  147.1260 O   0  0  0  0  0  0  0  0  0  0  0  0
  183.6220  178.4840  146.2320 C   0  0  0  0  0  2  0  0  0  0  0  0
  184.6580  179.0950  145.3190 C   0  0  2  0  0  0  0  0  0  0  0  0
  184.9500  177.7670  145.9980 C   0  0  1  0  0  3  0  0  0  0  0  0
  185.2970  180.2160  145.8630 O   0  0  0  0  0  1  0  0  0  0  0  0
  183.2120  179.9830  143.4520 C   0  0  0  0  0  2  0  0  0  0  0  0
  184.3430  179.0360  143.8240 C   0  0  0  0  0  3  0  0  0  0  0  0
  182.9350  178.5030  143.6120 C   0  0  0  0  0  2  0  0  0  0  0  0
  183.5920  179.2480  138.7370 N   0  0  0  0  0  2  0  0  0  0  0  0
  184.8290  176.6010  136.3870 C   0  0  0  0  0  0  0  0  0  0  0  0
  183.6250  178.2720  137.6960 C   0  0  0  0  0  0  0  0  0  0  0  0
  183.6540  176.3610  135.6510 C   0  0  0  0  0  3  0  0  0  0  0  0
  184.7990  177.5570  137.4140 C   0  0  0  0  0  3  0  0  0  0  0  0
  182.4810  177.0660  135.9330 C   0  0  0  0  0  3  0  0  0  0  0  0
  182.4680  178.0240  136.9510 C   0  0  0  0  0  3  0  0  0  0  0  0
  190.4710  174.9230  134.6000 C   0  0  0  0  0  0  0  0  0  0  0  0
  191.7830  173.4520  135.3720 C   0  0  0  0  0  0  0  0  0  0  0  0
  186.0890  175.8850  136.0690 C   0  0  0  0  0  0  0  0  0  0  0  0
  187.2960  176.6800  135.5900 C   0  0  0  0  0  2  0  0  0  0  0  0
  191.7640  174.7200  134.8850 N   0  0  0  0  0  0  0  0  0  0  0  0
  190.1110  177.3230  134.5940 O   0  0  0  0  0  0  0  0  0  0  0  0
  190.5010  172.9100  135.5280 C   0  0  0  0  0  3  0  0  0  0  0  0
  188.3760  174.3920  135.3160 C   0  0  0  0  0  0  0  0  0  0  0  0
  186.1550  174.5400  136.2120 C   0  0  0  0  0  3  0  0  0  0  0  0
  188.3500  175.8010  135.0900 N   0  0  0  0  0  0  0  0  0  0  0  0
  189.6980  173.8780  134.9720 C   0  0  1  0  0  3  0  0  0  0  0  0
  187.3580  173.7550  135.8780 C   0  0  0  0  0  3  0  0  0  0  0  0
  189.6810  176.1460  134.7080 C   0  0  0  0  0  0  0  0  0  0  0  0
  194.3420  170.7860  136.1100 C   0  0  0  0  0  2  0  0  0  0  0  0
  196.2820  170.8910  137.4900 O   0  0  0  0  0  1  0  0  0  0  0  0
  195.0570  171.5090  137.2490 C   0  0  1  0  0  3  0  0  0  0  0  0
  195.2740  172.9580  136.8140 C   0  0  1  0  0  3  0  0  0  0  0  0
  193.0120  172.7910  135.8250 C   0  0  0  0  0  0  0  0  0  0  0  0
  193.1290  171.4980  135.7160 N   0  0  0  0  0  0  0  0  0  0  0  0
  194.0390  173.5500  136.4080 O   0  0  0  0  0  0  0  0  0  0  0  0
  195.4380  173.4110  139.1750 O   0  0  0  0  0  1  0  0  0  0  0  0
  195.9210  173.7920  137.9180 C   0  0  0  0  0  2  0  0  0  0  0  0
  1  2  1  0  0  0  0
  3  7  1  0  0  0  0
  4  7  1  0  0  0  0
  4  5  2  0  0  0  0
  5  2  1  0  0  0  0
  5  8  1  0  0  0  0
  6  8  1  0  0  0  0
  7  6  2  0  0  0  0
  9  6  1  1  0  0  0
  9 12  1  0  0  0  0
  9 14  1  0  0  0  0
 10 15  1  0  0  0  0
 11 13  2  0  0  0  0
 12 11  1  0  0  0  0
 13 10  1  0  0  0  0
 14 13  1  0  0  0  0
 15 16  1  0  0  0  0
 18 16  1  0  0  0  0
 18 17  2  0  0  0  0
 19 17  1  0  0  0  0
 20 23  1  0  0  0  0
 20 19  2  0  0  0  0
 21 22  2  0  0  0  0
 21 20  1  0  0  0  0
 22 18  1  0  0  0  0
 25 27  1  1  0  0  0
 25 26  1  0  0  0  0
 25 24  1  0  0  0  0
 26 24  1  0  0  0  0
 26 23  1  1  0  0  0
 28 30  1  0  0  0  0
 28 29  1  0  0  0  0
 29 25  1  0  0  0  0
 30 29  1  0  0  0  0
 31  1  1  0  0  0  0
 32 35  1  0  0  0  0
 33 31  1  0  0  0  0
 34 36  1  0  0  0  0
 34 32  2  0  0  0  0
 35 33  2  0  0  0  0
 36 37  2  0  0  0  0
 37 33  1  0  0  0  0
 38 50  1  0  0  0  0
 38 42  2  0  0  0  0
 38 48  1  0  0  0  0
 39 44  2  0  0  0  0
 39 55  1  0  0  0  0
 40 46  2  0  0  0  0
 40 32  1  0  0  0  0
 41 40  1  0  0  0  0
 42 39  1  0  0  0  0
 43 50  2  0  0  0  0
 45 49  2  0  0  0  0
 47 45  1  0  0  0  0
 47 41  1  0  0  0  0
 48 45  1  0  0  0  0
 48 44  1  1  0  0  0
 49 46  1  0  0  0  0
 50 47  1  0  0  0  0
 51 53  1  0  0  0  0
 53 52  1  6  0  0  0
 54 53  1  0  0  0  0
 54 59  1  1  0  0  0
 55 57  1  0  0  0  0
 56 55  2  0  0  0  0
 56 51  1  0  0  0  0
 57 54  1  0  0  0  0
 59 58  1  0  0  0  0
M  END
>  <MODEL>
7

>  <REMARK>
 VINA RESULT:      -5.8      2.555      4.923
  Name = 
  14 active torsions:
  status: ('A' for Active; 'I' for Inactive)
    1  A    between atoms: C_4  and  C_26
    2  A    between atoms: C_5  and  N_58
    3  A    between atoms: C_9  and  C_22
    4  A    between atoms: C_12  and  C_14
    5  A    between atoms: C_13  and  C_20
    6  A    between atoms: N_16  and  C_45
    7  A    between atoms: N_16  and  N_58
    8  A    between atoms: C_17  and  C_36
    9  A    between atoms: C_22  and  C_46
   10  A    between atoms: C_23  and  O_55
   11  A    between atoms: C_24  and  C_29
   12  A    between atoms: N_28  and  C_46
   13  A    between atoms: C_31  and  C_45
   14  A    between atoms: C_39  and  O_55
                            x       y       z     vdW  Elec       q    Type
                         _______ _______ _______ _____ _____    ______ ____

>  <TORSDO>
F 14

$$$$
=
 OpenBabel10222417313D

 59 68  0  0  1  0  0  0  0  0999 V2000
  188.8950  171.9550  135.8930 N   0  0  0  0  0  2  0  0  0  0  0  0
  187.9550  171.2160  135.0620 C   0  0  0  0  0  2  0  0  0  0  0  0
  184.1750  173.5990  137.4470 C   0  0  0  0  0  1  0  0  0  0  0  0
  186.1990  172.5250  136.3700 C   0  0  0  0  0  3  0  0  0  0  0  0
  186.5650  171.5030  135.5030 C   0  0  0  0  0  0  0  0  0  0  0  0
  184.1040  171.6150  135.8630 C   0  0  0  0  0  0  0  0  0  0  0  0
  184.8140  172.5810  136.5700 C   0  0  0  0  0  0  0  0  0  0  0  0
  185.1940  170.6830  134.9810 S   0  0  0  0  0  0  0  0  0  0  0  0
  182.6180  171.4610  135.8490 C   0  0  1  0  0  3  0  0  0  0  0  0
  179.8260  174.0280  136.8850 N   0  0  0  0  0  2  0  0  0  0  0  0
  181.1290  172.1640  137.5900 N   0  0  0  0  0  0  0  0  0  0  0  0
  182.1230  171.2640  137.2030 N   0  0  0  0  0  2  0  0  0  0  0  0
  180.8690  173.0660  136.7050 C   0  0  0  0  0  0  0  0  0  0  0  0
  181.8140  172.9730  135.1930 S   0  0  0  0  0  0  0  0  0  0  0  0
  179.0560  174.1420  138.1190 C   0  0  0  0  0  2  0  0  0  0  0  0
  179.2570  175.5250  138.7160 C   0  0  0  0  0  2  0  0  0  0  0  0
  181.6940  175.9520  139.1050 C   0  0  0  0  0  3  0  0  0  0  0  0
  180.5610  176.1130  138.3000 C   0  0  0  0  0  0  0  0  0  0  0  0
  182.9220  176.4870  138.7000 C   0  0  0  0  0  3  0  0  0  0  0  0
  183.0260  177.1770  137.4880 C   0  0  0  0  0  0  0  0  0  0  0  0
  181.8860  177.3360  136.6840 C   0  0  0  0  0  3  0  0  0  0  0  0
  180.6580  176.8080  137.0920 C   0  0  0  0  0  3  0  0  0  0  0  0
  184.2690  177.6850  137.1030 O   0  0  0  0  0  0  0  0  0  0  0  0
  185.5580  177.8910  135.0730 C   0  0  0  0  0  2  0  0  0  0  0  0
  186.5200  177.6430  136.2090 C   0  0  2  0  0  0  0  0  0  0  0  0
  185.1510  176.9840  136.2320 C   0  0  1  0  0  3  0  0  0  0  0  0
  186.6850  178.7450  137.0590 O   0  0  0  0  0  1  0  0  0  0  0  0
  188.4060  177.1520  134.6060 C   0  0  0  0  0  2  0  0  0  0  0  0
  187.7060  176.7320  135.8900 C   0  0  0  0  0  3  0  0  0  0  0  0
  187.4470  175.9800  134.5940 C   0  0  0  0  0  2  0  0  0  0  0  0
  189.7540  172.6480  135.0310 N   0  0  0  0  0  2  0  0  0  0  0  0
  190.8760  175.5570  137.1150 C   0  0  0  0  0  0  0  0  0  0  0  0
  190.4460  173.8250  135.4510 C   0  0  0  0  0  0  0  0  0  0  0  0
  191.8250  176.1270  136.2460 C   0  0  0  0  0  3  0  0  0  0  0  0
  190.1970  174.3980  136.7070 C   0  0  0  0  0  3  0  0  0  0  0  0
  192.0800  175.5550  134.9970 C   0  0  0  0  0  3  0  0  0  0  0  0
  191.3880  174.4080  134.5980 C   0  0  0  0  0  3  0  0  0  0  0  0
  188.3030  178.3050  141.9790 C   0  0  0  0  0  0  0  0  0  0  0  0
  188.6760  178.0790  144.0510 C   0  0  0  0  0  0  0  0  0  0  0  0
  190.5710  176.1790  138.4270 C   0  0  0  0  0  0  0  0  0  0  0  0
  189.1340  176.5680  138.7490 C   0  0  0  0  0  2  0  0  0  0  0  0
  187.6650  178.2230  143.1550 N   0  0  0  0  0  2  0  0  0  0  0  0
  186.7160  177.6640  140.2600 O   0  0  0  0  0  0  0  0  0  0  0  0
  189.9270  177.9290  143.4400 C   0  0  0  0  0  3  0  0  0  0  0  0
  190.1390  177.5280  140.8810 C   0  0  0  0  0  0  0  0  0  0  0  0
  191.5650  176.3910  139.3210 C   0  0  0  0  0  3  0  0  0  0  0  0
  189.0600  177.3840  139.9580 N   0  0  0  0  0  0  0  0  0  0  0  0
  189.6370  178.1300  142.1120 C   0  0  0  0  0  0  0  0  0  0  0  0
  191.3460  177.0400  140.6280 C   0  0  0  0  0  3  0  0  0  0  0  0
  187.8980  177.8070  140.6690 C   0  0  0  0  0  0  0  0  0  0  0  0
  187.0060  178.1680  147.4280 C   0  0  0  0  0  2  0  0  0  0  0  0
  187.9680  177.9620  149.5980 O   0  0  0  0  0  1  0  0  0  0  0  0
  188.2740  178.2620  148.2730 C   0  0  1  0  0  3  0  0  0  0  0  0
  189.2760  177.2490  147.7200 C   0  0  1  0  0  3  0  0  0  0  0  0
  188.4480  177.9430  145.4940 C   0  0  0  0  0  0  0  0  0  0  0  0
  187.3100  178.3150  146.0070 N   0  0  0  0  0  0  0  0  0  0  0  0
  189.4700  177.4490  146.3190 O   0  0  0  0  0  0  0  0  0  0  0  0
  191.6530  176.8690  147.6290 O   0  0  0  0  0  1  0  0  0  0  0  0
  190.6140  177.3140  148.4530 C   0  0  0  0  0  2  0  0  0  0  0  0
  2  5  1  0  0  0  0
  2  1  1  0  0  0  0
  4  7  1  0  0  0  0
  5  4  2  0  0  0  0
  6  7  2  0  0  0  0
  7  3  1  0  0  0  0
  8  5  1  0  0  0  0
  8  6  1  0  0  0  0
  9  6  1  1  0  0  0
  9 12  1  0  0  0  0
 10 15  1  0  0  0  0
 12 11  1  0  0  0  0
 13 10  1  0  0  0  0
 13 11  2  0  0  0  0
 14  9  1  0  0  0  0
 14 13  1  0  0  0  0
 15 16  1  0  0  0  0
 18 16  1  0  0  0  0
 18 17  2  0  0  0  0
 19 17  1  0  0  0  0
 20 19  2  0  0  0  0
 21 22  2  0  0  0  0
 21 20  1  0  0  0  0
 22 18  1  0  0  0  0
 23 20  1  0  0  0  0
 24 25  1  0  0  0  0
 24 26  1  0  0  0  0
 25 26  1  0  0  0  0
 25 27  1  1  0  0  0
 26 23  1  1  0  0  0
 28 29  1  0  0  0  0
 29 25  1  0  0  0  0
 30 28  1  0  0  0  0
 30 29  1  0  0  0  0
 31 33  1  0  0  0  0
 31  1  1  0  0  0  0
 32 40  1  0  0  0  0
 33 35  2  0  0  0  0
 34 32  2  0  0  0  0
 35 32  1  0  0  0  0
 36 34  1  0  0  0  0
 37 36  2  0  0  0  0
 37 33  1  0  0  0  0
 38 48  2  0  0  0  0
 38 42  1  0  0  0  0
 39 55  1  0  0  0  0
 40 41  1  0  0  0  0
 40 46  2  0  0  0  0
 41 47  1  0  0  0  0
 42 39  1  0  0  0  0
 43 50  2  0  0  0  0
 44 39  2  0  0  0  0
 45 48  1  0  0  0  0
 46 49  1  0  0  0  0
 47 50  1  0  0  0  0
 47 45  1  0  0  0  0
 48 44  1  0  0  0  0
 49 45  2  0  0  0  0
 50 38  1  0  0  0  0
 51 53  1  0  0  0  0
 53 52  1  1  0  0  0
 54 53  1  0  0  0  0
 54 59  1  1  0  0  0
 55 56  2  0  0  0  0
 55 57  1  0  0  0  0
 56 51  1  0  0  0  0
 57 54  1  0  0  0  0
 58 59  1  0  0  0  0
M  END
>  <MODEL>
8

>  <REMARK>
 VINA RESULT:      -5.7      3.508     10.470
  Name = 
  14 active torsions:
  status: ('A' for Active; 'I' for Inactive)
    1  A    between atoms: C_4  and  C_26
    2  A    between atoms: C_5  and  N_58
    3  A    between atoms: C_9  and  C_22
    4  A    between atoms: C_12  and  C_14
    5  A    between atoms: C_13  and  C_20
    6  A    between atoms: N_16  and  C_45
    7  A    between atoms: N_16  and  N_58
    8  A    between atoms: C_17  and  C_36
    9  A    between atoms: C_22  and  C_46
   10  A    between atoms: C_23  and  O_55
   11  A    between atoms: C_24  and  C_29
   12  A    between atoms: N_28  and  C_46
   13  A    between atoms: C_31  and  C_45
   14  A    between atoms: C_39  and  O_55
                            x       y       z     vdW  Elec       q    Type
                         _______ _______ _______ _____ _____    ______ ____

>  <TORSDO>
F 14

$$$$
