=
 OpenBabel10222418013D

 35 37  0  0  1  0  0  0  0  0999 V2000
  188.5880  176.7570  142.4840 C   0  0  2  0  0  3  0  0  0  0  0  0
  186.0630  178.0030  145.8070 C   0  0  0  0  0  3  0  0  0  0  0  0
  187.3320  177.6310  146.0360 C   0  0  0  0  0  3  0  0  0  0  0  0
  183.2310  178.8560  144.2780 N   0  0  0  0  0  0  0  0  0  0  0  0
  188.3530  177.3710  144.9290 C   0  0  1  0  0  3  0  0  0  0  0  0
  184.5960  178.2820  142.5150 C   0  0  0  0  0  0  0  0  0  0  0  0
  187.7660  177.2790  143.5740 N   0  0  0  0  0  0  0  0  0  0  0  0
  184.4390  178.4480  143.8330 C   0  0  0  0  0  0  0  0  0  0  0  0
  185.7970  177.8530  142.1970 O   0  0  0  0  0  0  0  0  0  0  0  0
  186.4250  177.7410  143.3610 C   0  0  0  0  0  0  0  0  0  0  0  0
  185.6210  178.1060  144.4210 C   0  0  0  0  0  0  0  0  0  0  0  0
  189.3610  178.4170  144.9530 N   0  0  0  0  0  1  0  0  0  0  0  0
  183.1910  178.6500  141.6900 S   0  0  0  0  0  0  0  0  0  0  0  0
  182.4240  179.0190  143.1880 C   0  0  0  0  0  0  0  0  0  0  0  0
  181.0050  179.4520  143.2980 C   0  0  0  0  0  2  0  0  0  0  0  0
  180.3020  178.5590  144.1080 O   0  0  0  0  0  1  0  0  0  0  0  0
  189.6280  175.7820  143.0240 C   0  0  0  0  0  2  0  0  0  0  0  0
  191.6800  175.8700  143.8460 C   0  0  0  0  0  1  0  0  0  0  0  0
  190.9100  176.2620  142.7510 O   0  0  0  0  0  0  0  0  0  0  0  0
  189.2220  177.9090  141.7040 C   0  0  0  0  0  2  0  0  0  0  0  0
  188.7340  177.9590  140.2660 C   0  0  0  0  0  2  0  0  0  0  0  0
  189.8690  177.8670  139.3620 N   0  0  0  0  0  2  0  0  0  0  0  0
  189.3750  178.0040  138.1060 O   0  0  0  0  0  0  0  0  0  0  0  0
  188.4700  176.9490  137.9750 C   0  0  0  0  0  2  0  0  0  0  0  0
  187.6560  177.1120  136.7010 C   0  0  1  0  0  3  0  0  0  0  0  0
  187.2450  174.7470  137.1250 C   0  0  0  0  0  3  0  0  0  0  0  0
  185.9620  175.8040  135.4130 O   0  0  0  0  0  1  0  0  0  0  0  0
  186.9320  175.8340  136.4120 C   0  0  0  0  0  0  0  0  0  0  0  0
  186.6100  173.4630  137.0010 N   0  0  0  0  0  0  0  0  0  0  0  0
  187.1790  172.5140  136.0630 C   0  0  0  0  0  1  0  0  0  0  0  0
  184.2140  173.0020  136.9450 C   0  0  0  0  0  1  0  0  0  0  0  0
  185.4660  173.0340  137.8000 C   0  0  0  0  0  2  0  0  0  0  0  0
  186.6760  178.2670  136.8560 C   0  0  0  0  0  2  0  0  0  0  0  0
  185.6090  178.8980  138.8520 O   0  0  0  0  0  0  0  0  0  0  0  0
  185.7610  178.0300  138.0110 C   0  0  0  0  0  3  0  0  0  0  0  0
  1 20  1  1  0  0  0
  1 17  1  0  0  0  0
  1  7  1  0  0  0  0
  2  3  2  0  0  0  0
  5 12  1  6  0  0  0
  5  3  1  0  0  0  0
  6  8  2  0  0  0  0
  7  5  1  0  0  0  0
  8  4  1  0  0  0  0
  8 11  1  0  0  0  0
  9  6  1  0  0  0  0
  9 10  1  0  0  0  0
 10  7  1  0  0  0  0
 10 11  2  0  0  0  0
 11  2  1  0  0  0  0
 13  6  1  0  0  0  0
 13 14  1  0  0  0  0
 14 15  1  0  0  0  0
 14  4  2  0  0  0  0
 15 16  1  0  0  0  0
 19 17  1  0  0  0  0
 19 18  1  0  0  0  0
 21 20  1  0  0  0  0
 22 21  1  0  0  0  0
 23 22  1  0  0  0  0
 24 23  1  0  0  0  0
 25 33  1  1  0  0  0
 25 24  1  0  0  0  0
 27 28  1  0  0  0  0
 28 25  1  0  0  0  0
 28 26  2  0  0  0  0
 29 26  1  0  0  0  0
 29 32  1  0  0  0  0
 30 29  1  0  0  0  0
 31 32  1  0  0  0  0
 33 35  1  0  0  0  0
 35 34  2  0  0  0  0
M  END
>  <MODEL>
1

>  <REMARK>
 VINA RESULT:      -6.6      0.000      0.000
  Name = 
  15 active torsions:
  status: ('A' for Active; 'I' for Inactive)
    1  A    between atoms: N_3  and  C_25
    2  A    between atoms: N_3  and  O_34
    3  A    between atoms: C_6  and  N_10
    4  A    between atoms: C_8  and  C_16
    5  A    between atoms: C_8  and  O_17
    6  A    between atoms: C_9  and  C_35
    7  A    between atoms: N_10  and  C_30
    8  A    between atoms: C_12  and  C_15
    9  A    between atoms: C_15  and  C_21
   10  A    between atoms: C_16  and  N_18
   11  A    between atoms: C_16  and  C_32
   12  A    between atoms: C_21  and  C_29
   13  A    between atoms: C_21  and  C_31
   14  A    between atoms: C_25  and  C_32
   15  A    between atoms: C_31  and  O_34
                            x       y       z     vdW  Elec       q    Type
                         _______ _______ _______ _____ _____    ______ ____

>  <TORSDO>
F 15

$$$$
=
 OpenBabel10222418013D

 35 37  0  0  1  0  0  0  0  0999 V2000
  190.1040  176.7620  145.6970 C   0  0  2  0  0  3  0  0  0  0  0  0
  186.5010  178.2020  147.6750 C   0  0  0  0  0  3  0  0  0  0  0  0
  187.5990  177.9320  148.4000 C   0  0  0  0  0  3  0  0  0  0  0  0
  184.4330  178.7160  145.1170 N   0  0  0  0  0  0  0  0  0  0  0  0
  188.9640  177.6170  147.7880 C   0  0  1  0  0  3  0  0  0  0  0  0
  186.3670  178.0400  144.0660 C   0  0  0  0  0  0  0  0  0  0  0  0
  188.9260  177.3470  146.3340 N   0  0  0  0  0  0  0  0  0  0  0  0
  185.7250  178.3360  145.2030 C   0  0  0  0  0  0  0  0  0  0  0  0
  187.6060  177.6510  144.2680 O   0  0  0  0  0  0  0  0  0  0  0  0
  187.7540  177.7020  145.5870 C   0  0  0  0  0  0  0  0  0  0  0  0
  186.6080  178.1300  146.2230 C   0  0  0  0  0  0  0  0  0  0  0  0
  189.8720  178.7190  148.0550 N   0  0  0  0  0  1  0  0  0  0  0  0
  185.3660  178.2330  142.7430 S   0  0  0  0  0  0  0  0  0  0  0  0
  184.0890  178.7130  143.7950 C   0  0  0  0  0  0  0  0  0  0  0  0
  182.7250  179.0690  143.3200 C   0  0  0  0  0  2  0  0  0  0  0  0
  182.6470  178.8940  141.9390 O   0  0  0  0  0  1  0  0  0  0  0  0
  190.9020  175.9420  146.7060 C   0  0  0  0  0  2  0  0  0  0  0  0
  192.7170  175.8390  147.9640 C   0  0  0  0  0  1  0  0  0  0  0  0
  192.1740  176.4940  146.8600 O   0  0  0  0  0  0  0  0  0  0  0  0
  190.9480  177.8550  145.0410 C   0  0  0  0  0  2  0  0  0  0  0  0
  190.8990  177.7810  143.5250 C   0  0  0  0  0  2  0  0  0  0  0  0
  190.7690  176.3940  143.1090 N   0  0  0  0  0  2  0  0  0  0  0  0
  189.6870  176.3350  142.2920 O   0  0  0  0  0  0  0  0  0  0  0  0
  189.8700  177.3960  141.4020 C   0  0  0  0  0  2  0  0  0  0  0  0
  189.9480  176.8750  139.9750 C   0  0  1  0  0  3  0  0  0  0  0  0
  188.1290  177.0270  138.3600 C   0  0  0  0  0  3  0  0  0  0  0  0
  189.1330  179.0640  139.0930 O   0  0  0  0  0  1  0  0  0  0  0  0
  189.0290  177.6750  139.1070 C   0  0  0  0  0  0  0  0  0  0  0  0
  187.1490  177.6520  137.5160 N   0  0  0  0  0  0  0  0  0  0  0  0
  185.9100  178.0950  138.1290 C   0  0  0  0  0  1  0  0  0  0  0  0
  188.1240  176.7930  135.4500 C   0  0  0  0  0  1  0  0  0  0  0  0
  187.3440  177.9220  136.0940 C   0  0  0  0  0  2  0  0  0  0  0  0
  191.3830  176.9600  139.4700 C   0  0  0  0  0  2  0  0  0  0  0  0
  191.1540  174.9330  138.3040 O   0  0  0  0  0  0  0  0  0  0  0  0
  191.5760  176.0750  138.2840 C   0  0  0  0  0  3  0  0  0  0  0  0
  1 20  1  1  0  0  0
  1  7  1  0  0  0  0
  1 17  1  0  0  0  0
  2  3  2  0  0  0  0
  4  8  1  0  0  0  0
  5 12  1  6  0  0  0
  5  3  1  0  0  0  0
  6  9  1  0  0  0  0
  6  8  2  0  0  0  0
  7  5  1  0  0  0  0
  8 11  1  0  0  0  0
  9 10  1  0  0  0  0
 10 11  2  0  0  0  0
 10  7  1  0  0  0  0
 11  2  1  0  0  0  0
 13 14  1  0  0  0  0
 13  6  1  0  0  0  0
 14  4  2  0  0  0  0
 15 14  1  0  0  0  0
 16 15  1  0  0  0  0
 17 19  1  0  0  0  0
 19 18  1  0  0  0  0
 21 20  1  0  0  0  0
 22 21  1  0  0  0  0
 23 22  1  0  0  0  0
 24 23  1  0  0  0  0
 25 33  1  6  0  0  0
 25 24  1  0  0  0  0
 26 28  2  0  0  0  0
 27 28  1  0  0  0  0
 28 25  1  0  0  0  0
 29 30  1  0  0  0  0
 29 26  1  0  0  0  0
 31 32  1  0  0  0  0
 32 29  1  0  0  0  0
 35 34  2  0  0  0  0
 35 33  1  0  0  0  0
M  END
>  <MODEL>
2

>  <REMARK>
 VINA RESULT:      -6.6      2.553      3.928
  Name = 
  15 active torsions:
  status: ('A' for Active; 'I' for Inactive)
    1  A    between atoms: N_3  and  C_25
    2  A    between atoms: N_3  and  O_34
    3  A    between atoms: C_6  and  N_10
    4  A    between atoms: C_8  and  C_16
    5  A    between atoms: C_8  and  O_17
    6  A    between atoms: C_9  and  C_35
    7  A    between atoms: N_10  and  C_30
    8  A    between atoms: C_12  and  C_15
    9  A    between atoms: C_15  and  C_21
   10  A    between atoms: C_16  and  N_18
   11  A    between atoms: C_16  and  C_32
   12  A    between atoms: C_21  and  C_29
   13  A    between atoms: C_21  and  C_31
   14  A    between atoms: C_25  and  C_32
   15  A    between atoms: C_31  and  O_34
                            x       y       z     vdW  Elec       q    Type
                         _______ _______ _______ _____ _____    ______ ____

>  <TORSDO>
F 15

$$$$
=
 OpenBabel10222418013D

 35 37  0  0  1  0  0  0  0  0999 V2000
  188.7100  176.8100  142.7030 C   0  0  2  0  0  3  0  0  0  0  0  0
  186.1490  177.8950  146.0540 C   0  0  0  0  0  3  0  0  0  0  0  0
  187.4190  177.5220  146.2780 C   0  0  0  0  0  3  0  0  0  0  0  0
  183.3230  178.7940  144.5390 N   0  0  0  0  0  0  0  0  0  0  0  0
  188.4510  177.3170  145.1690 C   0  0  1  0  0  3  0  0  0  0  0  0
  184.7070  178.3040  142.7650 C   0  0  0  0  0  0  0  0  0  0  0  0
  187.8750  177.2790  143.8070 N   0  0  0  0  0  0  0  0  0  0  0  0
  184.5370  178.4130  144.0880 C   0  0  0  0  0  0  0  0  0  0  0  0
  185.9130  177.8970  142.4390 O   0  0  0  0  0  0  0  0  0  0  0  0
  186.5320  177.7400  143.6030 C   0  0  0  0  0  0  0  0  0  0  0  0
  185.7180  178.0550  144.6710 C   0  0  0  0  0  0  0  0  0  0  0  0
  189.4500  178.3680  145.2460 N   0  0  0  0  0  1  0  0  0  0  0  0
  183.3050  178.6980  141.9450 S   0  0  0  0  0  0  0  0  0  0  0  0
  182.5240  178.9970  143.4510 C   0  0  0  0  0  0  0  0  0  0  0  0
  181.1010  179.4150  143.5670 C   0  0  0  0  0  2  0  0  0  0  0  0
  180.3240  178.3320  143.9800 O   0  0  0  0  0  1  0  0  0  0  0  0
  189.6760  175.7340  143.1880 C   0  0  0  0  0  2  0  0  0  0  0  0
  191.7080  175.7940  144.0600 C   0  0  0  0  0  1  0  0  0  0  0  0
  190.9880  176.1220  142.9110 O   0  0  0  0  0  0  0  0  0  0  0  0
  189.4320  177.9880  142.0500 C   0  0  0  0  0  2  0  0  0  0  0  0
  188.9390  178.2470  140.6360 C   0  0  0  0  0  2  0  0  0  0  0  0
  189.7790  177.5330  139.6880 N   0  0  0  0  0  2  0  0  0  0  0  0
  188.9590  177.0880  138.7030 O   0  0  0  0  0  0  0  0  0  0  0  0
  187.8350  177.9130  138.7930 C   0  0  0  0  0  2  0  0  0  0  0  0
  186.9080  177.6650  137.6130 C   0  0  1  0  0  3  0  0  0  0  0  0
  184.5190  177.1890  137.5570 C   0  0  0  0  0  3  0  0  0  0  0  0
  185.2470  179.0510  138.8590 O   0  0  0  0  0  1  0  0  0  0  0  0
  185.5010  177.9690  138.0200 C   0  0  0  0  0  0  0  0  0  0  0  0
  183.1270  177.3210  137.8930 N   0  0  0  0  0  0  0  0  0  0  0  0
  182.6050  176.4840  138.9570 C   0  0  0  0  0  1  0  0  0  0  0  0
  181.7600  179.3020  138.2950 C   0  0  0  0  0  1  0  0  0  0  0  0
  182.2220  178.2840  137.2720 C   0  0  0  0  0  2  0  0  0  0  0  0
  187.3300  178.5280  136.4310 C   0  0  0  0  0  2  0  0  0  0  0  0
  189.0610  177.7510  135.0450 O   0  0  0  0  0  0  0  0  0  0  0  0
  187.8790  177.6830  135.3300 C   0  0  0  0  0  3  0  0  0  0  0  0
  1 20  1  1  0  0  0
  1 17  1  0  0  0  0
  1  7  1  0  0  0  0
  2  3  2  0  0  0  0
  5 12  1  6  0  0  0
  5  3  1  0  0  0  0
  6  8  2  0  0  0  0
  7  5  1  0  0  0  0
  8  4  1  0  0  0  0
  8 11  1  0  0  0  0
  9  6  1  0  0  0  0
  9 10  1  0  0  0  0
 10  7  1  0  0  0  0
 10 11  2  0  0  0  0
 11  2  1  0  0  0  0
 13  6  1  0  0  0  0
 13 14  1  0  0  0  0
 14 15  1  0  0  0  0
 14  4  2  0  0  0  0
 15 16  1  0  0  0  0
 19 17  1  0  0  0  0
 19 18  1  0  0  0  0
 21 20  1  0  0  0  0
 22 21  1  0  0  0  0
 23 24  1  0  0  0  0
 23 22  1  0  0  0  0
 25 33  1  6  0  0  0
 25 28  1  0  0  0  0
 25 24  1  0  0  0  0
 26 29  1  0  0  0  0
 26 28  2  0  0  0  0
 28 27  1  0  0  0  0
 29 30  1  0  0  0  0
 32 29  1  0  0  0  0
 32 31  1  0  0  0  0
 34 35  2  0  0  0  0
 35 33  1  0  0  0  0
M  END
>  <MODEL>
3

>  <REMARK>
 VINA RESULT:      -6.5      1.904      2.682
  Name = 
  15 active torsions:
  status: ('A' for Active; 'I' for Inactive)
    1  A    between atoms: N_3  and  C_25
    2  A    between atoms: N_3  and  O_34
    3  A    between atoms: C_6  and  N_10
    4  A    between atoms: C_8  and  C_16
    5  A    between atoms: C_8  and  O_17
    6  A    between atoms: C_9  and  C_35
    7  A    between atoms: N_10  and  C_30
    8  A    between atoms: C_12  and  C_15
    9  A    between atoms: C_15  and  C_21
   10  A    between atoms: C_16  and  N_18
   11  A    between atoms: C_16  and  C_32
   12  A    between atoms: C_21  and  C_29
   13  A    between atoms: C_21  and  C_31
   14  A    between atoms: C_25  and  C_32
   15  A    between atoms: C_31  and  O_34
                            x       y       z     vdW  Elec       q    Type
                         _______ _______ _______ _____ _____    ______ ____

>  <TORSDO>
F 15

$$$$
=
 OpenBabel10222418013D

 35 37  0  0  1  0  0  0  0  0999 V2000
  188.6890  176.6770  142.5780 C   0  0  2  0  0  3  0  0  0  0  0  0
  186.1570  177.9780  145.8740 C   0  0  0  0  0  3  0  0  0  0  0  0
  187.4220  177.5960  146.1130 C   0  0  0  0  0  3  0  0  0  0  0  0
  183.3420  178.8450  144.3200 N   0  0  0  0  0  0  0  0  0  0  0  0
  188.4460  177.3160  145.0140 C   0  0  1  0  0  3  0  0  0  0  0  0
  184.7120  178.2410  142.5710 C   0  0  0  0  0  0  0  0  0  0  0  0
  187.8650  177.2170  143.6580 N   0  0  0  0  0  0  0  0  0  0  0  0
  184.5490  178.4210  143.8870 C   0  0  0  0  0  0  0  0  0  0  0  0
  185.9100  177.7970  142.2640 O   0  0  0  0  0  0  0  0  0  0  0  0
  186.5300  177.6900  143.4330 C   0  0  0  0  0  0  0  0  0  0  0  0
  185.7250  178.0730  144.4850 C   0  0  0  0  0  0  0  0  0  0  0  0
  189.4640  178.3530  145.0340 N   0  0  0  0  0  1  0  0  0  0  0  0
  183.3150  178.6140  141.7350 S   0  0  0  0  0  0  0  0  0  0  0  0
  182.5430  179.0040  143.2250 C   0  0  0  0  0  0  0  0  0  0  0  0
  181.1270  179.4520  143.3230 C   0  0  0  0  0  2  0  0  0  0  0  0
  180.3530  178.4440  143.8960 O   0  0  0  0  0  1  0  0  0  0  0  0
  189.7330  175.7160  143.1350 C   0  0  0  0  0  2  0  0  0  0  0  0
  191.7900  175.7280  143.9500 C   0  0  0  0  0  1  0  0  0  0  0  0
  191.0120  176.2250  142.9050 O   0  0  0  0  0  0  0  0  0  0  0  0
  189.3180  177.8150  141.7740 C   0  0  0  0  0  2  0  0  0  0  0  0
  189.0420  177.6820  140.2860 C   0  0  0  0  0  2  0  0  0  0  0  0
  188.5410  178.9450  139.7680 N   0  0  0  0  0  2  0  0  0  0  0  0
  188.6040  178.8600  138.4150 O   0  0  0  0  0  0  0  0  0  0  0  0
  187.6510  177.8930  138.0870 C   0  0  0  0  0  2  0  0  0  0  0  0
  187.6700  177.6270  136.5890 C   0  0  1  0  0  3  0  0  0  0  0  0
  188.9440  175.6300  137.1590 C   0  0  0  0  0  3  0  0  0  0  0  0
  189.4610  176.7230  135.1020 O   0  0  0  0  0  1  0  0  0  0  0  0
  188.7280  176.6150  136.2820 C   0  0  0  0  0  0  0  0  0  0  0  0
  189.8870  174.5580  136.9870 N   0  0  0  0  0  0  0  0  0  0  0  0
  191.2340  174.7540  137.4910 C   0  0  0  0  0  1  0  0  0  0  0  0
  188.2100  172.7880  136.8890 C   0  0  0  0  0  1  0  0  0  0  0  0
  189.5600  173.2660  136.3910 C   0  0  0  0  0  2  0  0  0  0  0  0
  186.3020  177.1390  136.1310 C   0  0  0  0  0  2  0  0  0  0  0  0
  184.5500  176.3420  137.4790 O   0  0  0  0  0  0  0  0  0  0  0  0
  185.3020  177.2680  137.2320 C   0  0  0  0  0  3  0  0  0  0  0  0
  1 20  1  1  0  0  0
  1 17  1  0  0  0  0
  1  7  1  0  0  0  0
  2  3  2  0  0  0  0
  5 12  1  6  0  0  0
  5  3  1  0  0  0  0
  6  8  2  0  0  0  0
  7  5  1  0  0  0  0
  8  4  1  0  0  0  0
  8 11  1  0  0  0  0
  9  6  1  0  0  0  0
  9 10  1  0  0  0  0
 10  7  1  0  0  0  0
 10 11  2  0  0  0  0
 11  2  1  0  0  0  0
 13  6  1  0  0  0  0
 13 14  1  0  0  0  0
 14 15  1  0  0  0  0
 14  4  2  0  0  0  0
 15 16  1  0  0  0  0
 19 17  1  0  0  0  0
 19 18  1  0  0  0  0
 21 20  1  0  0  0  0
 22 21  1  0  0  0  0
 23 22  1  0  0  0  0
 24 23  1  0  0  0  0
 25 33  1  1  0  0  0
 25 24  1  0  0  0  0
 27 28  1  0  0  0  0
 28 25  1  0  0  0  0
 28 26  2  0  0  0  0
 29 26  1  0  0  0  0
 29 30  1  0  0  0  0
 32 31  1  0  0  0  0
 32 29  1  0  0  0  0
 33 35  1  0  0  0  0
 35 34  2  0  0  0  0
M  END
>  <MODEL>
4

>  <REMARK>
 VINA RESULT:      -6.4      1.410      1.779
  Name = 
  15 active torsions:
  status: ('A' for Active; 'I' for Inactive)
    1  A    between atoms: N_3  and  C_25
    2  A    between atoms: N_3  and  O_34
    3  A    between atoms: C_6  and  N_10
    4  A    between atoms: C_8  and  C_16
    5  A    between atoms: C_8  and  O_17
    6  A    between atoms: C_9  and  C_35
    7  A    between atoms: N_10  and  C_30
    8  A    between atoms: C_12  and  C_15
    9  A    between atoms: C_15  and  C_21
   10  A    between atoms: C_16  and  N_18
   11  A    between atoms: C_16  and  C_32
   12  A    between atoms: C_21  and  C_29
   13  A    between atoms: C_21  and  C_31
   14  A    between atoms: C_25  and  C_32
   15  A    between atoms: C_31  and  O_34
                            x       y       z     vdW  Elec       q    Type
                         _______ _______ _______ _____ _____    ______ ____

>  <TORSDO>
F 15

$$$$
=
 OpenBabel10222418013D

 35 37  0  0  1  0  0  0  0  0999 V2000
  182.8870  179.0830  139.5920 C   0  0  2  0  0  3  0  0  0  0  0  0
  181.1210  179.0940  143.5740 C   0  0  0  0  0  3  0  0  0  0  0  0
  180.3290  179.1550  142.4910 C   0  0  0  0  0  3  0  0  0  0  0  0
  183.7860  178.7690  145.5440 N   0  0  0  0  0  0  0  0  0  0  0  0
  180.8290  178.9570  141.0610 C   0  0  1  0  0  3  0  0  0  0  0  0
  184.7090  178.6740  143.4360 C   0  0  0  0  0  0  0  0  0  0  0  0
  182.3020  178.9770  140.9280 N   0  0  0  0  0  0  0  0  0  0  0  0
  183.6170  178.7710  144.2040 C   0  0  0  0  0  0  0  0  0  0  0  0
  184.4330  178.7190  142.1520 O   0  0  0  0  0  0  0  0  0  0  0  0
  183.1120  178.8520  142.1050 C   0  0  0  0  0  0  0  0  0  0  0  0
  182.5480  178.8850  143.3630 C   0  0  0  0  0  0  0  0  0  0  0  0
  180.3100  177.7030  140.5420 N   0  0  0  0  0  1  0  0  0  0  0  0
  186.0900  178.5550  144.3680 S   0  0  0  0  0  0  0  0  0  0  0  0
  185.1230  178.6470  145.7900 C   0  0  0  0  0  0  0  0  0  0  0  0
  185.6860  178.6210  147.1680 C   0  0  0  0  0  2  0  0  0  0  0  0
  187.0230  178.2270  147.1230 O   0  0  0  0  0  1  0  0  0  0  0  0
  181.9230  179.7900  138.6450 C   0  0  0  0  0  2  0  0  0  0  0  0
  181.1770  181.7120  137.8450 C   0  0  0  0  0  1  0  0  0  0  0  0
  182.1360  181.1680  138.6980 O   0  0  0  0  0  0  0  0  0  0  0  0
  183.2930  177.7000  139.0830 C   0  0  0  0  0  2  0  0  0  0  0  0
  184.5660  177.7500  138.2540 C   0  0  0  0  0  2  0  0  0  0  0  0
  185.4550  178.7690  138.7860 N   0  0  0  0  0  2  0  0  0  0  0  0
  186.5190  178.8300  137.9470 O   0  0  0  0  0  0  0  0  0  0  0  0
  187.3220  177.7550  138.3310 C   0  0  0  0  0  2  0  0  0  0  0  0
  188.7110  178.2470  138.7100 C   0  0  1  0  0  3  0  0  0  0  0  0
  189.9250  177.2140  140.5540 C   0  0  0  0  0  3  0  0  0  0  0  0
  188.0990  178.6500  141.0970 O   0  0  0  0  0  1  0  0  0  0  0  0
  188.9310  178.0220  140.1730 C   0  0  0  0  0  0  0  0  0  0  0  0
  190.2930  176.9370  141.9150 N   0  0  0  0  0  0  0  0  0  0  0  0
  191.5150  177.5320  142.4210 C   0  0  0  0  0  1  0  0  0  0  0  0
  189.4240  176.8170  144.1920 C   0  0  0  0  0  1  0  0  0  0  0  0
  189.4850  176.1430  142.8360 C   0  0  0  0  0  2  0  0  0  0  0  0
  189.7630  177.5180  137.8850 C   0  0  0  0  0  2  0  0  0  0  0  0
  189.7370  176.6500  135.7010 O   0  0  0  0  0  0  0  0  0  0  0  0
  189.4240  177.5720  136.4320 C   0  0  0  0  0  3  0  0  0  0  0  0
  1 17  1  6  0  0  0
  1  7  1  0  0  0  0
  3  2  2  0  0  0  0
  4 14  2  0  0  0  0
  5 12  1  1  0  0  0
  5  3  1  0  0  0  0
  6  8  2  0  0  0  0
  6 13  1  0  0  0  0
  7  5  1  0  0  0  0
  7 10  1  0  0  0  0
  8  4  1  0  0  0  0
  9  6  1  0  0  0  0
 10  9  1  0  0  0  0
 10 11  2  0  0  0  0
 11  2  1  0  0  0  0
 11  8  1  0  0  0  0
 13 14  1  0  0  0  0
 14 15  1  0  0  0  0
 16 15  1  0  0  0  0
 17 19  1  0  0  0  0
 18 19  1  0  0  0  0
 20  1  1  0  0  0  0
 21 22  1  0  0  0  0
 21 20  1  0  0  0  0
 23 24  1  0  0  0  0
 23 22  1  0  0  0  0
 24 25  1  0  0  0  0
 25 33  1  6  0  0  0
 25 28  1  0  0  0  0
 26 29  1  0  0  0  0
 28 26  2  0  0  0  0
 28 27  1  0  0  0  0
 29 30  1  0  0  0  0
 29 32  1  0  0  0  0
 32 31  1  0  0  0  0
 34 35  2  0  0  0  0
 35 33  1  0  0  0  0
M  END
>  <MODEL>
5

>  <REMARK>
 VINA RESULT:      -6.3      2.798      6.404
  Name = 
  15 active torsions:
  status: ('A' for Active; 'I' for Inactive)
    1  A    between atoms: N_3  and  C_25
    2  A    between atoms: N_3  and  O_34
    3  A    between atoms: C_6  and  N_10
    4  A    between atoms: C_8  and  C_16
    5  A    between atoms: C_8  and  O_17
    6  A    between atoms: C_9  and  C_35
    7  A    between atoms: N_10  and  C_30
    8  A    between atoms: C_12  and  C_15
    9  A    between atoms: C_15  and  C_21
   10  A    between atoms: C_16  and  N_18
   11  A    between atoms: C_16  and  C_32
   12  A    between atoms: C_21  and  C_29
   13  A    between atoms: C_21  and  C_31
   14  A    between atoms: C_25  and  C_32
   15  A    between atoms: C_31  and  O_34
                            x       y       z     vdW  Elec       q    Type
                         _______ _______ _______ _____ _____    ______ ____

>  <TORSDO>
F 15

$$$$
=
 OpenBabel10222418013D

 35 37  0  0  1  0  0  0  0  0999 V2000
  190.1580  176.4900  145.8130 C   0  0  2  0  0  3  0  0  0  0  0  0
  186.5160  178.1660  147.5140 C   0  0  0  0  0  3  0  0  0  0  0  0
  187.5530  177.8710  148.3150 C   0  0  0  0  0  3  0  0  0  0  0  0
  184.6350  178.6870  144.8160 N   0  0  0  0  0  0  0  0  0  0  0  0
  188.9360  177.4710  147.7990 C   0  0  1  0  0  3  0  0  0  0  0  0
  186.5940  177.8840  143.9110 C   0  0  0  0  0  0  0  0  0  0  0  0
  188.9740  177.1510  146.3560 N   0  0  0  0  0  0  0  0  0  0  0  0
  185.9000  178.2500  144.9950 C   0  0  0  0  0  0  0  0  0  0  0  0
  187.7980  177.4450  144.2030 O   0  0  0  0  0  0  0  0  0  0  0  0
  187.8690  177.5350  145.5260 C   0  0  0  0  0  0  0  0  0  0  0  0
  186.7080  178.0380  146.0740 C   0  0  0  0  0  0  0  0  0  0  0  0
  189.8790  178.5370  148.0880 N   0  0  0  0  0  1  0  0  0  0  0  0
  185.6870  178.0780  142.5220 S   0  0  0  0  0  0  0  0  0  0  0  0
  184.3730  178.6530  143.4770 C   0  0  0  0  0  0  0  0  0  0  0  0
  183.0600  179.0570  142.9060 C   0  0  0  0  0  2  0  0  0  0  0  0
  182.8810  178.4520  141.6620 O   0  0  0  0  0  1  0  0  0  0  0  0
  190.9370  175.7980  146.9260 C   0  0  0  0  0  2  0  0  0  0  0  0
  192.8120  175.7010  148.0960 C   0  0  0  0  0  1  0  0  0  0  0  0
  192.2290  176.3220  146.9920 O   0  0  0  0  0  0  0  0  0  0  0  0
  191.0160  177.4930  145.0400 C   0  0  0  0  0  2  0  0  0  0  0  0
  191.5180  176.9200  143.7260 C   0  0  0  0  0  2  0  0  0  0  0  0
  190.6740  177.3840  142.6370 N   0  0  0  0  0  2  0  0  0  0  0  0
  190.9780  176.6180  141.5590 O   0  0  0  0  0  0  0  0  0  0  0  0
  191.6490  177.4880  140.6980 C   0  0  0  0  0  2  0  0  0  0  0  0
  191.0230  177.4390  139.3120 C   0  0  1  0  0  3  0  0  0  0  0  0
  192.8450  176.4540  138.0270 C   0  0  0  0  0  3  0  0  0  0  0  0
  190.8920  175.1280  138.3750 O   0  0  0  0  0  1  0  0  0  0  0  0
  191.6200  176.3040  138.5420 C   0  0  0  0  0  0  0  0  0  0  0  0
  193.5710  175.4440  137.3060 N   0  0  0  0  0  0  0  0  0  0  0  0
  194.4800  174.5980  138.0570 C   0  0  0  0  0  1  0  0  0  0  0  0
  193.8330  173.7590  135.5620 C   0  0  0  0  0  1  0  0  0  0  0  0
  193.4080  175.1790  135.8800 C   0  0  0  0  0  2  0  0  0  0  0  0
  189.5130  177.2800  139.4310 C   0  0  0  0  0  2  0  0  0  0  0  0
  188.8190  179.2080  138.2810 O   0  0  0  0  0  0  0  0  0  0  0  0
  188.8360  178.6070  139.3400 C   0  0  0  0  0  3  0  0  0  0  0  0
  1 20  1  1  0  0  0
  1  7  1  0  0  0  0
  1 17  1  0  0  0  0
  2  3  2  0  0  0  0
  4  8  1  0  0  0  0
  5 12  1  6  0  0  0
  5  3  1  0  0  0  0
  6  9  1  0  0  0  0
  6  8  2  0  0  0  0
  7  5  1  0  0  0  0
  8 11  1  0  0  0  0
  9 10  1  0  0  0  0
 10 11  2  0  0  0  0
 10  7  1  0  0  0  0
 11  2  1  0  0  0  0
 13 14  1  0  0  0  0
 13  6  1  0  0  0  0
 14  4  2  0  0  0  0
 15 14  1  0  0  0  0
 16 15  1  0  0  0  0
 17 19  1  0  0  0  0
 19 18  1  0  0  0  0
 21 20  1  0  0  0  0
 22 21  1  0  0  0  0
 23 22  1  0  0  0  0
 24 23  1  0  0  0  0
 25 33  1  1  0  0  0
 25 24  1  0  0  0  0
 26 28  2  0  0  0  0
 27 28  1  0  0  0  0
 28 25  1  0  0  0  0
 29 26  1  0  0  0  0
 29 30  1  0  0  0  0
 31 32  1  0  0  0  0
 32 29  1  0  0  0  0
 34 35  2  0  0  0  0
 35 33  1  0  0  0  0
M  END
>  <MODEL>
6

>  <REMARK>
 VINA RESULT:      -6.2      3.292      4.403
  Name = 
  15 active torsions:
  status: ('A' for Active; 'I' for Inactive)
    1  A    between atoms: N_3  and  C_25
    2  A    between atoms: N_3  and  O_34
    3  A    between atoms: C_6  and  N_10
    4  A    between atoms: C_8  and  C_16
    5  A    between atoms: C_8  and  O_17
    6  A    between atoms: C_9  and  C_35
    7  A    between atoms: N_10  and  C_30
    8  A    between atoms: C_12  and  C_15
    9  A    between atoms: C_15  and  C_21
   10  A    between atoms: C_16  and  N_18
   11  A    between atoms: C_16  and  C_32
   12  A    between atoms: C_21  and  C_29
   13  A    between atoms: C_21  and  C_31
   14  A    between atoms: C_25  and  C_32
   15  A    between atoms: C_31  and  O_34
                            x       y       z     vdW  Elec       q    Type
                         _______ _______ _______ _____ _____    ______ ____

>  <TORSDO>
F 15

$$$$
=
 OpenBabel10222418013D

 35 37  0  0  1  0  0  0  0  0999 V2000
  189.4440  177.0350  139.6340 C   0  0  2  0  0  3  0  0  0  0  0  0
  189.2800  176.7400  143.9760 C   0  0  0  0  0  3  0  0  0  0  0  0
  190.3850  176.3490  143.3210 C   0  0  0  0  0  3  0  0  0  0  0  0
  186.2970  178.0450  144.6740 N   0  0  0  0  0  0  0  0  0  0  0  0
  190.6200  176.5960  141.8310 C   0  0  1  0  0  3  0  0  0  0  0  0
  186.4230  178.2820  142.3870 C   0  0  0  0  0  0  0  0  0  0  0  0
  189.4180  177.0420  141.0950 N   0  0  0  0  0  0  0  0  0  0  0  0
  186.9990  177.8930  143.5300 C   0  0  0  0  0  0  0  0  0  0  0  0
  187.1790  178.0590  141.3350 O   0  0  0  0  0  0  0  0  0  0  0  0
  188.2780  177.5050  141.8330 C   0  0  0  0  0  0  0  0  0  0  0  0
  188.2220  177.3820  143.2060 C   0  0  0  0  0  0  0  0  0  0  0  0
  191.6810  177.5750  141.6710 N   0  0  0  0  0  1  0  0  0  0  0  0
  184.8980  178.9060  142.6640 S   0  0  0  0  0  0  0  0  0  0  0  0
  185.0970  178.6090  144.3490 C   0  0  0  0  0  0  0  0  0  0  0  0
  184.0520  178.9120  145.3640 C   0  0  0  0  0  2  0  0  0  0  0  0
  184.5560  178.6770  146.6430 O   0  0  0  0  0  1  0  0  0  0  0  0
  190.6530  176.2550  139.1280 C   0  0  0  0  0  2  0  0  0  0  0  0
  192.6910  176.3970  138.2810 C   0  0  0  0  0  1  0  0  0  0  0  0
  191.4990  177.1070  138.4170 O   0  0  0  0  0  0  0  0  0  0  0  0
  189.4120  178.4670  139.0990 C   0  0  0  0  0  2  0  0  0  0  0  0
  189.0580  178.5160  137.6220 C   0  0  0  0  0  2  0  0  0  0  0  0
  187.7440  179.1160  137.4550 N   0  0  0  0  0  2  0  0  0  0  0  0
  186.9350  178.5370  138.3780 O   0  0  0  0  0  0  0  0  0  0  0  0
  186.2570  177.5450  137.6670 C   0  0  0  0  0  2  0  0  0  0  0  0
  184.7680  177.8550  137.6260 C   0  0  1  0  0  3  0  0  0  0  0  0
  183.6980  175.6750  137.8300 C   0  0  0  0  0  3  0  0  0  0  0  0
  183.7410  176.6900  135.6710 O   0  0  0  0  0  1  0  0  0  0  0  0
  184.0390  176.6910  137.0310 C   0  0  0  0  0  0  0  0  0  0  0  0
  182.9570  174.5130  137.4220 N   0  0  0  0  0  0  0  0  0  0  0  0
  181.5140  174.6310  137.3200 C   0  0  0  0  0  1  0  0  0  0  0  0
  184.9800  173.1590  137.5910 C   0  0  0  0  0  1  0  0  0  0  0  0
  183.5680  173.2410  137.0470 C   0  0  0  0  0  2  0  0  0  0  0  0
  184.2620  178.1520  139.0310 C   0  0  0  0  0  2  0  0  0  0  0  0
  184.1820  180.5000  139.0930 O   0  0  0  0  0  0  0  0  0  0  0  0
  183.5460  179.4620  139.0660 C   0  0  0  0  0  3  0  0  0  0  0  0
  1 20  1  1  0  0  0
  1  7  1  0  0  0  0
  3  2  2  0  0  0  0
  5 12  1  1  0  0  0
  5  3  1  0  0  0  0
  6 13  1  0  0  0  0
  6  8  2  0  0  0  0
  7  5  1  0  0  0  0
  7 10  1  0  0  0  0
  8  4  1  0  0  0  0
  9 10  1  0  0  0  0
  9  6  1  0  0  0  0
 10 11  2  0  0  0  0
 11  8  1  0  0  0  0
 11  2  1  0  0  0  0
 13 14  1  0  0  0  0
 14  4  2  0  0  0  0
 14 15  1  0  0  0  0
 15 16  1  0  0  0  0
 17  1  1  0  0  0  0
 18 19  1  0  0  0  0
 19 17  1  0  0  0  0
 21 20  1  0  0  0  0
 22 21  1  0  0  0  0
 22 23  1  0  0  0  0
 24 23  1  0  0  0  0
 25 24  1  1  0  0  0
 25 33  1  0  0  0  0
 27 28  1  0  0  0  0
 28 25  1  0  0  0  0
 28 26  2  0  0  0  0
 29 26  1  0  0  0  0
 30 29  1  0  0  0  0
 32 29  1  0  0  0  0
 32 31  1  0  0  0  0
 33 35  1  0  0  0  0
 35 34  2  0  0  0  0
M  END
>  <MODEL>
7

>  <REMARK>
 VINA RESULT:      -6.1      2.270      3.369
  Name = 
  15 active torsions:
  status: ('A' for Active; 'I' for Inactive)
    1  A    between atoms: N_3  and  C_25
    2  A    between atoms: N_3  and  O_34
    3  A    between atoms: C_6  and  N_10
    4  A    between atoms: C_8  and  C_16
    5  A    between atoms: C_8  and  O_17
    6  A    between atoms: C_9  and  C_35
    7  A    between atoms: N_10  and  C_30
    8  A    between atoms: C_12  and  C_15
    9  A    between atoms: C_15  and  C_21
   10  A    between atoms: C_16  and  N_18
   11  A    between atoms: C_16  and  C_32
   12  A    between atoms: C_21  and  C_29
   13  A    between atoms: C_21  and  C_31
   14  A    between atoms: C_25  and  C_32
   15  A    between atoms: C_31  and  O_34
                            x       y       z     vdW  Elec       q    Type
                         _______ _______ _______ _____ _____    ______ ____

>  <TORSDO>
F 15

$$$$
=
 OpenBabel10222418013D

 35 37  0  0  1  0  0  0  0  0999 V2000
  189.6300  176.9930  139.8140 C   0  0  2  0  0  3  0  0  0  0  0  0
  190.0500  176.6340  144.1340 C   0  0  0  0  0  3  0  0  0  0  0  0
  191.0930  176.3550  143.3360 C   0  0  0  0  0  3  0  0  0  0  0  0
  187.0760  177.6510  145.2330 N   0  0  0  0  0  0  0  0  0  0  0  0
  191.1130  176.6380  141.8340 C   0  0  1  0  0  3  0  0  0  0  0  0
  186.8870  177.9250  142.9550 C   0  0  0  0  0  0  0  0  0  0  0  0
  189.7900  176.9810  141.2670 N   0  0  0  0  0  0  0  0  0  0  0  0
  187.6370  177.5780  144.0070 C   0  0  0  0  0  0  0  0  0  0  0  0
  187.5190  177.7850  141.8120 O   0  0  0  0  0  0  0  0  0  0  0  0
  188.7180  177.3280  142.1540 C   0  0  0  0  0  0  0  0  0  0  0  0
  188.8490  177.1850  143.5190 C   0  0  0  0  0  0  0  0  0  0  0  0
  192.0520  177.7140  141.5640 N   0  0  0  0  0  1  0  0  0  0  0  0
  185.3600  178.4020  143.4370 S   0  0  0  0  0  0  0  0  0  0  0  0
  185.7980  178.1050  145.0760 C   0  0  0  0  0  0  0  0  0  0  0  0
  184.8690  178.3000  146.2220 C   0  0  0  0  0  2  0  0  0  0  0  0
  183.7570  179.0320  145.8070 O   0  0  0  0  0  1  0  0  0  0  0  0
  190.8280  176.3310  139.1420 C   0  0  0  0  0  2  0  0  0  0  0  0
  191.5110  174.8860  137.6130 C   0  0  0  0  0  1  0  0  0  0  0  0
  190.3960  175.2570  138.3630 O   0  0  0  0  0  0  0  0  0  0  0  0
  189.4040  178.4220  139.3200 C   0  0  0  0  0  2  0  0  0  0  0  0
  189.1300  178.4730  137.8270 C   0  0  0  0  0  2  0  0  0  0  0  0
  187.7860  178.9730  137.5940 N   0  0  0  0  0  2  0  0  0  0  0  0
  186.9400  178.1120  138.2140 O   0  0  0  0  0  0  0  0  0  0  0  0
  185.7630  178.1880  137.4670 C   0  0  0  0  0  2  0  0  0  0  0  0
  184.5870  177.6820  138.2890 C   0  0  1  0  0  3  0  0  0  0  0  0
  182.5680  179.0220  138.5460 C   0  0  0  0  0  3  0  0  0  0  0  0
  184.5210  179.7260  139.7220 O   0  0  0  0  0  1  0  0  0  0  0  0
  183.8530  178.8500  138.8700 C   0  0  0  0  0  0  0  0  0  0  0  0
  181.7170  180.0620  139.0570 N   0  0  0  0  0  0  0  0  0  0  0  0
  181.7350  181.3450  138.3790 C   0  0  0  0  0  1  0  0  0  0  0  0
  179.8270  181.0560  140.2370 C   0  0  0  0  0  1  0  0  0  0  0  0
  180.7950  179.8920  140.1760 C   0  0  0  0  0  2  0  0  0  0  0  0
  183.6650  176.8430  137.4130 C   0  0  0  0  0  2  0  0  0  0  0  0
  184.2800  174.5790  137.5480 O   0  0  0  0  0  0  0  0  0  0  0  0
  183.5420  175.4570  137.9560 C   0  0  0  0  0  3  0  0  0  0  0  0
  1 17  1  6  0  0  0
  1  7  1  0  0  0  0
  3  2  2  0  0  0  0
  5 12  1  1  0  0  0
  5  3  1  0  0  0  0
  6 13  1  0  0  0  0
  6  8  2  0  0  0  0
  7  5  1  0  0  0  0
  7 10  1  0  0  0  0
  8  4  1  0  0  0  0
  9 10  1  0  0  0  0
  9  6  1  0  0  0  0
 10 11  2  0  0  0  0
 11  8  1  0  0  0  0
 11  2  1  0  0  0  0
 13 14  1  0  0  0  0
 14  4  2  0  0  0  0
 14 15  1  0  0  0  0
 16 15  1  0  0  0  0
 18 19  1  0  0  0  0
 19 17  1  0  0  0  0
 20  1  1  0  0  0  0
 21 20  1  0  0  0  0
 22 21  1  0  0  0  0
 22 23  1  0  0  0  0
 24 23  1  0  0  0  0
 24 25  1  0  0  0  0
 25 33  1  6  0  0  0
 25 28  1  0  0  0  0
 26 28  2  0  0  0  0
 26 29  1  0  0  0  0
 28 27  1  0  0  0  0
 29 32  1  0  0  0  0
 30 29  1  0  0  0  0
 32 31  1  0  0  0  0
 33 35  1  0  0  0  0
 34 35  2  0  0  0  0
M  END
>  <MODEL>
8

>  <REMARK>
 VINA RESULT:      -6.0      2.614      4.914
  Name = 
  15 active torsions:
  status: ('A' for Active; 'I' for Inactive)
    1  A    between atoms: N_3  and  C_25
    2  A    between atoms: N_3  and  O_34
    3  A    between atoms: C_6  and  N_10
    4  A    between atoms: C_8  and  C_16
    5  A    between atoms: C_8  and  O_17
    6  A    between atoms: C_9  and  C_35
    7  A    between atoms: N_10  and  C_30
    8  A    between atoms: C_12  and  C_15
    9  A    between atoms: C_15  and  C_21
   10  A    between atoms: C_16  and  N_18
   11  A    between atoms: C_16  and  C_32
   12  A    between atoms: C_21  and  C_29
   13  A    between atoms: C_21  and  C_31
   14  A    between atoms: C_25  and  C_32
   15  A    between atoms: C_31  and  O_34
                            x       y       z     vdW  Elec       q    Type
                         _______ _______ _______ _____ _____    ______ ____

>  <TORSDO>
F 15

$$$$
=
 OpenBabel10222418013D

 35 37  0  0  1  0  0  0  0  0999 V2000
  189.5290  177.0080  144.3950 C   0  0  2  0  0  3  0  0  0  0  0  0
  185.6120  177.8790  146.0900 C   0  0  0  0  0  3  0  0  0  0  0  0
  186.6400  177.5810  146.9010 C   0  0  0  0  0  3  0  0  0  0  0  0
  183.8110  178.6280  143.3920 N   0  0  0  0  0  0  0  0  0  0  0  0
  188.0880  177.4570  146.4270 C   0  0  1  0  0  3  0  0  0  0  0  0
  185.9030  178.2540  142.5070 C   0  0  0  0  0  0  0  0  0  0  0  0
  188.2390  177.4070  144.9560 N   0  0  0  0  0  0  0  0  0  0  0  0
  185.1140  178.3310  143.5840 C   0  0  0  0  0  0  0  0  0  0  0  0
  187.1400  177.9270  142.8050 O   0  0  0  0  0  0  0  0  0  0  0  0
  187.1340  177.7890  144.1260 C   0  0  0  0  0  0  0  0  0  0  0  0
  185.8890  178.0350  144.6670 C   0  0  0  0  0  0  0  0  0  0  0  0
  188.8610  178.5660  146.9580 N   0  0  0  0  0  1  0  0  0  0  0  0
  185.0460  178.5750  141.1090 S   0  0  0  0  0  0  0  0  0  0  0  0
  183.6210  178.8010  142.0510 C   0  0  0  0  0  0  0  0  0  0  0  0
  182.2940  179.1290  141.4640 C   0  0  0  0  0  2  0  0  0  0  0  0
  181.6790  177.9630  141.0090 O   0  0  0  0  0  1  0  0  0  0  0  0
  190.3470  178.2380  144.0170 C   0  0  0  0  0  2  0  0  0  0  0  0
  191.6510  177.1710  145.4500 C   0  0  0  0  0  1  0  0  0  0  0  0
  191.6850  178.0350  144.3560 O   0  0  0  0  0  0  0  0  0  0  0  0
  189.3200  176.0630  143.2110 C   0  0  0  0  0  2  0  0  0  0  0  0
  190.2420  176.3920  142.0500 C   0  0  0  0  0  2  0  0  0  0  0  0
  189.4500  176.7280  140.8780 N   0  0  0  0  0  2  0  0  0  0  0  0
  189.9820  177.8660  140.3650 O   0  0  0  0  0  0  0  0  0  0  0  0
  189.0420  178.2910  139.4240 C   0  0  0  0  0  2  0  0  0  0  0  0
  188.7950  177.1940  138.3990 C   0  0  1  0  0  3  0  0  0  0  0  0
  186.8690  176.3590  137.1620 C   0  0  0  0  0  3  0  0  0  0  0  0
  186.8330  178.6410  137.8570 O   0  0  0  0  0  1  0  0  0  0  0  0
  187.4470  177.3930  137.7800 C   0  0  0  0  0  0  0  0  0  0  0  0
  185.5620  176.3760  136.5630 N   0  0  0  0  0  0  0  0  0  0  0  0
  185.4510  176.8430  135.1930 C   0  0  0  0  0  1  0  0  0  0  0  0
  183.6660  177.0430  137.9470 C   0  0  0  0  0  1  0  0  0  0  0  0
  184.3510  175.9000  137.2240 C   0  0  0  0  0  2  0  0  0  0  0  0
  189.8880  177.2200  137.3380 C   0  0  0  0  0  2  0  0  0  0  0  0
  190.4620  175.0250  137.9490 O   0  0  0  0  0  0  0  0  0  0  0  0
  190.8590  176.1070  137.5560 C   0  0  0  0  0  3  0  0  0  0  0  0
  1 20  1  6  0  0  0
  1  7  1  0  0  0  0
  2  3  2  0  0  0  0
  4  8  1  0  0  0  0
  5  3  1  0  0  0  0
  5 12  1  6  0  0  0
  6  9  1  0  0  0  0
  6  8  2  0  0  0  0
  7  5  1  0  0  0  0
  8 11  1  0  0  0  0
  9 10  1  0  0  0  0
 10 11  2  0  0  0  0
 10  7  1  0  0  0  0
 11  2  1  0  0  0  0
 13 14  1  0  0  0  0
 13  6  1  0  0  0  0
 14  4  2  0  0  0  0
 15 14  1  0  0  0  0
 16 15  1  0  0  0  0
 17 19  1  0  0  0  0
 17  1  1  0  0  0  0
 19 18  1  0  0  0  0
 21 20  1  0  0  0  0
 22 21  1  0  0  0  0
 23 22  1  0  0  0  0
 24 23  1  0  0  0  0
 25 33  1  6  0  0  0
 25 24  1  0  0  0  0
 26 28  2  0  0  0  0
 28 27  1  0  0  0  0
 28 25  1  0  0  0  0
 29 26  1  0  0  0  0
 29 32  1  0  0  0  0
 30 29  1  0  0  0  0
 32 31  1  0  0  0  0
 33 35  1  0  0  0  0
 35 34  2  0  0  0  0
M  END
>  <MODEL>
9

>  <REMARK>
 VINA RESULT:      -6.0      1.968      2.712
  Name = 
  15 active torsions:
  status: ('A' for Active; 'I' for Inactive)
    1  A    between atoms: N_3  and  C_25
    2  A    between atoms: N_3  and  O_34
    3  A    between atoms: C_6  and  N_10
    4  A    between atoms: C_8  and  C_16
    5  A    between atoms: C_8  and  O_17
    6  A    between atoms: C_9  and  C_35
    7  A    between atoms: N_10  and  C_30
    8  A    between atoms: C_12  and  C_15
    9  A    between atoms: C_15  and  C_21
   10  A    between atoms: C_16  and  N_18
   11  A    between atoms: C_16  and  C_32
   12  A    between atoms: C_21  and  C_29
   13  A    between atoms: C_21  and  C_31
   14  A    between atoms: C_25  and  C_32
   15  A    between atoms: C_31  and  O_34
                            x       y       z     vdW  Elec       q    Type
                         _______ _______ _______ _____ _____    ______ ____

>  <TORSDO>
F 15

$$$$
