=
 OpenBabel10222419353D

 39 45  0  0  1  0  0  0  0  0999 V2000
  189.9050  176.6970  139.6450 C   0  0  2  0  0  3  0  0  0  0  0  0
  190.7090  177.6240  141.7200 C   0  0  1  0  0  3  0  0  0  0  0  0
  191.9090  177.4570  140.8030 C   0  0  0  0  0  2  0  0  0  0  0  0
  189.4950  177.5740  140.8100 C   0  0  0  0  0  2  0  0  0  0  0  0
  191.3970  176.9190  139.4740 C   0  0  0  0  0  2  0  0  0  0  0  0
  185.6840  178.2460  137.6860 N   0  0  0  0  0  2  0  0  0  0  0  0
  187.7780  178.2720  136.2330 C   0  0  1  0  0  3  0  0  0  0  0  0
  186.8470  178.2500  135.0340 C   0  0  0  0  0  1  0  0  0  0  0  0
  189.1150  177.0190  138.4070 C   0  0  0  0  0  0  0  0  0  0  0  0
  187.0550  177.8870  137.5060 C   0  0  0  0  0  0  0  0  0  0  0  0
  188.9520  177.3240  135.9700 C   0  0  0  0  0  2  0  0  0  0  0  0
  189.7370  177.0670  137.2230 C   0  0  0  0  0  3  0  0  0  0  0  0
  187.7150  177.3480  138.4940 N   0  0  0  0  0  0  0  0  0  0  0  0
  185.0240  177.9880  138.8960 N   0  0  0  0  0  2  0  0  0  0  0  0
  184.3180  180.1960  139.1490 O   0  0  0  0  0  0  0  0  0  0  0  0
  184.3640  179.0280  139.6150 C   0  0  0  0  0  0  0  0  0  0  0  0
  183.7580  178.7380  140.9420 C   0  0  0  0  0  2  0  0  0  0  0  0
  182.6670  177.8780  140.7720 O   0  0  0  0  0  0  0  0  0  0  0  0
  181.5610  178.6150  141.1980 C   0  0  0  0  0  2  0  0  0  0  0  0
  181.8220  179.1580  142.5940 C   0  0  2  0  0  3  0  0  0  0  0  0
  179.5110  178.7460  143.4180 C   0  0  0  0  0  2  0  0  0  0  0  0
  180.9800  178.4240  143.6230 C   0  0  2  0  0  3  0  0  0  0  0  0
  180.5660  179.8040  143.1570 C   0  0  1  0  0  3  0  0  0  0  0  0
  190.6760  176.5130  142.6600 N   0  0  0  0  0  2  0  0  0  0  0  0
  189.6860  176.7930  143.6150 N   0  0  0  0  0  2  0  0  0  0  0  0
  189.0430  177.3400  145.9350 C   0  0  0  0  0  0  0  0  0  0  0  0
  185.7250  178.5060  146.8910 C   0  0  0  0  0  3  0  0  0  0  0  0
  190.6230  177.0870  147.7320 N   0  0  0  0  0  0  0  0  0  0  0  0
  189.3920  177.4350  147.2780 C   0  0  0  0  0  0  0  0  0  0  0  0
  187.7080  177.7130  145.7150 C   0  0  0  0  0  0  0  0  0  0  0  0
  187.0210  177.7240  144.4950 C   0  0  0  0  0  3  0  0  0  0  0  0
  191.5680  176.6470  146.8530 C   0  0  0  0  0  3  0  0  0  0  0  0
  189.9980  176.8990  145.0050 C   0  0  0  0  0  0  0  0  0  0  0  0
  191.2760  176.5500  145.4810 C   0  0  0  0  0  3  0  0  0  0  0  0
  188.0970  177.9760  148.2140 S   0  0  0  0  0  0  0  0  0  0  0  0
  185.6780  178.1300  144.4800 C   0  0  0  0  0  3  0  0  0  0  0  0
  187.0560  178.0920  146.8890 C   0  0  0  0  0  0  0  0  0  0  0  0
  183.7380  178.9160  145.6350 F   0  0  0  0  0  0  0  0  0  0  0  0
  185.0330  178.5240  145.6700 C   0  0  0  0  0  0  0  0  0  0  0  0
  1  9  1  6  0  0  0
  1  4  1  0  0  0  0
  2 24  1  1  0  0  0
  3  2  1  0  0  0  0
  4  2  1  0  0  0  0
  5  1  1  0  0  0  0
  5  3  1  0  0  0  0
  6 14  1  0  0  0  0
  7  8  1  6  0  0  0
  7 10  1  0  0  0  0
  9 13  1  0  0  0  0
 10  6  1  0  0  0  0
 10 13  2  0  0  0  0
 11  7  1  0  0  0  0
 11 12  1  0  0  0  0
 12  9  2  0  0  0  0
 14 16  1  0  0  0  0
 15 16  2  0  0  0  0
 16 17  1  0  0  0  0
 18 17  1  0  0  0  0
 18 19  1  0  0  0  0
 20 19  1  6  0  0  0
 20 23  1  0  0  0  0
 20 22  1  0  0  0  0
 22 21  1  6  0  0  0
 23 21  1  6  0  0  0
 23 22  1  0  0  0  0
 24 25  1  0  0  0  0
 25 33  1  0  0  0  0
 26 29  1  0  0  0  0
 29 28  2  0  0  0  0
 29 35  1  0  0  0  0
 30 26  1  0  0  0  0
 30 37  2  0  0  0  0
 31 30  1  0  0  0  0
 32 28  1  0  0  0  0
 33 34  1  0  0  0  0
 33 26  2  0  0  0  0
 34 32  2  0  0  0  0
 36 31  2  0  0  0  0
 36 39  1  0  0  0  0
 37 27  1  0  0  0  0
 37 35  1  0  0  0  0
 38 39  1  0  0  0  0
 39 27  2  0  0  0  0
M  END
>  <MODEL>
1

>  <REMARK>
 VINA RESULT:     -10.3      0.000      0.000
  Name = 
  9 active torsions:
  status: ('A' for Active; 'I' for Inactive)
    1  A    between atoms: O_1  and  C_35
    2  A    between atoms: O_1  and  C_37
    3  A    between atoms: N_2  and  N_16
    4  A    between atoms: C_3  and  C_20
    5  A    between atoms: C_5  and  C_35
    6  A    between atoms: N_6  and  C_7
    7  A    between atoms: N_6  and  N_11
    8  A    between atoms: N_11  and  C_28
    9  A    between atoms: C_23  and  C_37
                            x       y       z     vdW  Elec       q    Type
                         _______ _______ _______ _____ _____    ______ ____

>  <TORSDO>
F 9

$$$$
=
 OpenBabel10222419353D

 39 45  0  0  1  0  0  0  0  0999 V2000
  186.0880  177.9250  143.2020 C   0  0  2  0  0  3  0  0  0  0  0  0
  184.9050  179.3230  144.7700 C   0  0  1  0  0  3  0  0  0  0  0  0
  185.7500  178.3520  145.5770 C   0  0  0  0  0  2  0  0  0  0  0  0
  185.4970  179.3090  143.3720 C   0  0  0  0  0  2  0  0  0  0  0  0
  186.5370  177.5010  144.5890 C   0  0  0  0  0  2  0  0  0  0  0  0
  190.4610  176.1740  141.8390 N   0  0  0  0  0  2  0  0  0  0  0  0
  189.0180  177.3310  140.0860 C   0  0  1  0  0  3  0  0  0  0  0  0
  190.2990  177.5720  139.3070 C   0  0  0  0  0  1  0  0  0  0  0  0
  187.2030  177.9210  142.1940 C   0  0  0  0  0  0  0  0  0  0  0  0
  189.3030  176.9470  141.5220 C   0  0  0  0  0  0  0  0  0  0  0  0
  188.1530  178.5940  140.0260 C   0  0  0  0  0  2  0  0  0  0  0  0
  187.0280  178.5340  141.0170 C   0  0  0  0  0  3  0  0  0  0  0  0
  188.4250  177.2030  142.4530 N   0  0  0  0  0  0  0  0  0  0  0  0
  190.6910  175.7220  143.1460 N   0  0  0  0  0  2  0  0  0  0  0  0
  191.7910  177.6780  143.7820 O   0  0  0  0  0  0  0  0  0  0  0  0
  191.3990  176.5230  144.0910 C   0  0  0  0  0  0  0  0  0  0  0  0
  191.7100  175.9730  145.4370 C   0  0  0  0  0  2  0  0  0  0  0  0
  191.7630  177.0230  146.3620 O   0  0  0  0  0  0  0  0  0  0  0  0
  190.9360  176.6190  147.4100 C   0  0  0  0  0  2  0  0  0  0  0  0
  189.4820  176.7160  146.9760 C   0  0  2  0  0  3  0  0  0  0  0  0
  188.8910  178.4960  148.6090 C   0  0  0  0  0  2  0  0  0  0  0  0
  188.9670  178.1350  147.1370 C   0  0  2  0  0  3  0  0  0  0  0  0
  188.5970  177.0780  148.1570 C   0  0  1  0  0  3  0  0  0  0  0  0
  183.5320  178.8370  144.7370 N   0  0  0  0  0  2  0  0  0  0  0  0
  183.0220  179.0900  143.4540 N   0  0  0  0  0  2  0  0  0  0  0  0
  181.2240  178.5760  141.8410 C   0  0  0  0  0  0  0  0  0  0  0  0
  181.8140  177.8910  138.3110 C   0  0  0  0  0  3  0  0  0  0  0  0
  178.9310  178.4670  142.5620 N   0  0  0  0  0  0  0  0  0  0  0  0
  179.8700  178.3900  141.5850 C   0  0  0  0  0  0  0  0  0  0  0  0
  182.0040  178.4030  140.6870 C   0  0  0  0  0  0  0  0  0  0  0  0
  183.3960  178.5010  140.5810 C   0  0  0  0  0  3  0  0  0  0  0  0
  179.3090  178.7570  143.8390 C   0  0  0  0  0  3  0  0  0  0  0  0
  181.6420  178.8840  143.1460 C   0  0  0  0  0  0  0  0  0  0  0  0
  180.6620  178.9740  144.1520 C   0  0  0  0  0  3  0  0  0  0  0  0
  179.5970  178.0230  139.9610 S   0  0  0  0  0  0  0  0  0  0  0  0
  183.9950  178.2910  139.3290 C   0  0  0  0  0  3  0  0  0  0  0  0
  181.2370  178.0940  139.5630 C   0  0  0  0  0  0  0  0  0  0  0  0
  183.8050  177.7950  136.9980 F   0  0  0  0  0  0  0  0  0  0  0  0
  183.2090  177.9920  138.1990 C   0  0  0  0  0  0  0  0  0  0  0  0
  1  9  1  6  0  0  0
  1  4  1  0  0  0  0
  1  5  1  0  0  0  0
  2 24  1  6  0  0  0
  2  3  1  0  0  0  0
  4  2  1  0  0  0  0
  5  3  1  0  0  0  0
  6 14  1  0  0  0  0
  7  8  1  6  0  0  0
  7 10  1  0  0  0  0
  9 13  1  0  0  0  0
 10  6  1  0  0  0  0
 10 13  2  0  0  0  0
 11  7  1  0  0  0  0
 11 12  1  0  0  0  0
 12  9  2  0  0  0  0
 14 16  1  0  0  0  0
 15 16  2  0  0  0  0
 16 17  1  0  0  0  0
 17 18  1  0  0  0  0
 18 19  1  0  0  0  0
 20 22  1  0  0  0  0
 20 19  1  1  0  0  0
 20 23  1  0  0  0  0
 22 23  1  0  0  0  0
 22 21  1  1  0  0  0
 23 21  1  1  0  0  0
 25 24  1  0  0  0  0
 26 33  1  0  0  0  0
 27 37  1  0  0  0  0
 28 32  2  0  0  0  0
 29 26  2  0  0  0  0
 29 28  1  0  0  0  0
 30 26  1  0  0  0  0
 31 30  1  0  0  0  0
 32 34  1  0  0  0  0
 33 25  1  0  0  0  0
 33 34  2  0  0  0  0
 35 29  1  0  0  0  0
 36 31  2  0  0  0  0
 37 35  1  0  0  0  0
 37 30  2  0  0  0  0
 38 39  1  0  0  0  0
 39 27  2  0  0  0  0
 39 36  1  0  0  0  0
M  END
>  <MODEL>
2

>  <REMARK>
 VINA RESULT:      -9.9      3.892      8.376
  Name = 
  9 active torsions:
  status: ('A' for Active; 'I' for Inactive)
    1  A    between atoms: O_1  and  C_35
    2  A    between atoms: O_1  and  C_37
    3  A    between atoms: N_2  and  N_16
    4  A    between atoms: C_3  and  C_20
    5  A    between atoms: C_5  and  C_35
    6  A    between atoms: N_6  and  C_7
    7  A    between atoms: N_6  and  N_11
    8  A    between atoms: N_11  and  C_28
    9  A    between atoms: C_23  and  C_37
                            x       y       z     vdW  Elec       q    Type
                         _______ _______ _______ _____ _____    ______ ____

>  <TORSDO>
F 9

$$$$
=
 OpenBabel10222419353D

 39 45  0  0  1  0  0  0  0  0999 V2000
  189.9800  177.2070  141.8440 C   0  0  2  0  0  3  0  0  0  0  0  0
  191.5950  177.3170  143.6300 C   0  0  1  0  0  3  0  0  0  0  0  0
  191.0600  175.8960  143.5910 C   0  0  0  0  0  2  0  0  0  0  0  0
  191.2430  177.9190  142.2830 C   0  0  0  0  0  2  0  0  0  0  0  0
  190.0770  175.8100  142.4310 C   0  0  0  0  0  2  0  0  0  0  0  0
  187.2720  178.3680  137.9240 N   0  0  0  0  0  2  0  0  0  0  0  0
  189.7480  177.8680  137.5840 C   0  0  1  0  0  3  0  0  0  0  0  0
  189.4040  177.5590  136.1380 C   0  0  0  0  0  1  0  0  0  0  0  0
  189.8370  177.2090  140.3480 C   0  0  0  0  0  0  0  0  0  0  0  0
  188.5120  177.8980  138.4560 C   0  0  0  0  0  0  0  0  0  0  0  0
  190.7440  176.8220  138.0930 C   0  0  0  0  0  2  0  0  0  0  0  0
  190.8890  176.8860  139.5850 C   0  0  0  0  0  3  0  0  0  0  0  0
  188.6040  177.6250  139.7290 N   0  0  0  0  0  0  0  0  0  0  0  0
  186.1400  178.4980  138.7410 N   0  0  0  0  0  2  0  0  0  0  0  0
  184.7130  177.5410  137.1630 O   0  0  0  0  0  0  0  0  0  0  0  0
  184.8520  178.0820  138.2910 C   0  0  0  0  0  0  0  0  0  0  0  0
  183.6580  178.3240  139.1450 C   0  0  0  0  0  2  0  0  0  0  0  0
  183.1350  177.0950  139.5650 O   0  0  0  0  0  0  0  0  0  0  0  0
  181.7550  177.2910  139.6120 C   0  0  0  0  0  2  0  0  0  0  0  0
  181.4570  178.6530  140.2200 C   0  0  2  0  0  3  0  0  0  0  0  0
  179.5080  177.8690  141.5510 C   0  0  0  0  0  2  0  0  0  0  0  0
  180.8850  178.5040  141.6170 C   0  0  2  0  0  3  0  0  0  0  0  0
  179.9640  178.8150  140.4560 C   0  0  1  0  0  3  0  0  0  0  0  0
  190.9210  178.0450  144.6960 N   0  0  0  0  0  2  0  0  0  0  0  0
  189.9360  177.1990  145.2310 N   0  0  0  0  0  2  0  0  0  0  0  0
  187.8370  177.9320  146.3070 C   0  0  0  0  0  0  0  0  0  0  0  0
  184.7360  178.5240  144.4880 C   0  0  0  0  0  3  0  0  0  0  0  0
  187.7370  178.2650  148.6880 N   0  0  0  0  0  0  0  0  0  0  0  0
  187.1520  178.2870  147.4630 C   0  0  0  0  0  0  0  0  0  0  0  0
  187.0140  177.9890  145.1720 C   0  0  0  0  0  0  0  0  0  0  0  0
  187.3660  177.6860  143.8520 C   0  0  0  0  0  3  0  0  0  0  0  0
  189.0470  177.9050  148.8030 C   0  0  0  0  0  3  0  0  0  0  0  0
  189.1900  177.5650  146.3940 C   0  0  0  0  0  0  0  0  0  0  0  0
  189.7950  177.5550  147.6650 C   0  0  0  0  0  3  0  0  0  0  0  0
  185.5460  178.6820  147.1290 S   0  0  0  0  0  0  0  0  0  0  0  0
  186.3920  177.8040  142.8480 C   0  0  0  0  0  3  0  0  0  0  0  0
  185.7120  178.3930  145.4740 C   0  0  0  0  0  0  0  0  0  0  0  0
  184.1590  178.3360  142.1800 F   0  0  0  0  0  0  0  0  0  0  0  0
  185.0850  178.2250  143.1630 C   0  0  0  0  0  0  0  0  0  0  0  0
  1  9  1  6  0  0  0
  1  4  1  0  0  0  0
  1  5  1  0  0  0  0
  2 24  1  1  0  0  0
  3  2  1  0  0  0  0
  4  2  1  0  0  0  0
  5  3  1  0  0  0  0
  6 10  1  0  0  0  0
  6 14  1  0  0  0  0
  7  8  1  6  0  0  0
  7 11  1  0  0  0  0
  7 10  1  0  0  0  0
 10 13  2  0  0  0  0
 11 12  1  0  0  0  0
 12  9  2  0  0  0  0
 13  9  1  0  0  0  0
 15 16  2  0  0  0  0
 16 14  1  0  0  0  0
 16 17  1  0  0  0  0
 17 18  1  0  0  0  0
 18 19  1  0  0  0  0
 20 19  1  6  0  0  0
 20 23  1  0  0  0  0
 20 22  1  0  0  0  0
 22 21  1  6  0  0  0
 23 21  1  6  0  0  0
 23 22  1  0  0  0  0
 24 25  1  0  0  0  0
 25 33  1  0  0  0  0
 26 33  2  0  0  0  0
 26 29  1  0  0  0  0
 27 37  1  0  0  0  0
 28 32  1  0  0  0  0
 29 28  2  0  0  0  0
 30 37  2  0  0  0  0
 30 26  1  0  0  0  0
 31 30  1  0  0  0  0
 33 34  1  0  0  0  0
 34 32  2  0  0  0  0
 35 29  1  0  0  0  0
 36 39  1  0  0  0  0
 36 31  2  0  0  0  0
 37 35  1  0  0  0  0
 38 39  1  0  0  0  0
 39 27  2  0  0  0  0
M  END
>  <MODEL>
3

>  <REMARK>
 VINA RESULT:      -9.6      1.706      2.377
  Name = 
  9 active torsions:
  status: ('A' for Active; 'I' for Inactive)
    1  A    between atoms: O_1  and  C_35
    2  A    between atoms: O_1  and  C_37
    3  A    between atoms: N_2  and  N_16
    4  A    between atoms: C_3  and  C_20
    5  A    between atoms: C_5  and  C_35
    6  A    between atoms: N_6  and  C_7
    7  A    between atoms: N_6  and  N_11
    8  A    between atoms: N_11  and  C_28
    9  A    between atoms: C_23  and  C_37
                            x       y       z     vdW  Elec       q    Type
                         _______ _______ _______ _____ _____    ______ ____

>  <TORSDO>
F 9

$$$$
=
 OpenBabel10222419353D

 39 45  0  0  1  0  0  0  0  0999 V2000
  183.3950  178.4830  143.4320 C   0  0  2  0  0  3  0  0  0  0  0  0
  184.8380  179.3500  145.1580 C   0  0  1  0  0  3  0  0  0  0  0  0
  185.6620  179.2540  143.8860 C   0  0  0  0  0  2  0  0  0  0  0  0
  183.3900  179.3020  144.7070 C   0  0  0  0  0  2  0  0  0  0  0  0
  184.7400  178.7540  142.7810 C   0  0  0  0  0  2  0  0  0  0  0  0
  181.5430  178.7390  138.8990 N   0  0  0  0  0  2  0  0  0  0  0  0
  179.9330  178.8140  140.8740 C   0  0  1  0  0  3  0  0  0  0  0  0
  178.9450  179.4880  139.9390 C   0  0  0  0  0  1  0  0  0  0  0  0
  182.2320  178.8310  142.5480 C   0  0  0  0  0  0  0  0  0  0  0  0
  181.3370  178.8350  140.3090 C   0  0  0  0  0  0  0  0  0  0  0  0
  179.8870  179.5130  142.2350 C   0  0  0  0  0  2  0  0  0  0  0  0
  181.0420  179.1020  143.1000 C   0  0  0  0  0  3  0  0  0  0  0  0
  182.3640  178.8040  141.1130 N   0  0  0  0  0  0  0  0  0  0  0  0
  182.8350  178.6550  138.3630 N   0  0  0  0  0  2  0  0  0  0  0  0
  182.7540  176.3340  138.1490 O   0  0  0  0  0  0  0  0  0  0  0  0
  183.4140  177.3980  138.0210 C   0  0  0  0  0  0  0  0  0  0  0  0
  184.8230  177.3390  137.5460 C   0  0  0  0  0  2  0  0  0  0  0  0
  185.5380  178.4100  138.0930 O   0  0  0  0  0  0  0  0  0  0  0  0
  186.8270  178.2830  137.5730 C   0  0  0  0  0  2  0  0  0  0  0  0
  187.7920  177.9280  138.6930 C   0  0  2  0  0  3  0  0  0  0  0  0
  189.7050  177.4430  137.1790 C   0  0  0  0  0  2  0  0  0  0  0  0
  189.2120  178.3130  138.3210 C   0  0  2  0  0  3  0  0  0  0  0  0
  188.7770  176.8660  138.2310 C   0  0  1  0  0  3  0  0  0  0  0  0
  185.1390  178.2020  146.0020 N   0  0  0  0  0  2  0  0  0  0  0  0
  186.3470  177.6490  145.5520 N   0  0  0  0  0  2  0  0  0  0  0  0
  188.7810  177.3500  145.8430 C   0  0  0  0  0  0  0  0  0  0  0  0
  191.0580  176.5450  143.1140 C   0  0  0  0  0  3  0  0  0  0  0  0
  189.7950  177.6200  148.0090 N   0  0  0  0  0  0  0  0  0  0  0  0
  189.8880  177.3380  146.6840 C   0  0  0  0  0  0  0  0  0  0  0  0
  189.1320  177.0720  144.5130 C   0  0  0  0  0  0  0  0  0  0  0  0
  188.2790  177.0170  143.4050 C   0  0  0  0  0  3  0  0  0  0  0  0
  188.5770  177.9060  148.5530 C   0  0  0  0  0  3  0  0  0  0  0  0
  187.5140  177.6330  146.3770 C   0  0  0  0  0  0  0  0  0  0  0  0
  187.4210  177.9130  147.7540 C   0  0  0  0  0  3  0  0  0  0  0  0
  191.3030  176.9850  145.8350 S   0  0  0  0  0  0  0  0  0  0  0  0
  188.8260  176.7230  142.1450 C   0  0  0  0  0  3  0  0  0  0  0  0
  190.5000  176.8470  144.3550 C   0  0  0  0  0  0  0  0  0  0  0  0
  190.7150  176.2000  140.7780 F   0  0  0  0  0  0  0  0  0  0  0  0
  190.2060  176.4840  142.0000 C   0  0  0  0  0  0  0  0  0  0  0  0
  1  9  1  6  0  0  0
  1  4  1  0  0  0  0
  2 24  1  1  0  0  0
  3  2  1  0  0  0  0
  4  2  1  0  0  0  0
  5  1  1  0  0  0  0
  5  3  1  0  0  0  0
  6 10  1  0  0  0  0
  7  8  1  6  0  0  0
  7 11  1  0  0  0  0
  9 12  2  0  0  0  0
 10  7  1  0  0  0  0
 10 13  2  0  0  0  0
 11 12  1  0  0  0  0
 13  9  1  0  0  0  0
 14  6  1  0  0  0  0
 16 15  2  0  0  0  0
 16 14  1  0  0  0  0
 17 16  1  0  0  0  0
 17 18  1  0  0  0  0
 19 18  1  0  0  0  0
 20 19  1  6  0  0  0
 22 21  1  6  0  0  0
 22 20  1  0  0  0  0
 23 21  1  6  0  0  0
 23 22  1  0  0  0  0
 23 20  1  0  0  0  0
 25 24  1  0  0  0  0
 25 33  1  0  0  0  0
 26 33  2  0  0  0  0
 26 29  1  0  0  0  0
 27 37  1  0  0  0  0
 28 32  1  0  0  0  0
 29 28  2  0  0  0  0
 30 26  1  0  0  0  0
 31 30  1  0  0  0  0
 33 34  1  0  0  0  0
 34 32  2  0  0  0  0
 35 29  1  0  0  0  0
 36 31  2  0  0  0  0
 37 30  2  0  0  0  0
 37 35  1  0  0  0  0
 38 39  1  0  0  0  0
 39 36  1  0  0  0  0
 39 27  2  0  0  0  0
M  END
>  <MODEL>
4

>  <REMARK>
 VINA RESULT:      -9.4      2.593      6.573
  Name = 
  9 active torsions:
  status: ('A' for Active; 'I' for Inactive)
    1  A    between atoms: O_1  and  C_35
    2  A    between atoms: O_1  and  C_37
    3  A    between atoms: N_2  and  N_16
    4  A    between atoms: C_3  and  C_20
    5  A    between atoms: C_5  and  C_35
    6  A    between atoms: N_6  and  C_7
    7  A    between atoms: N_6  and  N_11
    8  A    between atoms: N_11  and  C_28
    9  A    between atoms: C_23  and  C_37
                            x       y       z     vdW  Elec       q    Type
                         _______ _______ _______ _____ _____    ______ ____

>  <TORSDO>
F 9

$$$$
=
 OpenBabel10222419353D

 39 45  0  0  1  0  0  0  0  0999 V2000
  189.8960  176.6820  142.1230 C   0  0  2  0  0  3  0  0  0  0  0  0
  190.7490  177.3860  139.9810 C   0  0  1  0  0  3  0  0  0  0  0  0
  189.2900  177.8030  140.0460 C   0  0  0  0  0  2  0  0  0  0  0  0
  191.1610  177.1280  141.4180 C   0  0  0  0  0  2  0  0  0  0  0  0
  188.7620  177.4050  141.4180 C   0  0  0  0  0  2  0  0  0  0  0  0
  187.4640  177.5030  146.3010 N   0  0  0  0  0  2  0  0  0  0  0  0
  189.9240  176.8490  146.4370 C   0  0  1  0  0  3  0  0  0  0  0  0
  189.9360  177.4960  147.8110 C   0  0  0  0  0  1  0  0  0  0  0  0
  189.9530  176.9710  143.5960 C   0  0  0  0  0  0  0  0  0  0  0  0
  188.7070  177.2620  145.6380 C   0  0  0  0  0  0  0  0  0  0  0  0
  191.2100  177.2290  145.6970 C   0  0  0  0  0  2  0  0  0  0  0  0
  191.1240  176.8820  144.2390 C   0  0  0  0  0  3  0  0  0  0  0  0
  188.7520  177.2670  144.3340 N   0  0  0  0  0  0  0  0  0  0  0  0
  186.3010  177.7880  145.5720 N   0  0  0  0  0  2  0  0  0  0  0  0
  185.5580  179.3810  147.1050 O   0  0  0  0  0  0  0  0  0  0  0  0
  185.3480  178.7390  146.0430 C   0  0  0  0  0  0  0  0  0  0  0  0
  184.0800  178.9450  145.2940 C   0  0  0  0  0  2  0  0  0  0  0  0
  184.3420  179.6990  144.1440 O   0  0  0  0  0  0  0  0  0  0  0  0
  183.6190  179.0690  143.1300 C   0  0  0  0  0  2  0  0  0  0  0  0
  184.5630  178.2340  142.2790 C   0  0  2  0  0  3  0  0  0  0  0  0
  183.8120  179.2040  140.1160 C   0  0  0  0  0  2  0  0  0  0  0  0
  184.9960  179.0030  141.0440 C   0  0  2  0  0  3  0  0  0  0  0  0
  183.9340  177.9300  140.9300 C   0  0  1  0  0  3  0  0  0  0  0  0
  190.8540  176.1600  139.2010 N   0  0  0  0  0  2  0  0  0  0  0  0
  190.0660  176.3200  138.0510 N   0  0  0  0  0  2  0  0  0  0  0  0
  188.4520  175.0420  136.6860 C   0  0  0  0  0  0  0  0  0  0  0  0
  184.9750  176.0270  136.2210 C   0  0  0  0  0  3  0  0  0  0  0  0
  189.1380  173.0410  135.5390 N   0  0  0  0  0  0  0  0  0  0  0  0
  188.1830  173.9450  135.8740 C   0  0  0  0  0  0  0  0  0  0  0  0
  187.3230  175.8570  136.8560 C   0  0  0  0  0  0  0  0  0  0  0  0
  187.2360  177.0430  137.5940 C   0  0  0  0  0  3  0  0  0  0  0  0
  190.4040  173.1860  136.0230 C   0  0  0  0  0  3  0  0  0  0  0  0
  189.7460  175.2120  137.2060 C   0  0  0  0  0  0  0  0  0  0  0  0
  190.7290  174.2640  136.8640 C   0  0  0  0  0  3  0  0  0  0  0  0
  186.5770  173.9430  135.3580 S   0  0  0  0  0  0  0  0  0  0  0  0
  186.0080  177.7210  137.6410 C   0  0  0  0  0  3  0  0  0  0  0  0
  186.2040  175.3720  136.1770 C   0  0  0  0  0  0  0  0  0  0  0  0
  183.7040  177.8810  137.0230 F   0  0  0  0  0  0  0  0  0  0  0  0
  184.8820  177.2150  136.9630 C   0  0  0  0  0  0  0  0  0  0  0  0
  1  9  1  1  0  0  0
  2 24  1  6  0  0  0
  2  3  1  0  0  0  0
  2  4  1  0  0  0  0
  3  5  1  0  0  0  0
  4  1  1  0  0  0  0
  5  1  1  0  0  0  0
  7  8  1  1  0  0  0
  9 12  2  0  0  0  0
  9 13  1  0  0  0  0
 10  6  1  0  0  0  0
 10  7  1  0  0  0  0
 11  7  1  0  0  0  0
 12 11  1  0  0  0  0
 13 10  2  0  0  0  0
 14 16  1  0  0  0  0
 14  6  1  0  0  0  0
 16 15  2  0  0  0  0
 17 16  1  0  0  0  0
 18 17  1  0  0  0  0
 19 18  1  0  0  0  0
 20 19  1  1  0  0  0
 22 21  1  1  0  0  0
 22 20  1  0  0  0  0
 23 21  1  1  0  0  0
 23 22  1  0  0  0  0
 23 20  1  0  0  0  0
 25 24  1  0  0  0  0
 26 30  1  0  0  0  0
 26 33  1  0  0  0  0
 27 39  1  0  0  0  0
 28 29  1  0  0  0  0
 28 32  2  0  0  0  0
 29 26  2  0  0  0  0
 30 31  2  0  0  0  0
 31 36  1  0  0  0  0
 32 34  1  0  0  0  0
 33 25  1  0  0  0  0
 34 33  2  0  0  0  0
 35 29  1  0  0  0  0
 35 37  1  0  0  0  0
 37 27  2  0  0  0  0
 37 30  1  0  0  0  0
 39 38  1  0  0  0  0
 39 36  2  0  0  0  0
M  END
>  <MODEL>
5

>  <REMARK>
 VINA RESULT:      -9.2      3.596      7.898
  Name = 
  9 active torsions:
  status: ('A' for Active; 'I' for Inactive)
    1  A    between atoms: O_1  and  C_35
    2  A    between atoms: O_1  and  C_37
    3  A    between atoms: N_2  and  N_16
    4  A    between atoms: C_3  and  C_20
    5  A    between atoms: C_5  and  C_35
    6  A    between atoms: N_6  and  C_7
    7  A    between atoms: N_6  and  N_11
    8  A    between atoms: N_11  and  C_28
    9  A    between atoms: C_23  and  C_37
                            x       y       z     vdW  Elec       q    Type
                         _______ _______ _______ _____ _____    ______ ____

>  <TORSDO>
F 9

$$$$
=
 OpenBabel10222419353D

 39 45  0  0  1  0  0  0  0  0999 V2000
  188.1250  178.1950  137.5700 C   0  0  2  0  0  3  0  0  0  0  0  0
  185.8040  177.7850  138.0760 C   0  0  1  0  0  3  0  0  0  0  0  0
  185.9600  177.7010  136.5670 C   0  0  0  0  0  2  0  0  0  0  0  0
  187.2060  177.6360  138.6370 C   0  0  0  0  0  2  0  0  0  0  0  0
  187.4350  177.9090  136.2480 C   0  0  0  0  0  2  0  0  0  0  0  0
  191.8750  176.7800  140.3960 N   0  0  0  0  0  2  0  0  0  0  0  0
  191.7590  175.9040  138.0060 C   0  0  1  0  0  3  0  0  0  0  0  0
  193.2540  175.6600  138.1090 C   0  0  0  0  0  1  0  0  0  0  0  0
  189.5010  177.5970  137.6580 C   0  0  0  0  0  0  0  0  0  0  0  0
  191.2680  176.8220  139.1040 C   0  0  0  0  0  0  0  0  0  0  0  0
  191.4440  176.4930  136.6270 C   0  0  0  0  0  2  0  0  0  0  0  0
  190.0470  177.0370  136.5720 C   0  0  0  0  0  3  0  0  0  0  0  0
  190.2040  177.5550  138.9150 N   0  0  0  0  0  0  0  0  0  0  0  0
  191.3710  177.5490  141.4550 N   0  0  0  0  0  2  0  0  0  0  0  0
  190.3180  175.7300  142.4660 O   0  0  0  0  0  0  0  0  0  0  0  0
  190.5590  176.9650  142.4720 C   0  0  0  0  0  0  0  0  0  0  0  0
  189.9620  177.8280  143.5250 C   0  0  0  0  0  2  0  0  0  0  0  0
  189.0780  177.0660  144.2990 O   0  0  0  0  0  0  0  0  0  0  0  0
  188.8790  177.8170  145.4580 C   0  0  0  0  0  2  0  0  0  0  0  0
  189.3640  177.0260  146.6630 C   0  0  2  0  0  3  0  0  0  0  0  0
  187.9920  178.2880  148.3110 C   0  0  0  0  0  2  0  0  0  0  0  0
  188.2720  176.9210  147.7120 C   0  0  2  0  0  3  0  0  0  0  0  0
  189.4020  177.9100  147.8990 C   0  0  1  0  0  3  0  0  0  0  0  0
  185.2630  179.0930  138.4200 N   0  0  0  0  0  2  0  0  0  0  0  0
  184.7940  179.0240  139.7420 N   0  0  0  0  0  2  0  0  0  0  0  0
  182.9320  178.9620  141.3620 C   0  0  0  0  0  0  0  0  0  0  0  0
  183.4010  178.8080  144.9730 C   0  0  0  0  0  3  0  0  0  0  0  0
  180.6500  179.0360  140.6040 N   0  0  0  0  0  0  0  0  0  0  0  0
  181.5630  178.9560  141.6050 C   0  0  0  0  0  0  0  0  0  0  0  0
  183.6740  178.9140  142.5530 C   0  0  0  0  0  0  0  0  0  0  0  0
  185.0670  178.9200  142.6840 C   0  0  0  0  0  3  0  0  0  0  0  0
  181.0720  179.1040  139.3090 C   0  0  0  0  0  3  0  0  0  0  0  0
  183.3960  179.0230  140.0380 C   0  0  0  0  0  0  0  0  0  0  0  0
  182.4440  179.0940  139.0040 C   0  0  0  0  0  3  0  0  0  0  0  0
  181.2310  178.8860  143.2580 S   0  0  0  0  0  0  0  0  0  0  0  0
  185.6250  178.8700  143.9710 C   0  0  0  0  0  3  0  0  0  0  0  0
  182.8640  178.8680  143.6880 C   0  0  0  0  0  0  0  0  0  0  0  0
  185.3540  178.7580  146.3440 F   0  0  0  0  0  0  0  0  0  0  0  0
  184.7980  178.8090  145.1100 C   0  0  0  0  0  0  0  0  0  0  0  0
  1  9  1  6  0  0  0
  1  4  1  0  0  0  0
  2 24  1  6  0  0  0
  2  4  1  0  0  0  0
  3  2  1  0  0  0  0
  5  3  1  0  0  0  0
  5  1  1  0  0  0  0
  6 14  1  0  0  0  0
  7  8  1  1  0  0  0
  7 10  1  0  0  0  0
  9 13  1  0  0  0  0
 10  6  1  0  0  0  0
 11  7  1  0  0  0  0
 12 11  1  0  0  0  0
 12  9  2  0  0  0  0
 13 10  2  0  0  0  0
 14 16  1  0  0  0  0
 15 16  2  0  0  0  0
 16 17  1  0  0  0  0
 17 18  1  0  0  0  0
 18 19  1  0  0  0  0
 20 19  1  6  0  0  0
 20 22  1  0  0  0  0
 20 23  1  0  0  0  0
 22 23  1  0  0  0  0
 22 21  1  6  0  0  0
 23 21  1  6  0  0  0
 24 25  1  0  0  0  0
 25 33  1  0  0  0  0
 26 29  1  0  0  0  0
 26 30  1  0  0  0  0
 27 39  1  0  0  0  0
 28 29  2  0  0  0  0
 29 35  1  0  0  0  0
 30 31  2  0  0  0  0
 30 37  1  0  0  0  0
 31 36  1  0  0  0  0
 32 28  1  0  0  0  0
 33 26  2  0  0  0  0
 34 32  2  0  0  0  0
 34 33  1  0  0  0  0
 35 37  1  0  0  0  0
 36 39  2  0  0  0  0
 37 27  2  0  0  0  0
 39 38  1  0  0  0  0
M  END
>  <MODEL>
6

>  <REMARK>
 VINA RESULT:      -9.1      2.834      7.022
  Name = 
  9 active torsions:
  status: ('A' for Active; 'I' for Inactive)
    1  A    between atoms: O_1  and  C_35
    2  A    between atoms: O_1  and  C_37
    3  A    between atoms: N_2  and  N_16
    4  A    between atoms: C_3  and  C_20
    5  A    between atoms: C_5  and  C_35
    6  A    between atoms: N_6  and  C_7
    7  A    between atoms: N_6  and  N_11
    8  A    between atoms: N_11  and  C_28
    9  A    between atoms: C_23  and  C_37
                            x       y       z     vdW  Elec       q    Type
                         _______ _______ _______ _____ _____    ______ ____

>  <TORSDO>
F 9

$$$$
=
 OpenBabel10222419353D

 39 45  0  0  1  0  0  0  0  0999 V2000
  186.4810  177.5790  145.5320 C   0  0  2  0  0  3  0  0  0  0  0  0
  185.1240  179.1480  144.3030 C   0  0  1  0  0  3  0  0  0  0  0  0
  185.0580  179.5430  145.7690 C   0  0  0  0  0  2  0  0  0  0  0  0
  186.3410  178.2510  144.1810 C   0  0  0  0  0  2  0  0  0  0  0  0
  185.9550  178.5840  146.5410 C   0  0  0  0  0  2  0  0  0  0  0  0
  190.9100  176.5020  143.7250 N   0  0  0  0  0  2  0  0  0  0  0  0
  190.7120  177.0460  146.2070 C   0  0  1  0  0  3  0  0  0  0  0  0
  192.0130  176.2860  146.3940 C   0  0  0  0  0  1  0  0  0  0  0  0
  187.9000  177.1650  145.7980 C   0  0  0  0  0  0  0  0  0  0  0  0
  190.0830  176.7500  144.8620 C   0  0  0  0  0  0  0  0  0  0  0  0
  189.7540  176.6810  147.3440 C   0  0  0  0  0  2  0  0  0  0  0  0
  188.3590  177.1540  147.0560 C   0  0  0  0  0  3  0  0  0  0  0  0
  188.7910  176.8530  144.7090 N   0  0  0  0  0  0  0  0  0  0  0  0
  190.3510  176.3250  142.4510 N   0  0  0  0  0  2  0  0  0  0  0  0
  192.0550  177.5040  141.3800 O   0  0  0  0  0  0  0  0  0  0  0  0
  190.9650  176.8810  141.2900 C   0  0  0  0  0  0  0  0  0  0  0  0
  190.2940  176.7560  139.9690 C   0  0  0  0  0  2  0  0  0  0  0  0
  189.2730  177.7100  139.8790 O   0  0  0  0  0  0  0  0  0  0  0  0
  188.9660  177.7790  138.5200 C   0  0  0  0  0  2  0  0  0  0  0  0
  187.4590  177.8770  138.3450 C   0  0  2  0  0  3  0  0  0  0  0  0
  187.5080  177.5380  135.8820 C   0  0  0  0  0  2  0  0  0  0  0  0
  186.9910  176.9950  137.2020 C   0  0  2  0  0  3  0  0  0  0  0  0
  187.1180  178.4900  136.9970 C   0  0  1  0  0  3  0  0  0  0  0  0
  183.9180  178.4070  143.9600 N   0  0  0  0  0  2  0  0  0  0  0  0
  183.0580  179.2850  143.2810 N   0  0  0  0  0  2  0  0  0  0  0  0
  181.2740  178.5580  141.7370 C   0  0  0  0  0  0  0  0  0  0  0  0
  181.8290  177.8270  138.2100 C   0  0  0  0  0  3  0  0  0  0  0  0
  179.0210  178.2570  142.5280 N   0  0  0  0  0  0  0  0  0  0  0  0
  179.9370  178.2390  141.5260 C   0  0  0  0  0  0  0  0  0  0  0  0
  182.0350  178.4250  140.5650 C   0  0  0  0  0  0  0  0  0  0  0  0
  183.4080  178.6490  140.4150 C   0  0  0  0  0  3  0  0  0  0  0  0
  179.4050  178.6180  143.7860 C   0  0  0  0  0  3  0  0  0  0  0  0
  181.6960  178.9420  143.0200 C   0  0  0  0  0  0  0  0  0  0  0  0
  180.7390  178.9700  144.0520 C   0  0  0  0  0  3  0  0  0  0  0  0
  179.6550  177.8000  139.9210 S   0  0  0  0  0  0  0  0  0  0  0  0
  183.9900  178.4590  139.1520 C   0  0  0  0  0  3  0  0  0  0  0  0
  181.2700  178.0120  139.4730 C   0  0  0  0  0  0  0  0  0  0  0  0
  183.7840  177.8790  136.8420 F   0  0  0  0  0  0  0  0  0  0  0  0
  183.2050  178.0550  138.0540 C   0  0  0  0  0  0  0  0  0  0  0  0
  1  9  1  1  0  0  0
  1  5  1  0  0  0  0
  2 24  1  1  0  0  0
  2  3  1  0  0  0  0
  3  5  1  0  0  0  0
  4  2  1  0  0  0  0
  4  1  1  0  0  0  0
  6 10  1  0  0  0  0
  7  8  1  1  0  0  0
  7 11  1  0  0  0  0
  9 12  2  0  0  0  0
 10  7  1  0  0  0  0
 12 11  1  0  0  0  0
 13 10  2  0  0  0  0
 13  9  1  0  0  0  0
 14  6  1  0  0  0  0
 16 15  2  0  0  0  0
 16 14  1  0  0  0  0
 17 16  1  0  0  0  0
 18 17  1  0  0  0  0
 19 18  1  0  0  0  0
 20 19  1  6  0  0  0
 22 21  1  6  0  0  0
 22 20  1  0  0  0  0
 23 21  1  6  0  0  0
 23 22  1  0  0  0  0
 23 20  1  0  0  0  0
 25 24  1  0  0  0  0
 26 33  1  0  0  0  0
 27 37  1  0  0  0  0
 28 32  2  0  0  0  0
 29 26  2  0  0  0  0
 29 28  1  0  0  0  0
 30 26  1  0  0  0  0
 31 30  1  0  0  0  0
 32 34  1  0  0  0  0
 33 25  1  0  0  0  0
 33 34  2  0  0  0  0
 35 29  1  0  0  0  0
 36 31  2  0  0  0  0
 37 35  1  0  0  0  0
 37 30  2  0  0  0  0
 38 39  1  0  0  0  0
 39 27  2  0  0  0  0
 39 36  1  0  0  0  0
M  END
>  <MODEL>
7

>  <REMARK>
 VINA RESULT:      -9.0      3.447      8.851
  Name = 
  9 active torsions:
  status: ('A' for Active; 'I' for Inactive)
    1  A    between atoms: O_1  and  C_35
    2  A    between atoms: O_1  and  C_37
    3  A    between atoms: N_2  and  N_16
    4  A    between atoms: C_3  and  C_20
    5  A    between atoms: C_5  and  C_35
    6  A    between atoms: N_6  and  C_7
    7  A    between atoms: N_6  and  N_11
    8  A    between atoms: N_11  and  C_28
    9  A    between atoms: C_23  and  C_37
                            x       y       z     vdW  Elec       q    Type
                         _______ _______ _______ _____ _____    ______ ____

>  <TORSDO>
F 9

$$$$
=
 OpenBabel10222419353D

 39 45  0  0  1  0  0  0  0  0999 V2000
  190.0720  178.0690  142.0510 C   0  0  2  0  0  3  0  0  0  0  0  0
  189.0220  177.6230  139.9270 C   0  0  1  0  0  3  0  0  0  0  0  0
  190.2160  176.6920  140.0450 C   0  0  0  0  0  2  0  0  0  0  0  0
  188.7340  178.0940  141.3400 C   0  0  0  0  0  2  0  0  0  0  0  0
  190.8520  176.9360  141.4080 C   0  0  0  0  0  2  0  0  0  0  0  0
  187.0400  177.4630  145.8570 N   0  0  0  0  0  2  0  0  0  0  0  0
  189.5120  176.9290  146.1770 C   0  0  1  0  0  3  0  0  0  0  0  0
  189.2800  177.1310  147.6640 C   0  0  0  0  0  1  0  0  0  0  0  0
  189.9060  177.9020  143.5350 C   0  0  0  0  0  0  0  0  0  0  0  0
  188.3770  177.4990  145.3540 C   0  0  0  0  0  0  0  0  0  0  0  0
  190.8420  177.5810  145.7880 C   0  0  0  0  0  2  0  0  0  0  0  0
  190.9840  177.6850  144.2980 C   0  0  0  0  0  3  0  0  0  0  0  0
  188.5940  177.8990  144.1310 N   0  0  0  0  0  0  0  0  0  0  0  0
  185.9620  177.8930  145.0710 N   0  0  0  0  0  2  0  0  0  0  0  0
  184.9310  179.0100  146.8400 O   0  0  0  0  0  0  0  0  0  0  0  0
  184.8980  178.6600  145.6320 C   0  0  0  0  0  0  0  0  0  0  0  0
  183.7240  179.0160  144.7920 C   0  0  0  0  0  2  0  0  0  0  0  0
  184.0160  178.7410  143.4500 O   0  0  0  0  0  0  0  0  0  0  0  0
  182.7720  178.6160  142.8320 C   0  0  0  0  0  2  0  0  0  0  0  0
  181.7170  179.3240  143.6660 C   0  0  2  0  0  3  0  0  0  0  0  0
  179.7920  178.4860  142.3320 C   0  0  0  0  0  2  0  0  0  0  0  0
  180.4330  178.5160  143.7080 C   0  0  2  0  0  3  0  0  0  0  0  0
  180.5330  179.7240  142.8010 C   0  0  1  0  0  3  0  0  0  0  0  0
  189.3890  178.7550  139.0860 N   0  0  0  0  0  2  0  0  0  0  0  0
  188.3120  179.0100  138.2230 N   0  0  0  0  0  2  0  0  0  0  0  0
  186.7290  177.6210  136.9340 C   0  0  0  0  0  0  0  0  0  0  0  0
  183.2170  177.2140  137.8170 C   0  0  0  0  0  3  0  0  0  0  0  0
  187.4520  176.4640  134.9520 N   0  0  0  0  0  0  0  0  0  0  0  0
  186.4880  176.7780  135.8540 C   0  0  0  0  0  0  0  0  0  0  0  0
  185.5720  177.8330  137.6990 C   0  0  0  0  0  0  0  0  0  0  0  0
  185.4450  178.6310  138.8420 C   0  0  0  0  0  3  0  0  0  0  0  0
  188.7110  176.9650  135.1070 C   0  0  0  0  0  3  0  0  0  0  0  0
  188.0170  178.1460  137.1230 C   0  0  0  0  0  0  0  0  0  0  0  0
  189.0160  177.8060  136.1910 C   0  0  0  0  0  3  0  0  0  0  0  0
  184.8790  176.2730  135.8150 S   0  0  0  0  0  0  0  0  0  0  0  0
  184.1940  178.7180  139.4710 C   0  0  0  0  0  3  0  0  0  0  0  0
  184.4640  177.1470  137.1990 C   0  0  0  0  0  0  0  0  0  0  0  0
  181.8860  178.1030  139.5870 F   0  0  0  0  0  0  0  0  0  0  0  0
  183.0860  178.0100  138.9650 C   0  0  0  0  0  0  0  0  0  0  0  0
  1  9  1  1  0  0  0
  2 24  1  6  0  0  0
  2  3  1  0  0  0  0
  2  4  1  0  0  0  0
  3  5  1  0  0  0  0
  4  1  1  0  0  0  0
  5  1  1  0  0  0  0
  7  8  1  1  0  0  0
  9 13  1  0  0  0  0
  9 12  2  0  0  0  0
 10  6  1  0  0  0  0
 10  7  1  0  0  0  0
 11  7  1  0  0  0  0
 12 11  1  0  0  0  0
 13 10  2  0  0  0  0
 14 16  1  0  0  0  0
 14  6  1  0  0  0  0
 16 15  2  0  0  0  0
 17 16  1  0  0  0  0
 18 17  1  0  0  0  0
 19 18  1  0  0  0  0
 20 19  1  6  0  0  0
 20 22  1  0  0  0  0
 22 21  1  6  0  0  0
 23 21  1  6  0  0  0
 23 20  1  0  0  0  0
 23 22  1  0  0  0  0
 25 24  1  0  0  0  0
 26 33  1  0  0  0  0
 26 30  1  0  0  0  0
 27 39  1  0  0  0  0
 28 32  2  0  0  0  0
 28 29  1  0  0  0  0
 29 26  2  0  0  0  0
 30 31  2  0  0  0  0
 31 36  1  0  0  0  0
 32 34  1  0  0  0  0
 33 25  1  0  0  0  0
 34 33  2  0  0  0  0
 35 29  1  0  0  0  0
 35 37  1  0  0  0  0
 37 30  1  0  0  0  0
 37 27  2  0  0  0  0
 39 36  2  0  0  0  0
 39 38  1  0  0  0  0
M  END
>  <MODEL>
8

>  <REMARK>
 VINA RESULT:      -8.9      3.044      7.423
  Name = 
  9 active torsions:
  status: ('A' for Active; 'I' for Inactive)
    1  A    between atoms: O_1  and  C_35
    2  A    between atoms: O_1  and  C_37
    3  A    between atoms: N_2  and  N_16
    4  A    between atoms: C_3  and  C_20
    5  A    between atoms: C_5  and  C_35
    6  A    between atoms: N_6  and  C_7
    7  A    between atoms: N_6  and  N_11
    8  A    between atoms: N_11  and  C_28
    9  A    between atoms: C_23  and  C_37
                            x       y       z     vdW  Elec       q    Type
                         _______ _______ _______ _____ _____    ______ ____

>  <TORSDO>
F 9

$$$$
=
 OpenBabel10222419353D

 39 45  0  0  1  0  0  0  0  0999 V2000
  189.2500  177.0190  141.4260 C   0  0  2  0  0  3  0  0  0  0  0  0
  189.4880  177.7580  139.1430 C   0  0  1  0  0  3  0  0  0  0  0  0
  188.4010  178.6060  139.7830 C   0  0  0  0  0  2  0  0  0  0  0  0
  190.2550  177.1460  140.3000 C   0  0  0  0  0  2  0  0  0  0  0  0
  188.2840  178.1760  141.2400 C   0  0  0  0  0  2  0  0  0  0  0  0
  188.7970  177.1470  146.3070 N   0  0  0  0  0  2  0  0  0  0  0  0
  191.0130  176.3730  145.3140 C   0  0  1  0  0  3  0  0  0  0  0  0
  191.6460  176.7490  146.6410 C   0  0  0  0  0  1  0  0  0  0  0  0
  189.9230  177.0240  142.7690 C   0  0  0  0  0  0  0  0  0  0  0  0
  189.6350  176.9810  145.1620 C   0  0  0  0  0  0  0  0  0  0  0  0
  191.9330  176.8280  144.1770 C   0  0  0  0  0  2  0  0  0  0  0  0
  191.2340  176.7650  142.8500 C   0  0  0  0  0  3  0  0  0  0  0  0
  189.1580  177.2290  143.9730 N   0  0  0  0  0  0  0  0  0  0  0  0
  187.4820  177.6150  146.1760 N   0  0  0  0  0  2  0  0  0  0  0  0
  187.3760  178.3670  148.3810 O   0  0  0  0  0  0  0  0  0  0  0  0
  186.7940  178.2070  147.2770 C   0  0  0  0  0  0  0  0  0  0  0  0
  185.3680  178.6030  147.1290 C   0  0  0  0  0  2  0  0  0  0  0  0
  185.2260  179.3940  145.9830 O   0  0  0  0  0  0  0  0  0  0  0  0
  184.2100  178.7820  145.2490 C   0  0  0  0  0  2  0  0  0  0  0  0
  183.8720  179.6390  144.0390 C   0  0  2  0  0  3  0  0  0  0  0  0
  184.7290  178.0020  142.3740 C   0  0  0  0  0  2  0  0  0  0  0  0
  183.5090  178.7690  142.8490 C   0  0  2  0  0  3  0  0  0  0  0  0
  184.8800  179.4070  142.9250 C   0  0  1  0  0  3  0  0  0  0  0  0
  188.8610  176.7120  138.3470 N   0  0  0  0  0  2  0  0  0  0  0  0
  187.6690  177.2350  137.8210 N   0  0  0  0  0  2  0  0  0  0  0  0
  185.4410  176.6710  136.9170 C   0  0  0  0  0  0  0  0  0  0  0  0
  182.3710  178.3640  137.9090 C   0  0  0  0  0  3  0  0  0  0  0  0
  185.1980  174.9420  135.2610 N   0  0  0  0  0  0  0  0  0  0  0  0
  184.6610  175.8890  136.0720 C   0  0  0  0  0  0  0  0  0  0  0  0
  184.6710  177.6080  137.6230 C   0  0  0  0  0  0  0  0  0  0  0  0
  185.1250  178.5590  138.5430 C   0  0  0  0  0  3  0  0  0  0  0  0
  186.5430  174.7220  135.2790 C   0  0  0  0  0  3  0  0  0  0  0  0
  186.8290  176.4610  136.9630 C   0  0  0  0  0  0  0  0  0  0  0  0
  187.3780  175.4690  136.1280 C   0  0  0  0  0  3  0  0  0  0  0  0
  183.0310  176.3150  136.1710 S   0  0  0  0  0  0  0  0  0  0  0  0
  184.1920  179.4160  139.1460 C   0  0  0  0  0  3  0  0  0  0  0  0
  183.3120  177.5280  137.3120 C   0  0  0  0  0  0  0  0  0  0  0  0
  181.9340  180.1500  139.4300 F   0  0  0  0  0  0  0  0  0  0  0  0
  182.8210  179.3170  138.8350 C   0  0  0  0  0  0  0  0  0  0  0  0
  1  9  1  1  0  0  0
  2 24  1  6  0  0  0
  2  3  1  0  0  0  0
  2  4  1  0  0  0  0
  3  5  1  0  0  0  0
  4  1  1  0  0  0  0
  5  1  1  0  0  0  0
  7  8  1  1  0  0  0
  9 12  2  0  0  0  0
  9 13  1  0  0  0  0
 10  7  1  0  0  0  0
 10  6  1  0  0  0  0
 11  7  1  0  0  0  0
 12 11  1  0  0  0  0
 13 10  2  0  0  0  0
 14  6  1  0  0  0  0
 14 16  1  0  0  0  0
 16 15  2  0  0  0  0
 17 16  1  0  0  0  0
 18 17  1  0  0  0  0
 19 18  1  0  0  0  0
 20 19  1  1  0  0  0
 22 21  1  1  0  0  0
 22 23  1  0  0  0  0
 22 20  1  0  0  0  0
 23 21  1  1  0  0  0
 23 20  1  0  0  0  0
 25 24  1  0  0  0  0
 26 33  1  0  0  0  0
 26 30  1  0  0  0  0
 27 39  1  0  0  0  0
 28 32  2  0  0  0  0
 28 29  1  0  0  0  0
 29 35  1  0  0  0  0
 29 26  2  0  0  0  0
 30 31  2  0  0  0  0
 31 36  1  0  0  0  0
 32 34  1  0  0  0  0
 33 25  1  0  0  0  0
 34 33  2  0  0  0  0
 35 37  1  0  0  0  0
 37 30  1  0  0  0  0
 37 27  2  0  0  0  0
 39 36  2  0  0  0  0
 39 38  1  0  0  0  0
M  END
>  <MODEL>
9

>  <REMARK>
 VINA RESULT:      -8.7      3.461      7.919
  Name = 
  9 active torsions:
  status: ('A' for Active; 'I' for Inactive)
    1  A    between atoms: O_1  and  C_35
    2  A    between atoms: O_1  and  C_37
    3  A    between atoms: N_2  and  N_16
    4  A    between atoms: C_3  and  C_20
    5  A    between atoms: C_5  and  C_35
    6  A    between atoms: N_6  and  C_7
    7  A    between atoms: N_6  and  N_11
    8  A    between atoms: N_11  and  C_28
    9  A    between atoms: C_23  and  C_37
                            x       y       z     vdW  Elec       q    Type
                         _______ _______ _______ _____ _____    ______ ____

>  <TORSDO>
F 9

$$$$
