=
 OpenBabel10222416113D

 26 29  0  0  1  0  0  0  0  0999 V2000
  184.7260  179.6200  140.0860 O   0  0  0  0  0  0  0  0  0  0  0  0
  185.3110  178.5090  144.7450 N   0  0  0  0  0  2  0  0  0  0  0  0
  187.9000  177.6350  142.2560 C   0  0  0  0  0  3  0  0  0  0  0  0
  183.0120  178.6050  141.8450 C   0  0  0  0  0  3  0  0  0  0  0  0
  181.7790  178.7610  142.4840 C   0  0  0  0  0  3  0  0  0  0  0  0
  186.4140  177.7190  144.2110 C   0  0  1  0  0  3  0  0  0  0  0  0
  184.2140  178.5890  142.5790 C   0  0  0  0  0  0  0  0  0  0  0  0
  184.1320  178.6670  143.9770 C   0  0  0  0  0  0  0  0  0  0  0  0
  186.7410  178.7940  139.7420 N   0  0  0  0  0  2  0  0  0  0  0  0
  188.4730  177.6950  141.0080 C   0  0  0  0  0  3  0  0  0  0  0  0
  182.9030  178.8440  144.6200 C   0  0  0  0  0  3  0  0  0  0  0  0
  181.7250  178.8950  143.8710 C   0  0  0  0  0  3  0  0  0  0  0  0
  187.9550  178.2170  139.8490 C   0  0  0  0  0  0  0  0  0  0  0  0
  186.6450  178.0120  142.7220 C   0  0  2  0  0  3  0  0  0  0  0  0
  185.5680  178.4880  141.9150 C   0  0  2  0  0  3  0  0  0  0  0  0
  188.6810  178.1740  138.8230 O   0  0  0  0  0  0  0  0  0  0  0  0
  185.6860  178.9670  140.5740 C   0  0  0  0  0  0  0  0  0  0  0  0
  187.3650  177.6760  146.5960 C   0  0  0  0  0  2  0  0  0  0  0  0
  188.6300  177.8780  147.4230 C   0  0  0  0  0  2  0  0  0  0  0  0
  190.0060  177.0480  145.5060 C   0  0  0  0  0  2  0  0  0  0  0  0
  188.7340  176.8490  144.6860 C   0  0  0  0  0  2  0  0  0  0  0  0
  189.7040  176.8800  146.9920 C   0  0  1  0  0  3  0  0  0  0  0  0
  187.6690  177.8680  145.1030 C   0  0  1  0  0  3  0  0  0  0  0  0
  190.9770  177.1020  147.7900 C   0  0  0  0  0  2  0  0  0  0  0  0
  192.0960  176.4480  147.1340 N   0  0  0  0  0  2  0  0  0  0  0  0
  192.7790  175.6720  148.1530 C   0  0  0  0  0  1  0  0  0  0  0  0
  1 17  2  0  0  0  0
  4  5  2  0  0  0  0
  4  7  1  0  0  0  0
  5 12  1  0  0  0  0
  6  2  1  1  0  0  0
  6 23  1  0  0  0  0
  7  8  2  0  0  0  0
  8 11  1  0  0  0  0
  8  2  1  0  0  0  0
  9 13  1  0  0  0  0
  9 17  1  0  0  0  0
 10  3  2  0  0  0  0
 12 11  2  0  0  0  0
 13 10  1  0  0  0  0
 14  3  1  6  0  0  0
 14  6  1  0  0  0  0
 15 17  1  1  0  0  0
 15  7  1  0  0  0  0
 15 14  1  0  0  0  0
 16 13  2  0  0  0  0
 18 19  1  0  0  0  0
 20 22  1  0  0  0  0
 21 20  1  0  0  0  0
 22 19  1  0  0  0  0
 22 24  1  1  0  0  0
 23 21  1  6  0  0  0
 23 18  1  0  0  0  0
 25 24  1  0  0  0  0
 25 26  1  0  0  0  0
M  END
>  <MODEL>
1

>  <REMARK>
 VINA RESULT:     -10.8      0.000      0.000
  Name = 
  3 active torsions:
  status: ('A' for Active; 'I' for Inactive)
    1  A    between atoms: C_9  and  C_22
    2  A    between atoms: C_10  and  N_11
    3  A    between atoms: C_10  and  C_19
                            x       y       z     vdW  Elec       q    Type
                         _______ _______ _______ _____ _____    ______ ____

>  <TORSDO>
F 3

$$$$
=
 OpenBabel10222416113D

 26 29  0  0  1  0  0  0  0  0999 V2000
  188.0690  176.6990  147.9790 O   0  0  0  0  0  0  0  0  0  0  0  0
  187.3570  177.6460  143.3020 N   0  0  0  0  0  2  0  0  0  0  0  0
  190.7770  177.2450  144.6480 C   0  0  0  0  0  3  0  0  0  0  0  0
  186.4160  178.4130  146.7990 C   0  0  0  0  0  3  0  0  0  0  0  0
  185.0880  178.8170  146.6380 C   0  0  0  0  0  3  0  0  0  0  0  0
  188.7970  177.8740  143.3350 C   0  0  1  0  0  3  0  0  0  0  0  0
  187.1720  177.9490  145.7050 C   0  0  0  0  0  0  0  0  0  0  0  0
  186.5750  177.9700  144.4360 C   0  0  0  0  0  0  0  0  0  0  0  0
  190.2230  176.5830  147.5220 N   0  0  0  0  0  2  0  0  0  0  0  0
  191.6780  176.8980  145.6270 C   0  0  0  0  0  3  0  0  0  0  0  0
  185.2400  178.3530  144.2730 C   0  0  0  0  0  3  0  0  0  0  0  0
  184.4950  178.7730  145.3760 C   0  0  0  0  0  3  0  0  0  0  0  0
  191.4420  176.5980  146.9450 C   0  0  0  0  0  0  0  0  0  0  0  0
  189.4020  177.4510  144.6820 C   0  0  2  0  0  3  0  0  0  0  0  0
  188.5880  177.4420  145.8550 C   0  0  2  0  0  3  0  0  0  0  0  0
  192.4350  176.2890  147.6520 O   0  0  0  0  0  0  0  0  0  0  0  0
  188.9700  176.9050  147.1230 C   0  0  0  0  0  0  0  0  0  0  0  0
  188.6630  177.4460  140.8070 C   0  0  0  0  0  2  0  0  0  0  0  0
  189.3600  176.7680  139.6330 C   0  0  0  0  0  2  0  0  0  0  0  0
  191.5750  177.1740  140.7220 C   0  0  0  0  0  2  0  0  0  0  0  0
  190.8680  177.8520  141.8930 C   0  0  0  0  0  2  0  0  0  0  0  0
  190.7600  177.3510  139.4450 C   0  0  1  0  0  3  0  0  0  0  0  0
  189.4750  177.2460  142.0950 C   0  0  1  0  0  3  0  0  0  0  0  0
  191.4690  176.6540  138.2980 C   0  0  0  0  0  2  0  0  0  0  0  0
  191.1390  175.2390  138.2960 N   0  0  0  0  0  2  0  0  0  0  0  0
  192.1800  174.5690  137.5380 C   0  0  0  0  0  1  0  0  0  0  0  0
  2  8  1  0  0  0  0
  3 10  2  0  0  0  0
  5  4  1  0  0  0  0
  6  2  1  1  0  0  0
  6 14  1  0  0  0  0
  7  4  2  0  0  0  0
  8  7  1  0  0  0  0
 10 13  1  0  0  0  0
 11  8  2  0  0  0  0
 11 12  1  0  0  0  0
 12  5  2  0  0  0  0
 13  9  1  0  0  0  0
 13 16  2  0  0  0  0
 14  3  1  1  0  0  0
 14 15  1  0  0  0  0
 15  7  1  6  0  0  0
 15 17  1  0  0  0  0
 17  9  1  0  0  0  0
 17  1  2  0  0  0  0
 19 18  1  0  0  0  0
 20 21  1  0  0  0  0
 21 23  1  0  0  0  0
 22 24  1  6  0  0  0
 22 19  1  0  0  0  0
 22 20  1  0  0  0  0
 23 18  1  6  0  0  0
 23  6  1  0  0  0  0
 25 24  1  0  0  0  0
 26 25  1  0  0  0  0
M  END
>  <MODEL>
2

>  <REMARK>
 VINA RESULT:     -10.6      3.552      6.427
  Name = 
  3 active torsions:
  status: ('A' for Active; 'I' for Inactive)
    1  A    between atoms: C_9  and  C_22
    2  A    between atoms: C_10  and  N_11
    3  A    between atoms: C_10  and  C_19
                            x       y       z     vdW  Elec       q    Type
                         _______ _______ _______ _____ _____    ______ ____

>  <TORSDO>
F 3

$$$$
=
 OpenBabel10222416113D

 26 29  0  0  1  0  0  0  0  0999 V2000
  185.5690  179.6600  146.9640 O   0  0  0  0  0  0  0  0  0  0  0  0
  188.9740  177.4630  144.3450 N   0  0  0  0  0  2  0  0  0  0  0  0
  185.5040  177.7190  143.0980 C   0  0  0  0  0  3  0  0  0  0  0  0
  187.4670  177.9460  147.6910 C   0  0  0  0  0  3  0  0  0  0  0  0
  188.5700  177.7230  148.5190 C   0  0  0  0  0  3  0  0  0  0  0  0
  187.8170  177.0350  143.5680 C   0  0  1  0  0  3  0  0  0  0  0  0
  187.5960  177.9330  146.2890 C   0  0  0  0  0  0  0  0  0  0  0  0
  188.8510  177.6230  145.7470 C   0  0  0  0  0  0  0  0  0  0  0  0
  184.1880  179.2970  145.2840 N   0  0  0  0  0  2  0  0  0  0  0  0
  184.2180  178.2010  143.1370 C   0  0  0  0  0  3  0  0  0  0  0  0
  189.9620  177.4190  146.5690 C   0  0  0  0  0  3  0  0  0  0  0  0
  189.8220  177.4730  147.9570 C   0  0  0  0  0  3  0  0  0  0  0  0
  183.6000  178.9190  144.1300 C   0  0  0  0  0  0  0  0  0  0  0  0
  186.5370  177.7470  144.0280 C   0  0  2  0  0  3  0  0  0  0  0  0
  186.4370  178.2370  145.3660 C   0  0  2  0  0  3  0  0  0  0  0  0
  182.4090  179.2710  143.9320 O   0  0  0  0  0  0  0  0  0  0  0  0
  185.3890  179.0670  145.8670 C   0  0  0  0  0  0  0  0  0  0  0  0
  187.9200  178.5690  141.5120 C   0  0  0  0  0  2  0  0  0  0  0  0
  188.1800  178.6020  140.0090 C   0  0  0  0  0  2  0  0  0  0  0  0
  189.8130  176.7240  140.2590 C   0  0  0  0  0  2  0  0  0  0  0  0
  189.5460  176.6990  141.7610 C   0  0  0  0  0  2  0  0  0  0  0  0
  189.6040  178.1330  139.7120 C   0  0  1  0  0  3  0  0  0  0  0  0
  188.1100  177.1450  142.0530 C   0  0  1  0  0  3  0  0  0  0  0  0
  189.8540  178.1320  138.2150 C   0  0  0  0  0  2  0  0  0  0  0  0
  188.9600  179.0720  137.5610 N   0  0  0  0  0  2  0  0  0  0  0  0
  188.4040  178.3860  136.4090 C   0  0  0  0  0  1  0  0  0  0  0  0
  2  8  1  0  0  0  0
  3 10  2  0  0  0  0
  4  5  1  0  0  0  0
  6 14  1  0  0  0  0
  6  2  1  1  0  0  0
  7  4  2  0  0  0  0
  8  7  1  0  0  0  0
  8 11  2  0  0  0  0
  9 17  1  0  0  0  0
 10 13  1  0  0  0  0
 11 12  1  0  0  0  0
 12  5  2  0  0  0  0
 13  9  1  0  0  0  0
 14  3  1  1  0  0  0
 14 15  1  0  0  0  0
 15 17  1  6  0  0  0
 15  7  1  0  0  0  0
 16 13  2  0  0  0  0
 17  1  2  0  0  0  0
 19 18  1  0  0  0  0
 20 21  1  0  0  0  0
 21 23  1  0  0  0  0
 22 24  1  6  0  0  0
 22 19  1  0  0  0  0
 22 20  1  0  0  0  0
 23 18  1  1  0  0  0
 23  6  1  0  0  0  0
 25 24  1  0  0  0  0
 26 25  1  0  0  0  0
M  END
>  <MODEL>
3

>  <REMARK>
 VINA RESULT:     -10.5      2.506      6.681
  Name = 
  3 active torsions:
  status: ('A' for Active; 'I' for Inactive)
    1  A    between atoms: C_9  and  C_22
    2  A    between atoms: C_10  and  N_11
    3  A    between atoms: C_10  and  C_19
                            x       y       z     vdW  Elec       q    Type
                         _______ _______ _______ _____ _____    ______ ____

>  <TORSDO>
F 3

$$$$
=
 OpenBabel10222416113D

 26 29  0  0  1  0  0  0  0  0999 V2000
  187.9300  178.6930  147.5570 O   0  0  0  0  0  0  0  0  0  0  0  0
  190.1050  176.8920  143.6440 N   0  0  0  0  0  2  0  0  0  0  0  0
  186.4650  177.5330  143.6540 C   0  0  0  0  0  3  0  0  0  0  0  0
  189.7730  176.7900  147.3290 C   0  0  0  0  0  3  0  0  0  0  0  0
  191.0500  176.3640  147.7040 C   0  0  0  0  0  3  0  0  0  0  0  0
  188.7260  176.6720  143.2250 C   0  0  1  0  0  3  0  0  0  0  0  0
  189.4570  177.0410  145.9800 C   0  0  0  0  0  0  0  0  0  0  0  0
  190.4420  176.7850  145.0150 C   0  0  0  0  0  0  0  0  0  0  0  0
  186.0650  178.7190  146.3810 N   0  0  0  0  0  2  0  0  0  0  0  0
  185.3120  178.0550  144.1900 C   0  0  0  0  0  3  0  0  0  0  0  0
  191.7270  176.3800  145.3860 C   0  0  0  0  0  3  0  0  0  0  0  0
  192.0320  176.1730  146.7320 C   0  0  0  0  0  3  0  0  0  0  0  0
  185.1110  178.5960  145.4360 C   0  0  0  0  0  0  0  0  0  0  0  0
  187.7330  177.3380  144.1890 C   0  0  2  0  0  3  0  0  0  0  0  0
  188.1060  177.5660  145.5490 C   0  0  2  0  0  3  0  0  0  0  0  0
  183.9610  179.0310  145.6970 O   0  0  0  0  0  0  0  0  0  0  0  0
  187.3570  178.3300  146.4950 C   0  0  0  0  0  0  0  0  0  0  0  0
  188.2990  178.5600  141.5390 C   0  0  0  0  0  2  0  0  0  0  0  0
  188.0820  178.8680  140.0610 C   0  0  0  0  0  2  0  0  0  0  0  0
  189.5700  176.9520  139.4510 C   0  0  0  0  0  2  0  0  0  0  0  0
  189.7810  176.6520  140.9330 C   0  0  0  0  0  2  0  0  0  0  0  0
  189.3050  178.4410  139.2500 C   0  0  1  0  0  3  0  0  0  0  0  0
  188.5420  177.0580  141.7380 C   0  0  1  0  0  3  0  0  0  0  0  0
  189.0780  178.7150  137.7750 C   0  0  0  0  0  2  0  0  0  0  0  0
  187.6580  178.8830  137.5130 N   0  0  0  0  0  2  0  0  0  0  0  0
  187.3050  177.9120  136.4940 C   0  0  0  0  0  1  0  0  0  0  0  0
  2  8  1  0  0  0  0
  3 10  2  0  0  0  0
  4  5  1  0  0  0  0
  6  2  1  1  0  0  0
  6 14  1  0  0  0  0
  7  4  2  0  0  0  0
  8 11  2  0  0  0  0
  8  7  1  0  0  0  0
  9 17  1  0  0  0  0
 10 13  1  0  0  0  0
 11 12  1  0  0  0  0
 12  5  2  0  0  0  0
 13 16  2  0  0  0  0
 13  9  1  0  0  0  0
 14  3  1  1  0  0  0
 14 15  1  0  0  0  0
 15  7  1  6  0  0  0
 15 17  1  0  0  0  0
 17  1  2  0  0  0  0
 18 23  1  0  0  0  0
 19 18  1  0  0  0  0
 20 21  1  0  0  0  0
 22 24  1  6  0  0  0
 22 20  1  0  0  0  0
 22 19  1  0  0  0  0
 23 21  1  6  0  0  0
 23  6  1  0  0  0  0
 25 24  1  0  0  0  0
 26 25  1  0  0  0  0
M  END
>  <MODEL>
4

>  <REMARK>
 VINA RESULT:      -9.9      2.800      7.438
  Name = 
  3 active torsions:
  status: ('A' for Active; 'I' for Inactive)
    1  A    between atoms: C_9  and  C_22
    2  A    between atoms: C_10  and  N_11
    3  A    between atoms: C_10  and  C_19
                            x       y       z     vdW  Elec       q    Type
                         _______ _______ _______ _____ _____    ______ ____

>  <TORSDO>
F 3

$$$$
=
 OpenBabel10222416113D

 26 29  0  0  1  0  0  0  0  0999 V2000
  191.0710  175.8840  142.9860 O   0  0  0  0  0  0  0  0  0  0  0  0
  187.3210  177.4420  145.5930 N   0  0  0  0  0  2  0  0  0  0  0  0
  187.5250  178.1470  141.9700 C   0  0  0  0  0  3  0  0  0  0  0  0
  190.9920  177.0150  145.3910 C   0  0  0  0  0  3  0  0  0  0  0  0
  191.3230  176.8860  146.7430 C   0  0  0  0  0  3  0  0  0  0  0  0
  187.0530  178.2070  144.3810 C   0  0  1  0  0  3  0  0  0  0  0  0
  189.6500  177.1310  144.9800 C   0  0  0  0  0  0  0  0  0  0  0  0
  188.6600  177.1820  145.9710 C   0  0  0  0  0  0  0  0  0  0  0  0
  190.0590  176.7280  141.2180 N   0  0  0  0  0  2  0  0  0  0  0  0
  188.0650  177.9850  140.7170 C   0  0  0  0  0  3  0  0  0  0  0  0
  188.9830  177.0330  147.3230 C   0  0  0  0  0  3  0  0  0  0  0  0
  190.3170  176.8810  147.7080 C   0  0  0  0  0  3  0  0  0  0  0  0
  189.2240  177.3440  140.3570 C   0  0  0  0  0  0  0  0  0  0  0  0
  187.9790  177.7820  143.2330 C   0  0  2  0  0  3  0  0  0  0  0  0
  189.2530  177.2040  143.5230 C   0  0  2  0  0  3  0  0  0  0  0  0
  189.5080  177.3100  139.1320 O   0  0  0  0  0  0  0  0  0  0  0  0
  190.1270  176.6050  142.5650 C   0  0  0  0  0  0  0  0  0  0  0  0
  184.6640  178.6810  145.1930 C   0  0  0  0  0  2  0  0  0  0  0  0
  183.1900  178.5830  144.8140 C   0  0  0  0  0  2  0  0  0  0  0  0
  183.7940  178.9350  142.4120 C   0  0  0  0  0  2  0  0  0  0  0  0
  185.2660  179.0320  142.8020 C   0  0  0  0  0  2  0  0  0  0  0  0
  182.9140  179.4160  143.5620 C   0  0  1  0  0  3  0  0  0  0  0  0
  185.5440  178.1760  144.0410 C   0  0  1  0  0  3  0  0  0  0  0  0
  181.4550  179.2930  143.1620 C   0  0  0  0  0  2  0  0  0  0  0  0
  180.7380  178.4890  144.1370 N   0  0  0  0  0  2  0  0  0  0  0  0
  179.3550  178.9270  144.1020 C   0  0  0  0  0  1  0  0  0  0  0  0
  2  8  1  0  0  0  0
  4  5  1  0  0  0  0
  5 12  2  0  0  0  0
  6  2  1  1  0  0  0
  7  4  2  0  0  0  0
  7  8  1  0  0  0  0
  8 11  2  0  0  0  0
  9 17  1  0  0  0  0
 10  3  2  0  0  0  0
 11 12  1  0  0  0  0
 13 10  1  0  0  0  0
 13  9  1  0  0  0  0
 14  3  1  6  0  0  0
 14 15  1  0  0  0  0
 14  6  1  0  0  0  0
 15 17  1  1  0  0  0
 15  7  1  0  0  0  0
 16 13  2  0  0  0  0
 17  1  2  0  0  0  0
 19 18  1  0  0  0  0
 20 21  1  0  0  0  0
 20 22  1  0  0  0  0
 22 24  1  6  0  0  0
 22 19  1  0  0  0  0
 23 21  1  6  0  0  0
 23  6  1  0  0  0  0
 23 18  1  0  0  0  0
 24 25  1  0  0  0  0
 26 25  1  0  0  0  0
M  END
>  <MODEL>
5

>  <REMARK>
 VINA RESULT:      -9.4      2.031      6.771
  Name = 
  3 active torsions:
  status: ('A' for Active; 'I' for Inactive)
    1  A    between atoms: C_9  and  C_22
    2  A    between atoms: C_10  and  N_11
    3  A    between atoms: C_10  and  C_19
                            x       y       z     vdW  Elec       q    Type
                         _______ _______ _______ _____ _____    ______ ____

>  <TORSDO>
F 3

$$$$
=
 OpenBabel10222416113D

 26 29  0  0  1  0  0  0  0  0999 V2000
  187.2580  176.8970  146.6490 O   0  0  0  0  0  0  0  0  0  0  0  0
  186.8600  178.1620  142.0100 N   0  0  0  0  0  2  0  0  0  0  0  0
  190.1590  178.1080  143.6760 C   0  0  0  0  0  3  0  0  0  0  0  0
  185.4920  178.4710  145.4360 C   0  0  0  0  0  3  0  0  0  0  0  0
  184.1410  178.7040  145.1670 C   0  0  0  0  0  3  0  0  0  0  0  0
  188.2420  178.5800  142.2130 C   0  0  1  0  0  3  0  0  0  0  0  0
  186.4070  178.2170  144.3960 C   0  0  0  0  0  0  0  0  0  0  0  0
  185.9350  178.2710  143.0770 C   0  0  0  0  0  0  0  0  0  0  0  0
  189.4390  177.1170  146.4160 N   0  0  0  0  0  2  0  0  0  0  0  0
  191.0050  177.7990  144.7150 C   0  0  0  0  0  3  0  0  0  0  0  0
  184.5810  178.4830  142.8020 C   0  0  0  0  0  3  0  0  0  0  0  0
  183.6820  178.6960  143.8490 C   0  0  0  0  0  3  0  0  0  0  0  0
  190.6920  177.3500  145.9730 C   0  0  0  0  0  0  0  0  0  0  0  0
  188.7720  178.1220  143.5790 C   0  0  2  0  0  3  0  0  0  0  0  0
  187.8610  177.8950  144.6560 C   0  0  2  0  0  3  0  0  0  0  0  0
  191.6480  177.1160  146.7560 O   0  0  0  0  0  0  0  0  0  0  0  0
  188.1960  177.3010  145.9110 C   0  0  0  0  0  0  0  0  0  0  0  0
  189.6740  176.7410  141.1370 C   0  0  0  0  0  2  0  0  0  0  0  0
  190.5630  176.4100  139.9420 C   0  0  0  0  0  2  0  0  0  0  0  0
  189.1880  177.9320  138.5100 C   0  0  0  0  0  2  0  0  0  0  0  0
  188.3050  178.2560  139.7120 C   0  0  0  0  0  2  0  0  0  0  0  0
  189.7620  176.5250  138.6450 C   0  0  1  0  0  3  0  0  0  0  0  0
  189.1180  178.1660  141.0070 C   0  0  1  0  0  3  0  0  0  0  0  0
  190.6530  176.2300  137.4520 C   0  0  0  0  0  2  0  0  0  0  0  0
  192.0450  176.4510  137.8030 N   0  0  0  0  0  2  0  0  0  0  0  0
  192.8200  175.4630  137.0760 C   0  0  0  0  0  1  0  0  0  0  0  0
  2  8  1  0  0  0  0
  3 10  2  0  0  0  0
  5  4  1  0  0  0  0
  6  2  1  6  0  0  0
  6 14  1  0  0  0  0
  7  4  2  0  0  0  0
  8  7  1  0  0  0  0
 10 13  1  0  0  0  0
 11  8  2  0  0  0  0
 11 12  1  0  0  0  0
 12  5  2  0  0  0  0
 13  9  1  0  0  0  0
 13 16  2  0  0  0  0
 14  3  1  1  0  0  0
 14 15  1  0  0  0  0
 15  7  1  6  0  0  0
 15 17  1  0  0  0  0
 17  9  1  0  0  0  0
 17  1  2  0  0  0  0
 19 18  1  0  0  0  0
 20 22  1  0  0  0  0
 20 21  1  0  0  0  0
 22 24  1  6  0  0  0
 22 19  1  0  0  0  0
 23 21  1  6  0  0  0
 23 18  1  0  0  0  0
 23  6  1  0  0  0  0
 24 25  1  0  0  0  0
 26 25  1  0  0  0  0
M  END
>  <MODEL>
6

>  <REMARK>
 VINA RESULT:      -9.1      3.260      6.100
  Name = 
  3 active torsions:
  status: ('A' for Active; 'I' for Inactive)
    1  A    between atoms: C_9  and  C_22
    2  A    between atoms: C_10  and  N_11
    3  A    between atoms: C_10  and  C_19
                            x       y       z     vdW  Elec       q    Type
                         _______ _______ _______ _____ _____    ______ ____

>  <TORSDO>
F 3

$$$$
=
 OpenBabel10222416113D

 26 29  0  0  1  0  0  0  0  0999 V2000
  190.6940  176.0550  144.3420 O   0  0  0  0  0  0  0  0  0  0  0  0
  186.2160  177.8370  144.5820 N   0  0  0  0  0  2  0  0  0  0  0  0
  188.1200  177.9330  141.4140 C   0  0  0  0  0  3  0  0  0  0  0  0
  189.5360  177.5680  146.1960 C   0  0  0  0  0  3  0  0  0  0  0  0
  189.1910  177.6860  147.5450 C   0  0  0  0  0  3  0  0  0  0  0  0
  186.5750  178.3740  143.2740 C   0  0  1  0  0  3  0  0  0  0  0  0
  188.5490  177.5460  145.1920 C   0  0  0  0  0  0  0  0  0  0  0  0
  187.2120  177.7130  145.5800 C   0  0  0  0  0  0  0  0  0  0  0  0
  190.6600  176.5370  142.1910 N   0  0  0  0  0  2  0  0  0  0  0  0
  189.1790  177.5910  140.6080 C   0  0  0  0  0  3  0  0  0  0  0  0
  186.8580  177.8090  146.9290 C   0  0  0  0  0  3  0  0  0  0  0  0
  187.8490  177.7920  147.9130 C   0  0  0  0  0  3  0  0  0  0  0  0
  190.3480  176.9570  140.9480 C   0  0  0  0  0  0  0  0  0  0  0  0
  187.9160  177.8090  142.7840 C   0  0  2  0  0  3  0  0  0  0  0  0
  188.8840  177.3530  143.7310 C   0  0  2  0  0  3  0  0  0  0  0  0
  191.1710  176.7320  140.0240 O   0  0  0  0  0  0  0  0  0  0  0  0
  190.0840  176.6470  143.4120 C   0  0  0  0  0  0  0  0  0  0  0  0
  184.0370  178.5180  142.9130 C   0  0  0  0  0  2  0  0  0  0  0  0
  182.9210  178.2950  141.8970 C   0  0  0  0  0  2  0  0  0  0  0  0
  184.4900  178.9130  140.0500 C   0  0  0  0  0  2  0  0  0  0  0  0
  185.6000  179.1340  141.0740 C   0  0  0  0  0  2  0  0  0  0  0  0
  183.1310  179.1970  140.6810 C   0  0  1  0  0  3  0  0  0  0  0  0
  185.4010  178.2100  142.2800 C   0  0  1  0  0  3  0  0  0  0  0  0
  182.0400  178.9520  139.6530 C   0  0  0  0  0  2  0  0  0  0  0  0
  180.7340  179.0600  140.2790 N   0  0  0  0  0  2  0  0  0  0  0  0
  180.2140  180.3710  139.9360 C   0  0  0  0  0  1  0  0  0  0  0  0
  2  8  1  0  0  0  0
  4  5  1  0  0  0  0
  5 12  2  0  0  0  0
  6  2  1  1  0  0  0
  7  8  1  0  0  0  0
  7  4  2  0  0  0  0
  8 11  2  0  0  0  0
  9 17  1  0  0  0  0
 10 13  1  0  0  0  0
 10  3  2  0  0  0  0
 11 12  1  0  0  0  0
 13  9  1  0  0  0  0
 14  3  1  1  0  0  0
 14  6  1  0  0  0  0
 14 15  1  0  0  0  0
 15 17  1  1  0  0  0
 15  7  1  0  0  0  0
 16 13  2  0  0  0  0
 17  1  2  0  0  0  0
 19 18  1  0  0  0  0
 20 22  1  0  0  0  0
 20 21  1  0  0  0  0
 22 24  1  6  0  0  0
 22 19  1  0  0  0  0
 23 21  1  6  0  0  0
 23 18  1  0  0  0  0
 23  6  1  0  0  0  0
 24 25  1  0  0  0  0
 26 25  1  0  0  0  0
M  END
>  <MODEL>
7

>  <REMARK>
 VINA RESULT:      -9.0      2.447      7.039
  Name = 
  3 active torsions:
  status: ('A' for Active; 'I' for Inactive)
    1  A    between atoms: C_9  and  C_22
    2  A    between atoms: C_10  and  N_11
    3  A    between atoms: C_10  and  C_19
                            x       y       z     vdW  Elec       q    Type
                         _______ _______ _______ _____ _____    ______ ____

>  <TORSDO>
F 3

$$$$
=
 OpenBabel10222416113D

 26 29  0  0  1  0  0  0  0  0999 V2000
  183.6280  179.6770  139.5010 O   0  0  0  0  0  0  0  0  0  0  0  0
  183.5770  178.8300  144.2510 N   0  0  0  0  0  2  0  0  0  0  0  0
  186.5870  178.0980  142.2340 C   0  0  0  0  0  3  0  0  0  0  0  0
  181.7560  178.5810  141.0370 C   0  0  0  0  0  3  0  0  0  0  0  0
  180.4300  178.6480  141.4730 C   0  0  0  0  0  3  0  0  0  0  0  0
  184.8140  178.1260  143.9360 C   0  0  1  0  0  3  0  0  0  0  0  0
  182.8260  178.7110  141.9440 C   0  0  0  0  0  0  0  0  0  0  0  0
  182.5220  178.8420  143.3060 C   0  0  0  0  0  0  0  0  0  0  0  0
  185.7370  179.0310  139.5130 N   0  0  0  0  0  2  0  0  0  0  0  0
  187.3400  178.1570  141.0860 C   0  0  0  0  0  3  0  0  0  0  0  0
  181.1980  178.9300  143.7450 C   0  0  0  0  0  3  0  0  0  0  0  0
  180.1510  178.8370  142.8260 C   0  0  0  0  0  3  0  0  0  0  0  0
  186.9650  178.5760  139.8340 C   0  0  0  0  0  0  0  0  0  0  0  0
  185.2470  178.3740  142.4840 C   0  0  2  0  0  3  0  0  0  0  0  0
  184.2710  178.7100  141.4980 C   0  0  2  0  0  3  0  0  0  0  0  0
  187.8420  178.5580  138.9330 O   0  0  0  0  0  0  0  0  0  0  0  0
  184.5540  179.1390  140.1650 C   0  0  0  0  0  0  0  0  0  0  0  0
  185.3150  178.6290  146.4030 C   0  0  0  0  0  2  0  0  0  0  0  0
  186.4250  178.9700  147.3910 C   0  0  0  0  0  2  0  0  0  0  0  0
  188.0380  177.6280  146.0300 C   0  0  0  0  0  2  0  0  0  0  0  0
  186.9200  177.2920  145.0470 C   0  0  0  0  0  2  0  0  0  0  0  0
  187.4620  177.8470  147.4250 C   0  0  1  0  0  3  0  0  0  0  0  0
  185.8980  178.4320  144.9960 C   0  0  1  0  0  3  0  0  0  0  0  0
  188.5860  178.2000  148.3820 C   0  0  0  0  0  2  0  0  0  0  0  0
  189.8520  178.2340  147.6710 N   0  0  0  0  0  2  0  0  0  0  0  0
  190.3920  176.8880  147.7180 C   0  0  0  0  0  1  0  0  0  0  0  0
  1 17  2  0  0  0  0
  4  5  2  0  0  0  0
  4  7  1  0  0  0  0
  5 12  1  0  0  0  0
  6  2  1  1  0  0  0
  6 23  1  0  0  0  0
  7  8  2  0  0  0  0
  8 11  1  0  0  0  0
  8  2  1  0  0  0  0
  9 13  1  0  0  0  0
  9 17  1  0  0  0  0
 10  3  2  0  0  0  0
 12 11  2  0  0  0  0
 13 10  1  0  0  0  0
 14  3  1  6  0  0  0
 14  6  1  0  0  0  0
 15 17  1  1  0  0  0
 15  7  1  0  0  0  0
 15 14  1  0  0  0  0
 16 13  2  0  0  0  0
 18 19  1  0  0  0  0
 19 22  1  0  0  0  0
 20 22  1  0  0  0  0
 21 20  1  0  0  0  0
 22 24  1  1  0  0  0
 23 21  1  1  0  0  0
 23 18  1  0  0  0  0
 25 26  1  0  0  0  0
 25 24  1  0  0  0  0
M  END
>  <MODEL>
8

>  <REMARK>
 VINA RESULT:      -8.9      1.350      1.856
  Name = 
  3 active torsions:
  status: ('A' for Active; 'I' for Inactive)
    1  A    between atoms: C_9  and  C_22
    2  A    between atoms: C_10  and  N_11
    3  A    between atoms: C_10  and  C_19
                            x       y       z     vdW  Elec       q    Type
                         _______ _______ _______ _____ _____    ______ ____

>  <TORSDO>
F 3

$$$$
=
 OpenBabel10222416113D

 26 29  0  0  1  0  0  0  0  0999 V2000
  185.2960  179.4310  146.5090 O   0  0  0  0  0  0  0  0  0  0  0  0
  189.5670  177.8540  144.9130 N   0  0  0  0  0  2  0  0  0  0  0  0
  186.5850  177.7640  142.7300 C   0  0  0  0  0  3  0  0  0  0  0  0
  187.1310  177.9200  147.6990 C   0  0  0  0  0  3  0  0  0  0  0  0
  187.9770  177.7780  148.8010 C   0  0  0  0  0  3  0  0  0  0  0  0
  188.7450  177.3410  143.8230 C   0  0  1  0  0  3  0  0  0  0  0  0
  187.6480  178.0180  146.3920 C   0  0  0  0  0  0  0  0  0  0  0  0
  189.0350  177.9030  146.2240 C   0  0  0  0  0  0  0  0  0  0  0  0
  184.5050  179.0150  144.4930 N   0  0  0  0  0  2  0  0  0  0  0  0
  185.2860  178.0800  142.4140 C   0  0  0  0  0  3  0  0  0  0  0  0
  189.8890  177.7820  147.3250 C   0  0  0  0  0  3  0  0  0  0  0  0
  189.3590  177.7240  148.6150 C   0  0  0  0  0  3  0  0  0  0  0  0
  184.3220  178.6480  143.2090 C   0  0  0  0  0  0  0  0  0  0  0  0
  187.3020  177.8560  143.9180 C   0  0  2  0  0  3  0  0  0  0  0  0
  186.7650  178.2380  145.1850 C   0  0  2  0  0  3  0  0  0  0  0  0
  183.1970  178.8620  142.6880 O   0  0  0  0  0  0  0  0  0  0  0  0
  185.5140  178.8970  145.3890 C   0  0  0  0  0  0  0  0  0  0  0  0
  190.9190  177.2000  142.4640 C   0  0  0  0  0  2  0  0  0  0  0  0
  191.5490  177.5090  141.1100 C   0  0  0  0  0  2  0  0  0  0  0  0
  189.3440  177.1040  140.0000 C   0  0  0  0  0  2  0  0  0  0  0  0
  188.7230  176.7960  141.3600 C   0  0  0  0  0  2  0  0  0  0  0  0
  190.8250  176.7390  140.0060 C   0  0  1  0  0  3  0  0  0  0  0  0
  189.4330  177.5890  142.4610 C   0  0  1  0  0  3  0  0  0  0  0  0
  191.4280  177.0720  138.6530 C   0  0  0  0  0  2  0  0  0  0  0  0
  192.8430  176.7400  138.6430 N   0  0  0  0  0  2  0  0  0  0  0  0
  193.0060  175.6440  137.7060 C   0  0  0  0  0  1  0  0  0  0  0  0
  2  8  1  0  0  0  0
  4  5  1  0  0  0  0
  6 14  1  0  0  0  0
  6  2  1  1  0  0  0
  7  4  2  0  0  0  0
  8  7  1  0  0  0  0
  8 11  2  0  0  0  0
  9 17  1  0  0  0  0
 10  3  2  0  0  0  0
 10 13  1  0  0  0  0
 11 12  1  0  0  0  0
 12  5  2  0  0  0  0
 13  9  1  0  0  0  0
 14  3  1  1  0  0  0
 14 15  1  0  0  0  0
 15 17  1  6  0  0  0
 15  7  1  0  0  0  0
 16 13  2  0  0  0  0
 17  1  2  0  0  0  0
 19 18  1  0  0  0  0
 20 22  1  0  0  0  0
 20 21  1  0  0  0  0
 22 24  1  6  0  0  0
 22 19  1  0  0  0  0
 23 21  1  6  0  0  0
 23 18  1  0  0  0  0
 23  6  1  0  0  0  0
 25 24  1  0  0  0  0
 26 25  1  0  0  0  0
M  END
>  <MODEL>
9

>  <REMARK>
 VINA RESULT:      -8.9      2.809      6.165
  Name = 
  3 active torsions:
  status: ('A' for Active; 'I' for Inactive)
    1  A    between atoms: C_9  and  C_22
    2  A    between atoms: C_10  and  N_11
    3  A    between atoms: C_10  and  C_19
                            x       y       z     vdW  Elec       q    Type
                         _______ _______ _______ _____ _____    ______ ____

>  <TORSDO>
F 3

$$$$
