=
 OpenBabel10222418253D

 26 29  0  0  1  0  0  0  0  0999 V2000
  187.5890  177.3250  142.7000 C   0  0  0  0  0  0  0  0  0  0  0  0
  190.0190  176.8020  143.3730 C   0  0  1  0  0  3  0  0  0  0  0  0
  188.5770  176.6330  143.4690 N   0  0  0  0  0  2  0  0  0  0  0  0
  185.5580  178.8110  141.4370 C   0  0  0  0  0  0  0  0  0  0  0  0
  185.2990  178.1390  142.6360 C   0  0  0  0  0  3  0  0  0  0  0  0
  190.1300  176.7860  140.8900 C   0  0  0  0  0  3  0  0  0  0  0  0
  190.5170  176.2990  142.0640 C   0  0  0  0  0  3  0  0  0  0  0  0
  186.8250  178.7120  140.8600 C   0  0  0  0  0  3  0  0  0  0  0  0
  187.8570  177.9660  141.4580 C   0  0  0  0  0  0  0  0  0  0  0  0
  189.3150  178.6190  139.7090 O   0  0  0  0  0  0  0  0  0  0  0  0
  186.3080  177.4060  143.2560 C   0  0  0  0  0  3  0  0  0  0  0  0
  189.1240  177.8410  140.6830 C   0  0  0  0  0  0  0  0  0  0  0  0
  191.9320  178.3950  143.4070 C   0  0  0  0  0  2  0  0  0  0  0  0
  190.4360  178.2580  143.6190 C   0  0  2  0  0  3  0  0  0  0  0  0
  191.3710  178.4870  144.8120 C   0  0  1  0  0  3  0  0  0  0  0  0
  190.8830  176.7110  146.6120 C   0  0  0  0  0  0  0  0  0  0  0  0
  191.6690  177.2630  145.5450 N   0  0  0  0  0  2  0  0  0  0  0  0
  191.2740  175.6310  147.1320 O   0  0  0  0  0  0  0  0  0  0  0  0
  188.4160  177.2450  146.4150 C   0  0  0  0  0  3  0  0  0  0  0  0
  188.4940  178.5730  148.8270 N   0  0  0  0  0  0  0  0  0  0  0  0
  189.6340  178.0150  148.3380 C   0  0  0  0  0  3  0  0  0  0  0  0
  189.6270  177.3290  147.1140 C   0  0  0  0  0  0  0  0  0  0  0  0
  187.3150  178.4880  148.1560 C   0  0  0  0  0  3  0  0  0  0  0  0
  187.2560  177.8220  146.9320 C   0  0  0  0  0  3  0  0  0  0  0  0
  184.5760  179.5670  140.7920 O   0  0  0  0  0  0  0  0  0  0  0  0
  184.0610  179.2260  139.5120 C   0  0  0  0  0  1  0  0  0  0  0  0
  1 11  1  0  0  0  0
  1  3  1  0  0  0  0
  2  7  1  6  0  0  0
  2  3  1  0  0  0  0
  2 14  1  0  0  0  0
  4  5  1  0  0  0  0
  5 11  2  0  0  0  0
  6  7  2  0  0  0  0
  8  4  2  0  0  0  0
  8  9  1  0  0  0  0
  9  1  2  0  0  0  0
 10 12  2  0  0  0  0
 12  6  1  0  0  0  0
 12  9  1  0  0  0  0
 13 15  1  0  0  0  0
 14 13  1  6  0  0  0
 14 15  1  0  0  0  0
 15 17  1  1  0  0  0
 16 22  1  0  0  0  0
 16 18  2  0  0  0  0
 17 16  1  0  0  0  0
 19 24  2  0  0  0  0
 19 22  1  0  0  0  0
 21 20  1  0  0  0  0
 22 21  2  0  0  0  0
 23 20  2  0  0  0  0
 24 23  1  0  0  0  0
 25  4  1  0  0  0  0
 26 25  1  0  0  0  0
M  END
>  <MODEL>
1

>  <REMARK>
 VINA RESULT:      -8.3      0.000      0.000
  Name = 
  4 active torsions:
  status: ('A' for Active; 'I' for Inactive)
    1  A    between atoms: C_2  and  C_13
    2  A    between atoms: C_3  and  C_18
    3  A    between atoms: C_5  and  O_9
    4  A    between atoms: N_17  and  C_22
                            x       y       z     vdW  Elec       q    Type
                         _______ _______ _______ _____ _____    ______ ____

>  <TORSDO>
F 4

$$$$
=
 OpenBabel10222418253D

 26 29  0  0  1  0  0  0  0  0999 V2000
  190.7580  176.0420  138.1690 C   0  0  0  0  0  0  0  0  0  0  0  0
  189.9930  177.7620  139.9260 C   0  0  1  0  0  3  0  0  0  0  0  0
  190.9940  177.1000  139.1040 N   0  0  0  0  0  2  0  0  0  0  0  0
  190.4550  173.7910  136.5060 C   0  0  0  0  0  0  0  0  0  0  0  0
  191.7070  174.1090  137.0420 C   0  0  0  0  0  3  0  0  0  0  0  0
  188.3010  178.0380  138.1270 C   0  0  0  0  0  3  0  0  0  0  0  0
  189.0660  178.5600  139.0780 C   0  0  0  0  0  3  0  0  0  0  0  0
  189.3650  174.6180  136.7830 C   0  0  0  0  0  3  0  0  0  0  0  0
  189.4870  175.7580  137.5980 C   0  0  0  0  0  0  0  0  0  0  0  0
  187.1660  176.1620  137.3430 O   0  0  0  0  0  0  0  0  0  0  0  0
  191.8510  175.2240  137.8640 C   0  0  0  0  0  3  0  0  0  0  0  0
  188.2790  176.6230  137.7170 C   0  0  0  0  0  0  0  0  0  0  0  0
  188.3420  177.5230  141.7740 C   0  0  0  0  0  2  0  0  0  0  0  0
  189.2360  176.7640  140.8120 C   0  0  2  0  0  3  0  0  0  0  0  0
  189.5720  176.8160  142.3070 C   0  0  1  0  0  3  0  0  0  0  0  0
  190.9540  178.2520  143.9390 C   0  0  0  0  0  0  0  0  0  0  0  0
  190.6060  177.7940  142.6240 N   0  0  0  0  0  2  0  0  0  0  0  0
  191.8870  179.0930  144.0410 O   0  0  0  0  0  0  0  0  0  0  0  0
  188.9280  177.9700  145.4320 C   0  0  0  0  0  3  0  0  0  0  0  0
  190.4550  176.6060  147.2740 N   0  0  0  0  0  0  0  0  0  0  0  0
  191.0420  177.0730  146.1400 C   0  0  0  0  0  3  0  0  0  0  0  0
  190.2910  177.7690  145.1810 C   0  0  0  0  0  0  0  0  0  0  0  0
  189.1310  176.7910  147.5190 C   0  0  0  0  0  3  0  0  0  0  0  0
  188.3410  177.4810  146.5990 C   0  0  0  0  0  3  0  0  0  0  0  0
  190.2680  172.6730  135.6890 O   0  0  0  0  0  0  0  0  0  0  0  0
  188.9810  172.1970  135.3210 C   0  0  0  0  0  1  0  0  0  0  0  0
  1  3  1  0  0  0  0
  2  7  1  6  0  0  0
  2 14  1  0  0  0  0
  3  2  1  0  0  0  0
  4  8  2  0  0  0  0
  4  5  1  0  0  0  0
  5 11  2  0  0  0  0
  6  7  2  0  0  0  0
  8  9  1  0  0  0  0
  9 12  1  0  0  0  0
  9  1  2  0  0  0  0
 10 12  2  0  0  0  0
 11  1  1  0  0  0  0
 12  6  1  0  0  0  0
 13 15  1  0  0  0  0
 14 13  1  1  0  0  0
 14 15  1  0  0  0  0
 15 17  1  6  0  0  0
 16 18  2  0  0  0  0
 16 22  1  0  0  0  0
 17 16  1  0  0  0  0
 19 24  1  0  0  0  0
 20 23  1  0  0  0  0
 21 20  2  0  0  0  0
 22 19  2  0  0  0  0
 22 21  1  0  0  0  0
 24 23  2  0  0  0  0
 25  4  1  0  0  0  0
 26 25  1  0  0  0  0
M  END
>  <MODEL>
2

>  <REMARK>
 VINA RESULT:      -7.5      3.512      5.283
  Name = 
  4 active torsions:
  status: ('A' for Active; 'I' for Inactive)
    1  A    between atoms: C_2  and  C_13
    2  A    between atoms: C_3  and  C_18
    3  A    between atoms: C_5  and  O_9
    4  A    between atoms: N_17  and  C_22
                            x       y       z     vdW  Elec       q    Type
                         _______ _______ _______ _____ _____    ______ ____

>  <TORSDO>
F 4

$$$$
=
 OpenBabel10222418253D

 26 29  0  0  1  0  0  0  0  0999 V2000
  192.1660  176.1930  138.4310 C   0  0  0  0  0  0  0  0  0  0  0  0
  190.7080  177.5740  140.0430 C   0  0  1  0  0  3  0  0  0  0  0  0
  191.9480  177.2730  139.3440 N   0  0  0  0  0  2  0  0  0  0  0  0
  192.7840  173.9590  136.8320 C   0  0  0  0  0  0  0  0  0  0  0  0
  193.8030  174.6730  137.4720 C   0  0  0  0  0  3  0  0  0  0  0  0
  189.2100  177.2700  138.0830 C   0  0  0  0  0  3  0  0  0  0  0  0
  189.6630  178.0190  139.0820 C   0  0  0  0  0  3  0  0  0  0  0  0
  191.4620  174.3840  136.9730 C   0  0  0  0  0  3  0  0  0  0  0  0
  191.1220  175.5040  137.7530 C   0  0  0  0  0  0  0  0  0  0  0  0
  188.8350  175.1230  137.2650 O   0  0  0  0  0  0  0  0  0  0  0  0
  193.4920  175.7770  138.2610 C   0  0  0  0  0  3  0  0  0  0  0  0
  189.6930  175.9260  137.7250 C   0  0  0  0  0  0  0  0  0  0  0  0
  189.1680  176.8560  141.8620 C   0  0  0  0  0  2  0  0  0  0  0  0
  190.2320  176.3850  140.8890 C   0  0  2  0  0  3  0  0  0  0  0  0
  190.5370  176.4760  142.3890 C   0  0  1  0  0  3  0  0  0  0  0  0
  191.3000  178.2990  144.0420 C   0  0  0  0  0  0  0  0  0  0  0  0
  191.2810  177.6780  142.7470 N   0  0  0  0  0  2  0  0  0  0  0  0
  192.0110  179.3290  144.1890 O   0  0  0  0  0  0  0  0  0  0  0  0
  189.1630  177.9210  145.3460 C   0  0  0  0  0  3  0  0  0  0  0  0
  190.5750  176.5990  147.3080 N   0  0  0  0  0  0  0  0  0  0  0  0
  191.2400  177.1010  146.2340 C   0  0  0  0  0  3  0  0  0  0  0  0
  190.5500  177.7770  145.2160 C   0  0  0  0  0  0  0  0  0  0  0  0
  189.2280  176.7300  147.4360 C   0  0  0  0  0  3  0  0  0  0  0  0
  188.4950  177.3970  146.4540 C   0  0  0  0  0  3  0  0  0  0  0  0
  193.0560  172.8390  136.0430 O   0  0  0  0  0  0  0  0  0  0  0  0
  192.0700  172.2090  135.2370 C   0  0  0  0  0  1  0  0  0  0  0  0
  1  3  1  0  0  0  0
  2  7  1  6  0  0  0
  2 14  1  0  0  0  0
  3  2  1  0  0  0  0
  4  8  2  0  0  0  0
  4  5  1  0  0  0  0
  5 11  2  0  0  0  0
  6  7  2  0  0  0  0
  8  9  1  0  0  0  0
  9  1  2  0  0  0  0
 10 12  2  0  0  0  0
 11  1  1  0  0  0  0
 12  9  1  0  0  0  0
 12  6  1  0  0  0  0
 13 15  1  0  0  0  0
 14 13  1  1  0  0  0
 14 15  1  0  0  0  0
 15 17  1  6  0  0  0
 16 18  2  0  0  0  0
 16 22  1  0  0  0  0
 17 16  1  0  0  0  0
 19 24  1  0  0  0  0
 20 23  1  0  0  0  0
 21 20  2  0  0  0  0
 22 19  2  0  0  0  0
 22 21  1  0  0  0  0
 24 23  2  0  0  0  0
 25  4  1  0  0  0  0
 26 25  1  0  0  0  0
M  END
>  <MODEL>
3

>  <REMARK>
 VINA RESULT:      -7.3      3.704      5.842
  Name = 
  4 active torsions:
  status: ('A' for Active; 'I' for Inactive)
    1  A    between atoms: C_2  and  C_13
    2  A    between atoms: C_3  and  C_18
    3  A    between atoms: C_5  and  O_9
    4  A    between atoms: N_17  and  C_22
                            x       y       z     vdW  Elec       q    Type
                         _______ _______ _______ _____ _____    ______ ____

>  <TORSDO>
F 4

$$$$
=
 OpenBabel10222418253D

 26 29  0  0  1  0  0  0  0  0999 V2000
  188.1560  178.0570  141.0170 C   0  0  0  0  0  0  0  0  0  0  0  0
  189.5350  177.5570  138.9010 C   0  0  1  0  0  3  0  0  0  0  0  0
  188.6130  178.3550  139.6940 N   0  0  0  0  0  2  0  0  0  0  0  0
  186.9890  177.4390  143.5040 C   0  0  0  0  0  0  0  0  0  0  0  0
  186.3600  178.3330  142.6320 C   0  0  0  0  0  3  0  0  0  0  0  0
  191.1710  177.1370  140.7250 C   0  0  0  0  0  3  0  0  0  0  0  0
  190.8960  177.5790  139.5030 C   0  0  0  0  0  3  0  0  0  0  0  0
  188.2150  176.8800  143.1390 C   0  0  0  0  0  3  0  0  0  0  0  0
  188.8310  177.1790  141.9110 C   0  0  0  0  0  0  0  0  0  0  0  0
  190.5920  175.6900  142.4540 O   0  0  0  0  0  0  0  0  0  0  0  0
  186.9420  178.6350  141.4030 C   0  0  0  0  0  3  0  0  0  0  0  0
  190.1930  176.6130  141.6930 C   0  0  0  0  0  0  0  0  0  0  0  0
  189.7860  175.4640  137.5750 C   0  0  0  0  0  2  0  0  0  0  0  0
  189.0230  176.1230  138.7090 C   0  0  2  0  0  3  0  0  0  0  0  0
  188.3320  175.8400  137.3700 C   0  0  1  0  0  3  0  0  0  0  0  0
  187.0710  177.8270  136.3220 C   0  0  0  0  0  0  0  0  0  0  0  0
  188.2420  177.0190  136.5150 N   0  0  0  0  0  2  0  0  0  0  0  0
  187.1670  178.8250  135.5580 O   0  0  0  0  0  0  0  0  0  0  0  0
  185.3650  178.2460  138.1450 C   0  0  0  0  0  3  0  0  0  0  0  0
  183.6900  176.3630  137.0340 N   0  0  0  0  0  0  0  0  0  0  0  0
  184.8940  176.6080  136.4510 C   0  0  0  0  0  3  0  0  0  0  0  0
  185.7690  177.5630  136.9910 C   0  0  0  0  0  0  0  0  0  0  0  0
  183.2910  177.0270  138.1500 C   0  0  0  0  0  3  0  0  0  0  0  0
  184.1250  177.9840  138.7290 C   0  0  0  0  0  3  0  0  0  0  0  0
  186.4300  177.1020  144.7390 O   0  0  0  0  0  0  0  0  0  0  0  0
  186.7190  177.8140  145.9340 C   0  0  0  0  0  1  0  0  0  0  0  0
  1 11  2  0  0  0  0
  1  9  1  0  0  0  0
  2  7  1  1  0  0  0
  2  3  1  0  0  0  0
  3  1  1  0  0  0  0
  4 25  1  0  0  0  0
  5  4  2  0  0  0  0
  6 12  1  0  0  0  0
  7  6  2  0  0  0  0
  8  4  1  0  0  0  0
  9  8  2  0  0  0  0
 11  5  1  0  0  0  0
 12  9  1  0  0  0  0
 12 10  2  0  0  0  0
 14 13  1  6  0  0  0
 14  2  1  0  0  0  0
 15 17  1  6  0  0  0
 15 13  1  0  0  0  0
 15 14  1  0  0  0  0
 16 17  1  0  0  0  0
 16 22  1  0  0  0  0
 18 16  2  0  0  0  0
 19 24  1  0  0  0  0
 20 23  1  0  0  0  0
 21 22  1  0  0  0  0
 21 20  2  0  0  0  0
 22 19  2  0  0  0  0
 23 24  2  0  0  0  0
 25 26  1  0  0  0  0
M  END
>  <MODEL>
4

>  <REMARK>
 VINA RESULT:      -7.0      3.449      7.403
  Name = 
  4 active torsions:
  status: ('A' for Active; 'I' for Inactive)
    1  A    between atoms: C_2  and  C_13
    2  A    between atoms: C_3  and  C_18
    3  A    between atoms: C_5  and  O_9
    4  A    between atoms: N_17  and  C_22
                            x       y       z     vdW  Elec       q    Type
                         _______ _______ _______ _____ _____    ______ ____

>  <TORSDO>
F 4

$$$$
=
 OpenBabel10222418253D

 26 29  0  0  1  0  0  0  0  0999 V2000
  184.4780  178.8560  140.9780 C   0  0  0  0  0  0  0  0  0  0  0  0
  186.1700  179.2260  142.8830 C   0  0  1  0  0  3  0  0  0  0  0  0
  185.7030  179.3660  141.5120 N   0  0  0  0  0  2  0  0  0  0  0  0
  182.2310  177.6760  139.7600 C   0  0  0  0  0  0  0  0  0  0  0  0
  183.3280  178.0680  138.9870 C   0  0  0  0  0  3  0  0  0  0  0  0
  184.0050  179.7830  143.9680 C   0  0  0  0  0  3  0  0  0  0  0  0
  185.3050  180.0040  143.8110 C   0  0  0  0  0  3  0  0  0  0  0  0
  182.2520  177.9010  141.1370 C   0  0  0  0  0  3  0  0  0  0  0  0
  183.3520  178.5010  141.7740 C   0  0  0  0  0  0  0  0  0  0  0  0
  182.2560  178.2500  143.8590 O   0  0  0  0  0  0  0  0  0  0  0  0
  184.4360  178.6520  139.5950 C   0  0  0  0  0  3  0  0  0  0  0  0
  183.2020  178.7960  143.2270 C   0  0  0  0  0  0  0  0  0  0  0  0
  186.8580  177.6640  144.6960 C   0  0  0  0  0  2  0  0  0  0  0  0
  186.2710  177.7530  143.3000 C   0  0  2  0  0  3  0  0  0  0  0  0
  187.6920  177.2190  143.5120 C   0  0  1  0  0  3  0  0  0  0  0  0
  189.9280  178.4090  143.9830 C   0  0  0  0  0  0  0  0  0  0  0  0
  188.7220  178.2130  143.2300 N   0  0  0  0  0  2  0  0  0  0  0  0
  190.7240  179.3060  143.5950 O   0  0  0  0  0  0  0  0  0  0  0  0
  189.5470  177.6150  146.3570 C   0  0  0  0  0  3  0  0  0  0  0  0
  191.7720  175.9990  146.1910 N   0  0  0  0  0  0  0  0  0  0  0  0
  191.4250  176.7650  145.1220 C   0  0  0  0  0  3  0  0  0  0  0  0
  190.2960  177.5970  145.1740 C   0  0  0  0  0  0  0  0  0  0  0  0
  191.0440  176.0070  147.3390 C   0  0  0  0  0  3  0  0  0  0  0  0
  189.9150  176.8200  147.4430 C   0  0  0  0  0  3  0  0  0  0  0  0
  181.1060  177.0750  139.1870 O   0  0  0  0  0  0  0  0  0  0  0  0
  180.7320  175.7310  139.4570 C   0  0  0  0  0  1  0  0  0  0  0  0
  1  3  1  0  0  0  0
  1  9  1  0  0  0  0
  2 14  1  0  0  0  0
  2  7  1  1  0  0  0
  3  2  1  0  0  0  0
  4  8  1  0  0  0  0
  5 11  1  0  0  0  0
  5  4  2  0  0  0  0
  7  6  2  0  0  0  0
  8  9  2  0  0  0  0
  9 12  1  0  0  0  0
 11  1  2  0  0  0  0
 12 10  2  0  0  0  0
 12  6  1  0  0  0  0
 14 15  1  0  0  0  0
 14 13  1  1  0  0  0
 15 17  1  6  0  0  0
 15 13  1  0  0  0  0
 16 22  1  0  0  0  0
 17 16  1  0  0  0  0
 18 16  2  0  0  0  0
 19 24  1  0  0  0  0
 20 23  1  0  0  0  0
 21 22  1  0  0  0  0
 21 20  2  0  0  0  0
 22 19  2  0  0  0  0
 23 24  2  0  0  0  0
 25 26  1  0  0  0  0
 25  4  1  0  0  0  0
M  END
>  <MODEL>
5

>  <REMARK>
 VINA RESULT:      -6.9      2.507      4.768
  Name = 
  4 active torsions:
  status: ('A' for Active; 'I' for Inactive)
    1  A    between atoms: C_2  and  C_13
    2  A    between atoms: C_3  and  C_18
    3  A    between atoms: C_5  and  O_9
    4  A    between atoms: N_17  and  C_22
                            x       y       z     vdW  Elec       q    Type
                         _______ _______ _______ _____ _____    ______ ____

>  <TORSDO>
F 4

$$$$
=
 OpenBabel10222418253D

 26 29  0  0  1  0  0  0  0  0999 V2000
  189.0980  178.1750  140.3690 C   0  0  0  0  0  0  0  0  0  0  0  0
  187.8870  178.2610  138.0990 C   0  0  1  0  0  3  0  0  0  0  0  0
  188.3110  178.8290  139.3690 N   0  0  0  0  0  2  0  0  0  0  0  0
  190.4100  176.9030  142.5110 C   0  0  0  0  0  0  0  0  0  0  0  0
  189.6280  178.0400  142.7380 C   0  0  0  0  0  3  0  0  0  0  0  0
  190.0800  177.2530  137.5040 C   0  0  0  0  0  3  0  0  0  0  0  0
  189.0580  178.0470  137.2050 C   0  0  0  0  0  3  0  0  0  0  0  0
  190.5550  176.4240  141.2080 C   0  0  0  0  0  3  0  0  0  0  0  0
  189.9240  177.0450  140.1150 C   0  0  0  0  0  0  0  0  0  0  0  0
  190.8250  175.3880  138.6820 O   0  0  0  0  0  0  0  0  0  0  0  0
  188.9810  178.6660  141.6750 C   0  0  0  0  0  3  0  0  0  0  0  0
  190.2550  176.5100  138.7640 C   0  0  0  0  0  0  0  0  0  0  0  0
  186.3280  176.6480  137.0190 C   0  0  0  0  0  2  0  0  0  0  0  0
  187.0800  176.9710  138.2960 C   0  0  2  0  0  3  0  0  0  0  0  0
  185.5560  177.1260  138.2320 C   0  0  1  0  0  3  0  0  0  0  0  0
  184.6210  179.3810  139.0550 C   0  0  0  0  0  0  0  0  0  0  0  0
  185.1320  178.5080  138.0370 N   0  0  0  0  0  2  0  0  0  0  0  0
  184.3140  180.5570  138.7200 O   0  0  0  0  0  0  0  0  0  0  0  0
  185.5320  178.9750  141.3820 C   0  0  0  0  0  3  0  0  0  0  0  0
  183.0210  178.2530  142.2570 N   0  0  0  0  0  0  0  0  0  0  0  0
  183.1960  178.6060  140.9550 C   0  0  0  0  0  3  0  0  0  0  0  0
  184.4610  178.9810  140.4790 C   0  0  0  0  0  0  0  0  0  0  0  0
  184.0540  178.2530  143.1390 C   0  0  0  0  0  3  0  0  0  0  0  0
  185.3340  178.6130  142.7150 C   0  0  0  0  0  3  0  0  0  0  0  0
  191.0630  176.2410  143.5540 O   0  0  0  0  0  0  0  0  0  0  0  0
  191.1150  176.7560  144.8770 C   0  0  0  0  0  1  0  0  0  0  0  0
  1 11  1  0  0  0  0
  2  7  1  6  0  0  0
  2 14  1  0  0  0  0
  2  3  1  0  0  0  0
  3  1  1  0  0  0  0
  4  5  1  0  0  0  0
  4 25  1  0  0  0  0
  6 12  1  0  0  0  0
  7  6  2  0  0  0  0
  8  4  2  0  0  0  0
  9  1  2  0  0  0  0
  9  8  1  0  0  0  0
 10 12  2  0  0  0  0
 11  5  2  0  0  0  0
 12  9  1  0  0  0  0
 13 15  1  0  0  0  0
 14 13  1  6  0  0  0
 15 17  1  6  0  0  0
 15 14  1  0  0  0  0
 16 22  1  0  0  0  0
 17 16  1  0  0  0  0
 18 16  2  0  0  0  0
 19 24  1  0  0  0  0
 20 23  1  0  0  0  0
 21 20  2  0  0  0  0
 22 21  1  0  0  0  0
 22 19  2  0  0  0  0
 24 23  2  0  0  0  0
 25 26  1  0  0  0  0
M  END
>  <MODEL>
6

>  <REMARK>
 VINA RESULT:      -6.8      3.327      6.895
  Name = 
  4 active torsions:
  status: ('A' for Active; 'I' for Inactive)
    1  A    between atoms: C_2  and  C_13
    2  A    between atoms: C_3  and  C_18
    3  A    between atoms: C_5  and  O_9
    4  A    between atoms: N_17  and  C_22
                            x       y       z     vdW  Elec       q    Type
                         _______ _______ _______ _____ _____    ______ ____

>  <TORSDO>
F 4

$$$$
=
 OpenBabel10222418253D

 26 29  0  0  1  0  0  0  0  0999 V2000
  184.6120  179.1610  141.2230 C   0  0  0  0  0  0  0  0  0  0  0  0
  186.1440  179.0590  143.2900 C   0  0  1  0  0  3  0  0  0  0  0  0
  185.8070  179.4850  141.9410 N   0  0  0  0  0  2  0  0  0  0  0  0
  182.4320  178.3730  139.6250 C   0  0  0  0  0  0  0  0  0  0  0  0
  183.6100  178.8380  139.0320 C   0  0  0  0  0  3  0  0  0  0  0  0
  183.9180  179.5310  144.2900 C   0  0  0  0  0  3  0  0  0  0  0  0
  185.2360  179.6970  144.2810 C   0  0  0  0  0  3  0  0  0  0  0  0
  182.3400  178.3310  141.0180 C   0  0  0  0  0  3  0  0  0  0  0  0
  183.4060  178.7310  141.8440 C   0  0  0  0  0  0  0  0  0  0  0  0
  182.1190  178.1560  143.7470 O   0  0  0  0  0  0  0  0  0  0  0  0
  184.6850  179.2270  139.8270 C   0  0  0  0  0  3  0  0  0  0  0  0
  183.1400  178.7530  143.3100 C   0  0  0  0  0  0  0  0  0  0  0  0
  186.4140  177.1460  144.8610 C   0  0  0  0  0  2  0  0  0  0  0  0
  186.1410  177.5300  143.4190 C   0  0  2  0  0  3  0  0  0  0  0  0
  187.4800  176.8950  143.8140 C   0  0  1  0  0  3  0  0  0  0  0  0
  189.4760  178.2610  142.9270 C   0  0  0  0  0  0  0  0  0  0  0  0
  188.5530  177.8720  143.9560 N   0  0  0  0  0  2  0  0  0  0  0  0
  190.3380  179.1350  143.2110 O   0  0  0  0  0  0  0  0  0  0  0  0
  188.5340  178.1430  140.5800 C   0  0  0  0  0  3  0  0  0  0  0  0
  190.3870  176.2160  139.9150 N   0  0  0  0  0  0  0  0  0  0  0  0
  190.3790  176.7230  141.1770 C   0  0  0  0  0  3  0  0  0  0  0  0
  189.4500  177.7080  141.5460 C   0  0  0  0  0  0  0  0  0  0  0  0
  189.5050  176.6390  138.9720 C   0  0  0  0  0  3  0  0  0  0  0  0
  188.5580  177.6140  139.2890 C   0  0  0  0  0  3  0  0  0  0  0  0
  181.3370  177.9620  138.8610 O   0  0  0  0  0  0  0  0  0  0  0  0
  180.4070  176.9890  139.3130 C   0  0  0  0  0  1  0  0  0  0  0  0
  1  9  1  0  0  0  0
  1  3  1  0  0  0  0
  2 14  1  0  0  0  0
  2  7  1  1  0  0  0
  3  2  1  0  0  0  0
  4  8  1  0  0  0  0
  5  4  2  0  0  0  0
  5 11  1  0  0  0  0
  7  6  2  0  0  0  0
  8  9  2  0  0  0  0
  9 12  1  0  0  0  0
 11  1  2  0  0  0  0
 12 10  2  0  0  0  0
 12  6  1  0  0  0  0
 14 15  1  0  0  0  0
 14 13  1  1  0  0  0
 15 17  1  1  0  0  0
 15 13  1  0  0  0  0
 16 18  2  0  0  0  0
 16 17  1  0  0  0  0
 19 22  1  0  0  0  0
 20 21  1  0  0  0  0
 21 22  2  0  0  0  0
 22 16  1  0  0  0  0
 23 24  1  0  0  0  0
 23 20  2  0  0  0  0
 24 19  2  0  0  0  0
 25 26  1  0  0  0  0
 25  4  1  0  0  0  0
M  END
>  <MODEL>
7

>  <REMARK>
 VINA RESULT:      -6.6      2.828      5.823
  Name = 
  4 active torsions:
  status: ('A' for Active; 'I' for Inactive)
    1  A    between atoms: C_2  and  C_13
    2  A    between atoms: C_3  and  C_18
    3  A    between atoms: C_5  and  O_9
    4  A    between atoms: N_17  and  C_22
                            x       y       z     vdW  Elec       q    Type
                         _______ _______ _______ _____ _____    ______ ____

>  <TORSDO>
F 4

$$$$
=
 OpenBabel10222418253D

 26 29  0  0  1  0  0  0  0  0999 V2000
  188.7620  177.2430  141.3740 C   0  0  0  0  0  0  0  0  0  0  0  0
  189.7300  176.8010  143.7190 C   0  0  1  0  0  3  0  0  0  0  0  0
  188.6990  176.7020  142.6970 N   0  0  0  0  0  2  0  0  0  0  0  0
  188.6660  178.4860  138.8500 C   0  0  0  0  0  0  0  0  0  0  0  0
  187.4860  178.0960  139.4890 C   0  0  0  0  0  3  0  0  0  0  0  0
  191.6430  176.2500  142.2320 C   0  0  0  0  0  3  0  0  0  0  0  0
  190.9310  176.0150  143.3280 C   0  0  0  0  0  3  0  0  0  0  0  0
  189.8930  178.2270  139.4650 C   0  0  0  0  0  3  0  0  0  0  0  0
  189.9750  177.5950  140.7190 C   0  0  0  0  0  0  0  0  0  0  0  0
  192.3330  177.8120  140.6490 O   0  0  0  0  0  0  0  0  0  0  0  0
  187.5390  177.4810  140.7380 C   0  0  0  0  0  3  0  0  0  0  0  0
  191.3430  177.2670  141.2100 C   0  0  0  0  0  0  0  0  0  0  0  0
  191.4310  178.3180  144.7210 C   0  0  0  0  0  2  0  0  0  0  0  0
  190.0830  178.2620  144.0270 C   0  0  2  0  0  3  0  0  0  0  0  0
  190.1760  178.6230  145.5140 C   0  0  1  0  0  3  0  0  0  0  0  0
  188.5480  177.1190  146.8270 C   0  0  0  0  0  0  0  0  0  0  0  0
  189.8610  177.5020  146.3930 N   0  0  0  0  0  2  0  0  0  0  0  0
  188.4480  176.1100  147.5760 O   0  0  0  0  0  0  0  0  0  0  0  0
  186.7020  177.6310  145.1710 C   0  0  0  0  0  3  0  0  0  0  0  0
  185.5510  179.3730  146.9690 N   0  0  0  0  0  0  0  0  0  0  0  0
  186.6970  178.7260  147.3110 C   0  0  0  0  0  3  0  0  0  0  0  0
  187.3060  177.8300  146.4190 C   0  0  0  0  0  0  0  0  0  0  0  0
  184.9570  179.1790  145.7620 C   0  0  0  0  0  3  0  0  0  0  0  0
  185.5250  178.3030  144.8370 C   0  0  0  0  0  3  0  0  0  0  0  0
  188.6520  179.1170  137.6030 O   0  0  0  0  0  0  0  0  0  0  0  0
  187.7630  178.7400  136.5620 C   0  0  0  0  0  1  0  0  0  0  0  0
  1  3  1  0  0  0  0
  2  7  1  6  0  0  0
  2 14  1  0  0  0  0
  3  2  1  0  0  0  0
  4  8  2  0  0  0  0
  4  5  1  0  0  0  0
  5 11  2  0  0  0  0
  6  7  2  0  0  0  0
  8  9  1  0  0  0  0
  9 12  1  0  0  0  0
  9  1  2  0  0  0  0
 10 12  2  0  0  0  0
 11  1  1  0  0  0  0
 12  6  1  0  0  0  0
 13 15  1  0  0  0  0
 14 13  1  6  0  0  0
 14 15  1  0  0  0  0
 15 17  1  1  0  0  0
 16 18  2  0  0  0  0
 17 16  1  0  0  0  0
 19 22  1  0  0  0  0
 20 21  1  0  0  0  0
 22 16  1  0  0  0  0
 22 21  2  0  0  0  0
 23 20  2  0  0  0  0
 24 19  2  0  0  0  0
 24 23  1  0  0  0  0
 25  4  1  0  0  0  0
 26 25  1  0  0  0  0
M  END
>  <MODEL>
8

>  <REMARK>
 VINA RESULT:      -6.6      2.019      2.823
  Name = 
  4 active torsions:
  status: ('A' for Active; 'I' for Inactive)
    1  A    between atoms: C_2  and  C_13
    2  A    between atoms: C_3  and  C_18
    3  A    between atoms: C_5  and  O_9
    4  A    between atoms: N_17  and  C_22
                            x       y       z     vdW  Elec       q    Type
                         _______ _______ _______ _____ _____    ______ ____

>  <TORSDO>
F 4

$$$$
=
 OpenBabel10222418253D

 26 29  0  0  1  0  0  0  0  0999 V2000
  187.6710  176.0950  137.4320 C   0  0  0  0  0  0  0  0  0  0  0  0
  189.1910  177.2310  139.1730 C   0  0  1  0  0  3  0  0  0  0  0  0
  188.7370  176.0940  138.3870 N   0  0  0  0  0  2  0  0  0  0  0  0
  185.4320  175.9160  135.7340 C   0  0  0  0  0  0  0  0  0  0  0  0
  185.9630  174.7660  136.3260 C   0  0  0  0  0  3  0  0  0  0  0  0
  189.1850  178.8730  137.3070 C   0  0  0  0  0  3  0  0  0  0  0  0
  189.8220  178.2540  138.2950 C   0  0  0  0  0  3  0  0  0  0  0  0
  186.0420  177.1490  135.9740 C   0  0  0  0  0  3  0  0  0  0  0  0
  187.1700  177.2700  136.8050 C   0  0  0  0  0  0  0  0  0  0  0  0
  187.1480  179.6130  136.4570 O   0  0  0  0  0  0  0  0  0  0  0  0
  187.0710  174.8600  137.1640 C   0  0  0  0  0  3  0  0  0  0  0  0
  187.7980  178.6190  136.8820 C   0  0  0  0  0  0  0  0  0  0  0  0
  188.6210  178.8830  140.9460 C   0  0  0  0  0  2  0  0  0  0  0  0
  188.0560  177.8270  140.0150 C   0  0  2  0  0  3  0  0  0  0  0  0
  188.1430  177.5670  141.5240 C   0  0  1  0  0  3  0  0  0  0  0  0
  189.7120  176.4490  143.2340 C   0  0  0  0  0  0  0  0  0  0  0  0
  189.2880  176.7430  141.8950 N   0  0  0  0  0  2  0  0  0  0  0  0
  190.7180  175.7040  143.3820 O   0  0  0  0  0  0  0  0  0  0  0  0
  187.6200  177.0730  144.5170 C   0  0  0  0  0  3  0  0  0  0  0  0
  189.1460  177.7560  146.7060 N   0  0  0  0  0  0  0  0  0  0  0  0
  189.7630  177.3110  145.5790 C   0  0  0  0  0  3  0  0  0  0  0  0
  189.0140  176.9520  144.4480 C   0  0  0  0  0  0  0  0  0  0  0  0
  187.7940  177.8680  146.7810 C   0  0  0  0  0  3  0  0  0  0  0  0
  187.0030  177.5290  145.6830 C   0  0  0  0  0  3  0  0  0  0  0  0
  184.3140  175.8630  134.8980 O   0  0  0  0  0  0  0  0  0  0  0  0
  182.9870  176.0310  135.3780 C   0  0  0  0  0  1  0  0  0  0  0  0
  1  3  1  0  0  0  0
  2  7  1  6  0  0  0
  2 14  1  0  0  0  0
  3  2  1  0  0  0  0
  4  8  2  0  0  0  0
  4  5  1  0  0  0  0
  5 11  2  0  0  0  0
  6  7  2  0  0  0  0
  8  9  1  0  0  0  0
  9 12  1  0  0  0  0
  9  1  2  0  0  0  0
 10 12  2  0  0  0  0
 11  1  1  0  0  0  0
 12  6  1  0  0  0  0
 13 15  1  0  0  0  0
 14 13  1  1  0  0  0
 14 15  1  0  0  0  0
 15 17  1  6  0  0  0
 16 18  2  0  0  0  0
 16 22  1  0  0  0  0
 17 16  1  0  0  0  0
 19 24  1  0  0  0  0
 20 23  1  0  0  0  0
 21 20  2  0  0  0  0
 22 19  2  0  0  0  0
 22 21  1  0  0  0  0
 24 23  2  0  0  0  0
 25 26  1  0  0  0  0
 25  4  1  0  0  0  0
M  END
>  <MODEL>
9

>  <REMARK>
 VINA RESULT:      -6.5      3.592      4.563
  Name = 
  4 active torsions:
  status: ('A' for Active; 'I' for Inactive)
    1  A    between atoms: C_2  and  C_13
    2  A    between atoms: C_3  and  C_18
    3  A    between atoms: C_5  and  O_9
    4  A    between atoms: N_17  and  C_22
                            x       y       z     vdW  Elec       q    Type
                         _______ _______ _______ _____ _____    ______ ____

>  <TORSDO>
F 4

$$$$
