=
 OpenBabel10222415183D

 43 46  0  0  1  0  0  0  0  0999 V2000
  188.5440  177.6240  142.1300 C   0  0  0  0  0  0  0  0  0  0  0  0
  189.2620  176.8290  142.9240 C   0  0  0  0  0  3  0  0  0  0  0  0
  190.0480  176.5780  138.7040 C   0  0  0  0  0  0  0  0  0  0  0  0
  190.9920  175.7450  138.3740 N   0  0  0  0  0  0  0  0  0  0  0  0
  187.9170  178.2100  139.9250 O   0  0  0  0  0  0  0  0  0  0  0  0
  188.6950  177.5480  140.6650 C   0  0  0  0  0  0  0  0  0  0  0  0
  189.3140  177.3570  137.6600 C   0  0  0  0  0  1  0  0  0  0  0  0
  189.7300  176.7210  140.0950 N   0  0  0  0  0  2  0  0  0  0  0  0
  194.2080  173.7890  137.7960 C   0  0  0  0  0  1  0  0  0  0  0  0
  193.1280  176.0830  136.7970 S   0  0  0  0  0  0  0  0  0  0  0  0
  193.4000  174.2980  136.6220 C   0  0  2  0  0  3  0  0  0  0  0  0
  191.4260  175.4800  137.0060 C   0  0  1  0  0  3  0  0  0  0  0  0
  191.6950  173.6950  136.7750 S   0  0  0  0  0  0  0  0  0  0  0  0
  189.1170  176.8910  144.3430 N   0  0  0  0  0  2  0  0  0  0  0  0
  189.6410  177.9790  145.1480 C   0  0  1  0  0  3  0  0  0  0  0  0
  189.3200  178.6870  147.5010 O   0  0  0  0  0  0  0  0  0  0  0  0
  188.1540  177.0200  148.3290 C   0  0  0  0  0  3  0  0  0  0  0  0
  188.3670  176.7560  146.9880 C   0  0  0  0  0  3  0  0  0  0  0  0
  188.7690  178.2340  148.6000 C   0  0  0  0  0  3  0  0  0  0  0  0
  189.0970  177.8330  146.5330 C   0  0  0  0  0  0  0  0  0  0  0  0
  191.1700  177.9360  145.1560 C   0  0  0  0  0  2  0  0  0  0  0  0
  191.6650  176.7020  145.8330 C   0  0  0  0  0  0  0  0  0  0  0  0
  191.9660  176.7370  147.2290 N   0  0  0  0  0  2  0  0  0  0  0  0
  191.8550  175.6510  145.1670 O   0  0  0  0  0  0  0  0  0  0  0  0
  192.5440  175.5970  147.9220 C   0  0  0  0  0  1  0  0  0  0  0  0
  187.5780  178.6070  142.7400 C   0  0  0  0  0  2  0  0  0  0  0  0
  184.6040  179.5830  143.8990 C   0  0  2  0  0  3  0  0  0  0  0  0
  185.9960  177.7580  144.5500 C   0  0  0  0  0  2  0  0  0  0  0  0
  185.1360  178.9730  142.6210 C   0  0  0  0  0  2  0  0  0  0  0  0
  184.7440  178.5130  144.9510 C   0  0  0  0  0  2  0  0  0  0  0  0
  186.2080  177.9910  143.0510 C   0  0  1  0  0  3  0  0  0  0  0  0
  182.1060  179.1770  143.5240 C   0  0  0  0  0  0  0  0  0  0  0  0
  181.9110  178.2160  144.3110 O   0  0  0  0  0  0  0  0  0  0  0  0
  183.2320  180.0410  143.7140 N   0  0  0  0  0  2  0  0  0  0  0  0
  181.1640  179.4750  142.4190 C   0  0  0  0  0  0  0  0  0  0  0  0
  180.2490  179.1610  140.1040 C   0  0  0  0  0  2  0  0  0  0  0  0
  181.9950  178.5450  138.3890 N   0  0  0  0  0  0  0  0  0  0  0  0
  183.1780  179.1900  138.3340 O   0  0  0  0  0  1  0  0  0  0  0  0
  182.1590  177.4070  139.3170 C   0  0  0  0  0  2  0  0  0  0  0  0
  180.9840  179.5340  138.8120 C   0  0  0  0  0  2  0  0  0  0  0  0
  182.2940  177.8660  140.7790 C   0  0  0  0  0  2  0  0  0  0  0  0
  181.2340  178.8140  141.1310 N   0  0  0  0  0  0  0  0  0  0  0  0
  180.2900  180.3760  142.6060 O   0  0  0  0  0  0  0  0  0  0  0  0
  1 26  1  0  0  0  0
  1  2  2  0  0  0  0
  2 14  1  0  0  0  0
  3  8  1  0  0  0  0
  4  3  2  0  0  0  0
  5  6  2  0  0  0  0
  6  1  1  0  0  0  0
  7  3  1  0  0  0  0
  8  6  1  0  0  0  0
 10 12  1  0  0  0  0
 11 13  1  0  0  0  0
 11 10  1  0  0  0  0
 11  9  1  1  0  0  0
 12  4  1  1  0  0  0
 13 12  1  0  0  0  0
 14 15  1  0  0  0  0
 15 21  1  1  0  0  0
 15 20  1  0  0  0  0
 16 19  1  0  0  0  0
 17 19  2  0  0  0  0
 18 17  1  0  0  0  0
 20 18  2  0  0  0  0
 20 16  1  0  0  0  0
 21 22  1  0  0  0  0
 22 23  1  0  0  0  0
 23 25  1  0  0  0  0
 24 22  2  0  0  0  0
 27 34  1  6  0  0  0
 27 30  1  0  0  0  0
 28 30  1  0  0  0  0
 29 31  1  0  0  0  0
 29 27  1  0  0  0  0
 31 26  1  1  0  0  0
 31 28  1  0  0  0  0
 32 34  1  0  0  0  0
 32 33  2  0  0  0  0
 35 43  2  0  0  0  0
 35 32  1  0  0  0  0
 36 42  1  0  0  0  0
 37 40  1  0  0  0  0
 37 39  1  0  0  0  0
 38 37  1  0  0  0  0
 39 41  1  0  0  0  0
 40 36  1  0  0  0  0
 41 42  1  0  0  0  0
 42 35  1  0  0  0  0
M  END
>  <MODEL>
1

>  <REMARK>
 VINA RESULT:      -8.5      0.000      0.000
  Name = 
  11 active torsions:
  status: ('A' for Active; 'I' for Inactive)
    1  A    between atoms: C_1  and  C_11
    2  A    between atoms: C_6  and  C_23
    3  A    between atoms: C_7  and  C_11
    4  A    between atoms: C_7  and  N_13
    5  A    between atoms: C_7  and  C_38
    6  A    between atoms: C_8  and  N_40
    7  A    between atoms: N_10  and  C_24
    8  A    between atoms: N_13  and  C_43
    9  A    between atoms: C_17  and  C_32
   10  A    between atoms: C_17  and  C_37
   11  A    between atoms: C_36  and  C_37
                            x       y       z     vdW  Elec       q    Type
                         _______ _______ _______ _____ _____    ______ ____

>  <TORSDO>
F 11

$$$$
=
 OpenBabel10222415183D

 43 46  0  0  1  0  0  0  0  0999 V2000
  186.8430  178.5640  140.2970 C   0  0  0  0  0  0  0  0  0  0  0  0
  186.9150  178.4920  141.6260 C   0  0  0  0  0  3  0  0  0  0  0  0
  182.9820  178.7370  139.9010 C   0  0  0  0  0  0  0  0  0  0  0  0
  182.0050  178.6780  140.7600 N   0  0  0  0  0  0  0  0  0  0  0  0
  185.5030  178.9640  138.3880 O   0  0  0  0  0  0  0  0  0  0  0  0
  185.5400  178.7390  139.6290 C   0  0  0  0  0  0  0  0  0  0  0  0
  182.7100  178.9000  138.4400 C   0  0  0  0  0  1  0  0  0  0  0  0
  184.3230  178.6490  140.4000 N   0  0  0  0  0  2  0  0  0  0  0  0
  179.4310  178.9590  143.5510 C   0  0  0  0  0  1  0  0  0  0  0  0
  179.6850  177.4530  141.2950 S   0  0  0  0  0  0  0  0  0  0  0  0
  178.9900  178.9200  142.1050 C   0  0  2  0  0  3  0  0  0  0  0  0
  180.5890  178.7630  140.4150 C   0  0  1  0  0  3  0  0  0  0  0  0
  179.8490  180.2320  141.1910 S   0  0  0  0  0  0  0  0  0  0  0  0
  188.1720  178.3300  142.2820 N   0  0  0  0  0  2  0  0  0  0  0  0
  188.6560  177.0510  142.7680 C   0  0  1  0  0  3  0  0  0  0  0  0
  190.5800  176.3760  144.1760 O   0  0  0  0  0  0  0  0  0  0  0  0
  191.7300  178.2420  144.3090 C   0  0  0  0  0  3  0  0  0  0  0  0
  190.6330  178.4840  143.5030 C   0  0  0  0  0  3  0  0  0  0  0  0
  191.6510  176.9150  144.7040 C   0  0  0  0  0  3  0  0  0  0  0  0
  189.9610  177.2820  143.4610 C   0  0  0  0  0  0  0  0  0  0  0  0
  187.6330  176.4340  143.7240 C   0  0  0  0  0  2  0  0  0  0  0  0
  187.2300  177.4120  144.7770 C   0  0  0  0  0  0  0  0  0  0  0  0
  185.9230  177.9880  144.7410 N   0  0  0  0  0  2  0  0  0  0  0  0
  188.0540  177.7580  145.6630 O   0  0  0  0  0  0  0  0  0  0  0  0
  185.5090  179.0180  145.6790 C   0  0  0  0  0  1  0  0  0  0  0  0
  188.1030  178.4620  139.4780 C   0  0  0  0  0  2  0  0  0  0  0  0
  190.4550  176.8160  137.7730 C   0  0  2  0  0  3  0  0  0  0  0  0
  188.1110  177.0190  137.3760 C   0  0  0  0  0  2  0  0  0  0  0  0
  189.7780  176.6780  139.1200 C   0  0  0  0  0  2  0  0  0  0  0  0
  189.3920  176.5060  136.7500 C   0  0  0  0  0  2  0  0  0  0  0  0
  188.3290  177.0620  138.8910 C   0  0  1  0  0  3  0  0  0  0  0  0
  192.9750  176.3730  137.7890 C   0  0  0  0  0  0  0  0  0  0  0  0
  193.3290  177.1150  138.7400 O   0  0  0  0  0  0  0  0  0  0  0  0
  191.6140  175.9360  137.6920 N   0  0  0  0  0  2  0  0  0  0  0  0
  193.9470  175.8920  136.7790 C   0  0  0  0  0  0  0  0  0  0  0  0
  195.9350  174.5530  136.0380 C   0  0  0  0  0  2  0  0  0  0  0  0
  197.7170  174.3030  137.8070 N   0  0  0  0  0  0  0  0  0  0  0  0
  198.1210  175.3570  138.5450 O   0  0  0  0  0  1  0  0  0  0  0  0
  196.5850  173.6770  138.5180 C   0  0  0  0  0  2  0  0  0  0  0  0
  197.3810  174.8200  136.4650 C   0  0  0  0  0  2  0  0  0  0  0  0
  195.3180  174.5490  138.4730 C   0  0  0  0  0  2  0  0  0  0  0  0
  195.0320  174.9890  137.1060 N   0  0  0  0  0  0  0  0  0  0  0  0
  193.8390  176.3260  135.5910 O   0  0  0  0  0  0  0  0  0  0  0  0
  1  2  2  0  0  0  0
  2 14  1  0  0  0  0
  3  8  1  0  0  0  0
  3  4  2  0  0  0  0
  5  6  2  0  0  0  0
  6  1  1  0  0  0  0
  6  8  1  0  0  0  0
  7  3  1  0  0  0  0
 10 11  1  0  0  0  0
 11  9  1  1  0  0  0
 12  4  1  1  0  0  0
 12 13  1  0  0  0  0
 12 10  1  0  0  0  0
 13 11  1  0  0  0  0
 14 15  1  0  0  0  0
 15 20  1  0  0  0  0
 15 21  1  1  0  0  0
 16 19  1  0  0  0  0
 17 19  2  0  0  0  0
 18 17  1  0  0  0  0
 20 18  2  0  0  0  0
 20 16  1  0  0  0  0
 21 22  1  0  0  0  0
 22 24  2  0  0  0  0
 23 22  1  0  0  0  0
 23 25  1  0  0  0  0
 26  1  1  0  0  0  0
 27 34  1  1  0  0  0
 27 29  1  0  0  0  0
 28 31  1  0  0  0  0
 30 28  1  0  0  0  0
 30 27  1  0  0  0  0
 31 29  1  0  0  0  0
 31 26  1  6  0  0  0
 32 33  2  0  0  0  0
 34 32  1  0  0  0  0
 35 42  1  0  0  0  0
 35 32  1  0  0  0  0
 36 40  1  0  0  0  0
 36 42  1  0  0  0  0
 37 39  1  0  0  0  0
 37 38  1  0  0  0  0
 40 37  1  0  0  0  0
 41 39  1  0  0  0  0
 42 41  1  0  0  0  0
 43 35  2  0  0  0  0
M  END
>  <MODEL>
2

>  <REMARK>
 VINA RESULT:      -8.4      4.185     10.293
  Name = 
  11 active torsions:
  status: ('A' for Active; 'I' for Inactive)
    1  A    between atoms: C_1  and  C_11
    2  A    between atoms: C_6  and  C_23
    3  A    between atoms: C_7  and  C_11
    4  A    between atoms: C_7  and  N_13
    5  A    between atoms: C_7  and  C_38
    6  A    between atoms: C_8  and  N_40
    7  A    between atoms: N_10  and  C_24
    8  A    between atoms: N_13  and  C_43
    9  A    between atoms: C_17  and  C_32
   10  A    between atoms: C_17  and  C_37
   11  A    between atoms: C_36  and  C_37
                            x       y       z     vdW  Elec       q    Type
                         _______ _______ _______ _____ _____    ______ ____

>  <TORSDO>
F 11

$$$$
=
 OpenBabel10222415183D

 43 46  0  0  1  0  0  0  0  0999 V2000
  184.4130  178.5920  140.7670 C   0  0  0  0  0  0  0  0  0  0  0  0
  185.4130  179.0350  140.0050 C   0  0  0  0  0  3  0  0  0  0  0  0
  181.4330  180.1770  138.8440 C   0  0  0  0  0  0  0  0  0  0  0  0
  181.3710  180.9560  137.8020 N   0  0  0  0  0  0  0  0  0  0  0  0
  182.0780  178.3210  141.0420 O   0  0  0  0  0  0  0  0  0  0  0  0
  183.0130  178.8670  140.3950 C   0  0  0  0  0  0  0  0  0  0  0  0
  180.1880  179.7270  139.5400 C   0  0  0  0  0  1  0  0  0  0  0  0
  182.7270  179.7600  139.2980 N   0  0  0  0  0  2  0  0  0  0  0  0
  181.2730  184.5160  136.4550 C   0  0  0  0  0  1  0  0  0  0  0  0
  179.6630  183.0030  138.0500 S   0  0  0  0  0  0  0  0  0  0  0  0
  180.0410  183.6410  136.3940 C   0  0  2  0  0  3  0  0  0  0  0  0
  180.1340  181.4590  137.2130 C   0  0  1  0  0  3  0  0  0  0  0  0
  180.4580  182.0950  135.5400 S   0  0  0  0  0  0  0  0  0  0  0  0
  186.7710  178.7660  140.3530 N   0  0  0  0  0  2  0  0  0  0  0  0
  187.6230  177.8680  139.5950 C   0  0  1  0  0  3  0  0  0  0  0  0
  187.5000  178.9720  137.3800 O   0  0  0  0  0  0  0  0  0  0  0  0
  186.2780  177.5570  136.2270 C   0  0  0  0  0  3  0  0  0  0  0  0
  186.4530  177.0240  137.4920 C   0  0  0  0  0  3  0  0  0  0  0  0
  186.9480  178.7710  136.2090 C   0  0  0  0  0  3  0  0  0  0  0  0
  187.2230  177.9540  138.1570 C   0  0  0  0  0  0  0  0  0  0  0  0
  189.0910  178.2590  139.7770 C   0  0  0  0  0  2  0  0  0  0  0  0
  189.9940  177.2140  139.2120 C   0  0  0  0  0  0  0  0  0  0  0  0
  190.4840  177.3520  137.8780 N   0  0  0  0  0  2  0  0  0  0  0  0
  190.2850  176.1970  139.8960 O   0  0  0  0  0  0  0  0  0  0  0  0
  191.2850  176.3190  137.2400 C   0  0  0  0  0  1  0  0  0  0  0  0
  184.7220  177.8090  142.0170 C   0  0  0  0  0  2  0  0  0  0  0  0
  185.6410  177.4910  145.2110 C   0  0  2  0  0  3  0  0  0  0  0  0
  184.3570  179.1880  144.1320 C   0  0  0  0  0  2  0  0  0  0  0  0
  186.3310  177.7780  143.8950 C   0  0  0  0  0  2  0  0  0  0  0  0
  184.7940  178.7030  145.5000 C   0  0  0  0  0  2  0  0  0  0  0  0
  185.3740  178.6600  143.1160 C   0  0  1  0  0  3  0  0  0  0  0  0
  187.6300  178.1260  146.6900 C   0  0  0  0  0  0  0  0  0  0  0  0
  187.3120  179.3010  147.0050 O   0  0  0  0  0  0  0  0  0  0  0  0
  186.6230  177.2070  146.2500 N   0  0  0  0  0  2  0  0  0  0  0  0
  189.0260  177.6430  146.8100 C   0  0  0  0  0  0  0  0  0  0  0  0
  191.3170  177.1580  145.9110 C   0  0  0  0  0  2  0  0  0  0  0  0
  191.3410  176.4860  143.4790 N   0  0  0  0  0  0  0  0  0  0  0  0
  190.4570  175.5910  142.9930 O   0  0  0  0  0  1  0  0  0  0  0  0
  190.7270  177.8240  143.3520 C   0  0  0  0  0  2  0  0  0  0  0  0
  191.6420  176.0850  144.8670 C   0  0  0  0  0  2  0  0  0  0  0  0
  189.5620  178.0220  144.3360 C   0  0  0  0  0  2  0  0  0  0  0  0
  189.9500  177.6390  145.6940 N   0  0  0  0  0  0  0  0  0  0  0  0
  189.4030  177.1790  147.9290 O   0  0  0  0  0  0  0  0  0  0  0  0
  1 26  1  0  0  0  0
  2 14  1  0  0  0  0
  2  1  2  0  0  0  0
  3  8  1  0  0  0  0
  3  7  1  0  0  0  0
  4  3  2  0  0  0  0
  6  1  1  0  0  0  0
  6  5  2  0  0  0  0
  8  6  1  0  0  0  0
 11  9  1  1  0  0  0
 11 10  1  0  0  0  0
 12  4  1  1  0  0  0
 12 10  1  0  0  0  0
 13 11  1  0  0  0  0
 13 12  1  0  0  0  0
 15 21  1  6  0  0  0
 15 14  1  0  0  0  0
 16 20  1  0  0  0  0
 17 18  1  0  0  0  0
 18 20  2  0  0  0  0
 19 17  2  0  0  0  0
 19 16  1  0  0  0  0
 20 15  1  0  0  0  0
 22 21  1  0  0  0  0
 22 24  2  0  0  0  0
 23 22  1  0  0  0  0
 25 23  1  0  0  0  0
 27 30  1  0  0  0  0
 27 34  1  1  0  0  0
 28 30  1  0  0  0  0
 29 27  1  0  0  0  0
 31 26  1  6  0  0  0
 31 29  1  0  0  0  0
 31 28  1  0  0  0  0
 32 35  1  0  0  0  0
 32 33  2  0  0  0  0
 34 32  1  0  0  0  0
 35 43  2  0  0  0  0
 37 40  1  0  0  0  0
 38 37  1  0  0  0  0
 39 37  1  0  0  0  0
 39 41  1  0  0  0  0
 40 36  1  0  0  0  0
 41 42  1  0  0  0  0
 42 36  1  0  0  0  0
 42 35  1  0  0  0  0
M  END
>  <MODEL>
3

>  <REMARK>
 VINA RESULT:      -8.2      3.858      9.271
  Name = 
  11 active torsions:
  status: ('A' for Active; 'I' for Inactive)
    1  A    between atoms: C_1  and  C_11
    2  A    between atoms: C_6  and  C_23
    3  A    between atoms: C_7  and  C_11
    4  A    between atoms: C_7  and  N_13
    5  A    between atoms: C_7  and  C_38
    6  A    between atoms: C_8  and  N_40
    7  A    between atoms: N_10  and  C_24
    8  A    between atoms: N_13  and  C_43
    9  A    between atoms: C_17  and  C_32
   10  A    between atoms: C_17  and  C_37
   11  A    between atoms: C_36  and  C_37
                            x       y       z     vdW  Elec       q    Type
                         _______ _______ _______ _____ _____    ______ ____

>  <TORSDO>
F 11

$$$$
=
 OpenBabel10222415183D

 43 46  0  0  1  0  0  0  0  0999 V2000
  184.0590  178.8200  140.2770 C   0  0  0  0  0  0  0  0  0  0  0  0
  184.9040  179.1140  139.2880 C   0  0  0  0  0  3  0  0  0  0  0  0
  180.9770  180.8340  139.0390 C   0  0  0  0  0  0  0  0  0  0  0  0
  180.7440  181.5060  137.9480 N   0  0  0  0  0  0  0  0  0  0  0  0
  181.9110  179.0970  141.2300 O   0  0  0  0  0  0  0  0  0  0  0  0
  182.6870  179.3610  140.2720 C   0  0  0  0  0  0  0  0  0  0  0  0
  179.9430  180.7380  140.1150 C   0  0  0  0  0  1  0  0  0  0  0  0
  182.2490  180.1860  139.1730 N   0  0  0  0  0  2  0  0  0  0  0  0
  180.7370  184.2250  135.2820 C   0  0  0  0  0  1  0  0  0  0  0  0
  179.7790  184.0000  137.8240 S   0  0  0  0  0  0  0  0  0  0  0  0
  179.4700  183.8920  136.0390 C   0  0  2  0  0  3  0  0  0  0  0  0
  179.5000  182.2110  137.6560 C   0  0  1  0  0  3  0  0  0  0  0  0
  179.1360  182.1150  135.8760 S   0  0  0  0  0  0  0  0  0  0  0  0
  186.2310  178.5880  139.2810 N   0  0  0  0  0  2  0  0  0  0  0  0
  186.8960  178.1270  138.0760 C   0  0  1  0  0  3  0  0  0  0  0  0
  189.1940  177.3530  137.5650 O   0  0  0  0  0  0  0  0  0  0  0  0
  190.1570  177.4360  139.5370 C   0  0  0  0  0  3  0  0  0  0  0  0
  188.8590  177.8900  139.6860 C   0  0  0  0  0  3  0  0  0  0  0  0
  190.3160  177.1130  138.1980 C   0  0  0  0  0  3  0  0  0  0  0  0
  188.3170  177.8130  138.4220 C   0  0  0  0  0  0  0  0  0  0  0  0
  186.1830  176.8910  137.5240 C   0  0  0  0  0  2  0  0  0  0  0  0
  185.5870  177.1730  136.1860 C   0  0  0  0  0  0  0  0  0  0  0  0
  184.1690  177.1110  136.0190 N   0  0  0  0  0  2  0  0  0  0  0  0
  186.3330  177.4210  135.2030 O   0  0  0  0  0  0  0  0  0  0  0  0
  183.5380  177.2780  134.7200 C   0  0  0  0  0  1  0  0  0  0  0  0
  184.5160  177.9310  141.4050 C   0  0  0  0  0  2  0  0  0  0  0  0
  185.5160  177.6490  144.5770 C   0  0  2  0  0  3  0  0  0  0  0  0
  184.7530  179.5530  143.3580 C   0  0  0  0  0  2  0  0  0  0  0  0
  186.1650  177.5720  143.2120 C   0  0  0  0  0  2  0  0  0  0  0  0
  185.1130  179.0900  144.7560 C   0  0  0  0  0  2  0  0  0  0  0  0
  185.4780  178.6320  142.3730 C   0  0  1  0  0  3  0  0  0  0  0  0
  187.3080  178.0070  146.3690 C   0  0  0  0  0  0  0  0  0  0  0  0
  186.8560  179.0320  146.9400 O   0  0  0  0  0  0  0  0  0  0  0  0
  186.4320  177.1700  145.6050 N   0  0  0  0  0  2  0  0  0  0  0  0
  188.7280  177.6080  146.5050 C   0  0  0  0  0  0  0  0  0  0  0  0
  191.0670  177.3060  145.6470 C   0  0  0  0  0  2  0  0  0  0  0  0
  191.1900  176.7390  143.1910 N   0  0  0  0  0  0  0  0  0  0  0  0
  190.3760  175.8120  142.6460 O   0  0  0  0  0  1  0  0  0  0  0  0
  190.4950  178.0390  143.1020 C   0  0  0  0  0  2  0  0  0  0  0  0
  191.4830  176.2990  144.5690 C   0  0  0  0  0  2  0  0  0  0  0  0
  189.2970  178.1230  144.0620 C   0  0  0  0  0  2  0  0  0  0  0  0
  189.6770  177.7080  145.4140 N   0  0  0  0  0  0  0  0  0  0  0  0
  189.1090  177.1220  147.6140 O   0  0  0  0  0  0  0  0  0  0  0  0
  1 26  1  0  0  0  0
  2  1  2  0  0  0  0
  3  8  1  0  0  0  0
  3  7  1  0  0  0  0
  4  3  2  0  0  0  0
  6  1  1  0  0  0  0
  6  5  2  0  0  0  0
  8  6  1  0  0  0  0
 11  9  1  6  0  0  0
 11 10  1  0  0  0  0
 12 10  1  0  0  0  0
 12  4  1  6  0  0  0
 13 11  1  0  0  0  0
 13 12  1  0  0  0  0
 14  2  1  0  0  0  0
 15 21  1  1  0  0  0
 15 20  1  0  0  0  0
 15 14  1  0  0  0  0
 16 19  1  0  0  0  0
 16 20  1  0  0  0  0
 17 18  1  0  0  0  0
 19 17  2  0  0  0  0
 20 18  2  0  0  0  0
 22 21  1  0  0  0  0
 23 22  1  0  0  0  0
 24 22  2  0  0  0  0
 25 23  1  0  0  0  0
 27 30  1  0  0  0  0
 27 34  1  1  0  0  0
 28 30  1  0  0  0  0
 29 27  1  0  0  0  0
 31 26  1  6  0  0  0
 31 29  1  0  0  0  0
 31 28  1  0  0  0  0
 32 35  1  0  0  0  0
 32 33  2  0  0  0  0
 34 32  1  0  0  0  0
 35 43  2  0  0  0  0
 37 40  1  0  0  0  0
 38 37  1  0  0  0  0
 39 37  1  0  0  0  0
 39 41  1  0  0  0  0
 40 36  1  0  0  0  0
 41 42  1  0  0  0  0
 42 36  1  0  0  0  0
 42 35  1  0  0  0  0
M  END
>  <MODEL>
4

>  <REMARK>
 VINA RESULT:      -8.0      4.194      9.812
  Name = 
  11 active torsions:
  status: ('A' for Active; 'I' for Inactive)
    1  A    between atoms: C_1  and  C_11
    2  A    between atoms: C_6  and  C_23
    3  A    between atoms: C_7  and  C_11
    4  A    between atoms: C_7  and  N_13
    5  A    between atoms: C_7  and  C_38
    6  A    between atoms: C_8  and  N_40
    7  A    between atoms: N_10  and  C_24
    8  A    between atoms: N_13  and  C_43
    9  A    between atoms: C_17  and  C_32
   10  A    between atoms: C_17  and  C_37
   11  A    between atoms: C_36  and  C_37
                            x       y       z     vdW  Elec       q    Type
                         _______ _______ _______ _____ _____    ______ ____

>  <TORSDO>
F 11

$$$$
=
 OpenBabel10222415183D

 43 46  0  0  1  0  0  0  0  0999 V2000
  187.9680  178.0400  139.5420 C   0  0  0  0  0  0  0  0  0  0  0  0
  186.6760  178.2540  139.7870 C   0  0  0  0  0  3  0  0  0  0  0  0
  190.3650  176.3480  136.9950 C   0  0  0  0  0  0  0  0  0  0  0  0
  191.6520  176.1520  136.9930 N   0  0  0  0  0  0  0  0  0  0  0  0
  187.5150  176.8870  137.5260 O   0  0  0  0  0  0  0  0  0  0  0  0
  188.3870  177.2850  138.3460 C   0  0  0  0  0  0  0  0  0  0  0  0
  189.5170  175.8850  135.8540 C   0  0  0  0  0  1  0  0  0  0  0  0
  189.7860  177.0140  138.1250 N   0  0  0  0  0  2  0  0  0  0  0  0
  194.8070  174.2040  137.8580 C   0  0  0  0  0  1  0  0  0  0  0  0
  194.1210  176.0380  135.9630 S   0  0  0  0  0  0  0  0  0  0  0  0
  194.3340  174.2970  136.4240 C   0  0  2  0  0  3  0  0  0  0  0  0
  192.3890  175.4840  135.9250 C   0  0  1  0  0  3  0  0  0  0  0  0
  192.6130  173.7250  136.3340 S   0  0  0  0  0  0  0  0  0  0  0  0
  186.2620  178.9910  140.9380 N   0  0  0  0  0  2  0  0  0  0  0  0
  184.8730  179.1240  141.3380 C   0  0  1  0  0  3  0  0  0  0  0  0
  183.5280  177.5020  140.0340 O   0  0  0  0  0  0  0  0  0  0  0  0
  182.9670  178.6820  138.2700 C   0  0  0  0  0  3  0  0  0  0  0  0
  183.7000  179.5040  139.1060 C   0  0  0  0  0  3  0  0  0  0  0  0
  182.8890  177.4460  138.8920 C   0  0  0  0  0  3  0  0  0  0  0  0
  184.0170  178.7080  140.1850 C   0  0  0  0  0  0  0  0  0  0  0  0
  184.5960  178.2530  142.5650 C   0  0  0  0  0  2  0  0  0  0  0  0
  183.4660  178.8060  143.3660 C   0  0  0  0  0  0  0  0  0  0  0  0
  182.1240  178.6280  142.9100 N   0  0  0  0  0  2  0  0  0  0  0  0
  183.6990  179.4630  144.4150 O   0  0  0  0  0  0  0  0  0  0  0  0
  180.9900  179.2280  143.5930 C   0  0  0  0  0  1  0  0  0  0  0  0
  189.0040  178.5730  140.4980 C   0  0  0  0  0  2  0  0  0  0  0  0
  191.0080  178.3640  143.1600 C   0  0  2  0  0  3  0  0  0  0  0  0
  191.0710  177.1970  141.0810 C   0  0  0  0  0  2  0  0  0  0  0  0
  189.5770  177.9940  142.8330 C   0  0  0  0  0  2  0  0  0  0  0  0
  191.8660  177.4280  142.3500 C   0  0  0  0  0  2  0  0  0  0  0  0
  189.6030  177.4880  141.4040 C   0  0  1  0  0  3  0  0  0  0  0  0
  191.1130  177.0720  145.3660 C   0  0  0  0  0  0  0  0  0  0  0  0
  191.6810  176.0170  144.9840 O   0  0  0  0  0  0  0  0  0  0  0  0
  191.2430  178.2730  144.5960 N   0  0  0  0  0  2  0  0  0  0  0  0
  190.3440  177.1220  146.6320 C   0  0  0  0  0  0  0  0  0  0  0  0
  188.2220  177.1270  147.9700 C   0  0  0  0  0  2  0  0  0  0  0  0
  186.2760  178.2260  146.7970 N   0  0  0  0  0  0  0  0  0  0  0  0
  186.4210  179.4050  146.1590 O   0  0  0  0  0  1  0  0  0  0  0  0
  186.5720  177.1590  145.8210 C   0  0  0  0  0  2  0  0  0  0  0  0
  187.1820  178.2530  147.9630 C   0  0  0  0  0  2  0  0  0  0  0  0
  188.0670  177.0990  145.4630 C   0  0  0  0  0  2  0  0  0  0  0  0
  188.8960  177.0900  146.6700 N   0  0  0  0  0  0  0  0  0  0  0  0
  190.9900  177.2390  147.7190 O   0  0  0  0  0  0  0  0  0  0  0  0
  1  2  2  0  0  0  0
  1 26  1  0  0  0  0
  2 14  1  0  0  0  0
  3  8  1  0  0  0  0
  4  3  2  0  0  0  0
  5  6  2  0  0  0  0
  6  1  1  0  0  0  0
  7  3  1  0  0  0  0
  8  6  1  0  0  0  0
 10 11  1  0  0  0  0
 11  9  1  1  0  0  0
 12 10  1  0  0  0  0
 12 13  1  0  0  0  0
 12  4  1  1  0  0  0
 13 11  1  0  0  0  0
 14 15  1  0  0  0  0
 15 21  1  1  0  0  0
 16 20  1  0  0  0  0
 17 19  2  0  0  0  0
 17 18  1  0  0  0  0
 18 20  2  0  0  0  0
 19 16  1  0  0  0  0
 20 15  1  0  0  0  0
 21 22  1  0  0  0  0
 22 24  2  0  0  0  0
 23 22  1  0  0  0  0
 23 25  1  0  0  0  0
 27 34  1  1  0  0  0
 28 31  1  0  0  0  0
 28 30  1  0  0  0  0
 29 27  1  0  0  0  0
 30 27  1  0  0  0  0
 31 26  1  6  0  0  0
 31 29  1  0  0  0  0
 32 35  1  0  0  0  0
 33 32  2  0  0  0  0
 34 32  1  0  0  0  0
 35 42  1  0  0  0  0
 35 43  2  0  0  0  0
 37 40  1  0  0  0  0
 38 37  1  0  0  0  0
 39 37  1  0  0  0  0
 40 36  1  0  0  0  0
 41 39  1  0  0  0  0
 41 42  1  0  0  0  0
 42 36  1  0  0  0  0
M  END
>  <MODEL>
5

>  <REMARK>
 VINA RESULT:      -8.0      1.954      7.546
  Name = 
  11 active torsions:
  status: ('A' for Active; 'I' for Inactive)
    1  A    between atoms: C_1  and  C_11
    2  A    between atoms: C_6  and  C_23
    3  A    between atoms: C_7  and  C_11
    4  A    between atoms: C_7  and  N_13
    5  A    between atoms: C_7  and  C_38
    6  A    between atoms: C_8  and  N_40
    7  A    between atoms: N_10  and  C_24
    8  A    between atoms: N_13  and  C_43
    9  A    between atoms: C_17  and  C_32
   10  A    between atoms: C_17  and  C_37
   11  A    between atoms: C_36  and  C_37
                            x       y       z     vdW  Elec       q    Type
                         _______ _______ _______ _____ _____    ______ ____

>  <TORSDO>
F 11

$$$$
=
 OpenBabel10222415183D

 43 46  0  0  1  0  0  0  0  0999 V2000
  187.7190  177.9030  137.9540 C   0  0  0  0  0  0  0  0  0  0  0  0
  186.4180  178.1890  137.9180 C   0  0  0  0  0  3  0  0  0  0  0  0
  190.4960  176.0130  136.0030 C   0  0  0  0  0  0  0  0  0  0  0  0
  191.7550  175.7950  136.2520 N   0  0  0  0  0  0  0  0  0  0  0  0
  187.6130  176.6320  135.9620 O   0  0  0  0  0  0  0  0  0  0  0  0
  188.3300  177.0670  136.9040 C   0  0  0  0  0  0  0  0  0  0  0  0
  189.8610  175.4920  134.7540 C   0  0  0  0  0  1  0  0  0  0  0  0
  189.7380  176.7580  136.9650 N   0  0  0  0  0  2  0  0  0  0  0  0
  195.0450  174.5000  137.6670 C   0  0  0  0  0  1  0  0  0  0  0  0
  194.2970  175.8350  135.4120 S   0  0  0  0  0  0  0  0  0  0  0  0
  194.6860  174.2560  136.2180 C   0  0  2  0  0  3  0  0  0  0  0  0
  192.6580  175.0480  135.3820 C   0  0  1  0  0  3  0  0  0  0  0  0
  193.0650  173.4450  136.1410 S   0  0  0  0  0  0  0  0  0  0  0  0
  185.8200  179.0040  138.9260 N   0  0  0  0  0  2  0  0  0  0  0  0
  184.5140  178.7310  139.4970 C   0  0  1  0  0  3  0  0  0  0  0  0
  185.3450  179.6900  141.6250 O   0  0  0  0  0  0  0  0  0  0  0  0
  184.5320  178.2920  143.1100 C   0  0  0  0  0  3  0  0  0  0  0  0
  184.0970  177.8780  141.8640 C   0  0  0  0  0  3  0  0  0  0  0  0
  185.3070  179.4240  142.9070 C   0  0  0  0  0  3  0  0  0  0  0  0
  184.6380  178.7920  140.9860 C   0  0  0  0  0  0  0  0  0  0  0  0
  183.4960  179.7550  138.9930 C   0  0  0  0  0  2  0  0  0  0  0  0
  182.1450  179.1380  138.8510 C   0  0  0  0  0  0  0  0  0  0  0  0
  181.2020  179.2540  139.9170 N   0  0  0  0  0  2  0  0  0  0  0  0
  181.8580  178.4830  137.8150 O   0  0  0  0  0  0  0  0  0  0  0  0
  179.9080  178.5910  139.8780 C   0  0  0  0  0  1  0  0  0  0  0  0
  188.5660  178.4380  139.0810 C   0  0  0  0  0  2  0  0  0  0  0  0
  189.9090  178.3750  142.1360 C   0  0  2  0  0  3  0  0  0  0  0  0
  189.9150  176.7300  140.4090 C   0  0  0  0  0  2  0  0  0  0  0  0
  188.5130  178.3620  141.5520 C   0  0  0  0  0  2  0  0  0  0  0  0
  190.5200  177.0500  141.7620 C   0  0  0  0  0  2  0  0  0  0  0  0
  188.6010  177.5090  140.3020 C   0  0  1  0  0  3  0  0  0  0  0  0
  190.9100  178.2770  144.4890 C   0  0  0  0  0  0  0  0  0  0  0  0
  192.0870  178.6480  144.2510 O   0  0  0  0  0  0  0  0  0  0  0  0
  189.8570  178.6060  143.5750 N   0  0  0  0  0  2  0  0  0  0  0  0
  190.5660  177.5420  145.7290 C   0  0  0  0  0  0  0  0  0  0  0  0
  188.9550  176.5670  147.3870 C   0  0  0  0  0  2  0  0  0  0  0  0
  186.8130  177.8800  147.6250 N   0  0  0  0  0  0  0  0  0  0  0  0
  186.8260  179.2240  147.7320 O   0  0  0  0  0  1  0  0  0  0  0  0
  186.7350  177.5540  146.1870 C   0  0  0  0  0  2  0  0  0  0  0  0
  188.0300  177.3830  148.2960 C   0  0  0  0  0  2  0  0  0  0  0  0
  188.0440  177.8790  145.4470 C   0  0  0  0  0  2  0  0  0  0  0  0
  189.1990  177.3200  146.1540 N   0  0  0  0  0  0  0  0  0  0  0  0
  191.5170  177.1310  146.4630 O   0  0  0  0  0  0  0  0  0  0  0  0
  1 26  1  0  0  0  0
  2  1  2  0  0  0  0
  2 14  1  0  0  0  0
  3  4  2  0  0  0  0
  3  8  1  0  0  0  0
  5  6  2  0  0  0  0
  6  8  1  0  0  0  0
  6  1  1  0  0  0  0
  7  3  1  0  0  0  0
 10 11  1  0  0  0  0
 11  9  1  1  0  0  0
 12 10  1  0  0  0  0
 12 13  1  0  0  0  0
 12  4  1  1  0  0  0
 13 11  1  0  0  0  0
 14 15  1  0  0  0  0
 15 21  1  6  0  0  0
 15 20  1  0  0  0  0
 16 19  1  0  0  0  0
 18 17  1  0  0  0  0
 19 17  2  0  0  0  0
 20 16  1  0  0  0  0
 20 18  2  0  0  0  0
 22 21  1  0  0  0  0
 22 23  1  0  0  0  0
 24 22  2  0  0  0  0
 25 23  1  0  0  0  0
 27 34  1  1  0  0  0
 28 30  1  0  0  0  0
 29 27  1  0  0  0  0
 30 27  1  0  0  0  0
 31 26  1  6  0  0  0
 31 28  1  0  0  0  0
 31 29  1  0  0  0  0
 32 35  1  0  0  0  0
 33 32  2  0  0  0  0
 34 32  1  0  0  0  0
 35 42  1  0  0  0  0
 35 43  2  0  0  0  0
 36 40  1  0  0  0  0
 37 38  1  0  0  0  0
 37 40  1  0  0  0  0
 39 37  1  0  0  0  0
 41 42  1  0  0  0  0
 41 39  1  0  0  0  0
 42 36  1  0  0  0  0
M  END
>  <MODEL>
6

>  <REMARK>
 VINA RESULT:      -8.0      2.176      7.822
  Name = 
  11 active torsions:
  status: ('A' for Active; 'I' for Inactive)
    1  A    between atoms: C_1  and  C_11
    2  A    between atoms: C_6  and  C_23
    3  A    between atoms: C_7  and  C_11
    4  A    between atoms: C_7  and  N_13
    5  A    between atoms: C_7  and  C_38
    6  A    between atoms: C_8  and  N_40
    7  A    between atoms: N_10  and  C_24
    8  A    between atoms: N_13  and  C_43
    9  A    between atoms: C_17  and  C_32
   10  A    between atoms: C_17  and  C_37
   11  A    between atoms: C_36  and  C_37
                            x       y       z     vdW  Elec       q    Type
                         _______ _______ _______ _____ _____    ______ ____

>  <TORSDO>
F 11

$$$$
=
 OpenBabel10222415183D

 43 46  0  0  1  0  0  0  0  0999 V2000
  183.1090  177.5190  137.9750 C   0  0  2  0  0  3  0  0  0  0  0  0
  184.1440  177.2530  137.1780 C   0  0  0  0  0  3  0  0  0  0  0  0
  180.4390  180.2070  137.1180 C   0  0  0  0  0  0  0  0  0  0  0  0
  180.4070  181.4990  137.2770 N   0  0  0  0  0  0  0  0  0  0  0  0
  181.0400  177.3340  136.8420 O   0  0  0  0  0  0  0  0  0  0  0  0
  181.8670  178.0900  137.4200 C   0  0  0  0  0  0  0  0  0  0  0  0
  179.2860  179.4820  136.5000 C   0  0  0  0  0  1  0  0  0  0  0  0
  181.6120  179.5040  137.5470 N   0  0  0  0  0  2  0  0  0  0  0  0
  181.1170  185.0860  136.2140 C   0  0  0  0  0  1  0  0  0  0  0  0
  179.3350  183.8760  137.8840 S   0  0  0  0  0  0  0  0  0  0  0  0
  179.6970  184.5630  136.2440 C   0  0  2  0  0  3  0  0  0  0  0  0
  179.2930  182.3570  136.8840 C   0  0  1  0  0  3  0  0  0  0  0  0
  179.6020  183.0580  135.2340 S   0  0  0  0  0  0  0  0  0  0  0  0
  185.3470  176.6940  137.7060 N   0  0  0  0  0  0  0  0  0  0  0  0
  186.5470  176.5000  136.9120 C   0  0  1  0  0  3  0  0  0  0  0  0
  187.9400  177.4990  138.7010 O   0  0  0  0  0  0  0  0  0  0  0  0
  189.0970  179.0050  137.5970 C   0  0  0  0  0  3  0  0  0  0  0  0
  188.2960  178.3410  136.6850 C   0  0  0  0  0  3  0  0  0  0  0  0
  188.8370  178.4440  138.8390 C   0  0  0  0  0  3  0  0  0  0  0  0
  187.6030  177.4180  137.4380 C   0  0  0  0  0  0  0  0  0  0  0  0
  187.0010  175.0410  136.9980 C   0  0  0  0  0  2  0  0  0  0  0  0
  185.8990  174.1160  136.6000 C   0  0  0  0  0  0  0  0  0  0  0  0
  185.3430  173.2250  137.5680 N   0  0  0  0  0  2  0  0  0  0  0  0
  185.4950  174.0940  135.4080 O   0  0  0  0  0  0  0  0  0  0  0  0
  184.3390  172.2340  137.2160 C   0  0  0  0  0  1  0  0  0  0  0  0
  183.2150  177.2350  139.4510 C   0  0  0  0  0  2  0  0  0  0  0  0
  184.6950  178.0460  142.3320 C   0  0  2  0  0  3  0  0  0  0  0  0
  182.5400  178.6200  141.4840 C   0  0  0  0  0  2  0  0  0  0  0  0
  184.8860  178.3820  140.8690 C   0  0  0  0  0  2  0  0  0  0  0  0
  183.3960  178.6950  142.7330 C   0  0  0  0  0  2  0  0  0  0  0  0
  183.4890  178.4920  140.2890 C   0  0  1  0  0  3  0  0  0  0  0  0
  187.0030  177.7140  143.3870 C   0  0  0  0  0  0  0  0  0  0  0  0
  187.6000  177.1300  142.4470 O   0  0  0  0  0  0  0  0  0  0  0  0
  185.8390  178.5020  143.1130 N   0  0  0  0  0  2  0  0  0  0  0  0
  187.5040  177.6510  144.7800 C   0  0  0  0  0  0  0  0  0  0  0  0
  189.2920  177.8220  146.5320 C   0  0  0  0  0  2  0  0  0  0  0  0
  191.5830  177.1400  145.7250 N   0  0  0  0  0  0  0  0  0  0  0  0
  191.7620  176.0210  144.9920 O   0  0  0  0  0  1  0  0  0  0  0  0
  191.3160  178.2440  144.7820 C   0  0  0  0  0  2  0  0  0  0  0  0
  190.4810  176.8660  146.6680 C   0  0  0  0  0  2  0  0  0  0  0  0
  189.9320  178.1210  144.1210 C   0  0  0  0  0  2  0  0  0  0  0  0
  188.8910  177.8890  145.1240 N   0  0  0  0  0  0  0  0  0  0  0  0
  186.6840  177.3340  145.6960 O   0  0  0  0  0  0  0  0  0  0  0  0
  1  2  1  1  0  0  0
  1 26  1  0  0  0  0
  2 14  2  0  0  0  0
  3  4  2  0  0  0  0
  3  8  1  0  0  0  0
  5  6  2  0  0  0  0
  6  8  1  0  0  0  0
  6  1  1  0  0  0  0
  7  3  1  0  0  0  0
 11  9  1  1  0  0  0
 11 10  1  0  0  0  0
 12  4  1  1  0  0  0
 12 10  1  0  0  0  0
 13 11  1  0  0  0  0
 13 12  1  0  0  0  0
 15 21  1  1  0  0  0
 15 20  1  0  0  0  0
 15 14  1  0  0  0  0
 16 19  1  0  0  0  0
 17 19  2  0  0  0  0
 18 20  2  0  0  0  0
 18 17  1  0  0  0  0
 20 16  1  0  0  0  0
 22 21  1  0  0  0  0
 22 23  1  0  0  0  0
 24 22  2  0  0  0  0
 25 23  1  0  0  0  0
 27 30  1  0  0  0  0
 27 34  1  1  0  0  0
 28 30  1  0  0  0  0
 29 27  1  0  0  0  0
 31 26  1  1  0  0  0
 31 29  1  0  0  0  0
 31 28  1  0  0  0  0
 32 35  1  0  0  0  0
 33 32  2  0  0  0  0
 34 32  1  0  0  0  0
 35 42  1  0  0  0  0
 35 43  2  0  0  0  0
 36 40  1  0  0  0  0
 37 40  1  0  0  0  0
 38 37  1  0  0  0  0
 39 37  1  0  0  0  0
 41 39  1  0  0  0  0
 41 42  1  0  0  0  0
 42 36  1  0  0  0  0
M  END
>  <MODEL>
7

>  <REMARK>
 VINA RESULT:      -7.8      4.475     10.059
  Name = 
  11 active torsions:
  status: ('A' for Active; 'I' for Inactive)
    1  A    between atoms: C_1  and  C_11
    2  A    between atoms: C_6  and  C_23
    3  A    between atoms: C_7  and  C_11
    4  A    between atoms: C_7  and  N_13
    5  A    between atoms: C_7  and  C_38
    6  A    between atoms: C_8  and  N_40
    7  A    between atoms: N_10  and  C_24
    8  A    between atoms: N_13  and  C_43
    9  A    between atoms: C_17  and  C_32
   10  A    between atoms: C_17  and  C_37
   11  A    between atoms: C_36  and  C_37
                            x       y       z     vdW  Elec       q    Type
                         _______ _______ _______ _____ _____    ______ ____

>  <TORSDO>
F 11

$$$$
=
 OpenBabel10222415183D

 43 46  0  0  1  0  0  0  0  0999 V2000
  186.4430  177.8890  142.7050 C   0  0  0  0  0  0  0  0  0  0  0  0
  186.1560  177.8680  144.0070 C   0  0  0  0  0  3  0  0  0  0  0  0
  183.4330  178.4280  140.3100 C   0  0  0  0  0  0  0  0  0  0  0  0
  182.3900  177.7010  140.0290 N   0  0  0  0  0  0  0  0  0  0  0  0
  185.8420  179.7520  141.3750 O   0  0  0  0  0  0  0  0  0  0  0  0
  185.5540  178.5850  141.7560 C   0  0  0  0  0  0  0  0  0  0  0  0
  183.6420  179.7540  139.6520 C   0  0  0  0  0  1  0  0  0  0  0  0
  184.3680  177.9210  141.2710 N   0  0  0  0  0  2  0  0  0  0  0  0
  179.0550  175.8660  140.1240 C   0  0  0  0  0  1  0  0  0  0  0  0
  180.8080  176.5980  138.1710 S   0  0  0  0  0  0  0  0  0  0  0  0
  179.2970  176.9600  139.1080 C   0  0  2  0  0  3  0  0  0  0  0  0
  181.3440  178.0780  139.0830 C   0  0  1  0  0  3  0  0  0  0  0  0
  179.8090  178.4680  139.9780 S   0  0  0  0  0  0  0  0  0  0  0  0
  187.0150  177.2040  144.9340 N   0  0  0  0  0  2  0  0  0  0  0  0
  188.3020  177.7350  145.3430 C   0  0  1  0  0  3  0  0  0  0  0  0
  189.3120  177.8900  147.6010 O   0  0  0  0  0  0  0  0  0  0  0  0
  187.5540  178.2510  148.8680 C   0  0  0  0  0  3  0  0  0  0  0  0
  187.1180  178.1840  147.5570 C   0  0  0  0  0  3  0  0  0  0  0  0
  188.9280  178.0610  148.8420 C   0  0  0  0  0  3  0  0  0  0  0  0
  188.2620  177.9580  146.8210 C   0  0  0  0  0  0  0  0  0  0  0  0
  189.4160  176.7540  144.9710 C   0  0  0  0  0  2  0  0  0  0  0  0
  190.7280  177.4550  144.8610 C   0  0  0  0  0  0  0  0  0  0  0  0
  190.7580  178.8510  144.5600 N   0  0  0  0  0  2  0  0  0  0  0  0
  191.8000  176.8080  144.9890 O   0  0  0  0  0  0  0  0  0  0  0  0
  192.0050  179.5660  144.3430 C   0  0  0  0  0  1  0  0  0  0  0  0
  187.6840  177.1950  142.2070 C   0  0  0  0  0  2  0  0  0  0  0  0
  189.3610  176.9730  139.3280 C   0  0  2  0  0  3  0  0  0  0  0  0
  190.0510  177.7840  141.4630 C   0  0  0  0  0  2  0  0  0  0  0  0
  188.2100  177.7960  139.8660 C   0  0  0  0  0  2  0  0  0  0  0  0
  190.5800  177.4310  140.0870 C   0  0  0  0  0  2  0  0  0  0  0  0
  188.5570  178.0860  141.3130 C   0  0  1  0  0  3  0  0  0  0  0  0
  188.8790  178.2090  137.1400 C   0  0  0  0  0  0  0  0  0  0  0  0
  189.0370  179.3990  137.5120 O   0  0  0  0  0  0  0  0  0  0  0  0
  189.4770  177.1410  137.8850 N   0  0  0  0  0  2  0  0  0  0  0  0
  188.1230  177.8770  135.9100 C   0  0  0  0  0  0  0  0  0  0  0  0
  186.0330  177.3020  134.6460 C   0  0  0  0  0  2  0  0  0  0  0  0
  184.3720  175.9480  135.9770 N   0  0  0  0  0  0  0  0  0  0  0  0
  184.7650  174.8930  136.7190 O   0  0  0  0  0  1  0  0  0  0  0  0
  184.4500  177.1450  136.8390 C   0  0  0  0  0  2  0  0  0  0  0  0
  185.2510  175.9940  134.7920 C   0  0  0  0  0  2  0  0  0  0  0  0
  185.9040  177.5460  137.1430 C   0  0  0  0  0  2  0  0  0  0  0  0
  186.7000  177.6060  135.9140 N   0  0  0  0  0  0  0  0  0  0  0  0
  188.7660  177.7880  134.8190 O   0  0  0  0  0  0  0  0  0  0  0  0
  1  2  2  0  0  0  0
  2 14  1  0  0  0  0
  3  8  1  0  0  0  0
  4  3  2  0  0  0  0
  5  6  2  0  0  0  0
  6  1  1  0  0  0  0
  7  3  1  0  0  0  0
  8  6  1  0  0  0  0
 10 12  1  0  0  0  0
 10 11  1  0  0  0  0
 11 13  1  0  0  0  0
 11  9  1  1  0  0  0
 12 13  1  0  0  0  0
 12  4  1  1  0  0  0
 14 15  1  0  0  0  0
 15 21  1  1  0  0  0
 15 20  1  0  0  0  0
 16 19  1  0  0  0  0
 18 17  1  0  0  0  0
 19 17  2  0  0  0  0
 20 18  2  0  0  0  0
 20 16  1  0  0  0  0
 22 21  1  0  0  0  0
 22 24  2  0  0  0  0
 23 22  1  0  0  0  0
 25 23  1  0  0  0  0
 26  1  1  0  0  0  0
 27 34  1  6  0  0  0
 27 29  1  0  0  0  0
 27 30  1  0  0  0  0
 29 31  1  0  0  0  0
 30 28  1  0  0  0  0
 31 28  1  0  0  0  0
 31 26  1  1  0  0  0
 32 33  2  0  0  0  0
 32 34  1  0  0  0  0
 35 42  1  0  0  0  0
 35 32  1  0  0  0  0
 36 40  1  0  0  0  0
 36 42  1  0  0  0  0
 37 38  1  0  0  0  0
 37 39  1  0  0  0  0
 39 41  1  0  0  0  0
 40 37  1  0  0  0  0
 42 41  1  0  0  0  0
 43 35  2  0  0  0  0
M  END
>  <MODEL>
8

>  <REMARK>
 VINA RESULT:      -7.6      3.664      7.013
  Name = 
  11 active torsions:
  status: ('A' for Active; 'I' for Inactive)
    1  A    between atoms: C_1  and  C_11
    2  A    between atoms: C_6  and  C_23
    3  A    between atoms: C_7  and  C_11
    4  A    between atoms: C_7  and  N_13
    5  A    between atoms: C_7  and  C_38
    6  A    between atoms: C_8  and  N_40
    7  A    between atoms: N_10  and  C_24
    8  A    between atoms: N_13  and  C_43
    9  A    between atoms: C_17  and  C_32
   10  A    between atoms: C_17  and  C_37
   11  A    between atoms: C_36  and  C_37
                            x       y       z     vdW  Elec       q    Type
                         _______ _______ _______ _____ _____    ______ ____

>  <TORSDO>
F 11

$$$$
=
 OpenBabel10222415183D

 43 46  0  0  1  0  0  0  0  0999 V2000
  187.6740  178.2690  139.9400 C   0  0  0  0  0  0  0  0  0  0  0  0
  187.5940  177.8230  138.6870 C   0  0  0  0  0  3  0  0  0  0  0  0
  183.9210  178.8670  140.7430 C   0  0  0  0  0  0  0  0  0  0  0  0
  182.8670  178.9910  139.9880 N   0  0  0  0  0  0  0  0  0  0  0  0
  186.5370  178.3810  142.0130 O   0  0  0  0  0  0  0  0  0  0  0  0
  186.4550  178.4280  140.7550 C   0  0  0  0  0  0  0  0  0  0  0  0
  183.8110  178.9540  142.2320 C   0  0  0  0  0  1  0  0  0  0  0  0
  185.1840  178.6380  140.1050 N   0  0  0  0  0  2  0  0  0  0  0  0
  179.9170  178.3320  137.6720 C   0  0  0  0  0  1  0  0  0  0  0  0
  180.6500  180.3500  139.3510 S   0  0  0  0  0  0  0  0  0  0  0  0
  179.6870  178.8360  139.0800 C   0  0  2  0  0  3  0  0  0  0  0  0
  181.5130  179.2160  140.4820 C   0  0  1  0  0  3  0  0  0  0  0  0
  180.5100  177.7160  140.2480 S   0  0  0  0  0  0  0  0  0  0  0  0
  188.7700  177.6580  137.8930 N   0  0  0  0  0  2  0  0  0  0  0  0
  188.9750  176.5300  137.0030 C   0  0  1  0  0  3  0  0  0  0  0  0
  191.3860  176.6710  137.5570 O   0  0  0  0  0  0  0  0  0  0  0  0
  191.9970  174.5620  137.4920 C   0  0  0  0  0  3  0  0  0  0  0  0
  190.6390  174.6120  137.2330 C   0  0  0  0  0  3  0  0  0  0  0  0
  192.4150  175.8710  137.6860 C   0  0  0  0  0  3  0  0  0  0  0  0
  190.3240  175.9530  137.2900 C   0  0  0  0  0  0  0  0  0  0  0  0
  187.8780  175.4860  137.2190 C   0  0  0  0  0  2  0  0  0  0  0  0
  187.1830  175.1710  135.9370 C   0  0  0  0  0  0  0  0  0  0  0  0
  185.8490  174.6600  135.9650 N   0  0  0  0  0  2  0  0  0  0  0  0
  187.7870  175.3140  134.8410 O   0  0  0  0  0  0  0  0  0  0  0  0
  185.1580  174.2420  134.7560 C   0  0  0  0  0  1  0  0  0  0  0  0
  189.0210  178.6130  140.5220 C   0  0  0  0  0  2  0  0  0  0  0  0
  191.0720  178.3080  143.1380 C   0  0  2  0  0  3  0  0  0  0  0  0
  191.0490  177.1590  141.0480 C   0  0  0  0  0  2  0  0  0  0  0  0
  189.6230  177.9930  142.8390 C   0  0  0  0  0  2  0  0  0  0  0  0
  191.8790  177.3490  142.3020 C   0  0  0  0  0  2  0  0  0  0  0  0
  189.5990  177.4990  141.4060 C   0  0  1  0  0  3  0  0  0  0  0  0
  191.1400  177.0030  145.3380 C   0  0  0  0  0  0  0  0  0  0  0  0
  191.6240  175.9130  144.9410 O   0  0  0  0  0  0  0  0  0  0  0  0
  191.3340  178.1950  144.5680 N   0  0  0  0  0  2  0  0  0  0  0  0
  190.4070  177.1020  146.6220 C   0  0  0  0  0  0  0  0  0  0  0  0
  188.3230  177.1610  148.0170 C   0  0  0  0  0  2  0  0  0  0  0  0
  186.3470  178.2210  146.8600 N   0  0  0  0  0  0  0  0  0  0  0  0
  186.4750  179.3760  146.1750 O   0  0  0  0  0  1  0  0  0  0  0  0
  186.6140  177.1180  145.9150 C   0  0  0  0  0  2  0  0  0  0  0  0
  187.2850  178.2880  147.9980 C   0  0  0  0  0  2  0  0  0  0  0  0
  188.0980  177.0420  145.5180 C   0  0  0  0  0  2  0  0  0  0  0  0
  188.9610  177.0750  146.7020 N   0  0  0  0  0  0  0  0  0  0  0  0
  191.0830  177.2570  147.6860 O   0  0  0  0  0  0  0  0  0  0  0  0
  1 26  1  0  0  0  0
  1  6  1  0  0  0  0
  2  1  2  0  0  0  0
  3  7  1  0  0  0  0
  4  3  2  0  0  0  0
  6  5  2  0  0  0  0
  8  3  1  0  0  0  0
  8  6  1  0  0  0  0
 10 12  1  0  0  0  0
 11  9  1  6  0  0  0
 11 10  1  0  0  0  0
 11 13  1  0  0  0  0
 12  4  1  6  0  0  0
 13 12  1  0  0  0  0
 14  2  1  0  0  0  0
 15 21  1  1  0  0  0
 15 20  1  0  0  0  0
 15 14  1  0  0  0  0
 16 19  1  0  0  0  0
 17 19  2  0  0  0  0
 18 20  2  0  0  0  0
 18 17  1  0  0  0  0
 20 16  1  0  0  0  0
 22 23  1  0  0  0  0
 22 21  1  0  0  0  0
 24 22  2  0  0  0  0
 25 23  1  0  0  0  0
 27 34  1  1  0  0  0
 28 31  1  0  0  0  0
 28 30  1  0  0  0  0
 29 27  1  0  0  0  0
 30 27  1  0  0  0  0
 31 26  1  6  0  0  0
 31 29  1  0  0  0  0
 32 35  1  0  0  0  0
 33 32  2  0  0  0  0
 34 32  1  0  0  0  0
 35 42  1  0  0  0  0
 35 43  2  0  0  0  0
 37 40  1  0  0  0  0
 38 37  1  0  0  0  0
 39 37  1  0  0  0  0
 40 36  1  0  0  0  0
 41 39  1  0  0  0  0
 41 42  1  0  0  0  0
 42 36  1  0  0  0  0
M  END
>  <MODEL>
9

>  <REMARK>
 VINA RESULT:      -7.5      3.748      9.514
  Name = 
  11 active torsions:
  status: ('A' for Active; 'I' for Inactive)
    1  A    between atoms: C_1  and  C_11
    2  A    between atoms: C_6  and  C_23
    3  A    between atoms: C_7  and  C_11
    4  A    between atoms: C_7  and  N_13
    5  A    between atoms: C_7  and  C_38
    6  A    between atoms: C_8  and  N_40
    7  A    between atoms: N_10  and  C_24
    8  A    between atoms: N_13  and  C_43
    9  A    between atoms: C_17  and  C_32
   10  A    between atoms: C_17  and  C_37
   11  A    between atoms: C_36  and  C_37
                            x       y       z     vdW  Elec       q    Type
                         _______ _______ _______ _____ _____    ______ ____

>  <TORSDO>
F 11

$$$$
