=
 OpenBabel10222417403D

 30 33  0  0  0  0  0  0  0  0999 V2000
  185.2690  178.2890  142.5440 C   0  0  0  0  0  3  0  0  0  0  0  0
  182.9710  178.7030  141.8730 C   0  0  0  0  0  0  0  0  0  0  0  0
  181.2410  178.9890  143.6430 N   0  0  0  0  0  2  0  0  0  0  0  0
  184.9070  178.3670  143.8950 C   0  0  0  0  0  0  0  0  0  0  0  0
  182.5930  178.7550  143.2290 C   0  0  0  0  0  0  0  0  0  0  0  0
  178.9310  178.8410  143.5140 O   0  0  0  0  0  0  0  0  0  0  0  0
  181.9700  178.9870  140.8010 C   0  0  0  0  0  2  0  0  0  0  0  0
  180.9020  177.9490  140.7920 C   0  0  0  0  0  3  0  0  0  0  0  0
  183.5650  178.6060  144.2220 C   0  0  0  0  0  3  0  0  0  0  0  0
  180.0480  177.8220  141.7590 N   0  0  0  0  0  0  0  0  0  0  0  0
  180.0370  178.5900  142.9710 C   0  0  0  0  0  0  0  0  0  0  0  0
  184.3180  178.4560  141.5360 C   0  0  0  0  0  0  0  0  0  0  0  0
  190.0390  177.2900  147.7170 C   0  0  0  0  0  3  0  0  0  0  0  0
  187.2190  177.7510  144.6520 C   0  0  0  0  0  3  0  0  0  0  0  0
  187.8080  177.8900  146.9940 C   0  0  0  0  0  0  0  0  0  0  0  0
  189.4570  177.1480  145.3670 C   0  0  0  0  0  3  0  0  0  0  0  0
  188.7480  177.7360  148.0170 C   0  0  0  0  0  3  0  0  0  0  0  0
  185.6160  178.4800  146.3010 C   0  0  0  0  0  3  0  0  0  0  0  0
  188.1660  177.5940  145.6630 C   0  0  0  0  0  0  0  0  0  0  0  0
  190.3930  176.9970  146.3950 C   0  0  0  0  0  3  0  0  0  0  0  0
  185.9250  178.1980  144.9600 C   0  0  0  0  0  0  0  0  0  0  0  0
  186.5500  178.3220  147.2780 N   0  0  0  0  0  0  0  0  0  0  0  0
  185.1200  178.3260  139.0170 C   0  0  0  0  0  0  0  0  0  0  0  0
  184.7520  178.3840  140.1650 C   0  0  0  0  0  0  0  0  0  0  0  0
  185.5720  178.2560  137.6260 C   0  0  0  0  0  2  0  0  0  0  0  0
  187.0540  178.4360  137.5520 C   0  0  0  0  0  0  0  0  0  0  0  0
  187.5330  179.3110  136.8460 O   0  0  0  0  0  0  0  0  0  0  0  0
  187.9460  177.5380  138.3450 C   0  0  0  0  0  2  0  0  0  0  0  0
  188.5100  178.1350  140.6780 C   0  0  0  0  0  1  0  0  0  0  0  0
  188.8710  178.3560  139.2240 C   0  0  0  0  0  2  0  0  0  0  0  0
  1  4  1  0  0  0  0
  2  5  2  0  0  0  0
  4  9  2  0  0  0  0
  4 21  1  0  0  0  0
  5  3  1  0  0  0  0
  5  9  1  0  0  0  0
  7  2  1  0  0  0  0
  8  7  1  0  0  0  0
  8 10  2  0  0  0  0
 10 11  1  0  0  0  0
 11  6  2  0  0  0  0
 11  3  1  0  0  0  0
 12  2  1  0  0  0  0
 12  1  2  0  0  0  0
 13 17  1  0  0  0  0
 14 21  2  0  0  0  0
 14 19  1  0  0  0  0
 15 22  1  0  0  0  0
 15 17  2  0  0  0  0
 16 19  2  0  0  0  0
 16 20  1  0  0  0  0
 18 22  2  0  0  0  0
 19 15  1  0  0  0  0
 20 13  2  0  0  0  0
 21 18  1  0  0  0  0
 23 24  3  0  0  0  0
 24 12  1  0  0  0  0
 25 23  1  0  0  0  0
 26 25  1  0  0  0  0
 26 28  1  0  0  0  0
 27 26  2  0  0  0  0
 28 30  1  0  0  0  0
 30 29  1  0  0  0  0
M  END
>  <MODEL>
1

>  <REMARK>
 VINA RESULT:      -9.6      0.000      0.000
  Name = 
  6 active torsions:
  status: ('A' for Active; 'I' for Inactive)
    1  A    between atoms: C_2  and  C_27
    2  A    between atoms: C_2  and  C_28
    3  A    between atoms: C_9  and  C_18
    4  A    between atoms: C_9  and  C_27
    5  A    between atoms: C_10  and  C_21
    6  A    between atoms: C_20  and  C_29
                            x       y       z     vdW  Elec       q    Type
                         _______ _______ _______ _____ _____    ______ ____

>  <TORSDO>
F 6

$$$$
=
 OpenBabel10222417403D

 30 33  0  0  0  0  0  0  0  0999 V2000
  187.4630  177.7950  143.3730 C   0  0  0  0  0  3  0  0  0  0  0  0
  189.1500  177.8910  141.6270 C   0  0  0  0  0  0  0  0  0  0  0  0
  188.4590  178.5720  139.3320 N   0  0  0  0  0  2  0  0  0  0  0  0
  186.4810  178.2280  142.4730 C   0  0  0  0  0  0  0  0  0  0  0  0
  188.1630  178.3000  140.7080 C   0  0  0  0  0  0  0  0  0  0  0  0
  189.5320  178.2800  137.2980 O   0  0  0  0  0  0  0  0  0  0  0  0
  190.5830  177.8150  141.2100 C   0  0  0  0  0  2  0  0  0  0  0  0
  190.7720  176.7640  140.1720 C   0  0  0  0  0  3  0  0  0  0  0  0
  186.8480  178.4810  141.1440 C   0  0  0  0  0  3  0  0  0  0  0  0
  190.2780  176.8690  138.9780 N   0  0  0  0  0  0  0  0  0  0  0  0
  189.4500  177.9420  138.5070 C   0  0  0  0  0  0  0  0  0  0  0  0
  188.7870  177.6280  142.9640 C   0  0  0  0  0  0  0  0  0  0  0  0
  180.0910  178.9740  143.3140 C   0  0  0  0  0  3  0  0  0  0  0  0
  184.0290  178.4390  141.9860 C   0  0  0  0  0  3  0  0  0  0  0  0
  182.4550  178.7680  143.7930 C   0  0  0  0  0  0  0  0  0  0  0  0
  181.6620  178.6430  141.4960 C   0  0  0  0  0  3  0  0  0  0  0  0
  181.1420  178.9470  144.2370 C   0  0  0  0  0  3  0  0  0  0  0  0
  184.7700  178.5700  144.2780 C   0  0  0  0  0  3  0  0  0  0  0  0
  182.7140  178.6160  142.4150 C   0  0  0  0  0  0  0  0  0  0  0  0
  180.3500  178.8220  141.9480 C   0  0  0  0  0  3  0  0  0  0  0  0
  185.0790  178.4140  142.9170 C   0  0  0  0  0  0  0  0  0  0  0  0
  183.4820  178.7420  144.6830 N   0  0  0  0  0  0  0  0  0  0  0  0
  190.5710  176.8440  144.7550 C   0  0  0  0  0  0  0  0  0  0  0  0
  189.7570  177.1980  143.9380 C   0  0  0  0  0  0  0  0  0  0  0  0
  191.5620  176.4190  145.7480 C   0  0  0  0  0  2  0  0  0  0  0  0
  191.0720  176.7140  147.1280 C   0  0  0  0  0  0  0  0  0  0  0  0
  191.8520  177.0880  147.9910 O   0  0  0  0  0  0  0  0  0  0  0  0
  189.6220  176.5470  147.4480 C   0  0  0  0  0  2  0  0  0  0  0  0
  187.6460  178.0050  147.1530 C   0  0  0  0  0  1  0  0  0  0  0  0
  189.0050  177.8830  147.8100 C   0  0  0  0  0  2  0  0  0  0  0  0
  2 12  2  0  0  0  0
  3  5  1  0  0  0  0
  4 21  1  0  0  0  0
  4  1  2  0  0  0  0
  5  9  2  0  0  0  0
  5  2  1  0  0  0  0
  6 11  2  0  0  0  0
  7  2  1  0  0  0  0
  8  7  1  0  0  0  0
  9  4  1  0  0  0  0
 10  8  2  0  0  0  0
 11 10  1  0  0  0  0
 11  3  1  0  0  0  0
 12  1  1  0  0  0  0
 12 24  1  0  0  0  0
 13 17  1  0  0  0  0
 14 19  1  0  0  0  0
 14 21  2  0  0  0  0
 15 17  2  0  0  0  0
 15 22  1  0  0  0  0
 16 20  1  0  0  0  0
 16 19  2  0  0  0  0
 18 22  2  0  0  0  0
 19 15  1  0  0  0  0
 20 13  2  0  0  0  0
 21 18  1  0  0  0  0
 23 25  1  0  0  0  0
 24 23  3  0  0  0  0
 25 26  1  0  0  0  0
 26 28  1  0  0  0  0
 26 27  2  0  0  0  0
 28 30  1  0  0  0  0
 29 30  1  0  0  0  0
M  END
>  <MODEL>
2

>  <REMARK>
 VINA RESULT:      -9.4      3.422      8.049
  Name = 
  6 active torsions:
  status: ('A' for Active; 'I' for Inactive)
    1  A    between atoms: C_2  and  C_27
    2  A    between atoms: C_2  and  C_28
    3  A    between atoms: C_9  and  C_18
    4  A    between atoms: C_9  and  C_27
    5  A    between atoms: C_10  and  C_21
    6  A    between atoms: C_20  and  C_29
                            x       y       z     vdW  Elec       q    Type
                         _______ _______ _______ _____ _____    ______ ____

>  <TORSDO>
F 6

$$$$
=
 OpenBabel10222417403D

 30 33  0  0  0  0  0  0  0  0999 V2000
  189.3660  177.4140  141.7390 C   0  0  0  0  0  3  0  0  0  0  0  0
  189.4030  177.6520  144.1570 C   0  0  0  0  0  0  0  0  0  0  0  0
  191.5740  177.3910  145.3520 N   0  0  0  0  0  2  0  0  0  0  0  0
  190.7500  177.1990  141.7210 C   0  0  0  0  0  0  0  0  0  0  0  0
  190.7910  177.4090  144.1520 C   0  0  0  0  0  0  0  0  0  0  0  0
  192.0080  176.9810  147.5910 O   0  0  0  0  0  0  0  0  0  0  0  0
  188.7040  177.9990  145.4310 C   0  0  0  0  0  2  0  0  0  0  0  0
  188.7500  176.8540  146.3830 C   0  0  0  0  0  3  0  0  0  0  0  0
  191.4490  177.2040  142.9360 C   0  0  0  0  0  3  0  0  0  0  0  0
  189.8540  176.4470  146.9280 N   0  0  0  0  0  0  0  0  0  0  0  0
  191.1610  176.9730  146.6620 C   0  0  0  0  0  0  0  0  0  0  0  0
  188.6910  177.6420  142.9390 C   0  0  0  0  0  0  0  0  0  0  0  0
  192.8620  175.8290  135.7410 C   0  0  0  0  0  3  0  0  0  0  0  0
  190.7820  176.4630  139.3230 C   0  0  0  0  0  3  0  0  0  0  0  0
  192.8390  176.5440  138.0540 C   0  0  0  0  0  0  0  0  0  0  0  0
  190.7950  175.7450  137.0060 C   0  0  0  0  0  3  0  0  0  0  0  0
  193.5340  176.3330  136.8600 C   0  0  0  0  0  3  0  0  0  0  0  0
  192.8330  177.2480  140.3210 C   0  0  0  0  0  3  0  0  0  0  0  0
  191.4630  176.2480  138.1260 C   0  0  0  0  0  0  0  0  0  0  0  0
  191.4960  175.5360  135.8140 C   0  0  0  0  0  3  0  0  0  0  0  0
  191.4620  176.9690  140.4420 C   0  0  0  0  0  0  0  0  0  0  0  0
  193.4850  177.0340  139.1460 N   0  0  0  0  0  0  0  0  0  0  0  0
  186.0810  178.0750  142.8610 C   0  0  0  0  0  0  0  0  0  0  0  0
  187.2700  177.8760  142.8940 C   0  0  0  0  0  0  0  0  0  0  0  0
  184.6370  178.3200  142.8250 C   0  0  0  0  0  2  0  0  0  0  0  0
  184.1470  178.7340  144.1750 C   0  0  0  0  0  0  0  0  0  0  0  0
  182.9570  178.6690  144.4430 O   0  0  0  0  0  0  0  0  0  0  0  0
  185.1220  179.2280  145.1940 C   0  0  0  0  0  2  0  0  0  0  0  0
  185.9790  178.9460  147.4970 C   0  0  0  0  0  1  0  0  0  0  0  0
  185.0690  178.3620  146.4370 C   0  0  0  0  0  2  0  0  0  0  0  0
  1 12  1  0  0  0  0
  2  7  1  0  0  0  0
  3 11  1  0  0  0  0
  4  1  2  0  0  0  0
  4  9  1  0  0  0  0
  5  2  1  0  0  0  0
  5  3  1  0  0  0  0
  7  8  1  0  0  0  0
  8 10  2  0  0  0  0
  9  5  2  0  0  0  0
 11 10  1  0  0  0  0
 11  6  2  0  0  0  0
 12  2  2  0  0  0  0
 13 20  2  0  0  0  0
 13 17  1  0  0  0  0
 14 21  2  0  0  0  0
 15 19  1  0  0  0  0
 15 22  1  0  0  0  0
 16 19  2  0  0  0  0
 17 15  2  0  0  0  0
 18 21  1  0  0  0  0
 19 14  1  0  0  0  0
 20 16  1  0  0  0  0
 21  4  1  0  0  0  0
 22 18  2  0  0  0  0
 23 24  3  0  0  0  0
 24 12  1  0  0  0  0
 25 23  1  0  0  0  0
 25 26  1  0  0  0  0
 26 27  2  0  0  0  0
 26 28  1  0  0  0  0
 28 30  1  0  0  0  0
 30 29  1  0  0  0  0
M  END
>  <MODEL>
3

>  <REMARK>
 VINA RESULT:      -9.0      4.197      8.812
  Name = 
  6 active torsions:
  status: ('A' for Active; 'I' for Inactive)
    1  A    between atoms: C_2  and  C_27
    2  A    between atoms: C_2  and  C_28
    3  A    between atoms: C_9  and  C_18
    4  A    between atoms: C_9  and  C_27
    5  A    between atoms: C_10  and  C_21
    6  A    between atoms: C_20  and  C_29
                            x       y       z     vdW  Elec       q    Type
                         _______ _______ _______ _____ _____    ______ ____

>  <TORSDO>
F 6

$$$$
=
 OpenBabel10222417403D

 30 33  0  0  0  0  0  0  0  0999 V2000
  186.1770  178.1200  142.9240 C   0  0  0  0  0  3  0  0  0  0  0  0
  188.3000  178.0690  141.7430 C   0  0  0  0  0  0  0  0  0  0  0  0
  188.3120  178.4920  139.2870 N   0  0  0  0  0  2  0  0  0  0  0  0
  185.5030  178.4360  141.7370 C   0  0  0  0  0  0  0  0  0  0  0  0
  187.6270  178.3590  140.5390 C   0  0  0  0  0  0  0  0  0  0  0  0
  189.9280  178.0120  137.6960 O   0  0  0  0  0  0  0  0  0  0  0  0
  189.7910  177.9810  141.7700 C   0  0  0  0  0  2  0  0  0  0  0  0
  190.2630  176.8310  140.9500 C   0  0  0  0  0  3  0  0  0  0  0  0
  186.2440  178.5570  140.5530 C   0  0  0  0  0  3  0  0  0  0  0  0
  190.1390  176.8010  139.6590 N   0  0  0  0  0  0  0  0  0  0  0  0
  189.4950  177.8010  138.8570 C   0  0  0  0  0  0  0  0  0  0  0  0
  187.5610  177.9390  142.9380 C   0  0  0  0  0  0  0  0  0  0  0  0
  179.1510  179.1610  142.8380 C   0  0  0  0  0  3  0  0  0  0  0  0
  183.3010  178.5940  142.9280 C   0  0  0  0  0  3  0  0  0  0  0  0
  181.2720  179.0140  141.6810 C   0  0  0  0  0  0  0  0  0  0  0  0
  181.1800  178.7400  144.0960 C   0  0  0  0  0  3  0  0  0  0  0  0
  179.8880  179.2030  141.6500 C   0  0  0  0  0  3  0  0  0  0  0  0
  183.3440  178.8700  140.5320 C   0  0  0  0  0  3  0  0  0  0  0  0
  181.9200  178.7810  142.9110 C   0  0  0  0  0  0  0  0  0  0  0  0
  179.7940  178.9310  144.0580 C   0  0  0  0  0  3  0  0  0  0  0  0
  184.0350  178.6360  141.7330 C   0  0  0  0  0  0  0  0  0  0  0  0
  181.9960  179.0520  140.5300 N   0  0  0  0  0  0  0  0  0  0  0  0
  188.7430  177.3820  145.2390 C   0  0  0  0  0  0  0  0  0  0  0  0
  188.2020  177.6350  144.1910 C   0  0  0  0  0  0  0  0  0  0  0  0
  189.4060  177.0760  146.5090 C   0  0  0  0  0  2  0  0  0  0  0  0
  188.6720  177.7140  147.6440 C   0  0  0  0  0  0  0  0  0  0  0  0
  189.2760  178.3860  148.4670 O   0  0  0  0  0  0  0  0  0  0  0  0
  187.1960  177.5240  147.7680 C   0  0  0  0  0  2  0  0  0  0  0  0
  185.3390  178.5270  146.4770 C   0  0  0  0  0  1  0  0  0  0  0  0
  186.4690  178.8140  147.4440 C   0  0  0  0  0  2  0  0  0  0  0  0
  1 12  1  0  0  0  0
  2  7  1  0  0  0  0
  2 12  2  0  0  0  0
  3  5  1  0  0  0  0
  4  1  2  0  0  0  0
  5  9  2  0  0  0  0
  5  2  1  0  0  0  0
  6 11  2  0  0  0  0
  8  7  1  0  0  0  0
  9  4  1  0  0  0  0
 10  8  2  0  0  0  0
 11  3  1  0  0  0  0
 11 10  1  0  0  0  0
 12 24  1  0  0  0  0
 13 20  1  0  0  0  0
 15 19  2  0  0  0  0
 17 15  1  0  0  0  0
 17 13  2  0  0  0  0
 18 21  1  0  0  0  0
 19 14  1  0  0  0  0
 19 16  1  0  0  0  0
 20 16  2  0  0  0  0
 21  4  1  0  0  0  0
 21 14  2  0  0  0  0
 22 18  2  0  0  0  0
 22 15  1  0  0  0  0
 23 25  1  0  0  0  0
 24 23  3  0  0  0  0
 25 26  1  0  0  0  0
 26 28  1  0  0  0  0
 26 27  2  0  0  0  0
 29 30  1  0  0  0  0
 30 28  1  0  0  0  0
M  END
>  <MODEL>
4

>  <REMARK>
 VINA RESULT:      -9.0      3.280      8.244
  Name = 
  6 active torsions:
  status: ('A' for Active; 'I' for Inactive)
    1  A    between atoms: C_2  and  C_27
    2  A    between atoms: C_2  and  C_28
    3  A    between atoms: C_9  and  C_18
    4  A    between atoms: C_9  and  C_27
    5  A    between atoms: C_10  and  C_21
    6  A    between atoms: C_20  and  C_29
                            x       y       z     vdW  Elec       q    Type
                         _______ _______ _______ _____ _____    ______ ____

>  <TORSDO>
F 6

$$$$
=
 OpenBabel10222417403D

 30 33  0  0  0  0  0  0  0  0999 V2000
  187.4480  177.6850  142.2660 C   0  0  0  0  0  3  0  0  0  0  0  0
  189.4040  176.9900  143.5290 C   0  0  0  0  0  0  0  0  0  0  0  0
  189.2370  176.8510  146.0110 N   0  0  0  0  0  2  0  0  0  0  0  0
  186.7010  177.7920  143.4470 C   0  0  0  0  0  0  0  0  0  0  0  0
  188.6680  177.1220  144.7240 C   0  0  0  0  0  0  0  0  0  0  0  0
  190.9040  176.7940  147.6210 O   0  0  0  0  0  0  0  0  0  0  0  0
  190.8010  176.4640  143.5590 C   0  0  0  0  0  2  0  0  0  0  0  0
  191.6990  177.4000  144.2900 C   0  0  0  0  0  3  0  0  0  0  0  0
  187.3250  177.5020  144.6680 C   0  0  0  0  0  3  0  0  0  0  0  0
  191.5950  177.6090  145.5660 N   0  0  0  0  0  0  0  0  0  0  0  0
  190.5970  177.0430  146.4270 C   0  0  0  0  0  0  0  0  0  0  0  0
  188.7850  177.2870  142.2960 C   0  0  0  0  0  0  0  0  0  0  0  0
  180.5450  179.3840  142.1570 C   0  0  0  0  0  3  0  0  0  0  0  0
  184.5620  178.1940  142.1980 C   0  0  0  0  0  3  0  0  0  0  0  0
  182.6030  178.9950  143.3700 C   0  0  0  0  0  0  0  0  0  0  0  0
  182.5030  178.5800  140.9750 C   0  0  0  0  0  3  0  0  0  0  0  0
  181.2640  179.3920  143.3570 C   0  0  0  0  0  3  0  0  0  0  0  0
  184.6150  178.6200  144.5720 C   0  0  0  0  0  3  0  0  0  0  0  0
  183.2250  178.5870  142.1710 C   0  0  0  0  0  0  0  0  0  0  0  0
  181.1620  178.9790  140.9690 C   0  0  0  0  0  3  0  0  0  0  0  0
  185.2780  178.2050  143.4050 C   0  0  0  0  0  0  0  0  0  0  0  0
  183.3100  179.0020  144.5310 N   0  0  0  0  0  0  0  0  0  0  0  0
  190.0950  177.0890  140.0060 C   0  0  0  0  0  0  0  0  0  0  0  0
  189.4970  177.1760  141.0500 C   0  0  0  0  0  0  0  0  0  0  0  0
  190.8250  176.9880  138.7390 C   0  0  0  0  0  2  0  0  0  0  0  0
  189.9370  177.3610  137.5970 C   0  0  0  0  0  0  0  0  0  0  0  0
  189.8570  176.6360  136.6170 O   0  0  0  0  0  0  0  0  0  0  0  0
  189.1470  178.6280  137.6600 C   0  0  0  0  0  2  0  0  0  0  0  0
  186.8490  178.0670  138.3840 C   0  0  0  0  0  1  0  0  0  0  0  0
  187.7260  178.3870  137.1920 C   0  0  0  0  0  2  0  0  0  0  0  0
  1 12  2  0  0  0  0
  1  4  1  0  0  0  0
  2  7  1  0  0  0  0
  2  5  2  0  0  0  0
  3 11  1  0  0  0  0
  4  9  2  0  0  0  0
  5  3  1  0  0  0  0
  7  8  1  0  0  0  0
  8 10  2  0  0  0  0
  9  5  1  0  0  0  0
 10 11  1  0  0  0  0
 11  6  2  0  0  0  0
 12  2  1  0  0  0  0
 13 17  1  0  0  0  0
 14 21  2  0  0  0  0
 15 22  1  0  0  0  0
 16 19  2  0  0  0  0
 17 15  2  0  0  0  0
 19 14  1  0  0  0  0
 19 15  1  0  0  0  0
 20 16  1  0  0  0  0
 20 13  2  0  0  0  0
 21  4  1  0  0  0  0
 21 18  1  0  0  0  0
 22 18  2  0  0  0  0
 23 24  3  0  0  0  0
 24 12  1  0  0  0  0
 25 23  1  0  0  0  0
 26 28  1  0  0  0  0
 26 25  1  0  0  0  0
 27 26  2  0  0  0  0
 30 28  1  0  0  0  0
 30 29  1  0  0  0  0
M  END
>  <MODEL>
5

>  <REMARK>
 VINA RESULT:      -9.0      2.935      7.075
  Name = 
  6 active torsions:
  status: ('A' for Active; 'I' for Inactive)
    1  A    between atoms: C_2  and  C_27
    2  A    between atoms: C_2  and  C_28
    3  A    between atoms: C_9  and  C_18
    4  A    between atoms: C_9  and  C_27
    5  A    between atoms: C_10  and  C_21
    6  A    between atoms: C_20  and  C_29
                            x       y       z     vdW  Elec       q    Type
                         _______ _______ _______ _____ _____    ______ ____

>  <TORSDO>
F 6

$$$$
=
 OpenBabel10222417403D

 30 33  0  0  0  0  0  0  0  0999 V2000
  188.3030  177.5660  143.0160 C   0  0  0  0  0  3  0  0  0  0  0  0
  189.2220  177.5290  145.2650 C   0  0  0  0  0  0  0  0  0  0  0  0
  191.6380  176.9950  145.5600 N   0  0  0  0  0  2  0  0  0  0  0  0
  189.5600  177.2650  142.4770 C   0  0  0  0  0  0  0  0  0  0  0  0
  190.4850  177.1980  144.7340 C   0  0  0  0  0  0  0  0  0  0  0  0
  192.7990  176.3090  147.4460 O   0  0  0  0  0  0  0  0  0  0  0  0
  189.0630  177.7750  146.7300 C   0  0  0  0  0  2  0  0  0  0  0  0
  189.3280  176.5300  147.5030 C   0  0  0  0  0  3  0  0  0  0  0  0
  190.6430  177.0890  143.3500 C   0  0  0  0  0  3  0  0  0  0  0  0
  190.5070  175.9940  147.5730 N   0  0  0  0  0  0  0  0  0  0  0  0
  191.6800  176.4610  146.8920 C   0  0  0  0  0  0  0  0  0  0  0  0
  188.1260  177.7020  144.3940 C   0  0  0  0  0  0  0  0  0  0  0  0
  191.4220  176.4080  136.3210 C   0  0  0  0  0  3  0  0  0  0  0  0
  190.9810  176.7530  140.4740 C   0  0  0  0  0  3  0  0  0  0  0  0
  190.0440  176.9010  138.2490 C   0  0  0  0  0  0  0  0  0  0  0  0
  192.3700  176.2570  138.5480 C   0  0  0  0  0  3  0  0  0  0  0  0
  190.1900  176.7860  136.8640 C   0  0  0  0  0  3  0  0  0  0  0  0
  188.6800  177.3890  140.1300 C   0  0  0  0  0  3  0  0  0  0  0  0
  191.1410  176.6350  139.0940 C   0  0  0  0  0  0  0  0  0  0  0  0
  192.5100  176.1440  137.1610 C   0  0  0  0  0  3  0  0  0  0  0  0
  189.7420  177.1340  141.0120 C   0  0  0  0  0  0  0  0  0  0  0  0
  188.8490  177.2690  138.7850 N   0  0  0  0  0  0  0  0  0  0  0  0
  185.7140  178.3020  145.3010 C   0  0  0  0  0  0  0  0  0  0  0  0
  186.8140  178.0310  144.8890 C   0  0  0  0  0  0  0  0  0  0  0  0
  184.3750  178.6260  145.8000 C   0  0  0  0  0  2  0  0  0  0  0  0
  183.4590  178.9400  144.6630 C   0  0  0  0  0  0  0  0  0  0  0  0
  182.2790  178.6280  144.7190 O   0  0  0  0  0  0  0  0  0  0  0  0
  183.9950  179.6350  143.4540 C   0  0  0  0  0  2  0  0  0  0  0  0
  185.2930  178.9990  141.4460 C   0  0  0  0  0  1  0  0  0  0  0  0
  184.0740  178.6740  142.2840 C   0  0  0  0  0  2  0  0  0  0  0  0
  1 12  1  0  0  0  0
  2  7  1  0  0  0  0
  3 11  1  0  0  0  0
  4  1  2  0  0  0  0
  4  9  1  0  0  0  0
  5  2  1  0  0  0  0
  5  3  1  0  0  0  0
  7  8  1  0  0  0  0
  8 10  2  0  0  0  0
  9  5  2  0  0  0  0
 11  6  2  0  0  0  0
 11 10  1  0  0  0  0
 12 24  1  0  0  0  0
 12  2  2  0  0  0  0
 13 17  2  0  0  0  0
 13 20  1  0  0  0  0
 14 21  1  0  0  0  0
 15 22  2  0  0  0  0
 15 19  1  0  0  0  0
 16 19  1  0  0  0  0
 17 15  1  0  0  0  0
 18 21  2  0  0  0  0
 19 14  2  0  0  0  0
 20 16  2  0  0  0  0
 21  4  1  0  0  0  0
 22 18  1  0  0  0  0
 23 25  1  0  0  0  0
 24 23  3  0  0  0  0
 26 27  2  0  0  0  0
 26 25  1  0  0  0  0
 28 26  1  0  0  0  0
 29 30  1  0  0  0  0
 30 28  1  0  0  0  0
M  END
>  <MODEL>
6

>  <REMARK>
 VINA RESULT:      -8.9      3.694      8.522
  Name = 
  6 active torsions:
  status: ('A' for Active; 'I' for Inactive)
    1  A    between atoms: C_2  and  C_27
    2  A    between atoms: C_2  and  C_28
    3  A    between atoms: C_9  and  C_18
    4  A    between atoms: C_9  and  C_27
    5  A    between atoms: C_10  and  C_21
    6  A    between atoms: C_20  and  C_29
                            x       y       z     vdW  Elec       q    Type
                         _______ _______ _______ _____ _____    ______ ____

>  <TORSDO>
F 6

$$$$
=
 OpenBabel10222417403D

 30 33  0  0  0  0  0  0  0  0999 V2000
  185.1520  178.2150  142.5730 C   0  0  0  0  0  3  0  0  0  0  0  0
  182.8230  178.7030  142.0810 C   0  0  0  0  0  0  0  0  0  0  0  0
  181.2470  179.0460  143.9800 N   0  0  0  0  0  2  0  0  0  0  0  0
  184.9000  178.3070  143.9470 C   0  0  0  0  0  0  0  0  0  0  0  0
  182.5540  178.7690  143.4630 C   0  0  0  0  0  0  0  0  0  0  0  0
  178.9310  178.9730  144.0330 O   0  0  0  0  0  0  0  0  0  0  0  0
  181.7510  179.0170  141.0900 C   0  0  0  0  0  2  0  0  0  0  0  0
  180.6530  178.0140  141.1680 C   0  0  0  0  0  3  0  0  0  0  0  0
  183.5960  178.5890  144.3770 C   0  0  0  0  0  3  0  0  0  0  0  0
  179.8730  177.9160  142.1990 N   0  0  0  0  0  0  0  0  0  0  0  0
  179.9820  178.6850  143.4060 C   0  0  0  0  0  0  0  0  0  0  0  0
  184.1320  178.4120  141.6410 C   0  0  0  0  0  0  0  0  0  0  0  0
  190.2980  177.1330  147.3500 C   0  0  0  0  0  3  0  0  0  0  0  0
  187.2640  177.6850  144.5140 C   0  0  0  0  0  3  0  0  0  0  0  0
  188.0170  177.7380  146.8120 C   0  0  0  0  0  0  0  0  0  0  0  0
  189.5520  177.0770  145.0440 C   0  0  0  0  0  3  0  0  0  0  0  0
  189.0290  177.5540  147.7580 C   0  0  0  0  0  3  0  0  0  0  0  0
  185.7770  178.3320  146.3000 C   0  0  0  0  0  3  0  0  0  0  0  0
  188.2820  177.4980  145.4480 C   0  0  0  0  0  0  0  0  0  0  0  0
  190.5600  176.8950  145.9960 C   0  0  0  0  0  3  0  0  0  0  0  0
  185.9920  178.1070  144.9300 C   0  0  0  0  0  0  0  0  0  0  0  0
  186.7800  178.1460  147.2000 N   0  0  0  0  0  0  0  0  0  0  0  0
  184.7210  178.2460  139.0670 C   0  0  0  0  0  0  0  0  0  0  0  0
  184.4540  178.3240  140.2400 C   0  0  0  0  0  0  0  0  0  0  0  0
  185.0420  178.1460  137.6400 C   0  0  0  0  0  2  0  0  0  0  0  0
  183.8860  177.5740  136.8870 C   0  0  0  0  0  0  0  0  0  0  0  0
  184.0520  177.0950  135.7760 O   0  0  0  0  0  0  0  0  0  0  0  0
  182.5240  177.5920  137.5000 C   0  0  0  0  0  2  0  0  0  0  0  0
  182.3360  175.6310  138.9970 C   0  0  0  0  0  1  0  0  0  0  0  0
  181.9850  176.1810  137.6300 C   0  0  0  0  0  2  0  0  0  0  0  0
  1  4  1  0  0  0  0
  2  5  2  0  0  0  0
  4  9  2  0  0  0  0
  4 21  1  0  0  0  0
  5  3  1  0  0  0  0
  5  9  1  0  0  0  0
  7  8  1  0  0  0  0
  7  2  1  0  0  0  0
  8 10  2  0  0  0  0
 10 11  1  0  0  0  0
 11  3  1  0  0  0  0
 11  6  2  0  0  0  0
 12  2  1  0  0  0  0
 12  1  2  0  0  0  0
 13 17  1  0  0  0  0
 14 21  2  0  0  0  0
 14 19  1  0  0  0  0
 15 22  1  0  0  0  0
 15 17  2  0  0  0  0
 16 19  2  0  0  0  0
 16 20  1  0  0  0  0
 18 22  2  0  0  0  0
 19 15  1  0  0  0  0
 20 13  2  0  0  0  0
 21 18  1  0  0  0  0
 23 24  3  0  0  0  0
 24 12  1  0  0  0  0
 25 23  1  0  0  0  0
 26 28  1  0  0  0  0
 26 25  1  0  0  0  0
 27 26  2  0  0  0  0
 28 30  1  0  0  0  0
 30 29  1  0  0  0  0
M  END
>  <MODEL>
7

>  <REMARK>
 VINA RESULT:      -8.6      1.491      2.341
  Name = 
  6 active torsions:
  status: ('A' for Active; 'I' for Inactive)
    1  A    between atoms: C_2  and  C_27
    2  A    between atoms: C_2  and  C_28
    3  A    between atoms: C_9  and  C_18
    4  A    between atoms: C_9  and  C_27
    5  A    between atoms: C_10  and  C_21
    6  A    between atoms: C_20  and  C_29
                            x       y       z     vdW  Elec       q    Type
                         _______ _______ _______ _____ _____    ______ ____

>  <TORSDO>
F 6

$$$$
=
 OpenBabel10222417403D

 30 33  0  0  0  0  0  0  0  0999 V2000
  186.3600  178.0050  142.6350 C   0  0  0  0  0  3  0  0  0  0  0  0
  187.8300  177.4510  144.4880 C   0  0  0  0  0  0  0  0  0  0  0  0
  186.8850  177.4140  146.7940 N   0  0  0  0  0  2  0  0  0  0  0  0
  185.2740  178.1310  143.5100 C   0  0  0  0  0  0  0  0  0  0  0  0
  186.7490  177.6040  145.3800 C   0  0  0  0  0  0  0  0  0  0  0  0
  187.9530  177.5000  148.8490 O   0  0  0  0  0  0  0  0  0  0  0  0
  189.1590  176.9860  144.9880 C   0  0  0  0  0  2  0  0  0  0  0  0
  189.7520  177.9920  145.9130 C   0  0  0  0  0  3  0  0  0  0  0  0
  185.4840  177.9230  144.8800 C   0  0  0  0  0  3  0  0  0  0  0  0
  189.2410  178.2530  147.0760 N   0  0  0  0  0  0  0  0  0  0  0  0
  188.0370  177.6830  147.6080 C   0  0  0  0  0  0  0  0  0  0  0  0
  187.6280  177.6660  143.1080 C   0  0  0  0  0  0  0  0  0  0  0  0
  179.0630  179.6100  142.3510 C   0  0  0  0  0  3  0  0  0  0  0  0
  182.8410  178.6260  143.8730 C   0  0  0  0  0  3  0  0  0  0  0  0
  181.4100  179.1380  141.9910 C   0  0  0  0  0  0  0  0  0  0  0  0
  180.4900  179.0980  144.2430 C   0  0  0  0  0  3  0  0  0  0  0  0
  180.1510  179.4660  141.4830 C   0  0  0  0  0  3  0  0  0  0  0  0
  183.7090  178.6750  141.6230 C   0  0  0  0  0  3  0  0  0  0  0  0
  181.5790  178.9530  143.3790 C   0  0  0  0  0  0  0  0  0  0  0  0
  179.2320  179.4270  143.7270 C   0  0  0  0  0  3  0  0  0  0  0  0
  183.9270  178.4820  142.9970 C   0  0  0  0  0  0  0  0  0  0  0  0
  182.4720  178.9950  141.1540 N   0  0  0  0  0  0  0  0  0  0  0  0
  189.6060  177.4160  141.3680 C   0  0  0  0  0  0  0  0  0  0  0  0
  188.7030  177.5310  142.1590 C   0  0  0  0  0  0  0  0  0  0  0  0
  190.7070  177.2730  140.4120 C   0  0  0  0  0  2  0  0  0  0  0  0
  190.2390  176.5620  139.1840 C   0  0  0  0  0  0  0  0  0  0  0  0
  190.8800  175.6250  138.7340 O   0  0  0  0  0  0  0  0  0  0  0  0
  188.9820  177.0060  138.5080 C   0  0  0  0  0  2  0  0  0  0  0  0
  189.0560  178.8450  136.8550 C   0  0  0  0  0  1  0  0  0  0  0  0
  188.9820  178.5110  138.3300 C   0  0  0  0  0  2  0  0  0  0  0  0
  1 12  2  0  0  0  0
  1  4  1  0  0  0  0
  2  7  1  0  0  0  0
  2  5  2  0  0  0  0
  3 11  1  0  0  0  0
  4  9  2  0  0  0  0
  5  3  1  0  0  0  0
  7  8  1  0  0  0  0
  8 10  2  0  0  0  0
  9  5  1  0  0  0  0
 10 11  1  0  0  0  0
 11  6  2  0  0  0  0
 12  2  1  0  0  0  0
 13 20  1  0  0  0  0
 15 19  2  0  0  0  0
 17 15  1  0  0  0  0
 17 13  2  0  0  0  0
 18 21  1  0  0  0  0
 19 14  1  0  0  0  0
 19 16  1  0  0  0  0
 20 16  2  0  0  0  0
 21  4  1  0  0  0  0
 21 14  2  0  0  0  0
 22 18  2  0  0  0  0
 22 15  1  0  0  0  0
 23 24  3  0  0  0  0
 24 12  1  0  0  0  0
 25 23  1  0  0  0  0
 26 25  1  0  0  0  0
 27 26  2  0  0  0  0
 28 26  1  0  0  0  0
 29 30  1  0  0  0  0
 30 28  1  0  0  0  0
M  END
>  <MODEL>
8

>  <REMARK>
 VINA RESULT:      -8.5      2.655      7.016
  Name = 
  6 active torsions:
  status: ('A' for Active; 'I' for Inactive)
    1  A    between atoms: C_2  and  C_27
    2  A    between atoms: C_2  and  C_28
    3  A    between atoms: C_9  and  C_18
    4  A    between atoms: C_9  and  C_27
    5  A    between atoms: C_10  and  C_21
    6  A    between atoms: C_20  and  C_29
                            x       y       z     vdW  Elec       q    Type
                         _______ _______ _______ _____ _____    ______ ____

>  <TORSDO>
F 6

$$$$
=
 OpenBabel10222417403D

 30 33  0  0  0  0  0  0  0  0999 V2000
  187.3600  177.7470  142.3460 C   0  0  0  0  0  3  0  0  0  0  0  0
  189.3600  177.0310  143.5250 C   0  0  0  0  0  0  0  0  0  0  0  0
  189.2780  176.8320  146.0080 N   0  0  0  0  0  2  0  0  0  0  0  0
  186.6530  177.8220  143.5530 C   0  0  0  0  0  0  0  0  0  0  0  0
  188.6650  177.1310  144.7470 C   0  0  0  0  0  0  0  0  0  0  0  0
  190.9980  176.7430  147.5580 O   0  0  0  0  0  0  0  0  0  0  0  0
  190.7600  176.5090  143.4950 C   0  0  0  0  0  2  0  0  0  0  0  0
  191.6790  177.4310  144.2180 C   0  0  0  0  0  3  0  0  0  0  0  0
  187.3190  177.5070  144.7450 C   0  0  0  0  0  3  0  0  0  0  0  0
  191.6170  177.6100  145.5010 N   0  0  0  0  0  0  0  0  0  0  0  0
  190.6510  177.0200  146.3820 C   0  0  0  0  0  0  0  0  0  0  0  0
  188.6990  177.3540  142.3210 C   0  0  0  0  0  0  0  0  0  0  0  0
  180.4490  179.4100  142.5120 C   0  0  0  0  0  3  0  0  0  0  0  0
  184.4690  178.2350  142.3890 C   0  0  0  0  0  3  0  0  0  0  0  0
  182.5520  179.0110  143.6430 C   0  0  0  0  0  0  0  0  0  0  0  0
  182.3660  178.6310  141.2480 C   0  0  0  0  0  3  0  0  0  0  0  0
  181.2110  179.4030  143.6850 C   0  0  0  0  0  3  0  0  0  0  0  0
  184.6070  178.6260  144.7660 C   0  0  0  0  0  3  0  0  0  0  0  0
  183.1310  178.6240  142.4170 C   0  0  0  0  0  0  0  0  0  0  0  0
  181.0240  179.0250  141.2970 C   0  0  0  0  0  3  0  0  0  0  0  0
  185.2280  178.2310  143.5700 C   0  0  0  0  0  0  0  0  0  0  0  0
  183.3000  179.0030  144.7790 N   0  0  0  0  0  0  0  0  0  0  0  0
  189.9260  177.2070  139.9810 C   0  0  0  0  0  0  0  0  0  0  0  0
  189.3690  177.2760  141.0490 C   0  0  0  0  0  0  0  0  0  0  0  0
  190.5990  177.1190  138.6830 C   0  0  0  0  0  2  0  0  0  0  0  0
  192.0360  176.7520  138.8660 C   0  0  0  0  0  0  0  0  0  0  0  0
  192.6550  177.1570  139.8380 O   0  0  0  0  0  0  0  0  0  0  0  0
  192.7110  175.8870  137.8520 C   0  0  0  0  0  2  0  0  0  0  0  0
  191.3040  174.1010  136.8790 C   0  0  0  0  0  1  0  0  0  0  0  0
  191.7520  175.5400  136.7320 C   0  0  0  0  0  2  0  0  0  0  0  0
  1  4  1  0  0  0  0
  2  5  2  0  0  0  0
  3 11  1  0  0  0  0
  4 21  1  0  0  0  0
  4  9  2  0  0  0  0
  5  3  1  0  0  0  0
  7  2  1  0  0  0  0
  7  8  1  0  0  0  0
  8 10  2  0  0  0  0
  9  5  1  0  0  0  0
 10 11  1  0  0  0  0
 11  6  2  0  0  0  0
 12  1  2  0  0  0  0
 12  2  1  0  0  0  0
 13 17  1  0  0  0  0
 14 19  1  0  0  0  0
 14 21  2  0  0  0  0
 15 17  2  0  0  0  0
 15 22  1  0  0  0  0
 16 20  1  0  0  0  0
 16 19  2  0  0  0  0
 18 22  2  0  0  0  0
 19 15  1  0  0  0  0
 20 13  2  0  0  0  0
 21 18  1  0  0  0  0
 23 24  3  0  0  0  0
 24 12  1  0  0  0  0
 25 26  1  0  0  0  0
 25 23  1  0  0  0  0
 26 27  2  0  0  0  0
 28 26  1  0  0  0  0
 30 29  1  0  0  0  0
 30 28  1  0  0  0  0
M  END
>  <MODEL>
9

>  <REMARK>
 VINA RESULT:      -8.4      3.385      7.308
  Name = 
  6 active torsions:
  status: ('A' for Active; 'I' for Inactive)
    1  A    between atoms: C_2  and  C_27
    2  A    between atoms: C_2  and  C_28
    3  A    between atoms: C_9  and  C_18
    4  A    between atoms: C_9  and  C_27
    5  A    between atoms: C_10  and  C_21
    6  A    between atoms: C_20  and  C_29
                            x       y       z     vdW  Elec       q    Type
                         _______ _______ _______ _____ _____    ______ ____

>  <TORSDO>
F 6

$$$$
