=
 OpenBabel10222418183D

 34 37  0  0  1  0  0  0  0  0999 V2000
  182.7720  178.7380  137.9120 N   0  0  0  0  0  0  0  0  0  0  0  0
  184.7410  178.9840  139.4970 C   0  0  1  0  0  3  0  0  0  0  0  0
  185.4640  177.8920  138.6710 C   0  0  1  0  0  3  0  0  0  0  0  0
  183.1930  180.7450  139.0330 O   0  0  0  0  0  0  0  0  0  0  0  0
  184.7030  177.3330  137.4560 C   0  0  2  0  0  3  0  0  0  0  0  0
  183.5310  179.5530  138.8120 C   0  0  0  0  0  0  0  0  0  0  0  0
  183.1970  177.3630  137.6870 C   0  0  0  0  0  2  0  0  0  0  0  0
  187.0420  179.0300  137.0920 N   0  0  0  0  0  0  0  0  0  0  0  0
  186.7950  178.3390  138.2850 N   0  0  0  0  0  0  0  0  0  0  0  0
  189.0990  178.5620  138.1470 C   0  0  1  0  0  3  0  0  0  0  0  0
  188.4430  179.2830  137.0450 N   0  0  0  0  0  0  0  0  0  0  0  0
  188.0850  177.4690  140.0620 O   0  0  0  0  0  0  0  0  0  0  0  0
  187.9940  178.0460  138.9410 C   0  0  0  0  0  0  0  0  0  0  0  0
  189.8690  176.8240  136.3650 C   0  0  0  0  0  0  0  0  0  0  0  0
  191.4940  175.8730  137.3900 N   0  0  0  0  0  0  0  0  0  0  0  0
  189.9360  177.4420  137.6020 C   0  0  0  0  0  0  0  0  0  0  0  0
  191.4960  177.0840  139.6030 C   0  0  0  0  0  1  0  0  0  0  0  0
  190.9910  176.8060  138.2270 C   0  0  0  0  0  0  0  0  0  0  0  0
  189.0530  177.0990  135.4490 O   0  0  0  0  0  0  0  0  0  0  0  0
  190.8180  175.8720  136.2530 N   0  0  0  0  0  2  0  0  0  0  0  0
  192.6120  174.9820  137.6650 C   0  0  0  0  0  1  0  0  0  0  0  0
  185.8740  175.8350  136.0080 O   0  0  0  0  0  1  0  0  0  0  0  0
  185.1530  175.9050  137.2010 C   0  0  0  0  0  2  0  0  0  0  0  0
  183.5060  177.6540  141.0300 O   0  0  0  0  0  0  0  0  0  0  0  0
  184.3900  178.4890  140.8790 C   0  0  0  0  0  0  0  0  0  0  0  0
  185.0140  179.1260  142.0860 C   0  0  1  0  0  3  0  0  0  0  0  0
  184.6850  178.3700  143.2980 C   0  0  1  0  0  3  0  0  0  0  0  0
  186.0100  178.2170  142.6820 N   0  0  0  0  0  2  0  0  0  0  0  0
  185.3750  178.4840  145.6810 C   0  0  0  0  0  1  0  0  0  0  0  0
  184.8170  179.2720  144.5150 C   0  0  0  0  0  2  0  0  0  0  0  0
  181.6720  179.2970  137.1330 C   0  0  0  0  0  2  0  0  0  0  0  0
  179.6600  178.1700  136.2220 C   0  0  0  0  0  1  0  0  0  0  0  0
  181.5280  178.7200  134.7050 C   0  0  0  0  0  1  0  0  0  0  0  0
  181.1660  178.2900  136.1100 C   0  0  0  0  0  3  0  0  0  0  0  0
  1  6  1  0  0  0  0
  2 25  1  1  0  0  0
  3  9  1  6  0  0  0
  3  2  1  0  0  0  0
  5 23  1  1  0  0  0
  5  7  1  0  0  0  0
  5  3  1  0  0  0  0
  6  4  2  0  0  0  0
  6  2  1  0  0  0  0
  7  1  1  0  0  0  0
  8  9  1  0  0  0  0
  9 13  1  0  0  0  0
 10 16  1  6  0  0  0
 10 13  1  0  0  0  0
 11  8  2  0  0  0  0
 11 10  1  0  0  0  0
 13 12  2  0  0  0  0
 14 16  1  0  0  0  0
 15 21  1  0  0  0  0
 15 18  1  0  0  0  0
 16 18  2  0  0  0  0
 18 17  1  0  0  0  0
 19 14  2  0  0  0  0
 20 14  1  0  0  0  0
 20 15  1  0  0  0  0
 22 23  1  0  0  0  0
 25 24  2  0  0  0  0
 26 25  1  6  0  0  0
 26 28  1  0  0  0  0
 26 27  1  0  0  0  0
 27 30  1  1  0  0  0
 28 27  1  0  0  0  0
 30 29  1  0  0  0  0
 31  1  1  0  0  0  0
 33 34  1  0  0  0  0
 34 32  1  0  0  0  0
 34 31  1  0  0  0  0
M  END
>  <MODEL>
1

>  <REMARK>
 VINA RESULT:      -6.5      0.000      0.000
  Name = 
  8 active torsions:
  status: ('A' for Active; 'I' for Inactive)
    1  A    between atoms: C_1  and  C_18
    2  A    between atoms: C_2  and  N_3
    3  A    between atoms: C_2  and  C_28
    4  A    between atoms: C_8  and  C_13
    5  A    between atoms: N_10  and  C_20
    6  A    between atoms: C_14  and  C_18
    7  A    between atoms: C_19  and  C_31
    8  A    between atoms: C_27  and  C_34
                            x       y       z     vdW  Elec       q    Type
                         _______ _______ _______ _____ _____    ______ ____

>  <TORSDO>
F 8

$$$$
=
 OpenBabel10222418183D

 34 37  0  0  1  0  0  0  0  0999 V2000
  187.9730  177.2980  137.3730 N   0  0  0  0  0  0  0  0  0  0  0  0
  190.3390  177.5400  138.2630 C   0  0  1  0  0  3  0  0  0  0  0  0
  190.6380  176.1400  137.6740 C   0  0  1  0  0  3  0  0  0  0  0  0
  188.9600  179.3970  137.6600 O   0  0  0  0  0  0  0  0  0  0  0  0
  189.4860  175.4480  136.9260 C   0  0  2  0  0  3  0  0  0  0  0  0
  189.0620  178.1460  137.7530 C   0  0  0  0  0  0  0  0  0  0  0  0
  188.1340  175.8560  137.4980 C   0  0  0  0  0  2  0  0  0  0  0  0
  191.8020  176.0530  135.4570 N   0  0  0  0  0  0  0  0  0  0  0  0
  191.8400  176.1760  136.8520 N   0  0  0  0  0  0  0  0  0  0  0  0
  194.0520  176.0830  136.1650 C   0  0  1  0  0  3  0  0  0  0  0  0
  193.1510  176.1130  135.0030 N   0  0  0  0  0  0  0  0  0  0  0  0
  193.5080  176.3470  138.5160 O   0  0  0  0  0  0  0  0  0  0  0  0
  193.1600  176.2000  137.3090 C   0  0  0  0  0  0  0  0  0  0  0  0
  194.3180  173.5020  136.4040 C   0  0  0  0  0  0  0  0  0  0  0  0
  196.4270  173.2730  136.0900 N   0  0  0  0  0  0  0  0  0  0  0  0
  194.8020  174.7830  136.2000 C   0  0  0  0  0  0  0  0  0  0  0  0
  197.1650  175.6600  135.7410 C   0  0  0  0  0  1  0  0  0  0  0  0
  196.1550  174.5930  136.0010 C   0  0  0  0  0  0  0  0  0  0  0  0
  193.1180  173.1940  136.6130 O   0  0  0  0  0  0  0  0  0  0  0  0
  195.3170  172.5970  136.3370 N   0  0  0  0  0  2  0  0  0  0  0  0
  197.7340  172.6500  135.9420 C   0  0  0  0  0  1  0  0  0  0  0  0
  189.6560  173.3680  135.7620 O   0  0  0  0  0  1  0  0  0  0  0  0
  189.6550  173.9420  137.0340 C   0  0  0  0  0  2  0  0  0  0  0  0
  191.4150  177.6170  140.3800 O   0  0  0  0  0  0  0  0  0  0  0  0
  190.3560  177.5200  139.7720 C   0  0  0  0  0  0  0  0  0  0  0  0
  189.0950  177.2300  140.5330 C   0  0  1  0  0  3  0  0  0  0  0  0
  189.2600  177.5600  141.9510 C   0  0  1  0  0  3  0  0  0  0  0  0
  188.5280  178.4800  141.0710 N   0  0  0  0  0  2  0  0  0  0  0  0
  188.5910  176.8970  144.2500 C   0  0  0  0  0  1  0  0  0  0  0  0
  188.2540  176.7760  142.7790 C   0  0  0  0  0  2  0  0  0  0  0  0
  186.7710  177.8460  136.7520 C   0  0  0  0  0  2  0  0  0  0  0  0
  185.1040  178.4580  138.4830 C   0  0  0  0  0  1  0  0  0  0  0  0
  184.3850  177.1350  136.5290 C   0  0  0  0  0  1  0  0  0  0  0  0
  185.5220  177.3910  137.4940 C   0  0  0  0  0  3  0  0  0  0  0  0
  1  7  1  0  0  0  0
  1  6  1  0  0  0  0
  2 25  1  1  0  0  0
  3  9  1  6  0  0  0
  3  2  1  0  0  0  0
  4  6  2  0  0  0  0
  5 23  1  1  0  0  0
  5  7  1  0  0  0  0
  5  3  1  0  0  0  0
  6  2  1  0  0  0  0
  8  9  1  0  0  0  0
  9 13  1  0  0  0  0
 10 16  1  1  0  0  0
 10 13  1  0  0  0  0
 11  8  2  0  0  0  0
 11 10  1  0  0  0  0
 13 12  2  0  0  0  0
 14 19  2  0  0  0  0
 15 20  1  0  0  0  0
 16 14  1  0  0  0  0
 17 18  1  0  0  0  0
 18 15  1  0  0  0  0
 18 16  2  0  0  0  0
 20 14  1  0  0  0  0
 21 15  1  0  0  0  0
 22 23  1  0  0  0  0
 25 24  2  0  0  0  0
 26 25  1  6  0  0  0
 26 28  1  0  0  0  0
 26 27  1  0  0  0  0
 27 30  1  1  0  0  0
 28 27  1  0  0  0  0
 30 29  1  0  0  0  0
 31  1  1  0  0  0  0
 31 34  1  0  0  0  0
 33 34  1  0  0  0  0
 34 32  1  0  0  0  0
M  END
>  <MODEL>
2

>  <REMARK>
 VINA RESULT:      -6.4      3.200      5.526
  Name = 
  8 active torsions:
  status: ('A' for Active; 'I' for Inactive)
    1  A    between atoms: C_1  and  C_18
    2  A    between atoms: C_2  and  N_3
    3  A    between atoms: C_2  and  C_28
    4  A    between atoms: C_8  and  C_13
    5  A    between atoms: N_10  and  C_20
    6  A    between atoms: C_14  and  C_18
    7  A    between atoms: C_19  and  C_31
    8  A    between atoms: C_27  and  C_34
                            x       y       z     vdW  Elec       q    Type
                         _______ _______ _______ _____ _____    ______ ____

>  <TORSDO>
F 8

$$$$
=
 OpenBabel10222418183D

 34 37  0  0  1  0  0  0  0  0999 V2000
  182.7830  174.5930  136.8810 N   0  0  0  0  0  0  0  0  0  0  0  0
  184.7350  176.1830  137.2100 C   0  0  1  0  0  3  0  0  0  0  0  0
  183.7150  177.3470  137.1660 C   0  0  1  0  0  3  0  0  0  0  0  0
  184.7290  173.9230  137.9870 O   0  0  0  0  0  0  0  0  0  0  0  0
  182.2350  176.9590  136.9990 C   0  0  2  0  0  3  0  0  0  0  0  0
  184.0990  174.8340  137.3890 C   0  0  0  0  0  0  0  0  0  0  0  0
  182.0900  175.6740  136.1940 C   0  0  0  0  0  2  0  0  0  0  0  0
  184.4750  179.4940  138.2100 N   0  0  0  0  0  0  0  0  0  0  0  0
  183.8910  178.2260  138.3140 N   0  0  0  0  0  0  0  0  0  0  0  0
  184.0910  179.0120  140.4860 C   0  0  1  0  0  3  0  0  0  0  0  0
  184.4980  180.0460  139.5230 N   0  0  0  0  0  0  0  0  0  0  0  0
  183.0850  176.8460  140.0540 O   0  0  0  0  0  0  0  0  0  0  0  0
  183.6460  177.9060  139.6520 C   0  0  0  0  0  0  0  0  0  0  0  0
  186.5860  178.4370  140.9670 C   0  0  0  0  0  0  0  0  0  0  0  0
  186.5210  178.0450  143.0740 N   0  0  0  0  0  0  0  0  0  0  0  0
  185.2620  178.6090  141.3330 C   0  0  0  0  0  0  0  0  0  0  0  0
  184.0770  178.3880  143.5940 C   0  0  0  0  0  1  0  0  0  0  0  0
  185.2630  178.3510  142.6900 C   0  0  0  0  0  0  0  0  0  0  0  0
  187.0540  178.5860  139.8100 O   0  0  0  0  0  0  0  0  0  0  0  0
  187.3370  178.0920  142.0340 N   0  0  0  0  0  2  0  0  0  0  0  0
  186.9530  177.7070  144.4230 C   0  0  0  0  0  1  0  0  0  0  0  0
  180.7400  178.8090  137.2220 O   0  0  0  0  0  1  0  0  0  0  0  0
  181.5000  178.0890  136.3000 C   0  0  0  0  0  2  0  0  0  0  0  0
  185.2070  175.8380  134.9070 O   0  0  0  0  0  0  0  0  0  0  0  0
  185.6350  176.1930  135.9990 C   0  0  0  0  0  0  0  0  0  0  0  0
  187.0980  176.4930  136.1530 C   0  0  1  0  0  3  0  0  0  0  0  0
  187.6360  175.8400  137.3490 C   0  0  1  0  0  3  0  0  0  0  0  0
  187.8870  175.2540  136.0250 N   0  0  0  0  0  2  0  0  0  0  0  0
  189.1000  177.8110  136.9730 C   0  0  0  0  0  1  0  0  0  0  0  0
  188.8930  176.5630  137.8060 C   0  0  0  0  0  2  0  0  0  0  0  0
  182.0870  173.3390  137.1530 C   0  0  0  0  0  2  0  0  0  0  0  0
  183.0390  171.0940  136.7040 C   0  0  0  0  0  1  0  0  0  0  0  0
  181.1200  171.8820  135.3670 C   0  0  0  0  0  1  0  0  0  0  0  0
  182.3880  172.3080  136.0750 C   0  0  0  0  0  3  0  0  0  0  0  0
  1 31  1  0  0  0  0
  1  6  1  0  0  0  0
  2 25  1  6  0  0  0
  2  6  1  0  0  0  0
  3  2  1  0  0  0  0
  3  9  1  1  0  0  0
  5 23  1  6  0  0  0
  5  3  1  0  0  0  0
  6  4  2  0  0  0  0
  7  1  1  0  0  0  0
  7  5  1  0  0  0  0
  8  9  1  0  0  0  0
  8 11  2  0  0  0  0
  9 13  1  0  0  0  0
 10 16  1  6  0  0  0
 11 10  1  0  0  0  0
 13 12  2  0  0  0  0
 13 10  1  0  0  0  0
 14 16  1  0  0  0  0
 14 20  1  0  0  0  0
 15 21  1  0  0  0  0
 16 18  2  0  0  0  0
 18 15  1  0  0  0  0
 18 17  1  0  0  0  0
 19 14  2  0  0  0  0
 20 15  1  0  0  0  0
 23 22  1  0  0  0  0
 24 25  2  0  0  0  0
 26 25  1  1  0  0  0
 26 27  1  0  0  0  0
 27 30  1  6  0  0  0
 28 26  1  0  0  0  0
 28 27  1  0  0  0  0
 29 30  1  0  0  0  0
 33 34  1  0  0  0  0
 34 32  1  0  0  0  0
 34 31  1  0  0  0  0
M  END
>  <MODEL>
3

>  <REMARK>
 VINA RESULT:      -5.7      2.503      6.149
  Name = 
  8 active torsions:
  status: ('A' for Active; 'I' for Inactive)
    1  A    between atoms: C_1  and  C_18
    2  A    between atoms: C_2  and  N_3
    3  A    between atoms: C_2  and  C_28
    4  A    between atoms: C_8  and  C_13
    5  A    between atoms: N_10  and  C_20
    6  A    between atoms: C_14  and  C_18
    7  A    between atoms: C_19  and  C_31
    8  A    between atoms: C_27  and  C_34
                            x       y       z     vdW  Elec       q    Type
                         _______ _______ _______ _____ _____    ______ ____

>  <TORSDO>
F 8

$$$$
=
 OpenBabel10222418183D

 34 37  0  0  1  0  0  0  0  0999 V2000
  188.8710  174.1940  135.4410 N   0  0  0  0  0  0  0  0  0  0  0  0
  190.3520  175.6650  136.8880 C   0  0  1  0  0  3  0  0  0  0  0  0
  189.5030  176.8720  136.4220 C   0  0  1  0  0  3  0  0  0  0  0  0
  189.9470  173.3520  137.3380 O   0  0  0  0  0  0  0  0  0  0  0  0
  188.3340  176.5650  135.4690 C   0  0  2  0  0  3  0  0  0  0  0  0
  189.7230  174.3350  136.5830 C   0  0  0  0  0  0  0  0  0  0  0  0
  188.6400  175.3550  134.5940 C   0  0  0  0  0  2  0  0  0  0  0  0
  189.5930  178.8930  137.9010 N   0  0  0  0  0  0  0  0  0  0  0  0
  189.0450  177.6480  137.5660 N   0  0  0  0  0  0  0  0  0  0  0  0
  188.0660  178.2510  139.5790 C   0  0  1  0  0  3  0  0  0  0  0  0
  188.9190  179.3370  139.0740 N   0  0  0  0  0  0  0  0  0  0  0  0
  187.4450  176.1750  138.4860 O   0  0  0  0  0  0  0  0  0  0  0  0
  188.1300  177.2360  138.5390 C   0  0  0  0  0  0  0  0  0  0  0  0
  189.8350  177.1250  141.1260 C   0  0  0  0  0  0  0  0  0  0  0  0
  188.8430  177.2170  143.0240 N   0  0  0  0  0  0  0  0  0  0  0  0
  188.6140  177.7280  140.8740 C   0  0  0  0  0  0  0  0  0  0  0  0
  186.6580  178.3210  142.4180 C   0  0  0  0  0  1  0  0  0  0  0  0
  188.0110  177.7690  142.1160 C   0  0  0  0  0  0  0  0  0  0  0  0
  190.7300  176.8930  140.2730 O   0  0  0  0  0  0  0  0  0  0  0  0
  189.9580  176.8180  142.4330 N   0  0  0  0  0  2  0  0  0  0  0  0
  188.5860  177.0640  144.4490 C   0  0  0  0  0  1  0  0  0  0  0  0
  186.9080  178.4260  135.0080 O   0  0  0  0  0  1  0  0  0  0  0  0
  188.0730  177.7780  134.5940 C   0  0  0  0  0  2  0  0  0  0  0  0
  191.9430  176.0090  135.1580 O   0  0  0  0  0  0  0  0  0  0  0  0
  191.7550  175.7310  136.3360 C   0  0  0  0  0  0  0  0  0  0  0  0
  192.9170  175.3090  137.1870 C   0  0  1  0  0  3  0  0  0  0  0  0
  194.1840  175.6940  136.5590 C   0  0  1  0  0  3  0  0  0  0  0  0
  193.6500  176.4930  137.6700 N   0  0  0  0  0  2  0  0  0  0  0  0
  194.7620  173.4510  137.4580 C   0  0  0  0  0  1  0  0  0  0  0  0
  195.3060  174.8150  137.0890 C   0  0  0  0  0  2  0  0  0  0  0  0
  188.1420  172.9540  135.1920 C   0  0  0  0  0  2  0  0  0  0  0  0
  185.8210  172.2800  134.6370 C   0  0  0  0  0  1  0  0  0  0  0  0
  186.4460  172.6270  136.9990 C   0  0  0  0  0  1  0  0  0  0  0  0
  186.6770  173.0990  135.5800 C   0  0  0  0  0  3  0  0  0  0  0  0
  1  6  1  0  0  0  0
  2 25  1  6  0  0  0
  3  2  1  0  0  0  0
  3  9  1  1  0  0  0
  5 23  1  6  0  0  0
  5  3  1  0  0  0  0
  6  2  1  0  0  0  0
  6  4  2  0  0  0  0
  7  1  1  0  0  0  0
  7  5  1  0  0  0  0
  8 11  2  0  0  0  0
  9  8  1  0  0  0  0
  9 13  1  0  0  0  0
 10 16  1  1  0  0  0
 11 10  1  0  0  0  0
 12 13  2  0  0  0  0
 13 10  1  0  0  0  0
 14 20  1  0  0  0  0
 15 21  1  0  0  0  0
 16 14  1  0  0  0  0
 16 18  2  0  0  0  0
 18 17  1  0  0  0  0
 18 15  1  0  0  0  0
 19 14  2  0  0  0  0
 20 15  1  0  0  0  0
 23 22  1  0  0  0  0
 24 25  2  0  0  0  0
 26 25  1  6  0  0  0
 26 28  1  0  0  0  0
 27 30  1  1  0  0  0
 27 26  1  0  0  0  0
 27 28  1  0  0  0  0
 30 29  1  0  0  0  0
 31  1  1  0  0  0  0
 31 34  1  0  0  0  0
 32 34  1  0  0  0  0
 34 33  1  0  0  0  0
M  END
>  <MODEL>
4

>  <REMARK>
 VINA RESULT:      -5.7      3.887      7.402
  Name = 
  8 active torsions:
  status: ('A' for Active; 'I' for Inactive)
    1  A    between atoms: C_1  and  C_18
    2  A    between atoms: C_2  and  N_3
    3  A    between atoms: C_2  and  C_28
    4  A    between atoms: C_8  and  C_13
    5  A    between atoms: N_10  and  C_20
    6  A    between atoms: C_14  and  C_18
    7  A    between atoms: C_19  and  C_31
    8  A    between atoms: C_27  and  C_34
                            x       y       z     vdW  Elec       q    Type
                         _______ _______ _______ _____ _____    ______ ____

>  <TORSDO>
F 8

$$$$
=
 OpenBabel10222418183D

 34 37  0  0  1  0  0  0  0  0999 V2000
  188.9400  176.3780  138.0040 N   0  0  0  0  0  0  0  0  0  0  0  0
  191.1010  176.1350  139.3140 C   0  0  1  0  0  3  0  0  0  0  0  0
  190.5100  177.1190  140.3530 C   0  0  1  0  0  3  0  0  0  0  0  0
  190.2360  174.4390  137.8690 O   0  0  0  0  0  0  0  0  0  0  0  0
  189.0850  177.6300  140.0830 C   0  0  2  0  0  3  0  0  0  0  0  0
  190.0810  175.5890  138.3550 C   0  0  0  0  0  0  0  0  0  0  0  0
  188.8000  177.7050  138.5870 C   0  0  0  0  0  2  0  0  0  0  0  0
  190.0470  175.3370  142.0520 N   0  0  0  0  0  0  0  0  0  0  0  0
  190.6140  176.5670  141.6970 N   0  0  0  0  0  0  0  0  0  0  0  0
  190.9250  176.3640  143.9850 C   0  0  1  0  0  3  0  0  0  0  0  0
  190.3320  175.1370  143.4340 N   0  0  0  0  0  0  0  0  0  0  0  0
  191.7640  178.3100  142.8010 O   0  0  0  0  0  0  0  0  0  0  0  0
  191.1490  177.2050  142.8190 C   0  0  0  0  0  0  0  0  0  0  0  0
  188.7140  177.5490  144.6910 C   0  0  0  0  0  0  0  0  0  0  0  0
  189.0300  177.7920  146.7980 N   0  0  0  0  0  0  0  0  0  0  0  0
  189.9670  177.0140  144.9400 C   0  0  0  0  0  0  0  0  0  0  0  0
  191.3250  176.7900  147.1010 C   0  0  0  0  0  1  0  0  0  0  0  0
  190.1310  177.1880  146.3000 C   0  0  0  0  0  0  0  0  0  0  0  0
  188.1430  177.5930  143.5730 O   0  0  0  0  0  0  0  0  0  0  0  0
  188.1600  178.0200  145.8280 N   0  0  0  0  0  2  0  0  0  0  0  0
  188.8010  178.1560  148.1880 C   0  0  0  0  0  1  0  0  0  0  0  0
  187.5830  179.2350  141.0210 O   0  0  0  0  0  1  0  0  0  0  0  0
  188.9230  179.0060  140.7040 C   0  0  0  0  0  2  0  0  0  0  0  0
  192.9020  177.6650  139.0700 O   0  0  0  0  0  0  0  0  0  0  0  0
  192.2600  176.7510  138.5670 C   0  0  0  0  0  0  0  0  0  0  0  0
  192.5350  176.3520  137.1470 C   0  0  1  0  0  3  0  0  0  0  0  0
  193.9630  176.4780  136.8430 C   0  0  1  0  0  3  0  0  0  0  0  0
  193.3910  175.1520  137.1140 N   0  0  0  0  0  2  0  0  0  0  0  0
  195.3920  177.4530  135.0600 C   0  0  0  0  0  1  0  0  0  0  0  0
  194.1560  176.6250  135.3420 C   0  0  0  0  0  2  0  0  0  0  0  0
  187.8660  175.8280  137.1810 C   0  0  0  0  0  2  0  0  0  0  0  0
  187.7890  175.7910  134.7030 C   0  0  0  0  0  1  0  0  0  0  0  0
  186.2880  177.3140  135.9350 C   0  0  0  0  0  1  0  0  0  0  0  0
  187.6580  176.6690  135.9290 C   0  0  0  0  0  3  0  0  0  0  0  0
  1  6  1  0  0  0  0
  1  7  1  0  0  0  0
  2 25  1  6  0  0  0
  2  3  1  0  0  0  0
  3  9  1  1  0  0  0
  4  6  2  0  0  0  0
  5  3  1  0  0  0  0
  5 23  1  6  0  0  0
  6  2  1  0  0  0  0
  7  5  1  0  0  0  0
  8 11  2  0  0  0  0
  9  8  1  0  0  0  0
  9 13  1  0  0  0  0
 10 16  1  1  0  0  0
 11 10  1  0  0  0  0
 12 13  2  0  0  0  0
 13 10  1  0  0  0  0
 14 16  1  0  0  0  0
 14 20  1  0  0  0  0
 15 21  1  0  0  0  0
 16 18  2  0  0  0  0
 18 15  1  0  0  0  0
 18 17  1  0  0  0  0
 19 14  2  0  0  0  0
 20 15  1  0  0  0  0
 23 22  1  0  0  0  0
 25 24  2  0  0  0  0
 26 25  1  1  0  0  0
 27 30  1  6  0  0  0
 27 28  1  0  0  0  0
 27 26  1  0  0  0  0
 28 26  1  0  0  0  0
 29 30  1  0  0  0  0
 31  1  1  0  0  0  0
 32 34  1  0  0  0  0
 34 33  1  0  0  0  0
 34 31  1  0  0  0  0
M  END
>  <MODEL>
5

>  <REMARK>
 VINA RESULT:      -5.7      3.770      8.313
  Name = 
  8 active torsions:
  status: ('A' for Active; 'I' for Inactive)
    1  A    between atoms: C_1  and  C_18
    2  A    between atoms: C_2  and  N_3
    3  A    between atoms: C_2  and  C_28
    4  A    between atoms: C_8  and  C_13
    5  A    between atoms: N_10  and  C_20
    6  A    between atoms: C_14  and  C_18
    7  A    between atoms: C_19  and  C_31
    8  A    between atoms: C_27  and  C_34
                            x       y       z     vdW  Elec       q    Type
                         _______ _______ _______ _____ _____    ______ ____

>  <TORSDO>
F 8

$$$$
=
 OpenBabel10222418183D

 34 37  0  0  1  0  0  0  0  0999 V2000
  180.7660  178.4930  140.9020 N   0  0  0  0  0  0  0  0  0  0  0  0
  181.2440  178.3110  138.4140 C   0  0  1  0  0  3  0  0  0  0  0  0
  182.7480  178.2300  138.7710 C   0  0  1  0  0  3  0  0  0  0  0  0
  179.1990  177.5910  139.4220 O   0  0  0  0  0  0  0  0  0  0  0  0
  183.1030  178.2670  140.2680 C   0  0  2  0  0  3  0  0  0  0  0  0
  180.3350  178.1060  139.5930 C   0  0  0  0  0  0  0  0  0  0  0  0
  182.0870  179.0870  141.0550 C   0  0  0  0  0  2  0  0  0  0  0  0
  184.2090  177.2090  137.0100 N   0  0  0  0  0  0  0  0  0  0  0  0
  183.3670  177.0830  138.1220 N   0  0  0  0  0  0  0  0  0  0  0  0
  183.8340  174.9200  137.4320 C   0  0  1  0  0  3  0  0  0  0  0  0
  184.6050  175.8910  136.6420 N   0  0  0  0  0  0  0  0  0  0  0  0
  182.4370  175.3110  139.3780 O   0  0  0  0  0  0  0  0  0  0  0  0
  183.1240  175.7360  138.4050 C   0  0  0  0  0  0  0  0  0  0  0  0
  181.8260  174.6810  135.7900 C   0  0  0  0  0  0  0  0  0  0  0  0
  181.8500  172.5710  135.4110 N   0  0  0  0  0  0  0  0  0  0  0  0
  182.8730  174.1830  136.5460 C   0  0  0  0  0  0  0  0  0  0  0  0
  183.7820  171.8060  136.8400 C   0  0  0  0  0  1  0  0  0  0  0  0
  182.8560  172.8300  136.2740 C   0  0  0  0  0  0  0  0  0  0  0  0
  181.4790  175.8870  135.7200 O   0  0  0  0  0  0  0  0  0  0  0  0
  181.2130  173.6910  135.1090 N   0  0  0  0  0  2  0  0  0  0  0  0
  181.4900  171.2680  134.8710 C   0  0  0  0  0  1  0  0  0  0  0  0
  184.7180  179.8270  139.4500 O   0  0  0  0  0  1  0  0  0  0  0  0
  184.4880  178.8670  140.4370 C   0  0  0  0  0  2  0  0  0  0  0  0
  180.3080  179.5810  136.6380 O   0  0  0  0  0  0  0  0  0  0  0  0
  180.9130  179.6000  137.7030 C   0  0  0  0  0  0  0  0  0  0  0  0
  181.4550  180.9010  138.2180 C   0  0  1  0  0  3  0  0  0  0  0  0
  180.7130  182.0310  137.6510 C   0  0  1  0  0  3  0  0  0  0  0  0
  180.4340  181.5930  139.0250 N   0  0  0  0  0  2  0  0  0  0  0  0
  181.1820  184.2230  136.5810 C   0  0  0  0  0  1  0  0  0  0  0  0
  181.5690  183.2860  137.7050 C   0  0  0  0  0  2  0  0  0  0  0  0
  179.9640  178.1890  142.0830 C   0  0  0  0  0  2  0  0  0  0  0  0
  179.0620  180.4790  142.3840 C   0  0  0  0  0  1  0  0  0  0  0  0
  179.2870  179.0010  144.3470 C   0  0  0  0  0  1  0  0  0  0  0  0
  179.8990  179.3870  143.0180 C   0  0  0  0  0  3  0  0  0  0  0  0
  1  7  1  0  0  0  0
  1 31  1  0  0  0  0
  2 25  1  1  0  0  0
  2  3  1  0  0  0  0
  2  6  1  0  0  0  0
  3  9  1  1  0  0  0
  3  5  1  0  0  0  0
  4  6  2  0  0  0  0
  5 23  1  6  0  0  0
  5  7  1  0  0  0  0
  6  1  1  0  0  0  0
  8  9  1  0  0  0  0
  9 13  1  0  0  0  0
 10 16  1  6  0  0  0
 10 13  1  0  0  0  0
 11  8  2  0  0  0  0
 11 10  1  0  0  0  0
 13 12  2  0  0  0  0
 14 16  1  0  0  0  0
 15 18  1  0  0  0  0
 18 16  2  0  0  0  0
 18 17  1  0  0  0  0
 19 14  2  0  0  0  0
 20 15  1  0  0  0  0
 20 14  1  0  0  0  0
 21 15  1  0  0  0  0
 22 23  1  0  0  0  0
 24 25  2  0  0  0  0
 26 25  1  6  0  0  0
 26 28  1  0  0  0  0
 27 30  1  1  0  0  0
 27 26  1  0  0  0  0
 27 28  1  0  0  0  0
 29 30  1  0  0  0  0
 31 34  1  0  0  0  0
 32 34  1  0  0  0  0
 34 33  1  0  0  0  0
M  END
>  <MODEL>
6

>  <REMARK>
 VINA RESULT:      -5.3      4.389      6.992
  Name = 
  8 active torsions:
  status: ('A' for Active; 'I' for Inactive)
    1  A    between atoms: C_1  and  C_18
    2  A    between atoms: C_2  and  N_3
    3  A    between atoms: C_2  and  C_28
    4  A    between atoms: C_8  and  C_13
    5  A    between atoms: N_10  and  C_20
    6  A    between atoms: C_14  and  C_18
    7  A    between atoms: C_19  and  C_31
    8  A    between atoms: C_27  and  C_34
                            x       y       z     vdW  Elec       q    Type
                         _______ _______ _______ _____ _____    ______ ____

>  <TORSDO>
F 8

$$$$
=
 OpenBabel10222418183D

 34 37  0  0  1  0  0  0  0  0999 V2000
  190.3210  177.3700  141.2250 N   0  0  0  0  0  0  0  0  0  0  0  0
  189.5300  177.2310  138.8160 C   0  0  1  0  0  3  0  0  0  0  0  0
  190.9750  176.8300  138.4300 C   0  0  1  0  0  3  0  0  0  0  0  0
  188.0970  176.8830  140.6970 O   0  0  0  0  0  0  0  0  0  0  0  0
  191.9880  176.7140  139.5820 C   0  0  2  0  0  3  0  0  0  0  0  0
  189.2590  177.1490  140.2920 C   0  0  0  0  0  0  0  0  0  0  0  0
  191.6490  177.6770  140.7130 C   0  0  0  0  0  2  0  0  0  0  0  0
  190.2330  174.4820  137.9700 N   0  0  0  0  0  0  0  0  0  0  0  0
  190.9720  175.6190  137.6210 N   0  0  0  0  0  0  0  0  0  0  0  0
  191.5580  173.9870  136.0830 C   0  0  1  0  0  3  0  0  0  0  0  0
  190.4880  173.5020  136.9680 N   0  0  0  0  0  0  0  0  0  0  0  0
  192.5100  176.2140  135.9300 O   0  0  0  0  0  0  0  0  0  0  0  0
  191.7690  175.3640  136.5020 C   0  0  0  0  0  0  0  0  0  0  0  0
  193.8560  173.3830  137.1520 C   0  0  0  0  0  0  0  0  0  0  0  0
  194.3220  171.5590  136.1280 N   0  0  0  0  0  0  0  0  0  0  0  0
  192.8000  173.1690  136.2830 C   0  0  0  0  0  0  0  0  0  0  0  0
  192.3370  171.2990  134.5940 C   0  0  0  0  0  1  0  0  0  0  0  0
  193.1360  171.9900  135.6470 C   0  0  0  0  0  0  0  0  0  0  0  0
  193.9660  174.3480  137.9510 O   0  0  0  0  0  0  0  0  0  0  0  0
  194.7730  172.4000  137.0430 N   0  0  0  0  0  2  0  0  0  0  0  0
  195.0310  170.3540  135.7210 C   0  0  0  0  0  1  0  0  0  0  0  0
  194.2870  177.0950  140.1120 O   0  0  0  0  0  1  0  0  0  0  0  0
  193.3800  177.0130  139.0540 C   0  0  0  0  0  2  0  0  0  0  0  0
  189.0660  179.5490  139.0460 O   0  0  0  0  0  0  0  0  0  0  0  0
  189.1750  178.5970  138.2830 C   0  0  0  0  0  0  0  0  0  0  0  0
  188.8050  178.7660  136.8380 C   0  0  1  0  0  3  0  0  0  0  0  0
  187.7000  177.8730  136.4790 C   0  0  1  0  0  3  0  0  0  0  0  0
  187.4350  179.2980  136.7240 N   0  0  0  0  0  2  0  0  0  0  0  0
  188.8150  176.6680  134.6160 C   0  0  0  0  0  1  0  0  0  0  0  0
  187.7040  177.6310  134.9790 C   0  0  0  0  0  2  0  0  0  0  0  0
  190.1210  177.1680  142.6580 C   0  0  0  0  0  2  0  0  0  0  0  0
  191.0250  179.0600  143.9820 C   0  0  0  0  0  1  0  0  0  0  0  0
  191.6290  176.7500  144.6060 C   0  0  0  0  0  1  0  0  0  0  0  0
  191.3190  177.6730  143.4480 C   0  0  0  0  0  3  0  0  0  0  0  0
  1 31  1  0  0  0  0
  2 25  1  1  0  0  0
  2  6  1  0  0  0  0
  3  9  1  1  0  0  0
  3  2  1  0  0  0  0
  3  5  1  0  0  0  0
  5 23  1  6  0  0  0
  5  7  1  0  0  0  0
  6  4  2  0  0  0  0
  6  1  1  0  0  0  0
  7  1  1  0  0  0  0
  9  8  1  0  0  0  0
 10 16  1  1  0  0  0
 10 13  1  0  0  0  0
 10 11  1  0  0  0  0
 11  8  2  0  0  0  0
 12 13  2  0  0  0  0
 13  9  1  0  0  0  0
 14 19  2  0  0  0  0
 15 20  1  0  0  0  0
 16 14  1  0  0  0  0
 17 18  1  0  0  0  0
 18 15  1  0  0  0  0
 18 16  2  0  0  0  0
 20 14  1  0  0  0  0
 21 15  1  0  0  0  0
 23 22  1  0  0  0  0
 25 24  2  0  0  0  0
 26 25  1  1  0  0  0
 27 30  1  6  0  0  0
 27 28  1  0  0  0  0
 27 26  1  0  0  0  0
 28 26  1  0  0  0  0
 29 30  1  0  0  0  0
 31 34  1  0  0  0  0
 34 32  1  0  0  0  0
 34 33  1  0  0  0  0
M  END
>  <MODEL>
7

>  <REMARK>
 VINA RESULT:      -5.2      4.194      7.821
  Name = 
  8 active torsions:
  status: ('A' for Active; 'I' for Inactive)
    1  A    between atoms: C_1  and  C_18
    2  A    between atoms: C_2  and  N_3
    3  A    between atoms: C_2  and  C_28
    4  A    between atoms: C_8  and  C_13
    5  A    between atoms: N_10  and  C_20
    6  A    between atoms: C_14  and  C_18
    7  A    between atoms: C_19  and  C_31
    8  A    between atoms: C_27  and  C_34
                            x       y       z     vdW  Elec       q    Type
                         _______ _______ _______ _____ _____    ______ ____

>  <TORSDO>
F 8

$$$$
=
 OpenBabel10222418183D

 34 37  0  0  1  0  0  0  0  0999 V2000
  182.9400  178.7750  141.9730 N   0  0  0  0  0  0  0  0  0  0  0  0
  181.0660  178.7140  140.2610 C   0  0  1  0  0  3  0  0  0  0  0  0
  182.0860  178.1250  139.2560 C   0  0  1  0  0  3  0  0  0  0  0  0
  180.7040  178.5760  142.6190 O   0  0  0  0  0  0  0  0  0  0  0  0
  183.5120  177.8890  139.7820 C   0  0  2  0  0  3  0  0  0  0  0  0
  181.5410  178.6840  141.6860 C   0  0  0  0  0  0  0  0  0  0  0  0
  183.8750  178.9000  140.8630 C   0  0  0  0  0  2  0  0  0  0  0  0
  181.0420  175.8510  139.3890 N   0  0  0  0  0  0  0  0  0  0  0  0
  181.5570  176.9160  138.6400 N   0  0  0  0  0  0  0  0  0  0  0  0
  181.0980  175.2310  137.1140 C   0  0  1  0  0  3  0  0  0  0  0  0
  180.6420  174.8480  138.4590 N   0  0  0  0  0  0  0  0  0  0  0  0
  181.9790  177.3630  136.3590 O   0  0  0  0  0  0  0  0  0  0  0  0
  181.6030  176.5850  137.2830 C   0  0  0  0  0  0  0  0  0  0  0  0
  183.4700  174.1530  137.1570 C   0  0  0  0  0  0  0  0  0  0  0  0
  183.3040  172.7260  135.5660 N   0  0  0  0  0  0  0  0  0  0  0  0
  182.1870  174.3050  136.6580 C   0  0  0  0  0  0  0  0  0  0  0  0
  180.9470  173.1160  134.7580 C   0  0  0  0  0  1  0  0  0  0  0  0
  182.1210  173.3720  135.6420 C   0  0  0  0  0  0  0  0  0  0  0  0
  183.9680  174.7990  138.1140 O   0  0  0  0  0  0  0  0  0  0  0  0
  184.1360  173.1930  136.4820 N   0  0  0  0  0  2  0  0  0  0  0  0
  183.6500  171.6680  134.6280 C   0  0  0  0  0  1  0  0  0  0  0  0
  185.6470  178.6660  139.0420 O   0  0  0  0  0  1  0  0  0  0  0  0
  184.4930  177.9990  138.6280 C   0  0  0  0  0  2  0  0  0  0  0  0
  179.9570  180.7840  140.6230 O   0  0  0  0  0  0  0  0  0  0  0  0
  180.6460  180.1090  139.8670 C   0  0  0  0  0  0  0  0  0  0  0  0
  180.9410  180.6210  138.4880 C   0  0  1  0  0  3  0  0  0  0  0  0
  180.6690  182.0580  138.4000 C   0  0  1  0  0  3  0  0  0  0  0  0
  182.0540  181.5870  138.5320 N   0  0  0  0  0  2  0  0  0  0  0  0
  181.1180  183.7550  136.6430 C   0  0  0  0  0  1  0  0  0  0  0  0
  180.4240  182.4450  136.9510 C   0  0  0  0  0  2  0  0  0  0  0  0
  183.4430  178.6160  143.3350 C   0  0  0  0  0  2  0  0  0  0  0  0
  185.1300  179.7440  144.7610 C   0  0  0  0  0  1  0  0  0  0  0  0
  185.8300  177.8740  143.3100 C   0  0  0  0  0  1  0  0  0  0  0  0
  184.8960  179.0590  143.4300 C   0  0  0  0  0  3  0  0  0  0  0  0
  1 31  1  0  0  0  0
  2 25  1  6  0  0  0
  2  6  1  0  0  0  0
  3  9  1  1  0  0  0
  3  5  1  0  0  0  0
  3  2  1  0  0  0  0
  5 23  1  6  0  0  0
  5  7  1  0  0  0  0
  6  1  1  0  0  0  0
  6  4  2  0  0  0  0
  7  1  1  0  0  0  0
  9  8  1  0  0  0  0
 10 16  1  1  0  0  0
 10 13  1  0  0  0  0
 10 11  1  0  0  0  0
 11  8  2  0  0  0  0
 12 13  2  0  0  0  0
 13  9  1  0  0  0  0
 14 19  2  0  0  0  0
 15 18  1  0  0  0  0
 15 20  1  0  0  0  0
 16 14  1  0  0  0  0
 17 18  1  0  0  0  0
 18 16  2  0  0  0  0
 20 14  1  0  0  0  0
 21 15  1  0  0  0  0
 23 22  1  0  0  0  0
 25 24  2  0  0  0  0
 26 28  1  0  0  0  0
 26 25  1  1  0  0  0
 27 30  1  6  0  0  0
 27 26  1  0  0  0  0
 27 28  1  0  0  0  0
 29 30  1  0  0  0  0
 31 34  1  0  0  0  0
 33 34  1  0  0  0  0
 34 32  1  0  0  0  0
M  END
>  <MODEL>
8

>  <REMARK>
 VINA RESULT:      -5.2      4.274      7.257
  Name = 
  8 active torsions:
  status: ('A' for Active; 'I' for Inactive)
    1  A    between atoms: C_1  and  C_18
    2  A    between atoms: C_2  and  N_3
    3  A    between atoms: C_2  and  C_28
    4  A    between atoms: C_8  and  C_13
    5  A    between atoms: N_10  and  C_20
    6  A    between atoms: C_14  and  C_18
    7  A    between atoms: C_19  and  C_31
    8  A    between atoms: C_27  and  C_34
                            x       y       z     vdW  Elec       q    Type
                         _______ _______ _______ _____ _____    ______ ____

>  <TORSDO>
F 8

$$$$
=
 OpenBabel10222418183D

 34 37  0  0  1  0  0  0  0  0999 V2000
  192.0830  176.0130  137.2470 N   0  0  0  0  0  0  0  0  0  0  0  0
  189.7180  175.4270  136.5310 C   0  0  1  0  0  3  0  0  0  0  0  0
  189.2220  176.1060  137.8310 C   0  0  1  0  0  3  0  0  0  0  0  0
  191.5160  175.7700  134.9930 O   0  0  0  0  0  0  0  0  0  0  0  0
  190.2990  176.7270  138.7370 C   0  0  2  0  0  3  0  0  0  0  0  0
  191.1490  175.7430  136.1970 C   0  0  0  0  0  0  0  0  0  0  0  0
  191.6170  175.9690  138.6260 C   0  0  0  0  0  2  0  0  0  0  0  0
  188.4040  178.4560  137.5400 N   0  0  0  0  0  0  0  0  0  0  0  0
  188.1760  177.0750  137.5360 N   0  0  0  0  0  0  0  0  0  0  0  0
  186.1010  178.0600  137.2220 C   0  0  1  0  0  3  0  0  0  0  0  0
  187.1610  179.0800  137.2300 N   0  0  0  0  0  0  0  0  0  0  0  0
  186.3180  175.6430  137.2540 O   0  0  0  0  0  0  0  0  0  0  0  0
  186.8180  176.8010  137.3460 C   0  0  0  0  0  0  0  0  0  0  0  0
  185.4850  178.5980  139.6960 C   0  0  0  0  0  0  0  0  0  0  0  0
  183.3460  178.4810  139.6240 N   0  0  0  0  0  0  0  0  0  0  0  0
  185.1780  178.2700  138.3860 C   0  0  0  0  0  0  0  0  0  0  0  0
  182.9360  177.8790  137.2100 C   0  0  0  0  0  1  0  0  0  0  0  0
  183.7990  178.2070  138.3820 C   0  0  0  0  0  0  0  0  0  0  0  0
  186.6410  178.7750  140.1570 O   0  0  0  0  0  0  0  0  0  0  0  0
  184.3630  178.7200  140.4350 N   0  0  0  0  0  2  0  0  0  0  0  0
  181.9530  178.5180  140.0460 C   0  0  0  0  0  1  0  0  0  0  0  0
  189.9890  177.9580  140.7610 O   0  0  0  0  0  1  0  0  0  0  0  0
  189.8150  176.7040  140.1760 C   0  0  0  0  0  2  0  0  0  0  0  0
  189.8040  173.2880  137.5610 O   0  0  0  0  0  0  0  0  0  0  0  0
  189.4950  173.9350  136.5680 C   0  0  0  0  0  0  0  0  0  0  0  0
  189.0350  173.2140  135.3350 C   0  0  1  0  0  3  0  0  0  0  0  0
  187.9370  172.2970  135.6510 C   0  0  1  0  0  3  0  0  0  0  0  0
  187.6450  173.5890  135.0160 N   0  0  0  0  0  2  0  0  0  0  0  0
  188.8850  170.1330  134.8840 C   0  0  0  0  0  1  0  0  0  0  0  0
  187.8580  171.2070  134.5940 C   0  0  0  0  0  2  0  0  0  0  0  0
  193.4440  176.4510  136.9520 C   0  0  0  0  0  2  0  0  0  0  0  0
  195.4480  175.6300  135.7430 C   0  0  0  0  0  1  0  0  0  0  0  0
  195.0000  174.8190  138.0300 C   0  0  0  0  0  1  0  0  0  0  0  0
  194.3620  175.2570  136.7300 C   0  0  0  0  0  3  0  0  0  0  0  0
  1  7  1  0  0  0  0
  2 25  1  1  0  0  0
  2  3  1  0  0  0  0
  3  9  1  6  0  0  0
  3  5  1  0  0  0  0
  4  6  2  0  0  0  0
  5 23  1  1  0  0  0
  6  2  1  0  0  0  0
  6  1  1  0  0  0  0
  7  5  1  0  0  0  0
  9  8  1  0  0  0  0
 10 11  1  0  0  0  0
 10 13  1  0  0  0  0
 10 16  1  1  0  0  0
 11  8  2  0  0  0  0
 12 13  2  0  0  0  0
 13  9  1  0  0  0  0
 14 19  2  0  0  0  0
 14 20  1  0  0  0  0
 15 21  1  0  0  0  0
 15 20  1  0  0  0  0
 16 14  1  0  0  0  0
 17 18  1  0  0  0  0
 18 16  2  0  0  0  0
 18 15  1  0  0  0  0
 23 22  1  0  0  0  0
 25 24  2  0  0  0  0
 26 27  1  0  0  0  0
 26 25  1  1  0  0  0
 27 30  1  6  0  0  0
 28 26  1  0  0  0  0
 28 27  1  0  0  0  0
 30 29  1  0  0  0  0
 31  1  1  0  0  0  0
 32 34  1  0  0  0  0
 34 31  1  0  0  0  0
 34 33  1  0  0  0  0
M  END
>  <MODEL>
9

>  <REMARK>
 VINA RESULT:      -5.2      2.718      8.836
  Name = 
  8 active torsions:
  status: ('A' for Active; 'I' for Inactive)
    1  A    between atoms: C_1  and  C_18
    2  A    between atoms: C_2  and  N_3
    3  A    between atoms: C_2  and  C_28
    4  A    between atoms: C_8  and  C_13
    5  A    between atoms: N_10  and  C_20
    6  A    between atoms: C_14  and  C_18
    7  A    between atoms: C_19  and  C_31
    8  A    between atoms: C_27  and  C_34
                            x       y       z     vdW  Elec       q    Type
                         _______ _______ _______ _____ _____    ______ ____

>  <TORSDO>
F 8

$$$$
