=
 OpenBabel10222419003D

 38 42  0  0  1  0  0  0  0  0999 V2000
  188.1470  177.8030  142.1100 C   0  0  0  0  0  0  0  0  0  0  0  0
  190.3230  177.3260  141.2170 N   0  0  0  0  0  0  0  0  0  0  0  0
  186.1180  177.9290  144.1040 C   0  0  0  0  0  3  0  0  0  0  0  0
  190.8560  177.2940  139.9700 C   0  0  0  0  0  3  0  0  0  0  0  0
  186.4830  178.3940  140.4250 C   0  0  0  0  0  0  0  0  0  0  0  0
  188.7290  177.8430  139.8140 C   0  0  0  0  0  0  0  0  0  0  0  0
  186.8270  178.1830  141.7820 C   0  0  0  0  0  0  0  0  0  0  0  0
  188.5530  177.6800  143.5520 C   0  0  0  0  0  2  0  0  0  0  0  0
  187.4480  178.2190  139.4190 C   0  0  0  0  0  3  0  0  0  0  0  0
  189.0460  177.6560  141.1020 N   0  0  0  0  0  0  0  0  0  0  0  0
  187.3830  177.1500  144.4050 C   0  0  1  0  0  3  0  0  0  0  0  0
  189.8520  177.6200  139.0620 C   0  0  0  0  0  0  0  0  0  0  0  0
  185.8470  178.3630  142.8700 C   0  0  0  0  0  3  0  0  0  0  0  0
  187.2020  178.3590  147.9740 C   0  0  0  0  0  2  0  0  0  0  0  0
  186.9690  178.3030  146.4570 C   0  0  0  0  0  2  0  0  0  0  0  0
  189.5480  177.5700  147.4740 C   0  0  0  0  0  2  0  0  0  0  0  0
  189.1320  177.4990  145.9960 C   0  0  0  0  0  2  0  0  0  0  0  0
  187.7040  177.1910  145.8400 N   0  0  0  0  0  0  0  0  0  0  0  0
  188.3530  177.4550  148.4220 C   0  0  0  0  0  2  0  0  0  0  0  0
  189.1230  175.5890  137.1130 O   0  0  0  0  0  0  0  0  0  0  0  0
  189.9500  177.7190  137.6370 N   0  0  0  0  0  2  0  0  0  0  0  0
  189.5770  176.6930  136.7120 C   0  0  0  0  0  0  0  0  0  0  0  0
  189.7310  176.9330  135.2540 C   0  0  0  0  0  1  0  0  0  0  0  0
  183.6950  178.8910  140.3240 C   0  0  1  0  0  3  0  0  0  0  0  0
  185.1630  178.7890  140.0590 N   0  0  0  0  0  0  0  0  0  0  0  0
  183.9830  178.4840  138.0360 O   0  0  0  0  0  1  0  0  0  0  0  0
  184.1650  179.3670  139.1060 C   0  0  1  0  0  3  0  0  0  0  0  0
  183.0810  177.4870  140.3110 C   0  0  0  0  0  2  0  0  0  0  0  0
  181.0690  176.2310  139.9490 O   0  0  0  0  0  1  0  0  0  0  0  0
  181.6440  177.4920  139.7950 C   0  0  1  0  0  3  0  0  0  0  0  0
  180.7870  178.5410  140.4930 C   0  0  0  0  0  2  0  0  0  0  0  0
  178.9310  177.7590  141.7790 O   0  0  0  0  0  1  0  0  0  0  0  0
  180.2960  178.0430  141.8420 C   0  0  2  0  0  3  0  0  0  0  0  0
  179.9030  178.9050  144.3900 O   0  0  0  0  0  1  0  0  0  0  0  0
  180.5850  179.3160  143.1040 P   0  0  2  0  0  0  0  0  0  0  0  0
  179.9350  180.7810  142.5640 O   0  0  0  0  0  0  0  0  0  0  0  0
  182.2550  179.4780  143.3570 O   0  0  0  0  0  0  0  0  0  0  0  0
  182.5480  178.6570  144.4460 C   0  0  0  0  0  1  0  0  0  0  0  0
  1  8  1  0  0  0  0
  3 11  1  0  0  0  0
  4  2  2  0  0  0  0
  5  7  1  0  0  0  0
  6 10  1  0  0  0  0
  7  1  2  0  0  0  0
  7 13  1  0  0  0  0
  9  6  1  0  0  0  0
  9  5  2  0  0  0  0
 10  2  1  0  0  0  0
 10  1  1  0  0  0  0
 11  8  1  6  0  0  0
 11 18  1  0  0  0  0
 12  6  2  0  0  0  0
 12  4  1  0  0  0  0
 13  3  2  0  0  0  0
 14 19  1  0  0  0  0
 15 14  1  0  0  0  0
 16 19  1  0  0  0  0
 17 16  1  0  0  0  0
 18 17  1  0  0  0  0
 18 15  1  0  0  0  0
 21 12  1  0  0  0  0
 22 20  2  0  0  0  0
 22 21  1  0  0  0  0
 23 22  1  0  0  0  0
 24 28  1  6  0  0  0
 25 24  1  0  0  0  0
 25  5  1  0  0  0  0
 27 26  1  6  0  0  0
 27 25  1  0  0  0  0
 27 24  1  0  0  0  0
 30 29  1  1  0  0  0
 30 28  1  0  0  0  0
 30 31  1  0  0  0  0
 31 33  1  0  0  0  0
 33 32  1  6  0  0  0
 33 35  1  0  0  0  0
 35 36  2  6  0  0  0
 35 37  1  0  0  0  0
 35 34  1  0  0  0  0
 37 38  1  0  0  0  0
M  END
>  <MODEL>
1

>  <REMARK>
 VINA RESULT:      -8.7      0.000      0.000
  Name = 
  9 active torsions:
  status: ('A' for Active; 'I' for Inactive)
    1  A    between atoms: C_2  and  C_18
    2  A    between atoms: C_2  and  C_23
    3  A    between atoms: N_7  and  C_36
    4  A    between atoms: O_8  and  P_16
    5  A    between atoms: CA_12  and  C_20
    6  A    between atoms: C_13  and  N_19
    7  A    between atoms: P_16  and  C_18
    8  A    between atoms: C_20  and  C_23
    9  A    between atoms: N_30  and  C_35
                            x       y       z     vdW  Elec       q    Type
                         _______ _______ _______ _____ _____    ______ ____

>  <TORSDO>
F 9

$$$$
=
 OpenBabel10222419003D

 38 42  0  0  1  0  0  0  0  0999 V2000
  188.6420  177.7080  142.5750 C   0  0  0  0  0  0  0  0  0  0  0  0
  190.9910  177.2530  142.7520 N   0  0  0  0  0  0  0  0  0  0  0  0
  186.2210  178.4420  141.2680 C   0  0  0  0  0  3  0  0  0  0  0  0
  191.8490  177.0470  143.7840 C   0  0  0  0  0  3  0  0  0  0  0  0
  187.4800  177.8130  144.7180 C   0  0  0  0  0  0  0  0  0  0  0  0
  189.8340  177.4020  144.5990 C   0  0  0  0  0  0  0  0  0  0  0  0
  187.4480  177.8890  143.3050 C   0  0  0  0  0  0  0  0  0  0  0  0
  188.6030  177.6790  141.0720 C   0  0  0  0  0  2  0  0  0  0  0  0
  188.6940  177.5690  145.3820 C   0  0  0  0  0  3  0  0  0  0  0  0
  189.7880  177.4640  143.2620 N   0  0  0  0  0  0  0  0  0  0  0  0
  187.5320  178.6490  140.5350 C   0  0  1  0  0  3  0  0  0  0  0  0
  191.1260  177.1410  144.9710 C   0  0  0  0  0  0  0  0  0  0  0  0
  186.1930  178.1360  142.5680 C   0  0  0  0  0  3  0  0  0  0  0  0
  185.6940  178.0180  137.3010 C   0  0  0  0  0  2  0  0  0  0  0  0
  185.9670  178.1160  138.8090 C   0  0  0  0  0  2  0  0  0  0  0  0
  188.0640  177.1680  137.0990 C   0  0  0  0  0  2  0  0  0  0  0  0
  188.1970  177.3930  138.6140 C   0  0  0  0  0  2  0  0  0  0  0  0
  187.3570  178.5040  139.0820 N   0  0  0  0  0  0  0  0  0  0  0  0
  186.9810  178.0480  136.4730 C   0  0  0  0  0  2  0  0  0  0  0  0
  192.3740  174.7810  146.1230 O   0  0  0  0  0  0  0  0  0  0  0  0
  191.6070  176.9890  146.3110 N   0  0  0  0  0  2  0  0  0  0  0  0
  192.2180  175.8060  146.8370 C   0  0  0  0  0  0  0  0  0  0  0  0
  192.6740  175.7880  148.2510 C   0  0  0  0  0  1  0  0  0  0  0  0
  184.8030  177.9630  145.6360 C   0  0  1  0  0  3  0  0  0  0  0  0
  186.2900  177.9800  145.4870 N   0  0  0  0  0  0  0  0  0  0  0  0
  185.6330  179.7350  146.9220 O   0  0  0  0  0  1  0  0  0  0  0  0
  185.5580  178.3510  146.7370 C   0  0  1  0  0  3  0  0  0  0  0  0
  184.2000  179.0950  144.7970 C   0  0  0  0  0  2  0  0  0  0  0  0
  181.8210  178.7740  144.8090 O   0  0  0  0  0  1  0  0  0  0  0  0
  182.9650  178.6400  144.0220 C   0  0  1  0  0  3  0  0  0  0  0  0
  182.7890  179.4110  142.7190 C   0  0  0  0  0  2  0  0  0  0  0  0
  182.7930  178.8130  140.4060 O   0  0  0  0  0  1  0  0  0  0  0  0
  182.1920  178.5310  141.6330 C   0  0  2  0  0  3  0  0  0  0  0  0
  179.6740  177.8940  142.4360 O   0  0  0  0  0  1  0  0  0  0  0  0
  180.4070  178.8410  141.5110 P   0  0  2  0  0  0  0  0  0  0  0  0
  179.9110  178.5680  139.9170 O   0  0  0  0  0  0  0  0  0  0  0  0
  180.0900  180.4480  141.9520 O   0  0  0  0  0  0  0  0  0  0  0  0
  179.5900  181.0580  140.8010 C   0  0  0  0  0  1  0  0  0  0  0  0
  1 10  1  0  0  0  0
  1  7  2  0  0  0  0
  2 10  1  0  0  0  0
  2  4  2  0  0  0  0
  3 13  2  0  0  0  0
  4 12  1  0  0  0  0
  5  9  2  0  0  0  0
  5 25  1  0  0  0  0
  6 12  2  0  0  0  0
  6  9  1  0  0  0  0
  7  5  1  0  0  0  0
  8  1  1  0  0  0  0
 10  6  1  0  0  0  0
 11 18  1  6  0  0  0
 11  8  1  0  0  0  0
 11  3  1  0  0  0  0
 12 21  1  0  0  0  0
 13  7  1  0  0  0  0
 14 15  1  0  0  0  0
 15 18  1  0  0  0  0
 16 17  1  0  0  0  0
 17 18  1  0  0  0  0
 19 16  1  0  0  0  0
 19 14  1  0  0  0  0
 20 22  2  0  0  0  0
 21 22  1  0  0  0  0
 22 23  1  0  0  0  0
 24 28  1  6  0  0  0
 24 27  1  0  0  0  0
 25 24  1  0  0  0  0
 25 27  1  0  0  0  0
 27 26  1  6  0  0  0
 30 28  1  0  0  0  0
 30 29  1  1  0  0  0
 31 30  1  0  0  0  0
 33 32  1  6  0  0  0
 33 31  1  0  0  0  0
 35 36  2  6  0  0  0
 35 33  1  0  0  0  0
 35 37  1  0  0  0  0
 35 34  1  0  0  0  0
 38 37  1  0  0  0  0
M  END
>  <MODEL>
2

>  <REMARK>
 VINA RESULT:      -8.4      2.637      6.364
  Name = 
  9 active torsions:
  status: ('A' for Active; 'I' for Inactive)
    1  A    between atoms: C_2  and  C_18
    2  A    between atoms: C_2  and  C_23
    3  A    between atoms: N_7  and  C_36
    4  A    between atoms: O_8  and  P_16
    5  A    between atoms: CA_12  and  C_20
    6  A    between atoms: C_13  and  N_19
    7  A    between atoms: P_16  and  C_18
    8  A    between atoms: C_20  and  C_23
    9  A    between atoms: N_30  and  C_35
                            x       y       z     vdW  Elec       q    Type
                         _______ _______ _______ _____ _____    ______ ____

>  <TORSDO>
F 9

$$$$
=
 OpenBabel10222419003D

 38 42  0  0  1  0  0  0  0  0999 V2000
  188.3080  177.9600  142.3330 C   0  0  0  0  0  0  0  0  0  0  0  0
  186.1380  178.8150  142.8970 N   0  0  0  0  0  0  0  0  0  0  0  0
  191.0000  177.1640  142.8080 C   0  0  0  0  0  3  0  0  0  0  0  0
  185.0550  179.2140  142.1840 C   0  0  0  0  0  3  0  0  0  0  0  0
  188.6930  177.7130  139.9360 C   0  0  0  0  0  0  0  0  0  0  0  0
  186.6260  178.5710  140.7810 C   0  0  0  0  0  0  0  0  0  0  0  0
  189.1550  177.5850  141.2670 C   0  0  0  0  0  0  0  0  0  0  0  0
  188.7450  177.7290  143.7520 C   0  0  0  0  0  2  0  0  0  0  0  0
  187.4070  178.2190  139.6830 C   0  0  0  0  0  3  0  0  0  0  0  0
  187.0700  178.4340  142.0370 N   0  0  0  0  0  0  0  0  0  0  0  0
  190.2680  177.9270  143.8950 C   0  0  1  0  0  3  0  0  0  0  0  0
  185.3500  179.0660  140.8310 C   0  0  0  0  0  0  0  0  0  0  0  0
  190.4950  177.0520  141.5770 C   0  0  0  0  0  3  0  0  0  0  0  0
  192.1170  175.8750  146.4630 C   0  0  0  0  0  2  0  0  0  0  0  0
  191.5320  176.3040  145.1100 C   0  0  0  0  0  2  0  0  0  0  0  0
  189.9810  176.7620  147.4780 C   0  0  0  0  0  2  0  0  0  0  0  0
  189.5730  177.1950  146.0600 C   0  0  0  0  0  2  0  0  0  0  0  0
  190.7380  177.5330  145.2310 N   0  0  0  0  0  0  0  0  0  0  0  0
  191.4970  176.6390  147.6350 C   0  0  0  0  0  2  0  0  0  0  0  0
  183.2900  177.3510  139.7050 O   0  0  0  0  0  0  0  0  0  0  0  0
  184.5080  179.3540  139.7090 N   0  0  0  0  0  2  0  0  0  0  0  0
  183.5040  178.4780  139.1870 C   0  0  0  0  0  0  0  0  0  0  0  0
  182.7000  178.9070  138.0130 C   0  0  0  0  0  1  0  0  0  0  0  0
  189.7530  177.1250  137.3740 C   0  0  1  0  0  3  0  0  0  0  0  0
  189.5170  177.3340  138.8360 N   0  0  0  0  0  0  0  0  0  0  0  0
  190.8760  175.4270  138.5310 O   0  0  0  0  0  1  0  0  0  0  0  0
  190.7820  176.7930  138.2480 C   0  0  1  0  0  3  0  0  0  0  0  0
  188.8810  175.9640  136.8840 C   0  0  0  0  0  2  0  0  0  0  0  0
  187.4570  177.7250  136.0910 O   0  0  0  0  0  1  0  0  0  0  0  0
  187.4570  176.4120  136.5590 C   0  0  1  0  0  3  0  0  0  0  0  0
  186.7870  175.4990  135.5400 C   0  0  0  0  0  2  0  0  0  0  0  0
  185.1020  175.6330  137.2290 O   0  0  0  0  0  1  0  0  0  0  0  0
  185.4730  174.9500  136.0710 C   0  0  2  0  0  3  0  0  0  0  0  0
  184.5500  172.4100  135.7710 O   0  0  0  0  0  0  0  0  0  0  0  0
  185.6590  173.1840  136.4500 P   0  0  2  0  0  0  0  0  0  0  0  0
  185.5520  172.9690  138.1250 O   0  0  0  0  0  1  0  0  0  0  0  0
  187.1680  172.6510  135.8900 O   0  0  0  0  0  0  0  0  0  0  0  0
  187.8920  172.3130  137.0350 C   0  0  0  0  0  1  0  0  0  0  0  0
  1  8  1  0  0  0  0
  4  2  2  0  0  0  0
  5  7  1  0  0  0  0
  6 12  2  0  0  0  0
  6 10  1  0  0  0  0
  7 13  1  0  0  0  0
  7  1  2  0  0  0  0
  8 11  1  0  0  0  0
  9  5  2  0  0  0  0
  9  6  1  0  0  0  0
 10  1  1  0  0  0  0
 10  2  1  0  0  0  0
 11  3  1  6  0  0  0
 11 18  1  0  0  0  0
 12  4  1  0  0  0  0
 13  3  2  0  0  0  0
 14 19  1  0  0  0  0
 15 18  1  0  0  0  0
 15 14  1  0  0  0  0
 16 19  1  0  0  0  0
 17 16  1  0  0  0  0
 18 17  1  0  0  0  0
 21 12  1  0  0  0  0
 22 20  2  0  0  0  0
 22 21  1  0  0  0  0
 23 22  1  0  0  0  0
 24 28  1  1  0  0  0
 24 27  1  0  0  0  0
 24 25  1  0  0  0  0
 25  5  1  0  0  0  0
 27 26  1  1  0  0  0
 27 25  1  0  0  0  0
 30 29  1  6  0  0  0
 30 28  1  0  0  0  0
 31 33  1  0  0  0  0
 31 30  1  0  0  0  0
 33 35  1  0  0  0  0
 33 32  1  1  0  0  0
 35 34  2  6  0  0  0
 35 36  1  0  0  0  0
 37 35  1  0  0  0  0
 37 38  1  0  0  0  0
M  END
>  <MODEL>
3

>  <REMARK>
 VINA RESULT:      -8.3      3.042      6.456
  Name = 
  9 active torsions:
  status: ('A' for Active; 'I' for Inactive)
    1  A    between atoms: C_2  and  C_18
    2  A    between atoms: C_2  and  C_23
    3  A    between atoms: N_7  and  C_36
    4  A    between atoms: O_8  and  P_16
    5  A    between atoms: CA_12  and  C_20
    6  A    between atoms: C_13  and  N_19
    7  A    between atoms: P_16  and  C_18
    8  A    between atoms: C_20  and  C_23
    9  A    between atoms: N_30  and  C_35
                            x       y       z     vdW  Elec       q    Type
                         _______ _______ _______ _____ _____    ______ ____

>  <TORSDO>
F 9

$$$$
=
 OpenBabel10222419003D

 38 42  0  0  1  0  0  0  0  0999 V2000
  185.9530  178.2980  143.1910 C   0  0  0  0  0  0  0  0  0  0  0  0
  186.1180  177.8470  145.5420 N   0  0  0  0  0  0  0  0  0  0  0  0
  184.6320  178.8550  140.7310 C   0  0  0  0  0  3  0  0  0  0  0  0
  187.1130  177.4340  146.3670 C   0  0  0  0  0  3  0  0  0  0  0  0
  188.0360  177.9750  141.9630 C   0  0  0  0  0  0  0  0  0  0  0  0
  187.9060  177.5700  144.3170 C   0  0  0  0  0  0  0  0  0  0  0  0
  186.6670  178.3320  141.9740 C   0  0  0  0  0  0  0  0  0  0  0  0
  184.5280  178.7770  143.2360 C   0  0  0  0  0  2  0  0  0  0  0  0
  188.6700  177.5820  143.1530 C   0  0  0  0  0  3  0  0  0  0  0  0
  186.6140  177.9210  144.3170 N   0  0  0  0  0  0  0  0  0  0  0  0
  183.7950  178.4360  141.9240 C   0  0  1  0  0  3  0  0  0  0  0  0
  188.2610  177.2500  145.6000 C   0  0  0  0  0  0  0  0  0  0  0  0
  185.9640  178.7570  140.7480 C   0  0  0  0  0  3  0  0  0  0  0  0
  180.4600  179.6040  143.2450 C   0  0  0  0  0  2  0  0  0  0  0  0
  181.8320  178.9160  143.2000 C   0  0  0  0  0  2  0  0  0  0  0  0
  180.2000  178.8690  140.8430 C   0  0  0  0  0  2  0  0  0  0  0  0
  181.6220  178.2930  140.9410 C   0  0  0  0  0  2  0  0  0  0  0  0
  182.4610  179.0510  141.8790 N   0  0  0  0  0  0  0  0  0  0  0  0
  179.9560  179.9910  141.8530 C   0  0  0  0  0  2  0  0  0  0  0  0
  189.5320  177.8660  148.1420 O   0  0  0  0  0  0  0  0  0  0  0  0
  189.5570  176.8290  146.0400 N   0  0  0  0  0  2  0  0  0  0  0  0
  190.1450  177.1550  147.3030 C   0  0  0  0  0  0  0  0  0  0  0  0
  191.5020  176.6460  147.6290 C   0  0  0  0  0  1  0  0  0  0  0  0
  188.9220  178.2700  139.2870 C   0  0  1  0  0  3  0  0  0  0  0  0
  188.7910  178.0080  140.7530 N   0  0  0  0  0  0  0  0  0  0  0  0
  190.2210  176.3900  139.7980 O   0  0  0  0  0  1  0  0  0  0  0  0
  190.0320  177.7670  139.9550 C   0  0  1  0  0  3  0  0  0  0  0  0
  188.0770  177.2510  138.5150 C   0  0  0  0  0  2  0  0  0  0  0  0
  187.6220  179.1140  137.0720 O   0  0  0  0  0  1  0  0  0  0  0  0
  187.0870  177.9240  137.5680 C   0  0  1  0  0  3  0  0  0  0  0  0
  186.6900  177.0150  136.4120 C   0  0  0  0  0  2  0  0  0  0  0  0
  184.6370  177.1910  137.6230 O   0  0  0  0  0  1  0  0  0  0  0  0
  185.2480  176.5520  136.5440 C   0  0  2  0  0  3  0  0  0  0  0  0
  186.5490  174.3000  137.3380 O   0  0  0  0  0  1  0  0  0  0  0  0
  185.2070  174.7560  136.8090 P   0  0  2  0  0  0  0  0  0  0  0  0
  184.8920  173.9900  135.3330 O   0  0  0  0  0  0  0  0  0  0  0  0
  183.9860  174.3880  137.9280 O   0  0  0  0  0  0  0  0  0  0  0  0
  182.8320  174.1910  137.1680 C   0  0  0  0  0  1  0  0  0  0  0  0
  1  8  1  0  0  0  0
  1 10  1  0  0  0  0
  2  4  2  0  0  0  0
  3 13  2  0  0  0  0
  5  7  1  0  0  0  0
  5  9  2  0  0  0  0
  6 12  2  0  0  0  0
  7  1  2  0  0  0  0
  9  6  1  0  0  0  0
 10  6  1  0  0  0  0
 10  2  1  0  0  0  0
 11  3  1  6  0  0  0
 11  8  1  0  0  0  0
 12 21  1  0  0  0  0
 12  4  1  0  0  0  0
 13  7  1  0  0  0  0
 15 14  1  0  0  0  0
 16 17  1  0  0  0  0
 16 19  1  0  0  0  0
 17 18  1  0  0  0  0
 18 11  1  0  0  0  0
 18 15  1  0  0  0  0
 19 14  1  0  0  0  0
 21 22  1  0  0  0  0
 22 23  1  0  0  0  0
 22 20  2  0  0  0  0
 24 28  1  6  0  0  0
 24 27  1  0  0  0  0
 24 25  1  0  0  0  0
 25  5  1  0  0  0  0
 27 26  1  6  0  0  0
 27 25  1  0  0  0  0
 30 29  1  6  0  0  0
 30 28  1  0  0  0  0
 31 33  1  0  0  0  0
 31 30  1  0  0  0  0
 33 35  1  0  0  0  0
 33 32  1  1  0  0  0
 35 36  2  6  0  0  0
 35 34  1  0  0  0  0
 35 37  1  0  0  0  0
 38 37  1  0  0  0  0
M  END
>  <MODEL>
4

>  <REMARK>
 VINA RESULT:      -8.2      3.278      7.390
  Name = 
  9 active torsions:
  status: ('A' for Active; 'I' for Inactive)
    1  A    between atoms: C_2  and  C_18
    2  A    between atoms: C_2  and  C_23
    3  A    between atoms: N_7  and  C_36
    4  A    between atoms: O_8  and  P_16
    5  A    between atoms: CA_12  and  C_20
    6  A    between atoms: C_13  and  N_19
    7  A    between atoms: P_16  and  C_18
    8  A    between atoms: C_20  and  C_23
    9  A    between atoms: N_30  and  C_35
                            x       y       z     vdW  Elec       q    Type
                         _______ _______ _______ _____ _____    ______ ____

>  <TORSDO>
F 9

$$$$
=
 OpenBabel10222419003D

 38 42  0  0  1  0  0  0  0  0999 V2000
  188.1570  177.7830  142.1520 C   0  0  0  0  0  0  0  0  0  0  0  0
  190.3100  177.1980  141.2670 N   0  0  0  0  0  0  0  0  0  0  0  0
  186.1260  178.0010  144.1350 C   0  0  0  0  0  3  0  0  0  0  0  0
  190.8480  177.1470  140.0230 C   0  0  0  0  0  3  0  0  0  0  0  0
  186.5360  178.4720  140.4630 C   0  0  0  0  0  0  0  0  0  0  0  0
  188.7540  177.8070  139.8590 C   0  0  0  0  0  0  0  0  0  0  0  0
  186.8610  178.2330  141.8190 C   0  0  0  0  0  0  0  0  0  0  0  0
  188.5480  177.6290  143.5950 C   0  0  0  0  0  2  0  0  0  0  0  0
  187.4960  178.2530  139.4600 C   0  0  0  0  0  3  0  0  0  0  0  0
  189.0530  177.5960  141.1470 N   0  0  0  0  0  0  0  0  0  0  0  0
  187.3470  177.1550  144.4380 C   0  0  1  0  0  3  0  0  0  0  0  0
  189.8680  177.5310  139.1110 C   0  0  0  0  0  0  0  0  0  0  0  0
  185.8860  178.4570  142.9030 C   0  0  0  0  0  3  0  0  0  0  0  0
  187.1440  178.2920  148.0300 C   0  0  0  0  0  2  0  0  0  0  0  0
  186.9190  178.2650  146.5110 C   0  0  0  0  0  2  0  0  0  0  0  0
  189.4960  177.5250  147.5240 C   0  0  0  0  0  2  0  0  0  0  0  0
  189.0870  177.4820  146.0430 C   0  0  0  0  0  2  0  0  0  0  0  0
  187.6610  177.1690  145.8750 N   0  0  0  0  0  0  0  0  0  0  0  0
  188.2980  177.3860  148.4640 C   0  0  0  0  0  2  0  0  0  0  0  0
  188.9940  175.5780  137.1420 O   0  0  0  0  0  0  0  0  0  0  0  0
  189.9790  177.6350  137.6880 N   0  0  0  0  0  2  0  0  0  0  0  0
  189.5330  176.6480  136.7530 C   0  0  0  0  0  0  0  0  0  0  0  0
  189.7110  176.8880  135.2970 C   0  0  0  0  0  1  0  0  0  0  0  0
  183.8070  179.2320  140.3980 C   0  0  1  0  0  3  0  0  0  0  0  0
  185.2400  178.9370  140.0920 N   0  0  0  0  0  0  0  0  0  0  0  0
  183.9210  178.4370  138.1980 O   0  0  0  0  0  1  0  0  0  0  0  0
  184.2490  179.4560  139.0990 C   0  0  1  0  0  3  0  0  0  0  0  0
  183.0620  177.9150  140.6420 C   0  0  0  0  0  2  0  0  0  0  0  0
  182.1090  179.0020  142.5570 O   0  0  0  0  0  1  0  0  0  0  0  0
  181.8310  178.1050  141.5260 C   0  0  1  0  0  3  0  0  0  0  0  0
  180.6240  178.5870  140.7310 C   0  0  0  0  0  2  0  0  0  0  0  0
  179.2170  180.0950  141.9400 O   0  0  0  0  0  1  0  0  0  0  0  0
  180.2940  180.0360  141.0540 C   0  0  2  0  0  3  0  0  0  0  0  0
  179.0580  182.1510  139.8740 O   0  0  0  0  0  1  0  0  0  0  0  0
  179.8610  180.9170  139.5260 P   0  0  2  0  0  0  0  0  0  0  0  0
  178.9310  179.8960  138.5490 O   0  0  0  0  0  0  0  0  0  0  0  0
  181.2850  181.3590  138.7170 O   0  0  0  0  0  0  0  0  0  0  0  0
  181.1790  180.7950  137.4440 C   0  0  0  0  0  1  0  0  0  0  0  0
  1  8  1  0  0  0  0
  3 11  1  0  0  0  0
  4  2  2  0  0  0  0
  5  7  1  0  0  0  0
  6 10  1  0  0  0  0
  7  1  2  0  0  0  0
  7 13  1  0  0  0  0
  9  6  1  0  0  0  0
  9  5  2  0  0  0  0
 10  2  1  0  0  0  0
 10  1  1  0  0  0  0
 11  8  1  6  0  0  0
 11 18  1  0  0  0  0
 12  6  2  0  0  0  0
 12  4  1  0  0  0  0
 13  3  2  0  0  0  0
 14 19  1  0  0  0  0
 15 14  1  0  0  0  0
 16 19  1  0  0  0  0
 17 16  1  0  0  0  0
 18 17  1  0  0  0  0
 18 15  1  0  0  0  0
 21 12  1  0  0  0  0
 22 20  2  0  0  0  0
 22 21  1  0  0  0  0
 23 22  1  0  0  0  0
 24 28  1  6  0  0  0
 25 24  1  0  0  0  0
 25  5  1  0  0  0  0
 27 26  1  6  0  0  0
 27 25  1  0  0  0  0
 27 24  1  0  0  0  0
 28 30  1  0  0  0  0
 30 29  1  1  0  0  0
 31 33  1  0  0  0  0
 31 30  1  0  0  0  0
 33 32  1  1  0  0  0
 35 36  2  6  0  0  0
 35 34  1  0  0  0  0
 35 33  1  0  0  0  0
 37 35  1  0  0  0  0
 38 37  1  0  0  0  0
M  END
>  <MODEL>
5

>  <REMARK>
 VINA RESULT:      -8.1      1.439      2.157
  Name = 
  9 active torsions:
  status: ('A' for Active; 'I' for Inactive)
    1  A    between atoms: C_2  and  C_18
    2  A    between atoms: C_2  and  C_23
    3  A    between atoms: N_7  and  C_36
    4  A    between atoms: O_8  and  P_16
    5  A    between atoms: CA_12  and  C_20
    6  A    between atoms: C_13  and  N_19
    7  A    between atoms: P_16  and  C_18
    8  A    between atoms: C_20  and  C_23
    9  A    between atoms: N_30  and  C_35
                            x       y       z     vdW  Elec       q    Type
                         _______ _______ _______ _____ _____    ______ ____

>  <TORSDO>
F 9

$$$$
=
 OpenBabel10222419003D

 38 42  0  0  1  0  0  0  0  0999 V2000
  185.8960  178.2670  143.2030 C   0  0  0  0  0  0  0  0  0  0  0  0
  186.0130  177.8130  145.5560 N   0  0  0  0  0  0  0  0  0  0  0  0
  184.6270  178.8350  140.7180 C   0  0  0  0  0  3  0  0  0  0  0  0
  186.9890  177.3920  146.4000 C   0  0  0  0  0  3  0  0  0  0  0  0
  188.0000  177.9290  142.0150 C   0  0  0  0  0  0  0  0  0  0  0  0
  187.8220  177.5230  144.3650 C   0  0  0  0  0  0  0  0  0  0  0  0
  186.6330  178.2960  142.0000 C   0  0  0  0  0  0  0  0  0  0  0  0
  184.4740  178.7560  143.2210 C   0  0  0  0  0  2  0  0  0  0  0  0
  188.6090  177.5310  143.2160 C   0  0  0  0  0  3  0  0  0  0  0  0
  186.5320  177.8840  144.3410 N   0  0  0  0  0  0  0  0  0  0  0  0
  183.7640  178.4210  141.8950 C   0  0  1  0  0  3  0  0  0  0  0  0
  188.1500  177.2010  145.6550 C   0  0  0  0  0  0  0  0  0  0  0  0
  185.9570  178.7270  140.7610 C   0  0  0  0  0  3  0  0  0  0  0  0
  180.4550  179.7050  143.1740 C   0  0  0  0  0  2  0  0  0  0  0  0
  181.8200  179.0010  143.1580 C   0  0  0  0  0  2  0  0  0  0  0  0
  180.1610  178.8200  140.8270 C   0  0  0  0  0  2  0  0  0  0  0  0
  181.5790  178.2370  140.9460 C   0  0  0  0  0  2  0  0  0  0  0  0
  182.4350  179.0450  141.8250 N   0  0  0  0  0  0  0  0  0  0  0  0
  179.9390  180.0070  141.7650 C   0  0  0  0  0  2  0  0  0  0  0  0
  189.4390  177.9260  148.1590 O   0  0  0  0  0  0  0  0  0  0  0  0
  189.4340  176.7700  146.1190 N   0  0  0  0  0  2  0  0  0  0  0  0
  190.0320  177.1510  147.3620 C   0  0  0  0  0  0  0  0  0  0  0  0
  191.3750  176.6250  147.7180 C   0  0  0  0  0  1  0  0  0  0  0  0
  188.9480  178.2490  139.3630 C   0  0  1  0  0  3  0  0  0  0  0  0
  188.7780  177.9580  140.8190 N   0  0  0  0  0  0  0  0  0  0  0  0
  190.1540  176.3020  139.8510 O   0  0  0  0  0  1  0  0  0  0  0  0
  190.0230  177.6820  140.0380 C   0  0  1  0  0  3  0  0  0  0  0  0
  188.0750  177.2860  138.5520 C   0  0  0  0  0  2  0  0  0  0  0  0
  186.9430  178.9920  137.3000 O   0  0  0  0  0  1  0  0  0  0  0  0
  187.7280  177.8460  137.1740 C   0  0  1  0  0  3  0  0  0  0  0  0
  188.9720  178.1580  136.3520 C   0  0  0  0  0  2  0  0  0  0  0  0
  188.1120  176.3020  135.1150 O   0  0  0  0  0  1  0  0  0  0  0  0
  189.2650  177.0510  135.3520 C   0  0  2  0  0  3  0  0  0  0  0  0
  191.4430  176.7530  136.9530 O   0  0  0  0  0  1  0  0  0  0  0  0
  190.5610  175.9630  136.0110 P   0  0  2  0  0  0  0  0  0  0  0  0
  191.4930  175.3790  134.7250 O   0  0  0  0  0  0  0  0  0  0  0  0
  189.8360  174.6720  136.8380 O   0  0  0  0  0  0  0  0  0  0  0  0
  190.6770  173.5780  136.6300 C   0  0  0  0  0  1  0  0  0  0  0  0
  1  8  1  0  0  0  0
  1 10  1  0  0  0  0
  2  4  2  0  0  0  0
  3 13  2  0  0  0  0
  5  9  2  0  0  0  0
  6 12  2  0  0  0  0
  7  5  1  0  0  0  0
  7  1  2  0  0  0  0
  9  6  1  0  0  0  0
 10  6  1  0  0  0  0
 10  2  1  0  0  0  0
 11  3  1  6  0  0  0
 11  8  1  0  0  0  0
 12 21  1  0  0  0  0
 12  4  1  0  0  0  0
 13  7  1  0  0  0  0
 15 14  1  0  0  0  0
 16 17  1  0  0  0  0
 16 19  1  0  0  0  0
 17 18  1  0  0  0  0
 18 11  1  0  0  0  0
 18 15  1  0  0  0  0
 19 14  1  0  0  0  0
 21 22  1  0  0  0  0
 22 23  1  0  0  0  0
 22 20  2  0  0  0  0
 24 28  1  6  0  0  0
 24 27  1  0  0  0  0
 24 25  1  0  0  0  0
 25  5  1  0  0  0  0
 27 26  1  6  0  0  0
 27 25  1  0  0  0  0
 30 29  1  1  0  0  0
 30 28  1  0  0  0  0
 31 30  1  0  0  0  0
 33 32  1  1  0  0  0
 33 35  1  0  0  0  0
 33 31  1  0  0  0  0
 35 36  2  6  0  0  0
 35 37  1  0  0  0  0
 35 34  1  0  0  0  0
 38 37  1  0  0  0  0
M  END
>  <MODEL>
6

>  <REMARK>
 VINA RESULT:      -8.0      3.996      8.388
  Name = 
  9 active torsions:
  status: ('A' for Active; 'I' for Inactive)
    1  A    between atoms: C_2  and  C_18
    2  A    between atoms: C_2  and  C_23
    3  A    between atoms: N_7  and  C_36
    4  A    between atoms: O_8  and  P_16
    5  A    between atoms: CA_12  and  C_20
    6  A    between atoms: C_13  and  N_19
    7  A    between atoms: P_16  and  C_18
    8  A    between atoms: C_20  and  C_23
    9  A    between atoms: N_30  and  C_35
                            x       y       z     vdW  Elec       q    Type
                         _______ _______ _______ _____ _____    ______ ____

>  <TORSDO>
F 9

$$$$
=
 OpenBabel10222419003D

 38 42  0  0  1  0  0  0  0  0999 V2000
  184.0250  178.8650  141.7370 C   0  0  0  0  0  0  0  0  0  0  0  0
  183.3000  178.9530  144.0230 N   0  0  0  0  0  0  0  0  0  0  0  0
  183.7270  178.8990  138.9060 C   0  0  0  0  0  3  0  0  0  0  0  0
  183.8860  178.7000  145.2210 C   0  0  0  0  0  3  0  0  0  0  0  0
  186.3520  178.1900  141.4520 C   0  0  0  0  0  0  0  0  0  0  0  0
  185.3580  178.3350  143.6230 C   0  0  0  0  0  0  0  0  0  0  0  0
  185.1190  178.5940  140.8880 C   0  0  0  0  0  0  0  0  0  0  0  0
  182.7430  179.3970  141.1600 C   0  0  0  0  0  2  0  0  0  0  0  0
  186.4780  178.0540  142.8450 C   0  0  0  0  0  3  0  0  0  0  0  0
  184.1990  178.7280  143.0780 N   0  0  0  0  0  0  0  0  0  0  0  0
  182.4810  178.7950  139.7640 C   0  0  1  0  0  3  0  0  0  0  0  0
  185.2000  178.3030  144.9830 C   0  0  0  0  0  0  0  0  0  0  0  0
  184.9470  178.7560  139.4320 C   0  0  0  0  0  3  0  0  0  0  0  0
  180.6650  181.2350  137.5320 C   0  0  0  0  0  2  0  0  0  0  0  0
  181.8120  180.5630  138.3030 C   0  0  0  0  0  2  0  0  0  0  0  0
  179.2300  180.7080  139.5420 C   0  0  0  0  0  2  0  0  0  0  0  0
  180.4590  180.0090  140.1460 C   0  0  0  0  0  2  0  0  0  0  0  0
  181.3300  179.4360  139.1110 N   0  0  0  0  0  0  0  0  0  0  0  0
  179.2890  180.7730  138.0150 C   0  0  0  0  0  2  0  0  0  0  0  0
  185.8930  179.7430  147.4120 O   0  0  0  0  0  0  0  0  0  0  0  0
  186.1990  177.9420  145.9430 N   0  0  0  0  0  2  0  0  0  0  0  0
  186.5070  178.6810  147.1290 C   0  0  0  0  0  0  0  0  0  0  0  0
  187.5720  178.1880  148.0400 C   0  0  0  0  0  1  0  0  0  0  0  0
  188.8090  177.2780  140.3720 C   0  0  1  0  0  3  0  0  0  0  0  0
  187.4810  177.9190  140.6250 N   0  0  0  0  0  0  0  0  0  0  0  0
  188.8170  179.3780  139.3360 O   0  0  0  0  0  1  0  0  0  0  0  0
  188.2810  178.0870  139.3720 C   0  0  1  0  0  3  0  0  0  0  0  0
  189.8610  177.9240  141.2790 C   0  0  0  0  0  2  0  0  0  0  0  0
  191.9700  177.4960  140.2170 O   0  0  0  0  0  1  0  0  0  0  0  0
  191.1670  177.1330  141.2980 C   0  0  1  0  0  3  0  0  0  0  0  0
  191.9350  177.3250  142.6000 C   0  0  0  0  0  2  0  0  0  0  0  0
  190.5060  175.4870  143.1400 O   0  0  0  0  0  1  0  0  0  0  0  0
  191.4500  176.3650  143.6740 C   0  0  2  0  0  3  0  0  0  0  0  0
  189.3080  176.7600  145.3020 O   0  0  0  0  0  1  0  0  0  0  0  0
  190.6950  177.3020  145.0340 P   0  0  2  0  0  0  0  0  0  0  0  0
  190.5860  178.9300  144.5830 O   0  0  0  0  0  0  0  0  0  0  0  0
  191.6600  177.1460  146.4200 O   0  0  0  0  0  0  0  0  0  0  0  0
  192.0560  175.8080  146.4480 C   0  0  0  0  0  1  0  0  0  0  0  0
  1 10  1  0  0  0  0
  2  4  2  0  0  0  0
  3 13  2  0  0  0  0
  5  9  2  0  0  0  0
  6 12  2  0  0  0  0
  7  5  1  0  0  0  0
  7  1  2  0  0  0  0
  8  1  1  0  0  0  0
  9  6  1  0  0  0  0
 10  6  1  0  0  0  0
 10  2  1  0  0  0  0
 11  3  1  6  0  0  0
 11  8  1  0  0  0  0
 12  4  1  0  0  0  0
 12 21  1  0  0  0  0
 13  7  1  0  0  0  0
 14 19  1  0  0  0  0
 14 15  1  0  0  0  0
 15 18  1  0  0  0  0
 16 17  1  0  0  0  0
 18 11  1  0  0  0  0
 18 17  1  0  0  0  0
 19 16  1  0  0  0  0
 21 22  1  0  0  0  0
 22 20  2  0  0  0  0
 22 23  1  0  0  0  0
 24 25  1  0  0  0  0
 24 28  1  1  0  0  0
 25  5  1  0  0  0  0
 27 26  1  1  0  0  0
 27 24  1  0  0  0  0
 27 25  1  0  0  0  0
 28 30  1  0  0  0  0
 30 29  1  6  0  0  0
 30 31  1  0  0  0  0
 31 33  1  0  0  0  0
 33 32  1  6  0  0  0
 33 35  1  0  0  0  0
 35 36  2  6  0  0  0
 35 34  1  0  0  0  0
 35 37  1  0  0  0  0
 37 38  1  0  0  0  0
M  END
>  <MODEL>
7

>  <REMARK>
 VINA RESULT:      -8.0      3.952      8.959
  Name = 
  9 active torsions:
  status: ('A' for Active; 'I' for Inactive)
    1  A    between atoms: C_2  and  C_18
    2  A    between atoms: C_2  and  C_23
    3  A    between atoms: N_7  and  C_36
    4  A    between atoms: O_8  and  P_16
    5  A    between atoms: CA_12  and  C_20
    6  A    between atoms: C_13  and  N_19
    7  A    between atoms: P_16  and  C_18
    8  A    between atoms: C_20  and  C_23
    9  A    between atoms: N_30  and  C_35
                            x       y       z     vdW  Elec       q    Type
                         _______ _______ _______ _____ _____    ______ ____

>  <TORSDO>
F 9

$$$$
=
 OpenBabel10222419003D

 38 42  0  0  1  0  0  0  0  0999 V2000
  188.5330  177.7350  139.4820 C   0  0  0  0  0  0  0  0  0  0  0  0
  189.2360  177.2240  137.2450 N   0  0  0  0  0  0  0  0  0  0  0  0
  186.7840  178.7120  141.5050 C   0  0  0  0  0  3  0  0  0  0  0  0
  190.4060  176.8360  136.6770 C   0  0  0  0  0  3  0  0  0  0  0  0
  190.2880  177.4930  141.1600 C   0  0  0  0  0  0  0  0  0  0  0  0
  190.7180  177.0760  138.8440 C   0  0  0  0  0  0  0  0  0  0  0  0
  188.9480  177.8060  140.8290 C   0  0  0  0  0  0  0  0  0  0  0  0
  187.0890  177.9600  139.1310 C   0  0  0  0  0  2  0  0  0  0  0  0
  191.1940  177.1240  140.1520 C   0  0  0  0  0  3  0  0  0  0  0  0
  189.4450  177.3630  138.5450 N   0  0  0  0  0  0  0  0  0  0  0  0
  186.4610  179.0210  140.0560 C   0  0  1  0  0  3  0  0  0  0  0  0
  191.3630  176.7380  137.6840 C   0  0  0  0  0  0  0  0  0  0  0  0
  187.9630  178.1910  141.8580 C   0  0  0  0  0  3  0  0  0  0  0  0
  182.7960  178.6990  140.8900 C   0  0  0  0  0  2  0  0  0  0  0  0
  184.3200  178.5560  141.0110 C   0  0  0  0  0  2  0  0  0  0  0  0
  183.1280  178.3380  138.4130 C   0  0  0  0  0  2  0  0  0  0  0  0
  184.6390  178.2910  138.6950 C   0  0  0  0  0  2  0  0  0  0  0  0
  185.0100  179.1250  139.8460 N   0  0  0  0  0  0  0  0  0  0  0  0
  182.3590  179.1140  139.4830 C   0  0  0  0  0  2  0  0  0  0  0  0
  192.4360  174.0360  137.7190 O   0  0  0  0  0  0  0  0  0  0  0  0
  192.7370  176.3560  137.5610 N   0  0  0  0  0  2  0  0  0  0  0  0
  193.2230  175.0100  137.5820 C   0  0  0  0  0  0  0  0  0  0  0  0
  194.6800  174.7570  137.4410 C   0  0  0  0  0  1  0  0  0  0  0  0
  190.6300  177.1630  143.9540 C   0  0  1  0  0  3  0  0  0  0  0  0
  190.7380  177.5440  142.5120 N   0  0  0  0  0  0  0  0  0  0  0  0
  191.3440  179.3910  143.8520 O   0  0  0  0  0  1  0  0  0  0  0  0
  191.6400  178.0490  143.5940 C   0  0  1  0  0  3  0  0  0  0  0  0
  189.3620  177.7880  144.5460 C   0  0  0  0  0  2  0  0  0  0  0  0
  190.0150  176.9010  146.6790 O   0  0  0  0  0  1  0  0  0  0  0  0
  188.9230  177.0890  145.8310 C   0  0  1  0  0  3  0  0  0  0  0  0
  187.8300  177.8610  146.5590 C   0  0  0  0  0  2  0  0  0  0  0  0
  186.5650  177.0060  144.7210 O   0  0  0  0  0  1  0  0  0  0  0  0
  186.4540  177.5130  146.0160 C   0  0  2  0  0  3  0  0  0  0  0  0
  185.7300  179.8060  144.7480 O   0  0  0  0  0  0  0  0  0  0  0  0
  185.4150  179.0020  145.9900 P   0  0  2  0  0  0  0  0  0  0  0  0
  185.7530  179.9310  147.3630 O   0  0  0  0  0  1  0  0  0  0  0  0
  183.7820  178.5410  145.9850 O   0  0  0  0  0  0  0  0  0  0  0  0
  183.2760  178.9760  144.7600 C   0  0  0  0  0  1  0  0  0  0  0  0
  1  7  2  0  0  0  0
  2 10  1  0  0  0  0
  3 13  2  0  0  0  0
  4  2  2  0  0  0  0
  4 12  1  0  0  0  0
  5 25  1  0  0  0  0
  6  9  1  0  0  0  0
  7  5  1  0  0  0  0
  7 13  1  0  0  0  0
  8  1  1  0  0  0  0
  9  5  2  0  0  0  0
 10  6  1  0  0  0  0
 10  1  1  0  0  0  0
 11  8  1  6  0  0  0
 11  3  1  0  0  0  0
 12  6  2  0  0  0  0
 14 15  1  0  0  0  0
 16 17  1  0  0  0  0
 16 19  1  0  0  0  0
 17 18  1  0  0  0  0
 18 11  1  0  0  0  0
 18 15  1  0  0  0  0
 19 14  1  0  0  0  0
 21 22  1  0  0  0  0
 21 12  1  0  0  0  0
 22 20  2  0  0  0  0
 23 22  1  0  0  0  0
 24 28  1  1  0  0  0
 25 27  1  0  0  0  0
 25 24  1  0  0  0  0
 27 26  1  1  0  0  0
 27 24  1  0  0  0  0
 28 30  1  0  0  0  0
 30 31  1  0  0  0  0
 30 29  1  1  0  0  0
 33 32  1  6  0  0  0
 33 31  1  0  0  0  0
 35 34  2  6  0  0  0
 35 33  1  0  0  0  0
 35 36  1  0  0  0  0
 37 35  1  0  0  0  0
 38 37  1  0  0  0  0
M  END
>  <MODEL>
8

>  <REMARK>
 VINA RESULT:      -8.0      3.094      6.448
  Name = 
  9 active torsions:
  status: ('A' for Active; 'I' for Inactive)
    1  A    between atoms: C_2  and  C_18
    2  A    between atoms: C_2  and  C_23
    3  A    between atoms: N_7  and  C_36
    4  A    between atoms: O_8  and  P_16
    5  A    between atoms: CA_12  and  C_20
    6  A    between atoms: C_13  and  N_19
    7  A    between atoms: P_16  and  C_18
    8  A    between atoms: C_20  and  C_23
    9  A    between atoms: N_30  and  C_35
                            x       y       z     vdW  Elec       q    Type
                         _______ _______ _______ _____ _____    ______ ____

>  <TORSDO>
F 9

$$$$
=
 OpenBabel10222419003D

 38 42  0  0  1  0  0  0  0  0999 V2000
  188.0880  177.8490  142.1610 C   0  0  0  0  0  0  0  0  0  0  0  0
  190.2880  177.4860  141.2740 N   0  0  0  0  0  0  0  0  0  0  0  0
  186.0490  177.8660  144.1480 C   0  0  0  0  0  3  0  0  0  0  0  0
  190.8260  177.4850  140.0280 C   0  0  0  0  0  3  0  0  0  0  0  0
  186.4010  178.3600  140.4730 C   0  0  0  0  0  0  0  0  0  0  0  0
  188.6740  177.9250  139.8670 C   0  0  0  0  0  0  0  0  0  0  0  0
  186.7510  178.1620  141.8300 C   0  0  0  0  0  0  0  0  0  0  0  0
  188.4950  177.7430  143.6040 C   0  0  0  0  0  2  0  0  0  0  0  0
  187.3760  178.2360  139.4690 C   0  0  0  0  0  3  0  0  0  0  0  0
  188.9960  177.7510  141.1550 N   0  0  0  0  0  0  0  0  0  0  0  0
  187.3510  177.1510  144.4520 C   0  0  1  0  0  3  0  0  0  0  0  0
  189.8090  177.7620  139.1180 C   0  0  0  0  0  0  0  0  0  0  0  0
  185.7600  178.2890  142.9150 C   0  0  0  0  0  3  0  0  0  0  0  0
  187.1300  178.3700  148.0150 C   0  0  0  0  0  2  0  0  0  0  0  0
  186.9050  178.3030  146.4980 C   0  0  0  0  0  2  0  0  0  0  0  0
  189.4940  177.6280  147.5280 C   0  0  0  0  0  2  0  0  0  0  0  0
  189.0860  177.5430  146.0480 C   0  0  0  0  0  2  0  0  0  0  0  0
  187.6650  177.2050  145.8880 N   0  0  0  0  0  0  0  0  0  0  0  0
  188.2980  177.4920  148.4710 C   0  0  0  0  0  2  0  0  0  0  0  0
  189.0010  175.7760  137.1540 O   0  0  0  0  0  0  0  0  0  0  0  0
  189.9060  177.8700  137.6940 N   0  0  0  0  0  2  0  0  0  0  0  0
  189.4940  176.8660  136.7610 C   0  0  0  0  0  0  0  0  0  0  0  0
  189.6520  177.1140  135.3050 C   0  0  0  0  0  1  0  0  0  0  0  0
  183.7230  178.3280  139.5460 C   0  0  1  0  0  3  0  0  0  0  0  0
  185.0630  178.6870  140.1030 N   0  0  0  0  0  0  0  0  0  0  0  0
  184.2240  180.5090  138.8570 O   0  0  0  0  0  1  0  0  0  0  0  0
  183.9330  179.6490  139.9220 C   0  0  1  0  0  3  0  0  0  0  0  0
  183.8650  178.0180  138.0520 C   0  0  0  0  0  2  0  0  0  0  0  0
  181.7440  178.2760  136.9580 O   0  0  0  0  0  1  0  0  0  0  0  0
  182.6230  177.3310  137.4870 C   0  0  1  0  0  3  0  0  0  0  0  0
  182.9740  176.2980  136.4230 C   0  0  0  0  0  2  0  0  0  0  0  0
  182.3980  174.9160  138.2860 O   0  0  0  0  0  1  0  0  0  0  0  0
  182.8140  174.8830  136.9550 C   0  0  2  0  0  3  0  0  0  0  0  0
  185.4690  174.8260  137.5350 O   0  0  0  0  0  1  0  0  0  0  0  0
  184.4010  174.0080  136.8440 P   0  0  2  0  0  0  0  0  0  0  0  0
  184.8070  173.8130  135.2130 O   0  0  0  0  0  0  0  0  0  0  0  0
  184.2530  172.4920  137.5920 O   0  0  0  0  0  0  0  0  0  0  0  0
  183.7820  171.6320  136.5990 C   0  0  0  0  0  1  0  0  0  0  0  0
  1  8  1  0  0  0  0
  3 11  1  0  0  0  0
  4  2  2  0  0  0  0
  5  7  1  0  0  0  0
  6 10  1  0  0  0  0
  7  1  2  0  0  0  0
  7 13  1  0  0  0  0
  9  6  1  0  0  0  0
  9  5  2  0  0  0  0
 10  2  1  0  0  0  0
 10  1  1  0  0  0  0
 11  8  1  6  0  0  0
 11 18  1  0  0  0  0
 12  6  2  0  0  0  0
 12  4  1  0  0  0  0
 13  3  2  0  0  0  0
 14 19  1  0  0  0  0
 15 14  1  0  0  0  0
 16 19  1  0  0  0  0
 17 16  1  0  0  0  0
 18 17  1  0  0  0  0
 18 15  1  0  0  0  0
 21 12  1  0  0  0  0
 22 20  2  0  0  0  0
 22 21  1  0  0  0  0
 23 22  1  0  0  0  0
 24 28  1  6  0  0  0
 24 27  1  0  0  0  0
 24 25  1  0  0  0  0
 25  5  1  0  0  0  0
 27 26  1  6  0  0  0
 27 25  1  0  0  0  0
 30 29  1  6  0  0  0
 30 28  1  0  0  0  0
 31 33  1  0  0  0  0
 31 30  1  0  0  0  0
 33 32  1  1  0  0  0
 35 36  2  6  0  0  0
 35 33  1  0  0  0  0
 35 34  1  0  0  0  0
 35 37  1  0  0  0  0
 38 37  1  0  0  0  0
M  END
>  <MODEL>
9

>  <REMARK>
 VINA RESULT:      -8.0      2.724      4.082
  Name = 
  9 active torsions:
  status: ('A' for Active; 'I' for Inactive)
    1  A    between atoms: C_2  and  C_18
    2  A    between atoms: C_2  and  C_23
    3  A    between atoms: N_7  and  C_36
    4  A    between atoms: O_8  and  P_16
    5  A    between atoms: CA_12  and  C_20
    6  A    between atoms: C_13  and  N_19
    7  A    between atoms: P_16  and  C_18
    8  A    between atoms: C_20  and  C_23
    9  A    between atoms: N_30  and  C_35
                            x       y       z     vdW  Elec       q    Type
                         _______ _______ _______ _____ _____    ______ ____

>  <TORSDO>
F 9

$$$$
