=
 OpenBabel10222419043D

 50 56  0  0  1  0  0  0  0  0999 V2000
  192.1100  176.2450  137.3810 C   0  0  0  0  0  0  0  0  0  0  0  0
  189.7050  177.3600  136.4790 C   0  0  0  0  0  0  0  0  0  0  0  0
  187.3950  176.9980  135.6840 C   0  0  2  0  0  3  0  0  0  0  0  0
  190.1020  177.7670  137.9000 C   0  0  1  0  0  3  0  0  0  0  0  0
  190.4730  176.5640  135.7050 C   0  0  0  0  0  3  0  0  0  0  0  0
  186.4310  177.7460  134.7700 C   0  0  0  0  0  1  0  0  0  0  0  0
  191.7200  176.0140  136.1690 N   0  0  0  0  0  0  0  0  0  0  0  0
  193.3470  175.8510  137.9390 N   0  0  0  0  0  0  0  0  0  0  0  0
  188.9450  177.4730  138.8790 C   0  0  2  0  0  3  0  0  0  0  0  0
  187.7440  178.3570  138.5400 C   0  0  0  0  0  2  0  0  0  0  0  0
  192.1660  177.2540  139.3470 C   0  0  0  0  0  3  0  0  0  0  0  0
  186.7090  176.4540  136.9910 C   0  0  1  0  0  0  0  0  0  0  0  0
  185.6170  178.5900  137.5290 O   0  0  0  0  0  1  0  0  0  0  0  0
  193.3770  176.4390  139.0990 C   0  0  0  0  0  3  0  0  0  0  0  0
  191.3940  177.0850  138.2850 C   0  0  0  0  0  0  0  0  0  0  0  0
  188.5060  177.8470  135.9600 O   0  0  0  0  0  0  0  0  0  0  0  0
  186.4950  177.6220  138.0240 C   0  0  2  0  0  3  0  0  0  0  0  0
  184.4270  175.6330  137.7900 C   0  0  0  0  0  2  0  0  0  0  0  0
  185.3650  175.7370  136.5970 C   0  0  0  0  0  3  0  0  0  0  0  0
  184.0840  176.5590  136.6460 C   0  0  0  0  0  2  0  0  0  0  0  0
  189.3210  177.7210  140.3310 C   0  0  0  0  0  2  0  0  0  0  0  0
  187.5040  178.3490  141.9360 C   0  0  1  0  0  3  0  0  0  0  0  0
  188.5760  177.5460  142.6310 C   0  0  1  0  0  3  0  0  0  0  0  0
  188.6630  176.2390  142.1170 O   0  0  0  0  0  0  0  0  0  0  0  0
  188.2060  177.2210  141.2210 C   0  0  2  0  0  0  0  0  0  0  0  0
  186.1160  177.8780  142.3380 C   0  0  1  0  0  3  0  0  0  0  0  0
  185.8880  178.1590  143.6880 O   0  0  0  0  0  1  0  0  0  0  0  0
  185.0970  178.5610  141.4880 C   0  0  0  0  0  0  0  0  0  0  0  0
  185.4460  179.5370  140.7700 O   0  0  0  0  0  0  0  0  0  0  0  0
  183.7270  178.1520  141.5410 N   0  0  0  0  0  2  0  0  0  0  0  0
  179.4420  175.9410  140.7680 C   0  0  0  0  0  1  0  0  0  0  0  0
  182.3090  178.1550  139.5370 C   0  0  0  0  0  2  0  0  0  0  0  0
  180.3810  178.0190  141.6300 N   0  0  0  0  0  2  0  0  0  0  0  0
  181.5370  176.8660  139.7910 C   0  0  0  0  0  2  0  0  0  0  0  0
  180.1970  177.2110  140.4260 C   0  0  1  0  0  3  0  0  0  0  0  0
  181.4490  179.7920  142.6920 O   0  0  0  0  0  0  0  0  0  0  0  0
  182.6560  178.8610  140.8530 C   0  0  1  0  0  3  0  0  0  0  0  0
  181.4610  178.9490  141.7580 C   0  0  0  0  0  0  0  0  0  0  0  0
  187.5370  175.4890  137.6400 O   0  0  0  0  0  0  0  0  0  0  0  0
  187.5470  174.2510  136.9670 C   0  0  2  0  0  3  0  0  0  0  0  0
  186.7550  173.3400  137.6380 F   0  0  0  0  0  0  0  0  0  0  0  0
  188.9720  173.7300  136.9280 C   0  0  0  0  0  2  0  0  0  0  0  0
  189.2090  172.8700  135.7300 C   0  0  0  0  0  0  0  0  0  0  0  0
  188.2940  172.1980  135.2820 O   0  0  0  0  0  0  0  0  0  0  0  0
  190.5480  172.8410  135.0680 C   0  0  0  0  0  2  0  0  0  0  0  0
  191.6070  172.7200  136.0610 N   0  0  0  0  0  2  0  0  0  0  0  0
  192.9680  172.4590  135.7150 C   0  0  0  0  0  0  0  0  0  0  0  0
  193.4990  171.2880  136.0430 C   0  0  0  0  0  1  0  0  0  0  0  0
  193.7360  173.4470  135.0190 N   0  0  0  0  0  0  0  0  0  0  0  0
  195.1700  173.3420  134.7970 C   0  0  0  0  0  1  0  0  0  0  0  0
  1  8  1  0  0  0  0
  1 15  1  0  0  0  0
  3  6  1  1  0  0  0
  3 16  1  0  0  0  0
  3 12  1  0  0  0  0
  4  2  1  6  0  0  0
  4 15  1  0  0  0  0
  4  9  1  0  0  0  0
  5  7  1  0  0  0  0
  5  2  2  0  0  0  0
  7  1  2  0  0  0  0
  8 14  2  0  0  0  0
  9 21  1  1  0  0  0
 10  9  1  0  0  0  0
 12 39  1  1  0  0  0
 12 17  1  0  0  0  0
 14 11  1  0  0  0  0
 15 11  2  0  0  0  0
 16  2  1  0  0  0  0
 17 13  1  6  0  0  0
 17 10  1  0  0  0  0
 19 20  1  0  0  0  0
 19 12  1  0  0  0  0
 19 18  1  0  0  0  0
 20 18  1  0  0  0  0
 22 26  1  1  0  0  0
 22 23  1  0  0  0  0
 23 24  1  1  0  0  0
 25 21  1  6  0  0  0
 25 22  1  0  0  0  0
 25 24  1  0  0  0  0
 25 23  1  0  0  0  0
 26 27  1  1  0  0  0
 28 30  1  0  0  0  0
 28 26  1  0  0  0  0
 29 28  2  0  0  0  0
 32 34  1  0  0  0  0
 32 37  1  0  0  0  0
 33 38  1  0  0  0  0
 34 35  1  0  0  0  0
 35 31  1  1  0  0  0
 35 33  1  0  0  0  0
 37 30  1  1  0  0  0
 37 38  1  0  0  0  0
 38 36  2  0  0  0  0
 40 41  1  1  0  0  0
 40 39  1  0  0  0  0
 42 40  1  0  0  0  0
 43 42  1  0  0  0  0
 44 43  2  0  0  0  0
 45 43  1  0  0  0  0
 45 46  1  0  0  0  0
 47 48  1  0  0  0  0
 47 46  1  0  0  0  0
 49 47  2  0  0  0  0
 50 49  1  0  0  0  0
M  END
>  <MODEL>
1

>  <REMARK>
 VINA RESULT:      -5.6      0.000      0.000
  Name = 
  14 active torsions:
  status: ('A' for Active; 'I' for Inactive)
    1  A    between atoms: C_3  and  N_8
    2  A    between atoms: C_3  and  N_13
    3  A    between atoms: C_4  and  C_11
    4  A    between atoms: C_4  and  C_36
    5  A    between atoms: C_5  and  C_17
    6  A    between atoms: C_5  and  C_35
    7  A    between atoms: N_8  and  C_17
    8  A    between atoms: C_14  and  C_39
    9  A    between atoms: C_15  and  C_35
   10  A    between atoms: C_15  and  O_37
   11  A    between atoms: C_28  and  C_30
   12  A    between atoms: C_29  and  N_48
   13  A    between atoms: C_30  and  C_49
   14  A    between atoms: O_37  and  C_39
                            x       y       z     vdW  Elec       q    Type
                         _______ _______ _______ _____ _____    ______ ____

>  <TORSDO>
F 14

$$$$
=
 OpenBabel10222419043D

 50 56  0  0  1  0  0  0  0  0999 V2000
  192.0060  175.8230  137.0610 C   0  0  0  0  0  0  0  0  0  0  0  0
  189.7020  177.2110  136.2800 C   0  0  0  0  0  0  0  0  0  0  0  0
  187.3230  177.1210  135.6260 C   0  0  2  0  0  3  0  0  0  0  0  0
  190.2290  177.5820  137.6680 C   0  0  1  0  0  3  0  0  0  0  0  0
  190.3230  176.3200  135.4770 C   0  0  0  0  0  3  0  0  0  0  0  0
  186.4020  177.9710  134.7570 C   0  0  0  0  0  1  0  0  0  0  0  0
  191.5200  175.6280  135.8780 N   0  0  0  0  0  0  0  0  0  0  0  0
  193.2180  175.2900  137.5530 N   0  0  0  0  0  0  0  0  0  0  0  0
  189.1050  177.4400  138.7170 C   0  0  2  0  0  3  0  0  0  0  0  0
  188.0010  178.4590  138.4330 C   0  0  0  0  0  2  0  0  0  0  0  0
  192.2990  176.8390  139.0020 C   0  0  0  0  0  3  0  0  0  0  0  0
  186.6550  176.6770  136.9800 C   0  0  1  0  0  0  0  0  0  0  0  0
  185.8610  178.9350  137.5430 O   0  0  0  0  0  1  0  0  0  0  0  0
  193.3870  175.8820  138.6990 C   0  0  0  0  0  3  0  0  0  0  0  0
  191.4500  176.7530  137.9890 C   0  0  0  0  0  0  0  0  0  0  0  0
  188.5410  177.8330  135.8230 O   0  0  0  0  0  0  0  0  0  0  0  0
  186.6450  177.8740  138.0030 C   0  0  2  0  0  3  0  0  0  0  0  0
  184.4170  175.9320  137.9590 C   0  0  0  0  0  2  0  0  0  0  0  0
  185.2140  176.1240  136.6770 C   0  0  0  0  0  3  0  0  0  0  0  0
  184.0290  177.0260  136.9910 C   0  0  0  0  0  2  0  0  0  0  0  0
  189.5940  177.6550  140.1400 C   0  0  0  0  0  2  0  0  0  0  0  0
  187.7900  178.3580  141.7290 C   0  0  1  0  0  3  0  0  0  0  0  0
  188.9120  177.6690  142.4670 C   0  0  1  0  0  3  0  0  0  0  0  0
  189.0430  176.3250  142.0750 O   0  0  0  0  0  0  0  0  0  0  0  0
  188.5230  177.1970  141.1040 C   0  0  2  0  0  0  0  0  0  0  0  0
  186.4340  177.8710  142.2110 C   0  0  1  0  0  3  0  0  0  0  0  0
  186.3500  177.9880  143.6020 O   0  0  0  0  0  1  0  0  0  0  0  0
  185.3580  178.6750  141.5600 C   0  0  0  0  0  0  0  0  0  0  0  0
  185.6610  179.7520  140.9760 O   0  0  0  0  0  0  0  0  0  0  0  0
  183.9930  178.2590  141.6540 N   0  0  0  0  0  2  0  0  0  0  0  0
  179.6480  176.1770  140.8560 C   0  0  0  0  0  1  0  0  0  0  0  0
  182.4310  178.5750  139.7870 C   0  0  0  0  0  2  0  0  0  0  0  0
  180.6620  178.0960  141.9680 N   0  0  0  0  0  2  0  0  0  0  0  0
  181.6710  177.2580  139.8870 C   0  0  0  0  0  2  0  0  0  0  0  0
  180.3840  177.4900  140.6670 C   0  0  1  0  0  3  0  0  0  0  0  0
  181.8180  179.6810  143.2180 O   0  0  0  0  0  0  0  0  0  0  0  0
  182.8790  179.0630  141.1690 C   0  0  1  0  0  3  0  0  0  0  0  0
  181.7550  178.9990  142.1620 C   0  0  0  0  0  0  0  0  0  0  0  0
  187.3990  175.6270  137.5970 O   0  0  0  0  0  0  0  0  0  0  0  0
  187.6380  174.5510  136.7180 C   0  0  2  0  0  3  0  0  0  0  0  0
  187.1800  174.8620  135.4520 F   0  0  0  0  0  0  0  0  0  0  0  0
  186.8890  173.3330  137.2270 C   0  0  0  0  0  2  0  0  0  0  0  0
  186.9960  172.1860  136.2760 C   0  0  0  0  0  0  0  0  0  0  0  0
  188.0980  171.7640  135.9650 O   0  0  0  0  0  0  0  0  0  0  0  0
  185.7680  171.5440  135.7190 C   0  0  0  0  0  2  0  0  0  0  0  0
  184.7160  172.5330  135.5240 N   0  0  0  0  0  0  0  0  0  0  0  0
  183.4600  172.4720  136.2000 C   0  0  0  0  0  0  0  0  0  0  0  0
  183.1300  171.3570  136.8390 C   0  0  0  0  0  1  0  0  0  0  0  0
  182.5820  173.6030  136.1910 N   0  0  0  0  0  2  0  0  0  0  0  0
  181.8890  174.0740  135.0010 C   0  0  0  0  0  1  0  0  0  0  0  0
  1  8  1  0  0  0  0
  1 15  1  0  0  0  0
  3  6  1  1  0  0  0
  3 16  1  0  0  0  0
  3 12  1  0  0  0  0
  4  2  1  6  0  0  0
  4 15  1  0  0  0  0
  4  9  1  0  0  0  0
  5  7  1  0  0  0  0
  5  2  2  0  0  0  0
  7  1  2  0  0  0  0
  8 14  2  0  0  0  0
  9 21  1  1  0  0  0
 10  9  1  0  0  0  0
 12 39  1  1  0  0  0
 12 17  1  0  0  0  0
 14 11  1  0  0  0  0
 15 11  2  0  0  0  0
 16  2  1  0  0  0  0
 17 13  1  6  0  0  0
 17 10  1  0  0  0  0
 19 12  1  0  0  0  0
 19 20  1  0  0  0  0
 19 18  1  0  0  0  0
 20 18  1  0  0  0  0
 22 26  1  1  0  0  0
 22 23  1  0  0  0  0
 23 24  1  1  0  0  0
 25 21  1  6  0  0  0
 25 22  1  0  0  0  0
 25 24  1  0  0  0  0
 25 23  1  0  0  0  0
 26 27  1  1  0  0  0
 28 30  1  0  0  0  0
 28 26  1  0  0  0  0
 29 28  2  0  0  0  0
 32 34  1  0  0  0  0
 32 37  1  0  0  0  0
 33 38  1  0  0  0  0
 34 35  1  0  0  0  0
 35 31  1  1  0  0  0
 35 33  1  0  0  0  0
 37 30  1  1  0  0  0
 37 38  1  0  0  0  0
 38 36  2  0  0  0  0
 40 41  1  6  0  0  0
 40 42  1  0  0  0  0
 40 39  1  0  0  0  0
 43 42  1  0  0  0  0
 44 43  2  0  0  0  0
 45 43  1  0  0  0  0
 46 45  1  0  0  0  0
 46 47  2  0  0  0  0
 47 48  1  0  0  0  0
 49 47  1  0  0  0  0
 50 49  1  0  0  0  0
M  END
>  <MODEL>
2

>  <REMARK>
 VINA RESULT:      -5.0      1.896      3.462
  Name = 
  14 active torsions:
  status: ('A' for Active; 'I' for Inactive)
    1  A    between atoms: C_3  and  N_8
    2  A    between atoms: C_3  and  N_13
    3  A    between atoms: C_4  and  C_11
    4  A    between atoms: C_4  and  C_36
    5  A    between atoms: C_5  and  C_17
    6  A    between atoms: C_5  and  C_35
    7  A    between atoms: N_8  and  C_17
    8  A    between atoms: C_14  and  C_39
    9  A    between atoms: C_15  and  C_35
   10  A    between atoms: C_15  and  O_37
   11  A    between atoms: C_28  and  C_30
   12  A    between atoms: C_29  and  N_48
   13  A    between atoms: C_30  and  C_49
   14  A    between atoms: O_37  and  C_39
                            x       y       z     vdW  Elec       q    Type
                         _______ _______ _______ _____ _____    ______ ____

>  <TORSDO>
F 14

$$$$
=
 OpenBabel10222419043D

 50 56  0  0  1  0  0  0  0  0999 V2000
  186.7990  178.3580  139.0370 C   0  0  0  0  0  0  0  0  0  0  0  0
  184.3320  179.5450  139.6290 C   0  0  0  0  0  0  0  0  0  0  0  0
  181.8750  179.5010  139.3900 C   0  0  2  0  0  3  0  0  0  0  0  0
  185.1150  179.0610  140.8500 C   0  0  1  0  0  3  0  0  0  0  0  0
  184.8110  179.4500  138.3690 C   0  0  0  0  0  3  0  0  0  0  0  0
  180.7650  180.5470  139.3890 C   0  0  0  0  0  1  0  0  0  0  0  0
  186.0900  178.8580  138.0770 N   0  0  0  0  0  0  0  0  0  0  0  0
  188.1050  177.8340  138.9130 N   0  0  0  0  0  0  0  0  0  0  0  0
  184.2340  178.1270  141.7090 C   0  0  2  0  0  3  0  0  0  0  0  0
  183.0570  178.9140  142.2860 C   0  0  0  0  0  2  0  0  0  0  0  0
  187.4400  177.9940  141.1210 C   0  0  0  0  0  3  0  0  0  0  0  0
  181.5140  178.2200  140.2280 C   0  0  1  0  0  0  0  0  0  0  0  0
  180.7630  179.4910  142.1940 O   0  0  0  0  0  1  0  0  0  0  0  0
  188.4800  177.6130  140.1380 C   0  0  0  0  0  3  0  0  0  0  0  0
  186.4080  178.4160  140.4070 C   0  0  0  0  0  0  0  0  0  0  0  0
  183.0800  180.1230  139.8290 O   0  0  0  0  0  0  0  0  0  0  0  0
  181.6650  178.5120  141.7670 C   0  0  2  0  0  3  0  0  0  0  0  0
  179.5470  176.6980  140.8060 C   0  0  0  0  0  2  0  0  0  0  0  0
  180.0630  177.7510  139.8370 C   0  0  0  0  0  3  0  0  0  0  0  0
  178.9310  178.0780  140.8010 C   0  0  0  0  0  2  0  0  0  0  0  0
  184.9930  177.4950  142.8640 C   0  0  0  0  0  2  0  0  0  0  0  0
  185.6500  177.9740  145.2340 C   0  0  1  0  0  3  0  0  0  0  0  0
  184.2650  178.5010  144.9470 C   0  0  1  0  0  3  0  0  0  0  0  0
  184.2860  179.5160  143.9750 O   0  0  0  0  0  0  0  0  0  0  0  0
  185.3140  178.5630  143.8860 C   0  0  2  0  0  0  0  0  0  0  0  0
  186.4730  178.9860  146.0130 C   0  0  1  0  0  3  0  0  0  0  0  0
  185.8910  179.2150  147.2630 O   0  0  0  0  0  1  0  0  0  0  0  0
  187.8640  178.4720  146.1770 C   0  0  0  0  0  0  0  0  0  0  0  0
  188.3010  178.2320  147.3360 O   0  0  0  0  0  0  0  0  0  0  0  0
  188.7120  178.3160  145.0350 N   0  0  0  0  0  2  0  0  0  0  0  0
  191.0850  176.6770  141.0950 C   0  0  0  0  0  1  0  0  0  0  0  0
  190.3130  176.4660  144.8360 C   0  0  0  0  0  2  0  0  0  0  0  0
  191.2880  178.3080  142.8940 N   0  0  0  0  0  2  0  0  0  0  0  0
  190.1550  176.1740  143.3490 C   0  0  0  0  0  2  0  0  0  0  0  0
  191.2680  176.8800  142.5870 C   0  0  1  0  0  3  0  0  0  0  0  0
  191.1710  180.0030  144.4840 O   0  0  0  0  0  0  0  0  0  0  0  0
  190.1200  177.9580  145.1310 C   0  0  1  0  0  3  0  0  0  0  0  0
  190.9120  178.8100  144.1810 C   0  0  0  0  0  0  0  0  0  0  0  0
  182.4080  177.1480  139.9320 O   0  0  0  0  0  0  0  0  0  0  0  0
  182.1220  176.5370  138.6940 C   0  0  2  0  0  3  0  0  0  0  0  0
  181.5910  175.2790  138.8980 F   0  0  0  0  0  0  0  0  0  0  0  0
  183.4140  176.4060  137.9080 C   0  0  0  0  0  2  0  0  0  0  0  0
  183.2610  176.9140  136.5130 C   0  0  0  0  0  0  0  0  0  0  0  0
  182.2720  177.5660  136.2150 O   0  0  0  0  0  0  0  0  0  0  0  0
  184.3130  176.6460  135.4860 C   0  0  0  0  0  2  0  0  0  0  0  0
  184.9580  175.3640  135.7370 N   0  0  0  0  0  2  0  0  0  0  0  0
  186.3000  175.2520  136.2100 C   0  0  0  0  0  0  0  0  0  0  0  0
  187.1950  176.1490  135.8160 C   0  0  0  0  0  2  0  0  0  0  0  0
  186.6630  174.1910  137.1010 N   0  0  0  0  0  2  0  0  0  0  0  0
  185.7310  173.1740  137.5630 C   0  0  0  0  0  1  0  0  0  0  0  0
  1 15  1  0  0  0  0
  2 16  1  0  0  0  0
  3  6  1  1  0  0  0
  3 16  1  0  0  0  0
  3 12  1  0  0  0  0
  4  2  1  6  0  0  0
  4  9  1  0  0  0  0
  5  2  2  0  0  0  0
  7  5  1  0  0  0  0
  7  1  2  0  0  0  0
  8  1  1  0  0  0  0
  8 14  2  0  0  0  0
  9 10  1  0  0  0  0
  9 21  1  1  0  0  0
 12 39  1  6  0  0  0
 12 17  1  0  0  0  0
 14 11  1  0  0  0  0
 15  4  1  0  0  0  0
 15 11  2  0  0  0  0
 17 13  1  6  0  0  0
 17 10  1  0  0  0  0
 19 12  1  0  0  0  0
 19 20  1  0  0  0  0
 19 18  1  0  0  0  0
 20 18  1  0  0  0  0
 22 26  1  1  0  0  0
 23 24  1  1  0  0  0
 23 22  1  0  0  0  0
 25 21  1  6  0  0  0
 25 24  1  0  0  0  0
 25 23  1  0  0  0  0
 25 22  1  0  0  0  0
 26 28  1  0  0  0  0
 26 27  1  1  0  0  0
 28 29  2  0  0  0  0
 30 28  1  0  0  0  0
 32 37  1  0  0  0  0
 33 38  1  0  0  0  0
 34 32  1  0  0  0  0
 35 31  1  6  0  0  0
 35 33  1  0  0  0  0
 35 34  1  0  0  0  0
 37 30  1  6  0  0  0
 38 36  2  0  0  0  0
 38 37  1  0  0  0  0
 40 41  1  1  0  0  0
 40 39  1  0  0  0  0
 42 40  1  0  0  0  0
 43 42  1  0  0  0  0
 44 43  2  0  0  0  0
 45 46  1  0  0  0  0
 45 43  1  0  0  0  0
 46 47  1  0  0  0  0
 47 49  1  0  0  0  0
 48 47  2  0  0  0  0
 49 50  1  0  0  0  0
M  END
>  <MODEL>
3

>  <REMARK>
 VINA RESULT:      -4.5      3.860      7.112
  Name = 
  14 active torsions:
  status: ('A' for Active; 'I' for Inactive)
    1  A    between atoms: C_3  and  N_8
    2  A    between atoms: C_3  and  N_13
    3  A    between atoms: C_4  and  C_11
    4  A    between atoms: C_4  and  C_36
    5  A    between atoms: C_5  and  C_17
    6  A    between atoms: C_5  and  C_35
    7  A    between atoms: N_8  and  C_17
    8  A    between atoms: C_14  and  C_39
    9  A    between atoms: C_15  and  C_35
   10  A    between atoms: C_15  and  O_37
   11  A    between atoms: C_28  and  C_30
   12  A    between atoms: C_29  and  N_48
   13  A    between atoms: C_30  and  C_49
   14  A    between atoms: O_37  and  C_39
                            x       y       z     vdW  Elec       q    Type
                         _______ _______ _______ _____ _____    ______ ____

>  <TORSDO>
F 14

$$$$
=
 OpenBabel10222419043D

 50 56  0  0  1  0  0  0  0  0999 V2000
  186.7760  178.2620  139.0330 C   0  0  0  0  0  0  0  0  0  0  0  0
  184.3320  179.4930  139.6280 C   0  0  0  0  0  0  0  0  0  0  0  0
  181.8730  179.4820  139.4110 C   0  0  2  0  0  3  0  0  0  0  0  0
  185.1190  179.0150  140.8500 C   0  0  1  0  0  3  0  0  0  0  0  0
  184.7990  179.3730  138.3660 C   0  0  0  0  0  3  0  0  0  0  0  0
  180.7780  180.5440  139.4040 C   0  0  0  0  0  1  0  0  0  0  0  0
  186.0670  178.7590  138.0720 N   0  0  0  0  0  0  0  0  0  0  0  0
  188.0740  177.7180  138.9060 N   0  0  0  0  0  0  0  0  0  0  0  0
  184.2310  178.1070  141.7300 C   0  0  2  0  0  3  0  0  0  0  0  0
  183.0700  178.9190  142.3050 C   0  0  0  0  0  2  0  0  0  0  0  0
  187.4300  177.9190  141.1170 C   0  0  0  0  0  3  0  0  0  0  0  0
  181.5000  178.2180  140.2700 C   0  0  1  0  0  0  0  0  0  0  0  0
  180.7850  179.5280  142.2240 O   0  0  0  0  0  1  0  0  0  0  0  0
  188.4560  177.5090  140.1320 C   0  0  0  0  0  3  0  0  0  0  0  0
  186.3980  178.3460  140.4060 C   0  0  0  0  0  0  0  0  0  0  0  0
  183.0900  180.0930  139.8310 O   0  0  0  0  0  0  0  0  0  0  0  0
  181.6680  178.5300  141.8040 C   0  0  2  0  0  3  0  0  0  0  0  0
  179.5420  176.6840  140.8460 C   0  0  0  0  0  2  0  0  0  0  0  0
  180.0400  177.7650  139.8980 C   0  0  0  0  0  3  0  0  0  0  0  0
  178.9310  178.0660  140.8970 C   0  0  0  0  0  2  0  0  0  0  0  0
  184.9910  177.4810  142.8880 C   0  0  0  0  0  2  0  0  0  0  0  0
  185.6650  177.9820  145.2480 C   0  0  1  0  0  3  0  0  0  0  0  0
  184.2860  178.5240  144.9600 C   0  0  1  0  0  3  0  0  0  0  0  0
  184.3170  179.5260  143.9740 O   0  0  0  0  0  0  0  0  0  0  0  0
  185.3310  178.5570  143.8940 C   0  0  2  0  0  0  0  0  0  0  0  0
  186.5060  178.9930  146.0100 C   0  0  1  0  0  3  0  0  0  0  0  0
  185.9380  179.2390  147.2630 O   0  0  0  0  0  1  0  0  0  0  0  0
  187.8930  178.4660  146.1650 C   0  0  0  0  0  0  0  0  0  0  0  0
  188.3420  178.2440  147.3230 O   0  0  0  0  0  0  0  0  0  0  0  0
  188.7240  178.2800  145.0160 N   0  0  0  0  0  2  0  0  0  0  0  0
  191.0990  176.8010  141.0140 C   0  0  0  0  0  1  0  0  0  0  0  0
  190.3130  176.4300  144.7390 C   0  0  0  0  0  2  0  0  0  0  0  0
  191.3080  178.3500  142.8840 N   0  0  0  0  0  2  0  0  0  0  0  0
  190.1580  176.2050  143.2400 C   0  0  0  0  0  2  0  0  0  0  0  0
  191.2790  176.9360  142.5140 C   0  0  1  0  0  3  0  0  0  0  0  0
  191.1970  179.9730  144.5480 O   0  0  0  0  0  0  0  0  0  0  0  0
  190.1300  177.9080  145.1000 C   0  0  1  0  0  3  0  0  0  0  0  0
  190.9310  178.7960  144.1910 C   0  0  0  0  0  0  0  0  0  0  0  0
  182.3760  177.1290  139.9830 O   0  0  0  0  0  0  0  0  0  0  0  0
  181.9830  176.4130  138.8330 C   0  0  2  0  0  3  0  0  0  0  0  0
  181.7910  175.0820  139.1470 F   0  0  0  0  0  0  0  0  0  0  0  0
  183.0830  176.5220  137.7940 C   0  0  0  0  0  2  0  0  0  0  0  0
  182.6500  175.9670  136.4770 C   0  0  0  0  0  0  0  0  0  0  0  0
  182.8210  174.7820  136.2380 O   0  0  0  0  0  0  0  0  0  0  0  0
  181.9940  176.8440  135.4610 C   0  0  0  0  0  2  0  0  0  0  0  0
  181.9010  178.2130  135.9510 N   0  0  0  0  0  2  0  0  0  0  0  0
  180.7140  178.9980  135.8360 C   0  0  0  0  0  0  0  0  0  0  0  0
  179.5920  178.5460  136.3830 C   0  0  0  0  0  2  0  0  0  0  0  0
  180.7440  180.2540  135.1480 N   0  0  0  0  0  2  0  0  0  0  0  0
  180.6170  181.5400  135.8160 C   0  0  0  0  0  1  0  0  0  0  0  0
  1 15  1  0  0  0  0
  2 16  1  0  0  0  0
  3  6  1  1  0  0  0
  3 16  1  0  0  0  0
  3 12  1  0  0  0  0
  4  2  1  6  0  0  0
  4  9  1  0  0  0  0
  5  2  2  0  0  0  0
  7  5  1  0  0  0  0
  7  1  2  0  0  0  0
  8  1  1  0  0  0  0
  8 14  2  0  0  0  0
  9 10  1  0  0  0  0
  9 21  1  1  0  0  0
 12 39  1  6  0  0  0
 12 17  1  0  0  0  0
 14 11  1  0  0  0  0
 15  4  1  0  0  0  0
 15 11  2  0  0  0  0
 17 13  1  6  0  0  0
 17 10  1  0  0  0  0
 18 20  1  0  0  0  0
 19 12  1  0  0  0  0
 19 18  1  0  0  0  0
 19 20  1  0  0  0  0
 22 26  1  1  0  0  0
 23 24  1  1  0  0  0
 23 22  1  0  0  0  0
 25 21  1  6  0  0  0
 25 24  1  0  0  0  0
 25 23  1  0  0  0  0
 25 22  1  0  0  0  0
 26 28  1  0  0  0  0
 26 27  1  1  0  0  0
 28 29  2  0  0  0  0
 30 28  1  0  0  0  0
 32 37  1  0  0  0  0
 33 38  1  0  0  0  0
 34 32  1  0  0  0  0
 35 31  1  6  0  0  0
 35 33  1  0  0  0  0
 35 34  1  0  0  0  0
 37 30  1  6  0  0  0
 38 36  2  0  0  0  0
 38 37  1  0  0  0  0
 40 41  1  1  0  0  0
 40 39  1  0  0  0  0
 42 40  1  0  0  0  0
 43 42  1  0  0  0  0
 44 43  2  0  0  0  0
 45 46  1  0  0  0  0
 45 43  1  0  0  0  0
 47 46  1  0  0  0  0
 47 48  2  0  0  0  0
 49 50  1  0  0  0  0
 49 47  1  0  0  0  0
M  END
>  <MODEL>
4

>  <REMARK>
 VINA RESULT:      -4.2      4.184      8.102
  Name = 
  14 active torsions:
  status: ('A' for Active; 'I' for Inactive)
    1  A    between atoms: C_3  and  N_8
    2  A    between atoms: C_3  and  N_13
    3  A    between atoms: C_4  and  C_11
    4  A    between atoms: C_4  and  C_36
    5  A    between atoms: C_5  and  C_17
    6  A    between atoms: C_5  and  C_35
    7  A    between atoms: N_8  and  C_17
    8  A    between atoms: C_14  and  C_39
    9  A    between atoms: C_15  and  C_35
   10  A    between atoms: C_15  and  O_37
   11  A    between atoms: C_28  and  C_30
   12  A    between atoms: C_29  and  N_48
   13  A    between atoms: C_30  and  C_49
   14  A    between atoms: O_37  and  C_39
                            x       y       z     vdW  Elec       q    Type
                         _______ _______ _______ _____ _____    ______ ____

>  <TORSDO>
F 14

$$$$
=
 OpenBabel10222419043D

 50 56  0  0  1  0  0  0  0  0999 V2000
  192.1670  175.4240  137.0810 C   0  0  0  0  0  0  0  0  0  0  0  0
  190.0240  177.0190  136.2410 C   0  0  0  0  0  0  0  0  0  0  0  0
  187.6790  177.1440  135.4780 C   0  0  2  0  0  3  0  0  0  0  0  0
  190.5130  177.3060  137.6620 C   0  0  1  0  0  3  0  0  0  0  0  0
  190.6070  176.1020  135.4390 C   0  0  0  0  0  3  0  0  0  0  0  0
  186.8730  178.0910  134.5940 C   0  0  0  0  0  1  0  0  0  0  0  0
  191.7240  175.3020  135.8720 N   0  0  0  0  0  0  0  0  0  0  0  0
  193.3070  174.7790  137.6110 N   0  0  0  0  0  0  0  0  0  0  0  0
  189.3320  177.2300  138.6550 C   0  0  2  0  0  3  0  0  0  0  0  0
  188.3290  178.3430  138.3530 C   0  0  0  0  0  2  0  0  0  0  0  0
  192.4500  176.3590  139.0640 C   0  0  0  0  0  3  0  0  0  0  0  0
  186.9140  176.7200  136.7850 C   0  0  1  0  0  0  0  0  0  0  0  0
  186.2800  179.0200  137.3820 O   0  0  0  0  0  1  0  0  0  0  0  0
  193.4680  175.3230  138.7810 C   0  0  0  0  0  3  0  0  0  0  0  0
  191.6460  176.3710  138.0120 C   0  0  0  0  0  0  0  0  0  0  0  0
  188.9410  177.7470  135.7510 O   0  0  0  0  0  0  0  0  0  0  0  0
  186.9520  177.8850  137.8440 C   0  0  2  0  0  3  0  0  0  0  0  0
  184.5770  176.1430  137.6380 C   0  0  0  0  0  2  0  0  0  0  0  0
  185.4480  176.2960  136.4000 C   0  0  0  0  0  3  0  0  0  0  0  0
  184.3280  177.2880  136.6830 C   0  0  0  0  0  2  0  0  0  0  0  0
  189.7690  177.3640  140.1040 C   0  0  0  0  0  2  0  0  0  0  0  0
  188.4790  178.7490  141.7450 C   0  0  1  0  0  3  0  0  0  0  0  0
  189.0050  177.4970  142.4020 C   0  0  1  0  0  3  0  0  0  0  0  0
  188.4430  176.3380  141.8380 O   0  0  0  0  0  0  0  0  0  0  0  0
  188.5410  177.4490  140.9830 C   0  0  2  0  0  0  0  0  0  0  0  0
  187.0340  179.0110  142.1380 C   0  0  1  0  0  3  0  0  0  0  0  0
  186.1930  178.7860  141.0450 O   0  0  0  0  0  1  0  0  0  0  0  0
  186.6590  178.1160  143.2710 C   0  0  0  0  0  0  0  0  0  0  0  0
  185.8950  177.1350  143.0560 O   0  0  0  0  0  0  0  0  0  0  0  0
  187.1100  178.4070  144.5970 N   0  0  0  0  0  2  0  0  0  0  0  0
  189.7760  178.5030  148.6870 C   0  0  0  0  0  1  0  0  0  0  0  0
  187.6880  176.5750  146.1260 C   0  0  0  0  0  2  0  0  0  0  0  0
  187.4860  178.7920  147.9040 N   0  0  0  0  0  2  0  0  0  0  0  0
  188.9400  177.1760  146.7540 C   0  0  0  0  0  2  0  0  0  0  0  0
  188.5650  177.8210  148.0810 C   0  0  1  0  0  3  0  0  0  0  0  0
  185.4350  179.3350  146.9490 O   0  0  0  0  0  0  0  0  0  0  0  0
  186.6700  177.6640  145.7700 C   0  0  1  0  0  3  0  0  0  0  0  0
  186.4690  178.6180  146.9120 C   0  0  0  0  0  0  0  0  0  0  0  0
  187.5400  175.5950  137.4020 O   0  0  0  0  0  0  0  0  0  0  0  0
  187.0390  174.3700  136.9170 C   0  0  2  0  0  3  0  0  0  0  0  0
  186.5510  173.6100  137.9620 F   0  0  0  0  0  0  0  0  0  0  0  0
  188.1710  173.6150  136.2440 C   0  0  0  0  0  2  0  0  0  0  0  0
  187.7750  172.2130  135.9170 C   0  0  0  0  0  0  0  0  0  0  0  0
  188.2420  171.2890  136.5660 O   0  0  0  0  0  0  0  0  0  0  0  0
  186.8030  171.9330  134.8180 C   0  0  0  0  0  2  0  0  0  0  0  0
  185.8390  170.9230  135.2320 N   0  0  0  0  0  2  0  0  0  0  0  0
  184.4800  171.2300  135.5450 C   0  0  0  0  0  0  0  0  0  0  0  0
  183.5640  170.2770  135.4270 C   0  0  0  0  0  2  0  0  0  0  0  0
  184.1220  172.5450  135.9850 N   0  0  0  0  0  2  0  0  0  0  0  0
  182.9840  172.8230  136.8470 C   0  0  0  0  0  1  0  0  0  0  0  0
  1  8  1  0  0  0  0
  1 15  1  0  0  0  0
  3  6  1  1  0  0  0
  3 16  1  0  0  0  0
  3 12  1  0  0  0  0
  4  2  1  6  0  0  0
  4 15  1  0  0  0  0
  4  9  1  0  0  0  0
  5  7  1  0  0  0  0
  5  2  2  0  0  0  0
  7  1  2  0  0  0  0
  8 14  2  0  0  0  0
  9 21  1  1  0  0  0
 10  9  1  0  0  0  0
 12 39  1  1  0  0  0
 12 17  1  0  0  0  0
 14 11  1  0  0  0  0
 15 11  2  0  0  0  0
 16  2  1  0  0  0  0
 17 13  1  6  0  0  0
 17 10  1  0  0  0  0
 19 20  1  0  0  0  0
 19 12  1  0  0  0  0
 19 18  1  0  0  0  0
 20 18  1  0  0  0  0
 22 26  1  1  0  0  0
 22 23  1  0  0  0  0
 23 24  1  1  0  0  0
 25 21  1  6  0  0  0
 25 22  1  0  0  0  0
 25 24  1  0  0  0  0
 25 23  1  0  0  0  0
 26 27  1  6  0  0  0
 26 28  1  0  0  0  0
 28 30  1  0  0  0  0
 29 28  2  0  0  0  0
 32 34  1  0  0  0  0
 33 35  1  0  0  0  0
 34 35  1  0  0  0  0
 35 31  1  6  0  0  0
 37 30  1  6  0  0  0
 37 32  1  0  0  0  0
 37 38  1  0  0  0  0
 38 36  2  0  0  0  0
 38 33  1  0  0  0  0
 40 39  1  0  0  0  0
 40 41  1  1  0  0  0
 42 40  1  0  0  0  0
 43 42  1  0  0  0  0
 43 44  2  0  0  0  0
 45 46  1  0  0  0  0
 45 43  1  0  0  0  0
 46 47  1  0  0  0  0
 47 49  1  0  0  0  0
 48 47  2  0  0  0  0
 49 50  1  0  0  0  0
M  END
>  <MODEL>
5

>  <REMARK>
 VINA RESULT:      -3.9      2.869      4.982
  Name = 
  14 active torsions:
  status: ('A' for Active; 'I' for Inactive)
    1  A    between atoms: C_3  and  N_8
    2  A    between atoms: C_3  and  N_13
    3  A    between atoms: C_4  and  C_11
    4  A    between atoms: C_4  and  C_36
    5  A    between atoms: C_5  and  C_17
    6  A    between atoms: C_5  and  C_35
    7  A    between atoms: N_8  and  C_17
    8  A    between atoms: C_14  and  C_39
    9  A    between atoms: C_15  and  C_35
   10  A    between atoms: C_15  and  O_37
   11  A    between atoms: C_28  and  C_30
   12  A    between atoms: C_29  and  N_48
   13  A    between atoms: C_30  and  C_49
   14  A    between atoms: O_37  and  C_39
                            x       y       z     vdW  Elec       q    Type
                         _______ _______ _______ _____ _____    ______ ____

>  <TORSDO>
F 14

$$$$
=
 OpenBabel10222419043D

 50 56  0  0  1  0  0  0  0  0999 V2000
  182.7290  173.1390  136.8090 C   0  0  0  0  0  0  0  0  0  0  0  0
  181.0970  175.3930  136.4920 C   0  0  0  0  0  0  0  0  0  0  0  0
  180.2190  177.4940  137.4450 C   0  0  2  0  0  3  0  0  0  0  0  0
  182.2380  175.2850  135.4780 C   0  0  1  0  0  3  0  0  0  0  0  0
  180.8670  174.4540  137.4360 C   0  0  0  0  0  3  0  0  0  0  0  0
  178.9420  178.3120  137.2800 C   0  0  0  0  0  1  0  0  0  0  0  0
  181.6980  173.2870  137.5770 N   0  0  0  0  0  0  0  0  0  0  0  0
  183.5740  172.0080  136.7710 N   0  0  0  0  0  0  0  0  0  0  0  0
  183.0700  176.5860  135.4760 C   0  0  2  0  0  3  0  0  0  0  0  0
  182.2110  177.7480  134.9770 C   0  0  0  0  0  2  0  0  0  0  0  0
  184.0430  173.4990  135.0680 C   0  0  0  0  0  3  0  0  0  0  0  0
  181.5180  178.3800  137.4710 C   0  0  1  0  0  0  0  0  0  0  0  0
  180.9070  179.6620  135.4640 O   0  0  0  0  0  1  0  0  0  0  0  0
  184.3520  172.2220  135.7510 C   0  0  0  0  0  3  0  0  0  0  0  0
  183.0630  174.0520  135.7650 C   0  0  0  0  0  0  0  0  0  0  0  0
  180.2520  176.4990  136.4250 O   0  0  0  0  0  0  0  0  0  0  0  0
  181.8950  178.8410  136.0140 C   0  0  2  0  0  3  0  0  0  0  0  0
  182.4130  180.6080  138.3400 C   0  0  0  0  0  2  0  0  0  0  0  0
  181.2880  179.5890  138.4510 C   0  0  0  0  0  3  0  0  0  0  0  0
  181.0310  180.9580  137.8360 C   0  0  0  0  0  2  0  0  0  0  0  0
  184.3060  176.4960  134.5960 C   0  0  0  0  0  2  0  0  0  0  0  0
  185.9690  177.1450  136.3530 C   0  0  1  0  0  3  0  0  0  0  0  0
  186.6590  176.8750  135.0380 C   0  0  1  0  0  3  0  0  0  0  0  0
  186.5160  175.5320  134.6420 O   0  0  0  0  0  0  0  0  0  0  0  0
  185.4800  176.0500  135.4380 C   0  0  2  0  0  0  0  0  0  0  0  0
  186.7200  176.5090  137.5100 C   0  0  1  0  0  3  0  0  0  0  0  0
  187.5770  175.5120  137.0340 O   0  0  0  0  0  1  0  0  0  0  0  0
  187.4990  177.5580  138.2310 C   0  0  0  0  0  0  0  0  0  0  0  0
  187.4680  178.7470  137.8110 O   0  0  0  0  0  0  0  0  0  0  0  0
  188.3210  177.2030  139.3470 N   0  0  0  0  0  2  0  0  0  0  0  0
  189.5990  176.4870  144.0050 C   0  0  0  0  0  1  0  0  0  0  0  0
  188.5030  178.8240  141.1810 C   0  0  0  0  0  2  0  0  0  0  0  0
  190.5680  176.9680  141.8210 N   0  0  0  0  0  2  0  0  0  0  0  0
  188.3440  177.8700  142.3590 C   0  0  0  0  0  2  0  0  0  0  0  0
  189.7240  177.5040  142.8870 C   0  0  1  0  0  3  0  0  0  0  0  0
  191.3400  177.1140  139.6310 O   0  0  0  0  0  0  0  0  0  0  0  0
  189.2170  178.1420  140.0080 C   0  0  1  0  0  3  0  0  0  0  0  0
  190.4470  177.4130  140.4660 C   0  0  0  0  0  0  0  0  0  0  0  0
  182.6340  177.6360  137.9590 O   0  0  0  0  0  0  0  0  0  0  0  0
  182.3880  177.0670  139.2250 C   0  0  2  0  0  3  0  0  0  0  0  0
  181.4820  177.8420  139.9240 F   0  0  0  0  0  0  0  0  0  0  0  0
  183.6940  177.0180  139.9980 C   0  0  0  0  0  2  0  0  0  0  0  0
  184.1130  178.3770  140.4530 C   0  0  0  0  0  0  0  0  0  0  0  0
  184.8860  179.0280  139.7690 O   0  0  0  0  0  0  0  0  0  0  0  0
  183.5800  178.9500  141.7260 C   0  0  0  0  0  2  0  0  0  0  0  0
  184.5820  178.8710  142.7810 N   0  0  0  0  0  2  0  0  0  0  0  0
  184.2500  178.9110  144.1690 C   0  0  0  0  0  0  0  0  0  0  0  0
  183.0030  178.6460  144.5370 C   0  0  0  0  0  2  0  0  0  0  0  0
  185.2540  179.2260  145.1410 N   0  0  0  0  0  2  0  0  0  0  0  0
  185.6020  178.3510  146.2490 C   0  0  0  0  0  1  0  0  0  0  0  0
  1  7  2  0  0  0  0
  2  5  2  0  0  0  0
  3  6  1  6  0  0  0
  3 12  1  0  0  0  0
  4 15  1  1  0  0  0
  4  2  1  0  0  0  0
  5  7  1  0  0  0  0
  8  1  1  0  0  0  0
  9 21  1  6  0  0  0
  9  4  1  0  0  0  0
 10  9  1  0  0  0  0
 10 17  1  0  0  0  0
 11 14  1  0  0  0  0
 11 15  2  0  0  0  0
 12 39  1  1  0  0  0
 12 19  1  0  0  0  0
 14  8  2  0  0  0  0
 15  1  1  0  0  0  0
 16  2  1  0  0  0  0
 16  3  1  0  0  0  0
 17 13  1  6  0  0  0
 17 12  1  0  0  0  0
 18 19  1  0  0  0  0
 20 18  1  0  0  0  0
 20 19  1  0  0  0  0
 22 26  1  1  0  0  0
 23 24  1  1  0  0  0
 23 25  1  0  0  0  0
 23 22  1  0  0  0  0
 24 25  1  0  0  0  0
 25 21  1  6  0  0  0
 25 22  1  0  0  0  0
 26 27  1  6  0  0  0
 26 28  1  0  0  0  0
 28 30  1  0  0  0  0
 29 28  2  0  0  0  0
 32 34  1  0  0  0  0
 33 35  1  0  0  0  0
 34 35  1  0  0  0  0
 35 31  1  1  0  0  0
 36 38  2  0  0  0  0
 37 30  1  1  0  0  0
 37 38  1  0  0  0  0
 37 32  1  0  0  0  0
 38 33  1  0  0  0  0
 39 40  1  0  0  0  0
 40 41  1  1  0  0  0
 40 42  1  0  0  0  0
 42 43  1  0  0  0  0
 43 45  1  0  0  0  0
 44 43  2  0  0  0  0
 45 46  1  0  0  0  0
 46 47  1  0  0  0  0
 47 48  2  0  0  0  0
 47 49  1  0  0  0  0
 49 50  1  0  0  0  0
M  END
>  <MODEL>
6

>  <REMARK>
 VINA RESULT:      -3.8      3.701      8.769
  Name = 
  14 active torsions:
  status: ('A' for Active; 'I' for Inactive)
    1  A    between atoms: C_3  and  N_8
    2  A    between atoms: C_3  and  N_13
    3  A    between atoms: C_4  and  C_11
    4  A    between atoms: C_4  and  C_36
    5  A    between atoms: C_5  and  C_17
    6  A    between atoms: C_5  and  C_35
    7  A    between atoms: N_8  and  C_17
    8  A    between atoms: C_14  and  C_39
    9  A    between atoms: C_15  and  C_35
   10  A    between atoms: C_15  and  O_37
   11  A    between atoms: C_28  and  C_30
   12  A    between atoms: C_29  and  N_48
   13  A    between atoms: C_30  and  C_49
   14  A    between atoms: O_37  and  C_39
                            x       y       z     vdW  Elec       q    Type
                         _______ _______ _______ _____ _____    ______ ____

>  <TORSDO>
F 14

$$$$
=
 OpenBabel10222419043D

 50 56  0  0  1  0  0  0  0  0999 V2000
  183.4800  173.6140  137.3480 C   0  0  0  0  0  0  0  0  0  0  0  0
  181.5830  175.5510  136.6440 C   0  0  0  0  0  0  0  0  0  0  0  0
  180.2840  177.5460  137.2990 C   0  0  2  0  0  3  0  0  0  0  0  0
  182.8480  175.5570  135.7840 C   0  0  1  0  0  3  0  0  0  0  0  0
  181.3760  174.6550  137.6340 C   0  0  0  0  0  3  0  0  0  0  0  0
  178.9310  178.1360  136.9140 C   0  0  0  0  0  1  0  0  0  0  0  0
  182.3480  173.6480  137.9730 N   0  0  0  0  0  0  0  0  0  0  0  0
  184.4820  172.6320  137.5080 N   0  0  0  0  0  0  0  0  0  0  0  0
  183.4690  176.9710  135.7650 C   0  0  2  0  0  3  0  0  0  0  0  0
  182.5180  177.9440  135.0680 C   0  0  0  0  0  2  0  0  0  0  0  0
  184.9380  174.0570  135.7470 C   0  0  0  0  0  3  0  0  0  0  0  0
  181.4220  178.6270  137.3980 C   0  0  1  0  0  0  0  0  0  0  0  0
  180.8900  179.6540  135.2280 O   0  0  0  0  0  1  0  0  0  0  0  0
  185.3440  172.8970  136.5710 C   0  0  0  0  0  3  0  0  0  0  0  0
  183.8040  174.4950  136.2730 C   0  0  0  0  0  0  0  0  0  0  0  0
  180.5970  176.5010  136.3820 O   0  0  0  0  0  0  0  0  0  0  0  0
  181.9100  179.0410  135.9590 C   0  0  2  0  0  3  0  0  0  0  0  0
  181.9450  180.9380  138.3500 C   0  0  0  0  0  2  0  0  0  0  0  0
  180.8880  179.8490  138.2330 C   0  0  0  0  0  3  0  0  0  0  0  0
  180.7110  181.1770  137.5100 C   0  0  0  0  0  2  0  0  0  0  0  0
  184.8070  177.0190  135.0450 C   0  0  0  0  0  2  0  0  0  0  0  0
  187.2410  177.3220  135.5540 C   0  0  1  0  0  3  0  0  0  0  0  0
  186.5490  176.5890  136.6760 C   0  0  1  0  0  3  0  0  0  0  0  0
  185.5770  177.3910  137.3010 O   0  0  0  0  0  0  0  0  0  0  0  0
  185.8280  177.6750  135.9480 C   0  0  2  0  0  0  0  0  0  0  0  0
  188.1750  178.3940  136.0900 C   0  0  1  0  0  3  0  0  0  0  0  0
  187.4920  179.2150  136.9930 O   0  0  0  0  0  1  0  0  0  0  0  0
  189.3400  177.7460  136.7610 C   0  0  0  0  0  0  0  0  0  0  0  0
  189.6990  178.1510  137.9010 O   0  0  0  0  0  0  0  0  0  0  0  0
  190.0790  176.7230  136.0880 N   0  0  0  0  0  2  0  0  0  0  0  0
  191.2020  172.0680  135.1310 C   0  0  0  0  0  1  0  0  0  0  0  0
  190.9870  174.9990  137.5800 C   0  0  0  0  0  2  0  0  0  0  0  0
  192.1690  174.3050  135.0820 N   0  0  0  0  0  2  0  0  0  0  0  0
  190.5210  173.7600  136.8250 C   0  0  0  0  0  2  0  0  0  0  0  0
  191.6650  173.2500  135.9600 C   0  0  1  0  0  3  0  0  0  0  0  0
  192.8210  176.5220  134.8080 O   0  0  0  0  0  0  0  0  0  0  0  0
  191.3080  176.1480  136.6170 C   0  0  1  0  0  3  0  0  0  0  0  0
  192.1660  175.6810  135.4770 C   0  0  0  0  0  0  0  0  0  0  0  0
  182.5640  178.1060  138.0760 O   0  0  0  0  0  0  0  0  0  0  0  0
  182.2420  177.5830  139.3450 C   0  0  2  0  0  3  0  0  0  0  0  0
  181.6670  178.5640  140.1300 F   0  0  0  0  0  0  0  0  0  0  0  0
  183.5190  177.1040  140.0120 C   0  0  0  0  0  2  0  0  0  0  0  0
  184.1800  178.2000  140.7810 C   0  0  0  0  0  0  0  0  0  0  0  0
  184.3490  179.2880  140.2540 O   0  0  0  0  0  0  0  0  0  0  0  0
  184.6180  177.9810  142.1930 C   0  0  0  0  0  2  0  0  0  0  0  0
  184.3810  179.1740  142.9930 N   0  0  0  0  0  2  0  0  0  0  0  0
  183.6410  179.1540  144.2140 C   0  0  0  0  0  0  0  0  0  0  0  0
  182.3360  178.9160  144.1680 C   0  0  0  0  0  2  0  0  0  0  0  0
  184.3050  179.3780  145.4630 N   0  0  0  0  0  2  0  0  0  0  0  0
  184.9050  178.3180  146.2570 C   0  0  0  0  0  1  0  0  0  0  0  0
  1  8  1  0  0  0  0
  1  7  2  0  0  0  0
  2  5  2  0  0  0  0
  3  6  1  6  0  0  0
  3 12  1  0  0  0  0
  4 15  1  1  0  0  0
  4  2  1  0  0  0  0
  5  7  1  0  0  0  0
  9 21  1  6  0  0  0
  9  4  1  0  0  0  0
 10  9  1  0  0  0  0
 10 17  1  0  0  0  0
 11 15  2  0  0  0  0
 11 14  1  0  0  0  0
 12 39  1  1  0  0  0
 12 19  1  0  0  0  0
 14  8  2  0  0  0  0
 15  1  1  0  0  0  0
 16  2  1  0  0  0  0
 16  3  1  0  0  0  0
 17 13  1  6  0  0  0
 17 12  1  0  0  0  0
 19 18  1  0  0  0  0
 20 19  1  0  0  0  0
 20 18  1  0  0  0  0
 22 25  1  0  0  0  0
 22 26  1  1  0  0  0
 22 23  1  0  0  0  0
 23 24  1  1  0  0  0
 25 21  1  6  0  0  0
 25 23  1  0  0  0  0
 25 24  1  0  0  0  0
 26 28  1  0  0  0  0
 26 27  1  1  0  0  0
 28 29  2  0  0  0  0
 30 28  1  0  0  0  0
 33 38  1  0  0  0  0
 33 35  1  0  0  0  0
 34 32  1  0  0  0  0
 35 31  1  6  0  0  0
 35 34  1  0  0  0  0
 36 38  2  0  0  0  0
 37 30  1  6  0  0  0
 37 32  1  0  0  0  0
 38 37  1  0  0  0  0
 39 40  1  0  0  0  0
 40 42  1  0  0  0  0
 40 41  1  1  0  0  0
 42 43  1  0  0  0  0
 43 45  1  0  0  0  0
 44 43  2  0  0  0  0
 45 46  1  0  0  0  0
 46 47  1  0  0  0  0
 47 49  1  0  0  0  0
 48 47  2  0  0  0  0
 49 50  1  0  0  0  0
M  END
>  <MODEL>
7

>  <REMARK>
 VINA RESULT:      -3.6      3.010      9.343
  Name = 
  14 active torsions:
  status: ('A' for Active; 'I' for Inactive)
    1  A    between atoms: C_3  and  N_8
    2  A    between atoms: C_3  and  N_13
    3  A    between atoms: C_4  and  C_11
    4  A    between atoms: C_4  and  C_36
    5  A    between atoms: C_5  and  C_17
    6  A    between atoms: C_5  and  C_35
    7  A    between atoms: N_8  and  C_17
    8  A    between atoms: C_14  and  C_39
    9  A    between atoms: C_15  and  C_35
   10  A    between atoms: C_15  and  O_37
   11  A    between atoms: C_28  and  C_30
   12  A    between atoms: C_29  and  N_48
   13  A    between atoms: C_30  and  C_49
   14  A    between atoms: O_37  and  C_39
                            x       y       z     vdW  Elec       q    Type
                         _______ _______ _______ _____ _____    ______ ____

>  <TORSDO>
F 14

$$$$
=
 OpenBabel10222419043D

 50 56  0  0  1  0  0  0  0  0999 V2000
  182.4390  178.3420  141.6290 C   0  0  0  0  0  0  0  0  0  0  0  0
  182.3020  176.6890  139.3730 C   0  0  0  0  0  0  0  0  0  0  0  0
  181.3640  176.2860  137.1250 C   0  0  2  0  0  3  0  0  0  0  0  0
  183.6940  177.2500  139.6680 C   0  0  1  0  0  3  0  0  0  0  0  0
  181.2340  176.9330  140.1630 C   0  0  0  0  0  3  0  0  0  0  0  0
  181.0490  175.0530  136.2840 C   0  0  0  0  0  1  0  0  0  0  0  0
  181.3190  177.7660  141.3340 N   0  0  0  0  0  0  0  0  0  0  0  0
  182.6940  179.1050  142.7910 N   0  0  0  0  0  0  0  0  0  0  0  0
  184.2560  177.9590  138.4160 C   0  0  2  0  0  3  0  0  0  0  0  0
  184.4730  176.9400  137.2970 C   0  0  0  0  0  2  0  0  0  0  0  0
  184.6170  178.7160  141.5690 C   0  0  0  0  0  3  0  0  0  0  0  0
  182.0530  177.4350  136.3010 C   0  0  1  0  0  0  0  0  0  0  0  0
  183.7270  175.9510  135.2810 O   0  0  0  0  0  1  0  0  0  0  0  0
  183.9740  179.3310  142.7510 C   0  0  0  0  0  3  0  0  0  0  0  0
  183.6390  178.1450  140.8830 C   0  0  0  0  0  0  0  0  0  0  0  0
  182.1360  175.8780  138.2510 O   0  0  0  0  0  0  0  0  0  0  0  0
  183.5720  177.1010  136.0600 C   0  0  2  0  0  3  0  0  0  0  0  0
  180.4560  176.4020  134.5960 C   0  0  0  0  0  2  0  0  0  0  0  0
  181.2570  177.6440  134.9590 C   0  0  0  0  0  3  0  0  0  0  0  0
  179.7360  177.6580  135.0340 C   0  0  0  0  0  2  0  0  0  0  0  0
  185.5770  178.6640  138.6780 C   0  0  0  0  0  2  0  0  0  0  0  0
  188.0370  178.2150  138.5290 C   0  0  1  0  0  3  0  0  0  0  0  0
  187.5590  178.9780  137.3180 C   0  0  1  0  0  3  0  0  0  0  0  0
  186.6420  178.2290  136.5590 O   0  0  0  0  0  0  0  0  0  0  0  0
  186.6770  177.9420  137.9340 C   0  0  2  0  0  0  0  0  0  0  0  0
  188.9730  177.0860  138.1330 C   0  0  1  0  0  3  0  0  0  0  0  0
  189.9380  177.5560  137.2380 O   0  0  0  0  0  1  0  0  0  0  0  0
  189.6280  176.5340  139.3550 C   0  0  0  0  0  0  0  0  0  0  0  0
  190.5480  175.6790  139.2300 O   0  0  0  0  0  0  0  0  0  0  0  0
  189.1710  176.9240  140.6530 N   0  0  0  0  0  2  0  0  0  0  0  0
  191.1030  179.7430  144.1420 C   0  0  0  0  0  1  0  0  0  0  0  0
  191.1720  176.5550  142.0280 C   0  0  0  0  0  2  0  0  0  0  0  0
  189.4670  177.9640  143.8250 N   0  0  0  0  0  2  0  0  0  0  0  0
  191.4730  178.0010  142.4020 C   0  0  0  0  0  2  0  0  0  0  0  0
  190.8920  178.2850  143.7810 C   0  0  1  0  0  3  0  0  0  0  0  0
  187.7420  176.4960  143.2940 O   0  0  0  0  0  0  0  0  0  0  0  0
  189.6630  176.3230  141.8860 C   0  0  1  0  0  3  0  0  0  0  0  0
  188.9100  176.8970  143.0510 C   0  0  0  0  0  0  0  0  0  0  0  0
  182.0210  178.6680  137.0180 O   0  0  0  0  0  0  0  0  0  0  0  0
  180.9110  179.4640  136.6670 C   0  0  2  0  0  3  0  0  0  0  0  0
  181.3350  180.7140  136.2580 F   0  0  0  0  0  0  0  0  0  0  0  0
  180.0210  179.6200  137.8870 C   0  0  0  0  0  2  0  0  0  0  0  0
  180.2370  180.9360  138.5580 C   0  0  0  0  0  0  0  0  0  0  0  0
  181.0430  181.0210  139.4710 O   0  0  0  0  0  0  0  0  0  0  0  0
  179.4880  182.1500  138.1110 C   0  0  0  0  0  2  0  0  0  0  0  0
  180.3780  183.3010  138.0370 N   0  0  0  0  0  2  0  0  0  0  0  0
  179.9270  184.6060  137.6740 C   0  0  0  0  0  0  0  0  0  0  0  0
  179.0530  185.2230  138.4590 C   0  0  0  0  0  2  0  0  0  0  0  0
  180.4220  185.2350  136.4860 N   0  0  0  0  0  2  0  0  0  0  0  0
  180.7770  184.5050  135.2790 C   0  0  0  0  0  1  0  0  0  0  0  0
  1  8  1  0  0  0  0
  2  5  2  0  0  0  0
  3  6  1  6  0  0  0
  3 16  1  0  0  0  0
  4  2  1  6  0  0  0
  4 15  1  0  0  0  0
  5  7  1  0  0  0  0
  7  1  2  0  0  0  0
  9 21  1  1  0  0  0
  9  4  1  0  0  0  0
 10  9  1  0  0  0  0
 11 14  1  0  0  0  0
 12 39  1  1  0  0  0
 12  3  1  0  0  0  0
 14  8  2  0  0  0  0
 15 11  2  0  0  0  0
 15  1  1  0  0  0  0
 16  2  1  0  0  0  0
 17 13  1  1  0  0  0
 17 12  1  0  0  0  0
 17 10  1  0  0  0  0
 18 19  1  0  0  0  0
 18 20  1  0  0  0  0
 19 20  1  0  0  0  0
 19 12  1  0  0  0  0
 22 26  1  6  0  0  0
 23 24  1  6  0  0  0
 23 25  1  0  0  0  0
 23 22  1  0  0  0  0
 24 25  1  0  0  0  0
 25 22  1  0  0  0  0
 25 21  1  1  0  0  0
 26 27  1  6  0  0  0
 26 28  1  0  0  0  0
 28 30  1  0  0  0  0
 29 28  2  0  0  0  0
 32 34  1  0  0  0  0
 34 35  1  0  0  0  0
 35 33  1  0  0  0  0
 35 31  1  6  0  0  0
 37 30  1  6  0  0  0
 37 32  1  0  0  0  0
 37 38  1  0  0  0  0
 38 36  2  0  0  0  0
 38 33  1  0  0  0  0
 40 41  1  1  0  0  0
 40 39  1  0  0  0  0
 40 42  1  0  0  0  0
 42 43  1  0  0  0  0
 43 44  2  0  0  0  0
 45 43  1  0  0  0  0
 46 45  1  0  0  0  0
 47 46  1  0  0  0  0
 47 48  2  0  0  0  0
 49 47  1  0  0  0  0
 50 49  1  0  0  0  0
M  END
>  <MODEL>
8

>  <REMARK>
 VINA RESULT:      -3.6      3.804      9.636
  Name = 
  14 active torsions:
  status: ('A' for Active; 'I' for Inactive)
    1  A    between atoms: C_3  and  N_8
    2  A    between atoms: C_3  and  N_13
    3  A    between atoms: C_4  and  C_11
    4  A    between atoms: C_4  and  C_36
    5  A    between atoms: C_5  and  C_17
    6  A    between atoms: C_5  and  C_35
    7  A    between atoms: N_8  and  C_17
    8  A    between atoms: C_14  and  C_39
    9  A    between atoms: C_15  and  C_35
   10  A    between atoms: C_15  and  O_37
   11  A    between atoms: C_28  and  C_30
   12  A    between atoms: C_29  and  N_48
   13  A    between atoms: C_30  and  C_49
   14  A    between atoms: O_37  and  C_39
                            x       y       z     vdW  Elec       q    Type
                         _______ _______ _______ _____ _____    ______ ____

>  <TORSDO>
F 14

$$$$
=
 OpenBabel10222419043D

 50 56  0  0  1  0  0  0  0  0999 V2000
  188.4980  177.1060  141.4390 C   0  0  0  0  0  0  0  0  0  0  0  0
  189.5260  177.4060  138.8510 C   0  0  0  0  0  0  0  0  0  0  0  0
  190.0380  176.3740  136.6670 C   0  0  2  0  0  3  0  0  0  0  0  0
  188.3070  178.2790  139.1580 C   0  0  1  0  0  3  0  0  0  0  0  0
  190.0890  176.5900  139.7680 C   0  0  0  0  0  3  0  0  0  0  0  0
  191.0640  176.6160  135.5650 C   0  0  0  0  0  1  0  0  0  0  0  0
  189.5670  176.4590  141.1030 N   0  0  0  0  0  0  0  0  0  0  0  0
  187.9300  177.1470  142.7320 N   0  0  0  0  0  0  0  0  0  0  0  0
  187.2140  178.0580  138.0890 C   0  0  2  0  0  3  0  0  0  0  0  0
  187.7130  178.5470  136.7300 C   0  0  0  0  0  2  0  0  0  0  0  0
  186.9070  178.6330  141.2860 C   0  0  0  0  0  3  0  0  0  0  0  0
  188.5900  176.1080  136.1130 C   0  0  1  0  0  0  0  0  0  0  0  0
  188.6130  178.0450  134.5990 O   0  0  0  0  0  1  0  0  0  0  0  0
  186.9890  178.0410  142.6400 C   0  0  0  0  0  3  0  0  0  0  0  0
  187.8260  178.0110  140.5650 C   0  0  0  0  0  0  0  0  0  0  0  0
  190.0850  177.4710  137.5760 O   0  0  0  0  0  0  0  0  0  0  0  0
  187.9200  177.4590  135.6610 C   0  0  2  0  0  3  0  0  0  0  0  0
  190.1150  174.6030  134.7230 C   0  0  0  0  0  2  0  0  0  0  0  0
  188.6790  175.0540  134.9480 C   0  0  0  0  0  3  0  0  0  0  0  0
  189.1090  173.6380  135.3070 C   0  0  0  0  0  2  0  0  0  0  0  0
  185.9190  178.7870  138.4090 C   0  0  0  0  0  2  0  0  0  0  0  0
  183.4680  178.6460  137.9120 C   0  0  1  0  0  3  0  0  0  0  0  0
  183.7840  177.9850  139.2310 C   0  0  1  0  0  3  0  0  0  0  0  0
  184.6180  176.8650  139.0650 O   0  0  0  0  0  0  0  0  0  0  0  0
  184.7520  177.8770  138.1000 C   0  0  2  0  0  0  0  0  0  0  0  0
  182.5120  177.8000  137.0870 C   0  0  1  0  0  3  0  0  0  0  0  0
  182.2690  176.5850  137.7350 O   0  0  0  0  0  1  0  0  0  0  0  0
  181.2350  178.5450  136.8900 C   0  0  0  0  0  0  0  0  0  0  0  0
  180.2550  177.9590  136.3530 O   0  0  0  0  0  0  0  0  0  0  0  0
  181.1470  179.9270  137.2470 N   0  0  0  0  0  2  0  0  0  0  0  0
  181.5560  184.7930  137.2310 C   0  0  0  0  0  1  0  0  0  0  0  0
  179.6280  181.6240  138.1640 C   0  0  0  0  0  2  0  0  0  0  0  0
  180.6960  182.9540  135.8830 N   0  0  0  0  0  2  0  0  0  0  0  0
  180.6210  182.7670  138.3330 C   0  0  0  0  0  2  0  0  0  0  0  0
  180.5160  183.6930  137.1300 C   0  0  1  0  0  3  0  0  0  0  0  0
  180.2170  181.0740  134.5970 O   0  0  0  0  0  0  0  0  0  0  0  0
  179.9840  180.7540  136.9530 C   0  0  1  0  0  3  0  0  0  0  0  0
  180.2690  181.5950  135.7420 C   0  0  0  0  0  0  0  0  0  0  0  0
  187.7470  175.5600  137.1270 O   0  0  0  0  0  0  0  0  0  0  0  0
  186.6540  174.8500  136.5900 C   0  0  2  0  0  3  0  0  0  0  0  0
  185.6070  175.7130  136.3350 F   0  0  0  0  0  0  0  0  0  0  0  0
  186.2040  173.8130  137.6030 C   0  0  0  0  0  2  0  0  0  0  0  0
  185.6800  172.5850  136.9340 C   0  0  0  0  0  0  0  0  0  0  0  0
  186.4330  171.8980  136.2630 O   0  0  0  0  0  0  0  0  0  0  0  0
  184.2500  172.1820  137.0950 C   0  0  0  0  0  2  0  0  0  0  0  0
  183.3680  173.3120  136.8340 N   0  0  0  0  0  2  0  0  0  0  0  0
  182.4800  173.3600  135.7180 C   0  0  0  0  0  0  0  0  0  0  0  0
  182.7740  174.1600  134.6990 C   0  0  0  0  0  2  0  0  0  0  0  0
  181.2990  172.5510  135.7010 N   0  0  0  0  0  2  0  0  0  0  0  0
  180.4730  172.3100  136.8740 C   0  0  0  0  0  1  0  0  0  0  0  0
  1  8  1  0  0  0  0
  2  5  2  0  0  0  0
  3  6  1  6  0  0  0
  3 16  1  0  0  0  0
  4  2  1  6  0  0  0
  4 15  1  0  0  0  0
  5  7  1  0  0  0  0
  7  1  2  0  0  0  0
  9 21  1  1  0  0  0
  9  4  1  0  0  0  0
 10  9  1  0  0  0  0
 11 14  1  0  0  0  0
 12  3  1  0  0  0  0
 12 39  1  1  0  0  0
 14  8  2  0  0  0  0
 15 11  2  0  0  0  0
 15  1  1  0  0  0  0
 16  2  1  0  0  0  0
 17 13  1  6  0  0  0
 17 12  1  0  0  0  0
 17 10  1  0  0  0  0
 18 19  1  0  0  0  0
 18 20  1  0  0  0  0
 19 20  1  0  0  0  0
 19 12  1  0  0  0  0
 22 26  1  6  0  0  0
 22 25  1  0  0  0  0
 22 23  1  0  0  0  0
 23 24  1  6  0  0  0
 25 21  1  1  0  0  0
 25 24  1  0  0  0  0
 25 23  1  0  0  0  0
 26 27  1  1  0  0  0
 28 26  1  0  0  0  0
 28 30  1  0  0  0  0
 29 28  2  0  0  0  0
 32 34  1  0  0  0  0
 33 35  1  0  0  0  0
 35 31  1  1  0  0  0
 35 34  1  0  0  0  0
 36 38  2  0  0  0  0
 37 30  1  1  0  0  0
 37 32  1  0  0  0  0
 38 33  1  0  0  0  0
 38 37  1  0  0  0  0
 40 41  1  1  0  0  0
 40 39  1  0  0  0  0
 40 42  1  0  0  0  0
 43 45  1  0  0  0  0
 43 42  1  0  0  0  0
 44 43  2  0  0  0  0
 46 45  1  0  0  0  0
 47 46  1  0  0  0  0
 48 47  2  0  0  0  0
 49 47  1  0  0  0  0
 49 50  1  0  0  0  0
M  END
>  <MODEL>
9

>  <REMARK>
 VINA RESULT:      -3.5      3.638      6.196
  Name = 
  14 active torsions:
  status: ('A' for Active; 'I' for Inactive)
    1  A    between atoms: C_3  and  N_8
    2  A    between atoms: C_3  and  N_13
    3  A    between atoms: C_4  and  C_11
    4  A    between atoms: C_4  and  C_36
    5  A    between atoms: C_5  and  C_17
    6  A    between atoms: C_5  and  C_35
    7  A    between atoms: N_8  and  C_17
    8  A    between atoms: C_14  and  C_39
    9  A    between atoms: C_15  and  C_35
   10  A    between atoms: C_15  and  O_37
   11  A    between atoms: C_28  and  C_30
   12  A    between atoms: C_29  and  N_48
   13  A    between atoms: C_30  and  C_49
   14  A    between atoms: O_37  and  C_39
                            x       y       z     vdW  Elec       q    Type
                         _______ _______ _______ _____ _____    ______ ____

>  <TORSDO>
F 14

$$$$
