=
 OpenBabel10222421133D

 37 39  0  0  1  0  0  0  0  0999 V2000
  190.5360  177.6490  141.6020 C   0  0  2  0  0  3  0  0  0  0  0  0
  188.1530  178.2860  141.4660 C   0  0  0  0  0  1  0  0  0  0  0  0
  190.5580  176.8700  143.8950 C   0  0  2  0  0  3  0  0  0  0  0  0
  191.4490  177.1370  142.6970 C   0  0  0  0  0  2  0  0  0  0  0  0
  189.2230  177.5290  143.5710 C   0  0  1  0  0  3  0  0  0  0  0  0
  189.3670  178.2250  142.2820 N   0  0  0  0  0  0  0  0  0  0  0  0
  191.1320  177.4670  145.0500 O   0  0  0  0  0  0  0  0  0  0  0  0
  192.2060  176.4720  146.8360 O   0  0  0  0  0  0  0  0  0  0  0  0
  191.1260  176.8390  146.3000 C   0  0  0  0  0  0  0  0  0  0  0  0
  189.9240  176.6150  146.9730 O   0  0  0  0  0  0  0  0  0  0  0  0
  188.9260  178.6840  147.0620 F   0  0  0  0  0  0  0  0  0  0  0  0
  188.2080  177.0390  148.4220 F   0  0  0  0  0  0  0  0  0  0  0  0
  189.3180  177.5910  147.8140 C   0  0  0  0  0  0  0  0  0  0  0  0
  190.2130  177.9960  148.7890 F   0  0  0  0  0  0  0  0  0  0  0  0
  188.0520  176.5340  143.6680 C   0  0  0  0  0  2  0  0  0  0  0  0
  187.1350  176.7980  144.8570 C   0  0  0  0  0  2  0  0  0  0  0  0
  186.7710  178.2730  144.9270 C   0  0  0  0  0  2  0  0  0  0  0  0
  181.5230  178.5980  139.8520 F   0  0  0  0  0  0  0  0  0  0  0  0
  183.2420  178.4780  141.4990 C   0  0  0  0  0  3  0  0  0  0  0  0
  183.6370  178.5920  142.8330 C   0  0  0  0  0  0  0  0  0  0  0  0
  184.9620  178.3670  143.2050 C   0  0  0  0  0  3  0  0  0  0  0  0
  185.3380  178.4800  144.5450 C   0  0  0  0  0  0  0  0  0  0  0  0
  184.6780  178.9310  146.7210 O   0  0  0  0  0  0  0  0  0  0  0  0
  180.9730  179.0620  142.1250 C   0  0  0  0  0  3  0  0  0  0  0  0
  184.3680  178.8250  145.5050 C   0  0  0  0  0  0  0  0  0  0  0  0
  181.3650  179.1760  143.4630 C   0  0  0  0  0  3  0  0  0  0  0  0
  182.6950  178.9420  143.8220 C   0  0  0  0  0  0  0  0  0  0  0  0
  183.0810  179.0460  145.1210 N   0  0  0  0  0  2  0  0  0  0  0  0
  181.9090  178.7130  141.1450 C   0  0  0  0  0  0  0  0  0  0  0  0
  190.2040  176.4890  140.6580 C   0  0  0  0  0  2  0  0  0  0  0  0
  190.9940  175.4540  138.6600 O   0  0  0  0  0  1  0  0  0  0  0  0
  190.8630  176.6860  139.3050 C   0  0  1  0  0  3  0  0  0  0  0  0
  190.0030  177.6110  138.4630 C   0  0  0  0  0  2  0  0  0  0  0  0
  187.6170  178.9010  137.6170 O   0  0  0  0  0  0  0  0  0  0  0  0
  188.7830  176.9290  138.0660 N   0  0  0  0  0  2  0  0  0  0  0  0
  187.6170  177.6420  137.6560 C   0  0  0  0  0  0  0  0  0  0  0  0
  186.3930  176.8920  137.2730 C   0  0  0  0  0  1  0  0  0  0  0  0
  1 30  1  6  0  0  0
  1  6  1  0  0  0  0
  1  4  1  0  0  0  0
  2  6  1  0  0  0  0
  3  7  1  1  0  0  0
  4  3  1  0  0  0  0
  5 15  1  6  0  0  0
  5  3  1  0  0  0  0
  6  5  1  0  0  0  0
  7  9  1  0  0  0  0
  9  8  2  0  0  0  0
  9 10  1  0  0  0  0
 10 13  1  0  0  0  0
 11 13  1  0  0  0  0
 13 12  1  0  0  0  0
 13 14  1  0  0  0  0
 15 16  1  0  0  0  0
 16 17  1  0  0  0  0
 18 29  1  0  0  0  0
 19 20  1  0  0  0  0
 20 21  1  0  0  0  0
 20 27  2  0  0  0  0
 21 22  2  0  0  0  0
 22 17  1  0  0  0  0
 22 25  1  0  0  0  0
 24 26  2  0  0  0  0
 25 23  2  0  0  0  0
 26 27  1  0  0  0  0
 27 28  1  0  0  0  0
 28 25  1  0  0  0  0
 29 19  2  0  0  0  0
 29 24  1  0  0  0  0
 32 31  1  6  0  0  0
 32 30  1  0  0  0  0
 33 32  1  0  0  0  0
 34 36  2  0  0  0  0
 35 33  1  0  0  0  0
 36 35  1  0  0  0  0
 37 36  1  0  0  0  0
M  END
>  <MODEL>
1

>  <REMARK>
 VINA RESULT:      -9.1      0.000      0.000
  Name = 
  12 active torsions:
  status: ('A' for Active; 'I' for Inactive)
    1  A    between atoms: C_1  and  C_31
    2  A    between atoms: O_4  and  C_7
    3  A    between atoms: O_4  and  C_11
    4  A    between atoms: C_11  and  O_28
    5  A    between atoms: C_13  and  C_17
    6  A    between atoms: C_16  and  C_18
    7  A    between atoms: C_17  and  C_34
    8  A    between atoms: C_18  and  C_34
    9  A    between atoms: N_20  and  C_29
   10  A    between atoms: C_24  and  C_29
   11  A    between atoms: C_24  and  C_31
   12  A    between atoms: C_25  and  O_28
                            x       y       z     vdW  Elec       q    Type
                         _______ _______ _______ _____ _____    ______ ____

>  <TORSDO>
F 12

$$$$
=
 OpenBabel10222421133D

 37 39  0  0  1  0  0  0  0  0999 V2000
  189.2760  177.3100  138.3740 C   0  0  2  0  0  3  0  0  0  0  0  0
  187.5180  178.8500  137.5750 C   0  0  0  0  0  1  0  0  0  0  0  0
  188.7820  177.4180  140.7420 C   0  0  2  0  0  3  0  0  0  0  0  0
  189.7590  176.8450  139.7330 C   0  0  0  0  0  2  0  0  0  0  0  0
  187.9590  178.4490  139.9820 C   0  0  1  0  0  3  0  0  0  0  0  0
  188.4990  178.5340  138.6150 N   0  0  0  0  0  0  0  0  0  0  0  0
  189.5060  178.0460  141.7920 O   0  0  0  0  0  0  0  0  0  0  0  0
  190.1260  176.1400  142.9400 O   0  0  0  0  0  0  0  0  0  0  0  0
  190.3680  177.3390  142.6370 C   0  0  0  0  0  0  0  0  0  0  0  0
  191.5130  177.9510  143.1510 O   0  0  0  0  0  0  0  0  0  0  0  0
  192.4950  179.5960  144.4210 F   0  0  0  0  0  0  0  0  0  0  0  0
  190.2990  179.1620  144.6620 F   0  0  0  0  0  0  0  0  0  0  0  0
  191.5360  178.5990  144.4180 C   0  0  0  0  0  0  0  0  0  0  0  0
  191.8190  177.6810  145.4140 F   0  0  0  0  0  0  0  0  0  0  0  0
  186.4480  178.1720  140.0890 C   0  0  0  0  0  2  0  0  0  0  0  0
  185.7430  179.0700  141.0990 C   0  0  0  0  0  2  0  0  0  0  0  0
  184.8440  178.2440  142.0050 C   0  0  0  0  0  2  0  0  0  0  0  0
  189.6290  176.8070  147.3370 F   0  0  0  0  0  0  0  0  0  0  0  0
  188.0820  177.2790  145.5860 C   0  0  0  0  0  3  0  0  0  0  0  0
  186.8810  177.8540  145.1680 C   0  0  0  0  0  0  0  0  0  0  0  0
  186.4820  177.7780  143.8340 C   0  0  0  0  0  3  0  0  0  0  0  0
  185.2790  178.3650  143.4320 C   0  0  0  0  0  0  0  0  0  0  0  0
  183.3960  179.5650  144.0520 O   0  0  0  0  0  0  0  0  0  0  0  0
  187.6420  178.0180  147.8530 C   0  0  0  0  0  3  0  0  0  0  0  0
  184.4830  179.0240  144.3870 C   0  0  0  0  0  0  0  0  0  0  0  0
  186.4380  178.5970  147.4380 C   0  0  0  0  0  3  0  0  0  0  0  0
  186.0530  178.5180  146.0970 C   0  0  0  0  0  0  0  0  0  0  0  0
  184.8870  179.0830  145.6850 N   0  0  0  0  0  2  0  0  0  0  0  0
  188.4620  177.3610  146.9300 C   0  0  0  0  0  0  0  0  0  0  0  0
  188.4760  176.1770  137.7240 C   0  0  0  0  0  2  0  0  0  0  0  0
  190.3210  176.3580  136.2240 O   0  0  0  0  0  1  0  0  0  0  0  0
  189.2750  175.5180  136.6130 C   0  0  1  0  0  3  0  0  0  0  0  0
  189.8410  174.2040  137.1190 C   0  0  0  0  0  2  0  0  0  0  0  0
  192.1360  172.9860  135.9680 O   0  0  0  0  0  0  0  0  0  0  0  0
  191.2050  174.3960  137.5800 N   0  0  0  0  0  2  0  0  0  0  0  0
  192.3120  173.7460  136.9560 C   0  0  0  0  0  0  0  0  0  0  0  0
  193.6850  173.9690  137.4790 C   0  0  0  0  0  1  0  0  0  0  0  0
  1 30  1  1  0  0  0
  1  6  1  0  0  0  0
  1  4  1  0  0  0  0
  2  6  1  0  0  0  0
  3  7  1  1  0  0  0
  4  3  1  0  0  0  0
  5 15  1  6  0  0  0
  5  3  1  0  0  0  0
  6  5  1  0  0  0  0
  7  9  1  0  0  0  0
  9  8  2  0  0  0  0
  9 10  1  0  0  0  0
 10 13  1  0  0  0  0
 13 11  1  0  0  0  0
 13 12  1  0  0  0  0
 13 14  1  0  0  0  0
 15 16  1  0  0  0  0
 16 17  1  0  0  0  0
 17 22  1  0  0  0  0
 19 29  1  0  0  0  0
 20 19  2  0  0  0  0
 20 27  1  0  0  0  0
 21 20  1  0  0  0  0
 22 21  2  0  0  0  0
 22 25  1  0  0  0  0
 23 25  2  0  0  0  0
 25 28  1  0  0  0  0
 26 24  1  0  0  0  0
 27 26  2  0  0  0  0
 28 27  1  0  0  0  0
 29 18  1  0  0  0  0
 29 24  2  0  0  0  0
 32 31  1  1  0  0  0
 32 33  1  0  0  0  0
 32 30  1  0  0  0  0
 33 35  1  0  0  0  0
 34 36  2  0  0  0  0
 36 37  1  0  0  0  0
 36 35  1  0  0  0  0
M  END
>  <MODEL>
2

>  <REMARK>
 VINA RESULT:      -8.5      2.752      4.948
  Name = 
  12 active torsions:
  status: ('A' for Active; 'I' for Inactive)
    1  A    between atoms: C_1  and  C_31
    2  A    between atoms: O_4  and  C_7
    3  A    between atoms: O_4  and  C_11
    4  A    between atoms: C_11  and  O_28
    5  A    between atoms: C_13  and  C_17
    6  A    between atoms: C_16  and  C_18
    7  A    between atoms: C_17  and  C_34
    8  A    between atoms: C_18  and  C_34
    9  A    between atoms: N_20  and  C_29
   10  A    between atoms: C_24  and  C_29
   11  A    between atoms: C_24  and  C_31
   12  A    between atoms: C_25  and  O_28
                            x       y       z     vdW  Elec       q    Type
                         _______ _______ _______ _____ _____    ______ ____

>  <TORSDO>
F 12

$$$$
=
 OpenBabel10222421133D

 37 39  0  0  1  0  0  0  0  0999 V2000
  183.6480  178.1880  138.3420 C   0  0  2  0  0  3  0  0  0  0  0  0
  182.1780  179.2270  140.0350 C   0  0  0  0  0  1  0  0  0  0  0  0
  185.6970  178.1580  139.6320 C   0  0  2  0  0  3  0  0  0  0  0  0
  185.1240  177.8580  138.2590 C   0  0  0  0  0  2  0  0  0  0  0  0
  184.6200  178.9450  140.3660 C   0  0  1  0  0  3  0  0  0  0  0  0
  183.5090  179.1700  139.4260 N   0  0  0  0  0  0  0  0  0  0  0  0
  186.8700  178.9470  139.4900 O   0  0  0  0  0  0  0  0  0  0  0  0
  188.9170  178.8490  138.4250 O   0  0  0  0  0  0  0  0  0  0  0  0
  188.1360  178.3830  139.2970 C   0  0  0  0  0  0  0  0  0  0  0  0
  188.5520  177.2990  140.0710 O   0  0  0  0  0  0  0  0  0  0  0  0
  188.5280  176.4240  142.1970 F   0  0  0  0  0  0  0  0  0  0  0  0
  190.4080  177.3780  141.4030 F   0  0  0  0  0  0  0  0  0  0  0  0
  189.0280  177.4430  141.4050 C   0  0  0  0  0  0  0  0  0  0  0  0
  188.6340  178.6660  141.9190 F   0  0  0  0  0  0  0  0  0  0  0  0
  184.2410  178.2890  141.7070 C   0  0  0  0  0  2  0  0  0  0  0  0
  185.3800  178.2890  142.7200 C   0  0  0  0  0  2  0  0  0  0  0  0
  184.8300  178.3700  144.1350 C   0  0  0  0  0  2  0  0  0  0  0  0
  191.7640  176.7090  145.7350 F   0  0  0  0  0  0  0  0  0  0  0  0
  189.5080  177.2610  145.1980 C   0  0  0  0  0  3  0  0  0  0  0  0
  188.2220  177.6010  145.6210 C   0  0  0  0  0  0  0  0  0  0  0  0
  187.2040  177.8240  144.6950 C   0  0  0  0  0  3  0  0  0  0  0  0
  185.9240  178.1700  145.1370 C   0  0  0  0  0  0  0  0  0  0  0  0
  184.5380  178.5980  146.9440 O   0  0  0  0  0  0  0  0  0  0  0  0
  190.2350  177.1510  147.5090 C   0  0  0  0  0  3  0  0  0  0  0  0
  185.6810  178.2850  146.5180 C   0  0  0  0  0  0  0  0  0  0  0  0
  188.9480  177.4940  147.9370 C   0  0  0  0  0  3  0  0  0  0  0  0
  187.9390  177.7200  146.9980 C   0  0  0  0  0  0  0  0  0  0  0  0
  186.6870  178.0590  147.4070 N   0  0  0  0  0  2  0  0  0  0  0  0
  190.5150  177.0360  146.1430 C   0  0  0  0  0  0  0  0  0  0  0  0
  182.8670  176.8890  138.5690 C   0  0  0  0  0  2  0  0  0  0  0  0
  181.6470  177.7150  136.6950 O   0  0  0  0  0  1  0  0  0  0  0  0
  182.0260  176.5440  137.3530 C   0  0  1  0  0  3  0  0  0  0  0  0
  182.8420  175.6750  136.4150 C   0  0  0  0  0  2  0  0  0  0  0  0
  185.5380  174.7780  136.3520 O   0  0  0  0  0  0  0  0  0  0  0  0
  183.3520  174.5160  137.1290 N   0  0  0  0  0  2  0  0  0  0  0  0
  184.7200  174.1200  137.0460 C   0  0  0  0  0  0  0  0  0  0  0  0
  185.1830  172.9180  137.7880 C   0  0  0  0  0  1  0  0  0  0  0  0
  1 30  1  1  0  0  0
  1  6  1  0  0  0  0
  3  7  1  6  0  0  0
  3  5  1  0  0  0  0
  4  1  1  0  0  0  0
  4  3  1  0  0  0  0
  5 15  1  1  0  0  0
  6  2  1  0  0  0  0
  6  5  1  0  0  0  0
  8  9  2  0  0  0  0
  9  7  1  0  0  0  0
  9 10  1  0  0  0  0
 10 13  1  0  0  0  0
 12 13  1  0  0  0  0
 13 14  1  0  0  0  0
 13 11  1  0  0  0  0
 15 16  1  0  0  0  0
 16 17  1  0  0  0  0
 17 22  1  0  0  0  0
 18 29  1  0  0  0  0
 19 20  2  0  0  0  0
 19 29  1  0  0  0  0
 20 27  1  0  0  0  0
 21 22  2  0  0  0  0
 21 20  1  0  0  0  0
 22 25  1  0  0  0  0
 24 26  1  0  0  0  0
 25 23  2  0  0  0  0
 25 28  1  0  0  0  0
 27 28  1  0  0  0  0
 27 26  2  0  0  0  0
 29 24  2  0  0  0  0
 32 31  1  6  0  0  0
 32 30  1  0  0  0  0
 33 35  1  0  0  0  0
 33 32  1  0  0  0  0
 34 36  2  0  0  0  0
 36 35  1  0  0  0  0
 36 37  1  0  0  0  0
M  END
>  <MODEL>
3

>  <REMARK>
 VINA RESULT:      -8.4      3.303      6.834
  Name = 
  12 active torsions:
  status: ('A' for Active; 'I' for Inactive)
    1  A    between atoms: C_1  and  C_31
    2  A    between atoms: O_4  and  C_7
    3  A    between atoms: O_4  and  C_11
    4  A    between atoms: C_11  and  O_28
    5  A    between atoms: C_13  and  C_17
    6  A    between atoms: C_16  and  C_18
    7  A    between atoms: C_17  and  C_34
    8  A    between atoms: C_18  and  C_34
    9  A    between atoms: N_20  and  C_29
   10  A    between atoms: C_24  and  C_29
   11  A    between atoms: C_24  and  C_31
   12  A    between atoms: C_25  and  O_28
                            x       y       z     vdW  Elec       q    Type
                         _______ _______ _______ _____ _____    ______ ____

>  <TORSDO>
F 12

$$$$
=
 OpenBabel10222421133D

 37 39  0  0  1  0  0  0  0  0999 V2000
  189.6600  177.5500  139.2090 C   0  0  2  0  0  3  0  0  0  0  0  0
  187.6680  178.6350  138.2310 C   0  0  0  0  0  1  0  0  0  0  0  0
  189.1290  177.8920  141.5470 C   0  0  2  0  0  3  0  0  0  0  0  0
  190.2030  177.3670  140.6120 C   0  0  0  0  0  2  0  0  0  0  0  0
  188.1470  178.6490  140.6640 C   0  0  1  0  0  3  0  0  0  0  0  0
  188.6780  178.6400  139.2910 N   0  0  0  0  0  0  0  0  0  0  0  0
  189.7200  178.7740  142.4920 O   0  0  0  0  0  0  0  0  0  0  0  0
  191.5980  179.0830  143.8000 O   0  0  0  0  0  0  0  0  0  0  0  0
  190.6420  178.3400  143.4500 C   0  0  0  0  0  0  0  0  0  0  0  0
  190.5140  177.0790  144.0340 O   0  0  0  0  0  0  0  0  0  0  0  0
  190.6920  174.9530  143.1790 F   0  0  0  0  0  0  0  0  0  0  0  0
  192.3580  176.4310  142.8500 F   0  0  0  0  0  0  0  0  0  0  0  0
  191.3970  176.0010  143.7430 C   0  0  0  0  0  0  0  0  0  0  0  0
  192.0180  175.5720  144.9030 F   0  0  0  0  0  0  0  0  0  0  0  0
  186.7060  178.1290  140.8280 C   0  0  0  0  0  2  0  0  0  0  0  0
  185.8380  179.0290  141.7000 C   0  0  0  0  0  2  0  0  0  0  0  0
  184.9750  178.1920  142.6300 C   0  0  0  0  0  2  0  0  0  0  0  0
  189.9660  176.8980  147.8070 F   0  0  0  0  0  0  0  0  0  0  0  0
  188.3520  177.3230  146.1060 C   0  0  0  0  0  3  0  0  0  0  0  0
  187.1180  177.8550  145.7280 C   0  0  0  0  0  0  0  0  0  0  0  0
  186.6830  177.7750  144.4060 C   0  0  0  0  0  3  0  0  0  0  0  0
  185.4480  178.3190  144.0440 C   0  0  0  0  0  0  0  0  0  0  0  0
  183.5400  179.4420  144.7300 O   0  0  0  0  0  0  0  0  0  0  0  0
  187.9510  178.0290  148.3910 C   0  0  0  0  0  3  0  0  0  0  0  0
  184.6560  178.9400  145.0270 C   0  0  0  0  0  0  0  0  0  0  0  0
  186.7150  178.5650  148.0160 C   0  0  0  0  0  3  0  0  0  0  0  0
  186.2940  178.4810  146.6870 C   0  0  0  0  0  0  0  0  0  0  0  0
  185.0960  179.0050  146.3140 N   0  0  0  0  0  2  0  0  0  0  0  0
  188.7680  177.4100  147.4390 C   0  0  0  0  0  0  0  0  0  0  0  0
  189.0790  176.2160  138.7300 C   0  0  0  0  0  2  0  0  0  0  0  0
  190.5920  174.5390  137.9660 O   0  0  0  0  0  1  0  0  0  0  0  0
  189.8770  175.6670  137.5600 C   0  0  1  0  0  3  0  0  0  0  0  0
  188.9230  175.2890  136.4420 C   0  0  0  0  0  2  0  0  0  0  0  0
  186.1240  175.2700  136.9380 O   0  0  0  0  0  0  0  0  0  0  0  0
  188.1520  174.1170  136.8230 N   0  0  0  0  0  2  0  0  0  0  0  0
  186.7460  174.1830  137.0620 C   0  0  0  0  0  0  0  0  0  0  0  0
  186.0110  172.9550  137.4620 C   0  0  0  0  0  1  0  0  0  0  0  0
  1 30  1  1  0  0  0
  1  6  1  0  0  0  0
  1  4  1  0  0  0  0
  2  6  1  0  0  0  0
  3  7  1  1  0  0  0
  4  3  1  0  0  0  0
  5 15  1  6  0  0  0
  5  3  1  0  0  0  0
  6  5  1  0  0  0  0
  7  9  1  0  0  0  0
  9  8  2  0  0  0  0
  9 10  1  0  0  0  0
 11 13  1  0  0  0  0
 12 13  1  0  0  0  0
 13 10  1  0  0  0  0
 13 14  1  0  0  0  0
 15 16  1  0  0  0  0
 16 17  1  0  0  0  0
 17 22  1  0  0  0  0
 19 29  1  0  0  0  0
 20 19  2  0  0  0  0
 20 27  1  0  0  0  0
 21 20  1  0  0  0  0
 22 21  2  0  0  0  0
 22 25  1  0  0  0  0
 23 25  2  0  0  0  0
 25 28  1  0  0  0  0
 26 24  1  0  0  0  0
 27 26  2  0  0  0  0
 28 27  1  0  0  0  0
 29 18  1  0  0  0  0
 29 24  2  0  0  0  0
 32 31  1  1  0  0  0
 32 30  1  0  0  0  0
 33 35  1  0  0  0  0
 33 32  1  0  0  0  0
 34 36  2  0  0  0  0
 35 36  1  0  0  0  0
 36 37  1  0  0  0  0
M  END
>  <MODEL>
4

>  <REMARK>
 VINA RESULT:      -8.3      2.705      4.689
  Name = 
  12 active torsions:
  status: ('A' for Active; 'I' for Inactive)
    1  A    between atoms: C_1  and  C_31
    2  A    between atoms: O_4  and  C_7
    3  A    between atoms: O_4  and  C_11
    4  A    between atoms: C_11  and  O_28
    5  A    between atoms: C_13  and  C_17
    6  A    between atoms: C_16  and  C_18
    7  A    between atoms: C_17  and  C_34
    8  A    between atoms: C_18  and  C_34
    9  A    between atoms: N_20  and  C_29
   10  A    between atoms: C_24  and  C_29
   11  A    between atoms: C_24  and  C_31
   12  A    between atoms: C_25  and  O_28
                            x       y       z     vdW  Elec       q    Type
                         _______ _______ _______ _____ _____    ______ ____

>  <TORSDO>
F 12

$$$$
=
 OpenBabel10222421133D

 37 39  0  0  1  0  0  0  0  0999 V2000
  182.5300  178.9000  139.7140 C   0  0  2  0  0  3  0  0  0  0  0  0
  184.2530  177.7550  138.3640 C   0  0  0  0  0  1  0  0  0  0  0  0
  183.7090  178.9290  141.8300 C   0  0  2  0  0  3  0  0  0  0  0  0
  182.3830  179.2700  141.1760 C   0  0  0  0  0  2  0  0  0  0  0  0
  184.4650  178.0850  140.8130 C   0  0  1  0  0  3  0  0  0  0  0  0
  183.5770  177.8710  139.6580 N   0  0  0  0  0  0  0  0  0  0  0  0
  183.4700  178.1760  143.0110 O   0  0  0  0  0  0  0  0  0  0  0  0
  181.6490  178.6640  144.3460 O   0  0  0  0  0  0  0  0  0  0  0  0
  182.8930  178.7370  144.1550 C   0  0  0  0  0  0  0  0  0  0  0  0
  183.6880  179.3820  145.1040 O   0  0  0  0  0  0  0  0  0  0  0  0
  184.4180  178.1500  146.9030 F   0  0  0  0  0  0  0  0  0  0  0  0
  185.3220  177.8000  144.8700 F   0  0  0  0  0  0  0  0  0  0  0  0
  184.8080  178.7580  145.7230 C   0  0  0  0  0  0  0  0  0  0  0  0
  185.7880  179.6990  145.9870 F   0  0  0  0  0  0  0  0  0  0  0  0
  185.8510  178.6750  140.4920 C   0  0  0  0  0  2  0  0  0  0  0  0
  186.7810  178.7160  141.6980 C   0  0  0  0  0  2  0  0  0  0  0  0
  188.1610  178.2010  141.3220 C   0  0  0  0  0  2  0  0  0  0  0  0
  188.5550  177.2720  148.5590 F   0  0  0  0  0  0  0  0  0  0  0  0
  188.4100  177.5680  146.1980 C   0  0  0  0  0  3  0  0  0  0  0  0
  189.0210  177.5340  144.9440 C   0  0  0  0  0  0  0  0  0  0  0  0
  188.3040  177.8590  143.7930 C   0  0  0  0  0  3  0  0  0  0  0  0
  188.9310  177.8130  142.5450 C   0  0  0  0  0  0  0  0  0  0  0  0
  190.8750  177.3880  141.3580 O   0  0  0  0  0  0  0  0  0  0  0  0
  190.4950  176.8850  147.2290 C   0  0  0  0  0  3  0  0  0  0  0  0
  190.2850  177.4400  142.4700 C   0  0  0  0  0  0  0  0  0  0  0  0
  191.1110  176.8470  145.9740 C   0  0  0  0  0  3  0  0  0  0  0  0
  190.3790  177.1710  144.8290 C   0  0  0  0  0  0  0  0  0  0  0  0
  190.9700  177.1310  143.6050 N   0  0  0  0  0  2  0  0  0  0  0  0
  189.1470  177.2440  147.3410 C   0  0  0  0  0  0  0  0  0  0  0  0
  182.8540  180.1690  138.9180 C   0  0  0  0  0  2  0  0  0  0  0  0
  180.5500  179.8220  138.4090 O   0  0  0  0  0  1  0  0  0  0  0  0
  181.6610  180.6040  138.0850 C   0  0  1  0  0  3  0  0  0  0  0  0
  181.3580  182.0620  138.3760 C   0  0  0  0  0  2  0  0  0  0  0  0
  182.1880  184.6480  137.5370 O   0  0  0  0  0  0  0  0  0  0  0  0
  180.9120  182.7280  137.1630 N   0  0  0  0  0  2  0  0  0  0  0  0
  181.3680  184.0320  136.8070 C   0  0  0  0  0  0  0  0  0  0  0  0
  180.8680  184.6700  135.5610 C   0  0  0  0  0  1  0  0  0  0  0  0
  1 30  1  6  0  0  0
  1  4  1  0  0  0  0
  2  6  1  0  0  0  0
  3  7  1  1  0  0  0
  4  3  1  0  0  0  0
  5 15  1  6  0  0  0
  5  3  1  0  0  0  0
  6  1  1  0  0  0  0
  6  5  1  0  0  0  0
  7  9  1  0  0  0  0
  9  8  2  0  0  0  0
  9 10  1  0  0  0  0
 10 13  1  0  0  0  0
 12 13  1  0  0  0  0
 13 14  1  0  0  0  0
 13 11  1  0  0  0  0
 15 16  1  0  0  0  0
 17 16  1  0  0  0  0
 17 22  1  0  0  0  0
 19 29  1  0  0  0  0
 20 19  2  0  0  0  0
 21 20  1  0  0  0  0
 22 21  2  0  0  0  0
 23 25  2  0  0  0  0
 24 29  2  0  0  0  0
 25 22  1  0  0  0  0
 25 28  1  0  0  0  0
 26 24  1  0  0  0  0
 27 20  1  0  0  0  0
 27 26  2  0  0  0  0
 28 27  1  0  0  0  0
 29 18  1  0  0  0  0
 32 33  1  0  0  0  0
 32 31  1  1  0  0  0
 32 30  1  0  0  0  0
 35 33  1  0  0  0  0
 36 35  1  0  0  0  0
 36 34  2  0  0  0  0
 37 36  1  0  0  0  0
M  END
>  <MODEL>
5

>  <REMARK>
 VINA RESULT:      -8.2      3.725      7.894
  Name = 
  12 active torsions:
  status: ('A' for Active; 'I' for Inactive)
    1  A    between atoms: C_1  and  C_31
    2  A    between atoms: O_4  and  C_7
    3  A    between atoms: O_4  and  C_11
    4  A    between atoms: C_11  and  O_28
    5  A    between atoms: C_13  and  C_17
    6  A    between atoms: C_16  and  C_18
    7  A    between atoms: C_17  and  C_34
    8  A    between atoms: C_18  and  C_34
    9  A    between atoms: N_20  and  C_29
   10  A    between atoms: C_24  and  C_29
   11  A    between atoms: C_24  and  C_31
   12  A    between atoms: C_25  and  O_28
                            x       y       z     vdW  Elec       q    Type
                         _______ _______ _______ _____ _____    ______ ____

>  <TORSDO>
F 12

$$$$
=
 OpenBabel10222421133D

 37 39  0  0  1  0  0  0  0  0999 V2000
  190.5510  177.2310  138.5850 C   0  0  2  0  0  3  0  0  0  0  0  0
  188.3920  178.4190  138.4200 C   0  0  0  0  0  1  0  0  0  0  0  0
  190.7430  177.1920  140.9990 C   0  0  2  0  0  3  0  0  0  0  0  0
  191.4770  176.8400  139.7190 C   0  0  0  0  0  2  0  0  0  0  0  0
  189.5660  178.0610  140.5750 C   0  0  1  0  0  3  0  0  0  0  0  0
  189.6690  178.2760  139.1220 N   0  0  0  0  0  0  0  0  0  0  0  0
  191.6110  177.9260  141.8520 O   0  0  0  0  0  0  0  0  0  0  0  0
  190.5220  179.1080  143.5110 O   0  0  0  0  0  0  0  0  0  0  0  0
  191.3090  178.1760  143.1950 C   0  0  0  0  0  0  0  0  0  0  0  0
  191.8720  177.3910  144.2040 O   0  0  0  0  0  0  0  0  0  0  0  0
  190.2540  175.7750  143.9750 F   0  0  0  0  0  0  0  0  0  0  0  0
  192.4130  175.2540  143.6020 F   0  0  0  0  0  0  0  0  0  0  0  0
  191.5570  176.0140  144.3740 C   0  0  0  0  0  0  0  0  0  0  0  0
  191.7080  175.6550  145.7020 F   0  0  0  0  0  0  0  0  0  0  0  0
  188.2240  177.4950  141.0740 C   0  0  0  0  0  2  0  0  0  0  0  0
  187.3350  178.5470  141.7280 C   0  0  0  0  0  2  0  0  0  0  0  0
  186.2110  177.8810  142.5060 C   0  0  0  0  0  2  0  0  0  0  0  0
  190.5610  177.4700  148.3630 F   0  0  0  0  0  0  0  0  0  0  0  0
  189.1560  177.6110  146.4420 C   0  0  0  0  0  3  0  0  0  0  0  0
  187.9000  177.8660  145.8900 C   0  0  0  0  0  0  0  0  0  0  0  0
  187.6930  177.7650  144.5150 C   0  0  0  0  0  3  0  0  0  0  0  0
  186.4300  178.0300  143.9790 C   0  0  0  0  0  0  0  0  0  0  0  0
  184.2320  178.6400  144.3860 O   0  0  0  0  0  0  0  0  0  0  0  0
  188.2720  178.0690  148.6540 C   0  0  0  0  0  3  0  0  0  0  0  0
  185.3800  178.3930  144.8420 C   0  0  0  0  0  0  0  0  0  0  0  0
  187.0130  178.3270  148.1040 C   0  0  0  0  0  3  0  0  0  0  0  0
  186.8210  178.2270  146.7240 C   0  0  0  0  0  0  0  0  0  0  0  0
  185.6000  178.4820  146.1820 N   0  0  0  0  0  2  0  0  0  0  0  0
  189.3420  177.7130  147.8250 C   0  0  0  0  0  0  0  0  0  0  0  0
  189.8160  175.9780  138.0990 C   0  0  0  0  0  2  0  0  0  0  0  0
  190.1170  173.6890  137.5020 O   0  0  0  0  0  1  0  0  0  0  0  0
  190.8000  174.8890  137.7120 C   0  0  1  0  0  3  0  0  0  0  0  0
  191.5150  175.2950  136.4370 C   0  0  0  0  0  2  0  0  0  0  0  0
  193.8880  176.6780  137.1700 O   0  0  0  0  0  0  0  0  0  0  0  0
  192.8530  174.7260  136.4140 N   0  0  0  0  0  2  0  0  0  0  0  0
  194.0020  175.4830  136.7910 C   0  0  0  0  0  0  0  0  0  0  0  0
  195.3470  174.8520  136.7360 C   0  0  0  0  0  1  0  0  0  0  0  0
  1 30  1  1  0  0  0
  1  6  1  0  0  0  0
  1  4  1  0  0  0  0
  2  6  1  0  0  0  0
  3  7  1  1  0  0  0
  4  3  1  0  0  0  0
  5  3  1  0  0  0  0
  5 15  1  6  0  0  0
  6  5  1  0  0  0  0
  7  9  1  0  0  0  0
  9  8  2  0  0  0  0
  9 10  1  0  0  0  0
 10 13  1  0  0  0  0
 11 13  1  0  0  0  0
 12 13  1  0  0  0  0
 13 14  1  0  0  0  0
 15 16  1  0  0  0  0
 16 17  1  0  0  0  0
 17 22  1  0  0  0  0
 19 29  1  0  0  0  0
 20 19  2  0  0  0  0
 20 27  1  0  0  0  0
 21 20  1  0  0  0  0
 22 21  2  0  0  0  0
 22 25  1  0  0  0  0
 23 25  2  0  0  0  0
 25 28  1  0  0  0  0
 26 24  1  0  0  0  0
 27 26  2  0  0  0  0
 28 27  1  0  0  0  0
 29 18  1  0  0  0  0
 29 24  2  0  0  0  0
 32 31  1  6  0  0  0
 32 30  1  0  0  0  0
 33 32  1  0  0  0  0
 35 33  1  0  0  0  0
 35 36  1  0  0  0  0
 36 34  2  0  0  0  0
 37 36  1  0  0  0  0
M  END
>  <MODEL>
6

>  <REMARK>
 VINA RESULT:      -8.2      2.968      5.238
  Name = 
  12 active torsions:
  status: ('A' for Active; 'I' for Inactive)
    1  A    between atoms: C_1  and  C_31
    2  A    between atoms: O_4  and  C_7
    3  A    between atoms: O_4  and  C_11
    4  A    between atoms: C_11  and  O_28
    5  A    between atoms: C_13  and  C_17
    6  A    between atoms: C_16  and  C_18
    7  A    between atoms: C_17  and  C_34
    8  A    between atoms: C_18  and  C_34
    9  A    between atoms: N_20  and  C_29
   10  A    between atoms: C_24  and  C_29
   11  A    between atoms: C_24  and  C_31
   12  A    between atoms: C_25  and  O_28
                            x       y       z     vdW  Elec       q    Type
                         _______ _______ _______ _____ _____    ______ ____

>  <TORSDO>
F 12

$$$$
=
 OpenBabel10222421133D

 37 39  0  0  1  0  0  0  0  0999 V2000
  182.2160  177.6650  138.5630 C   0  0  2  0  0  3  0  0  0  0  0  0
  181.9180  179.9850  139.3550 C   0  0  0  0  0  1  0  0  0  0  0  0
  184.6320  177.5590  138.6960 C   0  0  2  0  0  3  0  0  0  0  0  0
  183.4080  176.7800  138.2550 C   0  0  0  0  0  2  0  0  0  0  0  0
  184.1490  178.9810  138.9460 C   0  0  1  0  0  3  0  0  0  0  0  0
  182.7250  179.0430  138.5770 N   0  0  0  0  0  0  0  0  0  0  0  0
  185.5990  177.5460  137.6550 O   0  0  0  0  0  0  0  0  0  0  0  0
  187.8330  177.2970  137.1250 O   0  0  0  0  0  0  0  0  0  0  0  0
  186.9570  177.7860  137.8880 C   0  0  0  0  0  0  0  0  0  0  0  0
  187.3600  178.5760  138.9660 O   0  0  0  0  0  0  0  0  0  0  0  0
  188.5110  176.8960  140.0320 F   0  0  0  0  0  0  0  0  0  0  0  0
  189.6400  178.6140  139.1120 F   0  0  0  0  0  0  0  0  0  0  0  0
  188.4840  178.2560  139.7780 C   0  0  0  0  0  0  0  0  0  0  0  0
  188.4180  178.9500  140.9730 F   0  0  0  0  0  0  0  0  0  0  0  0
  184.4930  179.4650  140.3670 C   0  0  0  0  0  2  0  0  0  0  0  0
  184.6450  178.3270  141.3690 C   0  0  0  0  0  2  0  0  0  0  0  0
  183.8330  178.6130  142.6220 C   0  0  0  0  0  2  0  0  0  0  0  0
  190.1260  176.7450  145.8320 F   0  0  0  0  0  0  0  0  0  0  0  0
  188.0830  177.3610  144.7710 C   0  0  0  0  0  3  0  0  0  0  0  0
  186.7870  177.8720  144.8650 C   0  0  0  0  0  0  0  0  0  0  0  0
  185.9870  177.9980  143.7300 C   0  0  0  0  0  3  0  0  0  0  0  0
  184.6960  178.5190  143.8420 C   0  0  0  0  0  0  0  0  0  0  0  0
  183.0590  179.3820  145.2380 O   0  0  0  0  0  0  0  0  0  0  0  0
  188.3580  177.6270  147.1650 C   0  0  0  0  0  3  0  0  0  0  0  0
  184.2190  178.9070  145.1070 C   0  0  0  0  0  0  0  0  0  0  0  0
  187.0610  178.1420  147.2630 C   0  0  0  0  0  3  0  0  0  0  0  0
  186.2720  178.2670  146.1170 C   0  0  0  0  0  0  0  0  0  0  0  0
  185.0130  178.7720  146.2050 N   0  0  0  0  0  2  0  0  0  0  0  0
  188.8680  177.2380  145.9220 C   0  0  0  0  0  0  0  0  0  0  0  0
  181.5990  177.2100  139.8900 C   0  0  0  0  0  2  0  0  0  0  0  0
  179.9390  175.5290  140.2090 O   0  0  0  0  0  1  0  0  0  0  0  0
  180.1450  176.8130  139.7020 C   0  0  1  0  0  3  0  0  0  0  0  0
  179.2610  177.8000  140.4420 C   0  0  0  0  0  2  0  0  0  0  0  0
  180.3080  179.6530  142.3250 O   0  0  0  0  0  0  0  0  0  0  0  0
  179.3520  177.5700  141.8740 N   0  0  0  0  0  2  0  0  0  0  0  0
  179.8960  178.5460  142.7620 C   0  0  0  0  0  0  0  0  0  0  0  0
  179.9760  178.2520  144.2170 C   0  0  0  0  0  1  0  0  0  0  0  0
  1  6  1  0  0  0  0
  1 30  1  1  0  0  0
  3  7  1  6  0  0  0
  3  5  1  0  0  0  0
  4  1  1  0  0  0  0
  4  3  1  0  0  0  0
  5 15  1  1  0  0  0
  6  5  1  0  0  0  0
  6  2  1  0  0  0  0
  7  9  1  0  0  0  0
  8  9  2  0  0  0  0
  9 10  1  0  0  0  0
 10 13  1  0  0  0  0
 12 13  1  0  0  0  0
 13 11  1  0  0  0  0
 13 14  1  0  0  0  0
 15 16  1  0  0  0  0
 16 17  1  0  0  0  0
 17 22  1  0  0  0  0
 18 29  1  0  0  0  0
 19 20  2  0  0  0  0
 19 29  1  0  0  0  0
 20 27  1  0  0  0  0
 21 22  2  0  0  0  0
 21 20  1  0  0  0  0
 22 25  1  0  0  0  0
 24 26  1  0  0  0  0
 25 23  2  0  0  0  0
 25 28  1  0  0  0  0
 27 28  1  0  0  0  0
 27 26  2  0  0  0  0
 29 24  2  0  0  0  0
 32 30  1  0  0  0  0
 32 31  1  1  0  0  0
 32 33  1  0  0  0  0
 33 35  1  0  0  0  0
 34 36  2  0  0  0  0
 35 36  1  0  0  0  0
 36 37  1  0  0  0  0
M  END
>  <MODEL>
7

>  <REMARK>
 VINA RESULT:      -8.1      3.539      7.840
  Name = 
  12 active torsions:
  status: ('A' for Active; 'I' for Inactive)
    1  A    between atoms: C_1  and  C_31
    2  A    between atoms: O_4  and  C_7
    3  A    between atoms: O_4  and  C_11
    4  A    between atoms: C_11  and  O_28
    5  A    between atoms: C_13  and  C_17
    6  A    between atoms: C_16  and  C_18
    7  A    between atoms: C_17  and  C_34
    8  A    between atoms: C_18  and  C_34
    9  A    between atoms: N_20  and  C_29
   10  A    between atoms: C_24  and  C_29
   11  A    between atoms: C_24  and  C_31
   12  A    between atoms: C_25  and  O_28
                            x       y       z     vdW  Elec       q    Type
                         _______ _______ _______ _____ _____    ______ ____

>  <TORSDO>
F 12

$$$$
=
 OpenBabel10222421133D

 37 39  0  0  1  0  0  0  0  0999 V2000
  185.0200  178.5290  138.2230 C   0  0  2  0  0  3  0  0  0  0  0  0
  183.5120  179.6850  139.8020 C   0  0  0  0  0  1  0  0  0  0  0  0
  186.8290  178.0480  139.7590 C   0  0  2  0  0  3  0  0  0  0  0  0
  186.4190  177.9530  138.3010 C   0  0  0  0  0  2  0  0  0  0  0  0
  185.8010  178.9570  140.4190 C   0  0  1  0  0  3  0  0  0  0  0  0
  184.8890  179.4400  139.3680 N   0  0  0  0  0  0  0  0  0  0  0  0
  188.1240  178.6280  139.8460 O   0  0  0  0  0  0  0  0  0  0  0  0
  189.9710  178.0910  138.5670 O   0  0  0  0  0  0  0  0  0  0  0  0
  189.2920  177.8960  139.6110 C   0  0  0  0  0  0  0  0  0  0  0  0
  189.7250  176.9410  140.5330 O   0  0  0  0  0  0  0  0  0  0  0  0
  190.1180  178.2620  142.3730 F   0  0  0  0  0  0  0  0  0  0  0  0
  190.8120  176.1190  142.3680 F   0  0  0  0  0  0  0  0  0  0  0  0
  190.6310  177.2450  141.5880 C   0  0  0  0  0  0  0  0  0  0  0  0
  191.8520  177.6330  141.0660 F   0  0  0  0  0  0  0  0  0  0  0  0
  185.1300  178.2830  141.6300 C   0  0  0  0  0  2  0  0  0  0  0  0
  185.2810  179.0780  142.9210 C   0  0  0  0  0  2  0  0  0  0  0  0
  184.8110  178.2550  144.1090 C   0  0  0  0  0  2  0  0  0  0  0  0
  191.7430  176.5720  145.6920 F   0  0  0  0  0  0  0  0  0  0  0  0
  189.4880  177.1300  145.1600 C   0  0  0  0  0  3  0  0  0  0  0  0
  188.2130  177.5080  145.5840 C   0  0  0  0  0  0  0  0  0  0  0  0
  187.1850  177.7020  144.6620 C   0  0  0  0  0  3  0  0  0  0  0  0
  185.9160  178.0870  145.1040 C   0  0  0  0  0  0  0  0  0  0  0  0
  184.5620  178.6200  146.9080 O   0  0  0  0  0  0  0  0  0  0  0  0
  190.2460  177.1190  147.4640 C   0  0  0  0  0  3  0  0  0  0  0  0
  185.6950  178.2710  146.4820 C   0  0  0  0  0  0  0  0  0  0  0  0
  188.9700  177.5010  147.8920 C   0  0  0  0  0  3  0  0  0  0  0  0
  187.9510  177.6960  146.9570 C   0  0  0  0  0  0  0  0  0  0  0  0
  186.7100  178.0720  147.3670 N   0  0  0  0  0  2  0  0  0  0  0  0
  190.5050  176.9350  146.1010 C   0  0  0  0  0  0  0  0  0  0  0  0
  184.0140  177.3740  138.2210 C   0  0  0  0  0  2  0  0  0  0  0  0
  183.6170  176.0000  136.3130 O   0  0  0  0  0  1  0  0  0  0  0  0
  183.3350  177.2500  136.8690 C   0  0  1  0  0  3  0  0  0  0  0  0
  181.8360  177.3980  137.0500 C   0  0  0  0  0  2  0  0  0  0  0  0
  180.6910  177.2500  139.6480 O   0  0  0  0  0  0  0  0  0  0  0  0
  181.2870  176.1940  137.6520 N   0  0  0  0  0  2  0  0  0  0  0  0
  180.7320  176.1920  138.9670 C   0  0  0  0  0  0  0  0  0  0  0  0
  180.1970  174.9280  139.5370 C   0  0  0  0  0  1  0  0  0  0  0  0
  1 30  1  1  0  0  0
  1  4  1  0  0  0  0
  1  6  1  0  0  0  0
  3  7  1  6  0  0  0
  3  5  1  0  0  0  0
  4  3  1  0  0  0  0
  5 15  1  1  0  0  0
  6  2  1  0  0  0  0
  6  5  1  0  0  0  0
  8  9  2  0  0  0  0
  9  7  1  0  0  0  0
  9 10  1  0  0  0  0
 10 13  1  0  0  0  0
 13 12  1  0  0  0  0
 13 11  1  0  0  0  0
 14 13  1  0  0  0  0
 15 16  1  0  0  0  0
 16 17  1  0  0  0  0
 17 22  1  0  0  0  0
 18 29  1  0  0  0  0
 19 20  2  0  0  0  0
 19 29  1  0  0  0  0
 20 27  1  0  0  0  0
 21 22  2  0  0  0  0
 21 20  1  0  0  0  0
 22 25  1  0  0  0  0
 24 26  1  0  0  0  0
 25 23  2  0  0  0  0
 25 28  1  0  0  0  0
 27 28  1  0  0  0  0
 27 26  2  0  0  0  0
 29 24  2  0  0  0  0
 32 31  1  1  0  0  0
 32 33  1  0  0  0  0
 32 30  1  0  0  0  0
 33 35  1  0  0  0  0
 35 36  1  0  0  0  0
 36 37  1  0  0  0  0
 36 34  2  0  0  0  0
M  END
>  <MODEL>
8

>  <REMARK>
 VINA RESULT:      -7.9      3.392      6.681
  Name = 
  12 active torsions:
  status: ('A' for Active; 'I' for Inactive)
    1  A    between atoms: C_1  and  C_31
    2  A    between atoms: O_4  and  C_7
    3  A    between atoms: O_4  and  C_11
    4  A    between atoms: C_11  and  O_28
    5  A    between atoms: C_13  and  C_17
    6  A    between atoms: C_16  and  C_18
    7  A    between atoms: C_17  and  C_34
    8  A    between atoms: C_18  and  C_34
    9  A    between atoms: N_20  and  C_29
   10  A    between atoms: C_24  and  C_29
   11  A    between atoms: C_24  and  C_31
   12  A    between atoms: C_25  and  O_28
                            x       y       z     vdW  Elec       q    Type
                         _______ _______ _______ _____ _____    ______ ____

>  <TORSDO>
F 12

$$$$
=
 OpenBabel10222421133D

 37 39  0  0  1  0  0  0  0  0999 V2000
  190.2330  176.7830  137.6140 C   0  0  2  0  0  3  0  0  0  0  0  0
  188.7630  178.6800  137.0260 C   0  0  0  0  0  1  0  0  0  0  0  0
  190.1680  177.0260  140.0230 C   0  0  2  0  0  3  0  0  0  0  0  0
  190.8120  176.2330  138.9010 C   0  0  0  0  0  2  0  0  0  0  0  0
  189.4880  178.2120  139.3520 C   0  0  1  0  0  3  0  0  0  0  0  0
  189.8030  178.1560  137.9150 N   0  0  0  0  0  0  0  0  0  0  0  0
  191.1750  177.4810  140.9160 O   0  0  0  0  0  0  0  0  0  0  0  0
  190.5410  176.0990  142.6550 O   0  0  0  0  0  0  0  0  0  0  0  0
  191.2320  177.0720  142.2530 C   0  0  0  0  0  0  0  0  0  0  0  0
  192.0610  177.7360  143.1600 O   0  0  0  0  0  0  0  0  0  0  0  0
  192.4130  179.6810  144.3340 F   0  0  0  0  0  0  0  0  0  0  0  0
  190.3150  179.0720  143.7870 F   0  0  0  0  0  0  0  0  0  0  0  0
  191.5580  178.6060  144.1690 C   0  0  0  0  0  0  0  0  0  0  0  0
  191.4360  177.9210  145.3650 F   0  0  0  0  0  0  0  0  0  0  0  0
  187.9910  178.2930  139.7060 C   0  0  0  0  0  2  0  0  0  0  0  0
  187.6800  177.8010  141.1140 C   0  0  0  0  0  2  0  0  0  0  0  0
  186.3070  178.2850  141.5530 C   0  0  0  0  0  2  0  0  0  0  0  0
  189.2260  177.1610  148.1570 F   0  0  0  0  0  0  0  0  0  0  0  0
  188.2900  177.5320  145.9960 C   0  0  0  0  0  3  0  0  0  0  0  0
  187.2370  177.9980  145.2080 C   0  0  0  0  0  0  0  0  0  0  0  0
  187.3020  177.9260  143.8170 C   0  0  0  0  0  3  0  0  0  0  0  0
  186.2410  178.4030  143.0440 C   0  0  0  0  0  0  0  0  0  0  0  0
  184.1440  179.3890  143.0140 O   0  0  0  0  0  0  0  0  0  0  0  0
  187.0640  178.1520  147.9940 C   0  0  0  0  0  3  0  0  0  0  0  0
  185.1140  178.9490  143.6850 C   0  0  0  0  0  0  0  0  0  0  0  0
  186.0070  178.6210  147.2080 C   0  0  0  0  0  3  0  0  0  0  0  0
  186.0880  178.5470  145.8150 C   0  0  0  0  0  0  0  0  0  0  0  0
  185.0670  179.0070  145.0450 N   0  0  0  0  0  2  0  0  0  0  0  0
  188.2040  177.6090  147.3900 C   0  0  0  0  0  0  0  0  0  0  0  0
  189.1030  175.8590  137.1510 C   0  0  0  0  0  2  0  0  0  0  0  0
  190.2490  174.2100  135.8650 O   0  0  0  0  0  1  0  0  0  0  0  0
  189.3890  175.3060  135.7660 C   0  0  1  0  0  3  0  0  0  0  0  0
  188.0850  174.8710  135.1250 C   0  0  0  0  0  2  0  0  0  0  0  0
  187.3520  172.2640  135.9890 O   0  0  0  0  0  0  0  0  0  0  0  0
  187.0990  174.5800  136.1530 N   0  0  0  0  0  2  0  0  0  0  0  0
  186.7760  173.2430  136.5330 C   0  0  0  0  0  0  0  0  0  0  0  0
  185.7500  173.0050  137.5820 C   0  0  0  0  0  1  0  0  0  0  0  0
  1 30  1  1  0  0  0
  1  6  1  0  0  0  0
  1  4  1  0  0  0  0
  2  6  1  0  0  0  0
  3  7  1  1  0  0  0
  4  3  1  0  0  0  0
  5 15  1  6  0  0  0
  5  3  1  0  0  0  0
  6  5  1  0  0  0  0
  7  9  1  0  0  0  0
  9  8  2  0  0  0  0
  9 10  1  0  0  0  0
 10 13  1  0  0  0  0
 12 13  1  0  0  0  0
 13 11  1  0  0  0  0
 13 14  1  0  0  0  0
 15 16  1  0  0  0  0
 16 17  1  0  0  0  0
 17 22  1  0  0  0  0
 19 29  1  0  0  0  0
 20 27  1  0  0  0  0
 20 19  2  0  0  0  0
 21 20  1  0  0  0  0
 22 25  1  0  0  0  0
 22 21  2  0  0  0  0
 23 25  2  0  0  0  0
 25 28  1  0  0  0  0
 26 24  1  0  0  0  0
 27 26  2  0  0  0  0
 28 27  1  0  0  0  0
 29 24  2  0  0  0  0
 29 18  1  0  0  0  0
 32 31  1  1  0  0  0
 32 30  1  0  0  0  0
 33 32  1  0  0  0  0
 33 35  1  0  0  0  0
 34 36  2  0  0  0  0
 35 36  1  0  0  0  0
 36 37  1  0  0  0  0
M  END
>  <MODEL>
9

>  <REMARK>
 VINA RESULT:      -7.9      2.954      4.926
  Name = 
  12 active torsions:
  status: ('A' for Active; 'I' for Inactive)
    1  A    between atoms: C_1  and  C_31
    2  A    between atoms: O_4  and  C_7
    3  A    between atoms: O_4  and  C_11
    4  A    between atoms: C_11  and  O_28
    5  A    between atoms: C_13  and  C_17
    6  A    between atoms: C_16  and  C_18
    7  A    between atoms: C_17  and  C_34
    8  A    between atoms: C_18  and  C_34
    9  A    between atoms: N_20  and  C_29
   10  A    between atoms: C_24  and  C_29
   11  A    between atoms: C_24  and  C_31
   12  A    between atoms: C_25  and  O_28
                            x       y       z     vdW  Elec       q    Type
                         _______ _______ _______ _____ _____    ______ ____

>  <TORSDO>
F 12

$$$$
