=
 OpenBabel10222415353D

 54 60  0  0  1  0  0  0  0  0999 V2000
  193.6370  174.2450  136.7900 C   0  0  2  0  0  0  0  0  0  0  0  0
  192.6200  175.2900  137.1760 C   0  0  1  0  0  0  0  0  0  0  0  0
  191.7140  175.8900  136.3270 O   0  0  0  0  0  0  0  0  0  0  0  0
  193.7970  174.0260  135.4180 O   0  0  0  0  0  1  0  0  0  0  0  0
  192.2980  173.8070  137.3330 C   0  0  0  0  0  2  0  0  0  0  0  0
  193.2060  177.0120  138.8030 O   0  0  0  0  0  1  0  0  0  0  0  0
  191.3480  176.7900  137.3710 C   0  0  2  0  0  0  0  0  0  0  0  0
  190.8180  176.2470  138.7330 C   0  0  1  0  0  0  0  0  0  0  0  0
  189.8730  176.5340  137.5790 C   0  0  1  0  0  3  0  0  0  0  0  0
  192.2740  176.0620  138.3800 C   0  0  1  0  0  0  0  0  0  0  0  0
  194.8030  174.0070  137.6920 C   0  0  0  0  0  3  0  0  0  0  0  0
  197.0450  175.1060  137.1930 O   0  0  0  0  0  0  0  0  0  0  0  0
  195.9570  174.5670  137.4420 C   0  0  0  0  0  0  0  0  0  0  0  0
  190.7240  177.2780  139.7200 O   0  0  0  0  0  0  0  0  0  0  0  0
  190.4560  175.9630  141.5800 O   0  0  0  0  0  0  0  0  0  0  0  0
  190.2070  177.0550  140.9990 C   0  0  0  0  0  0  0  0  0  0  0  0
  189.3480  178.0740  141.6890 C   0  0  0  0  0  2  0  0  0  0  0  0
  189.4460  177.9550  143.2140 C   0  0  2  0  0  3  0  0  0  0  0  0
  188.2540  178.4210  143.7900 O   0  0  0  0  0  0  0  0  0  0  0  0
  187.3950  177.3090  143.8220 C   0  0  1  0  0  3  0  0  0  0  0  0
  186.8350  177.0660  145.0800 C   0  0  2  0  0  3  0  0  0  0  0  0
  185.9950  177.7800  144.0600 N   0  0  0  0  0  0  0  0  0  0  0  0
  184.7930  178.4280  143.6370 C   0  0  0  0  0  0  0  0  0  0  0  0
  183.7750  179.0310  144.7840 S   0  0  0  0  0  0  0  0  0  0  0  0
  181.4870  178.3070  139.8790 C   0  0  0  0  0  1  0  0  0  0  0  0
  183.8980  178.7910  139.4480 C   0  0  0  0  0  3  0  0  0  0  0  0
  185.2080  178.9740  139.8970 C   0  0  0  0  0  3  0  0  0  0  0  0
  185.5030  178.8640  141.2630 C   0  0  0  0  0  3  0  0  0  0  0  0
  184.4920  178.5640  142.1920 C   0  0  0  0  0  0  0  0  0  0  0  0
  182.8820  178.4980  140.3600 C   0  0  0  0  0  0  0  0  0  0  0  0
  183.1790  178.3820  141.7240 C   0  0  0  0  0  3  0  0  0  0  0  0
  187.2130  178.0510  146.1930 C   0  0  0  0  0  2  0  0  0  0  0  0
  188.5990  178.2980  148.2670 C   0  0  0  0  0  1  0  0  0  0  0  0
  187.8660  177.3200  147.3650 C   0  0  0  0  0  2  0  0  0  0  0  0
  190.6440  178.7440  143.7670 C   0  0  0  0  0  2  0  0  0  0  0  0
  191.6500  177.8350  144.4690 C   0  0  0  0  0  2  0  0  0  0  0  0
  190.9250  176.8310  145.3570 C   0  0  0  0  0  2  0  0  0  0  0  0
  191.8730  175.8390  145.8570 N   0  0  0  0  0  2  0  0  0  0  0  0
  192.3810  175.8550  147.1970 C   0  0  0  0  0  3  0  0  0  0  0  0
  192.0130  176.7660  148.0400 N   0  0  0  0  0  2  0  0  0  0  0  0
  189.1160  177.8540  137.6890 C   0  0  0  0  0  2  0  0  0  0  0  0
  187.6770  177.7070  137.2070 C   0  0  1  0  0  3  0  0  0  0  0  0
  187.1150  178.9600  137.0270 F   0  0  0  0  0  0  0  0  0  0  0  0
  187.5830  176.8950  135.9160 C   0  0  0  0  0  2  0  0  0  0  0  0
  186.3200  176.0440  135.8530 C   0  0  0  0  0  2  0  0  0  0  0  0
  185.5640  176.2130  137.0160 O   0  0  0  0  0  0  0  0  0  0  0  0
  182.2060  174.7210  137.7030 C   0  0  0  0  0  2  0  0  0  0  0  0
  182.3450  173.5670  136.7080 C   0  0  1  0  0  3  0  0  0  0  0  0
  185.2880  173.8920  137.3500 C   0  0  0  0  0  2  0  0  0  0  0  0
  183.2460  172.5430  137.2220 N   0  0  0  0  0  0  0  0  0  0  0  0
  183.5030  175.4920  137.9750 C   0  0  0  0  0  2  0  0  0  0  0  0
  180.9820  172.9530  136.4610 C   0  0  0  0  0  1  0  0  0  0  0  0
  184.6220  175.1830  136.9840 C   0  0  1  0  0  3  0  0  0  0  0  0
  184.6530  172.7190  137.4530 C   0  0  0  0  0  3  0  0  0  0  0  0
  1  4  1  6  0  0  0
  1  2  1  0  0  0  0
  1  5  1  0  0  0  0
  1 11  1  0  0  0  0
  2  5  1  1  0  0  0
  2 10  1  0  0  0  0
  3  2  1  0  0  0  0
  7  3  1  6  0  0  0
  7  9  1  0  0  0  0
  7 10  1  0  0  0  0
  7  8  1  0  0  0  0
  8 14  1  1  0  0  0
  9 41  1  1  0  0  0
  9  8  1  0  0  0  0
 10  8  1  0  0  0  0
 10  6  1  1  0  0  0
 12 13  2  0  0  0  0
 13 11  2  0  0  0  0
 14 16  1  0  0  0  0
 16 15  2  0  0  0  0
 16 17  1  0  0  0  0
 18 17  1  6  0  0  0
 18 35  1  0  0  0  0
 18 19  1  0  0  0  0
 20 19  1  1  0  0  0
 20 22  1  0  0  0  0
 20 21  1  0  0  0  0
 21 32  1  1  0  0  0
 22 21  1  0  0  0  0
 23 22  1  0  0  0  0
 23 24  2  0  0  0  0
 25 30  1  0  0  0  0
 26 27  2  0  0  0  0
 26 30  1  0  0  0  0
 27 28  1  0  0  0  0
 28 29  2  0  0  0  0
 29 23  1  0  0  0  0
 30 31  2  0  0  0  0
 31 29  1  0  0  0  0
 32 34  1  0  0  0  0
 34 33  1  0  0  0  0
 35 36  1  0  0  0  0
 36 37  1  0  0  0  0
 37 38  1  0  0  0  0
 38 39  1  0  0  0  0
 39 40  2  0  0  0  0
 42 43  1  6  0  0  0
 42 41  1  0  0  0  0
 44 42  1  0  0  0  0
 45 44  1  0  0  0  0
 45 46  1  0  0  0  0
 47 51  1  0  0  0  0
 48 52  1  1  0  0  0
 48 50  1  0  0  0  0
 48 47  1  0  0  0  0
 49 54  1  0  0  0  0
 50 54  2  0  0  0  0
 53 46  1  1  0  0  0
 53 49  1  0  0  0  0
 53 51  1  0  0  0  0
M  END
>  <MODEL>
1

>  <REMARK>
 VINA RESULT:      -7.9      0.000      0.000
  Name = 
  21 active torsions:
  status: ('A' for Active; 'I' for Inactive)
    1  A    between atoms: C_2  and  N_42
    2  A    between atoms: C_2  and  C_44
    3  A    between atoms: C_3  and  C_8
    4  A    between atoms: C_6  and  O_34
    5  A    between atoms: C_6  and  C_52
    6  A    between atoms: C_7  and  C_28
    7  A    between atoms: C_7  and  N_30
    8  A    between atoms: C_10  and  C_27
    9  A    between atoms: C_10  and  C_52
   10  A    between atoms: C_11  and  C_38
   11  A    between atoms: C_11  and  C_46
   12  A    between atoms: C_13  and  C_28
   13  A    between atoms: C_13  and  C_46
   14  A    between atoms: C_14  and  C_45
   15  A    between atoms: O_17  and  C_35
   16  A    between atoms: O_17  and  C_46
   17  A    between atoms: C_27  and  C_33
   18  A    between atoms: C_32  and  O_36
   19  A    between atoms: O_34  and  C_50
   20  A    between atoms: O_36  and  C_38
   21  A    between atoms: C_37  and  C_45
                            x       y       z     vdW  Elec       q    Type
                         _______ _______ _______ _____ _____    ______ ____

>  <TORSDO>
F 21

$$$$
=
 OpenBabel10222415353D

 54 60  0  0  1  0  0  0  0  0999 V2000
  190.9160  176.6700  138.2980 C   0  0  2  0  0  0  0  0  0  0  0  0
  189.5890  177.0850  137.7130 C   0  0  1  0  0  0  0  0  0  0  0  0
  189.0550  176.6410  136.5220 O   0  0  0  0  0  0  0  0  0  0  0  0
  191.7500  175.9290  137.4550 O   0  0  0  0  0  1  0  0  0  0  0  0
  189.6610  175.9420  138.7210 C   0  0  0  0  0  2  0  0  0  0  0  0
  188.8390  179.3990  137.9250 O   0  0  0  0  0  1  0  0  0  0  0  0
  188.0090  177.6040  136.6450 C   0  0  2  0  0  0  0  0  0  0  0  0
  187.0830  177.6090  137.8980 C   0  0  1  0  0  0  0  0  0  0  0  0
  186.7460  176.7730  136.6750 C   0  0  1  0  0  3  0  0  0  0  0  0
  188.5210  178.0440  138.0410 C   0  0  1  0  0  0  0  0  0  0  0  0
  191.5410  177.5300  139.3470 C   0  0  0  0  0  3  0  0  0  0  0  0
  193.9850  177.1930  139.9790 O   0  0  0  0  0  0  0  0  0  0  0  0
  192.7950  177.3620  139.6770 C   0  0  0  0  0  0  0  0  0  0  0  0
  186.2550  178.7740  137.9470 O   0  0  0  0  0  0  0  0  0  0  0  0
  184.7060  180.1020  138.9960 O   0  0  0  0  0  0  0  0  0  0  0  0
  185.3810  179.0360  139.0070 C   0  0  0  0  0  0  0  0  0  0  0  0
  185.2430  178.0900  140.1630 C   0  0  0  0  0  2  0  0  0  0  0  0
  185.2090  178.8370  141.5020 C   0  0  2  0  0  3  0  0  0  0  0  0
  186.4860  178.8030  142.0820 O   0  0  0  0  0  0  0  0  0  0  0  0
  186.6060  177.5210  142.6460 C   0  0  1  0  0  3  0  0  0  0  0  0
  187.9270  177.1350  142.8920 C   0  0  2  0  0  3  0  0  0  0  0  0
  187.1160  177.6500  144.0470 N   0  0  0  0  0  0  0  0  0  0  0  0
  186.9510  178.0060  145.4210 C   0  0  0  0  0  0  0  0  0  0  0  0
  185.4870  178.5760  145.9200 S   0  0  0  0  0  0  0  0  0  0  0  0
  191.6040  176.4230  146.3780 C   0  0  0  0  0  1  0  0  0  0  0  0
  190.2260  177.4970  148.1600 C   0  0  0  0  0  3  0  0  0  0  0  0
  189.0430  178.1030  148.5940 C   0  0  0  0  0  3  0  0  0  0  0  0
  187.9760  178.2780  147.7020 C   0  0  0  0  0  3  0  0  0  0  0  0
  188.0780  177.8430  146.3700 C   0  0  0  0  0  0  0  0  0  0  0  0
  190.3420  177.0650  146.8380 C   0  0  0  0  0  0  0  0  0  0  0  0
  189.2740  177.2340  145.9490 C   0  0  0  0  0  3  0  0  0  0  0  0
  189.0100  178.1650  142.5460 C   0  0  0  0  0  2  0  0  0  0  0  0
  190.4020  176.0810  142.6130 C   0  0  0  0  0  1  0  0  0  0  0  0
  190.4030  177.5900  142.7960 C   0  0  0  0  0  2  0  0  0  0  0  0
  184.1750  178.2280  142.4640 C   0  0  0  0  0  2  0  0  0  0  0  0
  183.2530  179.2890  143.0570 C   0  0  0  0  0  2  0  0  0  0  0  0
  181.7950  178.9170  142.8170 C   0  0  0  0  0  2  0  0  0  0  0  0
  181.1120  178.7450  144.0960 N   0  0  0  0  0  2  0  0  0  0  0  0
  179.6970  178.5480  144.2010 C   0  0  0  0  0  3  0  0  0  0  0  0
  178.9460  178.5120  143.1460 N   0  0  0  0  0  2  0  0  0  0  0  0
  185.6880  177.3830  135.7590 C   0  0  0  0  0  2  0  0  0  0  0  0
  184.4450  176.5050  135.6910 C   0  0  1  0  0  3  0  0  0  0  0  0
  184.3960  175.6790  136.8020 F   0  0  0  0  0  0  0  0  0  0  0  0
  183.1620  177.3290  135.5890 C   0  0  0  0  0  2  0  0  0  0  0  0
  181.9450  176.5810  136.1190 C   0  0  0  0  0  2  0  0  0  0  0  0
  181.7380  176.8850  137.4680 O   0  0  0  0  0  0  0  0  0  0  0  0
  181.3360  180.2950  138.9460 C   0  0  0  0  0  2  0  0  0  0  0  0
  180.9230  180.9790  137.6410 C   0  0  1  0  0  3  0  0  0  0  0  0
  179.8480  178.2210  136.9970 C   0  0  0  0  0  3  0  0  0  0  0  0
  179.5510  180.6360  137.2860 N   0  0  0  0  0  2  0  0  0  0  0  0
  181.3560  178.7630  138.8870 C   0  0  0  0  0  2  0  0  0  0  0  0
  181.0330  182.4820  137.8080 C   0  0  0  0  0  1  0  0  0  0  0  0
  181.2700  178.2000  137.4710 C   0  0  1  0  0  3  0  0  0  0  0  0
  179.0950  179.3230  136.9230 C   0  0  0  0  0  3  0  0  0  0  0  0
  1  4  1  6  0  0  0
  1  5  1  0  0  0  0
  1 11  1  0  0  0  0
  2 10  1  0  0  0  0
  2  1  1  0  0  0  0
  2  5  1  1  0  0  0
  3  2  1  0  0  0  0
  7  3  1  1  0  0  0
  7  9  1  0  0  0  0
  7  8  1  0  0  0  0
  7 10  1  0  0  0  0
  8 14  1  6  0  0  0
  8 10  1  0  0  0  0
  9 41  1  6  0  0  0
  9  8  1  0  0  0  0
 10  6  1  1  0  0  0
 11 13  2  0  0  0  0
 13 12  2  0  0  0  0
 14 16  1  0  0  0  0
 15 16  2  0  0  0  0
 16 17  1  0  0  0  0
 18 17  1  6  0  0  0
 18 19  1  0  0  0  0
 18 35  1  0  0  0  0
 20 19  1  6  0  0  0
 20 21  1  0  0  0  0
 20 22  1  0  0  0  0
 21 32  1  6  0  0  0
 21 22  1  0  0  0  0
 22 23  1  0  0  0  0
 23 24  2  0  0  0  0
 23 29  1  0  0  0  0
 25 30  1  0  0  0  0
 26 27  1  0  0  0  0
 28 27  2  0  0  0  0
 29 28  1  0  0  0  0
 30 26  2  0  0  0  0
 31 29  2  0  0  0  0
 31 30  1  0  0  0  0
 32 34  1  0  0  0  0
 33 34  1  0  0  0  0
 35 36  1  0  0  0  0
 37 36  1  0  0  0  0
 37 38  1  0  0  0  0
 38 39  1  0  0  0  0
 40 39  2  0  0  0  0
 42 41  1  0  0  0  0
 42 43  1  1  0  0  0
 44 42  1  0  0  0  0
 44 45  1  0  0  0  0
 45 46  1  0  0  0  0
 48 52  1  1  0  0  0
 48 47  1  0  0  0  0
 49 53  1  0  0  0  0
 50 48  1  0  0  0  0
 51 47  1  0  0  0  0
 53 46  1  1  0  0  0
 53 51  1  0  0  0  0
 54 49  2  0  0  0  0
 54 50  1  0  0  0  0
M  END
>  <MODEL>
2

>  <REMARK>
 VINA RESULT:      -7.4      2.825      6.545
  Name = 
  21 active torsions:
  status: ('A' for Active; 'I' for Inactive)
    1  A    between atoms: C_2  and  N_42
    2  A    between atoms: C_2  and  C_44
    3  A    between atoms: C_3  and  C_8
    4  A    between atoms: C_6  and  O_34
    5  A    between atoms: C_6  and  C_52
    6  A    between atoms: C_7  and  C_28
    7  A    between atoms: C_7  and  N_30
    8  A    between atoms: C_10  and  C_27
    9  A    between atoms: C_10  and  C_52
   10  A    between atoms: C_11  and  C_38
   11  A    between atoms: C_11  and  C_46
   12  A    between atoms: C_13  and  C_28
   13  A    between atoms: C_13  and  C_46
   14  A    between atoms: C_14  and  C_45
   15  A    between atoms: O_17  and  C_35
   16  A    between atoms: O_17  and  C_46
   17  A    between atoms: C_27  and  C_33
   18  A    between atoms: C_32  and  O_36
   19  A    between atoms: O_34  and  C_50
   20  A    between atoms: O_36  and  C_38
   21  A    between atoms: C_37  and  C_45
                            x       y       z     vdW  Elec       q    Type
                         _______ _______ _______ _____ _____    ______ ____

>  <TORSDO>
F 21

$$$$
=
 OpenBabel10222415353D

 54 60  0  0  1  0  0  0  0  0999 V2000
  190.9700  176.6920  138.3660 C   0  0  2  0  0  0  0  0  0  0  0  0
  189.6840  177.1900  137.7520 C   0  0  1  0  0  0  0  0  0  0  0  0
  189.2120  176.8740  136.4960 O   0  0  0  0  0  0  0  0  0  0  0  0
  191.8390  176.0210  137.5010 O   0  0  0  0  0  1  0  0  0  0  0  0
  189.6830  175.9520  138.6460 C   0  0  0  0  0  2  0  0  0  0  0  0
  188.9590  179.4860  138.1480 O   0  0  0  0  0  1  0  0  0  0  0  0
  188.1760  177.8410  136.6550 C   0  0  2  0  0  0  0  0  0  0  0  0
  187.1800  177.7430  137.8500 C   0  0  1  0  0  0  0  0  0  0  0  0
  186.9010  177.0370  136.5350 C   0  0  1  0  0  3  0  0  0  0  0  0
  188.6140  178.1340  138.1130 C   0  0  1  0  0  0  0  0  0  0  0  0
  191.5480  177.4340  139.5270 C   0  0  0  0  0  3  0  0  0  0  0  0
  193.9870  177.0870  140.1730 O   0  0  0  0  0  0  0  0  0  0  0  0
  192.7980  177.2600  139.8650 C   0  0  0  0  0  0  0  0  0  0  0  0
  186.3680  178.9140  137.9680 O   0  0  0  0  0  0  0  0  0  0  0  0
  184.6600  180.0850  138.9540 O   0  0  0  0  0  0  0  0  0  0  0  0
  185.4140  179.0750  138.9780 C   0  0  0  0  0  0  0  0  0  0  0  0
  185.2820  178.0840  140.0970 C   0  0  0  0  0  2  0  0  0  0  0  0
  183.9240  178.2060  140.8000 C   0  0  2  0  0  3  0  0  0  0  0  0
  184.0840  177.9170  142.1640 O   0  0  0  0  0  0  0  0  0  0  0  0
  184.4600  179.1320  142.7610 C   0  0  1  0  0  3  0  0  0  0  0  0
  183.6090  179.5400  143.7920 C   0  0  2  0  0  3  0  0  0  0  0  0
  184.8990  178.8690  144.1680 N   0  0  0  0  0  0  0  0  0  0  0  0
  185.8290  178.3560  145.1230 C   0  0  0  0  0  0  0  0  0  0  0  0
  185.4530  178.4580  146.7250 S   0  0  0  0  0  0  0  0  0  0  0  0
  190.5760  177.0450  146.0270 C   0  0  0  0  0  1  0  0  0  0  0  0
  189.5160  176.5710  143.8180 C   0  0  0  0  0  3  0  0  0  0  0  0
  188.4200  176.6180  142.9510 C   0  0  0  0  0  3  0  0  0  0  0  0
  187.2140  177.1920  143.3760 C   0  0  0  0  0  3  0  0  0  0  0  0
  187.0930  177.7300  144.6680 C   0  0  0  0  0  0  0  0  0  0  0  0
  189.4080  177.0990  145.1060 C   0  0  0  0  0  0  0  0  0  0  0  0
  188.2050  177.6780  145.5270 C   0  0  0  0  0  3  0  0  0  0  0  0
  182.4430  178.5990  144.1220 C   0  0  0  0  0  2  0  0  0  0  0  0
  179.9410  178.5210  144.2670 C   0  0  0  0  0  1  0  0  0  0  0  0
  181.1320  179.1430  143.5560 C   0  0  0  0  0  2  0  0  0  0  0  0
  182.8790  177.2640  140.1790 C   0  0  0  0  0  2  0  0  0  0  0  0
  181.4860  177.8890  140.1630 C   0  0  0  0  0  2  0  0  0  0  0  0
  181.4210  179.0100  139.1340 C   0  0  0  0  0  2  0  0  0  0  0  0
  180.5070  180.0520  139.5950 N   0  0  0  0  0  2  0  0  0  0  0  0
  180.4600  181.3590  139.0100 C   0  0  0  0  0  3  0  0  0  0  0  0
  181.2390  181.6800  138.0270 N   0  0  0  0  0  2  0  0  0  0  0  0
  185.9050  177.7540  135.6260 C   0  0  0  0  0  2  0  0  0  0  0  0
  185.1620  176.7670  134.7350 C   0  0  1  0  0  3  0  0  0  0  0  0
  185.6750  175.4940  134.9200 F   0  0  0  0  0  0  0  0  0  0  0  0
  183.6570  176.7740  134.9980 C   0  0  0  0  0  2  0  0  0  0  0  0
  183.2840  176.0270  136.2730 C   0  0  0  0  0  2  0  0  0  0  0  0
  182.4060  174.9790  135.9820 O   0  0  0  0  0  0  0  0  0  0  0  0
  180.0100  173.4210  138.3920 C   0  0  0  0  0  2  0  0  0  0  0  0
  179.8870  174.6480  139.2980 C   0  0  1  0  0  3  0  0  0  0  0  0
  180.4750  176.1220  136.7180 C   0  0  0  0  0  3  0  0  0  0  0  0
  179.0650  175.6760  138.6720 N   0  0  0  0  0  2  0  0  0  0  0  0
  180.7200  173.6800  137.0580 C   0  0  0  0  0  2  0  0  0  0  0  0
  179.2530  174.2360  140.6120 C   0  0  0  0  0  1  0  0  0  0  0  0
  181.4500  175.0190  136.9980 C   0  0  1  0  0  3  0  0  0  0  0  0
  179.4120  176.3990  137.4800 C   0  0  0  0  0  3  0  0  0  0  0  0
  1  4  1  6  0  0  0
  1  5  1  0  0  0  0
  1 11  1  0  0  0  0
  2 10  1  0  0  0  0
  2  1  1  0  0  0  0
  2  5  1  1  0  0  0
  3  2  1  0  0  0  0
  7  3  1  1  0  0  0
  7  8  1  0  0  0  0
  7 10  1  0  0  0  0
  8 14  1  1  0  0  0
  8 10  1  0  0  0  0
  9 41  1  6  0  0  0
  9  7  1  0  0  0  0
  9  8  1  0  0  0  0
 10  6  1  1  0  0  0
 11 13  2  0  0  0  0
 13 12  2  0  0  0  0
 14 16  1  0  0  0  0
 15 16  2  0  0  0  0
 16 17  1  0  0  0  0
 18 17  1  6  0  0  0
 18 19  1  0  0  0  0
 20 19  1  6  0  0  0
 20 21  1  0  0  0  0
 20 22  1  0  0  0  0
 21 32  1  6  0  0  0
 21 22  1  0  0  0  0
 22 23  1  0  0  0  0
 23 24  2  0  0  0  0
 26 30  1  0  0  0  0
 27 28  1  0  0  0  0
 27 26  2  0  0  0  0
 28 29  2  0  0  0  0
 29 23  1  0  0  0  0
 29 31  1  0  0  0  0
 30 31  2  0  0  0  0
 30 25  1  0  0  0  0
 34 32  1  0  0  0  0
 34 33  1  0  0  0  0
 35 18  1  0  0  0  0
 36 35  1  0  0  0  0
 37 38  1  0  0  0  0
 37 36  1  0  0  0  0
 39 38  1  0  0  0  0
 40 39  2  0  0  0  0
 42 43  1  1  0  0  0
 42 44  1  0  0  0  0
 42 41  1  0  0  0  0
 44 45  1  0  0  0  0
 46 45  1  0  0  0  0
 47 48  1  0  0  0  0
 48 52  1  1  0  0  0
 49 53  1  0  0  0  0
 49 54  2  0  0  0  0
 50 48  1  0  0  0  0
 51 47  1  0  0  0  0
 53 46  1  6  0  0  0
 53 51  1  0  0  0  0
 54 50  1  0  0  0  0
M  END
>  <MODEL>
3

>  <REMARK>
 VINA RESULT:      -7.2      2.884      6.391
  Name = 
  21 active torsions:
  status: ('A' for Active; 'I' for Inactive)
    1  A    between atoms: C_2  and  N_42
    2  A    between atoms: C_2  and  C_44
    3  A    between atoms: C_3  and  C_8
    4  A    between atoms: C_6  and  O_34
    5  A    between atoms: C_6  and  C_52
    6  A    between atoms: C_7  and  C_28
    7  A    between atoms: C_7  and  N_30
    8  A    between atoms: C_10  and  C_27
    9  A    between atoms: C_10  and  C_52
   10  A    between atoms: C_11  and  C_38
   11  A    between atoms: C_11  and  C_46
   12  A    between atoms: C_13  and  C_28
   13  A    between atoms: C_13  and  C_46
   14  A    between atoms: C_14  and  C_45
   15  A    between atoms: O_17  and  C_35
   16  A    between atoms: O_17  and  C_46
   17  A    between atoms: C_27  and  C_33
   18  A    between atoms: C_32  and  O_36
   19  A    between atoms: O_34  and  C_50
   20  A    between atoms: O_36  and  C_38
   21  A    between atoms: C_37  and  C_45
                            x       y       z     vdW  Elec       q    Type
                         _______ _______ _______ _____ _____    ______ ____

>  <TORSDO>
F 21

$$$$
=
 OpenBabel10222415353D

 54 60  0  0  1  0  0  0  0  0999 V2000
  189.7030  177.1420  143.2490 C   0  0  2  0  0  0  0  0  0  0  0  0
  189.5400  177.4750  141.7870 C   0  0  1  0  0  0  0  0  0  0  0  0
  190.5060  177.3360  140.8130 O   0  0  0  0  0  0  0  0  0  0  0  0
  191.0070  176.8630  143.6700 O   0  0  0  0  0  1  0  0  0  0  0  0
  189.1200  176.1070  142.3170 C   0  0  0  0  0  2  0  0  0  0  0  0
  188.2440  179.4340  141.1240 O   0  0  0  0  0  1  0  0  0  0  0  0
  189.6540  178.0090  139.8880 C   0  0  2  0  0  0  0  0  0  0  0  0
  188.2290  177.4570  139.5800 C   0  0  1  0  0  0  0  0  0  0  0  0
  189.4380  176.9980  138.7840 C   0  0  1  0  0  3  0  0  0  0  0  0
  188.5070  178.0770  140.9290 C   0  0  1  0  0  0  0  0  0  0  0  0
  188.7450  177.7300  144.2330 C   0  0  0  0  0  3  0  0  0  0  0  0
  188.8420  177.0300  146.6800 O   0  0  0  0  0  0  0  0  0  0  0  0
  188.7890  177.3750  145.4900 C   0  0  0  0  0  0  0  0  0  0  0  0
  187.4510  178.3810  138.8150 O   0  0  0  0  0  0  0  0  0  0  0  0
  185.8310  177.1940  137.7060 O   0  0  0  0  0  0  0  0  0  0  0  0
  186.1130  178.1480  138.4820 C   0  0  0  0  0  0  0  0  0  0  0  0
  185.0100  179.0160  139.0100 C   0  0  0  0  0  2  0  0  0  0  0  0
  184.3690  178.4130  140.2670 C   0  0  2  0  0  3  0  0  0  0  0  0
  182.9820  178.6170  140.2200 O   0  0  0  0  0  0  0  0  0  0  0  0
  182.6460  178.5920  138.8560 C   0  0  1  0  0  3  0  0  0  0  0  0
  181.4710  177.8900  138.5780 C   0  0  2  0  0  3  0  0  0  0  0  0
  181.3970  179.3890  138.6460 N   0  0  0  0  0  0  0  0  0  0  0  0
  180.6860  180.6270  138.5800 C   0  0  0  0  0  0  0  0  0  0  0  0
  179.8610  181.1370  139.9130 S   0  0  0  0  0  0  0  0  0  0  0  0
  180.9340  185.0920  136.3300 C   0  0  0  0  0  1  0  0  0  0  0  0
  180.7470  182.9940  134.9910 C   0  0  0  0  0  3  0  0  0  0  0  0
  180.6510  181.6020  134.9050 C   0  0  0  0  0  3  0  0  0  0  0  0
  180.6390  180.8260  136.0730 C   0  0  0  0  0  3  0  0  0  0  0  0
  180.7160  181.4340  137.3370 C   0  0  0  0  0  0  0  0  0  0  0  0
  180.8290  183.6110  136.2410 C   0  0  0  0  0  0  0  0  0  0  0  0
  180.8100  182.8350  137.4070 C   0  0  0  0  0  3  0  0  0  0  0  0
  180.7310  177.2990  139.7860 C   0  0  0  0  0  2  0  0  0  0  0  0
  179.6030  175.1210  140.3060 C   0  0  0  0  0  1  0  0  0  0  0  0
  180.8860  175.7800  139.8250 C   0  0  0  0  0  2  0  0  0  0  0  0
  184.9520  179.0290  141.5490 C   0  0  0  0  0  2  0  0  0  0  0  0
  184.6140  178.1990  142.7850 C   0  0  0  0  0  2  0  0  0  0  0  0
  184.2530  179.1100  143.9520 C   0  0  0  0  0  2  0  0  0  0  0  0
  185.4430  179.3840  144.7520 N   0  0  0  0  0  2  0  0  0  0  0  0
  185.5470  179.0300  146.1360 C   0  0  0  0  0  3  0  0  0  0  0  0
  184.5730  178.4370  146.7500 N   0  0  0  0  0  2  0  0  0  0  0  0
  189.5910  177.6630  137.4190 C   0  0  0  0  0  2  0  0  0  0  0  0
  189.6600  176.6260  136.3050 C   0  0  1  0  0  3  0  0  0  0  0  0
  190.9650  176.5140  135.8520 F   0  0  0  0  0  0  0  0  0  0  0  0
  189.1380  175.2620  136.7550 C   0  0  0  0  0  2  0  0  0  0  0  0
  188.3360  174.5570  135.6680 C   0  0  0  0  0  2  0  0  0  0  0  0
  187.0360  175.0680  135.6160 O   0  0  0  0  0  0  0  0  0  0  0  0
  184.9040  172.7820  137.6660 C   0  0  0  0  0  2  0  0  0  0  0  0
  184.1780  172.1460  136.4790 C   0  0  1  0  0  3  0  0  0  0  0  0
  186.7740  172.7900  135.0540 C   0  0  0  0  0  3  0  0  0  0  0  0
  185.0480  171.2080  135.7800 N   0  0  0  0  0  2  0  0  0  0  0  0
  186.1190  173.6370  137.2890 C   0  0  0  0  0  2  0  0  0  0  0  0
  182.9520  171.4090  136.9800 C   0  0  0  0  0  1  0  0  0  0  0  0
  186.2070  173.9600  135.8000 C   0  0  1  0  0  3  0  0  0  0  0  0
  186.2390  171.5640  135.0600 C   0  0  0  0  0  3  0  0  0  0  0  0
  1  4  1  1  0  0  0
  1 11  1  0  0  0  0
  2  5  1  6  0  0  0
  2  1  1  0  0  0  0
  3  2  1  0  0  0  0
  5  1  1  0  0  0  0
  7  3  1  1  0  0  0
  7 10  1  0  0  0  0
  8 14  1  6  0  0  0
  8  7  1  0  0  0  0
  8 10  1  0  0  0  0
  9 41  1  6  0  0  0
  9  8  1  0  0  0  0
  9  7  1  0  0  0  0
 10  6  1  1  0  0  0
 10  2  1  0  0  0  0
 11 13  2  0  0  0  0
 13 12  2  0  0  0  0
 15 16  2  0  0  0  0
 16 14  1  0  0  0  0
 16 17  1  0  0  0  0
 18 17  1  6  0  0  0
 18 35  1  0  0  0  0
 19 18  1  0  0  0  0
 20 19  1  1  0  0  0
 21 22  1  0  0  0  0
 21 20  1  0  0  0  0
 21 32  1  1  0  0  0
 22 20  1  0  0  0  0
 23 22  1  0  0  0  0
 23 24  2  0  0  0  0
 26 30  1  0  0  0  0
 27 26  2  0  0  0  0
 27 28  1  0  0  0  0
 28 29  2  0  0  0  0
 29 31  1  0  0  0  0
 29 23  1  0  0  0  0
 30 25  1  0  0  0  0
 30 31  2  0  0  0  0
 32 34  1  0  0  0  0
 34 33  1  0  0  0  0
 35 36  1  0  0  0  0
 36 37  1  0  0  0  0
 37 38  1  0  0  0  0
 38 39  1  0  0  0  0
 39 40  2  0  0  0  0
 42 43  1  1  0  0  0
 42 44  1  0  0  0  0
 42 41  1  0  0  0  0
 45 44  1  0  0  0  0
 46 45  1  0  0  0  0
 48 52  1  1  0  0  0
 48 47  1  0  0  0  0
 49 54  2  0  0  0  0
 49 53  1  0  0  0  0
 50 48  1  0  0  0  0
 51 47  1  0  0  0  0
 53 46  1  1  0  0  0
 53 51  1  0  0  0  0
 54 50  1  0  0  0  0
M  END
>  <MODEL>
4

>  <REMARK>
 VINA RESULT:      -7.0      3.342      6.487
  Name = 
  21 active torsions:
  status: ('A' for Active; 'I' for Inactive)
    1  A    between atoms: C_2  and  N_42
    2  A    between atoms: C_2  and  C_44
    3  A    between atoms: C_3  and  C_8
    4  A    between atoms: C_6  and  O_34
    5  A    between atoms: C_6  and  C_52
    6  A    between atoms: C_7  and  C_28
    7  A    between atoms: C_7  and  N_30
    8  A    between atoms: C_10  and  C_27
    9  A    between atoms: C_10  and  C_52
   10  A    between atoms: C_11  and  C_38
   11  A    between atoms: C_11  and  C_46
   12  A    between atoms: C_13  and  C_28
   13  A    between atoms: C_13  and  C_46
   14  A    between atoms: C_14  and  C_45
   15  A    between atoms: O_17  and  C_35
   16  A    between atoms: O_17  and  C_46
   17  A    between atoms: C_27  and  C_33
   18  A    between atoms: C_32  and  O_36
   19  A    between atoms: O_34  and  C_50
   20  A    between atoms: O_36  and  C_38
   21  A    between atoms: C_37  and  C_45
                            x       y       z     vdW  Elec       q    Type
                         _______ _______ _______ _____ _____    ______ ____

>  <TORSDO>
F 21

$$$$
=
 OpenBabel10222415353D

 54 60  0  0  1  0  0  0  0  0999 V2000
  190.6070  177.7700  145.1080 C   0  0  2  0  0  0  0  0  0  0  0  0
  189.9750  177.4700  143.7710 C   0  0  1  0  0  0  0  0  0  0  0  0
  188.6950  177.8080  143.3870 O   0  0  0  0  0  0  0  0  0  0  0  0
  189.7430  178.2500  146.0970 O   0  0  0  0  0  1  0  0  0  0  0  0
  190.8220  178.7250  143.9580 C   0  0  0  0  0  2  0  0  0  0  0  0
  190.4340  175.3450  142.6610 O   0  0  0  0  0  1  0  0  0  0  0  0
  188.8590  177.0350  142.2000 C   0  0  2  0  0  0  0  0  0  0  0  0
  190.0200  177.3480  141.2080 C   0  0  1  0  0  0  0  0  0  0  0  0
  188.6720  178.0360  141.0810 C   0  0  1  0  0  3  0  0  0  0  0  0
  190.3390  176.7340  142.5500 C   0  0  1  0  0  0  0  0  0  0  0  0
  191.8100  176.9910  145.5270 C   0  0  0  0  0  3  0  0  0  0  0  0
  191.6810  175.4260  147.5320 O   0  0  0  0  0  0  0  0  0  0  0  0
  191.7520  176.1860  146.5550 C   0  0  0  0  0  0  0  0  0  0  0  0
  190.1570  176.3350  140.2080 O   0  0  0  0  0  0  0  0  0  0  0  0
  192.1970  177.0870  139.4770 O   0  0  0  0  0  0  0  0  0  0  0  0
  191.2220  176.3060  139.3020 C   0  0  0  0  0  0  0  0  0  0  0  0
  191.2220  175.3830  138.1190 C   0  0  0  0  0  2  0  0  0  0  0  0
  191.5720  176.1260  136.8240 C   0  0  2  0  0  3  0  0  0  0  0  0
  190.4920  176.0340  135.9330 O   0  0  0  0  0  0  0  0  0  0  0  0
  189.4110  175.5730  136.7030 C   0  0  1  0  0  3  0  0  0  0  0  0
  188.1620  175.8300  136.1300 C   0  0  2  0  0  3  0  0  0  0  0  0
  188.7380  174.4510  135.9780 N   0  0  0  0  0  0  0  0  0  0  0  0
  188.6940  173.1050  135.4990 C   0  0  0  0  0  0  0  0  0  0  0  0
  190.0900  172.4110  134.9630 S   0  0  0  0  0  0  0  0  0  0  0  0
  183.9660  172.6380  137.0770 C   0  0  0  0  0  1  0  0  0  0  0  0
  184.9830  170.9350  135.5630 C   0  0  0  0  0  3  0  0  0  0  0  0
  186.0590  170.4510  134.8140 C   0  0  0  0  0  3  0  0  0  0  0  0
  187.2680  171.1600  134.7840 C   0  0  0  0  0  3  0  0  0  0  0  0
  187.4160  172.3550  135.5070 C   0  0  0  0  0  0  0  0  0  0  0  0
  185.1140  172.1240  136.2830 C   0  0  0  0  0  0  0  0  0  0  0  0
  186.3240  172.8280  136.2580 C   0  0  0  0  0  3  0  0  0  0  0  0
  188.1720  176.5280  134.7640 C   0  0  0  0  0  2  0  0  0  0  0  0
  185.8000  177.3420  134.7500 C   0  0  0  0  0  1  0  0  0  0  0  0
  187.2620  177.7560  134.7770 C   0  0  0  0  0  2  0  0  0  0  0  0
  192.8450  175.5600  136.1730 C   0  0  0  0  0  2  0  0  0  0  0  0
  193.6540  174.7100  137.1490 C   0  0  0  0  0  2  0  0  0  0  0  0
  195.1260  175.0990  137.0940 C   0  0  0  0  0  2  0  0  0  0  0  0
  195.8890  174.2840  138.0350 N   0  0  0  0  0  2  0  0  0  0  0  0
  197.3100  174.3910  138.1820 C   0  0  0  0  0  3  0  0  0  0  0  0
  197.9940  175.2340  137.4760 N   0  0  0  0  0  2  0  0  0  0  0  0
  187.7620  177.4580  140.0000 C   0  0  0  0  0  2  0  0  0  0  0  0
  187.0220  178.5620  139.2550 C   0  0  1  0  0  3  0  0  0  0  0  0
  187.2800  178.4640  137.8980 F   0  0  0  0  0  0  0  0  0  0  0  0
  185.5150  178.5200  139.5100 C   0  0  0  0  0  2  0  0  0  0  0  0
  185.1780  178.3410  140.9850 C   0  0  0  0  0  2  0  0  0  0  0  0
  184.6870  179.5370  141.5180 O   0  0  0  0  0  0  0  0  0  0  0  0
  185.9020  177.9390  144.6720 C   0  0  0  0  0  2  0  0  0  0  0  0
  185.3290  179.0010  145.6110 C   0  0  1  0  0  3  0  0  0  0  0  0
  183.2800  179.2870  143.3980 C   0  0  0  0  0  3  0  0  0  0  0  0
  183.8830  178.8610  145.7350 N   0  0  0  0  0  2  0  0  0  0  0  0
  185.4100  178.0340  143.2230 C   0  0  0  0  0  2  0  0  0  0  0  0
  185.9620  178.8520  146.9800 C   0  0  0  0  0  1  0  0  0  0  0  0
  184.6920  179.3420  142.9000 C   0  0  1  0  0  3  0  0  0  0  0  0
  182.9390  179.0690  144.6720 C   0  0  0  0  0  3  0  0  0  0  0  0
  1 11  1  0  0  0  0
  1  4  1  1  0  0  0
  2  5  1  6  0  0  0
  2  1  1  0  0  0  0
  3  2  1  0  0  0  0
  5  1  1  0  0  0  0
  7 10  1  0  0  0  0
  7  3  1  1  0  0  0
  8 14  1  6  0  0  0
  8  7  1  0  0  0  0
  8 10  1  0  0  0  0
  9 41  1  6  0  0  0
  9  8  1  0  0  0  0
  9  7  1  0  0  0  0
 10  6  1  1  0  0  0
 10  2  1  0  0  0  0
 11 13  2  0  0  0  0
 13 12  2  0  0  0  0
 16 15  2  0  0  0  0
 16 14  1  0  0  0  0
 17 16  1  0  0  0  0
 18 35  1  6  0  0  0
 18 17  1  0  0  0  0
 19 18  1  0  0  0  0
 20 19  1  6  0  0  0
 21 32  1  6  0  0  0
 21 20  1  0  0  0  0
 22 21  1  0  0  0  0
 22 20  1  0  0  0  0
 23 29  1  0  0  0  0
 23 22  1  0  0  0  0
 24 23  2  0  0  0  0
 26 30  1  0  0  0  0
 27 26  2  0  0  0  0
 28 27  1  0  0  0  0
 28 29  2  0  0  0  0
 29 31  1  0  0  0  0
 30 25  1  0  0  0  0
 31 30  2  0  0  0  0
 32 34  1  0  0  0  0
 33 34  1  0  0  0  0
 35 36  1  0  0  0  0
 37 36  1  0  0  0  0
 37 38  1  0  0  0  0
 38 39  1  0  0  0  0
 40 39  2  0  0  0  0
 42 43  1  6  0  0  0
 42 44  1  0  0  0  0
 42 41  1  0  0  0  0
 44 45  1  0  0  0  0
 45 46  1  0  0  0  0
 47 48  1  0  0  0  0
 48 50  1  0  0  0  0
 48 52  1  1  0  0  0
 49 54  2  0  0  0  0
 51 47  1  0  0  0  0
 53 46  1  6  0  0  0
 53 51  1  0  0  0  0
 53 49  1  0  0  0  0
 54 50  1  0  0  0  0
M  END
>  <MODEL>
5

>  <REMARK>
 VINA RESULT:      -6.9      3.348      8.553
  Name = 
  21 active torsions:
  status: ('A' for Active; 'I' for Inactive)
    1  A    between atoms: C_2  and  N_42
    2  A    between atoms: C_2  and  C_44
    3  A    between atoms: C_3  and  C_8
    4  A    between atoms: C_6  and  O_34
    5  A    between atoms: C_6  and  C_52
    6  A    between atoms: C_7  and  C_28
    7  A    between atoms: C_7  and  N_30
    8  A    between atoms: C_10  and  C_27
    9  A    between atoms: C_10  and  C_52
   10  A    between atoms: C_11  and  C_38
   11  A    between atoms: C_11  and  C_46
   12  A    between atoms: C_13  and  C_28
   13  A    between atoms: C_13  and  C_46
   14  A    between atoms: C_14  and  C_45
   15  A    between atoms: O_17  and  C_35
   16  A    between atoms: O_17  and  C_46
   17  A    between atoms: C_27  and  C_33
   18  A    between atoms: C_32  and  O_36
   19  A    between atoms: O_34  and  C_50
   20  A    between atoms: O_36  and  C_38
   21  A    between atoms: C_37  and  C_45
                            x       y       z     vdW  Elec       q    Type
                         _______ _______ _______ _____ _____    ______ ____

>  <TORSDO>
F 21

$$$$
=
 OpenBabel10222415353D

 54 60  0  0  1  0  0  0  0  0999 V2000
  190.1230  176.9880  143.3950 C   0  0  2  0  0  0  0  0  0  0  0  0
  189.8060  177.4100  141.9820 C   0  0  1  0  0  0  0  0  0  0  0  0
  190.6620  177.3350  140.9040 O   0  0  0  0  0  0  0  0  0  0  0  0
  191.4630  176.6900  143.6570 O   0  0  0  0  0  1  0  0  0  0  0  0
  189.4410  176.0100  142.4680 C   0  0  0  0  0  2  0  0  0  0  0  0
  188.4510  179.4000  141.5820 O   0  0  0  0  0  1  0  0  0  0  0  0
  189.7180  178.0590  140.1180 C   0  0  2  0  0  0  0  0  0  0  0  0
  188.2670  177.5210  139.9300 C   0  0  1  0  0  0  0  0  0  0  0  0
  189.3840  177.1170  138.9830 C   0  0  1  0  0  3  0  0  0  0  0  0
  188.6880  178.0580  141.2770 C   0  0  1  0  0  0  0  0  0  0  0  0
  189.2760  177.5110  144.5100 C   0  0  0  0  0  3  0  0  0  0  0  0
  186.8480  176.7710  144.7190 O   0  0  0  0  0  0  0  0  0  0  0  0
  188.0290  177.1360  144.6230 C   0  0  0  0  0  0  0  0  0  0  0  0
  187.4140  178.4870  139.3100 O   0  0  0  0  0  0  0  0  0  0  0  0
  185.6080  177.4560  138.3410 O   0  0  0  0  0  0  0  0  0  0  0  0
  186.0350  178.3020  139.1750 C   0  0  0  0  0  0  0  0  0  0  0  0
  185.0530  179.0970  139.9830 C   0  0  0  0  0  2  0  0  0  0  0  0
  183.9430  178.2080  140.5570 C   0  0  2  0  0  3  0  0  0  0  0  0
  182.6950  178.7430  140.2040 O   0  0  0  0  0  0  0  0  0  0  0  0
  182.8810  179.3240  138.9390 C   0  0  1  0  0  3  0  0  0  0  0  0
  182.1110  178.7380  137.9300 C   0  0  2  0  0  3  0  0  0  0  0  0
  181.6230  180.0250  138.5320 N   0  0  0  0  0  0  0  0  0  0  0  0
  180.6810  181.0930  138.6480 C   0  0  0  0  0  0  0  0  0  0  0  0
  179.7650  181.1950  140.0150 S   0  0  0  0  0  0  0  0  0  0  0  0
  179.6350  185.7590  137.1640 C   0  0  0  0  0  1  0  0  0  0  0  0
  180.2800  184.0050  135.5100 C   0  0  0  0  0  3  0  0  0  0  0  0
  180.6600  182.6960  135.2010 C   0  0  0  0  0  3  0  0  0  0  0  0
  180.8000  181.7460  136.2220 C   0  0  0  0  0  3  0  0  0  0  0  0
  180.5540  182.0920  137.5610 C   0  0  0  0  0  0  0  0  0  0  0  0
  180.0380  184.3640  136.8370 C   0  0  0  0  0  0  0  0  0  0  0  0
  180.1710  183.4130  137.8560 C   0  0  0  0  0  3  0  0  0  0  0  0
  181.1780  177.6000  138.3640 C   0  0  0  0  0  2  0  0  0  0  0  0
  182.5870  175.5650  138.7620 C   0  0  0  0  0  1  0  0  0  0  0  0
  181.6500  176.2650  137.7910 C   0  0  0  0  0  2  0  0  0  0  0  0
  184.0520  178.0810  142.0850 C   0  0  0  0  0  2  0  0  0  0  0  0
  185.0940  179.0350  142.6630 C   0  0  0  0  0  2  0  0  0  0  0  0
  184.5340  179.7520  143.8850 C   0  0  0  0  0  2  0  0  0  0  0  0
  184.0300  178.7740  144.8450 N   0  0  0  0  0  2  0  0  0  0  0  0
  184.5720  178.6280  146.1630 C   0  0  0  0  0  3  0  0  0  0  0  0
  185.5500  179.3720  146.5710 N   0  0  0  0  0  2  0  0  0  0  0  0
  189.3910  177.8660  137.6530 C   0  0  0  0  0  2  0  0  0  0  0  0
  188.9420  176.9630  136.5100 C   0  0  1  0  0  3  0  0  0  0  0  0
  187.8170  177.5010  135.9060 F   0  0  0  0  0  0  0  0  0  0  0  0
  190.0460  176.7510  135.4750 C   0  0  0  0  0  2  0  0  0  0  0  0
  190.5060  175.3010  135.4020 C   0  0  0  0  0  2  0  0  0  0  0  0
  190.4170  174.7000  136.6610 O   0  0  0  0  0  0  0  0  0  0  0  0
  194.0480  175.2050  137.3930 C   0  0  0  0  0  2  0  0  0  0  0  0
  194.2880  173.8010  137.9500 C   0  0  1  0  0  3  0  0  0  0  0  0
  192.0350  173.0910  136.0520 C   0  0  0  0  0  3  0  0  0  0  0  0
  194.3270  172.8150  136.8770 N   0  0  0  0  0  2  0  0  0  0  0  0
  192.6990  175.3920  136.6890 C   0  0  0  0  0  2  0  0  0  0  0  0
  195.6080  173.7780  138.6950 C   0  0  0  0  0  1  0  0  0  0  0  0
  191.7110  174.2560  136.9380 C   0  0  1  0  0  3  0  0  0  0  0  0
  193.2150  172.4610  136.0400 C   0  0  0  0  0  3  0  0  0  0  0  0
  1  4  1  1  0  0  0
  1 11  1  0  0  0  0
  2  5  1  6  0  0  0
  2  1  1  0  0  0  0
  3  2  1  0  0  0  0
  5  1  1  0  0  0  0
  7  3  1  1  0  0  0
  7 10  1  0  0  0  0
  8 14  1  6  0  0  0
  8  7  1  0  0  0  0
  8 10  1  0  0  0  0
  9 41  1  6  0  0  0
  9  8  1  0  0  0  0
  9  7  1  0  0  0  0
 10  6  1  1  0  0  0
 10  2  1  0  0  0  0
 11 13  2  0  0  0  0
 13 12  2  0  0  0  0
 15 16  2  0  0  0  0
 16 14  1  0  0  0  0
 16 17  1  0  0  0  0
 18 17  1  1  0  0  0
 18 35  1  0  0  0  0
 19 18  1  0  0  0  0
 20 19  1  1  0  0  0
 21 32  1  1  0  0  0
 21 22  1  0  0  0  0
 21 20  1  0  0  0  0
 22 23  1  0  0  0  0
 22 20  1  0  0  0  0
 23 24  2  0  0  0  0
 26 30  1  0  0  0  0
 27 26  2  0  0  0  0
 27 28  1  0  0  0  0
 28 29  2  0  0  0  0
 29 31  1  0  0  0  0
 29 23  1  0  0  0  0
 30 25  1  0  0  0  0
 30 31  2  0  0  0  0
 34 32  1  0  0  0  0
 34 33  1  0  0  0  0
 35 36  1  0  0  0  0
 36 37  1  0  0  0  0
 37 38  1  0  0  0  0
 38 39  1  0  0  0  0
 39 40  2  0  0  0  0
 42 43  1  6  0  0  0
 42 41  1  0  0  0  0
 44 42  1  0  0  0  0
 45 44  1  0  0  0  0
 45 46  1  0  0  0  0
 47 48  1  0  0  0  0
 48 52  1  6  0  0  0
 49 53  1  0  0  0  0
 50 48  1  0  0  0  0
 51 53  1  0  0  0  0
 51 47  1  0  0  0  0
 53 46  1  6  0  0  0
 54 49  2  0  0  0  0
 54 50  1  0  0  0  0
M  END
>  <MODEL>
6

>  <REMARK>
 VINA RESULT:      -6.5      3.444      7.677
  Name = 
  21 active torsions:
  status: ('A' for Active; 'I' for Inactive)
    1  A    between atoms: C_2  and  N_42
    2  A    between atoms: C_2  and  C_44
    3  A    between atoms: C_3  and  C_8
    4  A    between atoms: C_6  and  O_34
    5  A    between atoms: C_6  and  C_52
    6  A    between atoms: C_7  and  C_28
    7  A    between atoms: C_7  and  N_30
    8  A    between atoms: C_10  and  C_27
    9  A    between atoms: C_10  and  C_52
   10  A    between atoms: C_11  and  C_38
   11  A    between atoms: C_11  and  C_46
   12  A    between atoms: C_13  and  C_28
   13  A    between atoms: C_13  and  C_46
   14  A    between atoms: C_14  and  C_45
   15  A    between atoms: O_17  and  C_35
   16  A    between atoms: O_17  and  C_46
   17  A    between atoms: C_27  and  C_33
   18  A    between atoms: C_32  and  O_36
   19  A    between atoms: O_34  and  C_50
   20  A    between atoms: O_36  and  C_38
   21  A    between atoms: C_37  and  C_45
                            x       y       z     vdW  Elec       q    Type
                         _______ _______ _______ _____ _____    ______ ____

>  <TORSDO>
F 21

$$$$
=
 OpenBabel10222415353D

 54 60  0  0  1  0  0  0  0  0999 V2000
  190.4770  177.3820  145.5420 C   0  0  2  0  0  0  0  0  0  0  0  0
  189.6530  177.3440  144.2790 C   0  0  1  0  0  0  0  0  0  0  0  0
  188.3460  177.7650  144.1530 O   0  0  0  0  0  0  0  0  0  0  0  0
  189.7820  177.6830  146.7170 O   0  0  0  0  0  1  0  0  0  0  0  0
  190.5680  178.5310  144.5660 C   0  0  0  0  0  2  0  0  0  0  0  0
  189.8650  175.4560  142.7470 O   0  0  0  0  0  1  0  0  0  0  0  0
  188.3110  177.2240  142.8340 C   0  0  2  0  0  0  0  0  0  0  0  0
  189.3330  177.6980  141.7580 C   0  0  1  0  0  0  0  0  0  0  0  0
  188.0090  178.4160  141.9550 C   0  0  1  0  0  3  0  0  0  0  0  0
  189.8120  176.8420  142.9050 C   0  0  1  0  0  0  0  0  0  0  0  0
  191.6960  176.5220  145.6330 C   0  0  0  0  0  3  0  0  0  0  0  0
  192.3580  175.4840  147.8620 O   0  0  0  0  0  0  0  0  0  0  0  0
  192.0420  175.9870  146.7740 C   0  0  0  0  0  0  0  0  0  0  0  0
  189.2870  176.8860  140.5810 O   0  0  0  0  0  0  0  0  0  0  0  0
  191.2650  177.6810  139.7340 O   0  0  0  0  0  0  0  0  0  0  0  0
  190.3390  176.8270  139.6620 C   0  0  0  0  0  0  0  0  0  0  0  0
  190.3810  175.7870  138.5820 C   0  0  0  0  0  2  0  0  0  0  0  0
  190.3160  176.4190  137.1860 C   0  0  2  0  0  3  0  0  0  0  0  0
  189.1840  175.9350  136.5130 O   0  0  0  0  0  0  0  0  0  0  0  0
  188.1830  175.8290  137.4950 C   0  0  1  0  0  3  0  0  0  0  0  0
  186.9250  176.2610  137.0650 C   0  0  2  0  0  3  0  0  0  0  0  0
  187.1980  174.7840  137.0760 N   0  0  0  0  0  0  0  0  0  0  0  0
  186.8210  173.4240  136.8490 C   0  0  0  0  0  0  0  0  0  0  0  0
  187.9330  172.2390  137.1280 S   0  0  0  0  0  0  0  0  0  0  0  0
  181.8690  174.0440  137.2510 C   0  0  0  0  0  1  0  0  0  0  0  0
  182.8300  172.4830  135.5570 C   0  0  0  0  0  3  0  0  0  0  0  0
  183.9240  171.8760  134.9350 C   0  0  0  0  0  3  0  0  0  0  0  0
  185.2270  172.1860  135.3480 C   0  0  0  0  0  3  0  0  0  0  0  0
  185.4490  173.1010  136.3910 C   0  0  0  0  0  0  0  0  0  0  0  0
  183.0360  173.3970  136.5920 C   0  0  0  0  0  0  0  0  0  0  0  0
  184.3380  173.7010  137.0080 C   0  0  0  0  0  3  0  0  0  0  0  0
  186.8320  176.7400  135.6100 C   0  0  0  0  0  2  0  0  0  0  0  0
  187.3100  178.8480  136.8820 C   0  0  0  0  0  1  0  0  0  0  0  0
  187.2040  178.2180  135.5020 C   0  0  0  0  0  2  0  0  0  0  0  0
  191.5840  176.1190  136.3700 C   0  0  0  0  0  2  0  0  0  0  0  0
  192.4860  175.1060  137.0700 C   0  0  0  0  0  2  0  0  0  0  0  0
  193.8060  175.7570  137.4640 C   0  0  0  0  0  2  0  0  0  0  0  0
  194.2870  176.6010  136.3750 N   0  0  0  0  0  2  0  0  0  0  0  0
  195.2130  176.1400  135.3840 C   0  0  0  0  0  3  0  0  0  0  0  0
  195.6720  174.9300  135.4100 N   0  0  0  0  0  2  0  0  0  0  0  0
  186.9340  178.0620  140.9310 C   0  0  0  0  0  2  0  0  0  0  0  0
  185.7300  178.9880  141.0520 C   0  0  1  0  0  3  0  0  0  0  0  0
  185.2910  179.3500  139.7900 F   0  0  0  0  0  0  0  0  0  0  0  0
  184.5900  178.3500  141.8450 C   0  0  0  0  0  2  0  0  0  0  0  0
  183.2630  178.3960  141.0970 C   0  0  0  0  0  2  0  0  0  0  0  0
  183.0780  177.2190  140.3650 O   0  0  0  0  0  0  0  0  0  0  0  0
  183.0380  177.4670  136.6350 C   0  0  0  0  0  2  0  0  0  0  0  0
  181.5680  177.8740  136.5250 C   0  0  1  0  0  3  0  0  0  0  0  0
  182.1020  179.0640  139.2600 C   0  0  0  0  0  2  0  0  0  0  0  0
  181.3810  179.2630  136.9260 N   0  0  0  0  0  0  0  0  0  0  0  0
  183.6090  177.5070  138.0580 C   0  0  0  0  0  2  0  0  0  0  0  0
  181.1080  177.7040  135.0910 C   0  0  0  0  0  1  0  0  0  0  0  0
  182.5450  177.6370  139.1450 C   0  0  1  0  0  3  0  0  0  0  0  0
  181.5850  179.7750  138.2530 C   0  0  0  0  0  3  0  0  0  0  0  0
  1 11  1  0  0  0  0
  1  4  1  1  0  0  0
  2  5  1  6  0  0  0
  2  1  1  0  0  0  0
  3  2  1  0  0  0  0
  5  1  1  0  0  0  0
  7 10  1  0  0  0  0
  7  3  1  1  0  0  0
  8 14  1  6  0  0  0
  8  9  1  0  0  0  0
  8  7  1  0  0  0  0
  8 10  1  0  0  0  0
  9 41  1  6  0  0  0
  9  7  1  0  0  0  0
 10  6  1  6  0  0  0
 10  2  1  0  0  0  0
 11 13  2  0  0  0  0
 13 12  2  0  0  0  0
 16 15  2  0  0  0  0
 16 14  1  0  0  0  0
 17 16  1  0  0  0  0
 18 35  1  6  0  0  0
 18 17  1  0  0  0  0
 19 18  1  0  0  0  0
 20 19  1  6  0  0  0
 21 32  1  6  0  0  0
 21 22  1  0  0  0  0
 21 20  1  0  0  0  0
 22 20  1  0  0  0  0
 23 22  1  0  0  0  0
 23 24  2  0  0  0  0
 26 30  1  0  0  0  0
 27 28  1  0  0  0  0
 27 26  2  0  0  0  0
 28 29  2  0  0  0  0
 29 23  1  0  0  0  0
 29 31  1  0  0  0  0
 30 31  2  0  0  0  0
 30 25  1  0  0  0  0
 34 32  1  0  0  0  0
 34 33  1  0  0  0  0
 35 36  1  0  0  0  0
 36 37  1  0  0  0  0
 38 37  1  0  0  0  0
 39 40  2  0  0  0  0
 39 38  1  0  0  0  0
 41 42  1  0  0  0  0
 42 43  1  6  0  0  0
 42 44  1  0  0  0  0
 45 44  1  0  0  0  0
 46 45  1  0  0  0  0
 47 51  1  0  0  0  0
 48 52  1  6  0  0  0
 48 47  1  0  0  0  0
 48 50  1  0  0  0  0
 50 54  2  0  0  0  0
 51 53  1  0  0  0  0
 53 49  1  0  0  0  0
 53 46  1  1  0  0  0
 54 49  1  0  0  0  0
M  END
>  <MODEL>
7

>  <REMARK>
 VINA RESULT:      -6.5      3.464      7.679
  Name = 
  21 active torsions:
  status: ('A' for Active; 'I' for Inactive)
    1  A    between atoms: C_2  and  N_42
    2  A    between atoms: C_2  and  C_44
    3  A    between atoms: C_3  and  C_8
    4  A    between atoms: C_6  and  O_34
    5  A    between atoms: C_6  and  C_52
    6  A    between atoms: C_7  and  C_28
    7  A    between atoms: C_7  and  N_30
    8  A    between atoms: C_10  and  C_27
    9  A    between atoms: C_10  and  C_52
   10  A    between atoms: C_11  and  C_38
   11  A    between atoms: C_11  and  C_46
   12  A    between atoms: C_13  and  C_28
   13  A    between atoms: C_13  and  C_46
   14  A    between atoms: C_14  and  C_45
   15  A    between atoms: O_17  and  C_35
   16  A    between atoms: O_17  and  C_46
   17  A    between atoms: C_27  and  C_33
   18  A    between atoms: C_32  and  O_36
   19  A    between atoms: O_34  and  C_50
   20  A    between atoms: O_36  and  C_38
   21  A    between atoms: C_37  and  C_45
                            x       y       z     vdW  Elec       q    Type
                         _______ _______ _______ _____ _____    ______ ____

>  <TORSDO>
F 21

$$$$
=
 OpenBabel10222415353D

 54 60  0  0  1  0  0  0  0  0999 V2000
  190.4310  177.2620  145.7130 C   0  0  2  0  0  0  0  0  0  0  0  0
  189.6760  177.3070  144.4070 C   0  0  1  0  0  0  0  0  0  0  0  0
  188.3700  177.7160  144.2410 O   0  0  0  0  0  0  0  0  0  0  0  0
  189.6670  177.4620  146.8660 O   0  0  0  0  0  1  0  0  0  0  0  0
  190.5510  178.4840  144.8320 C   0  0  0  0  0  2  0  0  0  0  0  0
  190.0080  175.5450  142.7510 O   0  0  0  0  0  1  0  0  0  0  0  0
  188.4170  177.2760  142.8850 C   0  0  2  0  0  0  0  0  0  0  0  0
  189.4860  177.8480  141.9050 C   0  0  1  0  0  0  0  0  0  0  0  0
  188.1390  178.5280  142.0820 C   0  0  1  0  0  3  0  0  0  0  0  0
  189.9190  176.9140  143.0090 C   0  0  1  0  0  0  0  0  0  0  0  0
  191.6590  176.4170  145.8070 C   0  0  0  0  0  3  0  0  0  0  0  0
  192.4820  175.6140  148.0790 O   0  0  0  0  0  0  0  0  0  0  0  0
  192.0880  176.0020  146.9690 C   0  0  0  0  0  0  0  0  0  0  0  0
  189.5200  177.1270  140.6700 O   0  0  0  0  0  0  0  0  0  0  0  0
  191.7060  177.4500  140.0550 O   0  0  0  0  0  0  0  0  0  0  0  0
  190.5020  177.3400  139.6980 C   0  0  0  0  0  0  0  0  0  0  0  0
  190.1530  177.4590  138.2430 C   0  0  0  0  0  2  0  0  0  0  0  0
  189.0350  176.4860  137.8490 C   0  0  2  0  0  3  0  0  0  0  0  0
  189.4870  175.6600  136.8090 O   0  0  0  0  0  0  0  0  0  0  0  0
  190.1410  174.5880  137.4400 C   0  0  1  0  0  3  0  0  0  0  0  0
  190.1360  173.4070  136.6920 C   0  0  2  0  0  3  0  0  0  0  0  0
  191.3790  174.2510  136.6710 N   0  0  0  0  0  0  0  0  0  0  0  0
  192.7120  174.5320  136.2410 C   0  0  0  0  0  0  0  0  0  0  0  0
  192.9320  175.5290  134.9460 S   0  0  0  0  0  0  0  0  0  0  0  0
  196.1760  174.8650  139.8420 C   0  0  0  0  0  1  0  0  0  0  0  0
  196.0750  172.8710  138.3440 C   0  0  0  0  0  3  0  0  0  0  0  0
  195.4940  172.1620  137.2890 C   0  0  0  0  0  3  0  0  0  0  0  0
  194.3930  172.6960  136.6060 C   0  0  0  0  0  3  0  0  0  0  0  0
  193.8650  173.9470  136.9660 C   0  0  0  0  0  0  0  0  0  0  0  0
  195.5570  174.1140  138.7160 C   0  0  0  0  0  0  0  0  0  0  0  0
  194.4610  174.6500  138.0290 C   0  0  0  0  0  3  0  0  0  0  0  0
  189.4630  173.4780  135.3150 C   0  0  0  0  0  2  0  0  0  0  0  0
  186.9560  173.4690  135.2580 C   0  0  0  0  0  1  0  0  0  0  0  0
  188.2080  172.6070  135.2820 C   0  0  0  0  0  2  0  0  0  0  0  0
  187.7620  177.2320  137.4170 C   0  0  0  0  0  2  0  0  0  0  0  0
  187.4640  177.0390  135.9330 C   0  0  0  0  0  2  0  0  0  0  0  0
  186.0480  177.5030  135.6130 C   0  0  0  0  0  2  0  0  0  0  0  0
  185.2300  177.4630  136.8210 N   0  0  0  0  0  2  0  0  0  0  0  0
  184.1090  176.5840  136.9720 C   0  0  0  0  0  3  0  0  0  0  0  0
  183.7660  175.7690  136.0270 N   0  0  0  0  0  2  0  0  0  0  0  0
  187.1290  178.2350  140.9770 C   0  0  0  0  0  2  0  0  0  0  0  0
  185.8410  179.0220  141.1850 C   0  0  1  0  0  3  0  0  0  0  0  0
  185.3040  179.3720  139.9570 F   0  0  0  0  0  0  0  0  0  0  0  0
  184.8150  178.2410  142.0070 C   0  0  0  0  0  2  0  0  0  0  0  0
  183.3920  178.4320  141.4970 C   0  0  0  0  0  2  0  0  0  0  0  0
  182.9970  177.3250  140.7390 O   0  0  0  0  0  0  0  0  0  0  0  0
  181.8050  180.0490  138.4730 C   0  0  0  0  0  2  0  0  0  0  0  0
  181.0840  179.1250  137.4900 C   0  0  1  0  0  3  0  0  0  0  0  0
  180.7700  177.3960  139.9580 C   0  0  0  0  0  2  0  0  0  0  0  0
  179.8350  178.6330  138.0600 N   0  0  0  0  0  0  0  0  0  0  0  0
  182.2490  179.3750  139.7760 C   0  0  0  0  0  2  0  0  0  0  0  0
  180.7820  179.8890  136.2160 C   0  0  0  0  0  1  0  0  0  0  0  0
  182.1800  177.8510  139.7360 C   0  0  1  0  0  3  0  0  0  0  0  0
  179.7330  177.7600  139.1960 C   0  0  0  0  0  3  0  0  0  0  0  0
  1 11  1  0  0  0  0
  1  4  1  1  0  0  0
  2  5  1  6  0  0  0
  2  1  1  0  0  0  0
  3  2  1  0  0  0  0
  5  1  1  0  0  0  0
  7 10  1  0  0  0  0
  7  3  1  1  0  0  0
  8 14  1  6  0  0  0
  8  9  1  0  0  0  0
  8  7  1  0  0  0  0
  8 10  1  0  0  0  0
  9 41  1  6  0  0  0
  9  7  1  0  0  0  0
 10  6  1  6  0  0  0
 10  2  1  0  0  0  0
 11 13  2  0  0  0  0
 13 12  2  0  0  0  0
 16 15  2  0  0  0  0
 16 14  1  0  0  0  0
 17 16  1  0  0  0  0
 18 35  1  6  0  0  0
 18 17  1  0  0  0  0
 19 18  1  0  0  0  0
 20 19  1  6  0  0  0
 21 32  1  6  0  0  0
 21 20  1  0  0  0  0
 22 21  1  0  0  0  0
 22 20  1  0  0  0  0
 23 22  1  0  0  0  0
 23 29  1  0  0  0  0
 24 23  2  0  0  0  0
 26 30  1  0  0  0  0
 27 26  2  0  0  0  0
 28 29  2  0  0  0  0
 28 27  1  0  0  0  0
 29 31  1  0  0  0  0
 30 25  1  0  0  0  0
 31 30  2  0  0  0  0
 33 34  1  0  0  0  0
 34 32  1  0  0  0  0
 36 35  1  0  0  0  0
 37 36  1  0  0  0  0
 37 38  1  0  0  0  0
 38 39  1  0  0  0  0
 40 39  2  0  0  0  0
 41 42  1  0  0  0  0
 42 43  1  6  0  0  0
 42 44  1  0  0  0  0
 45 44  1  0  0  0  0
 46 45  1  0  0  0  0
 47 51  1  0  0  0  0
 48 52  1  6  0  0  0
 48 50  1  0  0  0  0
 48 47  1  0  0  0  0
 50 54  2  0  0  0  0
 53 51  1  0  0  0  0
 53 49  1  0  0  0  0
 53 46  1  1  0  0  0
 54 49  1  0  0  0  0
M  END
>  <MODEL>
8

>  <REMARK>
 VINA RESULT:      -6.5      3.682      9.184
  Name = 
  21 active torsions:
  status: ('A' for Active; 'I' for Inactive)
    1  A    between atoms: C_2  and  N_42
    2  A    between atoms: C_2  and  C_44
    3  A    between atoms: C_3  and  C_8
    4  A    between atoms: C_6  and  O_34
    5  A    between atoms: C_6  and  C_52
    6  A    between atoms: C_7  and  C_28
    7  A    between atoms: C_7  and  N_30
    8  A    between atoms: C_10  and  C_27
    9  A    between atoms: C_10  and  C_52
   10  A    between atoms: C_11  and  C_38
   11  A    between atoms: C_11  and  C_46
   12  A    between atoms: C_13  and  C_28
   13  A    between atoms: C_13  and  C_46
   14  A    between atoms: C_14  and  C_45
   15  A    between atoms: O_17  and  C_35
   16  A    between atoms: O_17  and  C_46
   17  A    between atoms: C_27  and  C_33
   18  A    between atoms: C_32  and  O_36
   19  A    between atoms: O_34  and  C_50
   20  A    between atoms: O_36  and  C_38
   21  A    between atoms: C_37  and  C_45
                            x       y       z     vdW  Elec       q    Type
                         _______ _______ _______ _____ _____    ______ ____

>  <TORSDO>
F 21

$$$$
=
 OpenBabel10222415353D

 54 60  0  0  1  0  0  0  0  0999 V2000
  189.8340  177.3600  142.9940 C   0  0  2  0  0  0  0  0  0  0  0  0
  189.3830  177.5910  141.5730 C   0  0  1  0  0  0  0  0  0  0  0  0
  190.0490  177.1860  140.4360 O   0  0  0  0  0  0  0  0  0  0  0  0
  191.1350  176.8720  143.1500 O   0  0  0  0  0  1  0  0  0  0  0  0
  188.8790  176.3800  142.3540 C   0  0  0  0  0  2  0  0  0  0  0  0
  188.3110  179.6990  140.9670 O   0  0  0  0  0  1  0  0  0  0  0  0
  189.1250  177.9280  139.6430 C   0  0  2  0  0  0  0  0  0  0  0  0
  187.5960  177.6360  139.7310 C   0  0  1  0  0  0  0  0  0  0  0  0
  188.4840  176.8860  138.7530 C   0  0  1  0  0  3  0  0  0  0  0  0
  188.2890  178.3040  140.8940 C   0  0  1  0  0  0  0  0  0  0  0  0
  189.2520  178.2030  144.0810 C   0  0  0  0  0  3  0  0  0  0  0  0
  188.5200  177.1310  146.2720 O   0  0  0  0  0  0  0  0  0  0  0  0
  188.8730  177.6600  145.2080 C   0  0  0  0  0  0  0  0  0  0  0  0
  186.8230  178.6240  139.0430 O   0  0  0  0  0  0  0  0  0  0  0  0
  184.8820  179.7560  139.5060 O   0  0  0  0  0  0  0  0  0  0  0  0
  185.4280  178.6840  139.1260 C   0  0  0  0  0  0  0  0  0  0  0  0
  184.5700  177.4990  138.7930 C   0  0  0  0  0  2  0  0  0  0  0  0
  183.0890  177.8860  138.6920 C   0  0  2  0  0  3  0  0  0  0  0  0
  182.4340  177.5130  139.8750 O   0  0  0  0  0  0  0  0  0  0  0  0
  181.5510  178.5690  140.1610 C   0  0  1  0  0  3  0  0  0  0  0  0
  180.2670  178.1480  140.5190 C   0  0  2  0  0  3  0  0  0  0  0  0
  181.2120  178.5410  141.6190 N   0  0  0  0  0  0  0  0  0  0  0  0
  181.5470  178.7300  142.9950 C   0  0  0  0  0  0  0  0  0  0  0  0
  180.3300  178.9940  144.0750 S   0  0  0  0  0  0  0  0  0  0  0  0
  184.9380  178.6320  146.6770 C   0  0  0  0  0  1  0  0  0  0  0  0
  185.6450  178.5770  144.2850 C   0  0  0  0  0  3  0  0  0  0  0  0
  185.3440  178.5700  142.9200 C   0  0  0  0  0  3  0  0  0  0  0  0
  184.0090  178.6120  142.4950 C   0  0  0  0  0  3  0  0  0  0  0  0
  182.9620  178.6670  143.4300 C   0  0  0  0  0  0  0  0  0  0  0  0
  184.6140  178.6270  145.2250 C   0  0  0  0  0  0  0  0  0  0  0  0
  183.2810  178.6750  144.8000 C   0  0  0  0  0  3  0  0  0  0  0  0
  180.0410  176.6310  140.5750 C   0  0  0  0  0  2  0  0  0  0  0  0
  179.5010  174.5870  139.2280 C   0  0  0  0  0  1  0  0  0  0  0  0
  179.5630  176.1050  139.2220 C   0  0  0  0  0  2  0  0  0  0  0  0
  182.4130  177.2230  137.4810 C   0  0  0  0  0  2  0  0  0  0  0  0
  181.6610  178.2370  136.6220 C   0  0  0  0  0  2  0  0  0  0  0  0
  181.6590  179.6030  137.2960 C   0  0  0  0  0  2  0  0  0  0  0  0
  180.3420  180.2180  137.1640 N   0  0  0  0  0  2  0  0  0  0  0  0
  180.1470  181.6370  137.1240 C   0  0  0  0  0  3  0  0  0  0  0  0
  181.1490  182.4530  137.2020 N   0  0  0  0  0  2  0  0  0  0  0  0
  188.4140  177.3900  137.3140 C   0  0  0  0  0  2  0  0  0  0  0  0
  187.6920  176.3940  136.4160 C   0  0  1  0  0  3  0  0  0  0  0  0
  187.6400  176.8840  135.1220 F   0  0  0  0  0  0  0  0  0  0  0  0
  188.3560  175.0170  136.4320 C   0  0  0  0  0  2  0  0  0  0  0  0
  187.4020  173.9140  136.8750 C   0  0  0  0  0  2  0  0  0  0  0  0
  187.0440  173.1160  135.7840 O   0  0  0  0  0  0  0  0  0  0  0  0
  183.7050  173.8150  137.3120 C   0  0  0  0  0  2  0  0  0  0  0  0
  182.8850  173.3140  136.1220 C   0  0  1  0  0  3  0  0  0  0  0  0
  185.2980  171.5280  135.7160 C   0  0  0  0  0  3  0  0  0  0  0  0
  182.8940  171.8580  136.0600 N   0  0  0  0  0  2  0  0  0  0  0  0
  185.1970  173.4710  137.2510 C   0  0  0  0  0  2  0  0  0  0  0  0
  181.4550  173.7970  136.2620 C   0  0  0  0  0  1  0  0  0  0  0  0
  185.6590  172.9730  135.8840 C   0  0  1  0  0  3  0  0  0  0  0  0
  184.0520  171.0490  135.8000 C   0  0  0  0  0  3  0  0  0  0  0  0
  1  4  1  1  0  0  0
  1 11  1  0  0  0  0
  2  5  1  1  0  0  0
  2  1  1  0  0  0  0
  3  2  1  0  0  0  0
  5  1  1  0  0  0  0
  7  8  1  0  0  0  0
  7  3  1  1  0  0  0
  7 10  1  0  0  0  0
  8 14  1  6  0  0  0
  8 10  1  0  0  0  0
  9 41  1  6  0  0  0
  9  7  1  0  0  0  0
  9  8  1  0  0  0  0
 10  6  1  1  0  0  0
 10  2  1  0  0  0  0
 11 13  2  0  0  0  0
 13 12  2  0  0  0  0
 14 16  1  0  0  0  0
 16 15  2  0  0  0  0
 17 16  1  0  0  0  0
 18 35  1  6  0  0  0
 18 17  1  0  0  0  0
 18 19  1  0  0  0  0
 20 19  1  1  0  0  0
 20 21  1  0  0  0  0
 20 22  1  0  0  0  0
 21 32  1  1  0  0  0
 21 22  1  0  0  0  0
 22 23  1  0  0  0  0
 23 29  1  0  0  0  0
 23 24  2  0  0  0  0
 26 30  1  0  0  0  0
 27 26  2  0  0  0  0
 28 27  1  0  0  0  0
 28 29  2  0  0  0  0
 29 31  1  0  0  0  0
 30 25  1  0  0  0  0
 31 30  2  0  0  0  0
 34 33  1  0  0  0  0
 34 32  1  0  0  0  0
 36 37  1  0  0  0  0
 36 35  1  0  0  0  0
 38 37  1  0  0  0  0
 39 38  1  0  0  0  0
 39 40  2  0  0  0  0
 42 43  1  6  0  0  0
 42 44  1  0  0  0  0
 42 41  1  0  0  0  0
 44 45  1  0  0  0  0
 46 45  1  0  0  0  0
 48 52  1  1  0  0  0
 48 47  1  0  0  0  0
 49 54  2  0  0  0  0
 49 53  1  0  0  0  0
 50 48  1  0  0  0  0
 51 47  1  0  0  0  0
 53 46  1  1  0  0  0
 53 51  1  0  0  0  0
 54 50  1  0  0  0  0
M  END
>  <MODEL>
9

>  <REMARK>
 VINA RESULT:      -6.4      3.873      7.356
  Name = 
  21 active torsions:
  status: ('A' for Active; 'I' for Inactive)
    1  A    between atoms: C_2  and  N_42
    2  A    between atoms: C_2  and  C_44
    3  A    between atoms: C_3  and  C_8
    4  A    between atoms: C_6  and  O_34
    5  A    between atoms: C_6  and  C_52
    6  A    between atoms: C_7  and  C_28
    7  A    between atoms: C_7  and  N_30
    8  A    between atoms: C_10  and  C_27
    9  A    between atoms: C_10  and  C_52
   10  A    between atoms: C_11  and  C_38
   11  A    between atoms: C_11  and  C_46
   12  A    between atoms: C_13  and  C_28
   13  A    between atoms: C_13  and  C_46
   14  A    between atoms: C_14  and  C_45
   15  A    between atoms: O_17  and  C_35
   16  A    between atoms: O_17  and  C_46
   17  A    between atoms: C_27  and  C_33
   18  A    between atoms: C_32  and  O_36
   19  A    between atoms: O_34  and  C_50
   20  A    between atoms: O_36  and  C_38
   21  A    between atoms: C_37  and  C_45
                            x       y       z     vdW  Elec       q    Type
                         _______ _______ _______ _____ _____    ______ ____

>  <TORSDO>
F 21

$$$$
