=
 OpenBabel10222418063D

 35 39  0  0  1  0  0  0  0  0999 V2000
  186.0040  178.6600  140.6990 C   0  0  0  0  0  0  0  0  0  0  0  0
  187.2290  178.9540  140.6380 O   0  0  0  0  0  0  0  0  0  0  0  0
  184.3070  178.9630  143.6750 C   0  0  0  0  0  3  0  0  0  0  0  0
  183.7310  178.5010  140.2390 N   0  0  0  0  0  0  0  0  0  0  0  0
  185.0300  178.6810  139.5540 C   0  0  2  0  0  3  0  0  0  0  0  0
  185.3220  178.3620  141.8960 N   0  0  0  0  0  0  0  0  0  0  0  0
  183.3070  178.6990  142.7300 C   0  0  0  0  0  3  0  0  0  0  0  0
  184.0380  178.3130  141.6230 C   0  0  0  0  0  0  0  0  0  0  0  0
  185.5310  178.8090  143.1150 N   0  0  0  0  0  0  0  0  0  0  0  0
  180.2080  182.1730  137.3340 C   0  0  0  0  0  1  0  0  0  0  0  0
  181.4840  177.0450  140.1760 O   0  0  0  0  0  1  0  0  0  0  0  0
  179.9880  178.7460  139.3590 C   0  0  1  0  0  0  0  0  0  0  0  0
  179.6820  178.9440  140.7130 O   0  0  0  0  0  1  0  0  0  0  0  0
  178.9320  180.9600  139.4000 O   0  0  0  0  0  1  0  0  0  0  0  0
  180.8230  176.7660  137.5700 C   0  0  0  0  0  2  0  0  0  0  0  0
  179.6960  180.0960  138.6030 C   0  0  1  0  0  3  0  0  0  0  0  0
  182.5000  179.1650  139.8000 C   0  0  2  0  0  3  0  0  0  0  0  0
  181.4430  178.1510  139.3080 C   0  0  1  0  0  0  0  0  0  0  0  0
  179.4320  177.3910  137.5610 C   0  0  0  0  0  2  0  0  0  0  0  0
  180.7970  180.8670  137.8390 C   0  0  0  0  0  0  0  0  0  0  0  0
  181.7660  177.7230  137.9970 O   0  0  0  0  0  0  0  0  0  0  0  0
  181.8660  181.2140  138.7020 O   0  0  0  0  0  0  0  0  0  0  0  0
  181.2020  180.1230  136.5620 C   0  0  0  0  0  1  0  0  0  0  0  0
  182.8400  180.2050  138.7410 C   0  0  0  0  0  2  0  0  0  0  0  0
  179.0760  177.7720  138.8720 O   0  0  0  0  0  0  0  0  0  0  0  0
  185.2910  177.5080  138.6220 C   0  0  0  0  0  2  0  0  0  0  0  0
  185.9210  178.1070  137.0270 S   0  0  0  0  0  0  0  0  0  0  0  0
  186.4850  175.1280  136.8250 O   0  0  0  0  0  1  0  0  0  0  0  0
  188.5820  179.4240  137.6790 O   0  0  0  0  0  1  0  0  0  0  0  0
  188.6550  178.0430  137.5490 C   0  0  0  0  0  0  0  0  0  0  0  0
  187.6060  175.8950  137.1210 C   0  0  0  0  0  0  0  0  0  0  0  0
  189.8840  177.4000  137.7210 C   0  0  0  0  0  3  0  0  0  0  0  0
  189.9800  176.0150  137.5910 C   0  0  0  0  0  3  0  0  0  0  0  0
  187.5060  177.2900  137.2510 C   0  0  0  0  0  0  0  0  0  0  0  0
  188.8410  175.2630  137.2900 C   0  0  0  0  0  3  0  0  0  0  0  0
  1  6  1  0  0  0  0
  2  1  2  0  0  0  0
  4  8  1  0  0  0  0
  5 26  1  6  0  0  0
  5  4  1  0  0  0  0
  5  1  1  0  0  0  0
  6  9  1  0  0  0  0
  7  3  1  0  0  0  0
  8  6  1  0  0  0  0
  8  7  2  0  0  0  0
  9  3  2  0  0  0  0
 10 20  1  0  0  0  0
 12 13  1  1  0  0  0
 15 21  1  0  0  0  0
 16 12  1  0  0  0  0
 16 14  1  1  0  0  0
 17 24  1  6  0  0  0
 17  4  1  0  0  0  0
 18 12  1  0  0  0  0
 18 17  1  0  0  0  0
 18 11  1  1  0  0  0
 19 15  1  0  0  0  0
 19 25  1  0  0  0  0
 20 16  1  0  0  0  0
 20 22  1  0  0  0  0
 21 18  1  0  0  0  0
 22 24  1  0  0  0  0
 23 20  1  0  0  0  0
 25 12  1  0  0  0  0
 27 34  1  0  0  0  0
 27 26  1  0  0  0  0
 28 31  1  0  0  0  0
 30 29  1  0  0  0  0
 30 32  1  0  0  0  0
 31 34  1  0  0  0  0
 31 35  2  0  0  0  0
 33 32  2  0  0  0  0
 34 30  2  0  0  0  0
 35 33  1  0  0  0  0
M  END
>  <MODEL>
1

>  <REMARK>
 VINA RESULT:      -6.0      0.000      0.000
  Name = 
  4 active torsions:
  status: ('A' for Active; 'I' for Inactive)
    1  A    between atoms: C_4  and  C_16
    2  A    between atoms: C_4  and  S_21
    3  A    between atoms: N_15  and  C_17
    4  A    between atoms: S_21  and  C_30
                            x       y       z     vdW  Elec       q    Type
                         _______ _______ _______ _____ _____    ______ ____

>  <TORSDO>
F 4

$$$$
=
 OpenBabel10222418063D

 35 39  0  0  1  0  0  0  0  0999 V2000
  189.0750  176.9940  138.4110 C   0  0  0  0  0  0  0  0  0  0  0  0
  187.8160  177.0130  138.4790 O   0  0  0  0  0  0  0  0  0  0  0  0
  190.9590  177.2390  141.2780 C   0  0  0  0  0  3  0  0  0  0  0  0
  191.2630  176.4230  137.8730 N   0  0  0  0  0  0  0  0  0  0  0  0
  189.8940  176.3660  137.3180 C   0  0  2  0  0  3  0  0  0  0  0  0
  189.9280  177.4770  139.4240 N   0  0  0  0  0  0  0  0  0  0  0  0
  191.8890  176.9290  140.2770 C   0  0  0  0  0  3  0  0  0  0  0  0
  191.1540  177.1130  139.1210 C   0  0  0  0  0  0  0  0  0  0  0  0
  189.7510  177.5090  140.7270 N   0  0  0  0  0  0  0  0  0  0  0  0
  193.5760  171.3440  136.0890 C   0  0  0  0  0  1  0  0  0  0  0  0
  193.8130  177.1650  137.5240 O   0  0  0  0  0  1  0  0  0  0  0  0
  194.7720  174.9790  137.2050 C   0  0  1  0  0  0  0  0  0  0  0  0
  195.0630  175.0490  138.5750 O   0  0  0  0  0  1  0  0  0  0  0  0
  195.2020  172.6460  137.8300 O   0  0  0  0  0  1  0  0  0  0  0  0
  194.4310  176.6010  134.9530 C   0  0  0  0  0  2  0  0  0  0  0  0
  194.6680  173.4570  136.8180 C   0  0  1  0  0  3  0  0  0  0  0  0
  192.2570  175.3680  137.6530 C   0  0  2  0  0  3  0  0  0  0  0  0
  193.5270  175.9090  136.9600 C   0  0  1  0  0  0  0  0  0  0  0  0
  195.6040  175.6470  135.1460 C   0  0  0  0  0  2  0  0  0  0  0  0
  193.3740  172.8430  136.2340 C   0  0  0  0  0  0  0  0  0  0  0  0
  193.2830  176.0680  135.5730 O   0  0  0  0  0  0  0  0  0  0  0  0
  192.2830  173.0180  137.1210 O   0  0  0  0  0  0  0  0  0  0  0  0
  193.1360  173.3260  134.8000 C   0  0  0  0  0  1  0  0  0  0  0  0
  191.6150  174.2270  136.8750 C   0  0  0  0  0  2  0  0  0  0  0  0
  195.8930  175.5230  136.5220 O   0  0  0  0  0  0  0  0  0  0  0  0
  189.8120  177.2080  136.0530 C   0  0  0  0  0  2  0  0  0  0  0  0
  189.3500  176.1650  134.6390 S   0  0  0  0  0  0  0  0  0  0  0  0
  188.1480  173.6760  135.9010 O   0  0  0  0  0  1  0  0  0  0  0  0
  187.1280  178.2390  134.5940 O   0  0  0  0  0  1  0  0  0  0  0  0
  186.7490  177.0220  135.1450 C   0  0  0  0  0  0  0  0  0  0  0  0
  187.2600  174.7400  135.8000 C   0  0  0  0  0  0  0  0  0  0  0  0
  185.4420  176.8560  135.6110 C   0  0  0  0  0  3  0  0  0  0  0  0
  185.0420  175.6420  136.1720 C   0  0  0  0  0  3  0  0  0  0  0  0
  187.6660  175.9600  135.2340 C   0  0  0  0  0  0  0  0  0  0  0  0
  185.9520  174.5860  136.2670 C   0  0  0  0  0  3  0  0  0  0  0  0
  1  2  2  0  0  0  0
  1  6  1  0  0  0  0
  4  8  1  0  0  0  0
  5 26  1  6  0  0  0
  5  4  1  0  0  0  0
  5  1  1  0  0  0  0
  6  9  1  0  0  0  0
  7  3  1  0  0  0  0
  8  6  1  0  0  0  0
  8  7  2  0  0  0  0
  9  3  2  0  0  0  0
 10 20  1  0  0  0  0
 12 13  1  1  0  0  0
 15 19  1  0  0  0  0
 15 21  1  0  0  0  0
 16 12  1  0  0  0  0
 16 14  1  1  0  0  0
 17 24  1  6  0  0  0
 17  4  1  0  0  0  0
 18 12  1  0  0  0  0
 18 11  1  1  0  0  0
 18 17  1  0  0  0  0
 19 25  1  0  0  0  0
 20 16  1  0  0  0  0
 20 22  1  0  0  0  0
 21 18  1  0  0  0  0
 23 20  1  0  0  0  0
 24 22  1  0  0  0  0
 25 12  1  0  0  0  0
 27 34  1  0  0  0  0
 27 26  1  0  0  0  0
 29 30  1  0  0  0  0
 30 34  2  0  0  0  0
 30 32  1  0  0  0  0
 31 28  1  0  0  0  0
 31 35  2  0  0  0  0
 32 33  2  0  0  0  0
 33 35  1  0  0  0  0
 34 31  1  0  0  0  0
M  END
>  <MODEL>
2

>  <REMARK>
 VINA RESULT:      -5.9      5.572     10.636
  Name = 
  4 active torsions:
  status: ('A' for Active; 'I' for Inactive)
    1  A    between atoms: C_4  and  C_16
    2  A    between atoms: C_4  and  S_21
    3  A    between atoms: N_15  and  C_17
    4  A    between atoms: S_21  and  C_30
                            x       y       z     vdW  Elec       q    Type
                         _______ _______ _______ _____ _____    ______ ____

>  <TORSDO>
F 4

$$$$
=
 OpenBabel10222418063D

 35 39  0  0  1  0  0  0  0  0999 V2000
  185.8870  178.7110  140.8570 C   0  0  0  0  0  0  0  0  0  0  0  0
  187.1170  178.9830  140.8450 O   0  0  0  0  0  0  0  0  0  0  0  0
  184.1050  178.9210  143.7910 C   0  0  0  0  0  3  0  0  0  0  0  0
  183.6260  178.6160  140.3230 N   0  0  0  0  0  0  0  0  0  0  0  0
  184.9480  178.7990  139.6860 C   0  0  2  0  0  3  0  0  0  0  0  0
  185.1630  178.3760  142.0190 N   0  0  0  0  0  0  0  0  0  0  0  0
  183.1290  178.7170  142.8060 C   0  0  0  0  0  3  0  0  0  0  0  0
  183.8870  178.3630  141.7060 C   0  0  0  0  0  0  0  0  0  0  0  0
  185.3420  178.7670  143.2620 N   0  0  0  0  0  0  0  0  0  0  0  0
  180.2410  182.3620  137.3500 C   0  0  0  0  0  1  0  0  0  0  0  0
  181.3180  177.2580  140.3140 O   0  0  0  0  0  1  0  0  0  0  0  0
  179.8900  179.0020  139.4650 C   0  0  1  0  0  0  0  0  0  0  0  0
  179.6040  179.2470  140.8160 O   0  0  0  0  0  1  0  0  0  0  0  0
  178.9320  181.2600  139.4560 O   0  0  0  0  0  1  0  0  0  0  0  0
  180.6230  176.9420  137.7210 C   0  0  0  0  0  2  0  0  0  0  0  0
  179.6500  180.3430  138.6760 C   0  0  1  0  0  3  0  0  0  0  0  0
  182.4210  179.3210  139.8760 C   0  0  2  0  0  3  0  0  0  0  0  0
  181.3170  178.3420  139.4180 C   0  0  1  0  0  0  0  0  0  0  0  0
  179.2600  177.6270  137.7060 C   0  0  0  0  0  2  0  0  0  0  0  0
  180.7770  181.0450  137.8850 C   0  0  0  0  0  0  0  0  0  0  0  0
  181.6100  177.8670  138.1160 O   0  0  0  0  0  0  0  0  0  0  0  0
  181.8680  181.3670  138.7310 O   0  0  0  0  0  0  0  0  0  0  0  0
  181.1390  180.2520  136.6240 C   0  0  0  0  0  1  0  0  0  0  0  0
  182.7970  180.3180  138.7880 C   0  0  0  0  0  2  0  0  0  0  0  0
  178.9320  178.0560  139.0100 O   0  0  0  0  0  0  0  0  0  0  0  0
  185.2160  177.6610  138.7130 C   0  0  0  0  0  2  0  0  0  0  0  0
  186.3230  178.2230  137.3860 S   0  0  0  0  0  0  0  0  0  0  0  0
  184.6650  176.6710  135.3680 O   0  0  0  0  0  1  0  0  0  0  0  0
  188.5810  176.3670  138.2210 O   0  0  0  0  0  1  0  0  0  0  0  0
  187.7130  175.8120  137.2880 C   0  0  0  0  0  0  0  0  0  0  0  0
  185.7550  175.9650  135.8610 C   0  0  0  0  0  0  0  0  0  0  0  0
  187.9350  174.5090  136.8330 C   0  0  0  0  0  3  0  0  0  0  0  0
  187.0770  173.9360  135.8940 C   0  0  0  0  0  3  0  0  0  0  0  0
  186.6160  176.5470  136.8070 C   0  0  0  0  0  0  0  0  0  0  0  0
  185.9890  174.6640  135.4080 C   0  0  0  0  0  3  0  0  0  0  0  0
  1  6  1  0  0  0  0
  2  1  2  0  0  0  0
  4  8  1  0  0  0  0
  5 26  1  6  0  0  0
  5  4  1  0  0  0  0
  5  1  1  0  0  0  0
  6  9  1  0  0  0  0
  7  3  1  0  0  0  0
  8  6  1  0  0  0  0
  8  7  2  0  0  0  0
  9  3  2  0  0  0  0
 10 20  1  0  0  0  0
 12 13  1  1  0  0  0
 15 21  1  0  0  0  0
 16 14  1  1  0  0  0
 16 12  1  0  0  0  0
 17 24  1  6  0  0  0
 17  4  1  0  0  0  0
 18 12  1  0  0  0  0
 18 17  1  0  0  0  0
 18 11  1  1  0  0  0
 19 15  1  0  0  0  0
 19 25  1  0  0  0  0
 20 16  1  0  0  0  0
 20 22  1  0  0  0  0
 21 18  1  0  0  0  0
 22 24  1  0  0  0  0
 23 20  1  0  0  0  0
 25 12  1  0  0  0  0
 27 26  1  0  0  0  0
 28 31  1  0  0  0  0
 30 29  1  0  0  0  0
 31 34  1  0  0  0  0
 32 30  1  0  0  0  0
 33 32  2  0  0  0  0
 34 30  2  0  0  0  0
 34 27  1  0  0  0  0
 35 31  2  0  0  0  0
 35 33  1  0  0  0  0
M  END
>  <MODEL>
3

>  <REMARK>
 VINA RESULT:      -5.6      1.083      1.438
  Name = 
  4 active torsions:
  status: ('A' for Active; 'I' for Inactive)
    1  A    between atoms: C_4  and  C_16
    2  A    between atoms: C_4  and  S_21
    3  A    between atoms: N_15  and  C_17
    4  A    between atoms: S_21  and  C_30
                            x       y       z     vdW  Elec       q    Type
                         _______ _______ _______ _____ _____    ______ ____

>  <TORSDO>
F 4

$$$$
=
 OpenBabel10222418063D

 35 39  0  0  1  0  0  0  0  0999 V2000
  189.9800  177.3370  137.5570 C   0  0  0  0  0  0  0  0  0  0  0  0
  189.6810  178.5550  137.6720 O   0  0  0  0  0  0  0  0  0  0  0  0
  189.3910  175.6900  134.5960 C   0  0  0  0  0  3  0  0  0  0  0  0
  191.1190  175.3110  137.6330 N   0  0  0  0  0  0  0  0  0  0  0  0
  191.0310  176.6040  138.3450 C   0  0  2  0  0  3  0  0  0  0  0  0
  189.4380  176.4780  136.5790 N   0  0  0  0  0  0  0  0  0  0  0  0
  190.1420  174.7820  135.3550 C   0  0  0  0  0  3  0  0  0  0  0  0
  190.1180  175.3540  136.6120 C   0  0  0  0  0  0  0  0  0  0  0  0
  189.0290  176.7490  135.3590 N   0  0  0  0  0  0  0  0  0  0  0  0
  194.8760  171.2020  135.8090 C   0  0  0  0  0  1  0  0  0  0  0  0
  193.3840  176.7380  137.5770 O   0  0  0  0  0  1  0  0  0  0  0  0
  194.9320  174.9240  137.2340 C   0  0  1  0  0  0  0  0  0  0  0  0
  195.0820  174.9610  138.6280 O   0  0  0  0  0  1  0  0  0  0  0  0
  195.9370  172.7510  137.7690 O   0  0  0  0  0  1  0  0  0  0  0  0
  194.3350  176.5680  135.0520 C   0  0  0  0  0  2  0  0  0  0  0  0
  195.2820  173.4660  136.7560 C   0  0  1  0  0  3  0  0  0  0  0  0
  192.3790  174.5830  137.4550 C   0  0  2  0  0  3  0  0  0  0  0  0
  193.5020  175.5000  136.9190 C   0  0  1  0  0  0  0  0  0  0  0  0
  195.7080  175.9520  135.3060 C   0  0  0  0  0  2  0  0  0  0  0  0
  194.2580  172.5740  136.0160 C   0  0  0  0  0  0  0  0  0  0  0  0
  193.3340  175.6970  135.5270 O   0  0  0  0  0  0  0  0  0  0  0  0
  193.0940  172.3780  136.8000 O   0  0  0  0  0  0  0  0  0  0  0  0
  194.0100  173.0870  134.5940 C   0  0  0  0  0  1  0  0  0  0  0  0
  192.1400  173.3780  136.5560 C   0  0  0  0  0  2  0  0  0  0  0  0
  195.9100  175.8020  136.6950 O   0  0  0  0  0  0  0  0  0  0  0  0
  190.5540  176.3780  139.7720 C   0  0  0  0  0  2  0  0  0  0  0  0
  191.4220  177.5030  140.9050 S   0  0  0  0  0  0  0  0  0  0  0  0
  188.6000  178.6080  140.6870 O   0  0  0  0  0  1  0  0  0  0  0  0
  191.5960  176.1760  143.6340 O   0  0  0  0  0  1  0  0  0  0  0  0
  190.3570  176.7430  143.3620 C   0  0  0  0  0  0  0  0  0  0  0  0
  188.8590  177.9580  141.8880 C   0  0  0  0  0  0  0  0  0  0  0  0
  189.3410  176.6630  144.3190 C   0  0  0  0  0  3  0  0  0  0  0  0
  188.0880  177.2230  144.0640 C   0  0  0  0  0  3  0  0  0  0  0  0
  190.1220  177.3960  142.1410 C   0  0  0  0  0  0  0  0  0  0  0  0
  187.8480  177.8680  142.8490 C   0  0  0  0  0  3  0  0  0  0  0  0
  1  2  2  0  0  0  0
  1  5  1  0  0  0  0
  3  7  1  0  0  0  0
  3  9  2  0  0  0  0
  4  5  1  0  0  0  0
  5 26  1  1  0  0  0
  6  8  1  0  0  0  0
  6  1  1  0  0  0  0
  7  8  2  0  0  0  0
  8  4  1  0  0  0  0
  9  6  1  0  0  0  0
 10 20  1  0  0  0  0
 12 13  1  1  0  0  0
 15 19  1  0  0  0  0
 15 21  1  0  0  0  0
 16 12  1  0  0  0  0
 16 14  1  1  0  0  0
 17 24  1  6  0  0  0
 17  4  1  0  0  0  0
 18 12  1  0  0  0  0
 18 17  1  0  0  0  0
 18 11  1  1  0  0  0
 19 25  1  0  0  0  0
 20 16  1  0  0  0  0
 20 22  1  0  0  0  0
 21 18  1  0  0  0  0
 23 20  1  0  0  0  0
 24 22  1  0  0  0  0
 25 12  1  0  0  0  0
 26 27  1  0  0  0  0
 27 34  1  0  0  0  0
 28 31  1  0  0  0  0
 30 29  1  0  0  0  0
 30 32  1  0  0  0  0
 31 34  1  0  0  0  0
 31 35  2  0  0  0  0
 33 32  2  0  0  0  0
 34 30  2  0  0  0  0
 35 33  1  0  0  0  0
M  END
>  <MODEL>
4

>  <REMARK>
 VINA RESULT:      -5.6      6.665     11.475
  Name = 
  4 active torsions:
  status: ('A' for Active; 'I' for Inactive)
    1  A    between atoms: C_4  and  C_16
    2  A    between atoms: C_4  and  S_21
    3  A    between atoms: N_15  and  C_17
    4  A    between atoms: S_21  and  C_30
                            x       y       z     vdW  Elec       q    Type
                         _______ _______ _______ _____ _____    ______ ____

>  <TORSDO>
F 4

$$$$
=
 OpenBabel10222418063D

 35 39  0  0  1  0  0  0  0  0999 V2000
  189.7980  176.0150  137.9200 C   0  0  0  0  0  0  0  0  0  0  0  0
  190.6390  175.6300  138.7760 O   0  0  0  0  0  0  0  0  0  0  0  0
  190.2570  175.2700  134.5950 C   0  0  0  0  0  3  0  0  0  0  0  0
  187.8070  176.4700  136.8090 N   0  0  0  0  0  0  0  0  0  0  0  0
  188.3470  176.3160  138.1770 C   0  0  2  0  0  3  0  0  0  0  0  0
  190.0660  176.1250  136.5410 N   0  0  0  0  0  0  0  0  0  0  0  0
  188.9660  175.8100  134.6540 C   0  0  0  0  0  3  0  0  0  0  0  0
  188.9260  176.3450  135.9270 C   0  0  0  0  0  0  0  0  0  0  0  0
  190.8830  175.4220  135.7870 N   0  0  0  0  0  0  0  0  0  0  0  0
  183.0470  173.0730  136.4410 C   0  0  0  0  0  1  0  0  0  0  0  0
  185.9190  178.3410  136.4790 O   0  0  0  0  0  1  0  0  0  0  0  0
  184.0800  176.8880  135.9220 C   0  0  1  0  0  0  0  0  0  0  0  0
  184.4280  177.1720  134.5940 O   0  0  0  0  0  1  0  0  0  0  0  0
  182.9890  175.1040  134.6410 O   0  0  0  0  0  1  0  0  0  0  0  0
  184.1420  178.0010  138.4870 C   0  0  0  0  0  2  0  0  0  0  0  0
  183.3590  175.4890  135.9370 C   0  0  1  0  0  3  0  0  0  0  0  0
  186.4630  176.0240  136.4280 C   0  0  2  0  0  3  0  0  0  0  0  0
  185.3860  177.0750  136.7800 C   0  0  1  0  0  0  0  0  0  0  0  0
  182.8620  177.7540  137.6950 C   0  0  0  0  0  2  0  0  0  0  0  0
  183.9090  174.2880  136.7410 C   0  0  0  0  0  0  0  0  0  0  0  0
  185.0930  177.0120  138.1640 O   0  0  0  0  0  0  0  0  0  0  0  0
  185.2240  173.9600  136.3300 O   0  0  0  0  0  0  0  0  0  0  0  0
  183.7290  174.5080  138.2470 C   0  0  0  0  0  1  0  0  0  0  0  0
  186.1820  174.6720  137.0680 C   0  0  0  0  0  2  0  0  0  0  0  0
  183.1300  177.8690  136.3140 O   0  0  0  0  0  0  0  0  0  0  0  0
  188.2100  177.6260  138.9390 C   0  0  0  0  0  2  0  0  0  0  0  0
  189.6610  177.8830  140.0020 S   0  0  0  0  0  0  0  0  0  0  0  0
  187.0730  179.2180  140.8680 O   0  0  0  0  0  1  0  0  0  0  0  0
  190.3400  175.8760  142.1820 O   0  0  0  0  0  1  0  0  0  0  0  0
  189.1700  176.5870  142.4170 C   0  0  0  0  0  0  0  0  0  0  0  0
  187.5360  178.2580  141.7590 C   0  0  0  0  0  0  0  0  0  0  0  0
  188.4370  176.3370  143.5810 C   0  0  0  0  0  3  0  0  0  0  0  0
  187.2570  177.0380  143.8340 C   0  0  0  0  0  3  0  0  0  0  0  0
  188.7250  177.5550  141.5010 C   0  0  0  0  0  0  0  0  0  0  0  0
  186.8070  177.9970  142.9230 C   0  0  0  0  0  3  0  0  0  0  0  0
  1  5  1  0  0  0  0
  1  2  2  0  0  0  0
  3  7  1  0  0  0  0
  3  9  2  0  0  0  0
  4  5  1  0  0  0  0
  5 26  1  1  0  0  0
  6  1  1  0  0  0  0
  7  8  2  0  0  0  0
  8  6  1  0  0  0  0
  8  4  1  0  0  0  0
  9  6  1  0  0  0  0
 10 20  1  0  0  0  0
 12 13  1  6  0  0  0
 12 16  1  0  0  0  0
 12 25  1  0  0  0  0
 12 18  1  0  0  0  0
 16 14  1  6  0  0  0
 16 20  1  0  0  0  0
 17 18  1  0  0  0  0
 17  4  1  1  0  0  0
 17 24  1  0  0  0  0
 18 11  1  6  0  0  0
 18 21  1  0  0  0  0
 19 15  1  0  0  0  0
 20 23  1  0  0  0  0
 21 15  1  0  0  0  0
 22 20  1  0  0  0  0
 22 24  1  0  0  0  0
 25 19  1  0  0  0  0
 26 27  1  0  0  0  0
 27 34  1  0  0  0  0
 28 31  1  0  0  0  0
 29 30  1  0  0  0  0
 30 32  1  0  0  0  0
 31 35  2  0  0  0  0
 32 33  2  0  0  0  0
 34 31  1  0  0  0  0
 34 30  2  0  0  0  0
 35 33  1  0  0  0  0
M  END
>  <MODEL>
5

>  <REMARK>
 VINA RESULT:      -5.3      3.624      6.593
  Name = 
  4 active torsions:
  status: ('A' for Active; 'I' for Inactive)
    1  A    between atoms: C_4  and  C_16
    2  A    between atoms: C_4  and  S_21
    3  A    between atoms: N_15  and  C_17
    4  A    between atoms: S_21  and  C_30
                            x       y       z     vdW  Elec       q    Type
                         _______ _______ _______ _____ _____    ______ ____

>  <TORSDO>
F 4

$$$$
=
 OpenBabel10222418063D

 35 39  0  0  1  0  0  0  0  0999 V2000
  186.1920  178.2820  138.8940 C   0  0  0  0  0  0  0  0  0  0  0  0
  187.2640  178.3560  138.2350 O   0  0  0  0  0  0  0  0  0  0  0  0
  186.0920  179.3780  142.1520 C   0  0  0  0  0  3  0  0  0  0  0  0
  183.9600  178.4170  139.5290 N   0  0  0  0  0  0  0  0  0  0  0  0
  184.8010  178.2580  138.3230 C   0  0  2  0  0  3  0  0  0  0  0  0
  186.1250  178.3150  140.3010 N   0  0  0  0  0  0  0  0  0  0  0  0
  184.7530  179.1180  141.8320 C   0  0  0  0  0  3  0  0  0  0  0  0
  184.8610  178.4280  140.6390 C   0  0  0  0  0  0  0  0  0  0  0  0
  186.9040  178.9300  141.1640 N   0  0  0  0  0  0  0  0  0  0  0  0
  179.9740  182.4290  137.9970 C   0  0  0  0  0  1  0  0  0  0  0  0
  181.7130  177.1370  140.2270 O   0  0  0  0  0  1  0  0  0  0  0  0
  180.1720  178.9700  139.9690 C   0  0  1  0  0  0  0  0  0  0  0  0
  180.3570  179.1500  141.3470 O   0  0  0  0  0  1  0  0  0  0  0  0
  179.3750  181.2560  140.3700 O   0  0  0  0  0  1  0  0  0  0  0  0
  180.1910  176.9870  137.9980 C   0  0  0  0  0  2  0  0  0  0  0  0
  179.7530  180.3600  139.3600 C   0  0  1  0  0  3  0  0  0  0  0  0
  182.7110  179.1850  139.5340 C   0  0  2  0  0  3  0  0  0  0  0  0
  181.4710  178.2680  139.4260 C   0  0  1  0  0  0  0  0  0  0  0  0
  178.9340  177.7150  138.4620 C   0  0  0  0  0  2  0  0  0  0  0  0
  180.5910  181.0680  138.2700 C   0  0  0  0  0  0  0  0  0  0  0  0
  181.2970  177.8560  138.0820 O   0  0  0  0  0  0  0  0  0  0  0  0
  181.9120  181.3080  138.7210 O   0  0  0  0  0  0  0  0  0  0  0  0
  180.4790  180.3340  136.9290 C   0  0  0  0  0  1  0  0  0  0  0  0
  182.7570  180.2270  138.4250 C   0  0  0  0  0  2  0  0  0  0  0  0
  179.0730  178.0830  139.8170 O   0  0  0  0  0  0  0  0  0  0  0  0
  184.5240  176.9120  137.6710 C   0  0  0  0  0  2  0  0  0  0  0  0
  184.2320  177.1300  135.8910 S   0  0  0  0  0  0  0  0  0  0  0  0
  184.5470  174.1080  135.8540 O   0  0  0  0  0  1  0  0  0  0  0  0
  186.9160  178.2650  135.0270 O   0  0  0  0  0  1  0  0  0  0  0  0
  186.8790  176.8770  135.0660 C   0  0  0  0  0  0  0  0  0  0  0  0
  185.6940  174.7990  135.4790 C   0  0  0  0  0  0  0  0  0  0  0  0
  188.0220  176.1490  134.7250 C   0  0  0  0  0  3  0  0  0  0  0  0
  188.0050  174.7540  134.7550 C   0  0  0  0  0  3  0  0  0  0  0  0
  185.7070  176.2030  135.4510 C   0  0  0  0  0  0  0  0  0  0  0  0
  186.8410  174.0800  135.1310 C   0  0  0  0  0  3  0  0  0  0  0  0
  1  6  1  0  0  0  0
  2  1  2  0  0  0  0
  4 17  1  0  0  0  0
  4  8  1  0  0  0  0
  5 26  1  1  0  0  0
  5  1  1  0  0  0  0
  5  4  1  0  0  0  0
  6  8  1  0  0  0  0
  6  9  1  0  0  0  0
  7  3  1  0  0  0  0
  8  7  2  0  0  0  0
  9  3  2  0  0  0  0
 10 20  1  0  0  0  0
 12 13  1  1  0  0  0
 15 21  1  0  0  0  0
 15 19  1  0  0  0  0
 16 12  1  0  0  0  0
 16 14  1  1  0  0  0
 17 24  1  6  0  0  0
 18 17  1  0  0  0  0
 18 12  1  0  0  0  0
 18 11  1  1  0  0  0
 19 25  1  0  0  0  0
 20 22  1  0  0  0  0
 20 16  1  0  0  0  0
 21 18  1  0  0  0  0
 23 20  1  0  0  0  0
 24 22  1  0  0  0  0
 25 12  1  0  0  0  0
 27 26  1  0  0  0  0
 29 30  1  0  0  0  0
 30 34  1  0  0  0  0
 31 28  1  0  0  0  0
 32 33  1  0  0  0  0
 32 30  2  0  0  0  0
 33 35  2  0  0  0  0
 34 31  2  0  0  0  0
 34 27  1  0  0  0  0
 35 31  1  0  0  0  0
M  END
>  <MODEL>
6

>  <REMARK>
 VINA RESULT:      -5.1      1.702      1.902
  Name = 
  4 active torsions:
  status: ('A' for Active; 'I' for Inactive)
    1  A    between atoms: C_4  and  C_16
    2  A    between atoms: C_4  and  S_21
    3  A    between atoms: N_15  and  C_17
    4  A    between atoms: S_21  and  C_30
                            x       y       z     vdW  Elec       q    Type
                         _______ _______ _______ _____ _____    ______ ____

>  <TORSDO>
F 4

$$$$
=
 OpenBabel10222418063D

 35 39  0  0  1  0  0  0  0  0999 V2000
  186.1930  178.2620  138.6030 C   0  0  0  0  0  0  0  0  0  0  0  0
  187.1720  178.3520  137.8140 O   0  0  0  0  0  0  0  0  0  0  0  0
  186.5220  179.2600  141.8770 C   0  0  0  0  0  3  0  0  0  0  0  0
  184.0620  178.3850  139.5250 N   0  0  0  0  0  0  0  0  0  0  0  0
  184.7400  178.2600  138.2160 C   0  0  2  0  0  3  0  0  0  0  0  0
  186.3090  178.2530  140.0080 N   0  0  0  0  0  0  0  0  0  0  0  0
  185.1510  179.0140  141.7250 C   0  0  0  0  0  3  0  0  0  0  0  0
  185.0990  178.3610  140.5100 C   0  0  0  0  0  0  0  0  0  0  0  0
  187.1960  178.8400  140.7810 N   0  0  0  0  0  0  0  0  0  0  0  0
  179.8680  182.3590  138.5530 C   0  0  0  0  0  1  0  0  0  0  0  0
  181.9660  177.1340  140.6250 O   0  0  0  0  0  1  0  0  0  0  0  0
  180.3990  178.9620  140.5710 C   0  0  1  0  0  0  0  0  0  0  0  0
  180.8110  179.1840  141.8930 O   0  0  0  0  0  1  0  0  0  0  0  0
  179.6750  181.2610  141.0280 O   0  0  0  0  0  1  0  0  0  0  0  0
  180.0950  176.9190  138.6860 C   0  0  0  0  0  2  0  0  0  0  0  0
  179.8810  180.3330  139.9970 C   0  0  1  0  0  3  0  0  0  0  0  0
  182.8300  179.1560  139.7140 C   0  0  2  0  0  3  0  0  0  0  0  0
  181.5920  178.2400  139.8420 C   0  0  1  0  0  0  0  0  0  0  0  0
  178.9310  177.6650  139.3300 C   0  0  0  0  0  2  0  0  0  0  0  0
  180.5250  181.0050  138.7620 C   0  0  0  0  0  0  0  0  0  0  0  0
  181.1980  177.7870  138.5590 O   0  0  0  0  0  0  0  0  0  0  0  0
  181.9020  181.2550  138.9790 O   0  0  0  0  0  0  0  0  0  0  0  0
  180.1940  180.2310  137.4810 C   0  0  0  0  0  1  0  0  0  0  0  0
  182.6880  180.1630  138.5810 C   0  0  0  0  0  2  0  0  0  0  0  0
  179.2920  178.0730  140.6310 O   0  0  0  0  0  0  0  0  0  0  0  0
  184.3720  176.9350  137.5670 C   0  0  0  0  0  2  0  0  0  0  0  0
  184.5020  177.0690  135.7590 S   0  0  0  0  0  0  0  0  0  0  0  0
  181.9210  178.5070  135.0490 O   0  0  0  0  0  1  0  0  0  0  0  0
  183.7950  174.1190  135.9440 O   0  0  0  0  0  1  0  0  0  0  0  0
  182.7190  174.9360  135.6230 C   0  0  0  0  0  0  0  0  0  0  0  0
  181.7820  177.1300  135.1740 C   0  0  0  0  0  0  0  0  0  0  0  0
  181.4590  174.3640  135.4230 C   0  0  0  0  0  3  0  0  0  0  0  0
  180.3650  175.1670  135.0960 C   0  0  0  0  0  3  0  0  0  0  0  0
  182.8860  176.3260  135.5040 C   0  0  0  0  0  0  0  0  0  0  0  0
  180.5270  176.5480  134.9710 C   0  0  0  0  0  3  0  0  0  0  0  0
  1  6  1  0  0  0  0
  2  1  2  0  0  0  0
  4 17  1  0  0  0  0
  4  8  1  0  0  0  0
  5 26  1  1  0  0  0
  5  1  1  0  0  0  0
  5  4  1  0  0  0  0
  6  8  1  0  0  0  0
  6  9  1  0  0  0  0
  7  3  1  0  0  0  0
  8  7  2  0  0  0  0
  9  3  2  0  0  0  0
 10 20  1  0  0  0  0
 12 25  1  0  0  0  0
 12 13  1  1  0  0  0
 15 19  1  0  0  0  0
 16 12  1  0  0  0  0
 16 14  1  1  0  0  0
 17 24  1  6  0  0  0
 17 18  1  0  0  0  0
 18 12  1  0  0  0  0
 18 11  1  1  0  0  0
 19 25  1  0  0  0  0
 20 22  1  0  0  0  0
 20 16  1  0  0  0  0
 21 15  1  0  0  0  0
 21 18  1  0  0  0  0
 23 20  1  0  0  0  0
 24 22  1  0  0  0  0
 27 26  1  0  0  0  0
 28 31  1  0  0  0  0
 30 29  1  0  0  0  0
 31 34  2  0  0  0  0
 32 30  2  0  0  0  0
 33 32  1  0  0  0  0
 34 30  1  0  0  0  0
 34 27  1  0  0  0  0
 35 33  2  0  0  0  0
 35 31  1  0  0  0  0
M  END
>  <MODEL>
7

>  <REMARK>
 VINA RESULT:      -5.1      2.054      3.922
  Name = 
  4 active torsions:
  status: ('A' for Active; 'I' for Inactive)
    1  A    between atoms: C_4  and  C_16
    2  A    between atoms: C_4  and  S_21
    3  A    between atoms: N_15  and  C_17
    4  A    between atoms: S_21  and  C_30
                            x       y       z     vdW  Elec       q    Type
                         _______ _______ _______ _____ _____    ______ ____

>  <TORSDO>
F 4

$$$$
=
 OpenBabel10222418063D

 35 39  0  0  1  0  0  0  0  0999 V2000
  186.3850  174.7270  136.9320 C   0  0  0  0  0  0  0  0  0  0  0  0
  187.6250  174.5370  137.0530 O   0  0  0  0  0  0  0  0  0  0  0  0
  184.2070  172.0740  137.1390 C   0  0  0  0  0  3  0  0  0  0  0  0
  184.2360  175.5880  137.1500 N   0  0  0  0  0  0  0  0  0  0  0  0
  185.6520  176.0090  137.2190 C   0  0  2  0  0  3  0  0  0  0  0  0
  185.4590  173.7170  136.6020 N   0  0  0  0  0  0  0  0  0  0  0  0
  183.3780  173.2040  137.1270 C   0  0  0  0  0  3  0  0  0  0  0  0
  184.2520  174.2100  136.7670 C   0  0  0  0  0  0  0  0  0  0  0  0
  185.4870  172.4310  136.8760 N   0  0  0  0  0  0  0  0  0  0  0  0
  181.7800  178.6280  141.5150 C   0  0  0  0  0  1  0  0  0  0  0  0
  181.8380  176.1010  136.0740 O   0  0  0  0  0  1  0  0  0  0  0  0
  180.7510  176.9690  138.0400 C   0  0  1  0  0  0  0  0  0  0  0  0
  180.2710  175.6600  138.1940 O   0  0  0  0  0  1  0  0  0  0  0  0
  180.0360  176.8820  140.3850 O   0  0  0  0  0  1  0  0  0  0  0  0
  181.5550  178.7900  136.0760 C   0  0  0  0  0  2  0  0  0  0  0  0
  180.7790  177.6360  139.4660 C   0  0  1  0  0  3  0  0  0  0  0  0
  183.1980  176.1380  138.0280 C   0  0  2  0  0  3  0  0  0  0  0  0
  182.0940  176.8640  137.2270 C   0  0  1  0  0  0  0  0  0  0  0  0
  180.2890  178.9420  136.9120 C   0  0  0  0  0  2  0  0  0  0  0  0
  182.0870  178.1620  140.1020 C   0  0  0  0  0  0  0  0  0  0  0  0
  182.5500  178.1490  136.8410 O   0  0  0  0  0  0  0  0  0  0  0  0
  183.0480  177.1280  140.2190 O   0  0  0  0  0  0  0  0  0  0  0  0
  182.5720  179.4300  139.3910 C   0  0  0  0  0  1  0  0  0  0  0  0
  183.8460  177.0410  139.0680 C   0  0  0  0  0  2  0  0  0  0  0  0
  179.7930  177.6660  137.2560 O   0  0  0  0  0  0  0  0  0  0  0  0
  185.9420  177.0320  136.1310 C   0  0  0  0  0  2  0  0  0  0  0  0
  186.3870  178.6270  136.8800 S   0  0  0  0  0  0  0  0  0  0  0  0
  188.7760  177.7170  135.2370 O   0  0  0  0  0  1  0  0  0  0  0  0
  187.1790  178.2530  139.7900 O   0  0  0  0  0  1  0  0  0  0  0  0
  188.1660  177.8820  138.8870 C   0  0  0  0  0  0  0  0  0  0  0  0
  188.9650  177.6150  136.6100 C   0  0  0  0  0  0  0  0  0  0  0  0
  189.3840  177.3880  139.3650 C   0  0  0  0  0  3  0  0  0  0  0  0
  190.3900  177.0130  138.4740 C   0  0  0  0  0  3  0  0  0  0  0  0
  187.9490  177.9930  137.5030 C   0  0  0  0  0  0  0  0  0  0  0  0
  190.1810  177.1270  137.0980 C   0  0  0  0  0  3  0  0  0  0  0  0
  1  2  2  0  0  0  0
  1  5  1  0  0  0  0
  4  5  1  0  0  0  0
  5 26  1  6  0  0  0
  6  8  1  0  0  0  0
  6  9  1  0  0  0  0
  6  1  1  0  0  0  0
  7  3  1  0  0  0  0
  8  7  2  0  0  0  0
  8  4  1  0  0  0  0
  9  3  2  0  0  0  0
 12 13  1  1  0  0  0
 12 16  1  0  0  0  0
 15 21  1  0  0  0  0
 15 19  1  0  0  0  0
 16 20  1  0  0  0  0
 16 14  1  1  0  0  0
 17  4  1  6  0  0  0
 17 24  1  0  0  0  0
 18 11  1  6  0  0  0
 18 17  1  0  0  0  0
 18 12  1  0  0  0  0
 19 25  1  0  0  0  0
 20 22  1  0  0  0  0
 20 10  1  0  0  0  0
 21 18  1  0  0  0  0
 23 20  1  0  0  0  0
 24 22  1  0  0  0  0
 25 12  1  0  0  0  0
 26 27  1  0  0  0  0
 27 34  1  0  0  0  0
 28 31  1  0  0  0  0
 30 32  1  0  0  0  0
 30 29  1  0  0  0  0
 31 35  2  0  0  0  0
 31 34  1  0  0  0  0
 33 32  2  0  0  0  0
 34 30  2  0  0  0  0
 35 33  1  0  0  0  0
M  END
>  <MODEL>
8

>  <REMARK>
 VINA RESULT:      -5.0      2.635      4.322
  Name = 
  4 active torsions:
  status: ('A' for Active; 'I' for Inactive)
    1  A    between atoms: C_4  and  C_16
    2  A    between atoms: C_4  and  S_21
    3  A    between atoms: N_15  and  C_17
    4  A    between atoms: S_21  and  C_30
                            x       y       z     vdW  Elec       q    Type
                         _______ _______ _______ _____ _____    ______ ____

>  <TORSDO>
F 4

$$$$
=
 OpenBabel10222418063D

 35 39  0  0  1  0  0  0  0  0999 V2000
  185.3430  175.9830  135.7250 C   0  0  0  0  0  0  0  0  0  0  0  0
  185.7150  175.5690  134.5940 O   0  0  0  0  0  0  0  0  0  0  0  0
  187.1520  178.4150  137.3490 C   0  0  0  0  0  3  0  0  0  0  0  0
  184.0490  176.7730  137.4880 N   0  0  0  0  0  0  0  0  0  0  0  0
  183.9390  175.9500  136.2640 C   0  0  2  0  0  3  0  0  0  0  0  0
  186.1840  176.6510  136.6380 N   0  0  0  0  0  0  0  0  0  0  0  0
  185.9890  178.2770  138.1180 C   0  0  0  0  0  3  0  0  0  0  0  0
  185.4310  177.1220  137.6060 C   0  0  0  0  0  0  0  0  0  0  0  0
  187.2110  177.4410  136.4100 N   0  0  0  0  0  0  0  0  0  0  0  0
  179.3670  180.2900  137.2840 C   0  0  0  0  0  1  0  0  0  0  0  0
  183.0470  176.3640  139.9380 O   0  0  0  0  0  1  0  0  0  0  0  0
  181.4000  178.1220  139.9400 C   0  0  1  0  0  0  0  0  0  0  0  0
  182.3880  178.8690  140.5970 O   0  0  0  0  0  1  0  0  0  0  0  0
  180.6500  180.4420  139.6710 O   0  0  0  0  0  1  0  0  0  0  0  0
  180.5110  175.4930  139.5950 C   0  0  0  0  0  2  0  0  0  0  0  0
  180.4470  179.1350  139.2040 C   0  0  1  0  0  3  0  0  0  0  0  0
  182.9800  177.6660  137.9460 C   0  0  2  0  0  3  0  0  0  0  0  0
  182.1510  177.0340  139.0860 C   0  0  1  0  0  0  0  0  0  0  0  0
  179.7380  176.5600  140.3610 C   0  0  0  0  0  2  0  0  0  0  0  0
  180.2480  179.1140  137.6710 C   0  0  0  0  0  0  0  0  0  0  0  0
  181.2350  176.0970  138.5470 O   0  0  0  0  0  0  0  0  0  0  0  0
  181.4810  179.2960  136.9970 O   0  0  0  0  0  0  0  0  0  0  0  0
  179.4400  177.8860  137.2390 C   0  0  0  0  0  1  0  0  0  0  0  0
  182.1170  178.0680  136.7580 C   0  0  0  0  0  2  0  0  0  0  0  0
  180.6430  177.4700  140.9500 O   0  0  0  0  0  0  0  0  0  0  0  0
  183.5520  174.5260  136.6300 C   0  0  0  0  0  2  0  0  0  0  0  0
  182.8280  173.6870  135.1890 S   0  0  0  0  0  0  0  0  0  0  0  0
  180.2100  175.2240  135.0590 O   0  0  0  0  0  1  0  0  0  0  0  0
  182.3490  171.3770  137.1060 O   0  0  0  0  0  1  0  0  0  0  0  0
  181.2420  172.1950  136.9250 C   0  0  0  0  0  0  0  0  0  0  0  0
  180.1720  174.1190  135.9000 C   0  0  0  0  0  0  0  0  0  0  0  0
  180.0560  171.9060  137.6060 C   0  0  0  0  0  3  0  0  0  0  0  0
  178.9310  172.7140  137.4350 C   0  0  0  0  0  3  0  0  0  0  0  0
  181.3070  173.3080  136.0700 C   0  0  0  0  0  0  0  0  0  0  0  0
  178.9890  173.8190  136.5820 C   0  0  0  0  0  3  0  0  0  0  0  0
  1  5  1  0  0  0  0
  1  6  1  0  0  0  0
  2  1  2  0  0  0  0
  3  7  1  0  0  0  0
  4  8  1  0  0  0  0
  4 17  1  0  0  0  0
  5 26  1  1  0  0  0
  5  4  1  0  0  0  0
  6  8  1  0  0  0  0
  8  7  2  0  0  0  0
  9  6  1  0  0  0  0
  9  3  2  0  0  0  0
 10 20  1  0  0  0  0
 12 13  1  1  0  0  0
 12 25  1  0  0  0  0
 15 19  1  0  0  0  0
 16 14  1  6  0  0  0
 16 12  1  0  0  0  0
 17 24  1  6  0  0  0
 17 18  1  0  0  0  0
 18 11  1  1  0  0  0
 18 12  1  0  0  0  0
 19 25  1  0  0  0  0
 20 16  1  0  0  0  0
 21 18  1  0  0  0  0
 21 15  1  0  0  0  0
 22 20  1  0  0  0  0
 23 20  1  0  0  0  0
 24 22  1  0  0  0  0
 27 34  1  0  0  0  0
 27 26  1  0  0  0  0
 28 31  1  0  0  0  0
 30 29  1  0  0  0  0
 30 32  1  0  0  0  0
 31 34  1  0  0  0  0
 31 35  2  0  0  0  0
 33 32  2  0  0  0  0
 34 30  2  0  0  0  0
 35 33  1  0  0  0  0
M  END
>  <MODEL>
9

>  <REMARK>
 VINA RESULT:      -5.0      3.075      5.687
  Name = 
  4 active torsions:
  status: ('A' for Active; 'I' for Inactive)
    1  A    between atoms: C_4  and  C_16
    2  A    between atoms: C_4  and  S_21
    3  A    between atoms: N_15  and  C_17
    4  A    between atoms: S_21  and  C_30
                            x       y       z     vdW  Elec       q    Type
                         _______ _______ _______ _____ _____    ______ ____

>  <TORSDO>
F 4

$$$$
