=
 OpenBabel10222416303D

 32 36  0  0  1  0  0  0  0  0999 V2000
  183.4040  173.9110  136.7230 C   0  0  0  0  0  2  0  0  0  0  0  0
  187.1180  173.9590  136.4950 C   0  0  0  0  0  2  0  0  0  0  0  0
  188.6160  175.9840  136.7710 C   0  0  2  0  0  3  0  0  0  0  0  0
  190.0490  174.0340  135.2200 C   0  0  0  0  0  2  0  0  0  0  0  0
  183.5970  177.3570  137.2080 C   0  0  0  0  0  2  0  0  0  0  0  0
  182.6370  176.2840  136.6770 C   0  0  1  0  0  3  0  0  0  0  0  0
  182.6670  174.9880  137.5100 C   0  0  1  0  0  3  0  0  0  0  0  0
  184.9160  172.6160  137.9600 O   0  0  0  0  0  0  0  0  0  0  0  0
  188.0330  176.8770  137.8780 C   0  0  2  0  0  3  0  0  0  0  0  0
  181.3830  174.5260  137.8150 O   0  0  0  0  0  1  0  0  0  0  0  0
  187.2640  177.9550  137.2600 N   0  0  0  0  0  2  0  0  0  0  0  0
  188.4230  174.4880  137.0940 C   0  0  2  0  0  3  0  0  0  0  0  0
  189.5980  173.6260  136.6220 C   0  0  0  0  0  2  0  0  0  0  0  0
  190.0430  176.3490  136.3420 C   0  0  0  0  0  2  0  0  0  0  0  0
  185.9140  174.6000  137.1690 C   0  0  2  0  0  3  0  0  0  0  0  0
  181.2510  176.8940  136.5360 C   0  0  0  0  0  1  0  0  0  0  0  0
  184.7590  173.6370  137.3090 C   0  0  0  0  0  0  0  0  0  0  0  0
  190.4980  175.5010  135.1490 C   0  0  0  0  0  2  0  0  0  0  0  0
  185.0040  176.8510  137.5250 C   0  0  2  0  0  3  0  0  0  0  0  0
  185.9400  178.0210  137.8840 C   0  0  0  0  0  2  0  0  0  0  0  0
  185.5380  175.8970  136.4650 C   0  0  0  0  0  2  0  0  0  0  0  0
  189.0760  177.4100  138.8820 C   0  0  1  0  0  3  0  0  0  0  0  0
  189.2660  178.9220  138.7990 C   0  0  0  0  0  1  0  0  0  0  0  0
  188.7770  176.9900  140.2550 N   0  0  0  0  0  2  0  0  0  0  0  0
  188.9680  178.1020  141.1870 C   0  0  1  0  0  3  0  0  0  0  0  0
  190.0750  178.5620  143.4740 C   0  0  0  0  0  2  0  0  0  0  0  0
  189.4360  176.1040  142.8500 C   0  0  0  0  0  2  0  0  0  0  0  0
  187.8950  178.0520  142.2710 C   0  0  0  0  0  2  0  0  0  0  0  0
  189.2990  177.6020  142.5840 C   0  0  0  0  0  0  0  0  0  0  0  0
  191.4840  178.0110  143.6900 C   0  0  0  0  0  2  0  0  0  0  0  0
  190.9040  175.7800  143.1230 C   0  0  0  0  0  2  0  0  0  0  0  0
  191.4210  176.6360  144.1890 N   0  0  0  0  0  2  0  0  0  0  0  0
  1 17  1  0  0  0  0
  1  7  1  0  0  0  0
  2 15  1  0  0  0  0
  3 14  1  1  0  0  0
  3 12  1  0  0  0  0
  3  9  1  0  0  0  0
  4 13  1  0  0  0  0
  5 19  1  0  0  0  0
  6 16  1  1  0  0  0
  6  5  1  0  0  0  0
  6  7  1  0  0  0  0
  7 10  1  6  0  0  0
  9 22  1  6  0  0  0
 11  9  1  0  0  0  0
 11 20  1  0  0  0  0
 12  2  1  6  0  0  0
 13 12  1  0  0  0  0
 15 21  1  6  0  0  0
 15 17  1  0  0  0  0
 17  8  2  0  0  0  0
 18  4  1  0  0  0  0
 18 14  1  0  0  0  0
 19 21  1  6  0  0  0
 19 20  1  0  0  0  0
 22 23  1  1  0  0  0
 22 24  1  0  0  0  0
 25 24  1  6  0  0  0
 25 28  1  0  0  0  0
 25 29  1  0  0  0  0
 26 30  1  0  0  0  0
 27 31  1  0  0  0  0
 28 29  1  0  0  0  0
 29 27  1  0  0  0  0
 29 26  1  0  0  0  0
 30 32  1  0  0  0  0
 31 32  1  0  0  0  0
M  END
>  <MODEL>
1

>  <REMARK>
 VINA RESULT:      -6.9      0.000      0.000
  Name = 
  3 active torsions:
  status: ('A' for Active; 'I' for Inactive)
    1  A    between atoms: N_2  and  C_3
    2  A    between atoms: N_2  and  C_15
    3  A    between atoms: C_14  and  C_15
                            x       y       z     vdW  Elec       q    Type
                         _______ _______ _______ _____ _____    ______ ____

>  <TORSDO>
F 3

$$$$
=
 OpenBabel10222416303D

 32 36  0  0  1  0  0  0  0  0999 V2000
  183.4280  174.0700  136.4030 C   0  0  0  0  0  2  0  0  0  0  0  0
  186.8220  175.5180  136.8930 C   0  0  0  0  0  2  0  0  0  0  0  0
  187.3640  177.7590  137.9450 C   0  0  2  0  0  3  0  0  0  0  0  0
  189.5660  177.0270  136.2490 C   0  0  0  0  0  2  0  0  0  0  0  0
  182.1960  177.0310  137.7680 C   0  0  0  0  0  2  0  0  0  0  0  0
  181.7850  175.9010  136.8140 C   0  0  1  0  0  3  0  0  0  0  0  0
  182.2670  174.5160  137.2840 C   0  0  1  0  0  3  0  0  0  0  0  0
  185.2350  173.0960  137.5340 O   0  0  0  0  0  0  0  0  0  0  0  0
  186.3930  178.0000  139.1120 C   0  0  2  0  0  3  0  0  0  0  0  0
  181.2550  173.5530  137.2180 O   0  0  0  0  0  1  0  0  0  0  0  0
  185.3060  178.8620  138.6530 N   0  0  0  0  0  2  0  0  0  0  0  0
  187.7600  176.2720  137.8380 C   0  0  2  0  0  3  0  0  0  0  0  0
  189.2120  176.0780  137.3930 C   0  0  0  0  0  2  0  0  0  0  0  0
  188.5540  178.7250  137.8960 C   0  0  0  0  0  2  0  0  0  0  0  0
  185.4150  175.4450  137.4690 C   0  0  2  0  0  3  0  0  0  0  0  0
  180.2860  175.9840  136.5750 C   0  0  0  0  0  1  0  0  0  0  0  0
  184.7330  174.1380  137.1440 C   0  0  0  0  0  0  0  0  0  0  0  0
  189.3970  178.5040  136.6350 C   0  0  0  0  0  2  0  0  0  0  0  0
  183.6600  176.9940  138.2050 C   0  0  2  0  0  3  0  0  0  0  0  0
  184.0230  178.2530  139.0150 C   0  0  0  0  0  2  0  0  0  0  0  0
  184.6070  176.6690  137.0580 C   0  0  0  0  0  2  0  0  0  0  0  0
  187.0590  178.5390  140.3950 C   0  0  1  0  0  3  0  0  0  0  0  0
  186.0610  179.1490  141.3740 C   0  0  0  0  0  1  0  0  0  0  0  0
  187.8860  177.5200  141.0500 N   0  0  0  0  0  2  0  0  0  0  0  0
  187.9030  177.7250  142.4990 C   0  0  1  0  0  3  0  0  0  0  0  0
  189.6080  177.8110  144.4370 C   0  0  0  0  0  2  0  0  0  0  0  0
  190.2610  176.5630  142.2340 C   0  0  0  0  0  2  0  0  0  0  0  0
  187.9110  176.3730  143.2070 C   0  0  0  0  0  2  0  0  0  0  0  0
  189.1810  177.1810  143.1200 C   0  0  0  0  0  0  0  0  0  0  0  0
  190.8820  178.6240  144.2090 C   0  0  0  0  0  2  0  0  0  0  0  0
  191.4730  177.4920  142.2090 C   0  0  0  0  0  2  0  0  0  0  0  0
  191.9060  177.7960  143.5720 N   0  0  0  0  0  2  0  0  0  0  0  0
  1 17  1  0  0  0  0
  1  7  1  0  0  0  0
  3 14  1  1  0  0  0
  3  9  1  0  0  0  0
  4 18  1  0  0  0  0
  4 13  1  0  0  0  0
  5 19  1  0  0  0  0
  6 16  1  1  0  0  0
  6  7  1  0  0  0  0
  6  5  1  0  0  0  0
  7 10  1  6  0  0  0
  9 22  1  1  0  0  0
 11 20  1  0  0  0  0
 11  9  1  0  0  0  0
 12  2  1  6  0  0  0
 12  3  1  0  0  0  0
 13 12  1  0  0  0  0
 15  2  1  6  0  0  0
 17 15  1  0  0  0  0
 17  8  2  0  0  0  0
 18 14  1  0  0  0  0
 19 21  1  6  0  0  0
 19 20  1  0  0  0  0
 21 15  1  0  0  0  0
 22 24  1  0  0  0  0
 22 23  1  1  0  0  0
 25 24  1  6  0  0  0
 25 29  1  0  0  0  0
 25 28  1  0  0  0  0
 27 29  1  0  0  0  0
 29 28  1  0  0  0  0
 29 26  1  0  0  0  0
 30 26  1  0  0  0  0
 31 27  1  0  0  0  0
 31 32  1  0  0  0  0
 32 30  1  0  0  0  0
M  END
>  <MODEL>
2

>  <REMARK>
 VINA RESULT:      -6.7      1.398      1.985
  Name = 
  3 active torsions:
  status: ('A' for Active; 'I' for Inactive)
    1  A    between atoms: N_2  and  C_3
    2  A    between atoms: N_2  and  C_15
    3  A    between atoms: C_14  and  C_15
                            x       y       z     vdW  Elec       q    Type
                         _______ _______ _______ _____ _____    ______ ____

>  <TORSDO>
F 3

$$$$
=
 OpenBabel10222416303D

 32 36  0  0  1  0  0  0  0  0999 V2000
  190.0130  176.8080  137.0050 C   0  0  0  0  0  2  0  0  0  0  0  0
  190.8570  177.1250  140.6160 C   0  0  0  0  0  2  0  0  0  0  0  0
  189.3820  178.1120  142.4250 C   0  0  2  0  0  3  0  0  0  0  0  0
  192.1080  178.2900  143.3180 C   0  0  0  0  0  2  0  0  0  0  0  0
  187.0140  178.4080  137.7800 C   0  0  0  0  0  2  0  0  0  0  0  0
  187.9780  178.1950  136.6050 C   0  0  1  0  0  3  0  0  0  0  0  0
  188.5560  176.7680  136.5560 C   0  0  1  0  0  3  0  0  0  0  0  0
  190.6650  175.0930  138.4640 O   0  0  0  0  0  0  0  0  0  0  0  0
  187.9250  177.7080  142.1430 C   0  0  2  0  0  3  0  0  0  0  0  0
  188.4950  176.2160  135.2730 O   0  0  0  0  0  1  0  0  0  0  0  0
  187.2510  178.8130  141.4660 N   0  0  0  0  0  2  0  0  0  0  0  0
  190.3620  176.9790  142.0570 C   0  0  2  0  0  3  0  0  0  0  0  0
  191.5570  176.8990  143.0110 C   0  0  0  0  0  2  0  0  0  0  0  0
  189.6190  178.7120  143.8170 C   0  0  0  0  0  2  0  0  0  0  0  0
  189.7190  176.9120  139.6280 C   0  0  2  0  0  3  0  0  0  0  0  0
  187.2860  178.6240  135.3210 C   0  0  0  0  0  1  0  0  0  0  0  0
  190.1790  176.2100  138.3730 C   0  0  0  0  0  0  0  0  0  0  0  0
  191.0610  179.2090  143.9680 C   0  0  0  0  0  2  0  0  0  0  0  0
  187.5280  177.8960  139.1250 C   0  0  2  0  0  3  0  0  0  0  0  0
  186.5780  178.3050  140.2670 C   0  0  0  0  0  2  0  0  0  0  0  0
  188.9970  178.2260  139.3570 C   0  0  0  0  0  2  0  0  0  0  0  0
  187.1460  177.2250  143.3850 C   0  0  1  0  0  3  0  0  0  0  0  0
  187.6720  175.9060  143.9420 C   0  0  0  0  0  1  0  0  0  0  0  0
  187.0890  178.2550  144.4280 N   0  0  0  0  0  2  0  0  0  0  0  0
  185.9560  178.0170  145.3240 C   0  0  1  0  0  3  0  0  0  0  0  0
  183.4320  178.5480  145.4580 C   0  0  0  0  0  2  0  0  0  0  0  0
  184.9580  180.0390  143.9470 C   0  0  0  0  0  2  0  0  0  0  0  0
  185.7560  179.2290  146.2300 C   0  0  0  0  0  2  0  0  0  0  0  0
  184.8280  179.0040  145.0620 C   0  0  0  0  0  0  0  0  0  0  0  0
  182.6050  178.3270  144.1920 C   0  0  0  0  0  2  0  0  0  0  0  0
  183.9910  179.6790  142.8210 C   0  0  0  0  0  2  0  0  0  0  0  0
  182.6360  179.5220  143.3490 N   0  0  0  0  0  2  0  0  0  0  0  0
  1 17  1  0  0  0  0
  3 14  1  1  0  0  0
  4 18  1  0  0  0  0
  6 16  1  6  0  0  0
  6  5  1  0  0  0  0
  7 10  1  6  0  0  0
  7  6  1  0  0  0  0
  7  1  1  0  0  0  0
  9  3  1  0  0  0  0
  9 22  1  1  0  0  0
 11  9  1  0  0  0  0
 12  2  1  6  0  0  0
 12  3  1  0  0  0  0
 12 13  1  0  0  0  0
 13  4  1  0  0  0  0
 14 18  1  0  0  0  0
 15 21  1  6  0  0  0
 15  2  1  0  0  0  0
 17  8  2  0  0  0  0
 17 15  1  0  0  0  0
 19  5  1  6  0  0  0
 19 21  1  0  0  0  0
 19 20  1  0  0  0  0
 20 11  1  0  0  0  0
 22 23  1  1  0  0  0
 22 24  1  0  0  0  0
 25 24  1  6  0  0  0
 25 28  1  0  0  0  0
 27 29  1  0  0  0  0
 29 25  1  0  0  0  0
 29 26  1  0  0  0  0
 29 28  1  0  0  0  0
 30 26  1  0  0  0  0
 31 32  1  0  0  0  0
 31 27  1  0  0  0  0
 32 30  1  0  0  0  0
M  END
>  <MODEL>
3

>  <REMARK>
 VINA RESULT:      -6.5      3.484      6.377
  Name = 
  3 active torsions:
  status: ('A' for Active; 'I' for Inactive)
    1  A    between atoms: N_2  and  C_3
    2  A    between atoms: N_2  and  C_15
    3  A    between atoms: C_14  and  C_15
                            x       y       z     vdW  Elec       q    Type
                         _______ _______ _______ _____ _____    ______ ____

>  <TORSDO>
F 3

$$$$
=
 OpenBabel10222416303D

 32 36  0  0  1  0  0  0  0  0999 V2000
  185.5140  174.3350  135.5820 C   0  0  0  0  0  2  0  0  0  0  0  0
  189.1970  174.0150  136.0180 C   0  0  0  0  0  2  0  0  0  0  0  0
  190.7340  175.7040  137.1160 C   0  0  2  0  0  3  0  0  0  0  0  0
  192.3210  174.0950  135.3410 C   0  0  0  0  0  2  0  0  0  0  0  0
  185.8210  177.4760  137.0620 C   0  0  0  0  0  2  0  0  0  0  0  0
  184.9210  176.7040  136.0890 C   0  0  1  0  0  3  0  0  0  0  0  0
  184.7050  175.2370  136.5060 C   0  0  1  0  0  3  0  0  0  0  0  0
  186.6700  172.5890  136.6350 O   0  0  0  0  0  0  0  0  0  0  0  0
  190.0000  176.3260  138.3160 C   0  0  2  0  0  3  0  0  0  0  0  0
  183.3600  174.8610  136.4410 O   0  0  0  0  0  1  0  0  0  0  0  0
  189.4370  177.6120  137.9110 N   0  0  0  0  0  2  0  0  0  0  0  0
  190.3890  174.2090  136.9580 C   0  0  2  0  0  3  0  0  0  0  0  0
  191.5780  173.3780  136.4670 C   0  0  0  0  0  2  0  0  0  0  0  0
  192.2370  176.0050  137.0620 C   0  0  0  0  0  2  0  0  0  0  0  0
  187.9250  174.5850  136.6310 C   0  0  2  0  0  3  0  0  0  0  0  0
  183.6300  177.4850  135.8930 C   0  0  0  0  0  1  0  0  0  0  0  0
  186.7080  173.7590  136.2880 C   0  0  0  0  0  0  0  0  0  0  0  0
  192.8640  175.4650  135.7720 C   0  0  0  0  0  2  0  0  0  0  0  0
  187.1040  176.7450  137.4570 C   0  0  2  0  0  3  0  0  0  0  0  0
  188.0220  177.6580  138.2910 C   0  0  0  0  0  2  0  0  0  0  0  0
  187.7770  176.0580  136.2750 C   0  0  0  0  0  2  0  0  0  0  0  0
  190.8560  176.4440  139.5950 C   0  0  1  0  0  3  0  0  0  0  0  0
  191.6310  177.7560  139.6740 C   0  0  0  0  0  1  0  0  0  0  0  0
  190.0600  176.2260  140.8070 N   0  0  0  0  0  2  0  0  0  0  0  0
  189.7820  177.4990  141.4750 C   0  0  1  0  0  3  0  0  0  0  0  0
  190.1790  178.6260  143.7640 C   0  0  0  0  0  2  0  0  0  0  0  0
  190.2370  176.0160  143.6140 C   0  0  0  0  0  2  0  0  0  0  0  0
  188.5120  177.3710  142.3120 C   0  0  0  0  0  2  0  0  0  0  0  0
  189.8600  177.3570  142.9870 C   0  0  0  0  0  0  0  0  0  0  0  0
  191.5760  178.5000  144.3710 C   0  0  0  0  0  2  0  0  0  0  0  0
  191.6290  176.1310  144.2330 C   0  0  0  0  0  2  0  0  0  0  0  0
  191.6810  177.2670  145.1520 N   0  0  0  0  0  2  0  0  0  0  0  0
  1 17  1  0  0  0  0
  1  7  1  0  0  0  0
  3 14  1  1  0  0  0
  3  9  1  0  0  0  0
  4 18  1  0  0  0  0
  4 13  1  0  0  0  0
  5 19  1  0  0  0  0
  6 16  1  1  0  0  0
  6  7  1  0  0  0  0
  6  5  1  0  0  0  0
  7 10  1  6  0  0  0
  9 22  1  1  0  0  0
 11 20  1  0  0  0  0
 11  9  1  0  0  0  0
 12  2  1  6  0  0  0
 12  3  1  0  0  0  0
 13 12  1  0  0  0  0
 15  2  1  6  0  0  0
 17 15  1  0  0  0  0
 17  8  2  0  0  0  0
 18 14  1  0  0  0  0
 19 21  1  6  0  0  0
 19 20  1  0  0  0  0
 21 15  1  0  0  0  0
 22 23  1  1  0  0  0
 22 24  1  0  0  0  0
 25 24  1  6  0  0  0
 25 28  1  0  0  0  0
 25 29  1  0  0  0  0
 26 30  1  0  0  0  0
 27 31  1  0  0  0  0
 28 29  1  0  0  0  0
 29 27  1  0  0  0  0
 29 26  1  0  0  0  0
 30 32  1  0  0  0  0
 31 32  1  0  0  0  0
M  END
>  <MODEL>
4

>  <REMARK>
 VINA RESULT:      -6.4      1.533      2.004
  Name = 
  3 active torsions:
  status: ('A' for Active; 'I' for Inactive)
    1  A    between atoms: N_2  and  C_3
    2  A    between atoms: N_2  and  C_15
    3  A    between atoms: C_14  and  C_15
                            x       y       z     vdW  Elec       q    Type
                         _______ _______ _______ _____ _____    ______ ____

>  <TORSDO>
F 3

$$$$
=
 OpenBabel10222416303D

 32 36  0  0  1  0  0  0  0  0999 V2000
  190.1700  176.5420  141.4930 C   0  0  0  0  0  2  0  0  0  0  0  0
  187.9100  177.2770  144.3570 C   0  0  0  0  0  2  0  0  0  0  0  0
  185.7980  178.6740  144.2860 C   0  0  2  0  0  3  0  0  0  0  0  0
  186.7580  178.6680  146.9950 C   0  0  0  0  0  2  0  0  0  0  0  0
  188.0700  178.5670  139.5860 C   0  0  0  0  0  2  0  0  0  0  0  0
  189.5230  178.0790  139.6370 C   0  0  1  0  0  3  0  0  0  0  0  0
  189.6460  176.6030  140.0630 C   0  0  1  0  0  3  0  0  0  0  0  0
  189.1050  174.9920  142.8910 O   0  0  0  0  0  0  0  0  0  0  0  0
  185.0750  178.4020  142.9560 C   0  0  2  0  0  3  0  0  0  0  0  0
  190.5100  175.8830  139.2330 O   0  0  0  0  0  1  0  0  0  0  0  0
  185.4050  179.4680  142.0130 N   0  0  0  0  0  2  0  0  0  0  0  0
  186.4620  177.3960  144.8380 C   0  0  2  0  0  3  0  0  0  0  0  0
  186.4150  177.3180  146.3670 C   0  0  0  0  0  2  0  0  0  0  0  0
  184.9620  179.4370  145.3220 C   0  0  0  0  0  2  0  0  0  0  0  0
  187.9650  177.0540  142.8530 C   0  0  2  0  0  3  0  0  0  0  0  0
  190.1930  178.3940  138.3090 C   0  0  0  0  0  1  0  0  0  0  0  0
  189.0910  176.1310  142.4530 C   0  0  0  0  0  0  0  0  0  0  0  0
  185.7950  179.7830  146.5610 C   0  0  0  0  0  2  0  0  0  0  0  0
  187.2310  178.1990  140.8090 C   0  0  2  0  0  3  0  0  0  0  0  0
  185.8470  178.8730  140.7490 C   0  0  0  0  0  2  0  0  0  0  0  0
  187.9860  178.3890  142.1180 C   0  0  0  0  0  2  0  0  0  0  0  0
  183.5520  178.1950  143.0900 C   0  0  1  0  0  3  0  0  0  0  0  0
  182.9540  178.9240  144.2890 C   0  0  0  0  0  1  0  0  0  0  0  0
  182.8430  178.5410  141.8530 N   0  0  0  0  0  2  0  0  0  0  0  0
  181.3950  178.5140  142.0660 C   0  0  1  0  0  3  0  0  0  0  0  0
  179.3050  177.3420  141.1020 C   0  0  0  0  0  2  0  0  0  0  0  0
  181.4600  177.4950  139.6290 C   0  0  0  0  0  2  0  0  0  0  0  0
  180.7140  179.4570  141.0780 C   0  0  0  0  0  2  0  0  0  0  0  0
  180.6680  177.9680  140.8460 C   0  0  0  0  0  0  0  0  0  0  0  0
  179.3980  175.8360  140.8640 C   0  0  0  0  0  2  0  0  0  0  0  0
  181.3550  175.9750  139.5290 C   0  0  0  0  0  2  0  0  0  0  0  0
  179.9510  175.5630  139.5370 N   0  0  0  0  0  2  0  0  0  0  0  0
  1 17  1  0  0  0  0
  3 12  1  0  0  0  0
  3 14  1  1  0  0  0
  5  6  1  0  0  0  0
  6 16  1  6  0  0  0
  6  7  1  0  0  0  0
  7 10  1  6  0  0  0
  7  1  1  0  0  0  0
  9 22  1  1  0  0  0
  9  3  1  0  0  0  0
 11  9  1  0  0  0  0
 12  2  1  1  0  0  0
 12 13  1  0  0  0  0
 13  4  1  0  0  0  0
 14 18  1  0  0  0  0
 15 21  1  6  0  0  0
 15  2  1  0  0  0  0
 17 15  1  0  0  0  0
 17  8  2  0  0  0  0
 18  4  1  0  0  0  0
 19  5  1  6  0  0  0
 19 21  1  0  0  0  0
 20 19  1  0  0  0  0
 20 11  1  0  0  0  0
 22 23  1  1  0  0  0
 24 22  1  0  0  0  0
 25 24  1  6  0  0  0
 27 29  1  0  0  0  0
 28 25  1  0  0  0  0
 29 28  1  0  0  0  0
 29 26  1  0  0  0  0
 29 25  1  0  0  0  0
 30 26  1  0  0  0  0
 31 32  1  0  0  0  0
 31 27  1  0  0  0  0
 32 30  1  0  0  0  0
M  END
>  <MODEL>
5

>  <REMARK>
 VINA RESULT:      -6.3      4.138      8.714
  Name = 
  3 active torsions:
  status: ('A' for Active; 'I' for Inactive)
    1  A    between atoms: N_2  and  C_3
    2  A    between atoms: N_2  and  C_15
    3  A    between atoms: C_14  and  C_15
                            x       y       z     vdW  Elec       q    Type
                         _______ _______ _______ _____ _____    ______ ____

>  <TORSDO>
F 3

$$$$
=
 OpenBabel10222416303D

 32 36  0  0  1  0  0  0  0  0999 V2000
  185.9870  178.1370  140.2530 C   0  0  0  0  0  2  0  0  0  0  0  0
  182.9950  177.6930  138.0830 C   0  0  0  0  0  2  0  0  0  0  0  0
  180.5740  177.8980  138.8000 C   0  0  2  0  0  3  0  0  0  0  0  0
  180.6580  176.2500  136.4470 C   0  0  0  0  0  2  0  0  0  0  0  0
  183.7500  178.6400  142.8780 C   0  0  0  0  0  2  0  0  0  0  0  0
  185.1820  178.1570  142.6140 C   0  0  1  0  0  3  0  0  0  0  0  0
  185.8990  178.9750  141.5230 C   0  0  1  0  0  3  0  0  0  0  0  0
  185.4990  179.2720  138.2600 O   0  0  0  0  0  0  0  0  0  0  0  0
  180.4590  179.0450  139.8180 C   0  0  2  0  0  3  0  0  0  0  0  0
  187.1900  179.3510  141.9060 O   0  0  0  0  0  1  0  0  0  0  0  0
  180.4560  178.4820  141.1660 N   0  0  0  0  0  2  0  0  0  0  0  0
  181.6090  178.2190  137.7030 C   0  0  2  0  0  3  0  0  0  0  0  0
  181.2050  177.6710  136.3310 C   0  0  0  0  0  2  0  0  0  0  0  0
  179.2310  177.3900  138.2590 C   0  0  0  0  0  2  0  0  0  0  0  0
  183.5470  178.4420  139.2880 C   0  0  2  0  0  3  0  0  0  0  0  0
  185.9320  178.1030  143.9360 C   0  0  0  0  0  1  0  0  0  0  0  0
  185.0420  178.6400  139.1990 C   0  0  0  0  0  0  0  0  0  0  0  0
  179.4240  176.1650  137.3580 C   0  0  0  0  0  2  0  0  0  0  0  0
  182.9140  178.8700  141.6200 C   0  0  2  0  0  3  0  0  0  0  0  0
  181.4500  179.1840  141.9830 C   0  0  0  0  0  2  0  0  0  0  0  0
  183.1010  177.7720  140.5810 C   0  0  0  0  0  2  0  0  0  0  0  0
  179.2640  179.9920  139.5790 C   0  0  1  0  0  3  0  0  0  0  0  0
  178.9310  180.8480  140.7970 C   0  0  0  0  0  1  0  0  0  0  0  0
  179.4540  180.8220  138.3850 N   0  0  0  0  0  2  0  0  0  0  0  0
  180.2640  181.9990  138.7010 C   0  0  1  0  0  3  0  0  0  0  0  0
  181.2250  184.0800  137.5120 C   0  0  0  0  0  2  0  0  0  0  0  0
  180.5760  181.9920  136.0780 C   0  0  0  0  0  2  0  0  0  0  0  0
  181.7220  181.7290  138.3410 C   0  0  0  0  0  2  0  0  0  0  0  0
  180.8770  182.6010  137.4460 C   0  0  0  0  0  0  0  0  0  0  0  0
  180.2840  184.8530  136.5900 C   0  0  0  0  0  2  0  0  0  0  0  0
  179.6930  182.9580  135.2890 C   0  0  0  0  0  2  0  0  0  0  0  0
  180.3100  184.2830  135.2420 N   0  0  0  0  0  2  0  0  0  0  0  0
  1  7  1  0  0  0  0
  3 14  1  6  0  0  0
  3  9  1  0  0  0  0
  4 18  1  0  0  0  0
  6  5  1  0  0  0  0
  6 16  1  1  0  0  0
  7 10  1  1  0  0  0
  7  6  1  0  0  0  0
  8 17  2  0  0  0  0
  9 22  1  6  0  0  0
  9 11  1  0  0  0  0
 11 20  1  0  0  0  0
 12 13  1  6  0  0  0
 12  2  1  0  0  0  0
 12  3  1  0  0  0  0
 13  4  1  0  0  0  0
 15  2  1  6  0  0  0
 15 21  1  0  0  0  0
 17 15  1  0  0  0  0
 17  1  1  0  0  0  0
 18 14  1  0  0  0  0
 19 21  1  6  0  0  0
 19 20  1  0  0  0  0
 19  5  1  0  0  0  0
 22 23  1  1  0  0  0
 24 22  1  0  0  0  0
 25 24  1  6  0  0  0
 27 29  1  0  0  0  0
 28 25  1  0  0  0  0
 29 26  1  0  0  0  0
 29 28  1  0  0  0  0
 29 25  1  0  0  0  0
 30 26  1  0  0  0  0
 31 27  1  0  0  0  0
 32 31  1  0  0  0  0
 32 30  1  0  0  0  0
M  END
>  <MODEL>
6

>  <REMARK>
 VINA RESULT:      -6.2      5.238      9.454
  Name = 
  3 active torsions:
  status: ('A' for Active; 'I' for Inactive)
    1  A    between atoms: N_2  and  C_3
    2  A    between atoms: N_2  and  C_15
    3  A    between atoms: C_14  and  C_15
                            x       y       z     vdW  Elec       q    Type
                         _______ _______ _______ _____ _____    ______ ____

>  <TORSDO>
F 3

$$$$
=
 OpenBabel10222416303D

 32 36  0  0  1  0  0  0  0  0999 V2000
  181.9560  176.8280  137.5380 C   0  0  0  0  0  2  0  0  0  0  0  0
  185.6510  176.9830  137.1160 C   0  0  0  0  0  2  0  0  0  0  0  0
  187.2800  178.2570  138.5790 C   0  0  2  0  0  3  0  0  0  0  0  0
  188.5140  177.8810  136.0100 C   0  0  0  0  0  2  0  0  0  0  0  0
  182.3810  179.0080  140.2240 C   0  0  0  0  0  2  0  0  0  0  0  0
  181.3330  178.5980  139.1820 C   0  0  1  0  0  3  0  0  0  0  0  0
  181.3260  177.0830  138.9030 C   0  0  1  0  0  3  0  0  0  0  0  0
  183.4490  175.0230  137.4390 O   0  0  0  0  0  0  0  0  0  0  0  0
  186.8090  178.1580  140.0390 C   0  0  2  0  0  3  0  0  0  0  0  0
  180.0340  176.5490  138.9100 O   0  0  0  0  0  1  0  0  0  0  0  0
  186.0760  179.3740  140.3830 N   0  0  0  0  0  2  0  0  0  0  0  0
  187.0140  176.9470  137.8100 C   0  0  2  0  0  3  0  0  0  0  0  0
  188.1100  176.6290  136.7880 C   0  0  0  0  0  2  0  0  0  0  0  0
  188.7030  178.8030  138.4040 C   0  0  0  0  0  2  0  0  0  0  0  0
  184.5230  177.0010  138.1370 C   0  0  2  0  0  3  0  0  0  0  0  0
  179.9810  179.1530  139.6020 C   0  0  0  0  0  1  0  0  0  0  0  0
  183.3210  176.2140  137.6730 C   0  0  0  0  0  0  0  0  0  0  0  0
  189.0450  178.9960  136.9230 C   0  0  0  0  0  2  0  0  0  0  0  0
  183.7690  178.4090  140.0010 C   0  0  2  0  0  3  0  0  0  0  0  0
  184.7910  179.0080  140.9860 C   0  0  0  0  0  2  0  0  0  0  0  0
  184.1920  178.4330  138.5380 C   0  0  0  0  0  2  0  0  0  0  0  0
  187.9310  177.8500  141.0520 C   0  0  1  0  0  3  0  0  0  0  0  0
  188.7000  179.0940  141.4850 C   0  0  0  0  0  1  0  0  0  0  0  0
  187.4310  177.1070  142.2130 N   0  0  0  0  0  2  0  0  0  0  0  0
  187.7060  177.8390  143.4500 C   0  0  1  0  0  3  0  0  0  0  0  0
  189.6220  178.1340  145.1560 C   0  0  0  0  0  2  0  0  0  0  0  0
  189.5890  175.9970  143.6500 C   0  0  0  0  0  2  0  0  0  0  0  0
  187.4380  176.9350  144.6500 C   0  0  0  0  0  2  0  0  0  0  0  0
  188.8570  177.2100  144.2200 C   0  0  0  0  0  0  0  0  0  0  0  0
  191.0260  178.3570  144.5960 C   0  0  0  0  0  2  0  0  0  0  0  0
  190.9950  176.4180  143.2280 C   0  0  0  0  0  2  0  0  0  0  0  0
  191.6810  177.0740  144.3400 N   0  0  0  0  0  2  0  0  0  0  0  0
  1 17  1  0  0  0  0
  1  7  1  0  0  0  0
  2 12  1  0  0  0  0
  3 14  1  1  0  0  0
  3  9  1  0  0  0  0
  4 13  1  0  0  0  0
  4 18  1  0  0  0  0
  6 16  1  1  0  0  0
  6  5  1  0  0  0  0
  7 10  1  6  0  0  0
  7  6  1  0  0  0  0
  8 17  2  0  0  0  0
  9 11  1  0  0  0  0
  9 22  1  1  0  0  0
 11 20  1  0  0  0  0
 12 13  1  6  0  0  0
 12  3  1  0  0  0  0
 15  2  1  6  0  0  0
 15 21  1  0  0  0  0
 17 15  1  0  0  0  0
 18 14  1  0  0  0  0
 19 21  1  6  0  0  0
 19  5  1  0  0  0  0
 19 20  1  0  0  0  0
 22 23  1  1  0  0  0
 22 24  1  0  0  0  0
 25 24  1  6  0  0  0
 25 29  1  0  0  0  0
 25 28  1  0  0  0  0
 27 29  1  0  0  0  0
 29 28  1  0  0  0  0
 29 26  1  0  0  0  0
 30 26  1  0  0  0  0
 31 27  1  0  0  0  0
 31 32  1  0  0  0  0
 32 30  1  0  0  0  0
M  END
>  <MODEL>
7

>  <REMARK>
 VINA RESULT:      -6.0      2.100      2.967
  Name = 
  3 active torsions:
  status: ('A' for Active; 'I' for Inactive)
    1  A    between atoms: N_2  and  C_3
    2  A    between atoms: N_2  and  C_15
    3  A    between atoms: C_14  and  C_15
                            x       y       z     vdW  Elec       q    Type
                         _______ _______ _______ _____ _____    ______ ____

>  <TORSDO>
F 3

$$$$
=
 OpenBabel10222416303D

 32 36  0  0  1  0  0  0  0  0999 V2000
  182.0850  177.5880  138.7820 C   0  0  0  0  0  2  0  0  0  0  0  0
  185.6790  177.6090  137.8130 C   0  0  0  0  0  2  0  0  0  0  0  0
  187.6240  178.3320  139.2660 C   0  0  2  0  0  3  0  0  0  0  0  0
  188.4360  178.5830  136.5200 C   0  0  0  0  0  2  0  0  0  0  0  0
  183.1140  178.9300  141.8300 C   0  0  0  0  0  2  0  0  0  0  0  0
  181.8920  178.8860  140.9040 C   0  0  1  0  0  3  0  0  0  0  0  0
  181.6850  177.5060  140.2510 C   0  0  1  0  0  3  0  0  0  0  0  0
  183.3480  175.7830  137.9800 O   0  0  0  0  0  0  0  0  0  0  0  0
  187.3560  177.8730  140.7090 C   0  0  2  0  0  3  0  0  0  0  0  0
  180.3570  177.0750  140.3340 O   0  0  0  0  0  1  0  0  0  0  0  0
  186.8120  178.9970  141.4680 N   0  0  0  0  0  2  0  0  0  0  0  0
  187.1150  177.2980  138.2410 C   0  0  2  0  0  3  0  0  0  0  0  0
  188.0150  177.1970  137.0060 C   0  0  0  0  0  2  0  0  0  0  0  0
  189.0590  178.8110  139.0060 C   0  0  0  0  0  2  0  0  0  0  0  0
  184.7140  177.4250  138.9760 C   0  0  2  0  0  3  0  0  0  0  0  0
  180.6800  179.3930  141.6690 C   0  0  0  0  0  1  0  0  0  0  0  0
  183.3820  176.8730  138.5290 C   0  0  0  0  0  0  0  0  0  0  0  0
  189.2070  179.3730  137.5880 C   0  0  0  0  0  2  0  0  0  0  0  0
  184.3850  178.3240  141.2360 C   0  0  2  0  0  3  0  0  0  0  0  0
  185.5940  178.5670  142.1600 C   0  0  0  0  0  2  0  0  0  0  0  0
  184.5970  178.7140  139.7790 C   0  0  0  0  0  2  0  0  0  0  0  0
  188.5710  177.2300  141.4100 C   0  0  1  0  0  3  0  0  0  0  0  0
  189.8150  177.1910  140.5280 C   0  0  0  0  0  1  0  0  0  0  0  0
  188.8570  177.8670  142.7000 N   0  0  0  0  0  2  0  0  0  0  0  0
  190.2610  177.6780  143.0660 C   0  0  1  0  0  3  0  0  0  0  0  0
  191.6830  177.2430  145.1780 C   0  0  0  0  0  2  0  0  0  0  0  0
  189.3060  178.2990  145.4500 C   0  0  0  0  0  2  0  0  0  0  0  0
  190.8480  179.0030  143.5440 C   0  0  0  0  0  2  0  0  0  0  0  0
  190.4850  177.9380  144.5480 C   0  0  0  0  0  0  0  0  0  0  0  0
  191.1840  176.1720  146.1460 C   0  0  0  0  0  2  0  0  0  0  0  0
  189.0270  177.1290  146.3920 C   0  0  0  0  0  2  0  0  0  0  0  0
  190.2460  176.7520  147.1070 N   0  0  0  0  0  2  0  0  0  0  0  0
  1  7  1  0  0  0  0
  2 12  1  0  0  0  0
  3 14  1  1  0  0  0
  3  9  1  0  0  0  0
  4 13  1  0  0  0  0
  4 18  1  0  0  0  0
  6 16  1  1  0  0  0
  6  5  1  0  0  0  0
  7 10  1  6  0  0  0
  7  6  1  0  0  0  0
  8 17  2  0  0  0  0
  9 22  1  1  0  0  0
  9 11  1  0  0  0  0
 11 20  1  0  0  0  0
 12 13  1  6  0  0  0
 12  3  1  0  0  0  0
 15  2  1  6  0  0  0
 15 21  1  0  0  0  0
 17  1  1  0  0  0  0
 17 15  1  0  0  0  0
 18 14  1  0  0  0  0
 19 21  1  6  0  0  0
 19  5  1  0  0  0  0
 19 20  1  0  0  0  0
 22 23  1  6  0  0  0
 22 24  1  0  0  0  0
 25 24  1  1  0  0  0
 25 28  1  0  0  0  0
 25 29  1  0  0  0  0
 26 30  1  0  0  0  0
 27 31  1  0  0  0  0
 28 29  1  0  0  0  0
 29 26  1  0  0  0  0
 29 27  1  0  0  0  0
 30 32  1  0  0  0  0
 31 32  1  0  0  0  0
M  END
>  <MODEL>
8

>  <REMARK>
 VINA RESULT:      -6.0      2.607      3.819
  Name = 
  3 active torsions:
  status: ('A' for Active; 'I' for Inactive)
    1  A    between atoms: N_2  and  C_3
    2  A    between atoms: N_2  and  C_15
    3  A    between atoms: C_14  and  C_15
                            x       y       z     vdW  Elec       q    Type
                         _______ _______ _______ _____ _____    ______ ____

>  <TORSDO>
F 3

$$$$
=
 OpenBabel10222416303D

 32 36  0  0  1  0  0  0  0  0999 V2000
  185.0270  178.2880  141.8640 C   0  0  0  0  0  2  0  0  0  0  0  0
  184.0680  177.1590  138.4490 C   0  0  0  0  0  2  0  0  0  0  0  0
  181.7440  177.2230  137.4410 C   0  0  2  0  0  3  0  0  0  0  0  0
  183.2530  175.2140  136.0460 C   0  0  0  0  0  2  0  0  0  0  0  0
  181.6490  178.9920  142.3540 C   0  0  0  0  0  2  0  0  0  0  0  0
  182.9130  178.6270  143.1430 C   0  0  1  0  0  3  0  0  0  0  0  0
  184.1780  179.3180  142.6010 C   0  0  1  0  0  3  0  0  0  0  0  0
  185.9370  179.0060  139.8260 O   0  0  0  0  0  0  0  0  0  0  0  0
  181.0420  178.5090  137.9090 C   0  0  2  0  0  3  0  0  0  0  0  0
  184.9460  179.8900  143.6190 O   0  0  0  0  0  1  0  0  0  0  0  0
  180.1740  178.1890  139.0390 N   0  0  0  0  0  2  0  0  0  0  0  0
  183.2480  177.4600  137.1930 C   0  0  2  0  0  3  0  0  0  0  0  0
  183.7870  176.6450  136.0130 C   0  0  0  0  0  2  0  0  0  0  0  0
  181.0320  176.4880  136.2980 C   0  0  0  0  0  2  0  0  0  0  0  0
  183.7540  178.1590  139.5530 C   0  0  2  0  0  3  0  0  0  0  0  0
  182.6580  178.8810  144.6210 C   0  0  0  0  0  1  0  0  0  0  0  0
  184.9730  178.4990  140.3780 C   0  0  0  0  0  0  0  0  0  0  0  0
  181.7190  175.1550  135.9840 C   0  0  0  0  0  2  0  0  0  0  0  0
  181.8010  178.9110  140.8360 C   0  0  2  0  0  3  0  0  0  0  0  0
  180.4460  179.1230  140.1360 C   0  0  0  0  0  2  0  0  0  0  0  0
  182.5740  177.6770  140.3870 C   0  0  0  0  0  2  0  0  0  0  0  0
  180.2910  179.2660  136.7940 C   0  0  1  0  0  3  0  0  0  0  0  0
  178.9490  178.6320  136.4430 C   0  0  0  0  0  1  0  0  0  0  0  0
  180.1360  180.6900  137.1100 N   0  0  0  0  0  2  0  0  0  0  0  0
  180.6530  181.5180  136.0200 C   0  0  1  0  0  3  0  0  0  0  0  0
  180.7670  184.0090  135.3490 C   0  0  0  0  0  2  0  0  0  0  0  0
  178.9350  183.2410  137.0480 C   0  0  0  0  0  2  0  0  0  0  0  0
  179.5340  181.8100  135.0240 C   0  0  0  0  0  2  0  0  0  0  0  0
  179.9760  182.8800  135.9910 C   0  0  0  0  0  0  0  0  0  0  0  0
  181.1800  185.0050  136.4320 C   0  0  0  0  0  2  0  0  0  0  0  0
  179.5170  184.3060  137.9750 C   0  0  0  0  0  2  0  0  0  0  0  0
  180.0100  185.4410  137.1940 N   0  0  0  0  0  2  0  0  0  0  0  0
  1  7  1  0  0  0  0
  3 14  1  6  0  0  0
  3  9  1  0  0  0  0
  5  6  1  0  0  0  0
  6 16  1  1  0  0  0
  7  6  1  0  0  0  0
  7 10  1  1  0  0  0
  8 17  2  0  0  0  0
  9 22  1  6  0  0  0
  9 11  1  0  0  0  0
 11 20  1  0  0  0  0
 12 13  1  6  0  0  0
 12  3  1  0  0  0  0
 12  2  1  0  0  0  0
 13  4  1  0  0  0  0
 15  2  1  6  0  0  0
 15 17  1  0  0  0  0
 15 21  1  0  0  0  0
 17  1  1  0  0  0  0
 18  4  1  0  0  0  0
 18 14  1  0  0  0  0
 19 20  1  6  0  0  0
 19  5  1  0  0  0  0
 21 19  1  0  0  0  0
 22 23  1  1  0  0  0
 22 24  1  0  0  0  0
 25 24  1  1  0  0  0
 26 29  1  0  0  0  0
 26 30  1  0  0  0  0
 27 31  1  0  0  0  0
 28 29  1  0  0  0  0
 28 25  1  0  0  0  0
 29 25  1  0  0  0  0
 29 27  1  0  0  0  0
 30 32  1  0  0  0  0
 32 31  1  0  0  0  0
M  END
>  <MODEL>
9

>  <REMARK>
 VINA RESULT:      -5.6      5.288      9.261
  Name = 
  3 active torsions:
  status: ('A' for Active; 'I' for Inactive)
    1  A    between atoms: N_2  and  C_3
    2  A    between atoms: N_2  and  C_15
    3  A    between atoms: C_14  and  C_15
                            x       y       z     vdW  Elec       q    Type
                         _______ _______ _______ _____ _____    ______ ____

>  <TORSDO>
F 3

$$$$
