=
 OpenBabel10222416343D

 32 36  0  0  1  0  0  0  0  0999 V2000
  184.7110  178.7030  145.8910 C   0  0  0  0  0  3  0  0  0  0  0  0
  189.8350  177.0660  146.6100 C   0  0  0  0  0  3  0  0  0  0  0  0
  191.0450  176.2490  144.6330 C   0  0  0  0  0  0  0  0  0  0  0  0
  187.4000  177.9330  146.0420 C   0  0  0  0  0  0  0  0  0  0  0  0
  185.3670  178.6050  147.1490 C   0  0  0  0  0  3  0  0  0  0  0  0
  185.6510  178.0810  142.3650 C   0  0  0  0  0  3  0  0  0  0  0  0
  185.4280  178.4090  144.7170 C   0  0  0  0  0  0  0  0  0  0  0  0
  191.9400  175.5000  144.1590 O   0  0  0  0  0  0  0  0  0  0  0  0
  187.0100  177.6970  142.5070 C   0  0  0  0  0  3  0  0  0  0  0  0
  186.7280  178.2070  147.2380 C   0  0  0  0  0  3  0  0  0  0  0  0
  188.8360  177.3350  144.3760 C   0  0  0  0  0  0  0  0  0  0  0  0
  190.9400  176.4800  146.1130 C   0  0  0  0  0  0  0  0  0  0  0  0
  187.5380  177.7070  143.7990 C   0  0  0  0  0  0  0  0  0  0  0  0
  186.7510  178.0480  144.8510 C   0  0  0  0  0  0  0  0  0  0  0  0
  188.7500  177.4660  145.7090 C   0  0  0  0  0  0  0  0  0  0  0  0
  184.8910  178.4270  143.4620 N   0  0  0  0  0  0  0  0  0  0  0  0
  190.1040  176.9400  143.6710 C   0  0  1  0  0  3  0  0  0  0  0  0
  192.2570  176.7780  148.2540 N   0  0  0  0  0  2  0  0  0  0  0  0
  193.3140  176.4040  149.1790 C   0  0  0  0  0  1  0  0  0  0  0  0
  192.0060  176.0500  147.0500 C   0  0  0  0  0  0  0  0  0  0  0  0
  192.7020  175.0300  146.7850 O   0  0  0  0  0  0  0  0  0  0  0  0
  190.7680  178.1280  143.1480 N   0  0  0  0  0  2  0  0  0  0  0  0
  191.3290  177.7970  141.9610 O   0  0  0  0  0  0  0  0  0  0  0  0
  190.4680  176.8380  141.4240 C   0  0  0  0  0  2  0  0  0  0  0  0
  190.1830  177.1590  139.9940 C   0  0  0  0  0  0  0  0  0  0  0  0
  189.3110  178.1400  139.7030 C   0  0  0  0  0  3  0  0  0  0  0  0
  189.2620  177.4230  137.2920 C   0  0  2  0  0  3  0  0  0  0  0  0
  188.9830  178.5500  138.2890 C   0  0  0  0  0  2  0  0  0  0  0  0
  190.7750  176.2700  138.9230 C   0  0  0  0  0  2  0  0  0  0  0  0
  190.6670  176.8720  137.5210 C   0  0  0  0  0  2  0  0  0  0  0  0
  189.1060  177.9190  135.8570 C   0  0  0  0  0  2  0  0  0  0  0  0
  189.8210  177.1110  134.9680 O   0  0  0  0  0  1  0  0  0  0  0  0
  1  5  1  0  0  0  0
  3 12  1  0  0  0  0
  4 10  1  0  0  0  0
  5 10  2  0  0  0  0
  6  9  1  0  0  0  0
  6 16  2  0  0  0  0
  7 14  1  0  0  0  0
  7  1  2  0  0  0  0
  8  3  2  0  0  0  0
  9 13  2  0  0  0  0
 11 15  2  0  0  0  0
 12  2  2  0  0  0  0
 12 20  1  0  0  0  0
 13 11  1  0  0  0  0
 13 14  1  0  0  0  0
 14  4  2  0  0  0  0
 15  4  1  0  0  0  0
 15  2  1  0  0  0  0
 16  7  1  0  0  0  0
 17 22  1  1  0  0  0
 17 11  1  0  0  0  0
 17  3  1  0  0  0  0
 18 19  1  0  0  0  0
 20 18  1  0  0  0  0
 21 20  2  0  0  0  0
 23 22  1  0  0  0  0
 24 23  1  0  0  0  0
 25 24  1  0  0  0  0
 26 25  2  0  0  0  0
 27 31  1  6  0  0  0
 27 30  1  0  0  0  0
 27 28  1  0  0  0  0
 28 26  1  0  0  0  0
 29 25  1  0  0  0  0
 30 29  1  0  0  0  0
 32 31  1  0  0  0  0
M  END
>  <MODEL>
1

>  <REMARK>
 VINA RESULT:     -10.1      0.000      0.000
  Name = 
  6 active torsions:
  status: ('A' for Active; 'I' for Inactive)
    1  A    between atoms: C_2  and  C_3
    2  A    between atoms: C_2  and  O_13
    3  A    between atoms: C_10  and  C_17
    4  A    between atoms: O_13  and  N_20
    5  A    between atoms: C_18  and  C_24
    6  A    between atoms: N_20  and  C_32
                            x       y       z     vdW  Elec       q    Type
                         _______ _______ _______ _____ _____    ______ ____

>  <TORSDO>
F 6

$$$$
=
 OpenBabel10222416343D

 32 36  0  0  1  0  0  0  0  0999 V2000
  189.9980  176.9280  147.3800 C   0  0  0  0  0  3  0  0  0  0  0  0
  190.8440  177.0210  142.0210 C   0  0  0  0  0  3  0  0  0  0  0  0
  188.8660  177.1790  140.5700 C   0  0  0  0  0  0  0  0  0  0  0  0
  190.2420  177.1130  144.5960 C   0  0  0  0  0  0  0  0  0  0  0  0
  191.2620  176.7550  146.7510 C   0  0  0  0  0  3  0  0  0  0  0  0
  186.5350  177.5510  146.2280 C   0  0  0  0  0  3  0  0  0  0  0  0
  188.8670  177.1950  146.5890 C   0  0  0  0  0  0  0  0  0  0  0  0
  188.3290  176.9220  139.4600 O   0  0  0  0  0  0  0  0  0  0  0  0
  186.7230  177.6340  144.8240 C   0  0  0  0  0  3  0  0  0  0  0  0
  191.3950  176.8380  145.3390 C   0  0  0  0  0  3  0  0  0  0  0  0
  188.6390  177.4710  143.0160 C   0  0  0  0  0  0  0  0  0  0  0  0
  190.3420  176.9890  140.7720 C   0  0  0  0  0  0  0  0  0  0  0  0
  188.0320  177.5060  144.3530 C   0  0  0  0  0  0  0  0  0  0  0  0
  189.0480  177.2880  145.2250 C   0  0  0  0  0  0  0  0  0  0  0  0
  189.9510  177.2330  143.1640 C   0  0  0  0  0  0  0  0  0  0  0  0
  187.6000  177.3350  147.0780 N   0  0  0  0  0  0  0  0  0  0  0  0
  187.9940  177.7200  141.6810 C   0  0  1  0  0  3  0  0  0  0  0  0
  191.0190  175.6570  138.7290 N   0  0  0  0  0  2  0  0  0  0  0  0
  191.9160  175.3600  137.6240 C   0  0  0  0  0  1  0  0  0  0  0  0
  191.2610  176.7340  139.6370 C   0  0  0  0  0  0  0  0  0  0  0  0
  192.2700  177.4740  139.4660 O   0  0  0  0  0  0  0  0  0  0  0  0
  187.8200  179.1530  141.4770 N   0  0  0  0  0  2  0  0  0  0  0  0
  186.6150  179.4990  141.9870 O   0  0  0  0  0  0  0  0  0  0  0  0
  185.6900  178.8580  141.1610 C   0  0  0  0  0  2  0  0  0  0  0  0
  184.3700  178.7700  141.8520 C   0  0  0  0  0  0  0  0  0  0  0  0
  183.2760  178.4490  141.1400 C   0  0  0  0  0  3  0  0  0  0  0  0
  181.7930  179.1020  143.0640 C   0  0  2  0  0  3  0  0  0  0  0  0
  181.9080  178.3110  141.7590 C   0  0  0  0  0  2  0  0  0  0  0  0
  184.2860  179.1900  143.3030 C   0  0  0  0  0  2  0  0  0  0  0  0
  182.9750  178.7690  143.9710 C   0  0  0  0  0  2  0  0  0  0  0  0
  180.4730  178.7960  143.7680 C   0  0  0  0  0  2  0  0  0  0  0  0
  179.7170  177.8770  143.0340 O   0  0  0  0  0  1  0  0  0  0  0  0
  2 15  1  0  0  0  0
  3 12  1  0  0  0  0
  3 17  1  0  0  0  0
  4 14  2  0  0  0  0
  4 10  1  0  0  0  0
  5  1  1  0  0  0  0
  6 16  2  0  0  0  0
  7 16  1  0  0  0  0
  7  1  2  0  0  0  0
  8  3  2  0  0  0  0
  9  6  1  0  0  0  0
 10  5  2  0  0  0  0
 11 15  2  0  0  0  0
 11 13  1  0  0  0  0
 12  2  2  0  0  0  0
 13  9  2  0  0  0  0
 13 14  1  0  0  0  0
 14  7  1  0  0  0  0
 15  4  1  0  0  0  0
 17 22  1  6  0  0  0
 17 11  1  0  0  0  0
 18 20  1  0  0  0  0
 19 18  1  0  0  0  0
 20 12  1  0  0  0  0
 21 20  2  0  0  0  0
 22 23  1  0  0  0  0
 24 25  1  0  0  0  0
 24 23  1  0  0  0  0
 25 29  1  0  0  0  0
 26 28  1  0  0  0  0
 26 25  2  0  0  0  0
 27 31  1  1  0  0  0
 27 30  1  0  0  0  0
 28 27  1  0  0  0  0
 29 30  1  0  0  0  0
 32 31  1  0  0  0  0
M  END
>  <MODEL>
2

>  <REMARK>
 VINA RESULT:     -10.0      3.247      6.681
  Name = 
  6 active torsions:
  status: ('A' for Active; 'I' for Inactive)
    1  A    between atoms: C_2  and  C_3
    2  A    between atoms: C_2  and  O_13
    3  A    between atoms: C_10  and  C_17
    4  A    between atoms: O_13  and  N_20
    5  A    between atoms: C_18  and  C_24
    6  A    between atoms: N_20  and  C_32
                            x       y       z     vdW  Elec       q    Type
                         _______ _______ _______ _____ _____    ______ ____

>  <TORSDO>
F 6

$$$$
=
 OpenBabel10222416343D

 32 36  0  0  1  0  0  0  0  0999 V2000
  185.4370  177.8800  137.5620 C   0  0  0  0  0  3  0  0  0  0  0  0
  190.6680  176.4490  137.7570 C   0  0  0  0  0  3  0  0  0  0  0  0
  191.9600  177.1640  139.7210 C   0  0  0  0  0  0  0  0  0  0  0  0
  188.1150  177.1320  137.8980 C   0  0  0  0  0  0  0  0  0  0  0  0
  186.1420  177.2230  136.5160 C   0  0  0  0  0  3  0  0  0  0  0  0
  186.2700  179.0800  140.9630 C   0  0  0  0  0  3  0  0  0  0  0  0
  186.0990  178.1510  138.7730 C   0  0  0  0  0  0  0  0  0  0  0  0
  193.0750  177.4850  140.2110 O   0  0  0  0  0  0  0  0  0  0  0  0
  187.6260  178.6760  141.0730 C   0  0  0  0  0  3  0  0  0  0  0  0
  187.5030  176.8460  136.6730 C   0  0  0  0  0  3  0  0  0  0  0  0
  189.5030  177.4570  139.6770 C   0  0  0  0  0  0  0  0  0  0  0  0
  191.8690  176.5430  138.3580 C   0  0  0  0  0  0  0  0  0  0  0  0
  188.1680  177.9840  139.9890 C   0  0  0  0  0  0  0  0  0  0  0  0
  187.4120  177.7480  138.8870 C   0  0  0  0  0  0  0  0  0  0  0  0
  189.4700  176.9560  138.4330 C   0  0  0  0  0  0  0  0  0  0  0  0
  185.5370  178.8130  139.8270 N   0  0  0  0  0  0  0  0  0  0  0  0
  190.7190  177.3850  140.5580 C   0  0  1  0  0  3  0  0  0  0  0  0
  193.3090  174.6580  137.4730 N   0  0  0  0  0  2  0  0  0  0  0  0
  194.4910  174.1480  136.8000 C   0  0  0  0  0  1  0  0  0  0  0  0
  193.0700  176.0580  137.6370 C   0  0  0  0  0  0  0  0  0  0  0  0
  193.8950  176.8870  137.1600 O   0  0  0  0  0  0  0  0  0  0  0  0
  190.5870  176.2730  141.4920 N   0  0  0  0  0  2  0  0  0  0  0  0
  190.3290  176.7910  142.7160 O   0  0  0  0  0  0  0  0  0  0  0  0
  189.3800  175.9280  143.2660 C   0  0  0  0  0  2  0  0  0  0  0  0
  188.4910  176.6820  144.2000 C   0  0  0  0  0  0  0  0  0  0  0  0
  188.9780  177.0840  145.3870 C   0  0  0  0  0  3  0  0  0  0  0  0
  186.6600  177.6650  146.1740 C   0  0  2  0  0  3  0  0  0  0  0  0
  188.1620  177.8730  146.3790 C   0  0  0  0  0  2  0  0  0  0  0  0
  187.0320  176.8390  143.8370 C   0  0  0  0  0  2  0  0  0  0  0  0
  186.3100  177.8740  144.7020 C   0  0  0  0  0  2  0  0  0  0  0  0
  185.8550  178.6150  147.0580 C   0  0  0  0  0  2  0  0  0  0  0  0
  184.6980  179.0460  146.4040 O   0  0  0  0  0  1  0  0  0  0  0  0
  1  7  1  0  0  0  0
  2 12  2  0  0  0  0
  2 15  1  0  0  0  0
  3  8  2  0  0  0  0
  3 17  1  0  0  0  0
  4 15  1  0  0  0  0
  4 14  1  0  0  0  0
  5 10  1  0  0  0  0
  5  1  2  0  0  0  0
  6  9  1  0  0  0  0
  7 14  2  0  0  0  0
  7 16  1  0  0  0  0
 10  4  2  0  0  0  0
 11 13  1  0  0  0  0
 11 17  1  0  0  0  0
 12  3  1  0  0  0  0
 13  9  2  0  0  0  0
 14 13  1  0  0  0  0
 15 11  2  0  0  0  0
 16  6  2  0  0  0  0
 17 22  1  1  0  0  0
 18 20  1  0  0  0  0
 19 18  1  0  0  0  0
 20 12  1  0  0  0  0
 21 20  2  0  0  0  0
 22 23  1  0  0  0  0
 23 24  1  0  0  0  0
 24 25  1  0  0  0  0
 25 26  2  0  0  0  0
 26 28  1  0  0  0  0
 27 28  1  0  0  0  0
 27 31  1  1  0  0  0
 29 25  1  0  0  0  0
 29 30  1  0  0  0  0
 30 27  1  0  0  0  0
 32 31  1  0  0  0  0
M  END
>  <MODEL>
3

>  <REMARK>
 VINA RESULT:      -9.6      2.835      7.595
  Name = 
  6 active torsions:
  status: ('A' for Active; 'I' for Inactive)
    1  A    between atoms: C_2  and  C_3
    2  A    between atoms: C_2  and  O_13
    3  A    between atoms: C_10  and  C_17
    4  A    between atoms: O_13  and  N_20
    5  A    between atoms: C_18  and  C_24
    6  A    between atoms: N_20  and  C_32
                            x       y       z     vdW  Elec       q    Type
                         _______ _______ _______ _____ _____    ______ ____

>  <TORSDO>
F 6

$$$$
=
 OpenBabel10222416343D

 32 36  0  0  1  0  0  0  0  0999 V2000
  189.9370  177.1300  147.1550 C   0  0  0  0  0  3  0  0  0  0  0  0
  185.6640  177.9390  143.9090 C   0  0  0  0  0  3  0  0  0  0  0  0
  186.0980  178.9160  141.6970 C   0  0  0  0  0  0  0  0  0  0  0  0
  187.8760  177.5070  145.2970 C   0  0  0  0  0  0  0  0  0  0  0  0
  188.5800  176.9260  147.5280 C   0  0  0  0  0  3  0  0  0  0  0  0
  191.7010  178.2170  144.0870 C   0  0  0  0  0  3  0  0  0  0  0  0
  190.2370  177.5240  145.8390 C   0  0  0  0  0  0  0  0  0  0  0  0
  185.6820  179.6120  140.7330 O   0  0  0  0  0  0  0  0  0  0  0  0
  190.6130  178.3900  143.1920 C   0  0  0  0  0  3  0  0  0  0  0  0
  187.5260  177.1220  146.5950 C   0  0  0  0  0  3  0  0  0  0  0  0
  187.9840  178.1870  143.1240 C   0  0  0  0  0  0  0  0  0  0  0  0
  185.1590  178.4520  142.7720 C   0  0  0  0  0  0  0  0  0  0  0  0
  189.3400  178.0910  143.6790 C   0  0  0  0  0  0  0  0  0  0  0  0
  189.1840  177.6810  144.9640 C   0  0  0  0  0  0  0  0  0  0  0  0
  187.1160  177.8440  144.0880 C   0  0  0  0  0  0  0  0  0  0  0  0
  191.4960  177.7900  145.3820 N   0  0  0  0  0  0  0  0  0  0  0  0
  187.5610  178.5280  141.7220 C   0  0  1  0  0  3  0  0  0  0  0  0
  182.8830  179.0030  143.7320 N   0  0  0  0  0  2  0  0  0  0  0  0
  181.4360  179.1020  143.6400 C   0  0  0  0  0  1  0  0  0  0  0  0
  183.6880  178.5730  142.6320 C   0  0  0  0  0  0  0  0  0  0  0  0
  183.1360  178.2960  141.5310 O   0  0  0  0  0  0  0  0  0  0  0  0
  187.7460  177.3700  140.8550 N   0  0  0  0  0  2  0  0  0  0  0  0
  187.8680  177.8220  139.5850 O   0  0  0  0  0  0  0  0  0  0  0  0
  189.0750  178.5250  139.5800 C   0  0  0  0  0  2  0  0  0  0  0  0
  190.1430  177.6920  138.9530 C   0  0  0  0  0  0  0  0  0  0  0  0
  189.9520  177.2040  137.7140 C   0  0  0  0  0  3  0  0  0  0  0  0
  191.9490  175.6950  137.9680 C   0  0  2  0  0  3  0  0  0  0  0  0
  190.9860  176.3770  136.9930 C   0  0  0  0  0  2  0  0  0  0  0  0
  191.3400  177.3040  139.7910 C   0  0  0  0  0  2  0  0  0  0  0  0
  192.4870  176.7230  138.9600 C   0  0  0  0  0  2  0  0  0  0  0  0
  193.0950  175.0230  137.2160 C   0  0  0  0  0  2  0  0  0  0  0  0
  194.3060  175.6750  137.4660 O   0  0  0  0  0  1  0  0  0  0  0  0
  1  5  1  0  0  0  0
  2 15  1  0  0  0  0
  3 17  1  0  0  0  0
  3 12  1  0  0  0  0
  4 10  1  0  0  0  0
  6 16  2  0  0  0  0
  7  1  2  0  0  0  0
  8  3  2  0  0  0  0
  9 13  2  0  0  0  0
  9  6  1  0  0  0  0
 10  5  2  0  0  0  0
 11 13  1  0  0  0  0
 11 15  2  0  0  0  0
 12  2  2  0  0  0  0
 13 14  1  0  0  0  0
 14  4  2  0  0  0  0
 14  7  1  0  0  0  0
 15  4  1  0  0  0  0
 16  7  1  0  0  0  0
 17 22  1  6  0  0  0
 17 11  1  0  0  0  0
 19 18  1  0  0  0  0
 20 12  1  0  0  0  0
 20 18  1  0  0  0  0
 21 20  2  0  0  0  0
 23 22  1  0  0  0  0
 24 23  1  0  0  0  0
 25 24  1  0  0  0  0
 25 29  1  0  0  0  0
 26 25  2  0  0  0  0
 27 31  1  6  0  0  0
 27 30  1  0  0  0  0
 28 26  1  0  0  0  0
 28 27  1  0  0  0  0
 30 29  1  0  0  0  0
 31 32  1  0  0  0  0
M  END
>  <MODEL>
4

>  <REMARK>
 VINA RESULT:      -9.6      2.820      5.686
  Name = 
  6 active torsions:
  status: ('A' for Active; 'I' for Inactive)
    1  A    between atoms: C_2  and  C_3
    2  A    between atoms: C_2  and  O_13
    3  A    between atoms: C_10  and  C_17
    4  A    between atoms: O_13  and  N_20
    5  A    between atoms: C_18  and  C_24
    6  A    between atoms: N_20  and  C_32
                            x       y       z     vdW  Elec       q    Type
                         _______ _______ _______ _____ _____    ______ ____

>  <TORSDO>
F 6

$$$$
=
 OpenBabel10222416343D

 32 36  0  0  1  0  0  0  0  0999 V2000
  181.9650  178.9930  144.1760 C   0  0  0  0  0  3  0  0  0  0  0  0
  185.4300  178.2700  140.0630 C   0  0  0  0  0  3  0  0  0  0  0  0
  187.8300  178.3780  140.5780 C   0  0  0  0  0  0  0  0  0  0  0  0
  183.9030  178.5230  142.2090 C   0  0  0  0  0  0  0  0  0  0  0  0
  181.5930  178.8590  142.8100 C   0  0  0  0  0  3  0  0  0  0  0  0
  185.1510  178.9640  146.0620 C   0  0  0  0  0  3  0  0  0  0  0  0
  183.3210  178.8860  144.5330 C   0  0  0  0  0  0  0  0  0  0  0  0
  188.9990  178.6380  140.1870 O   0  0  0  0  0  0  0  0  0  0  0  0
  186.0840  178.7240  145.0200 C   0  0  0  0  0  3  0  0  0  0  0  0
  182.5680  178.6290  141.8030 C   0  0  0  0  0  3  0  0  0  0  0  0
  186.1660  178.3500  142.4090 C   0  0  0  0  0  0  0  0  0  0  0  0
  186.6940  178.2910  139.6000 C   0  0  0  0  0  0  0  0  0  0  0  0
  185.5670  178.5510  143.7350 C   0  0  0  0  0  0  0  0  0  0  0  0
  184.2290  178.6410  143.5250 C   0  0  0  0  0  0  0  0  0  0  0  0
  185.1760  178.3380  141.5050 C   0  0  0  0  0  0  0  0  0  0  0  0
  183.7990  179.0390  145.8020 N   0  0  0  0  0  0  0  0  0  0  0  0
  187.6080  178.1180  142.0520 C   0  0  1  0  0  3  0  0  0  0  0  0
  187.6160  177.1700  137.5270 N   0  0  0  0  0  2  0  0  0  0  0  0
  187.8850  177.1240  136.0990 C   0  0  0  0  0  1  0  0  0  0  0  0
  186.9220  178.2610  138.1360 C   0  0  0  0  0  0  0  0  0  0  0  0
  186.5000  179.2080  137.4150 O   0  0  0  0  0  0  0  0  0  0  0  0
  187.9700  176.7340  142.3370 N   0  0  0  0  0  2  0  0  0  0  0  0
  189.3090  176.6910  142.5300 O   0  0  0  0  0  0  0  0  0  0  0  0
  189.5590  177.6940  143.4680 C   0  0  0  0  0  2  0  0  0  0  0  0
  190.2670  177.1170  144.6490 C   0  0  0  0  0  0  0  0  0  0  0  0
  189.8100  177.3860  145.8840 C   0  0  0  0  0  3  0  0  0  0  0  0
  191.9090  176.4410  146.9000 C   0  0  2  0  0  3  0  0  0  0  0  0
  190.4450  176.8250  147.1310 C   0  0  0  0  0  2  0  0  0  0  0  0
  191.5620  176.3700  144.4190 C   0  0  0  0  0  2  0  0  0  0  0  0
  192.0200  175.5780  145.6450 C   0  0  0  0  0  2  0  0  0  0  0  0
  192.4730  175.7030  148.1110 C   0  0  0  0  0  2  0  0  0  0  0  0
  193.1160  176.5880  148.9810 O   0  0  0  0  0  1  0  0  0  0  0  0
  1  7  1  0  0  0  0
  2 15  1  0  0  0  0
  3 17  1  0  0  0  0
  4 14  1  0  0  0  0
  5  1  2  0  0  0  0
  7 16  2  0  0  0  0
  8  3  2  0  0  0  0
  9  6  2  0  0  0  0
 10  4  2  0  0  0  0
 10  5  1  0  0  0  0
 11 13  1  0  0  0  0
 12  2  2  0  0  0  0
 12  3  1  0  0  0  0
 13  9  1  0  0  0  0
 14 13  2  0  0  0  0
 14  7  1  0  0  0  0
 15  4  1  0  0  0  0
 15 11  2  0  0  0  0
 16  6  1  0  0  0  0
 17 22  1  6  0  0  0
 17 11  1  0  0  0  0
 18 20  1  0  0  0  0
 19 18  1  0  0  0  0
 20 12  1  0  0  0  0
 21 20  2  0  0  0  0
 22 23  1  0  0  0  0
 23 24  1  0  0  0  0
 24 25  1  0  0  0  0
 25 26  2  0  0  0  0
 26 28  1  0  0  0  0
 27 28  1  0  0  0  0
 27 31  1  1  0  0  0
 29 25  1  0  0  0  0
 29 30  1  0  0  0  0
 30 27  1  0  0  0  0
 31 32  1  0  0  0  0
M  END
>  <MODEL>
5

>  <REMARK>
 VINA RESULT:      -9.6      2.448      7.383
  Name = 
  6 active torsions:
  status: ('A' for Active; 'I' for Inactive)
    1  A    between atoms: C_2  and  C_3
    2  A    between atoms: C_2  and  O_13
    3  A    between atoms: C_10  and  C_17
    4  A    between atoms: O_13  and  N_20
    5  A    between atoms: C_18  and  C_24
    6  A    between atoms: N_20  and  C_32
                            x       y       z     vdW  Elec       q    Type
                         _______ _______ _______ _____ _____    ______ ____

>  <TORSDO>
F 6

$$$$
=
 OpenBabel10222416343D

 32 36  0  0  1  0  0  0  0  0999 V2000
  188.7120  177.3010  148.0460 C   0  0  0  0  0  3  0  0  0  0  0  0
  186.2280  178.1200  143.2910 C   0  0  0  0  0  3  0  0  0  0  0  0
  187.6520  178.3700  141.3040 C   0  0  0  0  0  0  0  0  0  0  0  0
  187.6090  177.6070  145.4890 C   0  0  0  0  0  0  0  0  0  0  0  0
  187.3130  177.4940  147.8790 C   0  0  0  0  0  3  0  0  0  0  0  0
  191.6450  177.1480  145.7920 C   0  0  0  0  0  3  0  0  0  0  0  0
  189.5410  177.2640  146.9100 C   0  0  0  0  0  0  0  0  0  0  0  0
  187.8100  178.8620  140.1540 O   0  0  0  0  0  0  0  0  0  0  0  0
  191.0270  177.3080  144.5250 C   0  0  0  0  0  3  0  0  0  0  0  0
  186.7440  177.6580  146.5880 C   0  0  0  0  0  3  0  0  0  0  0  0
  188.6390  177.6570  143.4570 C   0  0  0  0  0  0  0  0  0  0  0  0
  186.3120  178.4140  141.9800 C   0  0  0  0  0  0  0  0  0  0  0  0
  189.6360  177.4240  144.5110 C   0  0  0  0  0  0  0  0  0  0  0  0
  188.9420  177.4070  145.6770 C   0  0  0  0  0  0  0  0  0  0  0  0
  187.4370  177.7700  144.0420 C   0  0  0  0  0  0  0  0  0  0  0  0
  190.8990  177.1290  146.9510 N   0  0  0  0  0  0  0  0  0  0  0  0
  188.8350  177.7010  141.9670 C   0  0  1  0  0  3  0  0  0  0  0  0
  183.8220  178.2040  141.5730 N   0  0  0  0  0  2  0  0  0  0  0  0
  182.6010  178.5390  140.8600 C   0  0  0  0  0  1  0  0  0  0  0  0
  185.0800  178.8030  141.2530 C   0  0  0  0  0  0  0  0  0  0  0  0
  185.1380  179.6730  140.3400 O   0  0  0  0  0  0  0  0  0  0  0  0
  188.9520  176.3450  141.4450 N   0  0  0  0  0  2  0  0  0  0  0  0
  190.2710  176.0730  141.2970 O   0  0  0  0  0  0  0  0  0  0  0  0
  190.7570  177.1210  140.5140 C   0  0  0  0  0  2  0  0  0  0  0  0
  191.2480  176.5900  139.2070 C   0  0  0  0  0  0  0  0  0  0  0  0
  192.5430  176.7440  138.8820 C   0  0  0  0  0  3  0  0  0  0  0  0
  192.0640  176.0350  136.5160 C   0  0  2  0  0  3  0  0  0  0  0  0
  193.1310  176.2170  137.5980 C   0  0  0  0  0  2  0  0  0  0  0  0
  190.2380  176.0270  138.2320 C   0  0  0  0  0  2  0  0  0  0  0  0
  190.8860  175.2480  137.0850 C   0  0  0  0  0  2  0  0  0  0  0  0
  192.6450  175.3250  135.2960 C   0  0  0  0  0  2  0  0  0  0  0  0
  193.7780  174.5820  135.6430 O   0  0  0  0  0  1  0  0  0  0  0  0
  2 15  1  0  0  0  0
  3 17  1  0  0  0  0
  3 12  1  0  0  0  0
  4 14  2  0  0  0  0
  4 10  1  0  0  0  0
  5  1  1  0  0  0  0
  6 16  2  0  0  0  0
  7 16  1  0  0  0  0
  7  1  2  0  0  0  0
  8  3  2  0  0  0  0
  9  6  1  0  0  0  0
 10  5  2  0  0  0  0
 11 15  2  0  0  0  0
 11 13  1  0  0  0  0
 12  2  2  0  0  0  0
 13  9  2  0  0  0  0
 13 14  1  0  0  0  0
 14  7  1  0  0  0  0
 15  4  1  0  0  0  0
 17 22  1  6  0  0  0
 17 11  1  0  0  0  0
 19 18  1  0  0  0  0
 20 18  1  0  0  0  0
 20 12  1  0  0  0  0
 21 20  2  0  0  0  0
 23 22  1  0  0  0  0
 24 23  1  0  0  0  0
 25 24  1  0  0  0  0
 26 25  2  0  0  0  0
 27 31  1  6  0  0  0
 27 30  1  0  0  0  0
 27 28  1  0  0  0  0
 28 26  1  0  0  0  0
 29 25  1  0  0  0  0
 30 29  1  0  0  0  0
 31 32  1  0  0  0  0
M  END
>  <MODEL>
6

>  <REMARK>
 VINA RESULT:      -9.6      2.286      5.468
  Name = 
  6 active torsions:
  status: ('A' for Active; 'I' for Inactive)
    1  A    between atoms: C_2  and  C_3
    2  A    between atoms: C_2  and  O_13
    3  A    between atoms: C_10  and  C_17
    4  A    between atoms: O_13  and  N_20
    5  A    between atoms: C_18  and  C_24
    6  A    between atoms: N_20  and  C_32
                            x       y       z     vdW  Elec       q    Type
                         _______ _______ _______ _____ _____    ______ ____

>  <TORSDO>
F 6

$$$$
=
 OpenBabel10222416343D

 32 36  0  0  1  0  0  0  0  0999 V2000
  183.3520  178.9420  145.0920 C   0  0  0  0  0  3  0  0  0  0  0  0
  188.5300  177.3430  144.8140 C   0  0  0  0  0  3  0  0  0  0  0  0
  189.4000  176.7200  142.6020 C   0  0  0  0  0  0  0  0  0  0  0  0
  186.0310  178.2100  144.7310 C   0  0  0  0  0  0  0  0  0  0  0  0
  184.2070  178.7480  146.2120 C   0  0  0  0  0  3  0  0  0  0  0  0
  183.7000  178.6430  141.4190 C   0  0  0  0  0  3  0  0  0  0  0  0
  183.8660  178.7640  143.7950 C   0  0  0  0  0  0  0  0  0  0  0  0
  190.2080  176.0310  141.9240 O   0  0  0  0  0  0  0  0  0  0  0  0
  185.0650  178.2730  141.3010 C   0  0  0  0  0  3  0  0  0  0  0  0
  185.5650  178.3690  146.0410 C   0  0  0  0  0  3  0  0  0  0  0  0
  187.1760  177.7840  142.8070 C   0  0  0  0  0  0  0  0  0  0  0  0
  189.5400  176.8210  144.0940 C   0  0  0  0  0  0  0  0  0  0  0  0
  185.7990  178.1810  142.4850 C   0  0  0  0  0  0  0  0  0  0  0  0
  185.1950  178.4170  143.6780 C   0  0  0  0  0  0  0  0  0  0  0  0
  187.3100  177.7980  144.1420 C   0  0  0  0  0  0  0  0  0  0  0  0
  183.1300  178.8790  142.6510 N   0  0  0  0  0  0  0  0  0  0  0  0
  188.3110  177.4750  141.8710 C   0  0  1  0  0  3  0  0  0  0  0  0
  190.8680  176.4670  146.2190 N   0  0  0  0  0  2  0  0  0  0  0  0
  192.0500  176.0270  146.9410 C   0  0  0  0  0  1  0  0  0  0  0  0
  190.7470  176.3320  144.8010 C   0  0  0  0  0  0  0  0  0  0  0  0
  191.6820  175.7880  144.1490 O   0  0  0  0  0  0  0  0  0  0  0  0
  188.8760  178.7150  141.3530 N   0  0  0  0  0  2  0  0  0  0  0  0
  188.2970  178.9610  140.1540 O   0  0  0  0  0  0  0  0  0  0  0  0
  189.0760  178.2520  139.2390 C   0  0  0  0  0  2  0  0  0  0  0  0
  188.1930  177.5250  138.2800 C   0  0  0  0  0  0  0  0  0  0  0  0
  186.9120  177.9100  138.1460 C   0  0  0  0  0  3  0  0  0  0  0  0
  186.3890  175.8250  136.8390 C   0  0  2  0  0  3  0  0  0  0  0  0
  185.9560  177.2520  137.1830 C   0  0  0  0  0  2  0  0  0  0  0  0
  188.7320  176.2870  137.5990 C   0  0  0  0  0  2  0  0  0  0  0  0
  187.8600  175.8200  136.4320 C   0  0  0  0  0  2  0  0  0  0  0  0
  185.5200  175.2500  135.7230 C   0  0  0  0  0  2  0  0  0  0  0  0
  184.3200  174.7470  136.2340 O   0  0  0  0  0  1  0  0  0  0  0  0
  1  5  1  0  0  0  0
  3 12  1  0  0  0  0
  4 10  1  0  0  0  0
  6 16  2  0  0  0  0
  7  1  2  0  0  0  0
  8  3  2  0  0  0  0
  9  6  1  0  0  0  0
  9 13  2  0  0  0  0
 10  5  2  0  0  0  0
 11 15  2  0  0  0  0
 12 20  1  0  0  0  0
 12  2  2  0  0  0  0
 13 11  1  0  0  0  0
 13 14  1  0  0  0  0
 14  7  1  0  0  0  0
 14  4  2  0  0  0  0
 15  4  1  0  0  0  0
 15  2  1  0  0  0  0
 16  7  1  0  0  0  0
 17 22  1  1  0  0  0
 17  3  1  0  0  0  0
 17 11  1  0  0  0  0
 18 19  1  0  0  0  0
 20 18  1  0  0  0  0
 21 20  2  0  0  0  0
 23 22  1  0  0  0  0
 24 23  1  0  0  0  0
 25 24  1  0  0  0  0
 26 25  2  0  0  0  0
 27 31  1  6  0  0  0
 27 28  1  0  0  0  0
 28 26  1  0  0  0  0
 29 25  1  0  0  0  0
 30 27  1  0  0  0  0
 30 29  1  0  0  0  0
 31 32  1  0  0  0  0
M  END
>  <MODEL>
7

>  <REMARK>
 VINA RESULT:      -9.5      2.158      2.802
  Name = 
  6 active torsions:
  status: ('A' for Active; 'I' for Inactive)
    1  A    between atoms: C_2  and  C_3
    2  A    between atoms: C_2  and  O_13
    3  A    between atoms: C_10  and  C_17
    4  A    between atoms: O_13  and  N_20
    5  A    between atoms: C_18  and  C_24
    6  A    between atoms: N_20  and  C_32
                            x       y       z     vdW  Elec       q    Type
                         _______ _______ _______ _____ _____    ______ ____

>  <TORSDO>
F 6

$$$$
=
 OpenBabel10222416343D

 32 36  0  0  1  0  0  0  0  0999 V2000
  189.9650  177.1320  147.3730 C   0  0  0  0  0  3  0  0  0  0  0  0
  185.7830  177.8890  144.0000 C   0  0  0  0  0  3  0  0  0  0  0  0
  186.2810  178.8050  141.7740 C   0  0  0  0  0  0  0  0  0  0  0  0
  187.9550  177.4760  145.4540 C   0  0  0  0  0  0  0  0  0  0  0  0
  188.5970  176.9480  147.7160 C   0  0  0  0  0  3  0  0  0  0  0  0
  191.8150  178.1250  144.3240 C   0  0  0  0  0  3  0  0  0  0  0  0
  190.3020  177.4890  146.0550 C   0  0  0  0  0  0  0  0  0  0  0  0
  185.8940  179.4790  140.7820 O   0  0  0  0  0  0  0  0  0  0  0  0
  190.7520  178.2830  143.3970 C   0  0  0  0  0  3  0  0  0  0  0  0
  187.5690  177.1280  146.7520 C   0  0  0  0  0  3  0  0  0  0  0  0
  188.1230  178.0990  143.2680 C   0  0  0  0  0  0  0  0  0  0  0  0
  185.3100  178.3770  142.8370 C   0  0  0  0  0  0  0  0  0  0  0  0
  189.4640  178.0070  143.8590 C   0  0  0  0  0  0  0  0  0  0  0  0
  189.2720  177.6320  145.1500 C   0  0  0  0  0  0  0  0  0  0  0  0
  187.2290  177.7870  144.2180 C   0  0  0  0  0  0  0  0  0  0  0  0
  191.5730  177.7340  145.6240 N   0  0  0  0  0  0  0  0  0  0  0  0
  187.7390  178.4060  141.8470 C   0  0  1  0  0  3  0  0  0  0  0  0
  183.0060  178.8970  143.7460 N   0  0  0  0  0  2  0  0  0  0  0  0
  181.5630  179.0030  143.6130 C   0  0  0  0  0  1  0  0  0  0  0  0
  183.8450  178.5050  142.6570 C   0  0  0  0  0  0  0  0  0  0  0  0
  183.3270  178.2680  141.5300 O   0  0  0  0  0  0  0  0  0  0  0  0
  187.9360  177.2250  141.0160 N   0  0  0  0  0  2  0  0  0  0  0  0
  189.1420  177.3450  140.4110 O   0  0  0  0  0  0  0  0  0  0  0  0
  188.9230  178.2520  139.3730 C   0  0  0  0  0  2  0  0  0  0  0  0
  188.2300  177.5680  138.2410 C   0  0  0  0  0  0  0  0  0  0  0  0
  188.8540  176.5640  137.6010 C   0  0  0  0  0  3  0  0  0  0  0  0
  187.1240  176.6130  135.7750 C   0  0  2  0  0  3  0  0  0  0  0  0
  188.2200  175.7990  136.4660 C   0  0  0  0  0  2  0  0  0  0  0  0
  186.9090  178.1260  137.7610 C   0  0  0  0  0  2  0  0  0  0  0  0
  186.1650  177.1750  136.8220 C   0  0  0  0  0  2  0  0  0  0  0  0
  186.3710  175.7550  134.7610 C   0  0  0  0  0  2  0  0  0  0  0  0
  186.2450  174.4390  135.2160 O   0  0  0  0  0  1  0  0  0  0  0  0
  1  5  1  0  0  0  0
  2 15  1  0  0  0  0
  3 17  1  0  0  0  0
  3 12  1  0  0  0  0
  4 10  1  0  0  0  0
  6 16  2  0  0  0  0
  7  1  2  0  0  0  0
  8  3  2  0  0  0  0
  9 13  2  0  0  0  0
  9  6  1  0  0  0  0
 10  5  2  0  0  0  0
 11 13  1  0  0  0  0
 11 15  2  0  0  0  0
 12  2  2  0  0  0  0
 13 14  1  0  0  0  0
 14  4  2  0  0  0  0
 14  7  1  0  0  0  0
 15  4  1  0  0  0  0
 16  7  1  0  0  0  0
 17 22  1  6  0  0  0
 17 11  1  0  0  0  0
 19 18  1  0  0  0  0
 20 12  1  0  0  0  0
 20 18  1  0  0  0  0
 21 20  2  0  0  0  0
 23 22  1  0  0  0  0
 24 23  1  0  0  0  0
 25 24  1  0  0  0  0
 26 25  2  0  0  0  0
 27 31  1  6  0  0  0
 27 28  1  0  0  0  0
 27 30  1  0  0  0  0
 28 26  1  0  0  0  0
 29 25  1  0  0  0  0
 30 29  1  0  0  0  0
 31 32  1  0  0  0  0
M  END
>  <MODEL>
8

>  <REMARK>
 VINA RESULT:      -9.2      2.673      5.651
  Name = 
  6 active torsions:
  status: ('A' for Active; 'I' for Inactive)
    1  A    between atoms: C_2  and  C_3
    2  A    between atoms: C_2  and  O_13
    3  A    between atoms: C_10  and  C_17
    4  A    between atoms: O_13  and  N_20
    5  A    between atoms: C_18  and  C_24
    6  A    between atoms: N_20  and  C_32
                            x       y       z     vdW  Elec       q    Type
                         _______ _______ _______ _____ _____    ______ ____

>  <TORSDO>
F 6

$$$$
=
 OpenBabel10222416343D

 32 36  0  0  1  0  0  0  0  0999 V2000
  179.9630  179.2220  141.6860 C   0  0  0  0  0  3  0  0  0  0  0  0
  184.2860  178.9160  144.9510 C   0  0  0  0  0  3  0  0  0  0  0  0
  186.2530  177.7090  144.1080 C   0  0  0  0  0  0  0  0  0  0  0  0
  182.3290  179.0650  143.1770 C   0  0  0  0  0  0  0  0  0  0  0  0
  180.0040  179.6870  143.0290 C   0  0  0  0  0  3  0  0  0  0  0  0
  182.3610  177.6110  139.3710 C   0  0  0  0  0  3  0  0  0  0  0  0
  181.1250  178.6810  141.1090 C   0  0  0  0  0  0  0  0  0  0  0  0
  187.2780  177.0220  144.3610 O   0  0  0  0  0  0  0  0  0  0  0  0
  183.5280  177.5590  140.1770 C   0  0  0  0  0  3  0  0  0  0  0  0
  181.1970  179.6050  143.7970 C   0  0  0  0  0  3  0  0  0  0  0  0
  184.3590  178.2090  142.5950 C   0  0  0  0  0  0  0  0  0  0  0  0
  185.5070  178.4110  145.2060 C   0  0  0  0  0  0  0  0  0  0  0  0
  183.4380  178.1110  141.4560 C   0  0  0  0  0  0  0  0  0  0  0  0
  182.2640  178.6410  141.8850 C   0  0  0  0  0  0  0  0  0  0  0  0
  183.6960  178.7720  143.6170 C   0  0  0  0  0  0  0  0  0  0  0  0
  181.1920  178.1660  139.8470 N   0  0  0  0  0  0  0  0  0  0  0  0
  185.8150  177.8380  142.6650 C   0  0  1  0  0  3  0  0  0  0  0  0
  187.2720  177.8630  146.9350 N   0  0  0  0  0  2  0  0  0  0  0  0
  187.8290  177.9380  148.2760 C   0  0  0  0  0  1  0  0  0  0  0  0
  186.0640  178.5360  146.5740 C   0  0  0  0  0  0  0  0  0  0  0  0
  185.4680  179.2440  147.4330 O   0  0  0  0  0  0  0  0  0  0  0  0
  186.6190  178.8750  142.0290 N   0  0  0  0  0  2  0  0  0  0  0  0
  187.3570  178.2860  141.0590 O   0  0  0  0  0  0  0  0  0  0  0  0
  188.6340  178.8270  141.2170 C   0  0  0  0  0  2  0  0  0  0  0  0
  189.4320  177.9780  142.1510 C   0  0  0  0  0  0  0  0  0  0  0  0
  190.0310  178.5520  143.2090 C   0  0  0  0  0  3  0  0  0  0  0  0
  191.3580  176.4560  143.6320 C   0  0  2  0  0  3  0  0  0  0  0  0
  190.8330  177.7690  144.2180 C   0  0  0  0  0  2  0  0  0  0  0  0
  189.6580  176.5270  141.7920 C   0  0  0  0  0  2  0  0  0  0  0  0
  190.2140  175.7040  142.9550 C   0  0  0  0  0  2  0  0  0  0  0  0
  191.9990  175.5960  144.7180 C   0  0  0  0  0  2  0  0  0  0  0  0
  191.9720  176.2500  145.9530 O   0  0  0  0  0  1  0  0  0  0  0  0
  1  5  1  0  0  0  0
  2 12  2  0  0  0  0
  3  8  2  0  0  0  0
  3 12  1  0  0  0  0
  4 15  1  0  0  0  0
  4 10  1  0  0  0  0
  5 10  2  0  0  0  0
  6 16  2  0  0  0  0
  6  9  1  0  0  0  0
  7  1  2  0  0  0  0
  7 14  1  0  0  0  0
  9 13  2  0  0  0  0
 11 17  1  0  0  0  0
 11 15  2  0  0  0  0
 12 20  1  0  0  0  0
 13 14  1  0  0  0  0
 13 11  1  0  0  0  0
 14  4  2  0  0  0  0
 15  2  1  0  0  0  0
 16  7  1  0  0  0  0
 17 22  1  1  0  0  0
 17  3  1  0  0  0  0
 18 19  1  0  0  0  0
 20 18  1  0  0  0  0
 20 21  2  0  0  0  0
 23 24  1  0  0  0  0
 23 22  1  0  0  0  0
 24 25  1  0  0  0  0
 25 26  2  0  0  0  0
 26 28  1  0  0  0  0
 27 28  1  0  0  0  0
 27 31  1  1  0  0  0
 29 25  1  0  0  0  0
 29 30  1  0  0  0  0
 30 27  1  0  0  0  0
 31 32  1  0  0  0  0
M  END
>  <MODEL>
9

>  <REMARK>
 VINA RESULT:      -9.1      3.315      5.836
  Name = 
  6 active torsions:
  status: ('A' for Active; 'I' for Inactive)
    1  A    between atoms: C_2  and  C_3
    2  A    between atoms: C_2  and  O_13
    3  A    between atoms: C_10  and  C_17
    4  A    between atoms: O_13  and  N_20
    5  A    between atoms: C_18  and  C_24
    6  A    between atoms: N_20  and  C_32
                            x       y       z     vdW  Elec       q    Type
                         _______ _______ _______ _____ _____    ______ ____

>  <TORSDO>
F 6

$$$$
