=
 OpenBabel10222421263D

 40 44  0  0  1  0  0  0  0  0999 V2000
  191.8410  173.7240  137.4420 C   0  0  0  0  0  1  0  0  0  0  0  0
  190.6710  176.4410  139.1930 C   0  0  1  0  0  3  0  0  0  0  0  0
  189.3830  178.5360  139.6970 C   0  0  0  0  0  3  0  0  0  0  0  0
  192.5700  176.1060  137.5160 C   0  0  0  0  0  0  0  0  0  0  0  0
  190.2620  175.5100  136.9580 N   0  0  0  0  0  0  0  0  0  0  0  0
  192.7850  177.5960  139.3620 O   0  0  0  0  0  0  0  0  0  0  0  0
  188.0990  177.8650  137.6830 N   0  0  0  0  0  2  0  0  0  0  0  0
  188.3230  176.4540  138.0370 C   0  0  0  0  0  2  0  0  0  0  0  0
  190.0850  177.4790  140.1420 C   0  0  0  0  0  0  0  0  0  0  0  0
  189.7760  176.0770  138.0150 C   0  0  0  0  0  0  0  0  0  0  0  0
  191.6550  175.1090  136.8380 C   0  0  2  0  0  3  0  0  0  0  0  0
  189.1060  178.7850  138.2400 C   0  0  0  0  0  2  0  0  0  0  0  0
  193.8050  176.3610  137.0640 C   0  0  0  0  0  3  0  0  0  0  0  0
  192.0620  176.7850  138.7220 C   0  0  0  0  0  0  0  0  0  0  0  0
  192.0640  175.1480  143.9030 O   0  0  0  0  0  0  0  0  0  0  0  0
  189.3390  178.1350  147.2100 C   0  0  0  0  0  1  0  0  0  0  0  0
  188.5830  178.1430  144.8350 C   0  0  2  0  0  3  0  0  0  0  0  0
  191.3210  176.0750  143.4830 C   0  0  0  0  0  0  0  0  0  0  0  0
  190.5120  176.8330  144.3830 N   0  0  0  0  0  0  0  0  0  0  0  0
  191.2370  176.3580  142.0880 N   0  0  0  0  0  2  0  0  0  0  0  0
  190.0240  176.3270  145.6490 C   0  0  0  0  0  2  0  0  0  0  0  0
  189.6090  178.0950  142.4610 C   0  0  0  0  0  3  0  0  0  0  0  0
  190.3000  177.3330  141.5990 C   0  0  0  0  0  0  0  0  0  0  0  0
  189.8330  178.0410  143.9550 C   0  0  1  0  0  3  0  0  0  0  0  0
  188.8850  177.2610  146.0550 C   0  0  1  0  0  3  0  0  0  0  0  0
  187.2730  177.7290  144.1290 C   0  0  1  0  0  3  0  0  0  0  0  0
  187.2510  176.2830  143.6370 C   0  0  0  0  0  1  0  0  0  0  0  0
  186.1040  178.0420  144.9230 N   0  0  0  0  0  0  0  0  0  0  0  0
  185.0850  178.6590  144.4380 C   0  0  0  0  0  3  0  0  0  0  0  0
  184.1890  178.6160  146.6250 O   0  0  0  0  0  1  0  0  0  0  0  0
  183.9050  178.9560  145.3020 C   0  0  0  0  0  2  0  0  0  0  0  0
  194.4020  175.7140  135.8520 C   0  0  0  0  0  2  0  0  0  0  0  0
  195.8760  175.3860  136.0590 C   0  0  0  0  0  2  0  0  0  0  0  0
  194.9960  171.7720  135.9190 C   0  0  2  0  0  3  0  0  0  0  0  0
  196.4290  173.2030  137.6040 S   0  0  0  0  0  0  0  0  0  0  0  0
  193.6380  171.1090  135.7710 C   0  0  0  0  0  1  0  0  0  0  0  0
  196.1310  173.8900  135.9540 C   0  0  1  0  0  3  0  0  0  0  0  0
  196.2240  170.6200  137.5460 C   0  0  0  0  0  1  0  0  0  0  0  0
  195.3930  171.7910  137.3210 N   0  0  0  0  0  0  0  0  0  0  0  0
  194.9150  173.1900  135.4120 C   0  0  0  0  0  2  0  0  0  0  0  0
  2 10  1  6  0  0  0
  2  9  1  0  0  0  0
  3  9  2  0  0  0  0
  4 14  1  0  0  0  0
  5 10  2  0  0  0  0
  7  8  1  0  0  0  0
  7 12  1  0  0  0  0
  9 23  1  0  0  0  0
 10  8  1  0  0  0  0
 11  5  1  0  0  0  0
 11  1  1  1  0  0  0
 11  4  1  0  0  0  0
 12  3  1  0  0  0  0
 13  4  2  0  0  0  0
 14  2  1  0  0  0  0
 14  6  2  0  0  0  0
 17 26  1  6  0  0  0
 17 25  1  0  0  0  0
 18 15  2  0  0  0  0
 18 19  1  0  0  0  0
 19 21  1  0  0  0  0
 20 18  1  0  0  0  0
 21 25  1  0  0  0  0
 23 20  1  0  0  0  0
 23 22  2  0  0  0  0
 24 22  1  6  0  0  0
 24 19  1  0  0  0  0
 24 17  1  0  0  0  0
 25 16  1  1  0  0  0
 26 27  1  1  0  0  0
 26 28  1  0  0  0  0
 29 28  2  0  0  0  0
 29 31  1  0  0  0  0
 31 30  1  0  0  0  0
 32 33  1  0  0  0  0
 32 13  1  0  0  0  0
 34 36  1  1  0  0  0
 34 39  1  0  0  0  0
 37 33  1  1  0  0  0
 37 35  1  0  0  0  0
 39 38  1  0  0  0  0
 39 35  1  0  0  0  0
 40 34  1  0  0  0  0
 40 37  1  0  0  0  0
M  END
>  <MODEL>
1

>  <REMARK>
 VINA RESULT:      -7.7      0.000      0.000
  Name = 
  7 active torsions:
  status: ('A' for Active; 'I' for Inactive)
    1  A    between atoms: C_10  and  C_20
    2  A    between atoms: N_15  and  C_20
    3  A    between atoms: C_21  and  C_26
    4  A    between atoms: C_22  and  C_31
    5  A    between atoms: C_22  and  C_38
    6  A    between atoms: C_27  and  C_31
    7  A    between atoms: C_33  and  C_35
                            x       y       z     vdW  Elec       q    Type
                         _______ _______ _______ _____ _____    ______ ____

>  <TORSDO>
F 7

$$$$
=
 OpenBabel10222421263D

 40 44  0  0  1  0  0  0  0  0999 V2000
  189.7830  173.4170  136.7660 C   0  0  0  0  0  1  0  0  0  0  0  0
  189.3510  176.4680  138.2910 C   0  0  1  0  0  3  0  0  0  0  0  0
  188.8350  178.9110  138.5580 C   0  0  0  0  0  3  0  0  0  0  0  0
  191.2930  175.3820  137.0350 C   0  0  0  0  0  0  0  0  0  0  0  0
  189.0860  175.6190  136.0020 N   0  0  0  0  0  0  0  0  0  0  0  0
  191.6600  176.7990  138.9140 O   0  0  0  0  0  0  0  0  0  0  0  0
  187.8240  178.6290  136.3110 N   0  0  0  0  0  2  0  0  0  0  0  0
  187.4470  177.2540  136.6760 C   0  0  0  0  0  2  0  0  0  0  0  0
  189.0030  177.7000  139.1180 C   0  0  0  0  0  0  0  0  0  0  0  0
  188.6380  176.3820  136.9460 C   0  0  0  0  0  0  0  0  0  0  0  0
  190.2340  174.7400  136.1640 C   0  0  2  0  0  3  0  0  0  0  0  0
  188.9630  179.1590  137.0810 C   0  0  0  0  0  2  0  0  0  0  0  0
  192.6000  175.1520  136.8530 C   0  0  0  0  0  3  0  0  0  0  0  0
  190.8360  176.2650  138.1230 C   0  0  0  0  0  0  0  0  0  0  0  0
  189.9500  175.3750  143.2640 O   0  0  0  0  0  0  0  0  0  0  0  0
  186.5920  178.4780  145.7910 C   0  0  0  0  0  1  0  0  0  0  0  0
  186.4320  178.4700  143.3040 C   0  0  2  0  0  3  0  0  0  0  0  0
  189.3560  176.3150  142.6700 C   0  0  0  0  0  0  0  0  0  0  0  0
  188.3760  177.1050  143.3410 N   0  0  0  0  0  0  0  0  0  0  0  0
  189.6200  176.5780  141.2940 N   0  0  0  0  0  2  0  0  0  0  0  0
  187.5830  176.6310  144.4560 C   0  0  0  0  0  2  0  0  0  0  0  0
  188.0000  178.3620  141.2490 C   0  0  0  0  0  3  0  0  0  0  0  0
  188.8560  177.5700  140.5850 C   0  0  0  0  0  0  0  0  0  0  0  0
  187.8550  178.3240  142.7520 C   0  0  1  0  0  3  0  0  0  0  0  0
  186.4070  177.5990  144.5680 C   0  0  1  0  0  3  0  0  0  0  0  0
  185.3210  178.0790  142.3050 C   0  0  1  0  0  3  0  0  0  0  0  0
  183.9030  178.1900  142.8640 C   0  0  0  0  0  1  0  0  0  0  0  0
  185.4540  178.7750  141.0430 N   0  0  0  0  0  0  0  0  0  0  0  0
  184.5020  178.8240  140.1790 C   0  0  0  0  0  3  0  0  0  0  0  0
  183.9190  180.7170  138.8880 O   0  0  0  0  0  1  0  0  0  0  0  0
  184.6930  179.5550  138.8920 C   0  0  0  0  0  2  0  0  0  0  0  0
  193.1510  174.2660  135.7770 C   0  0  0  0  0  2  0  0  0  0  0  0
  193.5440  172.8980  136.3240 C   0  0  0  0  0  2  0  0  0  0  0  0
  196.3990  173.8880  138.4970 C   0  0  2  0  0  3  0  0  0  0  0  0
  195.9560  174.1110  135.9100 S   0  0  0  0  0  0  0  0  0  0  0  0
  196.4060  174.6990  139.7810 C   0  0  0  0  0  1  0  0  0  0  0  0
  194.9780  172.8970  136.8320 C   0  0  1  0  0  3  0  0  0  0  0  0
  198.1790  174.5960  137.1500 C   0  0  0  0  0  1  0  0  0  0  0  0
  196.7500  174.7390  137.3660 N   0  0  0  0  0  0  0  0  0  0  0  0
  195.0210  173.3200  138.2750 C   0  0  0  0  0  2  0  0  0  0  0  0
  2 10  1  6  0  0  0
  2  9  1  0  0  0  0
  3  9  2  0  0  0  0
  4 14  1  0  0  0  0
  5 11  1  0  0  0  0
  5 10  2  0  0  0  0
  7  8  1  0  0  0  0
  7 12  1  0  0  0  0
  8 10  1  0  0  0  0
  9 23  1  0  0  0  0
 11  1  1  1  0  0  0
 11  4  1  0  0  0  0
 12  3  1  0  0  0  0
 13  4  2  0  0  0  0
 14  2  1  0  0  0  0
 14  6  2  0  0  0  0
 17 26  1  6  0  0  0
 17 25  1  0  0  0  0
 18 15  2  0  0  0  0
 18 19  1  0  0  0  0
 19 21  1  0  0  0  0
 20 18  1  0  0  0  0
 21 25  1  0  0  0  0
 23 22  2  0  0  0  0
 23 20  1  0  0  0  0
 24 22  1  6  0  0  0
 24 17  1  0  0  0  0
 24 19  1  0  0  0  0
 25 16  1  1  0  0  0
 26 27  1  1  0  0  0
 28 26  1  0  0  0  0
 29 28  2  0  0  0  0
 30 31  1  0  0  0  0
 31 29  1  0  0  0  0
 32 33  1  0  0  0  0
 32 13  1  0  0  0  0
 34 36  1  1  0  0  0
 35 37  1  0  0  0  0
 35 39  1  0  0  0  0
 37 33  1  6  0  0  0
 37 40  1  0  0  0  0
 38 39  1  0  0  0  0
 39 34  1  0  0  0  0
 40 34  1  0  0  0  0
M  END
>  <MODEL>
2

>  <REMARK>
 VINA RESULT:      -7.6      2.466      3.057
  Name = 
  7 active torsions:
  status: ('A' for Active; 'I' for Inactive)
    1  A    between atoms: C_10  and  C_20
    2  A    between atoms: N_15  and  C_20
    3  A    between atoms: C_21  and  C_26
    4  A    between atoms: C_22  and  C_31
    5  A    between atoms: C_22  and  C_38
    6  A    between atoms: C_27  and  C_31
    7  A    between atoms: C_33  and  C_35
                            x       y       z     vdW  Elec       q    Type
                         _______ _______ _______ _____ _____    ______ ____

>  <TORSDO>
F 7

$$$$
=
 OpenBabel10222421263D

 40 44  0  0  1  0  0  0  0  0999 V2000
  184.0900  180.3140  144.4380 C   0  0  0  0  0  1  0  0  0  0  0  0
  181.8680  179.3600  141.9940 C   0  0  1  0  0  3  0  0  0  0  0  0
  180.0200  178.0930  140.8610 C   0  0  0  0  0  3  0  0  0  0  0  0
  184.1660  178.5080  142.7210 C   0  0  0  0  0  0  0  0  0  0  0  0
  182.3080  178.6630  144.3070 N   0  0  0  0  0  0  0  0  0  0  0  0
  183.5120  178.5310  140.4310 O   0  0  0  0  0  0  0  0  0  0  0  0
  179.5210  177.3560  143.1770 N   0  0  0  0  0  2  0  0  0  0  0  0
  179.9820  178.6640  143.6700 C   0  0  0  0  0  2  0  0  0  0  0  0
  180.8150  179.1760  140.9080 C   0  0  0  0  0  0  0  0  0  0  0  0
  181.4350  178.9090  143.3840 C   0  0  0  0  0  0  0  0  0  0  0  0
  183.7370  178.8660  144.1280 C   0  0  2  0  0  3  0  0  0  0  0  0
  180.0870  176.9800  141.8700 C   0  0  0  0  0  2  0  0  0  0  0  0
  185.3750  177.9980  142.4530 C   0  0  0  0  0  3  0  0  0  0  0  0
  183.2060  178.7640  141.6320 C   0  0  0  0  0  0  0  0  0  0  0  0
  178.9310  183.3610  139.3500 O   0  0  0  0  0  0  0  0  0  0  0  0
  180.9270  182.5110  134.5980 C   0  0  0  0  0  1  0  0  0  0  0  0
  180.8400  180.5450  136.1280 C   0  0  2  0  0  3  0  0  0  0  0  0
  179.6430  182.3490  139.1130 C   0  0  0  0  0  0  0  0  0  0  0  0
  180.1150  182.0740  137.7940 N   0  0  0  0  0  0  0  0  0  0  0  0
  179.9560  181.4270  140.1550 N   0  0  0  0  0  2  0  0  0  0  0  0
  179.4400  182.5110  136.5900 C   0  0  0  0  0  2  0  0  0  0  0  0
  181.1760  180.0090  138.6360 C   0  0  0  0  0  3  0  0  0  0  0  0
  180.6660  180.2120  139.8610 C   0  0  0  0  0  0  0  0  0  0  0  0
  181.1160  181.0550  137.5470 C   0  0  1  0  0  3  0  0  0  0  0  0
  180.0170  181.6570  135.4620 C   0  0  1  0  0  3  0  0  0  0  0  0
  180.1230  179.1780  136.0720 C   0  0  1  0  0  3  0  0  0  0  0  0
  179.1910  179.0030  134.8750 C   0  0  0  0  0  1  0  0  0  0  0  0
  181.0500  178.0730  136.1950 N   0  0  0  0  0  0  0  0  0  0  0  0
  181.9180  177.7960  135.2870 C   0  0  0  0  0  3  0  0  0  0  0  0
  184.1180  177.1110  135.8170 O   0  0  0  0  0  1  0  0  0  0  0  0
  182.8500  176.6450  135.4640 C   0  0  0  0  0  2  0  0  0  0  0  0
  186.4120  177.7120  143.4960 C   0  0  0  0  0  2  0  0  0  0  0  0
  187.6980  177.1790  142.8770 C   0  0  0  0  0  2  0  0  0  0  0  0
  189.4150  176.9530  146.1720 C   0  0  2  0  0  3  0  0  0  0  0  0
  190.3010  177.2150  143.7040 S   0  0  0  0  0  0  0  0  0  0  0  0
  189.1790  177.7440  147.4460 C   0  0  0  0  0  1  0  0  0  0  0  0
  188.6180  176.5870  143.9360 C   0  0  1  0  0  3  0  0  0  0  0  0
  191.7230  176.7590  145.8220 C   0  0  0  0  0  1  0  0  0  0  0  0
  190.5420  177.5130  145.4360 N   0  0  0  0  0  0  0  0  0  0  0  0
  188.1820  177.0210  145.3080 C   0  0  0  0  0  2  0  0  0  0  0  0
  2  9  1  6  0  0  0
  2 10  1  0  0  0  0
  3  9  2  0  0  0  0
  3 12  1  0  0  0  0
  4 11  1  0  0  0  0
  6 14  2  0  0  0  0
  7  8  1  0  0  0  0
 10  8  1  0  0  0  0
 10  5  2  0  0  0  0
 11  5  1  0  0  0  0
 11  1  1  6  0  0  0
 12  7  1  0  0  0  0
 13  4  2  0  0  0  0
 13 32  1  0  0  0  0
 14  2  1  0  0  0  0
 14  4  1  0  0  0  0
 17 26  1  1  0  0  0
 17 24  1  0  0  0  0
 18 15  2  0  0  0  0
 18 20  1  0  0  0  0
 19 18  1  0  0  0  0
 21 19  1  0  0  0  0
 22 23  2  0  0  0  0
 23 20  1  0  0  0  0
 23  9  1  0  0  0  0
 24 19  1  0  0  0  0
 24 22  1  1  0  0  0
 25 16  1  6  0  0  0
 25 17  1  0  0  0  0
 25 21  1  0  0  0  0
 26 27  1  6  0  0  0
 26 28  1  0  0  0  0
 29 31  1  0  0  0  0
 29 28  2  0  0  0  0
 31 30  1  0  0  0  0
 33 32  1  0  0  0  0
 34 36  1  1  0  0  0
 35 37  1  0  0  0  0
 35 39  1  0  0  0  0
 37 33  1  6  0  0  0
 37 40  1  0  0  0  0
 39 38  1  0  0  0  0
 39 34  1  0  0  0  0
 40 34  1  0  0  0  0
M  END
>  <MODEL>
3

>  <REMARK>
 VINA RESULT:      -7.2      6.837     11.557
  Name = 
  7 active torsions:
  status: ('A' for Active; 'I' for Inactive)
    1  A    between atoms: C_10  and  C_20
    2  A    between atoms: N_15  and  C_20
    3  A    between atoms: C_21  and  C_26
    4  A    between atoms: C_22  and  C_31
    5  A    between atoms: C_22  and  C_38
    6  A    between atoms: C_27  and  C_31
    7  A    between atoms: C_33  and  C_35
                            x       y       z     vdW  Elec       q    Type
                         _______ _______ _______ _____ _____    ______ ____

>  <TORSDO>
F 7

$$$$
=
 OpenBabel10222421263D

 40 44  0  0  1  0  0  0  0  0999 V2000
  186.6710  175.9250  144.3400 C   0  0  0  0  0  1  0  0  0  0  0  0
  189.4540  177.2670  142.8320 C   0  0  1  0  0  3  0  0  0  0  0  0
  191.6620  178.4360  142.5890 C   0  0  0  0  0  3  0  0  0  0  0  0
  187.2160  178.2400  143.5950 C   0  0  0  0  0  0  0  0  0  0  0  0
  188.6760  177.0390  145.1500 N   0  0  0  0  0  0  0  0  0  0  0  0
  188.3010  179.0080  141.6180 O   0  0  0  0  0  0  0  0  0  0  0  0
  191.7990  178.0310  145.0320 N   0  0  0  0  0  2  0  0  0  0  0  0
  191.0540  176.7760  144.8450 C   0  0  0  0  0  2  0  0  0  0  0  0
  190.7170  177.6370  142.0640 C   0  0  0  0  0  0  0  0  0  0  0  0
  189.6660  177.0020  144.3180 C   0  0  0  0  0  0  0  0  0  0  0  0
  187.2970  177.2530  144.7400 C   0  0  2  0  0  3  0  0  0  0  0  0
  191.5690  179.0250  143.9690 C   0  0  0  0  0  2  0  0  0  0  0  0
  186.1780  179.0720  143.4440 C   0  0  0  0  0  3  0  0  0  0  0  0
  188.3220  178.2430  142.6200 C   0  0  0  0  0  0  0  0  0  0  0  0
  193.5560  176.8060  138.2250 O   0  0  0  0  0  0  0  0  0  0  0  0
  189.4060  175.2240  135.4760 C   0  0  0  0  0  1  0  0  0  0  0  0
  188.9280  176.4900  137.5690 C   0  0  2  0  0  3  0  0  0  0  0  0
  192.4120  176.7440  138.7490 C   0  0  0  0  0  0  0  0  0  0  0  0
  191.2660  176.3940  137.9730 N   0  0  0  0  0  0  0  0  0  0  0  0
  192.2310  177.0680  140.1260 N   0  0  0  0  0  2  0  0  0  0  0  0
  191.1580  176.6240  136.5480 C   0  0  0  0  0  2  0  0  0  0  0  0
  189.8530  176.7010  139.9750 C   0  0  0  0  0  3  0  0  0  0  0  0
  190.9100  177.1140  140.6930 C   0  0  0  0  0  0  0  0  0  0  0  0
  189.9920  176.0950  138.5980 C   0  0  1  0  0  3  0  0  0  0  0  0
  189.6680  176.5180  136.2240 C   0  0  1  0  0  3  0  0  0  0  0  0
  188.2180  177.8280  137.8700 C   0  0  1  0  0  3  0  0  0  0  0  0
  188.6810  178.9970  137.0030 C   0  0  0  0  0  1  0  0  0  0  0  0
  186.7770  177.6940  137.8630 N   0  0  0  0  0  0  0  0  0  0  0  0
  186.1730  176.7760  137.1930 C   0  0  0  0  0  3  0  0  0  0  0  0
  184.1430  177.8780  137.6980 O   0  0  0  0  0  1  0  0  0  0  0  0
  184.6840  176.6830  137.2210 C   0  0  0  0  0  2  0  0  0  0  0  0
  185.0110  179.1320  144.3820 C   0  0  0  0  0  2  0  0  0  0  0  0
  183.8410  178.2960  143.8760 C   0  0  0  0  0  2  0  0  0  0  0  0
  180.8070  179.1940  141.9160 C   0  0  2  0  0  3  0  0  0  0  0  0
  183.1810  178.2820  141.2260 S   0  0  0  0  0  0  0  0  0  0  0  0
  179.3660  178.7520  142.1000 C   0  0  0  0  0  1  0  0  0  0  0  0
  183.0150  179.0620  142.8530 C   0  0  1  0  0  3  0  0  0  0  0  0
  181.3260  179.1390  139.6320 C   0  0  0  0  0  1  0  0  0  0  0  0
  181.4460  178.3970  140.8760 N   0  0  0  0  0  0  0  0  0  0  0  0
  181.5560  179.0030  143.2100 C   0  0  0  0  0  2  0  0  0  0  0  0
  2  9  1  1  0  0  0
  2 10  1  0  0  0  0
  3 12  1  0  0  0  0
  4 11  1  0  0  0  0
  6 14  2  0  0  0  0
  8  7  1  0  0  0  0
  9  3  2  0  0  0  0
 10  8  1  0  0  0  0
 10  5  2  0  0  0  0
 11  1  1  6  0  0  0
 11  5  1  0  0  0  0
 12  7  1  0  0  0  0
 13  4  2  0  0  0  0
 13 32  1  0  0  0  0
 14  2  1  0  0  0  0
 14  4  1  0  0  0  0
 15 18  2  0  0  0  0
 17 26  1  1  0  0  0
 17 24  1  0  0  0  0
 18 20  1  0  0  0  0
 19 24  1  0  0  0  0
 19 18  1  0  0  0  0
 20 23  1  0  0  0  0
 21 19  1  0  0  0  0
 22 23  2  0  0  0  0
 23  9  1  0  0  0  0
 24 22  1  1  0  0  0
 25 16  1  1  0  0  0
 25 21  1  0  0  0  0
 25 17  1  0  0  0  0
 26 27  1  6  0  0  0
 28 26  1  0  0  0  0
 29 31  1  0  0  0  0
 29 28  2  0  0  0  0
 31 30  1  0  0  0  0
 33 32  1  0  0  0  0
 34 36  1  1  0  0  0
 34 40  1  0  0  0  0
 35 37  1  0  0  0  0
 37 40  1  0  0  0  0
 37 33  1  1  0  0  0
 38 39  1  0  0  0  0
 39 35  1  0  0  0  0
 39 34  1  0  0  0  0
M  END
>  <MODEL>
4

>  <REMARK>
 VINA RESULT:      -6.7      3.950      9.821
  Name = 
  7 active torsions:
  status: ('A' for Active; 'I' for Inactive)
    1  A    between atoms: C_10  and  C_20
    2  A    between atoms: N_15  and  C_20
    3  A    between atoms: C_21  and  C_26
    4  A    between atoms: C_22  and  C_31
    5  A    between atoms: C_22  and  C_38
    6  A    between atoms: C_27  and  C_31
    7  A    between atoms: C_33  and  C_35
                            x       y       z     vdW  Elec       q    Type
                         _______ _______ _______ _____ _____    ______ ____

>  <TORSDO>
F 7

$$$$
=
 OpenBabel10222421263D

 40 44  0  0  1  0  0  0  0  0999 V2000
  184.4710  180.3170  144.2940 C   0  0  0  0  0  1  0  0  0  0  0  0
  182.0240  179.3050  142.1020 C   0  0  1  0  0  3  0  0  0  0  0  0
  180.0350  178.0580  141.2100 C   0  0  0  0  0  3  0  0  0  0  0  0
  184.3270  178.3880  142.7220 C   0  0  0  0  0  0  0  0  0  0  0  0
  182.6070  178.7590  144.4240 N   0  0  0  0  0  0  0  0  0  0  0  0
  183.5000  178.2760  140.4910 O   0  0  0  0  0  0  0  0  0  0  0  0
  179.6820  177.5230  143.6060 N   0  0  0  0  0  2  0  0  0  0  0  0
  180.2410  178.8370  143.9610 C   0  0  0  0  0  2  0  0  0  0  0  0
  180.8820  179.0980  141.1130 C   0  0  0  0  0  0  0  0  0  0  0  0
  181.6780  178.9820  143.5500 C   0  0  0  0  0  0  0  0  0  0  0  0
  184.0260  178.8710  144.1240 C   0  0  2  0  0  3  0  0  0  0  0  0
  180.1260  177.0210  142.2940 C   0  0  0  0  0  2  0  0  0  0  0  0
  185.4860  177.7950  142.4060 C   0  0  0  0  0  3  0  0  0  0  0  0
  183.2990  178.6130  141.6890 C   0  0  0  0  0  0  0  0  0  0  0  0
  178.9310  183.1560  139.3200 O   0  0  0  0  0  0  0  0  0  0  0  0
  180.8300  182.0020  134.5940 C   0  0  0  0  0  1  0  0  0  0  0  0
  180.7920  180.1430  136.2530 C   0  0  2  0  0  3  0  0  0  0  0  0
  179.6460  182.1360  139.1360 C   0  0  0  0  0  0  0  0  0  0  0  0
  180.0910  181.7760  137.8290 N   0  0  0  0  0  0  0  0  0  0  0  0
  179.9890  181.2880  140.2310 N   0  0  0  0  0  2  0  0  0  0  0  0
  179.3870  182.1260  136.6130 C   0  0  0  0  0  2  0  0  0  0  0  0
  181.1870  179.7790  138.7830 C   0  0  0  0  0  3  0  0  0  0  0  0
  180.7020  180.0600  140.0030 C   0  0  0  0  0  0  0  0  0  0  0  0
  181.0950  180.7480  137.6280 C   0  0  1  0  0  3  0  0  0  0  0  0
  179.9460  181.2020  135.5320 C   0  0  1  0  0  3  0  0  0  0  0  0
  180.0860  178.7700  136.3050 C   0  0  1  0  0  3  0  0  0  0  0  0
  179.1220  178.5120  135.1480 C   0  0  0  0  0  1  0  0  0  0  0  0
  181.0240  177.6820  136.4730 N   0  0  0  0  0  0  0  0  0  0  0  0
  182.2070  177.7050  135.9660 C   0  0  0  0  0  3  0  0  0  0  0  0
  183.2150  176.2460  137.5300 O   0  0  0  0  0  1  0  0  0  0  0  0
  183.1350  176.5550  136.1710 C   0  0  0  0  0  2  0  0  0  0  0  0
  186.5860  177.5320  143.3900 C   0  0  0  0  0  2  0  0  0  0  0  0
  187.9110  178.1200  142.9190 C   0  0  0  0  0  2  0  0  0  0  0  0
  190.4440  177.0960  140.3920 C   0  0  2  0  0  3  0  0  0  0  0  0
  188.0860  178.2540  140.1970 S   0  0  0  0  0  0  0  0  0  0  0  0
  191.9310  177.3990  140.3300 C   0  0  0  0  0  1  0  0  0  0  0  0
  188.4630  177.3560  141.7250 C   0  0  1  0  0  3  0  0  0  0  0  0
  189.5350  177.3480  138.2490 C   0  0  0  0  0  1  0  0  0  0  0  0
  189.7110  178.0140  139.5280 N   0  0  0  0  0  0  0  0  0  0  0  0
  189.9610  177.2640  141.8100 C   0  0  0  0  0  2  0  0  0  0  0  0
  2  9  1  6  0  0  0
  2 10  1  0  0  0  0
  3 12  1  0  0  0  0
  4 11  1  0  0  0  0
  6 14  2  0  0  0  0
  7  8  1  0  0  0  0
  9  3  2  0  0  0  0
 10  8  1  0  0  0  0
 10  5  2  0  0  0  0
 11  1  1  6  0  0  0
 11  5  1  0  0  0  0
 12  7  1  0  0  0  0
 13  4  2  0  0  0  0
 13 32  1  0  0  0  0
 14  2  1  0  0  0  0
 14  4  1  0  0  0  0
 17 26  1  1  0  0  0
 17 24  1  0  0  0  0
 18 15  2  0  0  0  0
 18 20  1  0  0  0  0
 19 18  1  0  0  0  0
 21 19  1  0  0  0  0
 22 23  2  0  0  0  0
 23 20  1  0  0  0  0
 23  9  1  0  0  0  0
 24 19  1  0  0  0  0
 24 22  1  1  0  0  0
 25 16  1  6  0  0  0
 25 17  1  0  0  0  0
 25 21  1  0  0  0  0
 26 27  1  6  0  0  0
 26 28  1  0  0  0  0
 29 31  1  0  0  0  0
 29 28  2  0  0  0  0
 31 30  1  0  0  0  0
 33 32  1  0  0  0  0
 34 36  1  1  0  0  0
 34 40  1  0  0  0  0
 35 37  1  0  0  0  0
 37 40  1  0  0  0  0
 37 33  1  1  0  0  0
 38 39  1  0  0  0  0
 39 35  1  0  0  0  0
 39 34  1  0  0  0  0
M  END
>  <MODEL>
5

>  <REMARK>
 VINA RESULT:      -6.5      6.302     10.967
  Name = 
  7 active torsions:
  status: ('A' for Active; 'I' for Inactive)
    1  A    between atoms: C_10  and  C_20
    2  A    between atoms: N_15  and  C_20
    3  A    between atoms: C_21  and  C_26
    4  A    between atoms: C_22  and  C_31
    5  A    between atoms: C_22  and  C_38
    6  A    between atoms: C_27  and  C_31
    7  A    between atoms: C_33  and  C_35
                            x       y       z     vdW  Elec       q    Type
                         _______ _______ _______ _____ _____    ______ ____

>  <TORSDO>
F 7

$$$$
=
 OpenBabel10222421263D

 40 44  0  0  1  0  0  0  0  0999 V2000
  190.6500  173.7440  137.5150 C   0  0  0  0  0  1  0  0  0  0  0  0
  189.2010  176.7490  138.3440 C   0  0  1  0  0  3  0  0  0  0  0  0
  188.1450  179.0090  138.0570 C   0  0  0  0  0  3  0  0  0  0  0  0
  191.5940  176.0330  137.8070 C   0  0  0  0  0  0  0  0  0  0  0  0
  189.7610  175.6150  136.2400 N   0  0  0  0  0  0  0  0  0  0  0  0
  191.1290  177.6940  139.4500 O   0  0  0  0  0  0  0  0  0  0  0  0
  187.8770  178.2460  135.7120 N   0  0  0  0  0  2  0  0  0  0  0  0
  187.7020  176.8700  136.2020 C   0  0  0  0  0  2  0  0  0  0  0  0
  188.3940  177.9440  138.8390 C   0  0  0  0  0  0  0  0  0  0  0  0
  188.9220  176.3460  136.9020 C   0  0  0  0  0  0  0  0  0  0  0  0
  190.9720  175.0630  136.8260 C   0  0  2  0  0  3  0  0  0  0  0  0
  188.6250  179.1170  136.6360 C   0  0  0  0  0  2  0  0  0  0  0  0
  192.9190  176.1060  137.9930 C   0  0  0  0  0  3  0  0  0  0  0  0
  190.6830  176.8930  138.5830 C   0  0  0  0  0  0  0  0  0  0  0  0
  185.4640  179.7550  142.2490 O   0  0  0  0  0  0  0  0  0  0  0  0
  187.7670  176.7510  145.8480 C   0  0  0  0  0  1  0  0  0  0  0  0
  188.9830  177.0160  143.6880 C   0  0  2  0  0  3  0  0  0  0  0  0
  186.3700  178.9380  141.9340 C   0  0  0  0  0  0  0  0  0  0  0  0
  187.0570  178.1810  142.9300 N   0  0  0  0  0  0  0  0  0  0  0  0
  186.7620  178.7850  140.5710 N   0  0  0  0  0  2  0  0  0  0  0  0
  187.2240  178.6180  144.3010 C   0  0  0  0  0  2  0  0  0  0  0  0
  188.4550  177.1750  141.1610 C   0  0  0  0  0  3  0  0  0  0  0  0
  187.8760  177.9440  140.2250 C   0  0  0  0  0  0  0  0  0  0  0  0
  187.9310  177.0800  142.5750 C   0  0  1  0  0  3  0  0  0  0  0  0
  188.3490  177.7580  144.8740 C   0  0  1  0  0  3  0  0  0  0  0  0
  190.3560  177.6050  143.3000 C   0  0  1  0  0  3  0  0  0  0  0  0
  190.4940  179.1050  143.5530 C   0  0  0  0  0  1  0  0  0  0  0  0
  191.4520  176.8610  143.8840 N   0  0  0  0  0  0  0  0  0  0  0  0
  191.2680  175.7940  144.5800 C   0  0  0  0  0  3  0  0  0  0  0  0
  192.4310  173.7410  144.7180 O   0  0  0  0  0  1  0  0  0  0  0  0
  192.4340  175.0650  145.1590 C   0  0  0  0  0  2  0  0  0  0  0  0
  193.9150  175.2670  137.2530 C   0  0  0  0  0  2  0  0  0  0  0  0
  194.3510  174.0590  138.0740 C   0  0  0  0  0  2  0  0  0  0  0  0
  198.0340  174.4220  138.4750 C   0  0  2  0  0  3  0  0  0  0  0  0
  196.4270  174.6420  136.3990 S   0  0  0  0  0  0  0  0  0  0  0  0
  198.8250  175.2570  139.4660 C   0  0  0  0  0  1  0  0  0  0  0  0
  195.8200  173.7350  137.8440 C   0  0  1  0  0  3  0  0  0  0  0  0
  199.0190  174.6290  136.3610 C   0  0  0  0  0  1  0  0  0  0  0  0
  197.9370  175.1190  137.1990 N   0  0  0  0  0  0  0  0  0  0  0  0
  196.6450  174.1910  139.0150 C   0  0  0  0  0  2  0  0  0  0  0  0
  2 10  1  6  0  0  0
  2 14  1  0  0  0  0
  2  9  1  0  0  0  0
  3  9  2  0  0  0  0
  4 13  2  0  0  0  0
  4 14  1  0  0  0  0
  5 11  1  0  0  0  0
  5 10  2  0  0  0  0
  7  8  1  0  0  0  0
  7 12  1  0  0  0  0
  8 10  1  0  0  0  0
  9 23  1  0  0  0  0
 11  1  1  1  0  0  0
 11  4  1  0  0  0  0
 12  3  1  0  0  0  0
 14  6  2  0  0  0  0
 17 26  1  6  0  0  0
 17 25  1  0  0  0  0
 18 15  2  0  0  0  0
 18 19  1  0  0  0  0
 19 21  1  0  0  0  0
 20 18  1  0  0  0  0
 21 25  1  0  0  0  0
 23 20  1  0  0  0  0
 23 22  2  0  0  0  0
 24 22  1  6  0  0  0
 24 19  1  0  0  0  0
 24 17  1  0  0  0  0
 25 16  1  1  0  0  0
 26 27  1  1  0  0  0
 26 28  1  0  0  0  0
 28 29  2  0  0  0  0
 29 31  1  0  0  0  0
 30 31  1  0  0  0  0
 32 13  1  0  0  0  0
 32 33  1  0  0  0  0
 34 40  1  0  0  0  0
 34 36  1  1  0  0  0
 35 39  1  0  0  0  0
 35 37  1  0  0  0  0
 37 33  1  1  0  0  0
 37 40  1  0  0  0  0
 38 39  1  0  0  0  0
 39 34  1  0  0  0  0
M  END
>  <MODEL>
6

>  <REMARK>
 VINA RESULT:      -6.3      2.101      4.104
  Name = 
  7 active torsions:
  status: ('A' for Active; 'I' for Inactive)
    1  A    between atoms: C_10  and  C_20
    2  A    between atoms: N_15  and  C_20
    3  A    between atoms: C_21  and  C_26
    4  A    between atoms: C_22  and  C_31
    5  A    between atoms: C_22  and  C_38
    6  A    between atoms: C_27  and  C_31
    7  A    between atoms: C_33  and  C_35
                            x       y       z     vdW  Elec       q    Type
                         _______ _______ _______ _____ _____    ______ ____

>  <TORSDO>
F 7

$$$$
=
 OpenBabel10222421263D

 40 44  0  0  1  0  0  0  0  0999 V2000
  181.5840  176.8130  139.6150 C   0  0  0  0  0  1  0  0  0  0  0  0
  184.2990  178.4720  140.9180 C   0  0  1  0  0  3  0  0  0  0  0  0
  185.6930  179.7940  142.5350 C   0  0  0  0  0  3  0  0  0  0  0  0
  182.2260  179.2220  139.6240 C   0  0  0  0  0  0  0  0  0  0  0  0
  182.0330  177.9600  141.7130 N   0  0  0  0  0  0  0  0  0  0  0  0
  184.3470  180.2530  139.2870 O   0  0  0  0  0  0  0  0  0  0  0  0
  183.9040  179.1510  144.1280 N   0  0  0  0  0  2  0  0  0  0  0  0
  183.7480  177.8770  143.4060 C   0  0  0  0  0  2  0  0  0  0  0  0
  185.6260  178.9950  141.4540 C   0  0  0  0  0  0  0  0  0  0  0  0
  183.2920  178.0700  141.9890 C   0  0  0  0  0  0  0  0  0  0  0  0
  181.4930  178.1300  140.3730 C   0  0  2  0  0  3  0  0  0  0  0  0
  184.4820  180.2320  143.3100 C   0  0  0  0  0  2  0  0  0  0  0  0
  181.6160  179.9990  138.7200 C   0  0  0  0  0  3  0  0  0  0  0  0
  183.6630  179.3920  139.9050 C   0  0  0  0  0  0  0  0  0  0  0  0
  187.9540  177.1740  137.6130 O   0  0  0  0  0  0  0  0  0  0  0  0
  192.4750  177.4140  140.2180 C   0  0  0  0  0  1  0  0  0  0  0  0
  190.4000  177.6140  141.5850 C   0  0  2  0  0  3  0  0  0  0  0  0
  188.0120  177.6570  138.7760 C   0  0  0  0  0  0  0  0  0  0  0  0
  189.2310  177.6420  139.5170 N   0  0  0  0  0  0  0  0  0  0  0  0
  186.8430  178.1890  139.3950 N   0  0  0  0  0  2  0  0  0  0  0  0
  190.2810  176.6640  139.3230 C   0  0  0  0  0  2  0  0  0  0  0  0
  188.0520  178.6870  141.4190 C   0  0  0  0  0  3  0  0  0  0  0  0
  186.8820  178.6280  140.7640 C   0  0  0  0  0  0  0  0  0  0  0  0
  189.3750  178.3910  140.7510 C   0  0  1  0  0  3  0  0  0  0  0  0
  191.1590  176.7460  140.5700 C   0  0  1  0  0  3  0  0  0  0  0  0
  189.7870  176.7750  142.7260 C   0  0  1  0  0  3  0  0  0  0  0  0
  190.4990  175.4490  142.9880 C   0  0  0  0  0  1  0  0  0  0  0  0
  189.6250  177.5440  143.9410 N   0  0  0  0  0  0  0  0  0  0  0  0
  189.2210  177.0170  145.0430 C   0  0  0  0  0  3  0  0  0  0  0  0
  188.4390  177.1210  147.2720 O   0  0  0  0  0  1  0  0  0  0  0  0
  189.0710  177.8560  146.2670 C   0  0  0  0  0  2  0  0  0  0  0  0
  180.1630  179.8910  138.3690 C   0  0  0  0  0  2  0  0  0  0  0  0
  179.9120  180.2390  136.9060 C   0  0  0  0  0  2  0  0  0  0  0  0
  179.7820  183.8760  136.1240 C   0  0  2  0  0  3  0  0  0  0  0  0
  179.3940  182.5050  138.3400 S   0  0  0  0  0  0  0  0  0  0  0  0
  180.8060  184.7570  135.4300 C   0  0  0  0  0  1  0  0  0  0  0  0
  179.2800  181.6160  136.7660 C   0  0  1  0  0  3  0  0  0  0  0  0
  178.9310  185.0280  137.9760 C   0  0  0  0  0  1  0  0  0  0  0  0
  179.8960  184.0220  137.5700 N   0  0  0  0  0  0  0  0  0  0  0  0
  180.0330  182.4360  135.7550 C   0  0  0  0  0  2  0  0  0  0  0  0
  2 14  1  1  0  0  0
  2  9  1  0  0  0  0
  2 10  1  0  0  0  0
  3 12  1  0  0  0  0
  4 14  1  0  0  0  0
  4 11  1  0  0  0  0
  5 10  2  0  0  0  0
  6 14  2  0  0  0  0
  8  7  1  0  0  0  0
  9  3  2  0  0  0  0
 10  8  1  0  0  0  0
 11  1  1  6  0  0  0
 11  5  1  0  0  0  0
 12  7  1  0  0  0  0
 13  4  2  0  0  0  0
 15 18  2  0  0  0  0
 17 26  1  1  0  0  0
 18 20  1  0  0  0  0
 18 19  1  0  0  0  0
 19 24  1  0  0  0  0
 20 23  1  0  0  0  0
 21 19  1  0  0  0  0
 21 25  1  0  0  0  0
 23 22  2  0  0  0  0
 23  9  1  0  0  0  0
 24 22  1  1  0  0  0
 24 17  1  0  0  0  0
 25 16  1  6  0  0  0
 25 17  1  0  0  0  0
 26 27  1  1  0  0  0
 26 28  1  0  0  0  0
 28 29  2  0  0  0  0
 29 31  1  0  0  0  0
 31 30  1  0  0  0  0
 32 13  1  0  0  0  0
 33 32  1  0  0  0  0
 34 36  1  6  0  0  0
 34 39  1  0  0  0  0
 37 33  1  1  0  0  0
 37 35  1  0  0  0  0
 39 38  1  0  0  0  0
 39 35  1  0  0  0  0
 40 34  1  0  0  0  0
 40 37  1  0  0  0  0
M  END
>  <MODEL>
7

>  <REMARK>
 VINA RESULT:      -6.3      6.258     10.835
  Name = 
  7 active torsions:
  status: ('A' for Active; 'I' for Inactive)
    1  A    between atoms: C_10  and  C_20
    2  A    between atoms: N_15  and  C_20
    3  A    between atoms: C_21  and  C_26
    4  A    between atoms: C_22  and  C_31
    5  A    between atoms: C_22  and  C_38
    6  A    between atoms: C_27  and  C_31
    7  A    between atoms: C_33  and  C_35
                            x       y       z     vdW  Elec       q    Type
                         _______ _______ _______ _____ _____    ______ ____

>  <TORSDO>
F 7

$$$$
=
 OpenBabel10222421263D

 40 44  0  0  1  0  0  0  0  0999 V2000
  183.0840  178.1210  140.4200 C   0  0  0  0  0  1  0  0  0  0  0  0
  185.1750  177.1050  137.8870 C   0  0  1  0  0  3  0  0  0  0  0  0
  187.0790  177.1470  136.2510 C   0  0  0  0  0  3  0  0  0  0  0  0
  183.1250  178.6280  137.9800 C   0  0  0  0  0  0  0  0  0  0  0  0
  185.0840  179.0460  139.3880 N   0  0  0  0  0  0  0  0  0  0  0  0
  183.5360  177.2040  136.1160 O   0  0  0  0  0  0  0  0  0  0  0  0
  187.9150  178.9460  137.7390 N   0  0  0  0  0  2  0  0  0  0  0  0
  187.3050  178.2540  138.8850 C   0  0  0  0  0  2  0  0  0  0  0  0
  186.1310  176.4480  136.8990 C   0  0  0  0  0  0  0  0  0  0  0  0
  185.8100  178.1670  138.7770 C   0  0  0  0  0  0  0  0  0  0  0  0
  183.6290  179.0490  139.3440 C   0  0  2  0  0  3  0  0  0  0  0  0
  187.2900  178.6230  136.4450 C   0  0  0  0  0  2  0  0  0  0  0  0
  181.9920  179.1160  137.4590 C   0  0  0  0  0  3  0  0  0  0  0  0
  183.9190  177.6330  137.2380 C   0  0  0  0  0  0  0  0  0  0  0  0
  187.6020  172.4460  134.5940 O   0  0  0  0  0  0  0  0  0  0  0  0
  183.5460  169.8040  136.5550 C   0  0  0  0  0  1  0  0  0  0  0  0
  183.4140  172.2890  136.6880 C   0  0  2  0  0  3  0  0  0  0  0  0
  186.7950  172.9900  135.3930 C   0  0  0  0  0  0  0  0  0  0  0  0
  185.6400  172.2930  135.8590 N   0  0  0  0  0  0  0  0  0  0  0  0
  186.9940  174.3380  135.8140 N   0  0  0  0  0  2  0  0  0  0  0  0
  184.9840  171.2350  135.1200 C   0  0  0  0  0  2  0  0  0  0  0  0
  184.9740  174.3040  137.1290 C   0  0  0  0  0  3  0  0  0  0  0  0
  186.0100  174.9970  136.6290 C   0  0  0  0  0  0  0  0  0  0  0  0
  184.8310  172.8110  136.9460 C   0  0  1  0  0  3  0  0  0  0  0  0
  183.6000  171.0880  135.7490 C   0  0  1  0  0  3  0  0  0  0  0  0
  182.4460  173.3410  136.1030 C   0  0  1  0  0  3  0  0  0  0  0  0
  181.8510  172.9650  134.7470 C   0  0  0  0  0  1  0  0  0  0  0  0
  181.4210  173.7230  137.0500 N   0  0  0  0  0  0  0  0  0  0  0  0
  181.3880  174.8870  137.5980 C   0  0  0  0  0  3  0  0  0  0  0  0
  180.3650  176.5890  138.8810 O   0  0  0  0  0  1  0  0  0  0  0  0
  180.3080  175.2300  138.5680 C   0  0  0  0  0  2  0  0  0  0  0  0
  181.1220  180.1250  138.1450 C   0  0  0  0  0  2  0  0  0  0  0  0
  179.6950  180.0920  137.6100 C   0  0  0  0  0  2  0  0  0  0  0  0
  179.9600  183.6440  136.5320 C   0  0  2  0  0  3  0  0  0  0  0  0
  179.1660  182.5060  138.7720 S   0  0  0  0  0  0  0  0  0  0  0  0
  181.1350  184.3890  135.9230 C   0  0  0  0  0  1  0  0  0  0  0  0
  179.1980  181.4900  137.2720 C   0  0  1  0  0  3  0  0  0  0  0  0
  178.9570  185.0120  138.1470 C   0  0  0  0  0  1  0  0  0  0  0  0
  179.8870  183.9110  137.9640 N   0  0  0  0  0  0  0  0  0  0  0  0
  180.1440  182.1640  136.3170 C   0  0  0  0  0  2  0  0  0  0  0  0
  2  9  1  6  0  0  0
  2 10  1  0  0  0  0
  3 12  1  0  0  0  0
  3  9  2  0  0  0  0
  4 11  1  0  0  0  0
  6 14  2  0  0  0  0
  7  8  1  0  0  0  0
 10  8  1  0  0  0  0
 10  5  2  0  0  0  0
 11  5  1  0  0  0  0
 11  1  1  1  0  0  0
 12  7  1  0  0  0  0
 13  4  2  0  0  0  0
 13 32  1  0  0  0  0
 14  2  1  0  0  0  0
 14  4  1  0  0  0  0
 15 18  2  0  0  0  0
 17 26  1  6  0  0  0
 17 24  1  0  0  0  0
 18 20  1  0  0  0  0
 18 19  1  0  0  0  0
 19 24  1  0  0  0  0
 20 23  1  0  0  0  0
 21 25  1  0  0  0  0
 21 19  1  0  0  0  0
 23  9  1  0  0  0  0
 23 22  2  0  0  0  0
 24 22  1  6  0  0  0
 25 16  1  1  0  0  0
 25 17  1  0  0  0  0
 26 27  1  6  0  0  0
 26 28  1  0  0  0  0
 28 29  2  0  0  0  0
 29 31  1  0  0  0  0
 31 30  1  0  0  0  0
 33 32  1  0  0  0  0
 34 36  1  1  0  0  0
 34 39  1  0  0  0  0
 37 33  1  1  0  0  0
 37 35  1  0  0  0  0
 39 38  1  0  0  0  0
 39 35  1  0  0  0  0
 40 34  1  0  0  0  0
 40 37  1  0  0  0  0
M  END
>  <MODEL>
8

>  <REMARK>
 VINA RESULT:      -6.1      7.452     11.942
  Name = 
  7 active torsions:
  status: ('A' for Active; 'I' for Inactive)
    1  A    between atoms: C_10  and  C_20
    2  A    between atoms: N_15  and  C_20
    3  A    between atoms: C_21  and  C_26
    4  A    between atoms: C_22  and  C_31
    5  A    between atoms: C_22  and  C_38
    6  A    between atoms: C_27  and  C_31
    7  A    between atoms: C_33  and  C_35
                            x       y       z     vdW  Elec       q    Type
                         _______ _______ _______ _____ _____    ______ ____

>  <TORSDO>
F 7

$$$$
=
 OpenBabel10222421263D

 40 44  0  0  1  0  0  0  0  0999 V2000
  186.8330  178.6340  134.9420 C   0  0  0  0  0  1  0  0  0  0  0  0
  188.8140  176.5520  136.8300 C   0  0  1  0  0  3  0  0  0  0  0  0
  190.1440  174.5240  137.4810 C   0  0  0  0  0  3  0  0  0  0  0  0
  186.2900  176.7550  136.4880 C   0  0  0  0  0  0  0  0  0  0  0  0
  187.8070  176.4310  134.5940 N   0  0  0  0  0  0  0  0  0  0  0  0
  187.2190  176.1830  138.6050 O   0  0  0  0  0  0  0  0  0  0  0  0
  189.9690  174.0120  135.0600 N   0  0  0  0  0  2  0  0  0  0  0  0
  190.0040  175.4550  134.7730 C   0  0  0  0  0  2  0  0  0  0  0  0
  189.8500  175.8220  137.6760 C   0  0  0  0  0  0  0  0  0  0  0  0
  188.8270  176.1860  135.3510 C   0  0  0  0  0  0  0  0  0  0  0  0
  186.6190  177.1310  135.0590 C   0  0  2  0  0  3  0  0  0  0  0  0
  189.4940  173.6850  136.4160 C   0  0  0  0  0  2  0  0  0  0  0  0
  185.0290  176.7070  136.9390 C   0  0  0  0  0  3  0  0  0  0  0  0
  187.4170  176.4610  137.3910 C   0  0  0  0  0  0  0  0  0  0  0  0
  193.9430  177.2320  139.8550 O   0  0  0  0  0  0  0  0  0  0  0  0
  191.1710  179.2490  143.7960 C   0  0  0  0  0  1  0  0  0  0  0  0
  189.9640  177.6720  142.2900 C   0  0  2  0  0  3  0  0  0  0  0  0
  192.6840  177.2170  139.8410 C   0  0  0  0  0  0  0  0  0  0  0  0
  191.9300  177.6900  140.9570 N   0  0  0  0  0  0  0  0  0  0  0  0
  191.9810  176.6810  138.7220 N   0  0  0  0  0  2  0  0  0  0  0  0
  192.4210  177.6890  142.3190 C   0  0  0  0  0  2  0  0  0  0  0  0
  189.8500  177.0800  139.7740 C   0  0  0  0  0  3  0  0  0  0  0  0
  190.5490  176.5530  138.7560 C   0  0  0  0  0  0  0  0  0  0  0  0
  190.4970  177.8950  140.8700 C   0  0  1  0  0  3  0  0  0  0  0  0
  191.1860  177.8520  143.2030 C   0  0  1  0  0  3  0  0  0  0  0  0
  189.2750  176.3070  142.5030 C   0  0  1  0  0  3  0  0  0  0  0  0
  190.1420  175.2640  143.2060 C   0  0  0  0  0  1  0  0  0  0  0  0
  187.9820  176.4440  143.1390 N   0  0  0  0  0  0  0  0  0  0  0  0
  187.7930  177.2000  144.1630 C   0  0  0  0  0  3  0  0  0  0  0  0
  185.8200  178.4860  144.3670 O   0  0  0  0  0  1  0  0  0  0  0  0
  186.4390  177.3050  144.7800 C   0  0  0  0  0  2  0  0  0  0  0  0
  183.8270  176.9970  136.0930 C   0  0  0  0  0  2  0  0  0  0  0  0
  182.8190  177.8710  136.8300 C   0  0  0  0  0  2  0  0  0  0  0  0
  181.2870  177.1570  140.1460 C   0  0  2  0  0  3  0  0  0  0  0  0
  182.8510  179.0900  139.2740 S   0  0  0  0  0  0  0  0  0  0  0  0
  179.8410  176.8620  140.5040 C   0  0  0  0  0  1  0  0  0  0  0  0
  182.7940  177.5520  138.3180 C   0  0  1  0  0  3  0  0  0  0  0  0
  182.1670  178.6380  141.7330 C   0  0  0  0  0  1  0  0  0  0  0  0
  181.5880  178.5600  140.4020 N   0  0  0  0  0  0  0  0  0  0  0  0
  181.5070  176.8670  138.6830 C   0  0  0  0  0  2  0  0  0  0  0  0
  2 10  1  6  0  0  0
  2 14  1  0  0  0  0
  2  9  1  0  0  0  0
  3  9  2  0  0  0  0
  4 13  2  0  0  0  0
  4 14  1  0  0  0  0
  5 11  1  0  0  0  0
  5 10  2  0  0  0  0
  7 12  1  0  0  0  0
  8  7  1  0  0  0  0
  8 10  1  0  0  0  0
  9 23  1  0  0  0  0
 11  1  1  1  0  0  0
 11  4  1  0  0  0  0
 12  3  1  0  0  0  0
 14  6  2  0  0  0  0
 17 26  1  6  0  0  0
 17 25  1  0  0  0  0
 18 15  2  0  0  0  0
 18 19  1  0  0  0  0
 19 21  1  0  0  0  0
 20 23  1  0  0  0  0
 20 18  1  0  0  0  0
 21 25  1  0  0  0  0
 23 22  2  0  0  0  0
 24 22  1  6  0  0  0
 24 19  1  0  0  0  0
 24 17  1  0  0  0  0
 25 16  1  6  0  0  0
 26 28  1  0  0  0  0
 26 27  1  1  0  0  0
 28 29  2  0  0  0  0
 29 31  1  0  0  0  0
 30 31  1  0  0  0  0
 32 33  1  0  0  0  0
 32 13  1  0  0  0  0
 34 39  1  0  0  0  0
 34 36  1  6  0  0  0
 35 39  1  0  0  0  0
 37 33  1  6  0  0  0
 37 40  1  0  0  0  0
 37 35  1  0  0  0  0
 39 38  1  0  0  0  0
 40 34  1  0  0  0  0
M  END
>  <MODEL>
9

>  <REMARK>
 VINA RESULT:      -5.9      4.093      7.933
  Name = 
  7 active torsions:
  status: ('A' for Active; 'I' for Inactive)
    1  A    between atoms: C_10  and  C_20
    2  A    between atoms: N_15  and  C_20
    3  A    between atoms: C_21  and  C_26
    4  A    between atoms: C_22  and  C_31
    5  A    between atoms: C_22  and  C_38
    6  A    between atoms: C_27  and  C_31
    7  A    between atoms: C_33  and  C_35
                            x       y       z     vdW  Elec       q    Type
                         _______ _______ _______ _____ _____    ______ ____

>  <TORSDO>
F 7

$$$$
