=
 OpenBabel10222417073D

 64 70  0  0  1  0  0  0  0  0999 V2000
  189.0320  175.7410  137.3240 C   0  0  2  0  0  3  0  0  0  0  0  0
  191.4390  175.5290  136.5870 N   0  0  0  0  0  0  0  0  0  0  0  0
  190.2870  174.9450  137.1930 C   0  0  0  0  0  0  0  0  0  0  0  0
  191.4440  175.6850  135.1300 C   0  0  0  0  0  2  0  0  0  0  0  0
  192.8800  175.6970  134.5940 C   0  0  0  0  0  2  0  0  0  0  0  0
  192.7100  175.4570  137.2930 C   0  0  0  0  0  2  0  0  0  0  0  0
  193.5850  174.4160  136.5870 C   0  0  1  0  0  3  0  0  0  0  0  0
  193.6470  174.5490  135.1150 N   0  0  0  0  0  2  0  0  0  0  0  0
  190.3430  173.7750  137.6550 O   0  0  0  0  0  0  0  0  0  0  0  0
  194.9450  174.2800  137.2140 C   0  0  0  0  0  0  0  0  0  0  0  0
  195.5470  175.3130  137.4770 O   0  0  0  0  0  0  0  0  0  0  0  0
  194.9920  172.4000  138.6580 O   0  0  0  0  0  1  0  0  0  0  0  0
  197.0740  173.1060  137.7680 C   0  0  0  0  0  1  0  0  0  0  0  0
  195.5780  172.9210  137.4980 C   0  0  2  0  0  0  0  0  0  0  0  0
  196.2990  172.1700  135.2850 C   0  0  0  0  0  1  0  0  0  0  0  0
  195.3390  171.9820  136.3710 N   0  0  0  0  0  0  0  0  0  0  0  0
  195.4850  170.5990  136.8170 C   0  0  0  0  0  1  0  0  0  0  0  0
  188.2540  175.5510  136.1420 O   0  0  0  0  0  0  0  0  0  0  0  0
  184.6770  174.6190  136.0400 C   0  0  0  0  0  0  0  0  0  0  0  0
  185.8510  175.3670  136.1340 C   0  0  0  0  0  3  0  0  0  0  0  0
  186.0850  171.1710  135.3620 C   0  0  0  0  0  1  0  0  0  0  0  0
  187.1640  173.3880  135.7230 C   0  0  0  0  0  3  0  0  0  0  0  0
  184.7510  173.2420  135.7890 C   0  0  0  0  0  3  0  0  0  0  0  0
  187.1030  174.7620  135.9820 C   0  0  0  0  0  0  0  0  0  0  0  0
  185.9960  172.6310  135.6290 C   0  0  0  0  0  0  0  0  0  0  0  0
  182.3170  173.8830  137.6150 O   0  0  0  0  0  0  0  0  0  0  0  0
  182.2640  174.8630  136.8180 C   0  0  0  0  0  0  0  0  0  0  0  0
  183.4260  175.3000  136.1090 N   0  0  0  0  0  2  0  0  0  0  0  0
  181.0170  175.6650  136.7260 C   0  0  0  0  0  2  0  0  0  0  0  0
  181.1560  176.9190  137.5660 C   0  0  0  0  0  2  0  0  0  0  0  0
  185.4490  178.7040  138.8210 C   0  0  0  0  0  1  0  0  0  0  0  0
  182.2980  177.1510  139.8890 C   0  0  1  0  0  3  0  0  0  0  0  0
  183.3880  177.8770  137.8250 N   0  0  0  0  0  2  0  0  0  0  0  0
  182.4480  176.9040  138.3730 C   0  0  2  0  0  3  0  0  0  0  0  0
  183.9450  178.6250  138.9430 C   0  0  0  0  0  0  0  0  0  0  0  0
  183.5700  177.9020  140.2180 C   0  0  0  0  0  2  0  0  0  0  0  0
  183.3620  180.0220  138.9460 C   0  0  0  0  0  1  0  0  0  0  0  0
  179.9680  180.1540  142.1460 C   0  0  1  0  0  3  0  0  0  0  0  0
  181.2180  180.0700  141.5010 O   0  0  0  0  0  0  0  0  0  0  0  0
  181.0680  177.9920  140.2930 C   0  0  2  0  0  3  0  0  0  0  0  0
  179.9550  178.1910  143.7570 C   0  0  0  0  0  1  0  0  0  0  0  0
  181.2390  178.6670  141.6520 C   0  0  2  0  0  3  0  0  0  0  0  0
  178.9310  177.8590  141.4330 C   0  0  0  0  0  2  0  0  0  0  0  0
  179.8120  177.1450  140.4290 C   0  0  0  0  0  2  0  0  0  0  0  0
  178.9310  180.7330  141.1910 C   0  0  0  0  0  1  0  0  0  0  0  0
  179.8910  178.6500  142.3140 C   0  0  2  0  0  0  0  0  0  0  0  0
  189.3520  177.1970  137.6330 C   0  0  0  0  0  2  0  0  0  0  0  0
  188.8020  177.5150  139.0180 C   0  0  0  0  0  2  0  0  0  0  0  0
  190.9310  176.8270  146.4940 C   0  0  2  0  0  3  0  0  0  0  0  0
  190.0390  178.7500  143.5390 N   0  0  0  0  0  0  0  0  0  0  0  0
  191.5330  175.7850  143.1510 C   0  0  0  0  0  3  0  0  0  0  0  0
  189.5060  177.9520  141.3910 N   0  0  0  0  0  2  0  0  0  0  0  0
  191.6560  177.1760  142.5310 C   0  0  0  0  0  2  0  0  0  0  0  0
  191.4330  177.6680  145.3200 C   0  0  2  0  0  3  0  0  0  0  0  0
  190.7540  178.9490  144.8170 C   0  0  0  0  0  2  0  0  0  0  0  0
  189.8690  177.5510  140.0630 C   0  0  0  0  0  0  0  0  0  0  0  0
  191.0400  175.5520  144.3320 N   0  0  0  0  0  0  0  0  0  0  0  0
  191.0770  177.3290  139.7570 O   0  0  0  0  0  0  0  0  0  0  0  0
  190.3950  176.5780  145.1070 C   0  0  1  0  0  3  0  0  0  0  0  0
  190.3840  177.9980  142.5230 C   0  0  0  0  0  0  0  0  0  0  0  0
  189.9120  177.5980  147.3130 C   0  0  0  0  0  2  0  0  0  0  0  0
  188.5680  176.8810  147.2790 C   0  0  0  0  0  2  0  0  0  0  0  0
  186.4650  177.3430  146.4730 O   0  0  0  0  0  0  0  0  0  0  0  0
  187.5470  177.7630  146.7680 N   0  0  0  0  0  0  0  0  0  0  0  0
  1 47  1  6  0  0  0
  2  3  1  0  0  0  0
  2  6  1  0  0  0  0
  3  1  1  0  0  0  0
  3  9  2  0  0  0  0
  4  2  1  0  0  0  0
  5  8  1  0  0  0  0
  5  4  1  0  0  0  0
  7 10  1  1  0  0  0
  7  6  1  0  0  0  0
  8  7  1  0  0  0  0
 10 11  2  0  0  0  0
 10 14  1  0  0  0  0
 14 13  1  1  0  0  0
 14 12  1  0  0  0  0
 15 16  1  0  0  0  0
 16 17  1  0  0  0  0
 16 14  1  0  0  0  0
 18  1  1  0  0  0  0
 19 28  1  0  0  0  0
 19 20  1  0  0  0  0
 21 25  1  0  0  0  0
 22 24  1  0  0  0  0
 23 19  2  0  0  0  0
 24 20  2  0  0  0  0
 24 18  1  0  0  0  0
 25 22  2  0  0  0  0
 25 23  1  0  0  0  0
 27 26  2  0  0  0  0
 28 27  1  0  0  0  0
 29 27  1  0  0  0  0
 29 30  1  0  0  0  0
 31 35  1  0  0  0  0
 32 36  1  6  0  0  0
 32 40  1  0  0  0  0
 33 34  1  0  0  0  0
 33 35  1  0  0  0  0
 34 30  1  6  0  0  0
 34 32  1  0  0  0  0
 35 37  1  0  0  0  0
 35 36  1  0  0  0  0
 38 45  1  6  0  0  0
 38 46  1  0  0  0  0
 39 38  1  0  0  0  0
 40 44  1  1  0  0  0
 40 42  1  0  0  0  0
 42 39  1  6  0  0  0
 42 46  1  0  0  0  0
 43 46  1  0  0  0  0
 44 43  1  0  0  0  0
 46 41  1  1  0  0  0
 47 48  1  0  0  0  0
 48 56  1  0  0  0  0
 49 61  1  1  0  0  0
 50 55  1  0  0  0  0
 51 57  2  0  0  0  0
 52 60  1  0  0  0  0
 53 51  1  0  0  0  0
 54 55  1  1  0  0  0
 54 49  1  0  0  0  0
 56 52  1  0  0  0  0
 58 56  2  0  0  0  0
 59 57  1  6  0  0  0
 59 54  1  0  0  0  0
 59 49  1  0  0  0  0
 60 53  1  0  0  0  0
 60 50  2  0  0  0  0
 62 61  1  0  0  0  0
 63 64  2  0  0  0  0
 64 62  1  0  0  0  0
M  END
>  <MODEL>
1

>  <REMARK>
 VINA RESULT:      -7.3      0.000      0.000
  Name = 
  17 active torsions:
  status: ('A' for Active; 'I' for Inactive)
    1  A    between atoms: C_3  and  C_50
    2  A    between atoms: C_7  and  N_27
    3  A    between atoms: C_8  and  C_30
    4  A    between atoms: C_8  and  C_45
    5  A    between atoms: O_9  and  C_50
    6  A    between atoms: O_9  and  C_54
    7  A    between atoms: C_10  and  C_16
    8  A    between atoms: C_11  and  C_44
    9  A    between atoms: C_12  and  C_34
   10  A    between atoms: C_12  and  C_52
   11  A    between atoms: C_21  and  C_42
   12  A    between atoms: C_30  and  C_50
   13  A    between atoms: C_31  and  C_44
   14  A    between atoms: C_31  and  N_51
   15  A    between atoms: C_34  and  N_49
   16  A    between atoms: C_42  and  C_43
   17  A    between atoms: C_43  and  C_56
                            x       y       z     vdW  Elec       q    Type
                         _______ _______ _______ _____ _____    ______ ____

>  <TORSDO>
F 17

$$$$
=
 OpenBabel10222417073D

 64 70  0  0  1  0  0  0  0  0999 V2000
  186.1750  177.7260  137.9450 C   0  0  2  0  0  3  0  0  0  0  0  0
  185.4070  175.3830  137.3920 N   0  0  0  0  0  0  0  0  0  0  0  0
  185.3470  176.7850  137.1350 C   0  0  0  0  0  0  0  0  0  0  0  0
  186.5930  174.6520  136.9370 C   0  0  0  0  0  2  0  0  0  0  0  0
  186.2570  173.1760  136.6940 C   0  0  0  0  0  2  0  0  0  0  0  0
  184.1610  174.6550  137.5860 C   0  0  0  0  0  2  0  0  0  0  0  0
  183.8990  173.8230  136.3270 C   0  0  1  0  0  3  0  0  0  0  0  0
  185.0590  173.0420  135.8440 N   0  0  0  0  0  2  0  0  0  0  0  0
  184.5630  177.2310  136.2560 O   0  0  0  0  0  0  0  0  0  0  0  0
  182.6470  172.9970  136.4270 C   0  0  0  0  0  0  0  0  0  0  0  0
  182.7780  171.8080  136.6850 O   0  0  0  0  0  0  0  0  0  0  0  0
  180.3690  172.5390  135.9560 O   0  0  0  0  0  1  0  0  0  0  0  0
  181.2900  174.4780  134.9490 C   0  0  0  0  0  1  0  0  0  0  0  0
  181.2600  173.5910  136.1980 C   0  0  2  0  0  0  0  0  0  0  0  0
  180.6690  175.7770  137.1220 C   0  0  0  0  0  1  0  0  0  0  0  0
  180.8060  174.3460  137.3930 N   0  0  0  0  0  0  0  0  0  0  0  0
  179.4900  173.8800  137.8240 C   0  0  0  0  0  1  0  0  0  0  0  0
  185.3490  178.8200  138.3450 O   0  0  0  0  0  0  0  0  0  0  0  0
  183.9360  178.6510  141.7580 C   0  0  0  0  0  0  0  0  0  0  0  0
  184.8410  178.6820  140.6970 C   0  0  0  0  0  3  0  0  0  0  0  0
  180.6650  179.1270  139.9120 C   0  0  0  0  0  1  0  0  0  0  0  0
  183.0310  179.0040  139.1380 C   0  0  0  0  0  3  0  0  0  0  0  0
  182.5650  178.7950  141.5020 C   0  0  0  0  0  3  0  0  0  0  0  0
  184.4010  178.8530  139.3800 C   0  0  0  0  0  0  0  0  0  0  0  0
  182.1160  178.9730  140.1920 C   0  0  0  0  0  0  0  0  0  0  0  0
  182.4280  178.7900  144.2670 O   0  0  0  0  0  0  0  0  0  0  0  0
  183.6900  178.7310  144.2920 C   0  0  0  0  0  0  0  0  0  0  0  0
  184.4430  178.5690  143.0870 N   0  0  0  0  0  2  0  0  0  0  0  0
  184.3950  178.6810  145.5980 C   0  0  0  0  0  2  0  0  0  0  0  0
  185.7900  178.1190  145.4020 C   0  0  0  0  0  2  0  0  0  0  0  0
  188.1110  178.0160  149.6200 C   0  0  0  0  0  1  0  0  0  0  0  0
  188.2490  178.6940  146.0140 C   0  0  1  0  0  3  0  0  0  0  0  0
  186.6280  177.9630  147.6910 N   0  0  0  0  0  2  0  0  0  0  0  0
  186.7630  178.6840  146.4290 C   0  0  2  0  0  3  0  0  0  0  0  0
  187.9700  177.6490  148.1610 C   0  0  0  0  0  0  0  0  0  0  0  0
  188.9510  178.4470  147.3330 C   0  0  0  0  0  2  0  0  0  0  0  0
  188.2240  176.1660  147.9840 C   0  0  0  0  0  1  0  0  0  0  0  0
  190.3960  176.8910  142.5960 C   0  0  1  0  0  3  0  0  0  0  0  0
  190.7070  177.6420  143.7460 O   0  0  0  0  0  0  0  0  0  0  0  0
  188.6470  177.6060  144.9930 C   0  0  2  0  0  3  0  0  0  0  0  0
  188.6180  178.2610  141.4080 C   0  0  0  0  0  1  0  0  0  0  0  0
  189.4010  178.1740  143.7930 C   0  0  2  0  0  3  0  0  0  0  0  0
  187.8560  176.4260  143.0260 C   0  0  0  0  0  2  0  0  0  0  0  0
  187.4340  176.9030  144.4000 C   0  0  0  0  0  2  0  0  0  0  0  0
  190.5500  175.4040  142.8920 C   0  0  0  0  0  1  0  0  0  0  0  0
  188.9620  177.3820  142.5940 C   0  0  2  0  0  0  0  0  0  0  0  0
  187.4240  178.1360  137.1760 C   0  0  0  0  0  2  0  0  0  0  0  0
  188.6130  177.4040  137.7870 C   0  0  0  0  0  2  0  0  0  0  0  0
  194.8440  173.0890  135.9300 C   0  0  2  0  0  3  0  0  0  0  0  0
  193.1790  176.2410  136.6510 N   0  0  0  0  0  0  0  0  0  0  0  0
  191.4190  173.7610  135.2620 C   0  0  0  0  0  3  0  0  0  0  0  0
  190.9080  176.6060  137.1440 N   0  0  0  0  0  2  0  0  0  0  0  0
  191.5500  175.2700  135.0640 C   0  0  0  0  0  2  0  0  0  0  0  0
  194.2270  174.3660  135.3580 C   0  0  2  0  0  3  0  0  0  0  0  0
  194.4000  175.7630  135.9690 C   0  0  0  0  0  2  0  0  0  0  0  0
  189.5550  176.8780  136.7540 C   0  0  0  0  0  0  0  0  0  0  0  0
  192.3360  173.0120  135.8010 N   0  0  0  0  0  0  0  0  0  0  0  0
  189.1910  176.7710  135.5470 O   0  0  0  0  0  0  0  0  0  0  0  0
  193.5040  173.5680  136.4300 C   0  0  1  0  0  3  0  0  0  0  0  0
  191.9280  176.0560  136.3020 C   0  0  0  0  0  0  0  0  0  0  0  0
  195.9230  173.4200  136.9440 C   0  0  0  0  0  2  0  0  0  0  0  0
  196.5670  172.1360  137.4560 C   0  0  0  0  0  2  0  0  0  0  0  0
  194.9350  170.5760  137.8840 O   0  0  0  0  0  0  0  0  0  0  0  0
  195.6510  171.4310  138.3180 N   0  0  0  0  0  0  0  0  0  0  0  0
  1 47  1  6  0  0  0
  1 18  1  0  0  0  0
  2  6  1  0  0  0  0
  3  2  1  0  0  0  0
  3  1  1  0  0  0  0
  4  2  1  0  0  0  0
  5  4  1  0  0  0  0
  7 10  1  1  0  0  0
  7  6  1  0  0  0  0
  8  7  1  0  0  0  0
  8  5  1  0  0  0  0
  9  3  2  0  0  0  0
 10 11  2  0  0  0  0
 12 14  1  0  0  0  0
 14 13  1  6  0  0  0
 14 10  1  0  0  0  0
 14 16  1  0  0  0  0
 15 16  1  0  0  0  0
 16 17  1  0  0  0  0
 18 24  1  0  0  0  0
 19 28  1  0  0  0  0
 20 19  2  0  0  0  0
 21 25  1  0  0  0  0
 22 24  2  0  0  0  0
 22 25  1  0  0  0  0
 23 19  1  0  0  0  0
 24 20  1  0  0  0  0
 25 23  2  0  0  0  0
 26 27  2  0  0  0  0
 27 29  1  0  0  0  0
 28 27  1  0  0  0  0
 30 29  1  0  0  0  0
 32 34  1  0  0  0  0
 32 36  1  1  0  0  0
 33 35  1  0  0  0  0
 34 30  1  6  0  0  0
 34 33  1  0  0  0  0
 35 31  1  0  0  0  0
 36 35  1  0  0  0  0
 37 35  1  0  0  0  0
 38 45  1  1  0  0  0
 38 39  1  0  0  0  0
 40 44  1  6  0  0  0
 40 32  1  0  0  0  0
 42 39  1  1  0  0  0
 42 40  1  0  0  0  0
 43 44  1  0  0  0  0
 46 41  1  6  0  0  0
 46 38  1  0  0  0  0
 46 43  1  0  0  0  0
 46 42  1  0  0  0  0
 47 48  1  0  0  0  0
 49 59  1  0  0  0  0
 49 61  1  1  0  0  0
 51 57  2  0  0  0  0
 53 51  1  0  0  0  0
 53 60  1  0  0  0  0
 54 49  1  0  0  0  0
 54 55  1  1  0  0  0
 54 59  1  0  0  0  0
 55 50  1  0  0  0  0
 56 52  1  0  0  0  0
 56 48  1  0  0  0  0
 58 56  2  0  0  0  0
 59 57  1  6  0  0  0
 60 50  2  0  0  0  0
 60 52  1  0  0  0  0
 61 62  1  0  0  0  0
 62 64  1  0  0  0  0
 63 64  2  0  0  0  0
M  END
>  <MODEL>
2

>  <REMARK>
 VINA RESULT:      -7.1      2.355      9.811
  Name = 
  17 active torsions:
  status: ('A' for Active; 'I' for Inactive)
    1  A    between atoms: C_3  and  C_50
    2  A    between atoms: C_7  and  N_27
    3  A    between atoms: C_8  and  C_30
    4  A    between atoms: C_8  and  C_45
    5  A    between atoms: O_9  and  C_50
    6  A    between atoms: O_9  and  C_54
    7  A    between atoms: C_10  and  C_16
    8  A    between atoms: C_11  and  C_44
    9  A    between atoms: C_12  and  C_34
   10  A    between atoms: C_12  and  C_52
   11  A    between atoms: C_21  and  C_42
   12  A    between atoms: C_30  and  C_50
   13  A    between atoms: C_31  and  C_44
   14  A    between atoms: C_31  and  N_51
   15  A    between atoms: C_34  and  N_49
   16  A    between atoms: C_42  and  C_43
   17  A    between atoms: C_43  and  C_56
                            x       y       z     vdW  Elec       q    Type
                         _______ _______ _______ _____ _____    ______ ____

>  <TORSDO>
F 17

$$$$
=
 OpenBabel10222417073D

 64 70  0  0  1  0  0  0  0  0999 V2000
  185.8260  177.9640  138.3800 C   0  0  2  0  0  3  0  0  0  0  0  0
  184.5250  175.9470  137.5920 N   0  0  0  0  0  0  0  0  0  0  0  0
  184.6440  177.3650  137.6940 C   0  0  0  0  0  0  0  0  0  0  0  0
  185.3770  175.2540  136.6220 C   0  0  0  0  0  2  0  0  0  0  0  0
  184.7260  173.9400  136.1740 C   0  0  0  0  0  2  0  0  0  0  0  0
  183.2790  175.3210  138.0110 C   0  0  0  0  0  2  0  0  0  0  0  0
  182.5190  174.8910  136.7520 C   0  0  1  0  0  3  0  0  0  0  0  0
  183.3300  174.1610  135.7540 N   0  0  0  0  0  2  0  0  0  0  0  0
  183.7320  178.1080  137.2440 O   0  0  0  0  0  0  0  0  0  0  0  0
  181.2220  174.1970  137.0650 C   0  0  0  0  0  0  0  0  0  0  0  0
  181.2900  173.0780  137.5570 O   0  0  0  0  0  0  0  0  0  0  0  0
  179.2830  175.2000  137.9890 O   0  0  0  0  0  1  0  0  0  0  0  0
  178.9560  173.7950  136.1060 C   0  0  0  0  0  1  0  0  0  0  0  0
  179.8670  174.8320  136.7710 C   0  0  2  0  0  0  0  0  0  0  0  0
  178.9310  176.1920  134.9660 C   0  0  0  0  0  1  0  0  0  0  0  0
  180.0250  176.0430  135.9250 N   0  0  0  0  0  0  0  0  0  0  0  0
  180.0180  177.2490  136.7490 C   0  0  0  0  0  1  0  0  0  0  0  0
  185.3610  178.9780  139.2720 O   0  0  0  0  0  0  0  0  0  0  0  0
  185.0000  178.1830  142.8650 C   0  0  0  0  0  0  0  0  0  0  0  0
  185.5560  178.4160  141.6070 C   0  0  0  0  0  3  0  0  0  0  0  0
  181.3540  178.9340  142.1760 C   0  0  0  0  0  1  0  0  0  0  0  0
  183.3840  178.9850  140.7310 C   0  0  0  0  0  3  0  0  0  0  0  0
  183.6210  178.3520  143.0530 C   0  0  0  0  0  3  0  0  0  0  0  0
  184.7580  178.8130  140.5290 C   0  0  0  0  0  0  0  0  0  0  0  0
  182.8170  178.7540  141.9850 C   0  0  0  0  0  0  0  0  0  0  0  0
  184.9220  179.2550  145.5910 O   0  0  0  0  0  0  0  0  0  0  0  0
  185.8590  178.4820  145.2440 C   0  0  0  0  0  0  0  0  0  0  0  0
  185.8690  177.8730  143.9500 N   0  0  0  0  0  2  0  0  0  0  0  0
  186.8870  178.0830  146.2390 C   0  0  0  0  0  2  0  0  0  0  0  0
  188.0140  177.3490  145.5410 C   0  0  0  0  0  2  0  0  0  0  0  0
  192.0900  176.4170  147.9310 C   0  0  0  0  0  1  0  0  0  0  0  0
  190.4670  178.0760  145.0850 C   0  0  1  0  0  3  0  0  0  0  0  0
  189.8560  176.6890  147.0030 N   0  0  0  0  0  2  0  0  0  0  0  0
  189.3700  177.7410  146.1170 C   0  0  2  0  0  3  0  0  0  0  0  0
  191.2540  176.4510  146.6720 C   0  0  0  0  0  0  0  0  0  0  0  0
  191.7180  177.5780  145.7770 C   0  0  0  0  0  2  0  0  0  0  0  0
  191.3750  175.1270  145.9470 C   0  0  0  0  0  1  0  0  0  0  0  0
  190.6250  177.6270  140.6900 C   0  0  1  0  0  3  0  0  0  0  0  0
  191.4650  178.0860  141.7240 O   0  0  0  0  0  0  0  0  0  0  0  0
  190.3090  177.3810  143.7160 C   0  0  2  0  0  3  0  0  0  0  0  0
  188.4780  178.9520  140.9850 C   0  0  0  0  0  1  0  0  0  0  0  0
  190.3530  178.3640  142.5480 C   0  0  2  0  0  3  0  0  0  0  0  0
  188.6490  176.6540  142.1030 C   0  0  0  0  0  2  0  0  0  0  0  0
  188.9690  176.6720  143.5830 C   0  0  0  0  0  2  0  0  0  0  0  0
  190.9200  176.1610  140.3960 C   0  0  0  0  0  1  0  0  0  0  0  0
  189.3790  177.8590  141.5220 C   0  0  2  0  0  0  0  0  0  0  0  0
  186.8460  178.4510  137.3600 C   0  0  0  0  0  2  0  0  0  0  0  0
  188.2320  178.0620  137.8600 C   0  0  0  0  0  2  0  0  0  0  0  0
  194.2190  173.2870  136.3600 C   0  0  2  0  0  3  0  0  0  0  0  0
  192.4710  176.4680  136.1310 N   0  0  0  0  0  0  0  0  0  0  0  0
  190.6860  173.6550  136.4140 C   0  0  0  0  0  3  0  0  0  0  0  0
  190.3670  177.0370  137.0170 N   0  0  0  0  0  2  0  0  0  0  0  0
  190.6090  174.9360  135.5850 C   0  0  0  0  0  2  0  0  0  0  0  0
  193.3530  174.2080  135.4990 C   0  0  2  0  0  3  0  0  0  0  0  0
  193.5290  175.7290  135.4090 C   0  0  0  0  0  2  0  0  0  0  0  0
  188.9390  177.1350  136.9250 C   0  0  0  0  0  0  0  0  0  0  0  0
  191.7780  173.1940  136.9480 N   0  0  0  0  0  0  0  0  0  0  0  0
  188.3010  176.5300  136.0150 O   0  0  0  0  0  0  0  0  0  0  0  0
  193.0030  173.9500  136.9550 C   0  0  1  0  0  3  0  0  0  0  0  0
  191.1980  176.1680  136.2370 C   0  0  0  0  0  0  0  0  0  0  0  0
  195.4760  174.0020  136.8180 C   0  0  0  0  0  2  0  0  0  0  0  0
  195.3600  174.3630  138.2940 C   0  0  0  0  0  2  0  0  0  0  0  0
  196.7830  175.0650  139.9570 O   0  0  0  0  0  0  0  0  0  0  0  0
  196.6310  174.8260  138.7940 N   0  0  0  0  0  0  0  0  0  0  0  0
  1 47  1  6  0  0  0
  1 18  1  0  0  0  0
  2  3  1  0  0  0  0
  2  6  1  0  0  0  0
  3  1  1  0  0  0  0
  4  2  1  0  0  0  0
  5  4  1  0  0  0  0
  7 10  1  1  0  0  0
  7  6  1  0  0  0  0
  8  5  1  0  0  0  0
  8  7  1  0  0  0  0
  9  3  2  0  0  0  0
 10 11  2  0  0  0  0
 14 13  1  6  0  0  0
 14 10  1  0  0  0  0
 14 12  1  0  0  0  0
 15 16  1  0  0  0  0
 16 17  1  0  0  0  0
 16 14  1  0  0  0  0
 18 24  1  0  0  0  0
 19 23  1  0  0  0  0
 19 28  1  0  0  0  0
 20 19  2  0  0  0  0
 22 25  1  0  0  0  0
 24 22  2  0  0  0  0
 24 20  1  0  0  0  0
 25 21  1  0  0  0  0
 25 23  2  0  0  0  0
 27 26  2  0  0  0  0
 27 29  1  0  0  0  0
 28 27  1  0  0  0  0
 30 29  1  0  0  0  0
 32 36  1  1  0  0  0
 32 34  1  0  0  0  0
 34 30  1  6  0  0  0
 34 33  1  0  0  0  0
 35 33  1  0  0  0  0
 35 31  1  0  0  0  0
 36 35  1  0  0  0  0
 37 35  1  0  0  0  0
 38 45  1  1  0  0  0
 38 46  1  0  0  0  0
 38 39  1  0  0  0  0
 40 44  1  1  0  0  0
 40 32  1  0  0  0  0
 42 39  1  6  0  0  0
 42 40  1  0  0  0  0
 43 44  1  0  0  0  0
 46 41  1  6  0  0  0
 46 43  1  0  0  0  0
 46 42  1  0  0  0  0
 47 48  1  0  0  0  0
 49 61  1  1  0  0  0
 49 59  1  0  0  0  0
 50 60  2  0  0  0  0
 51 57  2  0  0  0  0
 53 60  1  0  0  0  0
 53 51  1  0  0  0  0
 54 55  1  1  0  0  0
 54 49  1  0  0  0  0
 54 59  1  0  0  0  0
 55 50  1  0  0  0  0
 56 52  1  0  0  0  0
 56 48  1  0  0  0  0
 58 56  2  0  0  0  0
 59 57  1  6  0  0  0
 60 52  1  0  0  0  0
 61 62  1  0  0  0  0
 62 64  1  0  0  0  0
 64 63  2  0  0  0  0
M  END
>  <MODEL>
3

>  <REMARK>
 VINA RESULT:      -7.0      2.146     10.346
  Name = 
  17 active torsions:
  status: ('A' for Active; 'I' for Inactive)
    1  A    between atoms: C_3  and  C_50
    2  A    between atoms: C_7  and  N_27
    3  A    between atoms: C_8  and  C_30
    4  A    between atoms: C_8  and  C_45
    5  A    between atoms: O_9  and  C_50
    6  A    between atoms: O_9  and  C_54
    7  A    between atoms: C_10  and  C_16
    8  A    between atoms: C_11  and  C_44
    9  A    between atoms: C_12  and  C_34
   10  A    between atoms: C_12  and  C_52
   11  A    between atoms: C_21  and  C_42
   12  A    between atoms: C_30  and  C_50
   13  A    between atoms: C_31  and  C_44
   14  A    between atoms: C_31  and  N_51
   15  A    between atoms: C_34  and  N_49
   16  A    between atoms: C_42  and  C_43
   17  A    between atoms: C_43  and  C_56
                            x       y       z     vdW  Elec       q    Type
                         _______ _______ _______ _____ _____    ______ ____

>  <TORSDO>
F 17

$$$$
=
 OpenBabel10222417073D

 64 70  0  0  1  0  0  0  0  0999 V2000
  190.6900  176.5710  139.7930 C   0  0  2  0  0  3  0  0  0  0  0  0
  189.2910  176.1240  137.7360 N   0  0  0  0  0  0  0  0  0  0  0  0
  189.7380  177.0340  138.7400 C   0  0  0  0  0  0  0  0  0  0  0  0
  190.2260  175.7700  136.6650 C   0  0  0  0  0  2  0  0  0  0  0  0
  189.4650  175.3560  135.4000 C   0  0  0  0  0  2  0  0  0  0  0  0
  187.8600  176.0020  137.4940 C   0  0  0  0  0  2  0  0  0  0  0  0
  187.5440  176.7080  136.1710 C   0  0  1  0  0  3  0  0  0  0  0  0
  188.4430  176.3600  135.0490 N   0  0  0  0  0  2  0  0  0  0  0  0
  189.2960  178.2130  138.7640 O   0  0  0  0  0  0  0  0  0  0  0  0
  186.0900  176.6160  135.7980 C   0  0  0  0  0  0  0  0  0  0  0  0
  185.6360  177.5040  135.0870 O   0  0  0  0  0  0  0  0  0  0  0  0
  184.2160  175.2460  135.3190 O   0  0  0  0  0  1  0  0  0  0  0  0
  184.4790  175.9310  137.5740 C   0  0  0  0  0  1  0  0  0  0  0  0
  185.1920  175.4860  136.2930 C   0  0  2  0  0  0  0  0  0  0  0  0
  185.3380  173.3470  137.4700 C   0  0  0  0  0  1  0  0  0  0  0  0
  185.9780  174.2450  136.5090 N   0  0  0  0  0  0  0  0  0  0  0  0
  186.1010  173.4940  135.2610 C   0  0  0  0  0  1  0  0  0  0  0  0
  189.9340  175.9890  140.8560 O   0  0  0  0  0  0  0  0  0  0  0  0
  188.0530  177.9420  143.3700 C   0  0  0  0  0  0  0  0  0  0  0  0
  188.4100  177.3030  142.1830 C   0  0  0  0  0  3  0  0  0  0  0  0
  190.9700  176.9940  145.5900 C   0  0  0  0  0  1  0  0  0  0  0  0
  190.4210  176.4670  143.2170 C   0  0  0  0  0  3  0  0  0  0  0  0
  188.8930  177.8430  144.4890 C   0  0  0  0  0  3  0  0  0  0  0  0
  189.5960  176.5650  142.0910 C   0  0  0  0  0  0  0  0  0  0  0  0
  190.0750  177.1040  144.4090 C   0  0  0  0  0  0  0  0  0  0  0  0
  186.0210  177.7130  145.4690 O   0  0  0  0  0  0  0  0  0  0  0  0
  185.7840  178.3970  144.4330 C   0  0  0  0  0  0  0  0  0  0  0  0
  186.7910  178.6000  143.4390 N   0  0  0  0  0  2  0  0  0  0  0  0
  184.4930  179.1210  144.3140 C   0  0  0  0  0  2  0  0  0  0  0  0
  183.9280  178.9280  142.9200 C   0  0  0  0  0  2  0  0  0  0  0  0
  179.2830  178.5970  144.1470 C   0  0  0  0  0  1  0  0  0  0  0  0
  181.8730  178.0350  141.6050 C   0  0  1  0  0  3  0  0  0  0  0  0
  181.6840  178.8990  143.8840 N   0  0  0  0  0  2  0  0  0  0  0  0
  182.5840  178.2120  142.9630 C   0  0  2  0  0  3  0  0  0  0  0  0
  180.3950  179.0300  143.2190 C   0  0  0  0  0  0  0  0  0  0  0  0
  180.4130  178.1460  141.9920 C   0  0  0  0  0  2  0  0  0  0  0  0
  180.1870  180.4750  142.8180 C   0  0  0  0  0  1  0  0  0  0  0  0
  181.2230  180.7440  138.1730 C   0  0  1  0  0  3  0  0  0  0  0  0
  180.5660  180.3980  139.3700 O   0  0  0  0  0  0  0  0  0  0  0  0
  182.2210  179.1000  140.5440 C   0  0  2  0  0  3  0  0  0  0  0  0
  181.6060  178.5250  136.9980 C   0  0  0  0  0  1  0  0  0  0  0  0
  181.2100  179.1430  139.4000 C   0  0  2  0  0  3  0  0  0  0  0  0
  183.4720  179.4440  138.4940 C   0  0  0  0  0  2  0  0  0  0  0  0
  183.5610  178.8300  139.8750 C   0  0  0  0  0  2  0  0  0  0  0  0
  182.0930  181.9750  138.3970 C   0  0  0  0  0  1  0  0  0  0  0  0
  181.9870  179.4350  138.1480 C   0  0  2  0  0  0  0  0  0  0  0  0
  191.6020  177.7100  140.2260 C   0  0  0  0  0  2  0  0  0  0  0  0
  193.0160  177.1550  140.3570 C   0  0  0  0  0  2  0  0  0  0  0  0
  195.8490  171.2010  136.1850 C   0  0  2  0  0  3  0  0  0  0  0  0
  196.1980  174.2440  138.1460 N   0  0  0  0  0  0  0  0  0  0  0  0
  193.4090  173.7770  136.3620 C   0  0  0  0  0  3  0  0  0  0  0  0
  194.4990  175.5540  139.1110 N   0  0  0  0  0  2  0  0  0  0  0  0
  194.3670  174.9350  136.6360 C   0  0  0  0  0  2  0  0  0  0  0  0
  196.0720  172.7140  136.1640 C   0  0  2  0  0  3  0  0  0  0  0  0
  196.9710  173.4720  137.1490 C   0  0  0  0  0  2  0  0  0  0  0  0
  193.5440  176.6220  139.0650 C   0  0  0  0  0  0  0  0  0  0  0  0
  193.7310  172.5220  136.4690 N   0  0  0  0  0  0  0  0  0  0  0  0
  193.2280  177.1680  137.9680 O   0  0  0  0  0  0  0  0  0  0  0  0
  194.9860  172.1000  137.0320 C   0  0  1  0  0  3  0  0  0  0  0  0
  195.0710  174.8920  137.9760 C   0  0  0  0  0  0  0  0  0  0  0  0
  196.8900  170.5150  137.0500 C   0  0  0  0  0  2  0  0  0  0  0  0
  197.7830  169.6300  136.1880 C   0  0  0  0  0  2  0  0  0  0  0  0
  199.1570  170.9340  134.8870 O   0  0  0  0  0  0  0  0  0  0  0  0
  198.1350  170.3160  134.9690 N   0  0  0  0  0  0  0  0  0  0  0  0
  1 47  1  1  0  0  0
  1 18  1  0  0  0  0
  2  3  1  0  0  0  0
  3  9  2  0  0  0  0
  3  1  1  0  0  0  0
  4  2  1  0  0  0  0
  5  4  1  0  0  0  0
  6  2  1  0  0  0  0
  7 10  1  6  0  0  0
  7  6  1  0  0  0  0
  8  5  1  0  0  0  0
  8  7  1  0  0  0  0
 10 14  1  0  0  0  0
 11 10  2  0  0  0  0
 12 14  1  0  0  0  0
 14 16  1  0  0  0  0
 14 13  1  1  0  0  0
 16 15  1  0  0  0  0
 17 16  1  0  0  0  0
 18 24  1  0  0  0  0
 19 28  1  0  0  0  0
 19 23  1  0  0  0  0
 20 19  2  0  0  0  0
 22 25  1  0  0  0  0
 24 20  1  0  0  0  0
 24 22  2  0  0  0  0
 25 23  2  0  0  0  0
 25 21  1  0  0  0  0
 27 26  2  0  0  0  0
 28 27  1  0  0  0  0
 29 27  1  0  0  0  0
 30 29  1  0  0  0  0
 32 36  1  1  0  0  0
 32 34  1  0  0  0  0
 34 30  1  6  0  0  0
 34 33  1  0  0  0  0
 35 33  1  0  0  0  0
 35 31  1  0  0  0  0
 36 35  1  0  0  0  0
 37 35  1  0  0  0  0
 38 45  1  1  0  0  0
 38 39  1  0  0  0  0
 40 44  1  6  0  0  0
 40 32  1  0  0  0  0
 42 39  1  1  0  0  0
 42 40  1  0  0  0  0
 43 44  1  0  0  0  0
 46 41  1  6  0  0  0
 46 38  1  0  0  0  0
 46 43  1  0  0  0  0
 46 42  1  0  0  0  0
 47 48  1  0  0  0  0
 49 59  1  0  0  0  0
 49 61  1  1  0  0  0
 51 57  2  0  0  0  0
 51 53  1  0  0  0  0
 53 60  1  0  0  0  0
 54 49  1  0  0  0  0
 54 59  1  0  0  0  0
 54 55  1  1  0  0  0
 55 50  1  0  0  0  0
 56 52  1  0  0  0  0
 56 48  1  0  0  0  0
 58 56  2  0  0  0  0
 59 57  1  6  0  0  0
 60 50  2  0  0  0  0
 60 52  1  0  0  0  0
 62 61  1  0  0  0  0
 63 64  2  0  0  0  0
 64 62  1  0  0  0  0
M  END
>  <MODEL>
4

>  <REMARK>
 VINA RESULT:      -6.9      2.330      8.419
  Name = 
  17 active torsions:
  status: ('A' for Active; 'I' for Inactive)
    1  A    between atoms: C_3  and  C_50
    2  A    between atoms: C_7  and  N_27
    3  A    between atoms: C_8  and  C_30
    4  A    between atoms: C_8  and  C_45
    5  A    between atoms: O_9  and  C_50
    6  A    between atoms: O_9  and  C_54
    7  A    between atoms: C_10  and  C_16
    8  A    between atoms: C_11  and  C_44
    9  A    between atoms: C_12  and  C_34
   10  A    between atoms: C_12  and  C_52
   11  A    between atoms: C_21  and  C_42
   12  A    between atoms: C_30  and  C_50
   13  A    between atoms: C_31  and  C_44
   14  A    between atoms: C_31  and  N_51
   15  A    between atoms: C_34  and  N_49
   16  A    between atoms: C_42  and  C_43
   17  A    between atoms: C_43  and  C_56
                            x       y       z     vdW  Elec       q    Type
                         _______ _______ _______ _____ _____    ______ ____

>  <TORSDO>
F 17

$$$$
=
 OpenBabel10222417073D

 64 70  0  0  1  0  0  0  0  0999 V2000
  190.8380  174.7960  137.2540 C   0  0  2  0  0  3  0  0  0  0  0  0
  193.2400  174.6370  136.4850 N   0  0  0  0  0  0  0  0  0  0  0  0
  191.8750  174.2530  136.3280 C   0  0  0  0  0  0  0  0  0  0  0  0
  193.6290  175.9820  136.0530 C   0  0  0  0  0  2  0  0  0  0  0  0
  195.1170  176.0200  135.6820 C   0  0  0  0  0  2  0  0  0  0  0  0
  194.2550  173.5940  136.5480 C   0  0  0  0  0  2  0  0  0  0  0  0
  195.0140  173.5940  135.2170 C   0  0  1  0  0  3  0  0  0  0  0  0
  195.4550  174.9270  134.7510 N   0  0  0  0  0  2  0  0  0  0  0  0
  191.5530  173.4230  135.4370 O   0  0  0  0  0  0  0  0  0  0  0  0
  196.1170  172.5730  135.1790 C   0  0  0  0  0  0  0  0  0  0  0  0
  197.2210  172.9530  134.8120 O   0  0  0  0  0  0  0  0  0  0  0  0
  196.9570  170.3590  135.0580 O   0  0  0  0  0  1  0  0  0  0  0  0
  194.6060  170.6120  134.8810 C   0  0  0  0  0  1  0  0  0  0  0  0
  195.8870  171.1120  135.5560 C   0  0  2  0  0  0  0  0  0  0  0  0
  194.7600  170.0390  137.4420 C   0  0  0  0  0  1  0  0  0  0  0  0
  195.8270  170.9520  137.0310 N   0  0  0  0  0  0  0  0  0  0  0  0
  197.0740  170.3840  137.5360 C   0  0  0  0  0  1  0  0  0  0  0  0
  189.8490  173.7870  137.4610 O   0  0  0  0  0  0  0  0  0  0  0  0
  186.4640  174.7450  136.3210 C   0  0  0  0  0  0  0  0  0  0  0  0
  187.7520  174.8080  136.8530 C   0  0  0  0  0  3  0  0  0  0  0  0
  186.3290  171.1240  135.2230 C   0  0  0  0  0  1  0  0  0  0  0  0
  188.1060  172.4840  136.3200 C   0  0  0  0  0  3  0  0  0  0  0  0
  185.9940  173.5360  135.7870 C   0  0  0  0  0  3  0  0  0  0  0  0
  188.5830  173.6830  136.8630 C   0  0  0  0  0  0  0  0  0  0  0  0
  186.8180  172.4090  135.7870 C   0  0  0  0  0  0  0  0  0  0  0  0
  183.5460  175.0000  136.2290 O   0  0  0  0  0  0  0  0  0  0  0  0
  184.2730  176.0270  136.1150 C   0  0  0  0  0  0  0  0  0  0  0  0
  185.6940  175.9420  136.2500 N   0  0  0  0  0  2  0  0  0  0  0  0
  183.6380  177.3640  135.9870 C   0  0  0  0  0  2  0  0  0  0  0  0
  182.3080  177.3670  136.7150 C   0  0  0  0  0  2  0  0  0  0  0  0
  184.8060  178.5210  140.6680 C   0  0  0  0  0  1  0  0  0  0  0  0
  181.5440  178.3670  138.9890 C   0  0  1  0  0  3  0  0  0  0  0  0
  183.8810  177.8140  138.5300 N   0  0  0  0  0  2  0  0  0  0  0  0
  182.5060  177.4330  138.2250 C   0  0  2  0  0  3  0  0  0  0  0  0
  183.8300  178.8440  139.5600 C   0  0  0  0  0  0  0  0  0  0  0  0
  182.4220  178.8820  140.1100 C   0  0  0  0  0  2  0  0  0  0  0  0
  184.1860  180.1800  138.9440 C   0  0  0  0  0  1  0  0  0  0  0  0
  180.7180  182.5820  137.9440 C   0  0  1  0  0  3  0  0  0  0  0  0
  181.8170  181.8050  138.3590 O   0  0  0  0  0  0  0  0  0  0  0  0
  180.9930  179.5500  138.1640 C   0  0  2  0  0  3  0  0  0  0  0  0
  178.9320  182.1370  139.6930 C   0  0  0  0  0  1  0  0  0  0  0  0
  180.9610  180.8550  138.9570 C   0  0  2  0  0  3  0  0  0  0  0  0
  178.9390  180.6980  137.5740 C   0  0  0  0  0  2  0  0  0  0  0  0
  179.5550  179.3220  137.7230 C   0  0  0  0  0  2  0  0  0  0  0  0
  180.6950  182.6750  136.4230 C   0  0  0  0  0  1  0  0  0  0  0  0
  179.7270  181.5930  138.5240 C   0  0  2  0  0  0  0  0  0  0  0  0
  190.2860  176.1120  136.7250 C   0  0  0  0  0  2  0  0  0  0  0  0
  190.6040  177.1990  137.7450 C   0  0  0  0  0  2  0  0  0  0  0  0
  189.9810  177.6580  145.5100 C   0  0  2  0  0  3  0  0  0  0  0  0
  190.3680  175.8310  142.3890 N   0  0  0  0  0  0  0  0  0  0  0  0
  188.6660  178.7080  142.3810 C   0  0  0  0  0  3  0  0  0  0  0  0
  190.4150  176.6880  140.1990 N   0  0  0  0  0  2  0  0  0  0  0  0
  188.4980  177.3210  141.7640 C   0  0  0  0  0  2  0  0  0  0  0  0
  189.3010  176.8050  144.4390 C   0  0  2  0  0  3  0  0  0  0  0  0
  189.9350  175.5730  143.7790 C   0  0  0  0  0  2  0  0  0  0  0  0
  189.7710  177.0850  138.9810 C   0  0  0  0  0  0  0  0  0  0  0  0
  189.3710  178.9540  143.4460 N   0  0  0  0  0  0  0  0  0  0  0  0
  188.5170  177.2400  138.9270 O   0  0  0  0  0  0  0  0  0  0  0  0
  190.2130  177.9560  144.0510 C   0  0  1  0  0  3  0  0  0  0  0  0
  189.7850  176.5760  141.4810 C   0  0  0  0  0  0  0  0  0  0  0  0
  191.1840  176.9370  146.0900 C   0  0  0  0  0  2  0  0  0  0  0  0
  191.1880  177.0700  147.6080 C   0  0  0  0  0  2  0  0  0  0  0  0
  192.8410  175.6750  148.3840 O   0  0  0  0  0  0  0  0  0  0  0  0
  192.5050  176.7940  148.1280 N   0  0  0  0  0  0  0  0  0  0  0  0
  1 47  1  6  0  0  0
  1 18  1  0  0  0  0
  2  6  1  0  0  0  0
  3  2  1  0  0  0  0
  3  1  1  0  0  0  0
  4  2  1  0  0  0  0
  5  4  1  0  0  0  0
  7 10  1  1  0  0  0
  7  6  1  0  0  0  0
  8  7  1  0  0  0  0
  8  5  1  0  0  0  0
  9  3  2  0  0  0  0
 10 14  1  0  0  0  0
 11 10  2  0  0  0  0
 12 14  1  0  0  0  0
 14 13  1  6  0  0  0
 14 16  1  0  0  0  0
 16 15  1  0  0  0  0
 16 17  1  0  0  0  0
 19 20  1  0  0  0  0
 20 24  2  0  0  0  0
 21 25  1  0  0  0  0
 22 24  1  0  0  0  0
 23 25  1  0  0  0  0
 23 19  2  0  0  0  0
 24 18  1  0  0  0  0
 25 22  2  0  0  0  0
 27 26  2  0  0  0  0
 27 28  1  0  0  0  0
 28 19  1  0  0  0  0
 29 27  1  0  0  0  0
 29 30  1  0  0  0  0
 32 36  1  1  0  0  0
 33 35  1  0  0  0  0
 34 30  1  6  0  0  0
 34 33  1  0  0  0  0
 34 32  1  0  0  0  0
 35 36  1  0  0  0  0
 35 31  1  0  0  0  0
 37 35  1  0  0  0  0
 38 45  1  6  0  0  0
 38 39  1  0  0  0  0
 38 46  1  0  0  0  0
 40 44  1  1  0  0  0
 40 42  1  0  0  0  0
 40 32  1  0  0  0  0
 42 39  1  6  0  0  0
 43 44  1  0  0  0  0
 43 46  1  0  0  0  0
 46 42  1  0  0  0  0
 46 41  1  1  0  0  0
 47 48  1  0  0  0  0
 48 56  1  0  0  0  0
 49 61  1  6  0  0  0
 50 55  1  0  0  0  0
 51 57  2  0  0  0  0
 52 60  1  0  0  0  0
 53 51  1  0  0  0  0
 54 55  1  6  0  0  0
 54 49  1  0  0  0  0
 56 52  1  0  0  0  0
 58 56  2  0  0  0  0
 59 57  1  1  0  0  0
 59 54  1  0  0  0  0
 59 49  1  0  0  0  0
 60 53  1  0  0  0  0
 60 50  2  0  0  0  0
 61 62  1  0  0  0  0
 62 64  1  0  0  0  0
 64 63  2  0  0  0  0
M  END
>  <MODEL>
5

>  <REMARK>
 VINA RESULT:      -5.8      2.229      2.963
  Name = 
  17 active torsions:
  status: ('A' for Active; 'I' for Inactive)
    1  A    between atoms: C_3  and  C_50
    2  A    between atoms: C_7  and  N_27
    3  A    between atoms: C_8  and  C_30
    4  A    between atoms: C_8  and  C_45
    5  A    between atoms: O_9  and  C_50
    6  A    between atoms: O_9  and  C_54
    7  A    between atoms: C_10  and  C_16
    8  A    between atoms: C_11  and  C_44
    9  A    between atoms: C_12  and  C_34
   10  A    between atoms: C_12  and  C_52
   11  A    between atoms: C_21  and  C_42
   12  A    between atoms: C_30  and  C_50
   13  A    between atoms: C_31  and  C_44
   14  A    between atoms: C_31  and  N_51
   15  A    between atoms: C_34  and  N_49
   16  A    between atoms: C_42  and  C_43
   17  A    between atoms: C_43  and  C_56
                            x       y       z     vdW  Elec       q    Type
                         _______ _______ _______ _____ _____    ______ ____

>  <TORSDO>
F 17

$$$$
=
 OpenBabel10222417073D

 64 70  0  0  1  0  0  0  0  0999 V2000
  187.7900  178.3720  140.5170 C   0  0  2  0  0  3  0  0  0  0  0  0
  190.0390  177.3330  140.0180 N   0  0  0  0  0  0  0  0  0  0  0  0
  188.9730  178.1960  139.6240 C   0  0  0  0  0  0  0  0  0  0  0  0
  190.9560  177.8060  141.0580 C   0  0  0  0  0  2  0  0  0  0  0  0
  192.3250  177.1310  140.9180 C   0  0  0  0  0  2  0  0  0  0  0  0
  190.4980  176.3190  139.0800 C   0  0  0  0  0  2  0  0  0  0  0  0
  191.8500  176.7730  138.5180 C   0  0  1  0  0  3  0  0  0  0  0  0
  192.8230  177.2330  139.5330 N   0  0  0  0  0  2  0  0  0  0  0  0
  189.0100  178.7730  138.5050 O   0  0  0  0  0  0  0  0  0  0  0  0
  192.4410  175.7800  137.5560 C   0  0  0  0  0  0  0  0  0  0  0  0
  193.5210  175.2860  137.8530 O   0  0  0  0  0  0  0  0  0  0  0  0
  191.4130  174.0490  136.3050 O   0  0  0  0  0  1  0  0  0  0  0  0
  192.7340  175.5970  135.0870 C   0  0  0  0  0  1  0  0  0  0  0  0
  191.7520  175.4060  136.2470 C   0  0  2  0  0  0  0  0  0  0  0  0
  190.4550  176.8140  134.7260 C   0  0  0  0  0  1  0  0  0  0  0  0
  190.5160  176.2060  136.0550 N   0  0  0  0  0  0  0  0  0  0  0  0
  189.3320  175.3580  136.1760 C   0  0  0  0  0  1  0  0  0  0  0  0
  188.0950  177.7910  141.7850 O   0  0  0  0  0  0  0  0  0  0  0  0
  185.2550  178.4200  144.0690 C   0  0  0  0  0  0  0  0  0  0  0  0
  186.0130  178.2520  142.9110 C   0  0  0  0  0  3  0  0  0  0  0  0
  187.8400  177.6500  146.7260 C   0  0  0  0  0  1  0  0  0  0  0  0
  187.9470  177.6920  144.2370 C   0  0  0  0  0  3  0  0  0  0  0  0
  185.8530  178.2240  145.3220 C   0  0  0  0  0  3  0  0  0  0  0  0
  187.3640  177.8920  142.9800 C   0  0  0  0  0  0  0  0  0  0  0  0
  187.1980  177.8590  145.4020 C   0  0  0  0  0  0  0  0  0  0  0  0
  183.5740  178.0960  141.6900 O   0  0  0  0  0  0  0  0  0  0  0  0
  183.0910  178.6100  142.7390 C   0  0  0  0  0  0  0  0  0  0  0  0
  183.8620  178.6940  143.9400 N   0  0  0  0  0  2  0  0  0  0  0  0
  181.6580  178.9990  142.7710 C   0  0  0  0  0  2  0  0  0  0  0  0
  180.9440  178.4090  141.5710 C   0  0  0  0  0  2  0  0  0  0  0  0
  181.4010  181.4920  137.8990 C   0  0  0  0  0  1  0  0  0  0  0  0
  179.2810  179.0900  139.6950 C   0  0  1  0  0  3  0  0  0  0  0  0
  181.5250  180.0460  139.8540 N   0  0  0  0  0  2  0  0  0  0  0  0
  180.4250  179.5010  140.6440 C   0  0  2  0  0  3  0  0  0  0  0  0
  181.0700  180.1330  138.4730 C   0  0  0  0  0  0  0  0  0  0  0  0
  179.5720  179.9220  138.4630 C   0  0  0  0  0  2  0  0  0  0  0  0
  181.7530  179.0570  137.6560 C   0  0  0  0  0  1  0  0  0  0  0  0
  180.1210  174.7670  140.0840 C   0  0  1  0  0  3  0  0  0  0  0  0
  179.6660  175.8210  140.9010 O   0  0  0  0  0  0  0  0  0  0  0  0
  179.2490  177.5920  139.3230 C   0  0  2  0  0  3  0  0  0  0  0  0
  182.3060  175.6200  139.1090 C   0  0  0  0  0  1  0  0  0  0  0  0
  180.2970  176.7770  140.0760 C   0  0  2  0  0  3  0  0  0  0  0  0
  180.1560  175.9730  137.7610 C   0  0  0  0  0  2  0  0  0  0  0  0
  179.5510  177.3590  137.8500 C   0  0  0  0  0  2  0  0  0  0  0  0
  178.9310  174.0210  139.4930 C   0  0  0  0  0  1  0  0  0  0  0  0
  180.7940  175.7270  139.1230 C   0  0  2  0  0  0  0  0  0  0  0  0
  186.5360  177.8120  139.8590 C   0  0  0  0  0  2  0  0  0  0  0  0
  186.2690  178.6200  138.5950 C   0  0  0  0  0  2  0  0  0  0  0  0
  182.4730  172.7950  135.0540 C   0  0  2  0  0  3  0  0  0  0  0  0
  185.2900  174.1940  136.8800 N   0  0  0  0  0  0  0  0  0  0  0  0
  183.5330  176.1790  134.8430 C   0  0  0  0  0  3  0  0  0  0  0  0
  185.6010  176.4140  137.5940 N   0  0  0  0  0  2  0  0  0  0  0  0
  185.0090  175.9420  135.1540 C   0  0  0  0  0  2  0  0  0  0  0  0
  183.9020  173.3320  134.9770 C   0  0  2  0  0  3  0  0  0  0  0  0
  184.9970  173.0350  136.0100 C   0  0  0  0  0  2  0  0  0  0  0  0
  186.0680  177.7550  137.3940 C   0  0  0  0  0  0  0  0  0  0  0  0
  182.5930  175.3040  135.0480 N   0  0  0  0  0  0  0  0  0  0  0  0
  186.3970  178.1650  136.2430 O   0  0  0  0  0  0  0  0  0  0  0  0
  182.8330  174.0770  135.7590 C   0  0  1  0  0  3  0  0  0  0  0  0
  185.3080  175.4660  136.5600 C   0  0  0  0  0  0  0  0  0  0  0  0
  182.3770  171.6600  136.0570 C   0  0  0  0  0  2  0  0  0  0  0  0
  181.5720  172.1070  137.2720 C   0  0  0  0  0  2  0  0  0  0  0  0
  179.7820  170.9110  136.4680 O   0  0  0  0  0  0  0  0  0  0  0  0
  180.1650  171.8870  137.0450 N   0  0  0  0  0  0  0  0  0  0  0  0
  1 47  1  6  0  0  0
  1 18  1  0  0  0  0
  2  4  1  0  0  0  0
  3  2  1  0  0  0  0
  3  1  1  0  0  0  0
  5  4  1  0  0  0  0
  6  2  1  0  0  0  0
  7 10  1  1  0  0  0
  7  6  1  0  0  0  0
  7  8  1  0  0  0  0
  8  5  1  0  0  0  0
  9  3  2  0  0  0  0
 10 11  2  0  0  0  0
 14 13  1  6  0  0  0
 14 12  1  0  0  0  0
 14 10  1  0  0  0  0
 15 16  1  0  0  0  0
 16 17  1  0  0  0  0
 16 14  1  0  0  0  0
 18 24  1  0  0  0  0
 19 23  1  0  0  0  0
 20 24  1  0  0  0  0
 20 19  2  0  0  0  0
 22 25  1  0  0  0  0
 23 25  2  0  0  0  0
 24 22  2  0  0  0  0
 25 21  1  0  0  0  0
 26 27  2  0  0  0  0
 27 29  1  0  0  0  0
 27 28  1  0  0  0  0
 28 19  1  0  0  0  0
 30 29  1  0  0  0  0
 31 35  1  0  0  0  0
 32 36  1  6  0  0  0
 32 34  1  0  0  0  0
 33 34  1  0  0  0  0
 34 30  1  6  0  0  0
 35 33  1  0  0  0  0
 36 35  1  0  0  0  0
 37 35  1  0  0  0  0
 38 45  1  6  0  0  0
 38 39  1  0  0  0  0
 40 44  1  6  0  0  0
 40 32  1  0  0  0  0
 40 42  1  0  0  0  0
 42 39  1  1  0  0  0
 43 44  1  0  0  0  0
 43 46  1  0  0  0  0
 46 41  1  6  0  0  0
 46 42  1  0  0  0  0
 46 38  1  0  0  0  0
 48 47  1  0  0  0  0
 49 59  1  0  0  0  0
 49 61  1  1  0  0  0
 51 57  2  0  0  0  0
 51 53  1  0  0  0  0
 53 60  1  0  0  0  0
 54 49  1  0  0  0  0
 54 59  1  0  0  0  0
 54 55  1  1  0  0  0
 55 50  1  0  0  0  0
 56 52  1  0  0  0  0
 56 48  1  0  0  0  0
 58 56  2  0  0  0  0
 59 57  1  6  0  0  0
 60 50  2  0  0  0  0
 60 52  1  0  0  0  0
 61 62  1  0  0  0  0
 63 64  2  0  0  0  0
 64 62  1  0  0  0  0
M  END
>  <MODEL>
6

>  <REMARK>
 VINA RESULT:      -5.8      2.721      7.737
  Name = 
  17 active torsions:
  status: ('A' for Active; 'I' for Inactive)
    1  A    between atoms: C_3  and  C_50
    2  A    between atoms: C_7  and  N_27
    3  A    between atoms: C_8  and  C_30
    4  A    between atoms: C_8  and  C_45
    5  A    between atoms: O_9  and  C_50
    6  A    between atoms: O_9  and  C_54
    7  A    between atoms: C_10  and  C_16
    8  A    between atoms: C_11  and  C_44
    9  A    between atoms: C_12  and  C_34
   10  A    between atoms: C_12  and  C_52
   11  A    between atoms: C_21  and  C_42
   12  A    between atoms: C_30  and  C_50
   13  A    between atoms: C_31  and  C_44
   14  A    between atoms: C_31  and  N_51
   15  A    between atoms: C_34  and  N_49
   16  A    between atoms: C_42  and  C_43
   17  A    between atoms: C_43  and  C_56
                            x       y       z     vdW  Elec       q    Type
                         _______ _______ _______ _____ _____    ______ ____

>  <TORSDO>
F 17

$$$$
=
 OpenBabel10222417073D

 64 70  0  0  1  0  0  0  0  0999 V2000
  186.5480  176.3380  136.2510 C   0  0  2  0  0  3  0  0  0  0  0  0
  184.2770  175.3720  136.7980 N   0  0  0  0  0  0  0  0  0  0  0  0
  185.0590  176.3830  136.1630 C   0  0  0  0  0  0  0  0  0  0  0  0
  184.2250  174.0490  136.1710 C   0  0  0  0  0  2  0  0  0  0  0  0
  182.9280  173.3240  136.5490 C   0  0  0  0  0  2  0  0  0  0  0  0
  183.1900  175.7810  137.6760 C   0  0  0  0  0  2  0  0  0  0  0  0
  181.8690  175.5220  136.9440 C   0  0  1  0  0  3  0  0  0  0  0  0
  181.7550  174.1870  136.3170 N   0  0  0  0  0  2  0  0  0  0  0  0
  184.4910  177.3360  135.5660 O   0  0  0  0  0  0  0  0  0  0  0  0
  180.6670  175.8780  137.7730 C   0  0  0  0  0  0  0  0  0  0  0  0
  180.2060  175.0040  138.4960 O   0  0  0  0  0  0  0  0  0  0  0  0
  178.9610  177.2810  138.6340 O   0  0  0  0  0  1  0  0  0  0  0  0
  179.4310  177.4820  136.3180 C   0  0  0  0  0  1  0  0  0  0  0  0
  180.0170  177.2570  137.7160 C   0  0  2  0  0  0  0  0  0  0  0  0
  180.4060  179.6530  138.0140 C   0  0  0  0  0  1  0  0  0  0  0  0
  180.9950  178.3150  138.0750 N   0  0  0  0  0  0  0  0  0  0  0  0
  181.4660  178.1340  139.4460 C   0  0  0  0  0  1  0  0  0  0  0  0
  186.9890  177.4820  136.9830 O   0  0  0  0  0  0  0  0  0  0  0  0
  188.1050  177.6970  140.5010 C   0  0  0  0  0  0  0  0  0  0  0  0
  187.2940  177.6000  139.3710 C   0  0  0  0  0  3  0  0  0  0  0  0
  191.5420  177.6450  138.9150 C   0  0  0  0  0  1  0  0  0  0  0  0
  189.2450  177.5300  137.9560 C   0  0  0  0  0  3  0  0  0  0  0  0
  189.4990  177.7130  140.3540 C   0  0  0  0  0  3  0  0  0  0  0  0
  187.8520  177.5210  138.0890 C   0  0  0  0  0  0  0  0  0  0  0  0
  190.0650  177.6280  139.0800 C   0  0  0  0  0  0  0  0  0  0  0  0
  185.6450  179.0550  141.3330 O   0  0  0  0  0  0  0  0  0  0  0  0
  186.3380  178.4280  142.1830 C   0  0  0  0  0  0  0  0  0  0  0  0
  187.4900  177.6800  141.7870 N   0  0  0  0  0  2  0  0  0  0  0  0
  185.8690  178.3420  143.5900 C   0  0  0  0  0  2  0  0  0  0  0  0
  186.8200  177.4750  144.3910 C   0  0  0  0  0  2  0  0  0  0  0  0
  187.6450  178.3180  149.0610 C   0  0  0  0  0  1  0  0  0  0  0  0
  188.9840  178.1810  145.6440 C   0  0  1  0  0  3  0  0  0  0  0  0
  186.8620  177.8330  146.8070 N   0  0  0  0  0  2  0  0  0  0  0  0
  187.4470  178.2580  145.5390 C   0  0  2  0  0  3  0  0  0  0  0  0
  187.9560  177.6360  147.7480 C   0  0  0  0  0  0  0  0  0  0  0  0
  189.2050  178.2360  147.1410 C   0  0  0  0  0  2  0  0  0  0  0  0
  188.1510  176.1530  147.9800 C   0  0  0  0  0  1  0  0  0  0  0  0
  192.1950  175.4300  144.3550 C   0  0  1  0  0  3  0  0  0  0  0  0
  191.8910  176.2300  145.4740 O   0  0  0  0  0  0  0  0  0  0  0  0
  189.6140  176.8970  145.0650 C   0  0  2  0  0  3  0  0  0  0  0  0
  192.0800  177.0290  142.3850 C   0  0  0  0  0  1  0  0  0  0  0  0
  191.0820  177.0790  144.6890 C   0  0  2  0  0  3  0  0  0  0  0  0
  189.9780  175.6950  142.9890 C   0  0  0  0  0  2  0  0  0  0  0  0
  188.9310  176.4520  143.7790 C   0  0  0  0  0  2  0  0  0  0  0  0
  191.6920  174.0100  144.5820 C   0  0  0  0  0  1  0  0  0  0  0  0
  191.3150  176.2670  143.4470 C   0  0  2  0  0  0  0  0  0  0  0  0
  187.1620  176.2090  134.8640 C   0  0  0  0  0  2  0  0  0  0  0  0
  188.2060  175.1000  134.9150 C   0  0  0  0  0  2  0  0  0  0  0  0
  195.6700  173.6840  136.6950 C   0  0  2  0  0  3  0  0  0  0  0  0
  192.2250  174.4740  137.5510 N   0  0  0  0  0  0  0  0  0  0  0  0
  193.4290  175.4730  134.5970 C   0  0  0  0  0  3  0  0  0  0  0  0
  190.4010  174.7840  136.0980 N   0  0  0  0  0  2  0  0  0  0  0  0
  192.5670  176.0790  135.7020 C   0  0  0  0  0  2  0  0  0  0  0  0
  194.6720  174.7720  137.0920 C   0  0  2  0  0  3  0  0  0  0  0  0
  193.5720  174.5970  138.1470 C   0  0  0  0  0  2  0  0  0  0  0  0
  189.5640  175.6080  135.2750 C   0  0  0  0  0  0  0  0  0  0  0  0
  194.2650  174.4920  134.7760 N   0  0  0  0  0  0  0  0  0  0  0  0
  189.9230  176.7750  134.9420 O   0  0  0  0  0  0  0  0  0  0  0  0
  194.3280  173.7590  136.0120 C   0  0  1  0  0  3  0  0  0  0  0  0
  191.7420  175.0890  136.4980 C   0  0  0  0  0  0  0  0  0  0  0  0
  195.6720  172.5580  137.7120 C   0  0  0  0  0  2  0  0  0  0  0  0
  196.4680  171.3740  137.1750 C   0  0  0  0  0  2  0  0  0  0  0  0
  195.1310  170.0660  138.5110 O   0  0  0  0  0  0  0  0  0  0  0  0
  196.1790  170.1900  137.9460 N   0  0  0  0  0  0  0  0  0  0  0  0
  1 47  1  6  0  0  0
  1 18  1  0  0  0  0
  2  6  1  0  0  0  0
  3  1  1  0  0  0  0
  3  2  1  0  0  0  0
  4  5  1  0  0  0  0
  4  2  1  0  0  0  0
  7  6  1  0  0  0  0
  7 10  1  1  0  0  0
  8  5  1  0  0  0  0
  8  7  1  0  0  0  0
  9  3  2  0  0  0  0
 10 11  2  0  0  0  0
 14 13  1  6  0  0  0
 14 10  1  0  0  0  0
 14 16  1  0  0  0  0
 14 12  1  0  0  0  0
 15 16  1  0  0  0  0
 16 17  1  0  0  0  0
 18 24  1  0  0  0  0
 19 28  1  0  0  0  0
 20 19  2  0  0  0  0
 21 25  1  0  0  0  0
 22 24  2  0  0  0  0
 22 25  1  0  0  0  0
 23 19  1  0  0  0  0
 24 20  1  0  0  0  0
 25 23  2  0  0  0  0
 26 27  2  0  0  0  0
 27 29  1  0  0  0  0
 28 27  1  0  0  0  0
 29 30  1  0  0  0  0
 32 36  1  1  0  0  0
 33 35  1  0  0  0  0
 34 30  1  6  0  0  0
 34 32  1  0  0  0  0
 34 33  1  0  0  0  0
 35 37  1  0  0  0  0
 35 31  1  0  0  0  0
 36 35  1  0  0  0  0
 38 45  1  1  0  0  0
 38 39  1  0  0  0  0
 40 44  1  6  0  0  0
 40 32  1  0  0  0  0
 42 40  1  0  0  0  0
 42 39  1  1  0  0  0
 43 46  1  0  0  0  0
 43 44  1  0  0  0  0
 46 41  1  6  0  0  0
 46 38  1  0  0  0  0
 46 42  1  0  0  0  0
 47 48  1  0  0  0  0
 48 56  1  0  0  0  0
 49 54  1  0  0  0  0
 49 61  1  1  0  0  0
 50 55  1  0  0  0  0
 51 57  2  0  0  0  0
 51 53  1  0  0  0  0
 52 60  1  0  0  0  0
 53 60  1  0  0  0  0
 54 55  1  1  0  0  0
 56 52  1  0  0  0  0
 58 56  2  0  0  0  0
 59 57  1  6  0  0  0
 59 49  1  0  0  0  0
 59 54  1  0  0  0  0
 60 50  2  0  0  0  0
 62 61  1  0  0  0  0
 62 64  1  0  0  0  0
 64 63  2  0  0  0  0
M  END
>  <MODEL>
7

>  <REMARK>
 VINA RESULT:      -5.6      2.402     10.427
  Name = 
  17 active torsions:
  status: ('A' for Active; 'I' for Inactive)
    1  A    between atoms: C_3  and  C_50
    2  A    between atoms: C_7  and  N_27
    3  A    between atoms: C_8  and  C_30
    4  A    between atoms: C_8  and  C_45
    5  A    between atoms: O_9  and  C_50
    6  A    between atoms: O_9  and  C_54
    7  A    between atoms: C_10  and  C_16
    8  A    between atoms: C_11  and  C_44
    9  A    between atoms: C_12  and  C_34
   10  A    between atoms: C_12  and  C_52
   11  A    between atoms: C_21  and  C_42
   12  A    between atoms: C_30  and  C_50
   13  A    between atoms: C_31  and  C_44
   14  A    between atoms: C_31  and  N_51
   15  A    between atoms: C_34  and  N_49
   16  A    between atoms: C_42  and  C_43
   17  A    between atoms: C_43  and  C_56
                            x       y       z     vdW  Elec       q    Type
                         _______ _______ _______ _____ _____    ______ ____

>  <TORSDO>
F 17

$$$$
=
 OpenBabel10222417073D

 64 70  0  0  1  0  0  0  0  0999 V2000
  185.7660  177.7840  137.2700 C   0  0  2  0  0  3  0  0  0  0  0  0
  184.9840  175.3840  137.1490 N   0  0  0  0  0  0  0  0  0  0  0  0
  184.8800  176.7310  136.6920 C   0  0  0  0  0  0  0  0  0  0  0  0
  186.1330  174.5930  136.7010 C   0  0  0  0  0  2  0  0  0  0  0  0
  185.7970  173.0970  136.7150 C   0  0  0  0  0  2  0  0  0  0  0  0
  183.7710  174.6930  137.5660 C   0  0  0  0  0  2  0  0  0  0  0  0
  183.4070  173.6800  136.4760 C   0  0  1  0  0  3  0  0  0  0  0  0
  184.5280  172.8360  136.0090 N   0  0  0  0  0  2  0  0  0  0  0  0
  184.0110  177.0390  135.8330 O   0  0  0  0  0  0  0  0  0  0  0  0
  182.1810  172.8790  136.8150 C   0  0  0  0  0  0  0  0  0  0  0  0
  182.3520  171.7410  137.2320 O   0  0  0  0  0  0  0  0  0  0  0  0
  180.1230  173.3930  137.8750 O   0  0  0  0  0  1  0  0  0  0  0  0
  179.9930  172.5320  135.6690 C   0  0  0  0  0  1  0  0  0  0  0  0
  180.7700  173.4330  136.6340 C   0  0  2  0  0  0  0  0  0  0  0  0
  180.1870  174.9910  134.8420 C   0  0  0  0  0  1  0  0  0  0  0  0
  180.8140  174.8380  136.1550 N   0  0  0  0  0  0  0  0  0  0  0  0
  180.0810  175.7130  137.0670 C   0  0  0  0  0  1  0  0  0  0  0  0
  184.9900  178.5800  138.1670 O   0  0  0  0  0  0  0  0  0  0  0  0
  186.2700  178.1690  141.6110 C   0  0  0  0  0  0  0  0  0  0  0  0
  186.2070  178.2480  140.2200 C   0  0  0  0  0  3  0  0  0  0  0  0
  182.6940  179.0080  142.5300 C   0  0  0  0  0  1  0  0  0  0  0  0
  183.8690  178.8220  140.3400 C   0  0  0  0  0  3  0  0  0  0  0  0
  185.1180  178.4160  142.3710 C   0  0  0  0  0  3  0  0  0  0  0  0
  185.0100  178.5700  139.5700 C   0  0  0  0  0  0  0  0  0  0  0  0
  183.9200  178.7440  141.7320 C   0  0  0  0  0  0  0  0  0  0  0  0
  188.9140  178.9990  140.6590 O   0  0  0  0  0  0  0  0  0  0  0  0
  188.8130  178.2720  141.6880 C   0  0  0  0  0  0  0  0  0  0  0  0
  187.5330  177.9310  142.2260 N   0  0  0  0  0  2  0  0  0  0  0  0
  190.0380  177.8870  142.4350 C   0  0  0  0  0  2  0  0  0  0  0  0
  189.8940  178.2900  143.8900 C   0  0  0  0  0  2  0  0  0  0  0  0
  191.8770  175.9960  147.6320 C   0  0  0  0  0  1  0  0  0  0  0  0
  188.8430  176.7600  145.7090 C   0  0  1  0  0  3  0  0  0  0  0  0
  191.2330  177.2680  145.6590 N   0  0  0  0  0  2  0  0  0  0  0  0
  190.0560  177.0890  144.8150 C   0  0  2  0  0  3  0  0  0  0  0  0
  190.8510  176.9230  147.0210 C   0  0  0  0  0  0  0  0  0  0  0  0
  189.5050  176.2360  146.9650 C   0  0  0  0  0  2  0  0  0  0  0  0
  190.7560  178.1890  147.8460 C   0  0  0  0  0  1  0  0  0  0  0  0
  186.1870  179.3060  148.1590 C   0  0  1  0  0  3  0  0  0  0  0  0
  187.4180  178.6370  148.3040 O   0  0  0  0  0  0  0  0  0  0  0  0
  187.9400  177.9650  146.0520 C   0  0  2  0  0  3  0  0  0  0  0  0
  184.5760  177.5050  147.3760 C   0  0  0  0  0  1  0  0  0  0  0  0
  187.0770  177.7200  147.2870 C   0  0  2  0  0  3  0  0  0  0  0  0
  185.7590  178.9290  145.6050 C   0  0  0  0  0  2  0  0  0  0  0  0
  186.9530  178.2780  144.9370 C   0  0  0  0  0  2  0  0  0  0  0  0
  186.4290  180.7500  147.7380 C   0  0  0  0  0  1  0  0  0  0  0  0
  185.7570  178.3900  147.0310 C   0  0  2  0  0  0  0  0  0  0  0  0
  186.4480  178.5750  136.1630 C   0  0  0  0  0  2  0  0  0  0  0  0
  187.9440  178.5900  136.4500 C   0  0  0  0  0  2  0  0  0  0  0  0
  193.5300  173.1530  136.8220 C   0  0  2  0  0  3  0  0  0  0  0  0
  192.1670  176.3330  135.6990 N   0  0  0  0  0  0  0  0  0  0  0  0
  190.0740  173.7970  136.3030 C   0  0  0  0  0  3  0  0  0  0  0  0
  190.0440  177.2430  136.1440 N   0  0  0  0  0  2  0  0  0  0  0  0
  190.2340  174.8670  135.2250 C   0  0  0  0  0  2  0  0  0  0  0  0
  192.8760  173.9280  135.6770 C   0  0  2  0  0  3  0  0  0  0  0  0
  193.2210  175.3750  135.3000 C   0  0  0  0  0  2  0  0  0  0  0  0
  188.6570  177.4290  135.8350 C   0  0  0  0  0  0  0  0  0  0  0  0
  191.0400  173.3810  137.0690 N   0  0  0  0  0  0  0  0  0  0  0  0
  188.0720  176.6910  134.9890 O   0  0  0  0  0  0  0  0  0  0  0  0
  192.3280  174.0220  137.0910 C   0  0  1  0  0  3  0  0  0  0  0  0
  190.8670  176.1630  135.6850 C   0  0  0  0  0  0  0  0  0  0  0  0
  194.7910  173.8520  137.2940 C   0  0  0  0  0  2  0  0  0  0  0  0
  194.4470  174.8750  138.3700 C   0  0  0  0  0  2  0  0  0  0  0  0
  196.3570  174.1030  139.3900 O   0  0  0  0  0  0  0  0  0  0  0  0
  195.5050  174.9430  139.3480 N   0  0  0  0  0  0  0  0  0  0  0  0
  1 47  1  6  0  0  0
  1 18  1  0  0  0  0
  2  6  1  0  0  0  0
  3  2  1  0  0  0  0
  3  1  1  0  0  0  0
  4  5  1  0  0  0  0
  4  2  1  0  0  0  0
  7 10  1  1  0  0  0
  7  6  1  0  0  0  0
  8  7  1  0  0  0  0
  8  5  1  0  0  0  0
  9  3  2  0  0  0  0
 10 11  2  0  0  0  0
 14 13  1  6  0  0  0
 14 10  1  0  0  0  0
 14 12  1  0  0  0  0
 15 16  1  0  0  0  0
 16 14  1  0  0  0  0
 16 17  1  0  0  0  0
 18 24  1  0  0  0  0
 19 28  1  0  0  0  0
 19 23  1  0  0  0  0
 20 19  2  0  0  0  0
 22 25  1  0  0  0  0
 24 20  1  0  0  0  0
 24 22  2  0  0  0  0
 25 23  2  0  0  0  0
 25 21  1  0  0  0  0
 26 27  2  0  0  0  0
 27 28  1  0  0  0  0
 27 29  1  0  0  0  0
 29 30  1  0  0  0  0
 32 40  1  0  0  0  0
 32 36  1  1  0  0  0
 33 35  1  0  0  0  0
 34 30  1  1  0  0  0
 34 33  1  0  0  0  0
 34 32  1  0  0  0  0
 35 31  1  0  0  0  0
 35 37  1  0  0  0  0
 36 35  1  0  0  0  0
 38 45  1  6  0  0  0
 38 39  1  0  0  0  0
 40 44  1  6  0  0  0
 40 42  1  0  0  0  0
 42 39  1  1  0  0  0
 43 46  1  0  0  0  0
 44 43  1  0  0  0  0
 46 42  1  0  0  0  0
 46 41  1  1  0  0  0
 46 38  1  0  0  0  0
 47 48  1  0  0  0  0
 49 59  1  0  0  0  0
 49 61  1  1  0  0  0
 51 57  2  0  0  0  0
 53 60  1  0  0  0  0
 53 51  1  0  0  0  0
 54 55  1  1  0  0  0
 54 49  1  0  0  0  0
 54 59  1  0  0  0  0
 55 50  1  0  0  0  0
 56 52  1  0  0  0  0
 56 48  1  0  0  0  0
 58 56  2  0  0  0  0
 59 57  1  6  0  0  0
 60 50  2  0  0  0  0
 60 52  1  0  0  0  0
 61 62  1  0  0  0  0
 62 64  1  0  0  0  0
 64 63  2  0  0  0  0
M  END
>  <MODEL>
8

>  <REMARK>
 VINA RESULT:      -5.5      2.358      9.691
  Name = 
  17 active torsions:
  status: ('A' for Active; 'I' for Inactive)
    1  A    between atoms: C_3  and  C_50
    2  A    between atoms: C_7  and  N_27
    3  A    between atoms: C_8  and  C_30
    4  A    between atoms: C_8  and  C_45
    5  A    between atoms: O_9  and  C_50
    6  A    between atoms: O_9  and  C_54
    7  A    between atoms: C_10  and  C_16
    8  A    between atoms: C_11  and  C_44
    9  A    between atoms: C_12  and  C_34
   10  A    between atoms: C_12  and  C_52
   11  A    between atoms: C_21  and  C_42
   12  A    between atoms: C_30  and  C_50
   13  A    between atoms: C_31  and  C_44
   14  A    between atoms: C_31  and  N_51
   15  A    between atoms: C_34  and  N_49
   16  A    between atoms: C_42  and  C_43
   17  A    between atoms: C_43  and  C_56
                            x       y       z     vdW  Elec       q    Type
                         _______ _______ _______ _____ _____    ______ ____

>  <TORSDO>
F 17

$$$$
=
 OpenBabel10222417073D

 64 70  0  0  1  0  0  0  0  0999 V2000
  187.3950  178.5240  141.5210 C   0  0  2  0  0  3  0  0  0  0  0  0
  189.7610  177.7290  141.1290 N   0  0  0  0  0  0  0  0  0  0  0  0
  188.6370  178.4920  140.6940 C   0  0  0  0  0  0  0  0  0  0  0  0
  190.5680  178.2600  142.2310 C   0  0  0  0  0  2  0  0  0  0  0  0
  192.0030  177.7280  142.1540 C   0  0  0  0  0  2  0  0  0  0  0  0
  190.3710  176.7930  140.1950 C   0  0  0  0  0  2  0  0  0  0  0  0
  191.7000  177.3950  139.7240 C   0  0  1  0  0  3  0  0  0  0  0  0
  192.5640  177.9190  140.8030 N   0  0  0  0  0  2  0  0  0  0  0  0
  188.6780  179.1030  139.5940 O   0  0  0  0  0  0  0  0  0  0  0  0
  192.4400  176.4940  138.7740 C   0  0  0  0  0  0  0  0  0  0  0  0
  193.5420  176.0930  139.1260 O   0  0  0  0  0  0  0  0  0  0  0  0
  192.8710  176.2870  136.4520 O   0  0  0  0  0  1  0  0  0  0  0  0
  190.7050  177.0330  137.0650 C   0  0  0  0  0  1  0  0  0  0  0  0
  191.8710  176.1020  137.4140 C   0  0  2  0  0  0  0  0  0  0  0  0
  190.0630  174.5130  136.9810 C   0  0  0  0  0  1  0  0  0  0  0  0
  191.4520  174.6770  137.4090 N   0  0  0  0  0  0  0  0  0  0  0  0
  192.2660  173.9070  136.4720 C   0  0  0  0  0  1  0  0  0  0  0  0
  187.6980  177.9820  142.8070 O   0  0  0  0  0  0  0  0  0  0  0  0
  184.7550  178.4730  144.9910 C   0  0  0  0  0  0  0  0  0  0  0  0
  185.5600  178.3460  143.8600 C   0  0  0  0  0  3  0  0  0  0  0  0
  187.2740  177.7930  147.7340 C   0  0  0  0  0  1  0  0  0  0  0  0
  187.4680  177.8580  145.2500 C   0  0  0  0  0  3  0  0  0  0  0  0
  185.3160  178.2930  146.2640 C   0  0  0  0  0  3  0  0  0  0  0  0
  186.9220  178.0430  143.9750 C   0  0  0  0  0  0  0  0  0  0  0  0
  186.6720  177.9850  146.3890 C   0  0  0  0  0  0  0  0  0  0  0  0
  183.2430  178.4800  142.4810 O   0  0  0  0  0  0  0  0  0  0  0  0
  182.6660  178.7760  143.5660 C   0  0  0  0  0  0  0  0  0  0  0  0
  183.3570  178.6890  144.8140 N   0  0  0  0  0  2  0  0  0  0  0  0
  181.2110  179.0740  143.5640 C   0  0  0  0  0  2  0  0  0  0  0  0
  180.5760  178.5030  142.3110 C   0  0  0  0  0  2  0  0  0  0  0  0
  180.9940  181.7370  138.7670 C   0  0  0  0  0  1  0  0  0  0  0  0
  178.9310  179.1890  140.4200 C   0  0  1  0  0  3  0  0  0  0  0  0
  181.1310  180.2250  140.6700 N   0  0  0  0  0  2  0  0  0  0  0  0
  180.0360  179.6080  141.4120 C   0  0  2  0  0  3  0  0  0  0  0  0
  180.7050  180.3460  139.2820 C   0  0  0  0  0  0  0  0  0  0  0  0
  179.2180  180.0770  139.2280 C   0  0  0  0  0  2  0  0  0  0  0  0
  181.4490  179.3290  138.4430 C   0  0  0  0  0  1  0  0  0  0  0  0
  180.1220  174.9330  140.5400 C   0  0  1  0  0  3  0  0  0  0  0  0
  179.6850  175.9210  141.4440 O   0  0  0  0  0  0  0  0  0  0  0  0
  178.9670  177.7060  139.9940 C   0  0  2  0  0  3  0  0  0  0  0  0
  182.1170  175.9820  139.3710 C   0  0  0  0  0  1  0  0  0  0  0  0
  180.1490  176.9490  140.5950 C   0  0  2  0  0  3  0  0  0  0  0  0
  179.8120  176.2130  138.2780 C   0  0  0  0  0  2  0  0  0  0  0  0
  179.1220  177.5440  138.4880 C   0  0  0  0  0  2  0  0  0  0  0  0
  178.9310  174.1170  140.0510 C   0  0  0  0  0  1  0  0  0  0  0  0
  180.6130  175.9730  139.5520 C   0  0  2  0  0  0  0  0  0  0  0  0
  186.2550  177.8200  140.7990 C   0  0  0  0  0  2  0  0  0  0  0  0
  185.4430  178.8770  140.0600 C   0  0  0  0  0  2  0  0  0  0  0  0
  184.6560  173.3380  134.6210 C   0  0  2  0  0  3  0  0  0  0  0  0
  186.4980  175.9660  136.3320 N   0  0  0  0  0  0  0  0  0  0  0  0
  183.1630  176.1470  136.2040 C   0  0  0  0  0  3  0  0  0  0  0  0
  185.7820  177.3150  138.1210 N   0  0  0  0  0  2  0  0  0  0  0  0
  184.3310  177.1150  136.0280 C   0  0  0  0  0  2  0  0  0  0  0  0
  185.1220  174.7940  134.5940 C   0  0  2  0  0  3  0  0  0  0  0  0
  186.5150  175.2670  135.0290 C   0  0  0  0  0  2  0  0  0  0  0  0
  185.1520  178.4910  138.6470 C   0  0  0  0  0  0  0  0  0  0  0  0
  183.2500  174.8590  136.0430 N   0  0  0  0  0  0  0  0  0  0  0  0
  184.4470  179.2380  137.9080 O   0  0  0  0  0  0  0  0  0  0  0  0
  184.5130  174.1970  135.8510 C   0  0  1  0  0  3  0  0  0  0  0  0
  185.5820  176.7720  136.8100 C   0  0  0  0  0  0  0  0  0  0  0  0
  185.8360  172.3980  134.7790 C   0  0  0  0  0  2  0  0  0  0  0  0
  185.8020  171.7480  136.1570 C   0  0  0  0  0  2  0  0  0  0  0  0
  186.9920  172.1330  138.0850 O   0  0  0  0  0  0  0  0  0  0  0  0
  187.0010  172.0720  136.8900 N   0  0  0  0  0  0  0  0  0  0  0  0
  1 47  1  6  0  0  0
  1 18  1  0  0  0  0
  2  4  1  0  0  0  0
  3  2  1  0  0  0  0
  3  1  1  0  0  0  0
  5  4  1  0  0  0  0
  6  2  1  0  0  0  0
  7 10  1  1  0  0  0
  7  6  1  0  0  0  0
  7  8  1  0  0  0  0
  8  5  1  0  0  0  0
  9  3  2  0  0  0  0
 10 11  2  0  0  0  0
 12 14  1  0  0  0  0
 14 13  1  6  0  0  0
 14 10  1  0  0  0  0
 15 16  1  0  0  0  0
 16 14  1  0  0  0  0
 17 16  1  0  0  0  0
 18 24  1  0  0  0  0
 19 23  1  0  0  0  0
 20 24  1  0  0  0  0
 20 19  2  0  0  0  0
 22 25  1  0  0  0  0
 23 25  2  0  0  0  0
 24 22  2  0  0  0  0
 25 21  1  0  0  0  0
 26 27  2  0  0  0  0
 27 28  1  0  0  0  0
 28 19  1  0  0  0  0
 29 27  1  0  0  0  0
 30 29  1  0  0  0  0
 31 35  1  0  0  0  0
 32 36  1  6  0  0  0
 32 34  1  0  0  0  0
 33 34  1  0  0  0  0
 34 30  1  6  0  0  0
 35 33  1  0  0  0  0
 36 35  1  0  0  0  0
 37 35  1  0  0  0  0
 38 45  1  6  0  0  0
 38 39  1  0  0  0  0
 40 44  1  6  0  0  0
 40 32  1  0  0  0  0
 40 42  1  0  0  0  0
 42 39  1  1  0  0  0
 43 44  1  0  0  0  0
 43 46  1  0  0  0  0
 46 41  1  6  0  0  0
 46 38  1  0  0  0  0
 46 42  1  0  0  0  0
 48 47  1  0  0  0  0
 49 61  1  1  0  0  0
 49 59  1  0  0  0  0
 50 60  2  0  0  0  0
 52 56  1  0  0  0  0
 53 51  1  0  0  0  0
 53 60  1  0  0  0  0
 54 49  1  0  0  0  0
 54 55  1  1  0  0  0
 54 59  1  0  0  0  0
 55 50  1  0  0  0  0
 56 48  1  0  0  0  0
 57 51  2  0  0  0  0
 58 56  2  0  0  0  0
 59 57  1  6  0  0  0
 60 52  1  0  0  0  0
 61 62  1  0  0  0  0
 62 64  1  0  0  0  0
 64 63  2  0  0  0  0
M  END
>  <MODEL>
9

>  <REMARK>
 VINA RESULT:      -5.3      2.547      7.700
  Name = 
  17 active torsions:
  status: ('A' for Active; 'I' for Inactive)
    1  A    between atoms: C_3  and  C_50
    2  A    between atoms: C_7  and  N_27
    3  A    between atoms: C_8  and  C_30
    4  A    between atoms: C_8  and  C_45
    5  A    between atoms: O_9  and  C_50
    6  A    between atoms: O_9  and  C_54
    7  A    between atoms: C_10  and  C_16
    8  A    between atoms: C_11  and  C_44
    9  A    between atoms: C_12  and  C_34
   10  A    between atoms: C_12  and  C_52
   11  A    between atoms: C_21  and  C_42
   12  A    between atoms: C_30  and  C_50
   13  A    between atoms: C_31  and  C_44
   14  A    between atoms: C_31  and  N_51
   15  A    between atoms: C_34  and  N_49
   16  A    between atoms: C_42  and  C_43
   17  A    between atoms: C_43  and  C_56
                            x       y       z     vdW  Elec       q    Type
                         _______ _______ _______ _____ _____    ______ ____

>  <TORSDO>
F 17

$$$$
