=
 OpenBabel10222417443D

 52 53  0  0  1  0  0  0  0  0999 V2000
  188.6840  177.2490  141.4180 N   0  0  0  0  0  0  0  0  0  0  0  0
  188.5330  177.1020  143.8780 C   0  0  0  0  0  2  0  0  0  0  0  0
  189.2270  176.5620  142.6070 C   0  0  2  0  0  3  0  0  0  0  0  0
  191.1940  177.9430  143.4080 C   0  0  0  0  0  2  0  0  0  0  0  0
  191.7410  177.5040  145.6930 O   0  0  0  0  0  1  0  0  0  0  0  0
  190.7130  177.9550  144.8640 C   0  0  2  0  0  3  0  0  0  0  0  0
  189.4520  177.1080  145.1050 C   0  0  1  0  0  3  0  0  0  0  0  0
  190.7670  176.6640  142.6970 C   0  0  0  0  0  2  0  0  0  0  0  0
  188.7040  177.6490  146.3110 C   0  0  0  0  0  2  0  0  0  0  0  0
  187.2160  177.4050  146.1510 C   0  0  0  0  0  2  0  0  0  0  0  0
  186.4180  178.5580  146.7340 C   0  0  0  0  0  2  0  0  0  0  0  0
  185.0160  178.5850  146.1410 C   0  0  0  0  0  1  0  0  0  0  0  0
  188.1510  178.5740  141.7440 C   0  0  0  0  0  2  0  0  0  0  0  0
  186.7220  178.6840  141.2560 C   0  0  0  0  0  2  0  0  0  0  0  0
  185.7840  178.1530  142.3220 C   0  0  0  0  0  2  0  0  0  0  0  0
  184.6040  179.0990  142.4720 C   0  0  0  0  0  2  0  0  0  0  0  0
  183.5110  177.6690  140.9090 O   0  0  0  0  0  0  0  0  0  0  0  0
  183.3860  178.5210  141.8300 C   0  0  0  0  0  0  0  0  0  0  0  0
  182.0870  178.9420  142.2560 N   0  0  0  0  0  2  0  0  0  0  0  0
  180.8650  178.4230  141.6640 C   0  0  0  0  0  2  0  0  0  0  0  0
  179.8400  179.5380  141.5370 C   0  0  0  0  0  2  0  0  0  0  0  0
  180.8250  181.9560  138.7400 N   0  0  0  0  0  2  0  0  0  0  0  0
  180.4020  180.6650  140.8030 N   0  0  0  0  0  2  0  0  0  0  0  0
  179.3040  180.1830  138.7960 O   0  0  0  0  0  0  0  0  0  0  0  0
  180.1420  180.8970  139.4150 C   0  0  0  0  0  0  0  0  0  0  0  0
  180.6970  182.1830  137.3090 C   0  0  0  0  0  2  0  0  0  0  0  0
  180.8360  183.6660  137.0060 C   0  0  0  0  0  1  0  0  0  0  0  0
  189.7180  177.3820  140.3800 C   0  0  0  0  0  2  0  0  0  0  0  0
  189.1600  177.6660  138.9780 C   0  0  0  0  0  2  0  0  0  0  0  0
  188.3070  176.6140  138.5460 O   0  0  0  0  0  0  0  0  0  0  0  0
  187.7540  176.5750  137.2640 C   0  0  0  0  0  0  0  0  0  0  0  0
  187.3030  177.6250  136.7300 O   0  0  0  0  0  0  0  0  0  0  0  0
  187.6750  175.2670  136.5440 C   0  0  2  0  0  3  0  0  0  0  0  0
  187.0810  174.2590  137.3590 O   0  0  0  0  0  0  0  0  0  0  0  0
  184.0210  172.1940  137.2790 C   0  0  0  0  0  3  0  0  0  0  0  0
  184.1020  171.6250  136.0050 C   0  0  0  0  0  3  0  0  0  0  0  0
  186.1030  173.3760  136.8940 C   0  0  0  0  0  0  0  0  0  0  0  0
  185.1840  171.9240  135.1760 C   0  0  0  0  0  3  0  0  0  0  0  0
  185.0190  173.0660  137.7210 C   0  0  0  0  0  3  0  0  0  0  0  0
  186.1830  172.7950  135.6190 C   0  0  0  0  0  3  0  0  0  0  0  0
  189.0690  174.8410  136.1200 C   0  0  0  0  0  2  0  0  0  0  0  0
  189.6100  173.7150  136.9960 C   0  0  0  0  0  2  0  0  0  0  0  0
  192.0540  174.2360  137.4660 C   0  0  0  0  0  0  0  0  0  0  0  0
  193.4200  174.0200  137.1130 N   0  0  0  0  0  2  0  0  0  0  0  0
  191.0360  173.5140  136.7690 N   0  0  0  0  0  2  0  0  0  0  0  0
  191.7530  175.0510  138.3840 O   0  0  0  0  0  0  0  0  0  0  0  0
  194.5010  174.8450  137.6250 C   0  0  0  0  0  2  0  0  0  0  0  0
  195.2420  174.0890  138.6780 C   0  0  0  0  0  3  0  0  0  0  0  0
  196.5720  174.0050  138.7690 C   0  0  0  0  0  3  0  0  0  0  0  0
  197.5530  174.6600  137.8860 C   0  0  0  0  0  0  0  0  0  0  0  0
  197.7230  174.1520  136.5030 C   0  0  0  0  0  1  0  0  0  0  0  0
  198.2750  175.6120  138.2870 O   0  0  0  0  0  0  0  0  0  0  0  0
  1 13  1  0  0  0  0
  2  7  1  0  0  0  0
  3  1  1  6  0  0  0
  3  8  1  0  0  0  0
  3  2  1  0  0  0  0
  4  6  1  0  0  0  0
  6  7  1  0  0  0  0
  6  5  1  1  0  0  0
  7  9  1  1  0  0  0
  8  4  1  0  0  0  0
 10  9  1  0  0  0  0
 10 11  1  0  0  0  0
 12 11  1  0  0  0  0
 14 13  1  0  0  0  0
 14 15  1  0  0  0  0
 15 16  1  0  0  0  0
 17 18  2  0  0  0  0
 18 19  1  0  0  0  0
 18 16  1  0  0  0  0
 20 19  1  0  0  0  0
 21 20  1  0  0  0  0
 22 25  1  0  0  0  0
 23 21  1  0  0  0  0
 24 25  2  0  0  0  0
 25 23  1  0  0  0  0
 26 22  1  0  0  0  0
 27 26  1  0  0  0  0
 28  1  1  0  0  0  0
 29 28  1  0  0  0  0
 30 29  1  0  0  0  0
 31 30  1  0  0  0  0
 32 31  2  0  0  0  0
 33 41  1  1  0  0  0
 33 31  1  0  0  0  0
 33 34  1  0  0  0  0
 35 39  1  0  0  0  0
 36 35  2  0  0  0  0
 37 34  1  0  0  0  0
 37 39  2  0  0  0  0
 38 40  2  0  0  0  0
 38 36  1  0  0  0  0
 40 37  1  0  0  0  0
 41 42  1  0  0  0  0
 43 46  2  0  0  0  0
 44 43  1  0  0  0  0
 44 47  1  0  0  0  0
 45 42  1  0  0  0  0
 45 43  1  0  0  0  0
 47 48  1  0  0  0  0
 48 49  2  0  0  0  0
 50 52  2  0  0  0  0
 50 49  1  0  0  0  0
 51 50  1  0  0  0  0
M  END
>  <MODEL>
1

>  <REMARK>
 VINA RESULT:      -7.0      0.000      0.000
  Name = 
  26 active torsions:
  status: ('A' for Active; 'I' for Inactive)
    1  A    between atoms: C_1  and  N_24
    2  A    between atoms: C_1  and  C_28
    3  A    between atoms: O_2  and  C_12
    4  A    between atoms: O_2  and  C_21
    5  A    between atoms: N_3  and  C_20
    6  A    between atoms: C_5  and  C_8
    7  A    between atoms: C_5  and  N_43
    8  A    between atoms: C_7  and  C_11
    9  A    between atoms: C_8  and  N_22
   10  A    between atoms: C_10  and  N_13
   11  A    between atoms: C_11  and  C_49
   12  A    between atoms: C_12  and  C_48
   13  A    between atoms: N_13  and  C_36
   14  A    between atoms: N_13  and  C_48
   15  A    between atoms: C_16  and  O_40
   16  A    between atoms: C_19  and  C_38
   17  A    between atoms: C_21  and  C_42
   18  A    between atoms: N_27  and  C_31
   19  A    between atoms: C_31  and  C_47
   20  A    between atoms: C_35  and  C_36
   21  A    between atoms: C_35  and  C_37
   22  A    between atoms: C_37  and  C_45
   23  A    between atoms: C_39  and  C_45
   24  A    between atoms: O_40  and  C_42
   25  A    between atoms: C_42  and  C_47
   26  A    between atoms: C_49  and  C_50
                            x       y       z     vdW  Elec       q    Type
                         _______ _______ _______ _____ _____    ______ ____

>  <TORSDO>
F 26

$$$$
=
 OpenBabel10222417443D

 52 53  0  0  1  0  0  0  0  0999 V2000
  184.3250  178.2300  143.6050 N   0  0  0  0  0  0  0  0  0  0  0  0
  186.6920  177.7660  144.1320 C   0  0  0  0  0  2  0  0  0  0  0  0
  185.5490  178.8060  144.1970 C   0  0  2  0  0  3  0  0  0  0  0  0
  185.5070  178.2240  146.6620 C   0  0  0  0  0  2  0  0  0  0  0  0
  187.6750  178.3440  147.6610 O   0  0  0  0  0  1  0  0  0  0  0  0
  186.9480  177.7000  146.6590 C   0  0  2  0  0  3  0  0  0  0  0  0
  187.6670  177.8770  145.3100 C   0  0  1  0  0  3  0  0  0  0  0  0
  185.3220  179.3320  145.6320 C   0  0  0  0  0  2  0  0  0  0  0  0
  188.7590  176.8280  145.1800 C   0  0  0  0  0  2  0  0  0  0  0  0
  189.6300  177.1330  143.9760 C   0  0  0  0  0  2  0  0  0  0  0  0
  190.1780  178.5470  144.0550 C   0  0  0  0  0  2  0  0  0  0  0  0
  191.6960  178.5210  144.1570 C   0  0  0  0  0  1  0  0  0  0  0  0
  183.1210  178.6180  144.3420 C   0  0  0  0  0  2  0  0  0  0  0  0
  182.0170  178.9710  143.3680 C   0  0  0  0  0  2  0  0  0  0  0  0
  180.6720  178.7580  144.0330 C   0  0  0  0  0  2  0  0  0  0  0  0
  179.7280  178.0790  143.0540 C   0  0  0  0  0  2  0  0  0  0  0  0
  179.1290  180.0590  141.8700 O   0  0  0  0  0  0  0  0  0  0  0  0
  179.5980  178.8910  141.8070 C   0  0  0  0  0  0  0  0  0  0  0  0
  179.9960  178.3350  140.5490 N   0  0  0  0  0  2  0  0  0  0  0  0
  179.8840  179.0730  139.3020 C   0  0  0  0  0  2  0  0  0  0  0  0
  181.2380  179.6520  138.9230 C   0  0  0  0  0  2  0  0  0  0  0  0
  180.4740  182.2500  136.2210 N   0  0  0  0  0  2  0  0  0  0  0  0
  181.1530  180.3520  137.6480 N   0  0  0  0  0  2  0  0  0  0  0  0
  180.3330  182.3460  138.5510 O   0  0  0  0  0  0  0  0  0  0  0  0
  180.6330  181.6790  137.5220 C   0  0  0  0  0  0  0  0  0  0  0  0
  179.8520  183.5470  136.0060 C   0  0  0  0  0  2  0  0  0  0  0  0
  180.9040  184.5650  135.5950 C   0  0  0  0  0  1  0  0  0  0  0  0
  184.1880  178.6410  142.1980 C   0  0  0  0  0  2  0  0  0  0  0  0
  185.4860  179.1770  141.5770 C   0  0  0  0  0  2  0  0  0  0  0  0
  185.7300  178.5780  140.3110 O   0  0  0  0  0  0  0  0  0  0  0  0
  185.1400  179.0460  139.1340 C   0  0  0  0  0  0  0  0  0  0  0  0
  184.4820  180.1220  139.1320 O   0  0  0  0  0  0  0  0  0  0  0  0
  185.2730  178.2390  137.8820 C   0  0  2  0  0  3  0  0  0  0  0  0
  184.7570  176.9200  138.0550 O   0  0  0  0  0  0  0  0  0  0  0  0
  181.4150  175.4820  138.6840 C   0  0  0  0  0  3  0  0  0  0  0  0
  180.7050  175.9280  137.5670 C   0  0  0  0  0  3  0  0  0  0  0  0
  183.4100  176.5950  137.8720 C   0  0  0  0  0  0  0  0  0  0  0  0
  181.3450  176.7020  136.5970 C   0  0  0  0  0  3  0  0  0  0  0  0
  182.7630  175.8150  138.8360 C   0  0  0  0  0  3  0  0  0  0  0  0
  182.6930  177.0330  136.7480 C   0  0  0  0  0  3  0  0  0  0  0  0
  186.7340  178.1780  137.4750 C   0  0  0  0  0  2  0  0  0  0  0  0
  187.3040  176.7690  137.6090 C   0  0  0  0  0  2  0  0  0  0  0  0
  189.8380  176.6120  137.4860 C   0  0  0  0  0  0  0  0  0  0  0  0
  191.0770  176.5760  138.1940 N   0  0  0  0  0  2  0  0  0  0  0  0
  188.6250  176.7940  138.2210 N   0  0  0  0  0  2  0  0  0  0  0  0
  189.8170  176.4880  136.2280 O   0  0  0  0  0  0  0  0  0  0  0  0
  192.3310  176.2010  137.5600 C   0  0  0  0  0  2  0  0  0  0  0  0
  192.4710  174.7150  137.5840 C   0  0  0  0  0  3  0  0  0  0  0  0
  193.6320  174.0550  137.6280 C   0  0  0  0  0  3  0  0  0  0  0  0
  194.9760  174.6530  137.6970 C   0  0  0  0  0  0  0  0  0  0  0  0
  195.7770  174.7620  136.4540 C   0  0  0  0  0  1  0  0  0  0  0  0
  195.4760  175.0380  138.7890 O   0  0  0  0  0  0  0  0  0  0  0  0
  1 13  1  0  0  0  0
  2  3  1  0  0  0  0
  2  7  1  0  0  0  0
  3  1  1  1  0  0  0
  3  8  1  0  0  0  0
  6  4  1  0  0  0  0
  6  5  1  1  0  0  0
  7  9  1  6  0  0  0
  7  6  1  0  0  0  0
  8  4  1  0  0  0  0
 10 11  1  0  0  0  0
 10  9  1  0  0  0  0
 11 12  1  0  0  0  0
 14 15  1  0  0  0  0
 14 13  1  0  0  0  0
 16 15  1  0  0  0  0
 18 17  2  0  0  0  0
 18 16  1  0  0  0  0
 19 18  1  0  0  0  0
 20 19  1  0  0  0  0
 21 20  1  0  0  0  0
 22 25  1  0  0  0  0
 23 21  1  0  0  0  0
 25 23  1  0  0  0  0
 25 24  2  0  0  0  0
 26 22  1  0  0  0  0
 27 26  1  0  0  0  0
 28  1  1  0  0  0  0
 29 28  1  0  0  0  0
 30 29  1  0  0  0  0
 31 30  1  0  0  0  0
 32 31  2  0  0  0  0
 33 41  1  1  0  0  0
 33 34  1  0  0  0  0
 33 31  1  0  0  0  0
 35 39  1  0  0  0  0
 36 35  2  0  0  0  0
 37 34  1  0  0  0  0
 37 39  2  0  0  0  0
 38 40  2  0  0  0  0
 38 36  1  0  0  0  0
 40 37  1  0  0  0  0
 41 42  1  0  0  0  0
 42 45  1  0  0  0  0
 43 44  1  0  0  0  0
 43 45  1  0  0  0  0
 46 43  2  0  0  0  0
 47 48  1  0  0  0  0
 47 44  1  0  0  0  0
 48 49  2  0  0  0  0
 49 50  1  0  0  0  0
 50 52  2  0  0  0  0
 51 50  1  0  0  0  0
M  END
>  <MODEL>
2

>  <REMARK>
 VINA RESULT:      -6.9      2.548      4.158
  Name = 
  26 active torsions:
  status: ('A' for Active; 'I' for Inactive)
    1  A    between atoms: C_1  and  N_24
    2  A    between atoms: C_1  and  C_28
    3  A    between atoms: O_2  and  C_12
    4  A    between atoms: O_2  and  C_21
    5  A    between atoms: N_3  and  C_20
    6  A    between atoms: C_5  and  C_8
    7  A    between atoms: C_5  and  N_43
    8  A    between atoms: C_7  and  C_11
    9  A    between atoms: C_8  and  N_22
   10  A    between atoms: C_10  and  N_13
   11  A    between atoms: C_11  and  C_49
   12  A    between atoms: C_12  and  C_48
   13  A    between atoms: N_13  and  C_36
   14  A    between atoms: N_13  and  C_48
   15  A    between atoms: C_16  and  O_40
   16  A    between atoms: C_19  and  C_38
   17  A    between atoms: C_21  and  C_42
   18  A    between atoms: N_27  and  C_31
   19  A    between atoms: C_31  and  C_47
   20  A    between atoms: C_35  and  C_36
   21  A    between atoms: C_35  and  C_37
   22  A    between atoms: C_37  and  C_45
   23  A    between atoms: C_39  and  C_45
   24  A    between atoms: O_40  and  C_42
   25  A    between atoms: C_42  and  C_47
   26  A    between atoms: C_49  and  C_50
                            x       y       z     vdW  Elec       q    Type
                         _______ _______ _______ _____ _____    ______ ____

>  <TORSDO>
F 26

$$$$
=
 OpenBabel10222417443D

 52 53  0  0  1  0  0  0  0  0999 V2000
  188.5140  177.4770  141.0030 N   0  0  0  0  0  0  0  0  0  0  0  0
  188.1910  177.1180  143.4240 C   0  0  0  0  0  2  0  0  0  0  0  0
  189.0430  176.7640  142.1830 C   0  0  2  0  0  3  0  0  0  0  0  0
  190.7590  178.2940  143.2470 C   0  0  0  0  0  2  0  0  0  0  0  0
  191.1760  177.7400  145.5340 O   0  0  0  0  0  1  0  0  0  0  0  0
  190.1690  178.1340  144.6520 C   0  0  2  0  0  3  0  0  0  0  0  0
  189.0040  177.1310  144.7230 C   0  0  1  0  0  3  0  0  0  0  0  0
  190.5470  177.0350  142.4140 C   0  0  0  0  0  2  0  0  0  0  0  0
  188.1040  177.4850  145.8950 C   0  0  0  0  0  2  0  0  0  0  0  0
  188.5560  176.7440  147.1390 C   0  0  0  0  0  2  0  0  0  0  0  0
  188.1800  177.5160  148.3900 C   0  0  0  0  0  2  0  0  0  0  0  0
  189.3230  178.4270  148.8140 C   0  0  0  0  0  1  0  0  0  0  0  0
  187.7720  178.6830  141.3750 C   0  0  0  0  0  2  0  0  0  0  0  0
  186.3330  178.5570  140.9240 C   0  0  0  0  0  2  0  0  0  0  0  0
  185.4110  178.8750  142.0840 C   0  0  0  0  0  2  0  0  0  0  0  0
  183.9840  178.9960  141.5760 C   0  0  0  0  0  2  0  0  0  0  0  0
  183.4340  178.5260  143.8470 O   0  0  0  0  0  0  0  0  0  0  0  0
  183.0140  178.8360  142.7000 C   0  0  0  0  0  0  0  0  0  0  0  0
  181.6140  179.0260  142.4670 N   0  0  0  0  0  2  0  0  0  0  0  0
  180.6220  178.8750  143.5180 C   0  0  0  0  0  2  0  0  0  0  0  0
  179.2580  178.6060  142.9030 C   0  0  0  0  0  2  0  0  0  0  0  0
  179.6800  176.9400  139.4840 N   0  0  0  0  0  2  0  0  0  0  0  0
  179.3830  178.3810  141.4680 N   0  0  0  0  0  2  0  0  0  0  0  0
  179.2590  176.0500  141.6040 O   0  0  0  0  0  0  0  0  0  0  0  0
  179.4390  177.0750  140.8870 C   0  0  0  0  0  0  0  0  0  0  0  0
  179.8600  175.6480  138.8420 C   0  0  0  0  0  2  0  0  0  0  0  0
  181.3410  175.3190  138.7440 C   0  0  0  0  0  1  0  0  0  0  0  0
  189.6070  177.8400  140.0860 C   0  0  0  0  0  2  0  0  0  0  0  0
  189.1340  178.2350  138.6800 C   0  0  0  0  0  2  0  0  0  0  0  0
  188.1070  177.3660  138.2250 O   0  0  0  0  0  0  0  0  0  0  0  0
  187.8780  177.1200  136.8690 C   0  0  0  0  0  0  0  0  0  0  0  0
  187.8620  178.0710  136.0400 O   0  0  0  0  0  0  0  0  0  0  0  0
  187.6210  175.7180  136.4160 C   0  0  2  0  0  3  0  0  0  0  0  0
  186.8440  174.9970  137.3700 O   0  0  0  0  0  0  0  0  0  0  0  0
  184.2580  172.3620  137.3780 C   0  0  0  0  0  3  0  0  0  0  0  0
  183.3590  172.8500  136.4260 C   0  0  0  0  0  3  0  0  0  0  0  0
  185.6830  174.2940  137.0380 C   0  0  0  0  0  0  0  0  0  0  0  0
  183.6220  174.0560  135.7730 C   0  0  0  0  0  3  0  0  0  0  0  0
  185.4150  173.0820  137.6820 C   0  0  0  0  0  3  0  0  0  0  0  0
  184.7810  174.7750  136.0770 C   0  0  0  0  0  3  0  0  0  0  0  0
  188.9460  175.0140  136.1810 C   0  0  0  0  0  2  0  0  0  0  0  0
  189.6530  174.6830  137.4910 C   0  0  0  0  0  2  0  0  0  0  0  0
  192.1930  174.5660  137.5350 C   0  0  0  0  0  0  0  0  0  0  0  0
  193.3700  173.8390  137.1830 N   0  0  0  0  0  2  0  0  0  0  0  0
  190.9140  173.9950  137.2460 N   0  0  0  0  0  2  0  0  0  0  0  0
  192.2820  175.6950  138.0960 O   0  0  0  0  0  0  0  0  0  0  0  0
  194.7000  174.4200  137.2570 C   0  0  0  0  0  2  0  0  0  0  0  0
  195.3090  174.0920  138.5800 C   0  0  0  0  0  3  0  0  0  0  0  0
  196.6210  174.0370  138.8280 C   0  0  0  0  0  3  0  0  0  0  0  0
  197.7050  174.3220  137.8720 C   0  0  0  0  0  0  0  0  0  0  0  0
  198.3980  173.1860  137.2160 C   0  0  0  0  0  1  0  0  0  0  0  0
  198.0820  175.4990  137.6280 O   0  0  0  0  0  0  0  0  0  0  0  0
  1 13  1  0  0  0  0
  2  7  1  0  0  0  0
  3  1  1  6  0  0  0
  3  8  1  0  0  0  0
  3  2  1  0  0  0  0
  4  6  1  0  0  0  0
  6  7  1  0  0  0  0
  6  5  1  1  0  0  0
  7  9  1  1  0  0  0
  8  4  1  0  0  0  0
  9 10  1  0  0  0  0
 10 11  1  0  0  0  0
 11 12  1  0  0  0  0
 14 13  1  0  0  0  0
 14 15  1  0  0  0  0
 16 15  1  0  0  0  0
 16 18  1  0  0  0  0
 18 17  2  0  0  0  0
 19 18  1  0  0  0  0
 19 20  1  0  0  0  0
 21 20  1  0  0  0  0
 22 25  1  0  0  0  0
 23 21  1  0  0  0  0
 25 23  1  0  0  0  0
 25 24  2  0  0  0  0
 26 22  1  0  0  0  0
 27 26  1  0  0  0  0
 28  1  1  0  0  0  0
 29 28  1  0  0  0  0
 30 29  1  0  0  0  0
 31 30  1  0  0  0  0
 32 31  2  0  0  0  0
 33 41  1  1  0  0  0
 33 31  1  0  0  0  0
 33 34  1  0  0  0  0
 35 39  1  0  0  0  0
 36 35  2  0  0  0  0
 37 34  1  0  0  0  0
 37 39  2  0  0  0  0
 38 40  2  0  0  0  0
 38 36  1  0  0  0  0
 40 37  1  0  0  0  0
 41 42  1  0  0  0  0
 43 46  2  0  0  0  0
 44 47  1  0  0  0  0
 44 43  1  0  0  0  0
 45 42  1  0  0  0  0
 45 43  1  0  0  0  0
 47 48  1  0  0  0  0
 48 49  2  0  0  0  0
 50 49  1  0  0  0  0
 51 50  1  0  0  0  0
 52 50  2  0  0  0  0
M  END
>  <MODEL>
3

>  <REMARK>
 VINA RESULT:      -6.6      2.079      2.320
  Name = 
  26 active torsions:
  status: ('A' for Active; 'I' for Inactive)
    1  A    between atoms: C_1  and  N_24
    2  A    between atoms: C_1  and  C_28
    3  A    between atoms: O_2  and  C_12
    4  A    between atoms: O_2  and  C_21
    5  A    between atoms: N_3  and  C_20
    6  A    between atoms: C_5  and  C_8
    7  A    between atoms: C_5  and  N_43
    8  A    between atoms: C_7  and  C_11
    9  A    between atoms: C_8  and  N_22
   10  A    between atoms: C_10  and  N_13
   11  A    between atoms: C_11  and  C_49
   12  A    between atoms: C_12  and  C_48
   13  A    between atoms: N_13  and  C_36
   14  A    between atoms: N_13  and  C_48
   15  A    between atoms: C_16  and  O_40
   16  A    between atoms: C_19  and  C_38
   17  A    between atoms: C_21  and  C_42
   18  A    between atoms: N_27  and  C_31
   19  A    between atoms: C_31  and  C_47
   20  A    between atoms: C_35  and  C_36
   21  A    between atoms: C_35  and  C_37
   22  A    between atoms: C_37  and  C_45
   23  A    between atoms: C_39  and  C_45
   24  A    between atoms: O_40  and  C_42
   25  A    between atoms: C_42  and  C_47
   26  A    between atoms: C_49  and  C_50
                            x       y       z     vdW  Elec       q    Type
                         _______ _______ _______ _____ _____    ______ ____

>  <TORSDO>
F 26

$$$$
=
 OpenBabel10222417443D

 52 53  0  0  1  0  0  0  0  0999 V2000
  189.5910  177.9880  140.3170 N   0  0  0  0  0  0  0  0  0  0  0  0
  190.3650  178.3310  142.6360 C   0  0  0  0  0  2  0  0  0  0  0  0
  189.1870  178.4870  141.6460 C   0  0  2  0  0  3  0  0  0  0  0  0
  188.2130  176.5110  142.8980 C   0  0  0  0  0  2  0  0  0  0  0  0
  188.2120  176.8460  145.2650 O   0  0  0  0  0  1  0  0  0  0  0  0
  189.0530  176.7730  144.1540 C   0  0  2  0  0  3  0  0  0  0  0  0
  189.9070  178.0500  144.0710 C   0  0  1  0  0  3  0  0  0  0  0  0
  187.8980  177.8110  142.1660 C   0  0  0  0  0  2  0  0  0  0  0  0
  191.1140  177.9100  144.9840 C   0  0  0  0  0  2  0  0  0  0  0  0
  191.5710  176.4650  145.0200 C   0  0  0  0  0  2  0  0  0  0  0  0
  191.9820  176.0670  146.4260 C   0  0  0  0  0  2  0  0  0  0  0  0
  191.0060  176.6390  147.4450 C   0  0  0  0  0  1  0  0  0  0  0  0
  190.7570  177.1050  140.3910 C   0  0  0  0  0  2  0  0  0  0  0  0
  190.7950  176.2050  139.1740 C   0  0  0  0  0  2  0  0  0  0  0  0
  192.0670  176.4680  138.3920 C   0  0  0  0  0  2  0  0  0  0  0  0
  192.2170  175.4160  137.3060 C   0  0  0  0  0  2  0  0  0  0  0  0
  194.2290  176.5330  136.6840 O   0  0  0  0  0  0  0  0  0  0  0  0
  193.5990  175.4420  136.7420 C   0  0  0  0  0  0  0  0  0  0  0  0
  194.1970  174.2330  136.2630 N   0  0  0  0  0  2  0  0  0  0  0  0
  195.5350  174.1970  135.6950 C   0  0  0  0  0  2  0  0  0  0  0  0
  196.4250  173.2940  136.5340 C   0  0  0  0  0  2  0  0  0  0  0  0
  197.5990  175.2180  139.6260 N   0  0  0  0  0  2  0  0  0  0  0  0
  197.2210  174.0860  137.4640 N   0  0  0  0  0  2  0  0  0  0  0  0
  195.8010  173.7630  139.2930 O   0  0  0  0  0  0  0  0  0  0  0  0
  196.8220  174.3340  138.8150 C   0  0  0  0  0  0  0  0  0  0  0  0
  197.1980  175.6040  140.9690 C   0  0  0  0  0  2  0  0  0  0  0  0
  198.3530  175.3970  141.9360 C   0  0  0  0  0  1  0  0  0  0  0  0
  188.4780  177.2710  139.6730 C   0  0  0  0  0  2  0  0  0  0  0  0
  187.8450  178.0300  138.4990 C   0  0  0  0  0  2  0  0  0  0  0  0
  188.6670  177.9560  137.3420 O   0  0  0  0  0  0  0  0  0  0  0  0
  188.4470  177.0260  136.3230 C   0  0  0  0  0  0  0  0  0  0  0  0
  189.3110  176.8460  135.4220 O   0  0  0  0  0  0  0  0  0  0  0  0
  187.1590  176.2670  136.2960 C   0  0  2  0  0  3  0  0  0  0  0  0
  187.3580  174.9180  135.8790 O   0  0  0  0  0  0  0  0  0  0  0  0
  184.9070  172.8290  137.6850 C   0  0  0  0  0  3  0  0  0  0  0  0
  184.5950  171.8680  136.7190 C   0  0  0  0  0  3  0  0  0  0  0  0
  186.4460  173.8920  136.1420 C   0  0  0  0  0  0  0  0  0  0  0  0
  185.2110  171.9120  135.4680 C   0  0  0  0  0  3  0  0  0  0  0  0
  185.8300  173.8370  137.3960 C   0  0  0  0  0  3  0  0  0  0  0  0
  186.1350  172.9190  135.1800 C   0  0  0  0  0  3  0  0  0  0  0  0
  186.1830  176.9630  135.3650 C   0  0  0  0  0  2  0  0  0  0  0  0
  184.7830  177.0470  135.9670 C   0  0  0  0  0  2  0  0  0  0  0  0
  183.9080  178.0460  138.1350 C   0  0  0  0  0  0  0  0  0  0  0  0
  184.1040  178.2410  139.5350 N   0  0  0  0  0  2  0  0  0  0  0  0
  184.8450  177.2460  137.4090 N   0  0  0  0  0  2  0  0  0  0  0  0
  182.9190  178.5700  137.5490 O   0  0  0  0  0  0  0  0  0  0  0  0
  183.3230  179.1900  140.3110 C   0  0  0  0  0  2  0  0  0  0  0  0
  182.7350  178.4940  141.4940 C   0  0  0  0  0  3  0  0  0  0  0  0
  183.3110  178.4050  142.6960 C   0  0  0  0  0  3  0  0  0  0  0  0
  184.6000  178.9980  143.0940 C   0  0  0  0  0  0  0  0  0  0  0  0
  185.1830  178.6290  144.4070 C   0  0  0  0  0  1  0  0  0  0  0  0
  185.1980  179.8350  142.3670 O   0  0  0  0  0  0  0  0  0  0  0  0
  1 13  1  0  0  0  0
  2  7  1  0  0  0  0
  3  1  1  6  0  0  0
  3  8  1  0  0  0  0
  3  2  1  0  0  0  0
  4  6  1  0  0  0  0
  6  5  1  1  0  0  0
  7  6  1  0  0  0  0
  7  9  1  1  0  0  0
  8  4  1  0  0  0  0
  9 10  1  0  0  0  0
 10 11  1  0  0  0  0
 11 12  1  0  0  0  0
 14 13  1  0  0  0  0
 15 14  1  0  0  0  0
 16 15  1  0  0  0  0
 17 18  2  0  0  0  0
 18 16  1  0  0  0  0
 19 18  1  0  0  0  0
 20 19  1  0  0  0  0
 20 21  1  0  0  0  0
 21 23  1  0  0  0  0
 22 26  1  0  0  0  0
 23 25  1  0  0  0  0
 25 24  2  0  0  0  0
 25 22  1  0  0  0  0
 26 27  1  0  0  0  0
 28  1  1  0  0  0  0
 29 28  1  0  0  0  0
 30 29  1  0  0  0  0
 31 30  1  0  0  0  0
 32 31  2  0  0  0  0
 33 41  1  6  0  0  0
 33 31  1  0  0  0  0
 34 37  1  0  0  0  0
 34 33  1  0  0  0  0
 36 35  2  0  0  0  0
 37 39  2  0  0  0  0
 38 36  1  0  0  0  0
 39 35  1  0  0  0  0
 40 38  2  0  0  0  0
 40 37  1  0  0  0  0
 41 42  1  0  0  0  0
 42 45  1  0  0  0  0
 43 44  1  0  0  0  0
 44 47  1  0  0  0  0
 45 43  1  0  0  0  0
 46 43  2  0  0  0  0
 47 48  1  0  0  0  0
 48 49  2  0  0  0  0
 49 50  1  0  0  0  0
 50 51  1  0  0  0  0
 52 50  2  0  0  0  0
M  END
>  <MODEL>
4

>  <REMARK>
 VINA RESULT:      -6.6      2.412      9.887
  Name = 
  26 active torsions:
  status: ('A' for Active; 'I' for Inactive)
    1  A    between atoms: C_1  and  N_24
    2  A    between atoms: C_1  and  C_28
    3  A    between atoms: O_2  and  C_12
    4  A    between atoms: O_2  and  C_21
    5  A    between atoms: N_3  and  C_20
    6  A    between atoms: C_5  and  C_8
    7  A    between atoms: C_5  and  N_43
    8  A    between atoms: C_7  and  C_11
    9  A    between atoms: C_8  and  N_22
   10  A    between atoms: C_10  and  N_13
   11  A    between atoms: C_11  and  C_49
   12  A    between atoms: C_12  and  C_48
   13  A    between atoms: N_13  and  C_36
   14  A    between atoms: N_13  and  C_48
   15  A    between atoms: C_16  and  O_40
   16  A    between atoms: C_19  and  C_38
   17  A    between atoms: C_21  and  C_42
   18  A    between atoms: N_27  and  C_31
   19  A    between atoms: C_31  and  C_47
   20  A    between atoms: C_35  and  C_36
   21  A    between atoms: C_35  and  C_37
   22  A    between atoms: C_37  and  C_45
   23  A    between atoms: C_39  and  C_45
   24  A    between atoms: O_40  and  C_42
   25  A    between atoms: C_42  and  C_47
   26  A    between atoms: C_49  and  C_50
                            x       y       z     vdW  Elec       q    Type
                         _______ _______ _______ _____ _____    ______ ____

>  <TORSDO>
F 26

$$$$
=
 OpenBabel10222417443D

 52 53  0  0  1  0  0  0  0  0999 V2000
  185.0320  178.2410  143.3970 N   0  0  0  0  0  0  0  0  0  0  0  0
  187.2430  177.7660  144.3870 C   0  0  0  0  0  2  0  0  0  0  0  0
  186.1150  178.8110  144.2230 C   0  0  2  0  0  3  0  0  0  0  0  0
  185.5780  178.2260  146.6290 C   0  0  0  0  0  2  0  0  0  0  0  0
  187.5020  178.3350  148.0420 O   0  0  0  0  0  1  0  0  0  0  0  0
  186.9880  177.6960  146.9130 C   0  0  2  0  0  3  0  0  0  0  0  0
  187.9630  177.8700  145.7360 C   0  0  1  0  0  3  0  0  0  0  0  0
  185.6070  179.3360  145.5850 C   0  0  0  0  0  2  0  0  0  0  0  0
  189.0540  176.8170  145.8250 C   0  0  0  0  0  2  0  0  0  0  0  0
  190.1070  177.0700  144.7630 C   0  0  0  0  0  2  0  0  0  0  0  0
  191.4620  177.3200  145.4000 C   0  0  0  0  0  2  0  0  0  0  0  0
  191.6570  176.4090  146.6040 C   0  0  0  0  0  1  0  0  0  0  0  0
  183.7460  178.2410  144.0980 C   0  0  0  0  0  2  0  0  0  0  0  0
  182.6790  178.8390  143.2070 C   0  0  0  0  0  2  0  0  0  0  0  0
  181.4240  179.0860  144.0200 C   0  0  0  0  0  2  0  0  0  0  0  0
  180.2560  178.3520  143.3800 C   0  0  0  0  0  2  0  0  0  0  0  0
  179.5060  180.2080  142.0870 O   0  0  0  0  0  0  0  0  0  0  0  0
  179.8740  179.0030  142.0920 C   0  0  0  0  0  0  0  0  0  0  0  0
  179.9210  178.2540  140.8730 N   0  0  0  0  0  2  0  0  0  0  0  0
  179.5520  178.8290  139.5900 C   0  0  0  0  0  2  0  0  0  0  0  0
  180.7200  179.6250  139.0290 C   0  0  0  0  0  2  0  0  0  0  0  0
  180.3960  183.0440  137.3420 N   0  0  0  0  0  2  0  0  0  0  0  0
  180.2360  180.7460  138.2340 N   0  0  0  0  0  2  0  0  0  0  0  0
  182.1780  182.0270  138.4610 O   0  0  0  0  0  0  0  0  0  0  0  0
  180.9900  181.9450  138.0380 C   0  0  0  0  0  0  0  0  0  0  0  0
  181.0580  184.3310  137.2000 C   0  0  0  0  0  2  0  0  0  0  0  0
  180.9290  184.8250  135.7680 C   0  0  0  0  0  1  0  0  0  0  0  0
  184.8980  178.9860  142.1340 C   0  0  0  0  0  2  0  0  0  0  0  0
  186.1740  178.9990  141.2810 C   0  0  0  0  0  2  0  0  0  0  0  0
  185.9840  178.2840  140.0680 O   0  0  0  0  0  0  0  0  0  0  0  0
  185.3140  178.8330  138.9720 C   0  0  0  0  0  0  0  0  0  0  0  0
  184.5950  179.8600  139.1090 O   0  0  0  0  0  0  0  0  0  0  0  0
  185.4360  178.1690  137.6370 C   0  0  2  0  0  3  0  0  0  0  0  0
  185.2200  176.7630  137.7330 O   0  0  0  0  0  0  0  0  0  0  0  0
  181.5610  176.4290  137.3730 C   0  0  0  0  0  3  0  0  0  0  0  0
  181.4080  175.0400  137.3570 C   0  0  0  0  0  3  0  0  0  0  0  0
  183.9590  176.1710  137.6160 C   0  0  0  0  0  0  0  0  0  0  0  0
  182.5270  174.2150  137.4770 C   0  0  0  0  0  3  0  0  0  0  0  0
  182.8330  176.9920  137.5020 C   0  0  0  0  0  3  0  0  0  0  0  0
  183.7990  174.7770  137.6070 C   0  0  0  0  0  3  0  0  0  0  0  0
  186.8120  178.4490  137.0590 C   0  0  0  0  0  2  0  0  0  0  0  0
  187.2480  177.3620  136.0810 C   0  0  0  0  0  2  0  0  0  0  0  0
  189.3860  176.3970  137.0630 C   0  0  0  0  0  0  0  0  0  0  0  0
  190.8120  176.3610  137.0380 N   0  0  0  0  0  2  0  0  0  0  0  0
  188.6950  177.1940  136.0970 N   0  0  0  0  0  2  0  0  0  0  0  0
  188.7440  175.7300  137.9240 O   0  0  0  0  0  0  0  0  0  0  0  0
  191.5990  175.7430  138.0920 C   0  0  0  0  0  2  0  0  0  0  0  0
  192.7190  176.6540  138.4720 C   0  0  0  0  0  3  0  0  0  0  0  0
  192.7910  177.3470  139.6120 C   0  0  0  0  0  3  0  0  0  0  0  0
  191.8150  177.3200  140.7150 C   0  0  0  0  0  0  0  0  0  0  0  0
  190.3940  177.6240  140.4220 C   0  0  0  0  0  1  0  0  0  0  0  0
  192.1640  177.0830  141.9030 O   0  0  0  0  0  0  0  0  0  0  0  0
  1 13  1  0  0  0  0
  2  7  1  0  0  0  0
  3  1  1  1  0  0  0
  3  2  1  0  0  0  0
  3  8  1  0  0  0  0
  4  6  1  0  0  0  0
  6  5  1  1  0  0  0
  7  9  1  6  0  0  0
  7  6  1  0  0  0  0
  8  4  1  0  0  0  0
 10 11  1  0  0  0  0
 10  9  1  0  0  0  0
 11 12  1  0  0  0  0
 14 15  1  0  0  0  0
 14 13  1  0  0  0  0
 16 15  1  0  0  0  0
 17 18  2  0  0  0  0
 18 16  1  0  0  0  0
 19 18  1  0  0  0  0
 20 19  1  0  0  0  0
 21 20  1  0  0  0  0
 22 25  1  0  0  0  0
 23 21  1  0  0  0  0
 25 23  1  0  0  0  0
 25 24  2  0  0  0  0
 26 22  1  0  0  0  0
 27 26  1  0  0  0  0
 28  1  1  0  0  0  0
 29 28  1  0  0  0  0
 30 29  1  0  0  0  0
 31 32  2  0  0  0  0
 31 30  1  0  0  0  0
 33 41  1  1  0  0  0
 33 34  1  0  0  0  0
 33 31  1  0  0  0  0
 35 39  1  0  0  0  0
 36 35  2  0  0  0  0
 36 38  1  0  0  0  0
 37 34  1  0  0  0  0
 38 40  2  0  0  0  0
 39 37  2  0  0  0  0
 40 37  1  0  0  0  0
 42 45  1  0  0  0  0
 42 41  1  0  0  0  0
 43 46  2  0  0  0  0
 44 43  1  0  0  0  0
 44 47  1  0  0  0  0
 45 43  1  0  0  0  0
 47 48  1  0  0  0  0
 48 49  2  0  0  0  0
 49 50  1  0  0  0  0
 50 52  2  0  0  0  0
 51 50  1  0  0  0  0
M  END
>  <MODEL>
5

>  <REMARK>
 VINA RESULT:      -6.4      2.726      4.338
  Name = 
  26 active torsions:
  status: ('A' for Active; 'I' for Inactive)
    1  A    between atoms: C_1  and  N_24
    2  A    between atoms: C_1  and  C_28
    3  A    between atoms: O_2  and  C_12
    4  A    between atoms: O_2  and  C_21
    5  A    between atoms: N_3  and  C_20
    6  A    between atoms: C_5  and  C_8
    7  A    between atoms: C_5  and  N_43
    8  A    between atoms: C_7  and  C_11
    9  A    between atoms: C_8  and  N_22
   10  A    between atoms: C_10  and  N_13
   11  A    between atoms: C_11  and  C_49
   12  A    between atoms: C_12  and  C_48
   13  A    between atoms: N_13  and  C_36
   14  A    between atoms: N_13  and  C_48
   15  A    between atoms: C_16  and  O_40
   16  A    between atoms: C_19  and  C_38
   17  A    between atoms: C_21  and  C_42
   18  A    between atoms: N_27  and  C_31
   19  A    between atoms: C_31  and  C_47
   20  A    between atoms: C_35  and  C_36
   21  A    between atoms: C_35  and  C_37
   22  A    between atoms: C_37  and  C_45
   23  A    between atoms: C_39  and  C_45
   24  A    between atoms: O_40  and  C_42
   25  A    between atoms: C_42  and  C_47
   26  A    between atoms: C_49  and  C_50
                            x       y       z     vdW  Elec       q    Type
                         _______ _______ _______ _____ _____    ______ ____

>  <TORSDO>
F 26

$$$$
=
 OpenBabel10222417443D

 52 53  0  0  1  0  0  0  0  0999 V2000
  184.4960  178.4430  141.8180 N   0  0  0  0  0  0  0  0  0  0  0  0
  186.1120  178.1140  143.6550 C   0  0  0  0  0  2  0  0  0  0  0  0
  185.1700  179.1150  142.9470 C   0  0  2  0  0  3  0  0  0  0  0  0
  183.6980  178.7700  144.9800 C   0  0  0  0  0  2  0  0  0  0  0  0
  184.8960  179.0600  147.0280 O   0  0  0  0  0  1  0  0  0  0  0  0
  184.8630  178.2990  145.8590 C   0  0  2  0  0  3  0  0  0  0  0  0
  186.2320  178.3700  145.1620 C   0  0  1  0  0  3  0  0  0  0  0  0
  184.1710  179.7680  143.9290 C   0  0  0  0  0  2  0  0  0  0  0  0
  187.1710  177.3520  145.7880 C   0  0  0  0  0  2  0  0  0  0  0  0
  187.7730  177.9160  147.0600 C   0  0  0  0  0  2  0  0  0  0  0  0
  188.6240  176.8710  147.7590 C   0  0  0  0  0  2  0  0  0  0  0  0
  190.0940  177.0670  147.4120 C   0  0  0  0  0  1  0  0  0  0  0  0
  183.4780  179.2940  141.1980 C   0  0  0  0  0  2  0  0  0  0  0  0
  182.1070  178.6880  141.4110 C   0  0  0  0  0  2  0  0  0  0  0  0
  181.8800  177.5860  140.3960 C   0  0  0  0  0  2  0  0  0  0  0  0
  180.7290  177.9730  139.4810 C   0  0  0  0  0  2  0  0  0  0  0  0
  179.7460  175.8220  139.1860 O   0  0  0  0  0  0  0  0  0  0  0  0
  180.3130  176.8080  138.6440 C   0  0  0  0  0  0  0  0  0  0  0  0
  180.5700  176.8150  137.2360 N   0  0  0  0  0  2  0  0  0  0  0  0
  180.1970  175.7070  136.3710 C   0  0  0  0  0  2  0  0  0  0  0  0
  181.0810  175.7010  135.1340 C   0  0  0  0  0  2  0  0  0  0  0  0
  184.6280  174.7460  136.2060 N   0  0  0  0  0  2  0  0  0  0  0  0
  182.4870  175.7650  135.5130 N   0  0  0  0  0  2  0  0  0  0  0  0
  182.8300  173.4530  135.4620 O   0  0  0  0  0  0  0  0  0  0  0  0
  183.2910  174.6000  135.7210 C   0  0  0  0  0  0  0  0  0  0  0  0
  185.4660  173.6070  136.5450 C   0  0  0  0  0  2  0  0  0  0  0  0
  184.8030  172.7810  137.6350 C   0  0  0  0  0  1  0  0  0  0  0  0
  185.4770  178.0360  140.7990 C   0  0  0  0  0  2  0  0  0  0  0  0
  185.2490  178.6790  139.4240 C   0  0  0  0  0  2  0  0  0  0  0  0
  186.0540  178.0570  138.4310 O   0  0  0  0  0  0  0  0  0  0  0  0
  187.4110  178.3480  138.2760 C   0  0  0  0  0  0  0  0  0  0  0  0
  187.7940  179.1670  137.3960 O   0  0  0  0  0  0  0  0  0  0  0  0
  188.4090  177.6530  139.1460 C   0  0  2  0  0  3  0  0  0  0  0  0
  188.7720  178.4570  140.2670 O   0  0  0  0  0  0  0  0  0  0  0  0
  189.3080  176.0070  142.9770 C   0  0  0  0  0  3  0  0  0  0  0  0
  189.9410  176.7940  143.9430 C   0  0  0  0  0  3  0  0  0  0  0  0
  189.1620  177.9240  141.4980 C   0  0  0  0  0  0  0  0  0  0  0  0
  190.1800  178.1460  143.6930 C   0  0  0  0  0  3  0  0  0  0  0  0
  188.9200  176.5710  141.7590 C   0  0  0  0  0  3  0  0  0  0  0  0
  189.7910  178.7100  142.4750 C   0  0  0  0  0  3  0  0  0  0  0  0
  189.6420  177.3130  138.3270 C   0  0  0  0  0  2  0  0  0  0  0  0
  189.7480  175.8160  138.0560 C   0  0  0  0  0  2  0  0  0  0  0  0
  192.1980  175.5190  137.4440 C   0  0  0  0  0  0  0  0  0  0  0  0
  193.4570  174.9320  137.7710 N   0  0  0  0  0  2  0  0  0  0  0  0
  191.0930  175.3280  138.3310 N   0  0  0  0  0  2  0  0  0  0  0  0
  192.0650  176.2000  136.3870 O   0  0  0  0  0  0  0  0  0  0  0  0
  194.5750  174.9070  136.8410 C   0  0  0  0  0  2  0  0  0  0  0  0
  195.2430  173.5740  136.9100 C   0  0  0  0  0  3  0  0  0  0  0  0
  196.2360  173.2570  137.7460 C   0  0  0  0  0  3  0  0  0  0  0  0
  196.8300  174.1310  138.7710 C   0  0  0  0  0  0  0  0  0  0  0  0
  198.1890  174.6800  138.5450 C   0  0  0  0  0  1  0  0  0  0  0  0
  196.2300  174.3930  139.8480 O   0  0  0  0  0  0  0  0  0  0  0  0
  2  7  1  0  0  0  0
  3  1  1  6  0  0  0
  3  2  1  0  0  0  0
  3  8  1  0  0  0  0
  4  6  1  0  0  0  0
  6  5  1  1  0  0  0
  7  9  1  1  0  0  0
  7  6  1  0  0  0  0
  8  4  1  0  0  0  0
  9 10  1  0  0  0  0
 10 11  1  0  0  0  0
 12 11  1  0  0  0  0
 13 14  1  0  0  0  0
 13  1  1  0  0  0  0
 15 14  1  0  0  0  0
 16 15  1  0  0  0  0
 18 17  2  0  0  0  0
 18 16  1  0  0  0  0
 19 18  1  0  0  0  0
 20 19  1  0  0  0  0
 21 23  1  0  0  0  0
 21 20  1  0  0  0  0
 22 26  1  0  0  0  0
 23 25  1  0  0  0  0
 24 25  2  0  0  0  0
 25 22  1  0  0  0  0
 26 27  1  0  0  0  0
 28  1  1  0  0  0  0
 29 28  1  0  0  0  0
 30 29  1  0  0  0  0
 31 30  1  0  0  0  0
 31 33  1  0  0  0  0
 32 31  2  0  0  0  0
 33 41  1  6  0  0  0
 33 34  1  0  0  0  0
 34 37  1  0  0  0  0
 35 36  1  0  0  0  0
 37 39  1  0  0  0  0
 37 40  2  0  0  0  0
 38 36  2  0  0  0  0
 39 35  2  0  0  0  0
 40 38  1  0  0  0  0
 42 41  1  0  0  0  0
 42 45  1  0  0  0  0
 43 44  1  0  0  0  0
 43 45  1  0  0  0  0
 46 43  2  0  0  0  0
 47 48  1  0  0  0  0
 47 44  1  0  0  0  0
 48 49  2  0  0  0  0
 49 50  1  0  0  0  0
 50 52  2  0  0  0  0
 51 50  1  0  0  0  0
M  END
>  <MODEL>
6

>  <REMARK>
 VINA RESULT:      -6.4      2.720      5.753
  Name = 
  26 active torsions:
  status: ('A' for Active; 'I' for Inactive)
    1  A    between atoms: C_1  and  N_24
    2  A    between atoms: C_1  and  C_28
    3  A    between atoms: O_2  and  C_12
    4  A    between atoms: O_2  and  C_21
    5  A    between atoms: N_3  and  C_20
    6  A    between atoms: C_5  and  C_8
    7  A    between atoms: C_5  and  N_43
    8  A    between atoms: C_7  and  C_11
    9  A    between atoms: C_8  and  N_22
   10  A    between atoms: C_10  and  N_13
   11  A    between atoms: C_11  and  C_49
   12  A    between atoms: C_12  and  C_48
   13  A    between atoms: N_13  and  C_36
   14  A    between atoms: N_13  and  C_48
   15  A    between atoms: C_16  and  O_40
   16  A    between atoms: C_19  and  C_38
   17  A    between atoms: C_21  and  C_42
   18  A    between atoms: N_27  and  C_31
   19  A    between atoms: C_31  and  C_47
   20  A    between atoms: C_35  and  C_36
   21  A    between atoms: C_35  and  C_37
   22  A    between atoms: C_37  and  C_45
   23  A    between atoms: C_39  and  C_45
   24  A    between atoms: O_40  and  C_42
   25  A    between atoms: C_42  and  C_47
   26  A    between atoms: C_49  and  C_50
                            x       y       z     vdW  Elec       q    Type
                         _______ _______ _______ _____ _____    ______ ____

>  <TORSDO>
F 26

$$$$
=
 OpenBabel10222417443D

 52 53  0  0  1  0  0  0  0  0999 V2000
  184.5780  178.5290  141.4230 N   0  0  0  0  0  0  0  0  0  0  0  0
  186.0330  178.2510  143.3990 C   0  0  0  0  0  2  0  0  0  0  0  0
  185.0500  179.1880  142.6580 C   0  0  2  0  0  3  0  0  0  0  0  0
  183.4380  178.5240  144.4960 C   0  0  0  0  0  2  0  0  0  0  0  0
  184.3830  178.7960  146.6740 O   0  0  0  0  0  1  0  0  0  0  0  0
  184.5580  178.1250  145.4640 C   0  0  2  0  0  3  0  0  0  0  0  0
  185.9710  178.4050  144.9220 C   0  0  1  0  0  3  0  0  0  0  0  0
  183.8870  179.6460  143.5660 C   0  0  0  0  0  2  0  0  0  0  0  0
  186.9600  177.4580  145.5800 C   0  0  0  0  0  2  0  0  0  0  0  0
  188.0210  178.2490  146.3210 C   0  0  0  0  0  2  0  0  0  0  0  0
  189.3890  177.6150  146.1370 C   0  0  0  0  0  2  0  0  0  0  0  0
  189.6670  176.6220  147.2560 C   0  0  0  0  0  1  0  0  0  0  0  0
  183.4250  179.2160  140.8380 C   0  0  0  0  0  2  0  0  0  0  0  0
  182.1620  178.4350  141.1330 C   0  0  0  0  0  2  0  0  0  0  0  0
  182.1270  177.1890  140.2700 C   0  0  0  0  0  2  0  0  0  0  0  0
  180.9080  177.2370  139.3640 C   0  0  0  0  0  2  0  0  0  0  0  0
  182.4990  176.8380  137.6350 O   0  0  0  0  0  0  0  0  0  0  0  0
  181.3200  177.1730  137.9310 C   0  0  0  0  0  0  0  0  0  0  0  0
  180.3800  177.4990  136.9030 N   0  0  0  0  0  2  0  0  0  0  0  0
  180.7240  177.4640  135.4910 C   0  0  0  0  0  2  0  0  0  0  0  0
  179.9240  178.5150  134.7390 C   0  0  0  0  0  2  0  0  0  0  0  0
  180.7000  182.1450  135.6650 N   0  0  0  0  0  2  0  0  0  0  0  0
  180.5670  179.8180  134.8480 N   0  0  0  0  0  2  0  0  0  0  0  0
  179.1270  180.6320  136.5010 O   0  0  0  0  0  0  0  0  0  0  0  0
  180.0820  180.8560  135.7040 C   0  0  0  0  0  0  0  0  0  0  0  0
  180.1940  183.2790  136.4230 C   0  0  0  0  0  2  0  0  0  0  0  0
  180.8800  184.5560  135.9640 C   0  0  0  0  0  1  0  0  0  0  0  0
  185.6610  178.4600  140.4280 C   0  0  0  0  0  2  0  0  0  0  0  0
  185.1770  178.5580  138.9740 C   0  0  0  0  0  2  0  0  0  0  0  0
  185.9830  177.7640  138.1140 O   0  0  0  0  0  0  0  0  0  0  0  0
  187.2410  178.1810  137.6700 C   0  0  0  0  0  0  0  0  0  0  0  0
  187.3450  179.1040  136.8170 O   0  0  0  0  0  0  0  0  0  0  0  0
  188.4620  177.4970  138.1960 C   0  0  2  0  0  3  0  0  0  0  0  0
  189.0660  178.2460  139.2480 O   0  0  0  0  0  0  0  0  0  0  0  0
  191.4870  176.9280  141.7050 C   0  0  0  0  0  3  0  0  0  0  0  0
  190.6400  176.5140  142.7360 C   0  0  0  0  0  3  0  0  0  0  0  0
  189.5710  177.6620  140.4130 C   0  0  0  0  0  0  0  0  0  0  0  0
  189.2590  176.6660  142.6070 C   0  0  0  0  0  3  0  0  0  0  0  0
  190.9530  177.5000  140.5470 C   0  0  0  0  0  3  0  0  0  0  0  0
  188.7250  177.2370  141.4490 C   0  0  0  0  0  3  0  0  0  0  0  0
  189.4530  177.2940  137.0630 C   0  0  0  0  0  2  0  0  0  0  0  0
  190.0230  175.8790  137.0540 C   0  0  0  0  0  2  0  0  0  0  0  0
  192.4810  175.8850  136.4020 C   0  0  0  0  0  0  0  0  0  0  0  0
  193.8400  175.8090  136.8330 N   0  0  0  0  0  2  0  0  0  0  0  0
  191.4420  175.8840  137.3850 N   0  0  0  0  0  2  0  0  0  0  0  0
  192.2030  175.9540  135.1710 O   0  0  0  0  0  0  0  0  0  0  0  0
  194.9440  175.6070  135.9090 C   0  0  0  0  0  2  0  0  0  0  0  0
  195.3960  174.1860  135.9850 C   0  0  0  0  0  3  0  0  0  0  0  0
  196.6270  173.7900  136.3200 C   0  0  0  0  0  3  0  0  0  0  0  0
  197.7500  174.6600  136.7110 C   0  0  0  0  0  0  0  0  0  0  0  0
  198.9690  174.0410  137.2870 C   0  0  0  0  0  1  0  0  0  0  0  0
  197.6860  175.9140  136.6050 O   0  0  0  0  0  0  0  0  0  0  0  0
  2  7  1  0  0  0  0
  3  1  1  6  0  0  0
  3  2  1  0  0  0  0
  3  8  1  0  0  0  0
  4  6  1  0  0  0  0
  6  5  1  1  0  0  0
  7  6  1  0  0  0  0
  7  9  1  1  0  0  0
  8  4  1  0  0  0  0
  9 10  1  0  0  0  0
 11 10  1  0  0  0  0
 11 12  1  0  0  0  0
 13 14  1  0  0  0  0
 13  1  1  0  0  0  0
 15 14  1  0  0  0  0
 16 15  1  0  0  0  0
 17 18  2  0  0  0  0
 18 16  1  0  0  0  0
 19 18  1  0  0  0  0
 20 19  1  0  0  0  0
 21 23  1  0  0  0  0
 21 20  1  0  0  0  0
 22 25  1  0  0  0  0
 22 26  1  0  0  0  0
 23 25  1  0  0  0  0
 25 24  2  0  0  0  0
 27 26  1  0  0  0  0
 28  1  1  0  0  0  0
 29 28  1  0  0  0  0
 30 29  1  0  0  0  0
 31 30  1  0  0  0  0
 31 33  1  0  0  0  0
 32 31  2  0  0  0  0
 33 41  1  6  0  0  0
 33 34  1  0  0  0  0
 34 37  1  0  0  0  0
 35 36  1  0  0  0  0
 37 39  1  0  0  0  0
 37 40  2  0  0  0  0
 38 36  2  0  0  0  0
 39 35  2  0  0  0  0
 40 38  1  0  0  0  0
 42 41  1  0  0  0  0
 42 45  1  0  0  0  0
 43 44  1  0  0  0  0
 43 45  1  0  0  0  0
 46 43  2  0  0  0  0
 47 48  1  0  0  0  0
 47 44  1  0  0  0  0
 48 49  2  0  0  0  0
 49 50  1  0  0  0  0
 50 51  1  0  0  0  0
 52 50  2  0  0  0  0
M  END
>  <MODEL>
7

>  <REMARK>
 VINA RESULT:      -6.2      2.946      4.886
  Name = 
  26 active torsions:
  status: ('A' for Active; 'I' for Inactive)
    1  A    between atoms: C_1  and  N_24
    2  A    between atoms: C_1  and  C_28
    3  A    between atoms: O_2  and  C_12
    4  A    between atoms: O_2  and  C_21
    5  A    between atoms: N_3  and  C_20
    6  A    between atoms: C_5  and  C_8
    7  A    between atoms: C_5  and  N_43
    8  A    between atoms: C_7  and  C_11
    9  A    between atoms: C_8  and  N_22
   10  A    between atoms: C_10  and  N_13
   11  A    between atoms: C_11  and  C_49
   12  A    between atoms: C_12  and  C_48
   13  A    between atoms: N_13  and  C_36
   14  A    between atoms: N_13  and  C_48
   15  A    between atoms: C_16  and  O_40
   16  A    between atoms: C_19  and  C_38
   17  A    between atoms: C_21  and  C_42
   18  A    between atoms: N_27  and  C_31
   19  A    between atoms: C_31  and  C_47
   20  A    between atoms: C_35  and  C_36
   21  A    between atoms: C_35  and  C_37
   22  A    between atoms: C_37  and  C_45
   23  A    between atoms: C_39  and  C_45
   24  A    between atoms: O_40  and  C_42
   25  A    between atoms: C_42  and  C_47
   26  A    between atoms: C_49  and  C_50
                            x       y       z     vdW  Elec       q    Type
                         _______ _______ _______ _____ _____    ______ ____

>  <TORSDO>
F 26

$$$$
=
 OpenBabel10222417443D

 52 53  0  0  1  0  0  0  0  0999 V2000
  184.7170  178.5980  141.3660 N   0  0  0  0  0  0  0  0  0  0  0  0
  186.1340  178.2460  143.3570 C   0  0  0  0  0  2  0  0  0  0  0  0
  185.1940  179.2250  142.6150 C   0  0  2  0  0  3  0  0  0  0  0  0
  183.5360  178.5950  144.4230 C   0  0  0  0  0  2  0  0  0  0  0  0
  184.4590  178.8080  146.6170 O   0  0  0  0  0  1  0  0  0  0  0  0
  184.6280  178.1460  145.4010 C   0  0  2  0  0  3  0  0  0  0  0  0
  186.0570  178.3840  144.8820 C   0  0  1  0  0  3  0  0  0  0  0  0
  184.0360  179.7120  143.5140 C   0  0  0  0  0  2  0  0  0  0  0  0
  187.0040  177.3950  145.5410 C   0  0  0  0  0  2  0  0  0  0  0  0
  187.7350  178.0630  146.6890 C   0  0  0  0  0  2  0  0  0  0  0  0
  189.2350  177.8850  146.5460 C   0  0  0  0  0  2  0  0  0  0  0  0
  189.6360  176.4610  146.9040 C   0  0  0  0  0  1  0  0  0  0  0  0
  183.4810  179.2120  140.8790 C   0  0  0  0  0  2  0  0  0  0  0  0
  182.3080  178.3000  141.1700 C   0  0  0  0  0  2  0  0  0  0  0  0
  182.0570  177.4040  139.9730 C   0  0  0  0  0  2  0  0  0  0  0  0
  180.7340  177.7850  139.3280 C   0  0  0  0  0  2  0  0  0  0  0  0
  182.0940  178.0830  137.3930 O   0  0  0  0  0  0  0  0  0  0  0  0
  180.9370  178.1330  137.8900 C   0  0  0  0  0  0  0  0  0  0  0  0
  179.8200  178.5310  137.0880 N   0  0  0  0  0  2  0  0  0  0  0  0
  179.9550  178.8900  135.6860 C   0  0  0  0  0  2  0  0  0  0  0  0
  179.1760  180.1650  135.4040 C   0  0  0  0  0  2  0  0  0  0  0  0
  181.0820  183.3900  136.1800 N   0  0  0  0  0  2  0  0  0  0  0  0
  180.0800  181.3040  135.3160 N   0  0  0  0  0  2  0  0  0  0  0  0
  179.7350  182.0240  137.5130 O   0  0  0  0  0  0  0  0  0  0  0  0
  180.2680  182.2330  136.3880 C   0  0  0  0  0  0  0  0  0  0  0  0
  181.2320  184.4320  137.1830 C   0  0  0  0  0  2  0  0  0  0  0  0
  180.0700  185.4090  137.0930 C   0  0  0  0  0  1  0  0  0  0  0  0
  185.7480  178.6820  140.3190 C   0  0  0  0  0  2  0  0  0  0  0  0
  185.2100  178.4690  138.8970 C   0  0  0  0  0  2  0  0  0  0  0  0
  186.0460  177.5850  138.1630 O   0  0  0  0  0  0  0  0  0  0  0  0
  187.3110  177.9580  137.7020 C   0  0  0  0  0  0  0  0  0  0  0  0
  187.4590  179.0070  137.0160 O   0  0  0  0  0  0  0  0  0  0  0  0
  188.4850  177.0830  138.0060 C   0  0  2  0  0  3  0  0  0  0  0  0
  189.5370  177.8200  138.6270 O   0  0  0  0  0  0  0  0  0  0  0  0
  191.4220  177.0000  141.6940 C   0  0  0  0  0  3  0  0  0  0  0  0
  190.5560  177.4680  142.6860 C   0  0  0  0  0  3  0  0  0  0  0  0
  189.8550  177.7050  139.9830 C   0  0  0  0  0  0  0  0  0  0  0  0
  189.3380  178.0490  142.3310 C   0  0  0  0  0  3  0  0  0  0  0  0
  191.0710  177.1190  140.3470 C   0  0  0  0  0  3  0  0  0  0  0  0
  188.9870  178.1660  140.9840 C   0  0  0  0  0  3  0  0  0  0  0  0
  188.9820  176.4430  136.7220 C   0  0  0  0  0  2  0  0  0  0  0  0
  188.5570  174.9820  136.6150 C   0  0  0  0  0  2  0  0  0  0  0  0
  186.3660  173.8350  137.2050 C   0  0  0  0  0  0  0  0  0  0  0  0
  184.9550  173.7600  137.0030 N   0  0  0  0  0  2  0  0  0  0  0  0
  187.1070  174.8620  136.5410 N   0  0  0  0  0  2  0  0  0  0  0  0
  186.9480  173.0070  137.9620 O   0  0  0  0  0  0  0  0  0  0  0  0
  184.1550  172.6410  137.4740 C   0  0  0  0  0  2  0  0  0  0  0  0
  183.3050  172.1360  136.3550 C   0  0  0  0  0  3  0  0  0  0  0  0
  181.9820  172.2950  136.2660 C   0  0  0  0  0  3  0  0  0  0  0  0
  181.1210  173.0180  137.2170 C   0  0  0  0  0  0  0  0  0  0  0  0
  181.4630  174.4170  137.5720 C   0  0  0  0  0  1  0  0  0  0  0  0
  180.1280  172.4690  137.7640 O   0  0  0  0  0  0  0  0  0  0  0  0
  2  7  1  0  0  0  0
  3  1  1  6  0  0  0
  3  2  1  0  0  0  0
  3  8  1  0  0  0  0
  4  6  1  0  0  0  0
  6  5  1  1  0  0  0
  7  6  1  0  0  0  0
  7  9  1  1  0  0  0
  8  4  1  0  0  0  0
  9 10  1  0  0  0  0
 11 10  1  0  0  0  0
 11 12  1  0  0  0  0
 13 14  1  0  0  0  0
 13  1  1  0  0  0  0
 15 14  1  0  0  0  0
 16 15  1  0  0  0  0
 17 18  2  0  0  0  0
 18 16  1  0  0  0  0
 19 18  1  0  0  0  0
 20 19  1  0  0  0  0
 21 20  1  0  0  0  0
 22 25  1  0  0  0  0
 22 26  1  0  0  0  0
 23 21  1  0  0  0  0
 23 25  1  0  0  0  0
 25 24  2  0  0  0  0
 27 26  1  0  0  0  0
 28  1  1  0  0  0  0
 29 28  1  0  0  0  0
 30 29  1  0  0  0  0
 31 33  1  0  0  0  0
 31 30  1  0  0  0  0
 32 31  2  0  0  0  0
 33 41  1  6  0  0  0
 33 34  1  0  0  0  0
 34 37  1  0  0  0  0
 35 36  1  0  0  0  0
 37 39  1  0  0  0  0
 37 40  2  0  0  0  0
 38 36  2  0  0  0  0
 39 35  2  0  0  0  0
 40 38  1  0  0  0  0
 42 41  1  0  0  0  0
 43 46  2  0  0  0  0
 44 43  1  0  0  0  0
 44 47  1  0  0  0  0
 45 42  1  0  0  0  0
 45 43  1  0  0  0  0
 48 47  1  0  0  0  0
 49 48  2  0  0  0  0
 49 50  1  0  0  0  0
 50 51  1  0  0  0  0
 50 52  2  0  0  0  0
M  END
>  <MODEL>
8

>  <REMARK>
 VINA RESULT:      -6.1      3.351      7.189
  Name = 
  26 active torsions:
  status: ('A' for Active; 'I' for Inactive)
    1  A    between atoms: C_1  and  N_24
    2  A    between atoms: C_1  and  C_28
    3  A    between atoms: O_2  and  C_12
    4  A    between atoms: O_2  and  C_21
    5  A    between atoms: N_3  and  C_20
    6  A    between atoms: C_5  and  C_8
    7  A    between atoms: C_5  and  N_43
    8  A    between atoms: C_7  and  C_11
    9  A    between atoms: C_8  and  N_22
   10  A    between atoms: C_10  and  N_13
   11  A    between atoms: C_11  and  C_49
   12  A    between atoms: C_12  and  C_48
   13  A    between atoms: N_13  and  C_36
   14  A    between atoms: N_13  and  C_48
   15  A    between atoms: C_16  and  O_40
   16  A    between atoms: C_19  and  C_38
   17  A    between atoms: C_21  and  C_42
   18  A    between atoms: N_27  and  C_31
   19  A    between atoms: C_31  and  C_47
   20  A    between atoms: C_35  and  C_36
   21  A    between atoms: C_35  and  C_37
   22  A    between atoms: C_37  and  C_45
   23  A    between atoms: C_39  and  C_45
   24  A    between atoms: O_40  and  C_42
   25  A    between atoms: C_42  and  C_47
   26  A    between atoms: C_49  and  C_50
                            x       y       z     vdW  Elec       q    Type
                         _______ _______ _______ _____ _____    ______ ____

>  <TORSDO>
F 26

$$$$
=
 OpenBabel10222417443D

 52 53  0  0  1  0  0  0  0  0999 V2000
  187.0780  177.5520  143.6560 N   0  0  0  0  0  0  0  0  0  0  0  0
  188.8710  177.6590  145.3510 C   0  0  0  0  0  2  0  0  0  0  0  0
  187.5690  178.3090  144.8250 C   0  0  2  0  0  3  0  0  0  0  0  0
  186.5190  177.2460  146.8710 C   0  0  0  0  0  2  0  0  0  0  0  0
  187.7200  177.7510  148.8750 O   0  0  0  0  0  1  0  0  0  0  0  0
  187.8520  177.1510  147.6220 C   0  0  2  0  0  3  0  0  0  0  0  0
  189.0320  177.7900  146.8700 C   0  0  1  0  0  3  0  0  0  0  0  0
  186.5000  178.4480  145.9330 C   0  0  0  0  0  2  0  0  0  0  0  0
  190.3280  177.1310  147.3120 C   0  0  0  0  0  2  0  0  0  0  0  0
  191.1180  176.6750  146.1000 C   0  0  0  0  0  2  0  0  0  0  0  0
  192.1540  175.6380  146.4950 C   0  0  0  0  0  2  0  0  0  0  0  0
  192.4060  175.6850  147.9960 C   0  0  0  0  0  1  0  0  0  0  0  0
  186.2360  178.3720  142.7830 C   0  0  0  0  0  2  0  0  0  0  0  0
  184.7840  178.2170  143.1820 C   0  0  0  0  0  2  0  0  0  0  0  0
  183.8980  178.7710  142.0840 C   0  0  0  0  0  2  0  0  0  0  0  0
  184.5860  178.5850  140.7410 C   0  0  0  0  0  2  0  0  0  0  0  0
  184.6160  180.1580  138.9490 O   0  0  0  0  0  0  0  0  0  0  0  0
  183.9190  179.4160  139.6940 C   0  0  0  0  0  0  0  0  0  0  0  0
  182.4960  179.3740  139.5490 N   0  0  0  0  0  2  0  0  0  0  0  0
  181.7900  180.1670  138.5560 C   0  0  0  0  0  2  0  0  0  0  0  0
  180.8960  179.2650  137.7190 C   0  0  0  0  0  2  0  0  0  0  0  0
  182.4650  175.9500  136.6320 N   0  0  0  0  0  2  0  0  0  0  0  0
  181.6920  178.2630  137.0230 N   0  0  0  0  0  2  0  0  0  0  0  0
  180.6540  176.4260  138.0300 O   0  0  0  0  0  0  0  0  0  0  0  0
  181.5650  176.8590  137.2690 C   0  0  0  0  0  0  0  0  0  0  0  0
  182.4680  174.5240  136.9160 C   0  0  0  0  0  2  0  0  0  0  0  0
  183.6250  174.1830  137.8430 C   0  0  0  0  0  1  0  0  0  0  0  0
  188.2060  177.0130  142.8790 C   0  0  0  0  0  2  0  0  0  0  0  0
  188.9500  178.0680  142.0480 C   0  0  0  0  0  2  0  0  0  0  0  0
  188.9870  177.7020  140.6750 O   0  0  0  0  0  0  0  0  0  0  0  0
  190.0770  177.0430  140.1030 C   0  0  0  0  0  0  0  0  0  0  0  0
  190.5720  176.0230  140.6570 O   0  0  0  0  0  0  0  0  0  0  0  0
  190.6720  177.5800  138.8410 C   0  0  2  0  0  3  0  0  0  0  0  0
  189.7110  178.3100  138.0810 O   0  0  0  0  0  0  0  0  0  0  0  0
  187.7240  176.9060  135.3040 C   0  0  0  0  0  3  0  0  0  0  0  0
  186.5760  176.4730  135.9730 C   0  0  0  0  0  3  0  0  0  0  0  0
  188.6550  177.7030  137.3960 C   0  0  0  0  0  0  0  0  0  0  0  0
  186.4610  176.6600  137.3520 C   0  0  0  0  0  3  0  0  0  0  0  0
  188.7590  177.5190  136.0140 C   0  0  0  0  0  3  0  0  0  0  0  0
  187.4960  177.2740  138.0620 C   0  0  0  0  0  3  0  0  0  0  0  0
  191.2260  176.4320  138.0160 C   0  0  0  0  0  2  0  0  0  0  0  0
  192.7440  176.5100  137.8820 C   0  0  0  0  0  2  0  0  0  0  0  0
  194.5080  174.9030  137.0040 C   0  0  0  0  0  0  0  0  0  0  0  0
  194.9530  173.5520  136.8870 N   0  0  0  0  0  2  0  0  0  0  0  0
  193.3280  175.1800  137.7630 N   0  0  0  0  0  2  0  0  0  0  0  0
  195.1510  175.8380  136.4480 O   0  0  0  0  0  0  0  0  0  0  0  0
  196.0190  173.1540  135.9830 C   0  0  0  0  0  2  0  0  0  0  0  0
  197.2170  172.7520  136.7780 C   0  0  0  0  0  3  0  0  0  0  0  0
  197.4420  171.5260  137.2590 C   0  0  0  0  0  3  0  0  0  0  0  0
  196.5880  170.3410  137.0690 C   0  0  0  0  0  0  0  0  0  0  0  0
  196.6110  169.6430  135.7610 C   0  0  0  0  0  1  0  0  0  0  0  0
  195.8120  169.9310  137.9740 O   0  0  0  0  0  0  0  0  0  0  0  0
  2  7  1  0  0  0  0
  3  1  1  6  0  0  0
  3  2  1  0  0  0  0
  3  8  1  0  0  0  0
  4  6  1  0  0  0  0
  6  5  1  1  0  0  0
  7  9  1  1  0  0  0
  7  6  1  0  0  0  0
  8  4  1  0  0  0  0
 10 11  1  0  0  0  0
 10  9  1  0  0  0  0
 11 12  1  0  0  0  0
 13 14  1  0  0  0  0
 13  1  1  0  0  0  0
 15 14  1  0  0  0  0
 16 15  1  0  0  0  0
 17 18  2  0  0  0  0
 18 16  1  0  0  0  0
 19 18  1  0  0  0  0
 20 19  1  0  0  0  0
 21 20  1  0  0  0  0
 22 26  1  0  0  0  0
 22 25  1  0  0  0  0
 23 25  1  0  0  0  0
 23 21  1  0  0  0  0
 25 24  2  0  0  0  0
 26 27  1  0  0  0  0
 28  1  1  0  0  0  0
 29 28  1  0  0  0  0
 30 29  1  0  0  0  0
 31 32  2  0  0  0  0
 31 30  1  0  0  0  0
 33 41  1  6  0  0  0
 33 31  1  0  0  0  0
 34 33  1  0  0  0  0
 35 36  2  0  0  0  0
 35 39  1  0  0  0  0
 36 38  1  0  0  0  0
 37 40  1  0  0  0  0
 37 34  1  0  0  0  0
 38 40  2  0  0  0  0
 39 37  2  0  0  0  0
 42 41  1  0  0  0  0
 43 45  1  0  0  0  0
 44 43  1  0  0  0  0
 45 42  1  0  0  0  0
 46 43  2  0  0  0  0
 47 48  1  0  0  0  0
 47 44  1  0  0  0  0
 48 49  2  0  0  0  0
 50 49  1  0  0  0  0
 50 52  2  0  0  0  0
 51 50  1  0  0  0  0
M  END
>  <MODEL>
9

>  <REMARK>
 VINA RESULT:      -6.1      2.717      4.534
  Name = 
  26 active torsions:
  status: ('A' for Active; 'I' for Inactive)
    1  A    between atoms: C_1  and  N_24
    2  A    between atoms: C_1  and  C_28
    3  A    between atoms: O_2  and  C_12
    4  A    between atoms: O_2  and  C_21
    5  A    between atoms: N_3  and  C_20
    6  A    between atoms: C_5  and  C_8
    7  A    between atoms: C_5  and  N_43
    8  A    between atoms: C_7  and  C_11
    9  A    between atoms: C_8  and  N_22
   10  A    between atoms: C_10  and  N_13
   11  A    between atoms: C_11  and  C_49
   12  A    between atoms: C_12  and  C_48
   13  A    between atoms: N_13  and  C_36
   14  A    between atoms: N_13  and  C_48
   15  A    between atoms: C_16  and  O_40
   16  A    between atoms: C_19  and  C_38
   17  A    between atoms: C_21  and  C_42
   18  A    between atoms: N_27  and  C_31
   19  A    between atoms: C_31  and  C_47
   20  A    between atoms: C_35  and  C_36
   21  A    between atoms: C_35  and  C_37
   22  A    between atoms: C_37  and  C_45
   23  A    between atoms: C_39  and  C_45
   24  A    between atoms: O_40  and  C_42
   25  A    between atoms: C_42  and  C_47
   26  A    between atoms: C_49  and  C_50
                            x       y       z     vdW  Elec       q    Type
                         _______ _______ _______ _____ _____    ______ ____

>  <TORSDO>
F 26

$$$$
