=
 OpenBabel10222418063D

 35 36  0  0  1  0  0  0  0  0999 V2000
  191.3740  177.7530  142.1670 O   0  0  0  0  0  0  0  0  0  0  0  0
  190.3650  176.8860  141.8990 C   0  0  1  0  0  3  0  0  0  0  0  0
  190.1130  178.1100  142.6250 N   0  0  0  0  0  0  0  0  0  0  0  0
  189.9260  177.0570  140.4610 C   0  0  0  0  0  2  0  0  0  0  0  0
  190.6860  176.1540  139.6130 N   0  0  0  0  0  2  0  0  0  0  0  0
  190.9370  174.7820  137.7690 O   0  0  0  0  0  0  0  0  0  0  0  0
  190.3130  175.7450  138.2890 C   0  0  0  0  0  0  0  0  0  0  0  0
  187.1410  178.5590  136.9940 C   0  0  0  0  0  3  0  0  0  0  0  0
  188.0310  175.6350  137.1110 C   0  0  0  0  0  3  0  0  0  0  0  0
  189.3900  177.6570  137.1920 N   0  0  0  0  0  0  0  0  0  0  0  0
  188.4820  178.4300  136.3550 C   0  0  0  0  0  2  0  0  0  0  0  0
  189.2390  176.4010  137.5030 C   0  0  0  0  0  0  0  0  0  0  0  0
  186.3720  177.5070  137.2730 C   0  0  0  0  0  0  0  0  0  0  0  0
  186.7840  176.1130  137.0150 C   0  0  0  0  0  3  0  0  0  0  0  0
  184.9940  177.7510  137.7790 C   0  0  0  0  0  2  0  0  0  0  0  0
  185.0260  177.9690  139.2160 N   0  0  0  0  0  2  0  0  0  0  0  0
  184.7250  179.2390  139.7950 C   0  0  0  0  0  0  0  0  0  0  0  0
  184.4300  180.2200  139.0560 O   0  0  0  0  0  0  0  0  0  0  0  0
  185.9440  179.1360  141.9280 C   0  0  0  0  0  1  0  0  0  0  0  0
  184.7620  179.3810  141.1820 O   0  0  0  0  0  0  0  0  0  0  0  0
  190.0540  177.7850  143.9950 N   0  0  0  0  0  0  0  0  0  0  0  0
  187.7800  177.1630  144.5270 C   0  0  0  0  0  3  0  0  0  0  0  0
  188.8370  177.9410  144.7380 C   0  0  0  0  0  3  0  0  0  0  0  0
  186.5250  177.3520  145.3120 C   0  0  0  0  0  2  0  0  0  0  0  0
  186.7570  178.2700  146.5050 C   0  0  2  0  0  3  0  0  0  0  0  0
  188.0200  178.2810  148.3240 C   0  0  0  0  0  1  0  0  0  0  0  0
  187.1000  177.5010  147.6210 O   0  0  0  0  0  0  0  0  0  0  0  0
  185.5470  179.0250  146.7890 N   0  0  0  0  0  2  0  0  0  0  0  0
  184.6720  178.8770  145.6380 C   0  0  0  0  0  1  0  0  0  0  0  0
  191.2850  177.6030  144.7540 C   0  0  0  0  0  2  0  0  0  0  0  0
  192.1150  175.3680  144.5330 O   0  0  0  0  0  1  0  0  0  0  0  0
  191.3460  176.2020  145.3450 C   0  0  1  0  0  3  0  0  0  0  0  0
  192.8350  175.2800  147.1160 O   0  0  0  0  0  0  0  0  0  0  0  0
  191.5740  177.1480  147.5310 O   0  0  0  0  0  1  0  0  0  0  0  0
  191.9240  176.2490  146.7200 C   0  0  0  0  0  0  0  0  0  0  0  0
  1  3  1  0  0  0  0
  2  4  1  6  0  0  0
  2  1  1  0  0  0  0
  2  3  1  0  0  0  0
  3 21  1  0  0  0  0
  5  4  1  0  0  0  0
  6  7  2  0  0  0  0
  7  5  1  0  0  0  0
  8 13  2  0  0  0  0
  9 12  1  0  0  0  0
 10 12  2  0  0  0  0
 11  8  1  0  0  0  0
 11 10  1  0  0  0  0
 12  7  1  0  0  0  0
 13 15  1  0  0  0  0
 14  9  2  0  0  0  0
 14 13  1  0  0  0  0
 15 16  1  0  0  0  0
 16 17  1  0  0  0  0
 17 20  1  0  0  0  0
 18 17  2  0  0  0  0
 20 19  1  0  0  0  0
 21 23  1  0  0  0  0
 21 30  1  0  0  0  0
 22 23  2  0  0  0  0
 22 24  1  0  0  0  0
 25 24  1  6  0  0  0
 25 28  1  0  0  0  0
 25 27  1  0  0  0  0
 27 26  1  0  0  0  0
 29 28  1  0  0  0  0
 30 32  1  0  0  0  0
 32 31  1  6  0  0  0
 32 35  1  0  0  0  0
 35 33  2  0  0  0  0
 35 34  1  0  0  0  0
M  END
>  <MODEL>
1

>  <REMARK>
 VINA RESULT:      -7.4      0.000      0.000
  Name = 
  15 active torsions:
  status: ('A' for Active; 'I' for Inactive)
    1  A    between atoms: N_1  and  C_34
    2  A    between atoms: N_2  and  C_3
    3  A    between atoms: C_3  and  C_17
    4  A    between atoms: N_6  and  C_19
    5  A    between atoms: C_8  and  C_24
    6  A    between atoms: C_8  and  N_25
    7  A    between atoms: C_13  and  O_31
    8  A    between atoms: O_16  and  C_19
    9  A    between atoms: C_19  and  C_21
   10  A    between atoms: C_20  and  C_35
   11  A    between atoms: C_21  and  C_22
   12  A    between atoms: C_24  and  C_30
   13  A    between atoms: N_25  and  N_26
   14  A    between atoms: N_25  and  C_27
   15  A    between atoms: C_32  and  C_34
                            x       y       z     vdW  Elec       q    Type
                         _______ _______ _______ _____ _____    ______ ____

>  <TORSDO>
F 15

$$$$
=
 OpenBabel10222418063D

 35 36  0  0  1  0  0  0  0  0999 V2000
  190.2130  176.6390  141.3290 O   0  0  0  0  0  0  0  0  0  0  0  0
  189.2410  177.2220  140.5830 C   0  0  1  0  0  3  0  0  0  0  0  0
  189.5750  177.7360  141.8910 N   0  0  0  0  0  0  0  0  0  0  0  0
  189.8780  178.0950  139.5230 C   0  0  0  0  0  2  0  0  0  0  0  0
  188.8400  178.7980  138.7870 N   0  0  0  0  0  2  0  0  0  0  0  0
  187.6100  179.2450  136.8830 O   0  0  0  0  0  0  0  0  0  0  0  0
  188.3300  178.4180  137.5020 C   0  0  0  0  0  0  0  0  0  0  0  0
  189.1840  174.1060  136.9160 C   0  0  0  0  0  3  0  0  0  0  0  0
  189.7410  176.9490  135.9330 C   0  0  0  0  0  3  0  0  0  0  0  0
  187.8240  176.1050  137.1790 N   0  0  0  0  0  0  0  0  0  0  0  0
  187.8920  174.7740  136.5900 C   0  0  0  0  0  2  0  0  0  0  0  0
  188.6020  177.1020  136.8700 C   0  0  0  0  0  0  0  0  0  0  0  0
  190.3640  174.5970  136.5350 C   0  0  0  0  0  0  0  0  0  0  0  0
  190.5110  175.8620  135.7910 C   0  0  0  0  0  3  0  0  0  0  0  0
  191.5840  173.7840  136.7870 C   0  0  0  0  0  2  0  0  0  0  0  0
  192.5010  174.5190  137.6440 N   0  0  0  0  0  2  0  0  0  0  0  0
  193.9170  174.4500  137.4710 C   0  0  0  0  0  0  0  0  0  0  0  0
  194.4120  173.7280  136.5610 O   0  0  0  0  0  0  0  0  0  0  0  0
  195.6030  174.5640  139.2570 C   0  0  0  0  0  1  0  0  0  0  0  0
  194.7420  175.1890  138.3180 O   0  0  0  0  0  0  0  0  0  0  0  0
  188.6120  177.2460  142.7970 N   0  0  0  0  0  0  0  0  0  0  0  0
  186.5660  177.7770  143.9670 C   0  0  0  0  0  3  0  0  0  0  0  0
  187.2990  177.8200  142.8600 C   0  0  0  0  0  3  0  0  0  0  0  0
  185.2000  178.3790  144.0030 C   0  0  0  0  0  2  0  0  0  0  0  0
  184.7180  178.5580  145.4360 C   0  0  2  0  0  3  0  0  0  0  0  0
  183.0240  179.0440  144.0950 C   0  0  0  0  0  1  0  0  0  0  0  0
  183.4350  179.1140  145.4270 O   0  0  0  0  0  0  0  0  0  0  0  0
  185.6240  179.4410  146.1530 N   0  0  0  0  0  2  0  0  0  0  0  0
  186.0890  178.7170  147.3240 C   0  0  0  0  0  1  0  0  0  0  0  0
  189.0220  176.3850  143.8990 C   0  0  0  0  0  2  0  0  0  0  0  0
  189.1510  177.0500  146.1960 O   0  0  0  0  0  1  0  0  0  0  0  0
  189.7710  177.1870  144.9530 C   0  0  1  0  0  3  0  0  0  0  0  0
  191.6980  175.8920  144.0520 O   0  0  0  0  0  0  0  0  0  0  0  0
  191.9170  177.0710  146.0050 O   0  0  0  0  0  1  0  0  0  0  0  0
  191.1880  176.7270  145.0370 C   0  0  0  0  0  0  0  0  0  0  0  0
  1  3  1  0  0  0  0
  2  4  1  6  0  0  0
  2  1  1  0  0  0  0
  2  3  1  0  0  0  0
  3 21  1  0  0  0  0
  5  4  1  0  0  0  0
  6  7  2  0  0  0  0
  7  5  1  0  0  0  0
  9 12  1  0  0  0  0
 11  8  1  0  0  0  0
 11 10  1  0  0  0  0
 12 10  2  0  0  0  0
 12  7  1  0  0  0  0
 13 15  1  0  0  0  0
 13  8  2  0  0  0  0
 14  9  2  0  0  0  0
 14 13  1  0  0  0  0
 15 16  1  0  0  0  0
 17 16  1  0  0  0  0
 17 20  1  0  0  0  0
 18 17  2  0  0  0  0
 20 19  1  0  0  0  0
 21 23  1  0  0  0  0
 21 30  1  0  0  0  0
 22 24  1  0  0  0  0
 23 22  2  0  0  0  0
 25 24  1  6  0  0  0
 25 28  1  0  0  0  0
 26 27  1  0  0  0  0
 27 25  1  0  0  0  0
 28 29  1  0  0  0  0
 30 32  1  0  0  0  0
 32 35  1  0  0  0  0
 32 31  1  1  0  0  0
 33 35  2  0  0  0  0
 35 34  1  0  0  0  0
M  END
>  <MODEL>
2

>  <REMARK>
 VINA RESULT:      -6.7      2.370      5.144
  Name = 
  15 active torsions:
  status: ('A' for Active; 'I' for Inactive)
    1  A    between atoms: N_1  and  C_34
    2  A    between atoms: N_2  and  C_3
    3  A    between atoms: C_3  and  C_17
    4  A    between atoms: N_6  and  C_19
    5  A    between atoms: C_8  and  C_24
    6  A    between atoms: C_8  and  N_25
    7  A    between atoms: C_13  and  O_31
    8  A    between atoms: O_16  and  C_19
    9  A    between atoms: C_19  and  C_21
   10  A    between atoms: C_20  and  C_35
   11  A    between atoms: C_21  and  C_22
   12  A    between atoms: C_24  and  C_30
   13  A    between atoms: N_25  and  N_26
   14  A    between atoms: N_25  and  C_27
   15  A    between atoms: C_32  and  C_34
                            x       y       z     vdW  Elec       q    Type
                         _______ _______ _______ _____ _____    ______ ____

>  <TORSDO>
F 15

$$$$
=
 OpenBabel10222418063D

 35 36  0  0  1  0  0  0  0  0999 V2000
  184.7720  179.8210  140.1690 O   0  0  0  0  0  0  0  0  0  0  0  0
  184.9410  178.6610  140.8510 C   0  0  1  0  0  3  0  0  0  0  0  0
  185.7800  178.9800  139.7190 N   0  0  0  0  0  0  0  0  0  0  0  0
  185.6990  178.9380  142.1320 C   0  0  0  0  0  2  0  0  0  0  0  0
  184.7690  179.3730  143.1600 N   0  0  0  0  0  2  0  0  0  0  0  0
  183.7810  179.2160  145.2440 O   0  0  0  0  0  0  0  0  0  0  0  0
  184.7820  178.9440  144.5280 C   0  0  0  0  0  0  0  0  0  0  0  0
  188.5520  177.9970  146.6630 C   0  0  0  0  0  3  0  0  0  0  0  0
  186.7210  177.2680  144.3240 C   0  0  0  0  0  3  0  0  0  0  0  0
  186.1720  178.4190  146.4000 N   0  0  0  0  0  0  0  0  0  0  0  0
  187.1820  177.7190  147.1820 C   0  0  0  0  0  2  0  0  0  0  0  0
  185.9130  178.2040  145.1420 C   0  0  0  0  0  0  0  0  0  0  0  0
  188.9340  177.6710  145.4290 C   0  0  0  0  0  0  0  0  0  0  0  0
  188.0340  177.0390  144.4440 C   0  0  0  0  0  3  0  0  0  0  0  0
  190.3620  177.8630  145.0540 C   0  0  0  0  0  2  0  0  0  0  0  0
  190.4700  178.1160  143.6260 N   0  0  0  0  0  2  0  0  0  0  0  0
  191.1800  177.2360  142.7540 C   0  0  0  0  0  0  0  0  0  0  0  0
  191.7480  176.2060  143.2150 O   0  0  0  0  0  0  0  0  0  0  0  0
  190.4380  176.8350  140.4440 C   0  0  0  0  0  1  0  0  0  0  0  0
  191.2360  177.5280  141.3920 O   0  0  0  0  0  0  0  0  0  0  0  0
  185.2770  178.2750  138.6070 N   0  0  0  0  0  0  0  0  0  0  0  0
  183.0330  177.9060  137.7900 C   0  0  0  0  0  3  0  0  0  0  0  0
  183.9990  177.6280  138.6600 C   0  0  0  0  0  3  0  0  0  0  0  0
  181.7100  177.2200  137.8730 C   0  0  0  0  0  2  0  0  0  0  0  0
  181.4350  176.7280  139.2880 C   0  0  2  0  0  3  0  0  0  0  0  0
  179.8040  175.4290  138.5450 C   0  0  0  0  0  1  0  0  0  0  0  0
  181.0130  175.3970  139.2420 O   0  0  0  0  0  0  0  0  0  0  0  0
  180.4000  177.5450  139.9000 N   0  0  0  0  0  2  0  0  0  0  0  0
  181.0440  178.3620  140.9140 C   0  0  0  0  0  1  0  0  0  0  0  0
  186.1690  177.9100  137.5130 C   0  0  0  0  0  2  0  0  0  0  0  0
  187.7320  176.1100  137.7410 O   0  0  0  0  0  1  0  0  0  0  0  0
  187.5170  177.4530  138.0520 C   0  0  1  0  0  3  0  0  0  0  0  0
  188.9420  179.4960  138.0840 O   0  0  0  0  0  1  0  0  0  0  0  0
  189.2170  177.9260  136.4370 O   0  0  0  0  0  0  0  0  0  0  0  0
  188.6100  178.2910  137.4790 C   0  0  0  0  0  0  0  0  0  0  0  0
  1  2  1  0  0  0  0
  2  4  1  1  0  0  0
  3  1  1  0  0  0  0
  3  2  1  0  0  0  0
  4  5  1  0  0  0  0
  5  7  1  0  0  0  0
  7 12  1  0  0  0  0
  7  6  2  0  0  0  0
  8 11  1  0  0  0  0
  9 14  2  0  0  0  0
  9 12  1  0  0  0  0
 10 11  1  0  0  0  0
 12 10  2  0  0  0  0
 13  8  2  0  0  0  0
 14 13  1  0  0  0  0
 15 13  1  0  0  0  0
 16 15  1  0  0  0  0
 17 18  2  0  0  0  0
 17 16  1  0  0  0  0
 19 20  1  0  0  0  0
 20 17  1  0  0  0  0
 21 23  1  0  0  0  0
 21  3  1  0  0  0  0
 22 24  1  0  0  0  0
 22 23  2  0  0  0  0
 25 24  1  6  0  0  0
 25 28  1  0  0  0  0
 26 27  1  0  0  0  0
 27 25  1  0  0  0  0
 28 29  1  0  0  0  0
 30 32  1  0  0  0  0
 30 21  1  0  0  0  0
 32 31  1  6  0  0  0
 34 35  2  0  0  0  0
 35 32  1  0  0  0  0
 35 33  1  0  0  0  0
M  END
>  <MODEL>
3

>  <REMARK>
 VINA RESULT:      -6.4      2.624      8.641
  Name = 
  15 active torsions:
  status: ('A' for Active; 'I' for Inactive)
    1  A    between atoms: N_1  and  C_34
    2  A    between atoms: N_2  and  C_3
    3  A    between atoms: C_3  and  C_17
    4  A    between atoms: N_6  and  C_19
    5  A    between atoms: C_8  and  C_24
    6  A    between atoms: C_8  and  N_25
    7  A    between atoms: C_13  and  O_31
    8  A    between atoms: O_16  and  C_19
    9  A    between atoms: C_19  and  C_21
   10  A    between atoms: C_20  and  C_35
   11  A    between atoms: C_21  and  C_22
   12  A    between atoms: C_24  and  C_30
   13  A    between atoms: N_25  and  N_26
   14  A    between atoms: N_25  and  C_27
   15  A    between atoms: C_32  and  C_34
                            x       y       z     vdW  Elec       q    Type
                         _______ _______ _______ _____ _____    ______ ____

>  <TORSDO>
F 15

$$$$
=
 OpenBabel10222418063D

 35 36  0  0  1  0  0  0  0  0999 V2000
  189.5340  177.0440  141.3540 O   0  0  0  0  0  0  0  0  0  0  0  0
  190.7900  176.6080  141.6250 C   0  0  1  0  0  3  0  0  0  0  0  0
  190.5550  177.5770  140.5800 N   0  0  0  0  0  0  0  0  0  0  0  0
  191.3110  177.3140  142.8580 C   0  0  0  0  0  2  0  0  0  0  0  0
  191.7960  176.3300  143.8110 N   0  0  0  0  0  2  0  0  0  0  0  0
  192.1610  175.5440  145.9540 O   0  0  0  0  0  0  0  0  0  0  0  0
  191.4860  176.3060  145.2110 C   0  0  0  0  0  0  0  0  0  0  0  0
  187.9250  177.5420  147.5460 C   0  0  0  0  0  3  0  0  0  0  0  0
  189.5210  177.9450  144.9680 C   0  0  0  0  0  3  0  0  0  0  0  0
  190.2740  177.0810  147.1190 N   0  0  0  0  0  0  0  0  0  0  0  0
  189.3350  177.8840  147.8920 C   0  0  0  0  0  2  0  0  0  0  0  0
  190.4110  177.1250  145.8250 C   0  0  0  0  0  0  0  0  0  0  0  0
  187.4250  177.7010  146.3210 C   0  0  0  0  0  0  0  0  0  0  0  0
  188.2220  178.1920  145.1800 C   0  0  0  0  0  3  0  0  0  0  0  0
  185.9710  177.4650  146.1130 C   0  0  0  0  0  2  0  0  0  0  0  0
  185.5670  177.9780  144.8130 N   0  0  0  0  0  2  0  0  0  0  0  0
  184.4330  178.8310  144.6570 C   0  0  0  0  0  0  0  0  0  0  0  0
  183.7390  179.1570  145.6600 O   0  0  0  0  0  0  0  0  0  0  0  0
  184.3730  178.5400  142.2160 C   0  0  0  0  0  1  0  0  0  0  0  0
  184.1060  179.2990  143.3850 O   0  0  0  0  0  0  0  0  0  0  0  0
  190.5610  176.8860  139.3520 N   0  0  0  0  0  0  0  0  0  0  0  0
  192.1830  175.7350  137.9800 C   0  0  0  0  0  3  0  0  0  0  0  0
  191.7320  176.8600  138.5250 C   0  0  0  0  0  3  0  0  0  0  0  0
  193.4080  175.7370  137.1270 C   0  0  0  0  0  2  0  0  0  0  0  0
  194.3420  174.5960  137.5080 C   0  0  2  0  0  3  0  0  0  0  0  0
  195.7690  174.0810  139.1210 C   0  0  0  0  0  1  0  0  0  0  0  0
  195.4210  175.1030  138.2370 O   0  0  0  0  0  0  0  0  0  0  0  0
  194.8340  173.9410  136.3060 N   0  0  0  0  0  2  0  0  0  0  0  0
  195.6350  174.9160  135.5860 C   0  0  0  0  0  1  0  0  0  0  0  0
  189.3020  176.4700  138.7460 C   0  0  0  0  0  2  0  0  0  0  0  0
  188.8140  177.1630  136.5070 O   0  0  0  0  0  1  0  0  0  0  0  0
  188.7560  177.5650  137.8420 C   0  0  1  0  0  3  0  0  0  0  0  0
  186.3080  177.4800  137.3940 O   0  0  0  0  0  0  0  0  0  0  0  0
  187.0990  178.5450  139.2620 O   0  0  0  0  0  1  0  0  0  0  0  0
  187.3480  177.8870  138.2170 C   0  0  0  0  0  0  0  0  0  0  0  0
  1  2  1  0  0  0  0
  2  4  1  1  0  0  0
  3  1  1  0  0  0  0
  3  2  1  0  0  0  0
  4  5  1  0  0  0  0
  5  7  1  0  0  0  0
  7 12  1  0  0  0  0
  7  6  2  0  0  0  0
  8 11  1  0  0  0  0
  9 14  2  0  0  0  0
  9 12  1  0  0  0  0
 10 11  1  0  0  0  0
 12 10  2  0  0  0  0
 13  8  2  0  0  0  0
 14 13  1  0  0  0  0
 15 13  1  0  0  0  0
 16 15  1  0  0  0  0
 17 16  1  0  0  0  0
 17 18  2  0  0  0  0
 19 20  1  0  0  0  0
 20 17  1  0  0  0  0
 21  3  1  0  0  0  0
 22 23  2  0  0  0  0
 23 21  1  0  0  0  0
 24 22  1  0  0  0  0
 25 24  1  6  0  0  0
 25 27  1  0  0  0  0
 27 26  1  0  0  0  0
 28 25  1  0  0  0  0
 29 28  1  0  0  0  0
 30 21  1  0  0  0  0
 32 31  1  6  0  0  0
 32 35  1  0  0  0  0
 32 30  1  0  0  0  0
 33 35  2  0  0  0  0
 35 34  1  0  0  0  0
M  END
>  <MODEL>
4

>  <REMARK>
 VINA RESULT:      -6.4      2.766      8.749
  Name = 
  15 active torsions:
  status: ('A' for Active; 'I' for Inactive)
    1  A    between atoms: N_1  and  C_34
    2  A    between atoms: N_2  and  C_3
    3  A    between atoms: C_3  and  C_17
    4  A    between atoms: N_6  and  C_19
    5  A    between atoms: C_8  and  C_24
    6  A    between atoms: C_8  and  N_25
    7  A    between atoms: C_13  and  O_31
    8  A    between atoms: O_16  and  C_19
    9  A    between atoms: C_19  and  C_21
   10  A    between atoms: C_20  and  C_35
   11  A    between atoms: C_21  and  C_22
   12  A    between atoms: C_24  and  C_30
   13  A    between atoms: N_25  and  N_26
   14  A    between atoms: N_25  and  C_27
   15  A    between atoms: C_32  and  C_34
                            x       y       z     vdW  Elec       q    Type
                         _______ _______ _______ _____ _____    ______ ____

>  <TORSDO>
F 15

$$$$
=
 OpenBabel10222418063D

 35 36  0  0  1  0  0  0  0  0999 V2000
  183.7880  179.3160  140.9100 O   0  0  0  0  0  0  0  0  0  0  0  0
  184.9090  178.6570  141.2970 C   0  0  1  0  0  3  0  0  0  0  0  0
  184.8970  179.4460  140.0870 N   0  0  0  0  0  0  0  0  0  0  0  0
  185.5950  179.4360  142.3980 C   0  0  0  0  0  2  0  0  0  0  0  0
  184.6570  179.6640  143.4850 N   0  0  0  0  0  2  0  0  0  0  0  0
  183.6960  179.1380  145.5200 O   0  0  0  0  0  0  0  0  0  0  0  0
  184.7000  179.0250  144.7680 C   0  0  0  0  0  0  0  0  0  0  0  0
  188.7060  177.9430  146.3300 C   0  0  0  0  0  3  0  0  0  0  0  0
  186.4540  177.1800  144.4070 C   0  0  0  0  0  3  0  0  0  0  0  0
  186.3520  178.5410  146.4260 N   0  0  0  0  0  0  0  0  0  0  0  0
  187.4310  177.8240  147.0930 C   0  0  0  0  0  2  0  0  0  0  0  0
  185.8660  178.2450  145.2540 C   0  0  0  0  0  0  0  0  0  0  0  0
  188.8470  177.4850  145.0870 C   0  0  0  0  0  0  0  0  0  0  0  0
  187.7490  176.8520  144.3290 C   0  0  0  0  0  3  0  0  0  0  0  0
  190.1980  177.5240  144.4650 C   0  0  0  0  0  2  0  0  0  0  0  0
  190.0800  177.7730  143.0370 N   0  0  0  0  0  2  0  0  0  0  0  0
  190.2110  176.7280  142.0740 C   0  0  0  0  0  0  0  0  0  0  0  0
  190.4460  175.5450  142.4480 O   0  0  0  0  0  0  0  0  0  0  0  0
  191.1980  177.1350  139.8590 C   0  0  0  0  0  1  0  0  0  0  0  0
  190.0740  177.0300  140.7200 O   0  0  0  0  0  0  0  0  0  0  0  0
  184.7270  178.5600  139.0040 N   0  0  0  0  0  0  0  0  0  0  0  0
  186.9740  177.8680  138.4470 C   0  0  0  0  0  3  0  0  0  0  0  0
  185.7870  178.3290  138.0660 C   0  0  0  0  0  3  0  0  0  0  0  0
  188.0610  177.6420  137.4490 C   0  0  0  0  0  2  0  0  0  0  0  0
  187.7680  176.4200  136.5890 C   0  0  2  0  0  3  0  0  0  0  0  0
  186.3950  174.6910  136.7640 C   0  0  0  0  0  1  0  0  0  0  0  0
  187.4480  175.3380  137.4140 O   0  0  0  0  0  0  0  0  0  0  0  0
  188.9370  176.0900  135.7880 N   0  0  0  0  0  2  0  0  0  0  0  0
  190.0580  176.8260  136.3470 C   0  0  0  0  0  1  0  0  0  0  0  0
  183.3890  178.1210  138.6260 C   0  0  0  0  0  2  0  0  0  0  0  0
  182.7460  176.0370  139.6140 O   0  0  0  0  0  1  0  0  0  0  0  0
  183.3430  176.6070  138.4880 C   0  0  1  0  0  3  0  0  0  0  0  0
  181.9640  174.9860  137.1940 O   0  0  0  0  0  1  0  0  0  0  0  0
  182.5230  177.0110  136.2770 O   0  0  0  0  0  0  0  0  0  0  0  0
  182.5840  176.2260  137.2610 C   0  0  0  0  0  0  0  0  0  0  0  0
  1  2  1  0  0  0  0
  2  4  1  1  0  0  0
  3  1  1  0  0  0  0
  3  2  1  0  0  0  0
  4  5  1  0  0  0  0
  5  7  1  0  0  0  0
  7 12  1  0  0  0  0
  7  6  2  0  0  0  0
  8 11  1  0  0  0  0
  9 12  1  0  0  0  0
 10 11  1  0  0  0  0
 12 10  2  0  0  0  0
 13  8  2  0  0  0  0
 14  9  2  0  0  0  0
 14 13  1  0  0  0  0
 15 13  1  0  0  0  0
 16 15  1  0  0  0  0
 17 18  2  0  0  0  0
 17 16  1  0  0  0  0
 19 20  1  0  0  0  0
 20 17  1  0  0  0  0
 21  3  1  0  0  0  0
 23 22  2  0  0  0  0
 23 21  1  0  0  0  0
 24 22  1  0  0  0  0
 25 27  1  0  0  0  0
 25 24  1  1  0  0  0
 26 27  1  0  0  0  0
 28 29  1  0  0  0  0
 28 25  1  0  0  0  0
 30 21  1  0  0  0  0
 32 30  1  0  0  0  0
 32 31  1  1  0  0  0
 33 35  1  0  0  0  0
 34 35  2  0  0  0  0
 35 32  1  0  0  0  0
M  END
>  <MODEL>
5

>  <REMARK>
 VINA RESULT:      -6.4      2.262      9.328
  Name = 
  15 active torsions:
  status: ('A' for Active; 'I' for Inactive)
    1  A    between atoms: N_1  and  C_34
    2  A    between atoms: N_2  and  C_3
    3  A    between atoms: C_3  and  C_17
    4  A    between atoms: N_6  and  C_19
    5  A    between atoms: C_8  and  C_24
    6  A    between atoms: C_8  and  N_25
    7  A    between atoms: C_13  and  O_31
    8  A    between atoms: O_16  and  C_19
    9  A    between atoms: C_19  and  C_21
   10  A    between atoms: C_20  and  C_35
   11  A    between atoms: C_21  and  C_22
   12  A    between atoms: C_24  and  C_30
   13  A    between atoms: N_25  and  N_26
   14  A    between atoms: N_25  and  C_27
   15  A    between atoms: C_32  and  C_34
                            x       y       z     vdW  Elec       q    Type
                         _______ _______ _______ _____ _____    ______ ____

>  <TORSDO>
F 15

$$$$
=
 OpenBabel10222418063D

 35 36  0  0  1  0  0  0  0  0999 V2000
  190.3700  177.5880  140.7880 O   0  0  0  0  0  0  0  0  0  0  0  0
  189.2380  178.1430  140.2860 C   0  0  1  0  0  3  0  0  0  0  0  0
  189.4920  176.7270  140.1440 N   0  0  0  0  0  0  0  0  0  0  0  0
  188.2480  178.3670  141.4080 C   0  0  0  0  0  2  0  0  0  0  0  0
  187.0560  179.0080  140.8810 N   0  0  0  0  0  2  0  0  0  0  0  0
  184.7770  179.3940  140.8270 O   0  0  0  0  0  0  0  0  0  0  0  0
  185.7650  179.0070  141.5070 C   0  0  0  0  0  0  0  0  0  0  0  0
  185.5860  178.9690  145.9370 C   0  0  0  0  0  3  0  0  0  0  0  0
  186.1580  177.3320  143.4170 C   0  0  0  0  0  3  0  0  0  0  0  0
  184.7990  179.3400  143.6660 N   0  0  0  0  0  0  0  0  0  0  0  0
  184.4010  179.0310  145.0340 C   0  0  0  0  0  2  0  0  0  0  0  0
  185.5380  178.5800  142.9100 C   0  0  0  0  0  0  0  0  0  0  0  0
  186.5740  178.0900  145.7700 C   0  0  0  0  0  0  0  0  0  0  0  0
  186.6130  177.1200  144.6580 C   0  0  0  0  0  3  0  0  0  0  0  0
  187.6400  178.0160  146.8060 C   0  0  0  0  0  2  0  0  0  0  0  0
  188.8690  177.5100  146.2160 N   0  0  0  0  0  2  0  0  0  0  0  0
  190.0370  177.2620  146.9990 C   0  0  0  0  0  0  0  0  0  0  0  0
  190.0300  177.4910  148.2410 O   0  0  0  0  0  0  0  0  0  0  0  0
  192.0790  175.8920  147.0440 C   0  0  0  0  0  1  0  0  0  0  0  0
  191.1800  176.7650  146.3750 O   0  0  0  0  0  0  0  0  0  0  0  0
  189.9870  176.5130  138.8420 N   0  0  0  0  0  0  0  0  0  0  0  0
  192.1250  175.8570  137.9280 C   0  0  0  0  0  3  0  0  0  0  0  0
  191.3620  176.7670  138.5250 C   0  0  0  0  0  3  0  0  0  0  0  0
  193.5550  176.1470  137.6140 C   0  0  0  0  0  2  0  0  0  0  0  0
  194.3130  174.8680  137.2820 C   0  0  2  0  0  3  0  0  0  0  0  0
  195.8340  174.1330  138.7140 C   0  0  0  0  0  1  0  0  0  0  0  0
  194.4650  174.1050  138.4430 O   0  0  0  0  0  0  0  0  0  0  0  0
  195.6240  175.1980  136.7440 N   0  0  0  0  0  2  0  0  0  0  0  0
  195.4630  175.3820  135.3120 C   0  0  0  0  0  1  0  0  0  0  0  0
  189.0600  176.3510  137.7290 C   0  0  0  0  0  2  0  0  0  0  0  0
  188.8590  177.0510  135.4480 O   0  0  0  0  0  1  0  0  0  0  0  0
  189.2310  177.4800  136.7220 C   0  0  1  0  0  3  0  0  0  0  0  0
  189.0330  179.8520  137.4540 O   0  0  0  0  0  1  0  0  0  0  0  0
  187.1530  178.5670  137.1940 O   0  0  0  0  0  0  0  0  0  0  0  0
  188.4080  178.6570  137.1260 C   0  0  0  0  0  0  0  0  0  0  0  0
  2  1  1  0  0  0  0
  2  4  1  1  0  0  0
  3  2  1  0  0  0  0
  3  1  1  0  0  0  0
  5  4  1  0  0  0  0
  5  7  1  0  0  0  0
  6  7  2  0  0  0  0
  7 12  1  0  0  0  0
  9 14  2  0  0  0  0
 10 11  1  0  0  0  0
 11  8  1  0  0  0  0
 12  9  1  0  0  0  0
 12 10  2  0  0  0  0
 13  8  2  0  0  0  0
 13 15  1  0  0  0  0
 14 13  1  0  0  0  0
 16 15  1  0  0  0  0
 16 17  1  0  0  0  0
 17 18  2  0  0  0  0
 20 17  1  0  0  0  0
 20 19  1  0  0  0  0
 21  3  1  0  0  0  0
 22 23  2  0  0  0  0
 23 21  1  0  0  0  0
 24 22  1  0  0  0  0
 25 24  1  1  0  0  0
 25 27  1  0  0  0  0
 27 26  1  0  0  0  0
 28 25  1  0  0  0  0
 29 28  1  0  0  0  0
 30 21  1  0  0  0  0
 32 31  1  6  0  0  0
 32 35  1  0  0  0  0
 32 30  1  0  0  0  0
 35 34  2  0  0  0  0
 35 33  1  0  0  0  0
M  END
>  <MODEL>
6

>  <REMARK>
 VINA RESULT:      -6.3      2.733      9.112
  Name = 
  15 active torsions:
  status: ('A' for Active; 'I' for Inactive)
    1  A    between atoms: N_1  and  C_34
    2  A    between atoms: N_2  and  C_3
    3  A    between atoms: C_3  and  C_17
    4  A    between atoms: N_6  and  C_19
    5  A    between atoms: C_8  and  C_24
    6  A    between atoms: C_8  and  N_25
    7  A    between atoms: C_13  and  O_31
    8  A    between atoms: O_16  and  C_19
    9  A    between atoms: C_19  and  C_21
   10  A    between atoms: C_20  and  C_35
   11  A    between atoms: C_21  and  C_22
   12  A    between atoms: C_24  and  C_30
   13  A    between atoms: N_25  and  N_26
   14  A    between atoms: N_25  and  C_27
   15  A    between atoms: C_32  and  C_34
                            x       y       z     vdW  Elec       q    Type
                         _______ _______ _______ _____ _____    ______ ____

>  <TORSDO>
F 15

$$$$
=
 OpenBabel10222418063D

 35 36  0  0  1  0  0  0  0  0999 V2000
  189.8040  178.0820  139.8810 O   0  0  0  0  0  0  0  0  0  0  0  0
  188.4700  178.2780  139.7310 C   0  0  1  0  0  3  0  0  0  0  0  0
  189.0460  176.9650  139.5580 N   0  0  0  0  0  0  0  0  0  0  0  0
  187.8190  178.3670  141.0940 C   0  0  0  0  0  2  0  0  0  0  0  0
  186.4890  178.9360  140.9590 N   0  0  0  0  0  2  0  0  0  0  0  0
  184.2700  179.1530  141.5690 O   0  0  0  0  0  0  0  0  0  0  0  0
  185.4310  178.8160  141.9210 C   0  0  0  0  0  0  0  0  0  0  0  0
  186.4690  178.6210  146.2280 C   0  0  0  0  0  3  0  0  0  0  0  0
  186.4950  177.1380  143.5530 C   0  0  0  0  0  3  0  0  0  0  0  0
  185.0610  178.9700  144.2770 N   0  0  0  0  0  0  0  0  0  0  0  0
  185.0840  178.5760  145.6790 C   0  0  0  0  0  2  0  0  0  0  0  0
  185.6380  178.3230  143.3060 C   0  0  0  0  0  0  0  0  0  0  0  0
  187.4570  177.8650  145.7500 C   0  0  0  0  0  0  0  0  0  0  0  0
  187.2900  176.9400  144.6120 C   0  0  0  0  0  3  0  0  0  0  0  0
  188.7670  177.8790  146.4570 C   0  0  0  0  0  2  0  0  0  0  0  0
  189.8130  177.3940  145.5710 N   0  0  0  0  0  2  0  0  0  0  0  0
  191.0010  176.7790  146.0710 C   0  0  0  0  0  0  0  0  0  0  0  0
  191.1750  176.6510  147.3150 O   0  0  0  0  0  0  0  0  0  0  0  0
  191.6070  175.8160  143.8910 C   0  0  0  0  0  1  0  0  0  0  0  0
  191.9610  176.3240  145.1680 O   0  0  0  0  0  0  0  0  0  0  0  0
  189.1880  176.7430  138.1730 N   0  0  0  0  0  0  0  0  0  0  0  0
  187.0830  175.9410  137.2980 C   0  0  0  0  0  3  0  0  0  0  0  0
  188.3860  175.7660  137.4970 C   0  0  0  0  0  3  0  0  0  0  0  0
  186.2720  174.9050  136.5940 C   0  0  0  0  0  2  0  0  0  0  0  0
  186.6160  173.5080  137.0930 C   0  0  2  0  0  3  0  0  0  0  0  0
  187.8840  171.8670  136.3160 C   0  0  0  0  0  1  0  0  0  0  0  0
  186.7730  172.6510  136.0000 O   0  0  0  0  0  0  0  0  0  0  0  0
  185.5480  173.0130  137.9480 N   0  0  0  0  0  2  0  0  0  0  0  0
  184.3080  173.1480  137.2030 C   0  0  0  0  0  1  0  0  0  0  0  0
  190.3600  177.2520  137.4720 C   0  0  0  0  0  2  0  0  0  0  0  0
  191.7470  175.8970  136.0660 O   0  0  0  0  0  1  0  0  0  0  0  0
  191.4430  176.1850  137.3970 C   0  0  1  0  0  3  0  0  0  0  0  0
  193.8720  176.7340  137.4260 O   0  0  0  0  0  0  0  0  0  0  0  0
  192.6240  176.9350  139.3370 O   0  0  0  0  0  1  0  0  0  0  0  0
  192.6680  176.6470  138.1120 C   0  0  0  0  0  0  0  0  0  0  0  0
  2  1  1  0  0  0  0
  2  4  1  1  0  0  0
  3  2  1  0  0  0  0
  3  1  1  0  0  0  0
  5  4  1  0  0  0  0
  5  7  1  0  0  0  0
  6  7  2  0  0  0  0
  7 12  1  0  0  0  0
  9 14  2  0  0  0  0
 10 11  1  0  0  0  0
 11  8  1  0  0  0  0
 12  9  1  0  0  0  0
 12 10  2  0  0  0  0
 13  8  2  0  0  0  0
 13 15  1  0  0  0  0
 14 13  1  0  0  0  0
 16 17  1  0  0  0  0
 16 15  1  0  0  0  0
 17 18  2  0  0  0  0
 19 20  1  0  0  0  0
 20 17  1  0  0  0  0
 21  3  1  0  0  0  0
 22 23  2  0  0  0  0
 23 21  1  0  0  0  0
 24 22  1  0  0  0  0
 25 24  1  6  0  0  0
 25 28  1  0  0  0  0
 27 26  1  0  0  0  0
 27 25  1  0  0  0  0
 29 28  1  0  0  0  0
 30 21  1  0  0  0  0
 32 31  1  6  0  0  0
 32 30  1  0  0  0  0
 32 35  1  0  0  0  0
 33 35  2  0  0  0  0
 35 34  1  0  0  0  0
M  END
>  <MODEL>
7

>  <REMARK>
 VINA RESULT:      -6.2      2.278      8.439
  Name = 
  15 active torsions:
  status: ('A' for Active; 'I' for Inactive)
    1  A    between atoms: N_1  and  C_34
    2  A    between atoms: N_2  and  C_3
    3  A    between atoms: C_3  and  C_17
    4  A    between atoms: N_6  and  C_19
    5  A    between atoms: C_8  and  C_24
    6  A    between atoms: C_8  and  N_25
    7  A    between atoms: C_13  and  O_31
    8  A    between atoms: O_16  and  C_19
    9  A    between atoms: C_19  and  C_21
   10  A    between atoms: C_20  and  C_35
   11  A    between atoms: C_21  and  C_22
   12  A    between atoms: C_24  and  C_30
   13  A    between atoms: N_25  and  N_26
   14  A    between atoms: N_25  and  C_27
   15  A    between atoms: C_32  and  C_34
                            x       y       z     vdW  Elec       q    Type
                         _______ _______ _______ _____ _____    ______ ____

>  <TORSDO>
F 15

$$$$
=
 OpenBabel10222418063D

 35 36  0  0  1  0  0  0  0  0999 V2000
  183.2970  179.0050  141.6160 O   0  0  0  0  0  0  0  0  0  0  0  0
  184.5710  178.5400  141.6380 C   0  0  1  0  0  3  0  0  0  0  0  0
  184.1330  179.4430  140.5990 N   0  0  0  0  0  0  0  0  0  0  0  0
  185.3680  179.3080  142.6700 C   0  0  0  0  0  2  0  0  0  0  0  0
  184.5480  179.5270  143.8490 N   0  0  0  0  0  2  0  0  0  0  0  0
  183.8160  178.9950  145.9760 O   0  0  0  0  0  0  0  0  0  0  0  0
  184.7360  178.8930  145.1220 C   0  0  0  0  0  0  0  0  0  0  0  0
  188.8730  177.8740  146.3500 C   0  0  0  0  0  3  0  0  0  0  0  0
  186.5230  177.1400  144.5350 C   0  0  0  0  0  3  0  0  0  0  0  0
  186.5110  178.3760  146.6360 N   0  0  0  0  0  0  0  0  0  0  0  0
  187.6570  177.6630  147.1860 C   0  0  0  0  0  2  0  0  0  0  0  0
  185.9580  178.1310  145.4830 C   0  0  0  0  0  0  0  0  0  0  0  0
  188.9450  177.4950  145.0740 C   0  0  0  0  0  0  0  0  0  0  0  0
  187.8210  176.8660  144.3530 C   0  0  0  0  0  3  0  0  0  0  0  0
  190.2490  177.6210  144.3690 C   0  0  0  0  0  2  0  0  0  0  0  0
  190.0490  177.5040  142.9330 N   0  0  0  0  0  2  0  0  0  0  0  0
  191.1320  177.2500  142.0380 C   0  0  0  0  0  0  0  0  0  0  0  0
  192.3080  177.1290  142.4800 O   0  0  0  0  0  0  0  0  0  0  0  0
  189.5490  177.1590  140.1580 C   0  0  0  0  0  1  0  0  0  0  0  0
  190.8720  177.1370  140.6720 O   0  0  0  0  0  0  0  0  0  0  0  0
  183.8510  178.6690  139.4550 N   0  0  0  0  0  0  0  0  0  0  0  0
  185.0530  177.4100  137.7790 C   0  0  0  0  0  3  0  0  0  0  0  0
  184.7960  178.5660  138.3820 C   0  0  0  0  0  3  0  0  0  0  0  0
  186.0460  177.3320  136.6680 C   0  0  0  0  0  2  0  0  0  0  0  0
  187.4420  177.7000  137.1530 C   0  0  2  0  0  3  0  0  0  0  0  0
  189.0350  179.2350  137.2220 C   0  0  0  0  0  1  0  0  0  0  0  0
  187.7220  179.0220  136.7990 O   0  0  0  0  0  0  0  0  0  0  0  0
  188.4240  176.8160  136.5440 N   0  0  0  0  0  2  0  0  0  0  0  0
  188.0670  175.4590  136.9200 C   0  0  0  0  0  1  0  0  0  0  0  0
  182.4850  178.2330  139.1910 C   0  0  0  0  0  2  0  0  0  0  0  0
  180.7680  178.4650  137.5390 O   0  0  0  0  0  1  0  0  0  0  0  0
  181.8290  179.1320  138.1530 C   0  0  1  0  0  3  0  0  0  0  0  0
  180.5560  180.3130  139.9370 O   0  0  0  0  0  1  0  0  0  0  0  0
  181.6150  181.5100  138.2950 O   0  0  0  0  0  0  0  0  0  0  0  0
  181.3410  180.3870  138.7950 C   0  0  0  0  0  0  0  0  0  0  0  0
  1  2  1  0  0  0  0
  2  4  1  1  0  0  0
  3  1  1  0  0  0  0
  3  2  1  0  0  0  0
  4  5  1  0  0  0  0
  5  7  1  0  0  0  0
  7 12  1  0  0  0  0
  7  6  2  0  0  0  0
  8 11  1  0  0  0  0
  9 12  1  0  0  0  0
 10 11  1  0  0  0  0
 12 10  2  0  0  0  0
 13  8  2  0  0  0  0
 14  9  2  0  0  0  0
 14 13  1  0  0  0  0
 15 13  1  0  0  0  0
 16 15  1  0  0  0  0
 17 18  2  0  0  0  0
 17 16  1  0  0  0  0
 19 20  1  0  0  0  0
 20 17  1  0  0  0  0
 21  3  1  0  0  0  0
 22 23  2  0  0  0  0
 23 21  1  0  0  0  0
 24 22  1  0  0  0  0
 25 24  1  6  0  0  0
 27 25  1  0  0  0  0
 27 26  1  0  0  0  0
 28 29  1  0  0  0  0
 28 25  1  0  0  0  0
 30 21  1  0  0  0  0
 32 31  1  1  0  0  0
 32 35  1  0  0  0  0
 32 30  1  0  0  0  0
 34 35  2  0  0  0  0
 35 33  1  0  0  0  0
M  END
>  <MODEL>
8

>  <REMARK>
 VINA RESULT:      -6.2      2.141      9.571
  Name = 
  15 active torsions:
  status: ('A' for Active; 'I' for Inactive)
    1  A    between atoms: N_1  and  C_34
    2  A    between atoms: N_2  and  C_3
    3  A    between atoms: C_3  and  C_17
    4  A    between atoms: N_6  and  C_19
    5  A    between atoms: C_8  and  C_24
    6  A    between atoms: C_8  and  N_25
    7  A    between atoms: C_13  and  O_31
    8  A    between atoms: O_16  and  C_19
    9  A    between atoms: C_19  and  C_21
   10  A    between atoms: C_20  and  C_35
   11  A    between atoms: C_21  and  C_22
   12  A    between atoms: C_24  and  C_30
   13  A    between atoms: N_25  and  N_26
   14  A    between atoms: N_25  and  C_27
   15  A    between atoms: C_32  and  C_34
                            x       y       z     vdW  Elec       q    Type
                         _______ _______ _______ _____ _____    ______ ____

>  <TORSDO>
F 15

$$$$
=
 OpenBabel10222418063D

 35 36  0  0  1  0  0  0  0  0999 V2000
  190.2280  177.3770  140.7320 O   0  0  0  0  0  0  0  0  0  0  0  0
  188.9540  177.2280  140.2890 C   0  0  1  0  0  3  0  0  0  0  0  0
  189.2230  177.8310  141.5740 N   0  0  0  0  0  0  0  0  0  0  0  0
  188.6430  178.3120  139.2800 C   0  0  0  0  0  2  0  0  0  0  0  0
  187.2250  178.6260  139.3290 N   0  0  0  0  0  2  0  0  0  0  0  0
  185.1320  178.8550  138.3750 O   0  0  0  0  0  0  0  0  0  0  0  0
  186.2690  178.3160  138.3060 C   0  0  0  0  0  0  0  0  0  0  0  0
  187.5280  174.7700  135.9600 C   0  0  0  0  0  3  0  0  0  0  0  0
  187.4200  177.8250  136.0600 C   0  0  0  0  0  3  0  0  0  0  0  0
  186.0200  176.2020  137.2200 N   0  0  0  0  0  0  0  0  0  0  0  0
  186.1160  175.2040  136.1630 C   0  0  0  0  0  2  0  0  0  0  0  0
  186.5490  177.3920  137.1790 C   0  0  0  0  0  0  0  0  0  0  0  0
  188.4920  175.6100  135.5850 C   0  0  0  0  0  0  0  0  0  0  0  0
  188.2690  177.0530  135.3700 C   0  0  0  0  0  3  0  0  0  0  0  0
  189.8360  175.0530  135.2730 C   0  0  0  0  0  2  0  0  0  0  0  0
  190.8570  175.7760  136.0150 N   0  0  0  0  0  2  0  0  0  0  0  0
  191.1750  175.4570  137.3690 C   0  0  0  0  0  0  0  0  0  0  0  0
  190.5590  174.5300  137.9660 O   0  0  0  0  0  0  0  0  0  0  0  0
  193.4550  176.3750  137.4450 C   0  0  0  0  0  1  0  0  0  0  0  0
  192.1730  176.1800  138.0220 O   0  0  0  0  0  0  0  0  0  0  0  0
  189.0170  176.8430  142.5580 N   0  0  0  0  0  0  0  0  0  0  0  0
  186.9530  177.8420  143.3200 C   0  0  0  0  0  3  0  0  0  0  0  0
  187.8490  176.8630  143.3890 C   0  0  0  0  0  3  0  0  0  0  0  0
  185.7480  177.8380  144.2020 C   0  0  0  0  0  2  0  0  0  0  0  0
  186.0620  178.4530  145.5600 C   0  0  2  0  0  3  0  0  0  0  0  0
  187.2870  178.1530  147.3800 C   0  0  0  0  0  1  0  0  0  0  0  0
  186.5520  177.4620  146.4150 O   0  0  0  0  0  0  0  0  0  0  0  0
  184.8550  179.0310  146.1290 N   0  0  0  0  0  2  0  0  0  0  0  0
  183.8370  179.0000  145.0930 C   0  0  0  0  0  1  0  0  0  0  0  0
  190.1220  175.9880  142.9720 C   0  0  0  0  0  2  0  0  0  0  0  0
  191.8180  175.7250  144.6410 O   0  0  0  0  0  1  0  0  0  0  0  0
  190.6380  176.4070  144.3410 C   0  0  1  0  0  3  0  0  0  0  0  0
  191.9390  178.4170  143.6570 O   0  0  0  0  0  0  0  0  0  0  0  0
  190.1380  178.6340  145.0570 O   0  0  0  0  0  1  0  0  0  0  0  0
  190.8770  177.8790  144.3710 C   0  0  0  0  0  0  0  0  0  0  0  0
  1  3  1  0  0  0  0
  2  4  1  6  0  0  0
  2  1  1  0  0  0  0
  2  3  1  0  0  0  0
  3 21  1  0  0  0  0
  4  5  1  0  0  0  0
  7  6  2  0  0  0  0
  7  5  1  0  0  0  0
  8 11  1  0  0  0  0
  9 12  1  0  0  0  0
 11 10  1  0  0  0  0
 12 10  2  0  0  0  0
 12  7  1  0  0  0  0
 13  8  2  0  0  0  0
 14 13  1  0  0  0  0
 14  9  2  0  0  0  0
 15 13  1  0  0  0  0
 15 16  1  0  0  0  0
 16 17  1  0  0  0  0
 17 18  2  0  0  0  0
 17 20  1  0  0  0  0
 19 20  1  0  0  0  0
 21 30  1  0  0  0  0
 21 23  1  0  0  0  0
 22 23  2  0  0  0  0
 22 24  1  0  0  0  0
 25 24  1  6  0  0  0
 25 28  1  0  0  0  0
 25 27  1  0  0  0  0
 27 26  1  0  0  0  0
 29 28  1  0  0  0  0
 30 32  1  0  0  0  0
 32 35  1  0  0  0  0
 32 31  1  6  0  0  0
 33 35  2  0  0  0  0
 35 34  1  0  0  0  0
M  END
>  <MODEL>
9

>  <REMARK>
 VINA RESULT:      -6.2      1.778      4.248
  Name = 
  15 active torsions:
  status: ('A' for Active; 'I' for Inactive)
    1  A    between atoms: N_1  and  C_34
    2  A    between atoms: N_2  and  C_3
    3  A    between atoms: C_3  and  C_17
    4  A    between atoms: N_6  and  C_19
    5  A    between atoms: C_8  and  C_24
    6  A    between atoms: C_8  and  N_25
    7  A    between atoms: C_13  and  O_31
    8  A    between atoms: O_16  and  C_19
    9  A    between atoms: C_19  and  C_21
   10  A    between atoms: C_20  and  C_35
   11  A    between atoms: C_21  and  C_22
   12  A    between atoms: C_24  and  C_30
   13  A    between atoms: N_25  and  N_26
   14  A    between atoms: N_25  and  C_27
   15  A    between atoms: C_32  and  C_34
                            x       y       z     vdW  Elec       q    Type
                         _______ _______ _______ _____ _____    ______ ____

>  <TORSDO>
F 15

$$$$
