=
 OpenBabel10222418013D

 35 37  0  0  1  0  0  0  0  0999 V2000
  190.0710  177.3950  144.6210 C   0  0  1  0  0  3  0  0  0  0  0  0
  187.6100  176.9960  144.5310 C   0  0  0  0  0  3  0  0  0  0  0  0
  186.3170  177.2270  144.7480 C   0  0  0  0  0  3  0  0  0  0  0  0
  185.7800  178.2310  145.6880 C   0  0  0  0  0  0  0  0  0  0  0  0
  187.7640  177.9470  148.8840 C   0  0  0  0  0  1  0  0  0  0  0  0
  188.6980  177.8070  145.1630 C   0  0  1  0  0  3  0  0  0  0  0  0
  187.6170  178.0220  147.4060 C   0  0  0  0  0  0  0  0  0  0  0  0
  188.6610  177.6700  146.6550 C   0  0  0  0  0  3  0  0  0  0  0  0
  186.3420  178.5370  146.8660 C   0  0  0  0  0  3  0  0  0  0  0  0
  183.4510  179.2420  145.1640 N   0  0  0  0  0  0  0  0  0  0  0  0
  184.4910  178.7900  145.3970 C   0  0  0  0  0  0  0  0  0  0  0  0
  190.4320  179.1310  143.0120 O   0  0  0  0  0  0  0  0  0  0  0  0
  190.3000  176.9670  142.1440 N   0  0  0  0  0  2  0  0  0  0  0  0
  190.2800  177.8970  143.2260 C   0  0  0  0  0  0  0  0  0  0  0  0
  190.6210  176.2550  139.9480 O   0  0  0  0  0  0  0  0  0  0  0  0
  190.5020  177.3910  140.7680 C   0  0  1  0  0  3  0  0  0  0  0  0
  189.3790  176.9160  139.9320 C   0  0  1  0  0  3  0  0  0  0  0  0
  189.2830  177.7650  138.6780 C   0  0  0  0  0  2  0  0  0  0  0  0
  188.2040  177.2840  137.8300 N   0  0  0  0  0  2  0  0  0  0  0  0
  184.2310  178.3850  138.3510 N   0  0  0  0  0  0  0  0  0  0  0  0
  184.8780  179.6370  140.1500 O   0  0  0  0  0  0  0  0  0  0  0  0
  185.1860  178.8630  139.2040 C   0  0  0  0  0  0  0  0  0  0  0  0
  184.5720  177.5620  137.3560 N   0  0  0  0  0  0  0  0  0  0  0  0
  186.8390  177.6690  138.0170 C   0  0  0  0  0  0  0  0  0  0  0  0
  185.8600  177.1850  137.1580 C   0  0  0  0  0  3  0  0  0  0  0  0
  186.4820  178.5010  139.0300 N   0  0  0  0  0  0  0  0  0  0  0  0
  182.0010  178.1310  137.4040 C   0  0  0  0  0  1  0  0  0  0  0  0
  182.8290  178.7430  138.5170 C   0  0  0  0  0  2  0  0  0  0  0  0
  191.0890  177.8860  145.4420 O   0  0  0  0  0  0  0  0  0  0  0  0
  192.0970  176.9850  145.3210 N   0  0  0  0  0  2  0  0  0  0  0  0
  192.3490  174.5290  145.3470 C   0  0  0  0  0  1  0  0  0  0  0  0
  191.7090  175.7480  145.9990 C   0  0  1  0  0  3  0  0  0  0  0  0
  191.5320  177.0180  148.0340 F   0  0  0  0  0  0  0  0  0  0  0  0
  191.9740  175.8190  147.5030 C   0  0  2  0  0  3  0  0  0  0  0  0
  193.3380  175.6700  147.7530 O   0  0  0  0  0  1  0  0  0  0  0  0
  1 14  1  6  0  0  0
  1 29  1  0  0  0  0
  2  3  2  0  0  0  0
  2  6  1  0  0  0  0
  3  4  1  0  0  0  0
  4  9  2  0  0  0  0
  6  1  1  6  0  0  0
  6  8  1  0  0  0  0
  7  5  1  0  0  0  0
  8  7  2  0  0  0  0
  9  7  1  0  0  0  0
 10 11  3  0  0  0  0
 11  4  1  0  0  0  0
 12 14  2  0  0  0  0
 13 14  1  0  0  0  0
 15 16  1  0  0  0  0
 16 13  1  1  0  0  0
 17 18  1  6  0  0  0
 17 15  1  0  0  0  0
 17 16  1  0  0  0  0
 19 24  1  0  0  0  0
 19 18  1  0  0  0  0
 20 28  1  0  0  0  0
 20 22  1  0  0  0  0
 22 21  2  0  0  0  0
 23 20  1  0  0  0  0
 24 26  2  0  0  0  0
 25 23  2  0  0  0  0
 25 24  1  0  0  0  0
 26 22  1  0  0  0  0
 27 28  1  0  0  0  0
 30 29  1  0  0  0  0
 30 32  1  0  0  0  0
 32 31  1  6  0  0  0
 32 34  1  0  0  0  0
 34 35  1  6  0  0  0
 34 33  1  0  0  0  0
M  END
>  <MODEL>
1

>  <REMARK>
 VINA RESULT:      -8.5      0.000      0.000
  Name = 
  11 active torsions:
  status: ('A' for Active; 'I' for Inactive)
    1  A    between atoms: C_1  and  N_4
    2  A    between atoms: C_1  and  C_22
    3  A    between atoms: N_7  and  C_32
    4  A    between atoms: N_11  and  C_16
    5  A    between atoms: C_12  and  C_25
    6  A    between atoms: C_20  and  C_24
    7  A    between atoms: C_23  and  C_26
    8  A    between atoms: C_24  and  O_30
    9  A    between atoms: C_24  and  C_34
   10  A    between atoms: C_26  and  N_31
   11  A    between atoms: O_30  and  N_31
                            x       y       z     vdW  Elec       q    Type
                         _______ _______ _______ _____ _____    ______ ____

>  <TORSDO>
F 11

$$$$
=
 OpenBabel10222418013D

 35 37  0  0  1  0  0  0  0  0999 V2000
  187.9710  177.7960  143.6200 C   0  0  1  0  0  3  0  0  0  0  0  0
  190.2300  177.8440  144.6750 C   0  0  0  0  0  3  0  0  0  0  0  0
  191.1940  177.5210  145.5360 C   0  0  0  0  0  3  0  0  0  0  0  0
  190.9980  176.7540  146.7810 C   0  0  0  0  0  0  0  0  0  0  0  0
  187.9350  178.1470  148.4850 C   0  0  0  0  0  1  0  0  0  0  0  0
  188.8150  177.3790  144.8290 C   0  0  1  0  0  3  0  0  0  0  0  0
  188.7000  177.6530  147.3100 C   0  0  0  0  0  0  0  0  0  0  0  0
  188.2180  177.9130  146.0950 C   0  0  0  0  0  3  0  0  0  0  0  0
  189.9170  176.8540  147.5670 C   0  0  0  0  0  3  0  0  0  0  0  0
  192.9990  175.3560  147.6560 N   0  0  0  0  0  0  0  0  0  0  0  0
  192.1050  175.9800  147.2660 C   0  0  0  0  0  0  0  0  0  0  0  0
  188.6280  175.8350  142.4130 O   0  0  0  0  0  0  0  0  0  0  0  0
  188.5550  177.8070  141.1640 N   0  0  0  0  0  2  0  0  0  0  0  0
  188.4010  177.0750  142.3800 C   0  0  0  0  0  0  0  0  0  0  0  0
  189.6030  178.1120  139.1050 O   0  0  0  0  0  0  0  0  0  0  0  0
  188.9660  177.1660  139.9260 C   0  0  1  0  0  3  0  0  0  0  0  0
  190.4380  177.2190  139.8030 C   0  0  1  0  0  3  0  0  0  0  0  0
  190.9100  176.1340  138.8550 C   0  0  0  0  0  2  0  0  0  0  0  0
  191.8300  176.6920  137.8740 N   0  0  0  0  0  2  0  0  0  0  0  0
  195.4250  174.8860  136.8360 N   0  0  0  0  0  0  0  0  0  0  0  0
  194.9620  173.2360  138.3470 O   0  0  0  0  0  0  0  0  0  0  0  0
  194.6240  174.3110  137.7830 C   0  0  0  0  0  0  0  0  0  0  0  0
  195.0570  176.0290  136.2500 N   0  0  0  0  0  0  0  0  0  0  0  0
  193.0650  176.0620  137.5230 C   0  0  0  0  0  0  0  0  0  0  0  0
  193.8880  176.6420  136.5650 C   0  0  0  0  0  3  0  0  0  0  0  0
  193.4520  174.9040  138.1180 N   0  0  0  0  0  0  0  0  0  0  0  0
  197.4960  175.2470  135.6040 C   0  0  0  0  0  1  0  0  0  0  0  0
  196.6970  174.2840  136.4620 C   0  0  0  0  0  2  0  0  0  0  0  0
  186.6180  177.5360  143.8550 O   0  0  0  0  0  0  0  0  0  0  0  0
  185.9690  178.6340  143.3900 N   0  0  0  0  0  2  0  0  0  0  0  0
  183.7080  178.9440  144.3310 C   0  0  0  0  0  1  0  0  0  0  0  0
  184.5510  178.3130  143.2300 C   0  0  1  0  0  3  0  0  0  0  0  0
  183.7600  177.5150  141.1030 F   0  0  0  0  0  0  0  0  0  0  0  0
  184.0460  178.6580  141.8300 C   0  0  2  0  0  3  0  0  0  0  0  0
  185.0010  179.4160  141.1530 O   0  0  0  0  0  1  0  0  0  0  0  0
  1 14  1  6  0  0  0
  1 29  1  0  0  0  0
  2  6  1  0  0  0  0
  2  3  2  0  0  0  0
  3  4  1  0  0  0  0
  4 11  1  0  0  0  0
  4  9  2  0  0  0  0
  6  1  1  6  0  0  0
  6  8  1  0  0  0  0
  7  9  1  0  0  0  0
  7  5  1  0  0  0  0
  8  7  2  0  0  0  0
 11 10  3  0  0  0  0
 13 14  1  0  0  0  0
 14 12  2  0  0  0  0
 15 17  1  0  0  0  0
 15 16  1  0  0  0  0
 16 13  1  1  0  0  0
 17 18  1  6  0  0  0
 17 16  1  0  0  0  0
 19 18  1  0  0  0  0
 20 22  1  0  0  0  0
 22 26  1  0  0  0  0
 22 21  2  0  0  0  0
 23 25  2  0  0  0  0
 23 20  1  0  0  0  0
 24 19  1  0  0  0  0
 24 26  2  0  0  0  0
 25 24  1  0  0  0  0
 27 28  1  0  0  0  0
 28 20  1  0  0  0  0
 30 29  1  0  0  0  0
 32 30  1  0  0  0  0
 32 31  1  1  0  0  0
 34 33  1  6  0  0  0
 34 32  1  0  0  0  0
 35 34  1  0  0  0  0
M  END
>  <MODEL>
2

>  <REMARK>
 VINA RESULT:      -8.2      4.189      7.626
  Name = 
  11 active torsions:
  status: ('A' for Active; 'I' for Inactive)
    1  A    between atoms: C_1  and  N_4
    2  A    between atoms: C_1  and  C_22
    3  A    between atoms: N_7  and  C_32
    4  A    between atoms: N_11  and  C_16
    5  A    between atoms: C_12  and  C_25
    6  A    between atoms: C_20  and  C_24
    7  A    between atoms: C_23  and  C_26
    8  A    between atoms: C_24  and  O_30
    9  A    between atoms: C_24  and  C_34
   10  A    between atoms: C_26  and  N_31
   11  A    between atoms: O_30  and  N_31
                            x       y       z     vdW  Elec       q    Type
                         _______ _______ _______ _____ _____    ______ ____

>  <TORSDO>
F 11

$$$$
=
 OpenBabel10222418013D

 35 37  0  0  1  0  0  0  0  0999 V2000
  187.8740  177.7300  143.7490 C   0  0  1  0  0  3  0  0  0  0  0  0
  190.1570  177.7940  144.7500 C   0  0  0  0  0  3  0  0  0  0  0  0
  191.1390  177.4910  145.5980 C   0  0  0  0  0  3  0  0  0  0  0  0
  190.9670  176.7610  146.8690 C   0  0  0  0  0  0  0  0  0  0  0  0
  187.9520  178.2230  148.6010 C   0  0  0  0  0  1  0  0  0  0  0  0
  188.7430  177.3430  144.9500 C   0  0  1  0  0  3  0  0  0  0  0  0
  188.6870  177.6900  147.4240 C   0  0  0  0  0  0  0  0  0  0  0  0
  188.1780  177.9170  146.2130 C   0  0  0  0  0  3  0  0  0  0  0  0
  189.9050  176.8910  147.6760 C   0  0  0  0  0  3  0  0  0  0  0  0
  192.9790  175.3760  147.7380 N   0  0  0  0  0  0  0  0  0  0  0  0
  192.0810  175.9940  147.3500 C   0  0  0  0  0  0  0  0  0  0  0  0
  188.7040  175.9730  142.3510 O   0  0  0  0  0  0  0  0  0  0  0  0
  188.6940  178.1020  141.3910 N   0  0  0  0  0  2  0  0  0  0  0  0
  188.4440  177.2010  142.4700 C   0  0  0  0  0  0  0  0  0  0  0  0
  188.2150  177.0850  139.3490 O   0  0  0  0  0  0  0  0  0  0  0  0
  189.2430  177.6510  140.1230 C   0  0  1  0  0  3  0  0  0  0  0  0
  188.6090  178.3940  139.0140 C   0  0  1  0  0  3  0  0  0  0  0  0
  189.5040  178.3460  137.7900 C   0  0  0  0  0  2  0  0  0  0  0  0
  189.5130  177.0040  137.2290 N   0  0  0  0  0  2  0  0  0  0  0  0
  192.8240  174.4970  137.3680 N   0  0  0  0  0  0  0  0  0  0  0  0
  193.9660  176.1660  138.4330 O   0  0  0  0  0  0  0  0  0  0  0  0
  192.9010  175.7540  137.8990 C   0  0  0  0  0  0  0  0  0  0  0  0
  191.6910  174.0760  136.8000 N   0  0  0  0  0  0  0  0  0  0  0  0
  190.6580  176.1480  137.2820 C   0  0  0  0  0  0  0  0  0  0  0  0
  190.5920  174.8700  136.7410 C   0  0  0  0  0  3  0  0  0  0  0  0
  191.8170  176.5690  137.8510 N   0  0  0  0  0  0  0  0  0  0  0  0
  194.4400  173.3220  135.9740 C   0  0  0  0  0  1  0  0  0  0  0  0
  193.9730  173.6010  137.3890 C   0  0  0  0  0  2  0  0  0  0  0  0
  186.5740  177.2400  143.9080 O   0  0  0  0  0  0  0  0  0  0  0  0
  185.7710  178.2410  143.4650 N   0  0  0  0  0  2  0  0  0  0  0  0
  184.9160  178.9950  145.6550 C   0  0  0  0  0  1  0  0  0  0  0  0
  184.5930  178.3180  144.3290 C   0  0  1  0  0  3  0  0  0  0  0  0
  182.2050  178.5760  144.1840 F   0  0  0  0  0  0  0  0  0  0  0  0
  183.4060  178.9610  143.6130 C   0  0  2  0  0  3  0  0  0  0  0  0
  183.4160  178.6090  142.2630 O   0  0  0  0  0  1  0  0  0  0  0  0
  1 14  1  6  0  0  0
  1 29  1  0  0  0  0
  2  6  1  0  0  0  0
  2  3  2  0  0  0  0
  3  4  1  0  0  0  0
  4 11  1  0  0  0  0
  4  9  2  0  0  0  0
  6  1  1  6  0  0  0
  6  8  1  0  0  0  0
  7  9  1  0  0  0  0
  7  5  1  0  0  0  0
  8  7  2  0  0  0  0
 11 10  3  0  0  0  0
 12 14  2  0  0  0  0
 13 14  1  0  0  0  0
 15 16  1  0  0  0  0
 16 13  1  1  0  0  0
 17 18  1  6  0  0  0
 17 15  1  0  0  0  0
 17 16  1  0  0  0  0
 19 24  1  0  0  0  0
 19 18  1  0  0  0  0
 20 28  1  0  0  0  0
 20 22  1  0  0  0  0
 22 21  2  0  0  0  0
 23 20  1  0  0  0  0
 24 26  2  0  0  0  0
 25 23  2  0  0  0  0
 25 24  1  0  0  0  0
 26 22  1  0  0  0  0
 27 28  1  0  0  0  0
 30 29  1  0  0  0  0
 30 32  1  0  0  0  0
 32 31  1  1  0  0  0
 34 35  1  6  0  0  0
 34 33  1  0  0  0  0
 34 32  1  0  0  0  0
M  END
>  <MODEL>
3

>  <REMARK>
 VINA RESULT:      -8.0      3.441      6.721
  Name = 
  11 active torsions:
  status: ('A' for Active; 'I' for Inactive)
    1  A    between atoms: C_1  and  N_4
    2  A    between atoms: C_1  and  C_22
    3  A    between atoms: N_7  and  C_32
    4  A    between atoms: N_11  and  C_16
    5  A    between atoms: C_12  and  C_25
    6  A    between atoms: C_20  and  C_24
    7  A    between atoms: C_23  and  C_26
    8  A    between atoms: C_24  and  O_30
    9  A    between atoms: C_24  and  C_34
   10  A    between atoms: C_26  and  N_31
   11  A    between atoms: O_30  and  N_31
                            x       y       z     vdW  Elec       q    Type
                         _______ _______ _______ _____ _____    ______ ____

>  <TORSDO>
F 11

$$$$
=
 OpenBabel10222418013D

 35 37  0  0  1  0  0  0  0  0999 V2000
  187.7600  177.8480  143.9940 C   0  0  1  0  0  3  0  0  0  0  0  0
  190.1220  177.8270  144.7920 C   0  0  0  0  0  3  0  0  0  0  0  0
  191.1670  177.4720  145.5390 C   0  0  0  0  0  3  0  0  0  0  0  0
  191.0890  176.6990  146.7940 C   0  0  0  0  0  0  0  0  0  0  0  0
  188.2730  178.1570  148.8350 C   0  0  0  0  0  1  0  0  0  0  0  0
  188.7210  177.3980  145.1000 C   0  0  1  0  0  3  0  0  0  0  0  0
  188.8890  177.6530  147.5800 C   0  0  0  0  0  0  0  0  0  0  0  0
  188.2820  177.9360  146.4270 C   0  0  0  0  0  3  0  0  0  0  0  0
  190.1050  176.8200  147.6950 C   0  0  0  0  0  3  0  0  0  0  0  0
  193.1350  175.2400  147.4330 N   0  0  0  0  0  0  0  0  0  0  0  0
  192.2220  175.8920  147.1480 C   0  0  0  0  0  0  0  0  0  0  0  0
  188.2770  175.9620  142.6120 O   0  0  0  0  0  0  0  0  0  0  0  0
  188.2230  178.0260  141.5190 N   0  0  0  0  0  2  0  0  0  0  0  0
  188.0990  177.2090  142.6830 C   0  0  0  0  0  0  0  0  0  0  0  0
  189.1730  178.4520  139.4340 O   0  0  0  0  0  0  0  0  0  0  0  0
  188.5470  177.4660  140.2170 C   0  0  1  0  0  3  0  0  0  0  0  0
  190.0120  177.4850  140.0180 C   0  0  1  0  0  3  0  0  0  0  0  0
  190.3960  176.4600  138.9690 C   0  0  0  0  0  2  0  0  0  0  0  0
  191.8310  176.5020  138.7310 N   0  0  0  0  0  2  0  0  0  0  0  0
  193.8320  173.7320  136.3660 N   0  0  0  0  0  0  0  0  0  0  0  0
  191.8360  172.6730  136.0270 O   0  0  0  0  0  0  0  0  0  0  0  0
  192.4830  173.6130  136.5590 C   0  0  0  0  0  0  0  0  0  0  0  0
  194.5060  174.7310  136.9410 N   0  0  0  0  0  0  0  0  0  0  0  0
  192.5110  175.5440  137.9150 C   0  0  0  0  0  0  0  0  0  0  0  0
  193.8820  175.6530  137.7170 C   0  0  0  0  0  3  0  0  0  0  0  0
  191.8350  174.5200  137.3320 N   0  0  0  0  0  0  0  0  0  0  0  0
  195.9960  173.2260  135.3690 C   0  0  0  0  0  1  0  0  0  0  0  0
  194.5620  172.7690  135.5540 C   0  0  0  0  0  2  0  0  0  0  0  0
  186.4420  177.5270  144.3320 O   0  0  0  0  0  0  0  0  0  0  0  0
  185.6830  178.4250  143.6540 N   0  0  0  0  0  2  0  0  0  0  0  0
  183.4320  179.3060  144.1580 C   0  0  0  0  0  1  0  0  0  0  0  0
  184.8820  179.1870  144.6120 C   0  0  1  0  0  3  0  0  0  0  0  0
  183.7870  178.2050  146.5160 F   0  0  0  0  0  0  0  0  0  0  0  0
  185.0120  178.6280  146.0290 C   0  0  2  0  0  3  0  0  0  0  0  0
  185.5420  179.6010  146.8770 O   0  0  0  0  0  1  0  0  0  0  0  0
  1 14  1  6  0  0  0
  1 29  1  0  0  0  0
  2  6  1  0  0  0  0
  2  3  2  0  0  0  0
  3  4  1  0  0  0  0
  4 11  1  0  0  0  0
  4  9  2  0  0  0  0
  6  1  1  6  0  0  0
  6  8  1  0  0  0  0
  7  9  1  0  0  0  0
  7  5  1  0  0  0  0
  8  7  2  0  0  0  0
 11 10  3  0  0  0  0
 12 14  2  0  0  0  0
 13 14  1  0  0  0  0
 15 17  1  0  0  0  0
 15 16  1  0  0  0  0
 16 13  1  1  0  0  0
 17 18  1  6  0  0  0
 17 16  1  0  0  0  0
 19 18  1  0  0  0  0
 20 22  1  0  0  0  0
 20 23  1  0  0  0  0
 21 22  2  0  0  0  0
 22 26  1  0  0  0  0
 23 25  2  0  0  0  0
 24 19  1  0  0  0  0
 25 24  1  0  0  0  0
 26 24  2  0  0  0  0
 27 28  1  0  0  0  0
 28 20  1  0  0  0  0
 30 29  1  0  0  0  0
 30 32  1  0  0  0  0
 32 31  1  6  0  0  0
 32 34  1  0  0  0  0
 34 33  1  1  0  0  0
 34 35  1  0  0  0  0
M  END
>  <MODEL>
4

>  <REMARK>
 VINA RESULT:      -7.9      3.978      7.065
  Name = 
  11 active torsions:
  status: ('A' for Active; 'I' for Inactive)
    1  A    between atoms: C_1  and  N_4
    2  A    between atoms: C_1  and  C_22
    3  A    between atoms: N_7  and  C_32
    4  A    between atoms: N_11  and  C_16
    5  A    between atoms: C_12  and  C_25
    6  A    between atoms: C_20  and  C_24
    7  A    between atoms: C_23  and  C_26
    8  A    between atoms: C_24  and  O_30
    9  A    between atoms: C_24  and  C_34
   10  A    between atoms: C_26  and  N_31
   11  A    between atoms: O_30  and  N_31
                            x       y       z     vdW  Elec       q    Type
                         _______ _______ _______ _____ _____    ______ ____

>  <TORSDO>
F 11

$$$$
=
 OpenBabel10222418013D

 35 37  0  0  1  0  0  0  0  0999 V2000
  189.3050  177.1590  141.6110 C   0  0  1  0  0  3  0  0  0  0  0  0
  187.5140  176.8420  143.3170 C   0  0  0  0  0  3  0  0  0  0  0  0
  186.8310  177.0570  144.4400 C   0  0  0  0  0  3  0  0  0  0  0  0
  187.3010  177.8740  145.5760 C   0  0  0  0  0  0  0  0  0  0  0  0
  190.8980  176.9380  146.2170 C   0  0  0  0  0  1  0  0  0  0  0  0
  188.8320  177.4920  143.0300 C   0  0  1  0  0  3  0  0  0  0  0  0
  189.7480  177.2980  145.3470 C   0  0  0  0  0  0  0  0  0  0  0  0
  189.8580  177.0730  144.0380 C   0  0  0  0  0  3  0  0  0  0  0  0
  188.5760  177.9360  145.9830 C   0  0  0  0  0  3  0  0  0  0  0  0
  185.5060  179.0190  147.0540 N   0  0  0  0  0  0  0  0  0  0  0  0
  186.3070  178.5080  146.3940 C   0  0  0  0  0  0  0  0  0  0  0  0
  188.1180  179.0840  140.8260 O   0  0  0  0  0  0  0  0  0  0  0  0
  188.2320  177.2930  139.3310 N   0  0  0  0  0  2  0  0  0  0  0  0
  188.5210  177.9140  140.5830 C   0  0  0  0  0  0  0  0  0  0  0  0
  187.5110  177.2010  137.1160 O   0  0  0  0  0  0  0  0  0  0  0  0
  187.4790  177.9740  138.2900 C   0  0  1  0  0  3  0  0  0  0  0  0
  186.3310  177.1380  137.8800 C   0  0  1  0  0  3  0  0  0  0  0  0
  185.2720  178.0090  137.2320 C   0  0  0  0  0  2  0  0  0  0  0  0
  183.9750  177.7590  137.8430 N   0  0  0  0  0  2  0  0  0  0  0  0
  183.0790  178.7510  141.7780 N   0  0  0  0  0  0  0  0  0  0  0  0
  185.2160  179.5270  142.0040 O   0  0  0  0  0  0  0  0  0  0  0  0
  184.3290  178.9990  141.2820 C   0  0  0  0  0  0  0  0  0  0  0  0
  182.1500  178.1850  141.0030 N   0  0  0  0  0  0  0  0  0  0  0  0
  183.6760  178.1040  139.1980 C   0  0  0  0  0  0  0  0  0  0  0  0
  182.4110  177.8510  139.7130 C   0  0  0  0  0  3  0  0  0  0  0  0
  184.6160  178.6730  139.9970 N   0  0  0  0  0  0  0  0  0  0  0  0
  181.2710  178.7990  143.4090 C   0  0  0  0  0  1  0  0  0  0  0  0
  182.7400  179.0750  143.1570 C   0  0  0  0  0  2  0  0  0  0  0  0
  190.6620  177.4620  141.4660 O   0  0  0  0  0  0  0  0  0  0  0  0
  191.1520  176.4770  140.6690 N   0  0  0  0  0  2  0  0  0  0  0  0
  193.3520  177.1960  139.8100 C   0  0  0  0  0  1  0  0  0  0  0  0
  191.8560  177.0880  139.5420 C   0  0  1  0  0  3  0  0  0  0  0  0
  190.8060  177.1860  137.3800 F   0  0  0  0  0  0  0  0  0  0  0  0
  191.5430  176.3760  138.2260 C   0  0  2  0  0  3  0  0  0  0  0  0
  190.8400  175.1980  138.4770 O   0  0  0  0  0  1  0  0  0  0  0  0
  1 14  1  6  0  0  0
  2  3  2  0  0  0  0
  3  4  1  0  0  0  0
  4  9  2  0  0  0  0
  4 11  1  0  0  0  0
  6  1  1  6  0  0  0
  6  2  1  0  0  0  0
  6  8  1  0  0  0  0
  7  9  1  0  0  0  0
  7  5  1  0  0  0  0
  8  7  2  0  0  0  0
 11 10  3  0  0  0  0
 13 14  1  0  0  0  0
 14 12  2  0  0  0  0
 15 17  1  0  0  0  0
 15 16  1  0  0  0  0
 16 13  1  1  0  0  0
 17 18  1  6  0  0  0
 17 16  1  0  0  0  0
 18 19  1  0  0  0  0
 19 24  1  0  0  0  0
 20 28  1  0  0  0  0
 22 20  1  0  0  0  0
 22 21  2  0  0  0  0
 23 20  1  0  0  0  0
 24 25  1  0  0  0  0
 24 26  2  0  0  0  0
 25 23  2  0  0  0  0
 26 22  1  0  0  0  0
 28 27  1  0  0  0  0
 29  1  1  0  0  0  0
 30 29  1  0  0  0  0
 32 31  1  1  0  0  0
 32 30  1  0  0  0  0
 34 33  1  6  0  0  0
 34 35  1  0  0  0  0
 34 32  1  0  0  0  0
M  END
>  <MODEL>
5

>  <REMARK>
 VINA RESULT:      -7.7      2.875      4.595
  Name = 
  11 active torsions:
  status: ('A' for Active; 'I' for Inactive)
    1  A    between atoms: C_1  and  N_4
    2  A    between atoms: C_1  and  C_22
    3  A    between atoms: N_7  and  C_32
    4  A    between atoms: N_11  and  C_16
    5  A    between atoms: C_12  and  C_25
    6  A    between atoms: C_20  and  C_24
    7  A    between atoms: C_23  and  C_26
    8  A    between atoms: C_24  and  O_30
    9  A    between atoms: C_24  and  C_34
   10  A    between atoms: C_26  and  N_31
   11  A    between atoms: O_30  and  N_31
                            x       y       z     vdW  Elec       q    Type
                         _______ _______ _______ _____ _____    ______ ____

>  <TORSDO>
F 11

$$$$
=
 OpenBabel10222418013D

 35 37  0  0  1  0  0  0  0  0999 V2000
  187.6050  177.3040  144.6390 C   0  0  1  0  0  3  0  0  0  0  0  0
  185.5430  178.6490  145.0370 C   0  0  0  0  0  3  0  0  0  0  0  0
  184.2840  179.0510  144.8700 C   0  0  0  0  0  3  0  0  0  0  0  0
  183.4160  178.6760  143.7380 C   0  0  0  0  0  0  0  0  0  0  0  0
  185.4730  179.0030  140.5930 C   0  0  0  0  0  1  0  0  0  0  0  0
  186.2130  177.6750  144.1170 C   0  0  1  0  0  3  0  0  0  0  0  0
  185.2430  178.5790  141.9990 C   0  0  0  0  0  0  0  0  0  0  0  0
  186.3030  178.2330  142.7300 C   0  0  0  0  0  3  0  0  0  0  0  0
  183.8470  178.5130  142.4790 C   0  0  0  0  0  3  0  0  0  0  0  0
  180.8570  178.6270  144.1510 N   0  0  0  0  0  0  0  0  0  0  0  0
  181.9990  178.6490  143.9670 C   0  0  0  0  0  0  0  0  0  0  0  0
  189.4800  178.6480  143.9990 O   0  0  0  0  0  0  0  0  0  0  0  0
  188.7740  177.0860  142.4120 N   0  0  0  0  0  2  0  0  0  0  0  0
  188.6760  177.7290  143.6830 C   0  0  0  0  0  0  0  0  0  0  0  0
  190.2730  176.2850  140.8170 O   0  0  0  0  0  0  0  0  0  0  0  0
  189.7930  177.4500  141.4420 C   0  0  1  0  0  3  0  0  0  0  0  0
  189.3520  177.0580  140.0870 C   0  0  1  0  0  3  0  0  0  0  0  0
  190.1000  177.8760  139.0510 C   0  0  0  0  0  2  0  0  0  0  0  0
  190.2070  177.1300  137.8070 N   0  0  0  0  0  2  0  0  0  0  0  0
  193.5780  174.9480  136.7400 N   0  0  0  0  0  0  0  0  0  0  0  0
  194.5580  175.6260  138.6900 O   0  0  0  0  0  0  0  0  0  0  0  0
  193.5620  175.6410  137.9190 C   0  0  0  0  0  0  0  0  0  0  0  0
  192.5170  174.9770  135.9310 N   0  0  0  0  0  0  0  0  0  0  0  0
  191.3720  176.3820  137.4490 C   0  0  0  0  0  0  0  0  0  0  0  0
  191.4010  175.6780  136.2510 C   0  0  0  0  0  3  0  0  0  0  0  0
  192.4590  176.3520  138.2620 N   0  0  0  0  0  0  0  0  0  0  0  0
  194.4800  172.7000  136.4770 C   0  0  0  0  0  1  0  0  0  0  0  0
  194.7510  174.1860  136.3340 C   0  0  0  0  0  2  0  0  0  0  0  0
  187.8360  177.9010  145.8810 O   0  0  0  0  0  0  0  0  0  0  0  0
  188.5330  176.9730  146.5860 N   0  0  0  0  0  2  0  0  0  0  0  0
  189.2370  178.1870  148.6170 C   0  0  0  0  0  1  0  0  0  0  0  0
  189.6510  177.6320  147.2600 C   0  0  1  0  0  3  0  0  0  0  0  0
  191.7340  177.1280  148.3540 F   0  0  0  0  0  0  0  0  0  0  0  0
  190.8770  176.7240  147.3440 C   0  0  2  0  0  3  0  0  0  0  0  0
  191.5560  176.7250  146.1260 O   0  0  0  0  0  1  0  0  0  0  0  0
  1 14  1  6  0  0  0
  1 29  1  0  0  0  0
  3  2  2  0  0  0  0
  4 11  1  0  0  0  0
  4  3  1  0  0  0  0
  5  7  1  0  0  0  0
  6  1  1  1  0  0  0
  6  2  1  0  0  0  0
  7  9  1  0  0  0  0
  7  8  2  0  0  0  0
  8  6  1  0  0  0  0
  9  4  2  0  0  0  0
 11 10  3  0  0  0  0
 13 14  1  0  0  0  0
 14 12  2  0  0  0  0
 15 16  1  0  0  0  0
 16 13  1  1  0  0  0
 17 18  1  6  0  0  0
 17 15  1  0  0  0  0
 17 16  1  0  0  0  0
 19 18  1  0  0  0  0
 20 22  1  0  0  0  0
 22 26  1  0  0  0  0
 22 21  2  0  0  0  0
 23 25  2  0  0  0  0
 23 20  1  0  0  0  0
 24 19  1  0  0  0  0
 24 26  2  0  0  0  0
 25 24  1  0  0  0  0
 28 27  1  0  0  0  0
 28 20  1  0  0  0  0
 29 30  1  0  0  0  0
 30 32  1  0  0  0  0
 32 34  1  0  0  0  0
 32 31  1  1  0  0  0
 34 35  1  6  0  0  0
 34 33  1  0  0  0  0
M  END
>  <MODEL>
6

>  <REMARK>
 VINA RESULT:      -7.6      3.112      5.660
  Name = 
  11 active torsions:
  status: ('A' for Active; 'I' for Inactive)
    1  A    between atoms: C_1  and  N_4
    2  A    between atoms: C_1  and  C_22
    3  A    between atoms: N_7  and  C_32
    4  A    between atoms: N_11  and  C_16
    5  A    between atoms: C_12  and  C_25
    6  A    between atoms: C_20  and  C_24
    7  A    between atoms: C_23  and  C_26
    8  A    between atoms: C_24  and  O_30
    9  A    between atoms: C_24  and  C_34
   10  A    between atoms: C_26  and  N_31
   11  A    between atoms: O_30  and  N_31
                            x       y       z     vdW  Elec       q    Type
                         _______ _______ _______ _____ _____    ______ ____

>  <TORSDO>
F 11

$$$$
=
 OpenBabel10222418013D

 35 37  0  0  1  0  0  0  0  0999 V2000
  187.3930  177.4650  144.5000 C   0  0  1  0  0  3  0  0  0  0  0  0
  185.3240  178.8100  144.8570 C   0  0  0  0  0  3  0  0  0  0  0  0
  184.0620  179.1980  144.6820 C   0  0  0  0  0  3  0  0  0  0  0  0
  183.1920  178.7770  143.5670 C   0  0  0  0  0  0  0  0  0  0  0  0
  185.2350  179.0040  140.4040 C   0  0  0  0  0  1  0  0  0  0  0  0
  185.9960  177.8080  143.9710 C   0  0  1  0  0  3  0  0  0  0  0  0
  185.0130  178.6290  141.8250 C   0  0  0  0  0  0  0  0  0  0  0  0
  186.0780  178.3170  142.5650 C   0  0  0  0  0  3  0  0  0  0  0  0
  183.6190  178.5710  142.3130 C   0  0  0  0  0  3  0  0  0  0  0  0
  180.6350  178.7260  143.9920 N   0  0  0  0  0  0  0  0  0  0  0  0
  181.7760  178.7490  143.8030 C   0  0  0  0  0  0  0  0  0  0  0  0
  189.2240  178.8610  143.8450 O   0  0  0  0  0  0  0  0  0  0  0  0
  188.6000  177.2290  142.2950 N   0  0  0  0  0  2  0  0  0  0  0  0
  188.4600  177.9030  143.5460 C   0  0  0  0  0  0  0  0  0  0  0  0
  190.8710  177.1500  141.7760 O   0  0  0  0  0  0  0  0  0  0  0  0
  189.6180  177.6040  141.3280 C   0  0  1  0  0  3  0  0  0  0  0  0
  190.2470  176.3880  140.7710 C   0  0  1  0  0  3  0  0  0  0  0  0
  190.8850  176.7110  139.4330 C   0  0  0  0  0  2  0  0  0  0  0  0
  190.2970  175.8880  138.3870 N   0  0  0  0  0  2  0  0  0  0  0  0
  187.0440  177.0880  136.0980 N   0  0  0  0  0  0  0  0  0  0  0  0
  186.9950  179.0320  137.2990 O   0  0  0  0  0  0  0  0  0  0  0  0
  187.5250  177.9110  137.0790 C   0  0  0  0  0  0  0  0  0  0  0  0
  187.6120  175.9000  135.8800 N   0  0  0  0  0  0  0  0  0  0  0  0
  189.1770  176.3100  137.6040 C   0  0  0  0  0  0  0  0  0  0  0  0
  188.6770  175.4800  136.6090 C   0  0  0  0  0  3  0  0  0  0  0  0
  188.5880  177.5140  137.8230 N   0  0  0  0  0  0  0  0  0  0  0  0
  184.6970  176.6170  135.6440 C   0  0  0  0  0  1  0  0  0  0  0  0
  185.8960  177.4760  135.2900 C   0  0  0  0  0  2  0  0  0  0  0  0
  187.6090  178.0730  145.7400 O   0  0  0  0  0  0  0  0  0  0  0  0
  188.1470  177.0960  146.5140 N   0  0  0  0  0  2  0  0  0  0  0  0
  188.8290  178.0040  148.7060 C   0  0  0  0  0  1  0  0  0  0  0  0
  189.2550  177.6600  147.2840 C   0  0  1  0  0  3  0  0  0  0  0  0
  191.4550  177.1890  148.1370 F   0  0  0  0  0  0  0  0  0  0  0  0
  190.4910  176.7620  147.2400 C   0  0  2  0  0  3  0  0  0  0  0  0
  191.0250  176.7490  145.9510 O   0  0  0  0  0  1  0  0  0  0  0  0
  1 14  1  6  0  0  0
  1 29  1  0  0  0  0
  3  2  2  0  0  0  0
  4 11  1  0  0  0  0
  4  3  1  0  0  0  0
  5  7  1  0  0  0  0
  6  1  1  1  0  0  0
  6  2  1  0  0  0  0
  7  9  1  0  0  0  0
  7  8  2  0  0  0  0
  8  6  1  0  0  0  0
  9  4  2  0  0  0  0
 11 10  3  0  0  0  0
 13 14  1  0  0  0  0
 14 12  2  0  0  0  0
 16 15  1  0  0  0  0
 16 13  1  1  0  0  0
 17 18  1  6  0  0  0
 17 16  1  0  0  0  0
 17 15  1  0  0  0  0
 19 18  1  0  0  0  0
 20 22  1  0  0  0  0
 22 21  2  0  0  0  0
 22 26  1  0  0  0  0
 23 20  1  0  0  0  0
 23 25  2  0  0  0  0
 24 26  2  0  0  0  0
 24 19  1  0  0  0  0
 25 24  1  0  0  0  0
 28 27  1  0  0  0  0
 28 20  1  0  0  0  0
 29 30  1  0  0  0  0
 30 32  1  0  0  0  0
 32 31  1  1  0  0  0
 34 35  1  6  0  0  0
 34 32  1  0  0  0  0
 34 33  1  0  0  0  0
M  END
>  <MODEL>
7

>  <REMARK>
 VINA RESULT:      -7.4      2.182      3.635
  Name = 
  11 active torsions:
  status: ('A' for Active; 'I' for Inactive)
    1  A    between atoms: C_1  and  N_4
    2  A    between atoms: C_1  and  C_22
    3  A    between atoms: N_7  and  C_32
    4  A    between atoms: N_11  and  C_16
    5  A    between atoms: C_12  and  C_25
    6  A    between atoms: C_20  and  C_24
    7  A    between atoms: C_23  and  C_26
    8  A    between atoms: C_24  and  O_30
    9  A    between atoms: C_24  and  C_34
   10  A    between atoms: C_26  and  N_31
   11  A    between atoms: O_30  and  N_31
                            x       y       z     vdW  Elec       q    Type
                         _______ _______ _______ _____ _____    ______ ____

>  <TORSDO>
F 11

$$$$
=
 OpenBabel10222418013D

 35 37  0  0  1  0  0  0  0  0999 V2000
  189.1590  177.1610  141.7320 C   0  0  1  0  0  3  0  0  0  0  0  0
  187.4240  176.8930  143.5030 C   0  0  0  0  0  3  0  0  0  0  0  0
  186.7980  177.1160  144.6580 C   0  0  0  0  0  3  0  0  0  0  0  0
  187.3520  177.8870  145.7880 C   0  0  0  0  0  0  0  0  0  0  0  0
  190.9230  176.7700  146.2630 C   0  0  0  0  0  1  0  0  0  0  0  0
  188.7590  177.4860  143.1750 C   0  0  1  0  0  3  0  0  0  0  0  0
  189.7570  177.2020  145.4480 C   0  0  0  0  0  0  0  0  0  0  0  0
  189.8040  176.9990  144.1310 C   0  0  0  0  0  3  0  0  0  0  0  0
  188.6440  177.8810  146.1440 C   0  0  0  0  0  3  0  0  0  0  0  0
  185.6740  179.0840  147.3600 N   0  0  0  0  0  0  0  0  0  0  0  0
  186.4230  178.5500  146.6580 C   0  0  0  0  0  0  0  0  0  0  0  0
  187.7300  178.9750  141.0980 O   0  0  0  0  0  0  0  0  0  0  0  0
  188.1830  177.4170  139.4180 N   0  0  0  0  0  2  0  0  0  0  0  0
  188.3170  177.9150  140.7500 C   0  0  0  0  0  0  0  0  0  0  0  0
  188.2070  178.9820  137.6910 O   0  0  0  0  0  0  0  0  0  0  0  0
  187.3830  178.1040  138.4170 C   0  0  1  0  0  3  0  0  0  0  0  0
  187.8790  177.7640  137.0660 C   0  0  1  0  0  3  0  0  0  0  0  0
  186.7840  178.0070  136.0460 C   0  0  0  0  0  2  0  0  0  0  0  0
  186.5350  176.7950  135.2800 N   0  0  0  0  0  2  0  0  0  0  0  0
  183.8510  173.8560  136.4710 N   0  0  0  0  0  0  0  0  0  0  0  0
  183.4190  175.0960  138.3420 O   0  0  0  0  0  0  0  0  0  0  0  0
  184.0450  174.9580  137.2580 C   0  0  0  0  0  0  0  0  0  0  0  0
  184.5260  173.7200  135.3270 N   0  0  0  0  0  0  0  0  0  0  0  0
  185.6090  175.7890  135.6980 C   0  0  0  0  0  0  0  0  0  0  0  0
  185.4080  174.6630  134.9090 C   0  0  0  0  0  3  0  0  0  0  0  0
  184.9230  175.9140  136.8640 N   0  0  0  0  0  0  0  0  0  0  0  0
  183.4850  171.4470  136.4810 C   0  0  0  0  0  1  0  0  0  0  0  0
  182.9270  172.8030  136.8700 C   0  0  0  0  0  2  0  0  0  0  0  0
  190.5040  177.4730  141.5160 O   0  0  0  0  0  0  0  0  0  0  0  0
  190.9650  176.4790  140.7130 N   0  0  0  0  0  2  0  0  0  0  0  0
  193.0910  177.5070  139.9940 C   0  0  0  0  0  1  0  0  0  0  0  0
  191.6870  177.0750  139.5900 C   0  0  1  0  0  3  0  0  0  0  0  0
  191.6040  176.8940  137.1920 F   0  0  0  0  0  0  0  0  0  0  0  0
  191.6820  176.1610  138.3640 C   0  0  2  0  0  3  0  0  0  0  0  0
  190.6060  175.2760  138.4350 O   0  0  0  0  0  1  0  0  0  0  0  0
  1 14  1  6  0  0  0
  2  3  2  0  0  0  0
  3  4  1  0  0  0  0
  4  9  2  0  0  0  0
  4 11  1  0  0  0  0
  6  1  1  6  0  0  0
  6  2  1  0  0  0  0
  6  8  1  0  0  0  0
  7  9  1  0  0  0  0
  7  5  1  0  0  0  0
  8  7  2  0  0  0  0
 11 10  3  0  0  0  0
 13 14  1  0  0  0  0
 14 12  2  0  0  0  0
 15 16  1  0  0  0  0
 16 13  1  1  0  0  0
 17 18  1  6  0  0  0
 17 15  1  0  0  0  0
 17 16  1  0  0  0  0
 19 24  1  0  0  0  0
 19 18  1  0  0  0  0
 20 28  1  0  0  0  0
 20 22  1  0  0  0  0
 22 21  2  0  0  0  0
 23 20  1  0  0  0  0
 24 26  2  0  0  0  0
 25 23  2  0  0  0  0
 25 24  1  0  0  0  0
 26 22  1  0  0  0  0
 27 28  1  0  0  0  0
 29  1  1  0  0  0  0
 30 29  1  0  0  0  0
 32 31  1  1  0  0  0
 32 30  1  0  0  0  0
 34 33  1  6  0  0  0
 34 35  1  0  0  0  0
 34 32  1  0  0  0  0
M  END
>  <MODEL>
8

>  <REMARK>
 VINA RESULT:      -7.2      3.245      4.786
  Name = 
  11 active torsions:
  status: ('A' for Active; 'I' for Inactive)
    1  A    between atoms: C_1  and  N_4
    2  A    between atoms: C_1  and  C_22
    3  A    between atoms: N_7  and  C_32
    4  A    between atoms: N_11  and  C_16
    5  A    between atoms: C_12  and  C_25
    6  A    between atoms: C_20  and  C_24
    7  A    between atoms: C_23  and  C_26
    8  A    between atoms: C_24  and  O_30
    9  A    between atoms: C_24  and  C_34
   10  A    between atoms: C_26  and  N_31
   11  A    between atoms: O_30  and  N_31
                            x       y       z     vdW  Elec       q    Type
                         _______ _______ _______ _____ _____    ______ ____

>  <TORSDO>
F 11

$$$$
=
 OpenBabel10222418013D

 35 37  0  0  1  0  0  0  0  0999 V2000
  187.7980  178.5290  141.0520 C   0  0  1  0  0  3  0  0  0  0  0  0
  189.5720  178.7850  142.7860 C   0  0  0  0  0  3  0  0  0  0  0  0
  190.3220  178.4590  143.8380 C   0  0  0  0  0  3  0  0  0  0  0  0
  190.0380  177.3540  144.7730 C   0  0  0  0  0  0  0  0  0  0  0  0
  186.3600  177.5040  145.6000 C   0  0  0  0  0  1  0  0  0  0  0  0
  188.3720  177.9930  142.3680 C   0  0  1  0  0  3  0  0  0  0  0  0
  187.5220  177.5370  144.6730 C   0  0  0  0  0  0  0  0  0  0  0  0
  187.3280  178.0090  143.4410 C   0  0  0  0  0  3  0  0  0  0  0  0
  188.8070  176.9900  145.1580 C   0  0  0  0  0  3  0  0  0  0  0  0
  192.0530  176.2500  145.9740 N   0  0  0  0  0  0  0  0  0  0  0  0
  191.1530  176.7430  145.4370 C   0  0  0  0  0  0  0  0  0  0  0  0
  189.0140  179.3230  139.1490 O   0  0  0  0  0  0  0  0  0  0  0  0
  189.4030  177.0960  139.7340 N   0  0  0  0  0  2  0  0  0  0  0  0
  188.7670  178.3590  139.9240 C   0  0  0  0  0  0  0  0  0  0  0  0
  190.9350  175.5970  138.8190 O   0  0  0  0  0  0  0  0  0  0  0  0
  190.3560  176.8680  138.6600 C   0  0  1  0  0  3  0  0  0  0  0  0
  189.9230  175.7110  137.8480 C   0  0  1  0  0  3  0  0  0  0  0  0
  190.5580  175.7870  136.4730 C   0  0  0  0  0  2  0  0  0  0  0  0
  191.5040  174.6960  136.2980 N   0  0  0  0  0  2  0  0  0  0  0  0
  195.5670  175.2810  135.6540 N   0  0  0  0  0  0  0  0  0  0  0  0
  195.1890  177.5350  135.7200 O   0  0  0  0  0  0  0  0  0  0  0  0
  194.7370  176.3600  135.7880 C   0  0  0  0  0  0  0  0  0  0  0  0
  195.0730  174.0430  135.7230 N   0  0  0  0  0  0  0  0  0  0  0  0
  192.9010  174.9080  136.0770 C   0  0  0  0  0  0  0  0  0  0  0  0
  193.7520  173.8180  135.9350 C   0  0  0  0  0  3  0  0  0  0  0  0
  193.4120  176.1630  135.9980 N   0  0  0  0  0  0  0  0  0  0  0  0
  197.7890  174.8760  136.5670 C   0  0  0  0  0  1  0  0  0  0  0  0
  196.9930  175.4570  135.4140 C   0  0  0  0  0  2  0  0  0  0  0  0
  186.6060  177.8710  140.7350 O   0  0  0  0  0  0  0  0  0  0  0  0
  185.8320  178.8200  140.1480 N   0  0  0  0  0  2  0  0  0  0  0  0
  184.0550  178.4070  141.8110 C   0  0  0  0  0  1  0  0  0  0  0  0
  184.4260  178.4640  140.3340 C   0  0  1  0  0  3  0  0  0  0  0  0
  182.9660  178.7110  138.4370 F   0  0  0  0  0  0  0  0  0  0  0  0
  183.5000  179.3750  139.5290 C   0  0  2  0  0  3  0  0  0  0  0  0
  184.1990  180.5020  139.0940 O   0  0  0  0  0  1  0  0  0  0  0  0
  1 14  1  6  0  0  0
  2  3  2  0  0  0  0
  3  4  1  0  0  0  0
  4  9  2  0  0  0  0
  4 11  1  0  0  0  0
  6  1  1  6  0  0  0
  6  2  1  0  0  0  0
  6  8  1  0  0  0  0
  7  9  1  0  0  0  0
  7  5  1  0  0  0  0
  8  7  2  0  0  0  0
 11 10  3  0  0  0  0
 12 14  2  0  0  0  0
 13 14  1  0  0  0  0
 16 15  1  0  0  0  0
 16 13  1  1  0  0  0
 17 18  1  6  0  0  0
 17 16  1  0  0  0  0
 17 15  1  0  0  0  0
 19 18  1  0  0  0  0
 20 23  1  0  0  0  0
 20 22  1  0  0  0  0
 21 22  2  0  0  0  0
 22 26  1  0  0  0  0
 23 25  2  0  0  0  0
 24 19  1  0  0  0  0
 25 24  1  0  0  0  0
 26 24  2  0  0  0  0
 28 20  1  0  0  0  0
 28 27  1  0  0  0  0
 29  1  1  0  0  0  0
 30 32  1  0  0  0  0
 30 29  1  0  0  0  0
 32 31  1  1  0  0  0
 34 33  1  6  0  0  0
 34 32  1  0  0  0  0
 35 34  1  0  0  0  0
M  END
>  <MODEL>
9

>  <REMARK>
 VINA RESULT:      -7.1      4.567      8.121
  Name = 
  11 active torsions:
  status: ('A' for Active; 'I' for Inactive)
    1  A    between atoms: C_1  and  N_4
    2  A    between atoms: C_1  and  C_22
    3  A    between atoms: N_7  and  C_32
    4  A    between atoms: N_11  and  C_16
    5  A    between atoms: C_12  and  C_25
    6  A    between atoms: C_20  and  C_24
    7  A    between atoms: C_23  and  C_26
    8  A    between atoms: C_24  and  O_30
    9  A    between atoms: C_24  and  C_34
   10  A    between atoms: C_26  and  N_31
   11  A    between atoms: O_30  and  N_31
                            x       y       z     vdW  Elec       q    Type
                         _______ _______ _______ _____ _____    ______ ____

>  <TORSDO>
F 11

$$$$
