=
 OpenBabel10222420553D

 56 58  0  0  1  0  0  0  0  0999 V2000
  184.3430  178.4800  142.8250 C   0  0  1  0  0  3  0  0  0  0  0  0
  183.9790  179.0540  145.1970 N   0  0  0  0  0  2  0  0  0  0  0  0
  186.6530  177.6940  143.2070 C   0  0  0  0  0  0  0  0  0  0  0  0
  186.1990  178.7260  145.9140 O   0  0  0  0  0  0  0  0  0  0  0  0
  185.6210  178.4010  143.5940 C   0  0  0  0  0  0  0  0  0  0  0  0
  185.3420  178.7280  144.9890 C   0  0  0  0  0  0  0  0  0  0  0  0
  183.3870  178.9000  143.9090 C   0  0  0  0  0  0  0  0  0  0  0  0
  182.1550  179.0850  143.7120 O   0  0  0  0  0  0  0  0  0  0  0  0
  187.6870  176.9890  142.8250 C   0  0  0  0  0  3  0  0  0  0  0  0
  190.9470  177.4500  140.8600 C   0  0  0  0  0  1  0  0  0  0  0  0
  189.9390  176.9760  141.8680 C   0  0  0  0  0  0  0  0  0  0  0  0
  188.6920  177.4950  141.8670 C   0  0  0  0  0  0  0  0  0  0  0  0
  190.2620  175.9130  142.7820 N   0  0  0  0  0  0  0  0  0  0  0  0
  190.8490  176.0150  143.9430 C   0  0  0  0  0  3  0  0  0  0  0  0
  191.2370  177.3110  144.5850 C   0  0  0  0  0  2  0  0  0  0  0  0
  190.0300  177.9690  145.2360 C   0  0  0  0  0  2  0  0  0  0  0  0
  189.4310  177.0800  146.3130 C   0  0  0  0  0  2  0  0  0  0  0  0
  190.1550  177.2420  147.5600 N   0  0  0  0  0  2  0  0  0  0  0  0
  189.3690  178.1190  148.4120 C   0  0  0  0  0  2  0  0  0  0  0  0
  187.9640  177.5670  148.5680 C   0  0  0  0  0  1  0  0  0  0  0  0
  188.2960  178.5590  140.8780 C   0  0  0  0  0  2  0  0  0  0  0  0
  187.7190  177.9380  139.6920 N   0  0  0  0  0  2  0  0  0  0  0  0
  188.4830  178.3990  138.5430 C   0  0  0  0  0  2  0  0  0  0  0  0
  187.8140  177.9540  137.2460 C   0  0  2  0  0  3  0  0  0  0  0  0
  186.4820  177.2970  137.5750 C   0  0  0  0  0  1  0  0  0  0  0  0
  188.7220  176.9920  136.4910 C   0  0  1  0  0  3  0  0  0  0  0  0
  189.4080  177.6740  135.4770 O   0  0  0  0  0  1  0  0  0  0  0  0
  189.7300  176.3620  137.4390 C   0  0  0  0  0  2  0  0  0  0  0  0
  191.1490  176.5830  136.9340 C   0  0  0  0  0  2  0  0  0  0  0  0
  191.4190  174.4600  138.0120 O   0  0  0  0  0  1  0  0  0  0  0  0
  191.9470  175.2880  137.0140 C   0  0  2  0  0  3  0  0  0  0  0  0
  193.5600  176.6170  138.2120 O   0  0  0  0  0  1  0  0  0  0  0  0
  194.1260  174.3400  137.7860 C   0  0  0  0  0  1  0  0  0  0  0  0
  193.4200  175.5850  137.2770 C   0  0  1  0  0  3  0  0  0  0  0  0
  184.4410  179.5360  141.8250 N   0  0  0  0  0  2  0  0  0  0  0  0
  184.2260  177.4650  140.1610 O   0  0  0  0  0  0  0  0  0  0  0  0
  183.8590  178.9190  140.3120 S   0  0  0  0  0  0  0  0  0  0  0  0
  184.4630  179.7030  139.1830 O   0  0  0  0  0  0  0  0  0  0  0  0
  182.0870  179.1030  140.2830 C   0  0  0  0  0  2  0  0  0  0  0  0
  181.5850  179.5460  138.9030 C   0  0  1  0  0  3  0  0  0  0  0  0
  180.7850  176.0680  137.3980 C   0  0  2  0  0  3  0  0  0  0  0  0
  181.5040  177.7280  135.5410 C   0  0  0  0  0  3  0  0  0  0  0  0
  181.7710  178.6460  136.4690 C   0  0  0  0  0  3  0  0  0  0  0  0
  180.4580  175.6730  135.0340 O   0  0  0  0  0  0  0  0  0  0  0  0
  181.4130  178.4380  137.8930 C   0  0  0  0  0  0  0  0  0  0  0  0
  180.8760  176.4570  135.9270 C   0  0  0  0  0  0  0  0  0  0  0  0
  180.9200  177.2620  138.3110 C   0  0  0  0  0  3  0  0  0  0  0  0
  181.7510  175.0200  137.7800 N   0  0  0  0  0  0  0  0  0  0  0  0
  181.7810  172.8340  136.4690 C   0  0  0  0  0  2  0  0  0  0  0  0
  183.0300  172.1540  137.0150 C   0  0  0  0  0  2  0  0  0  0  0  0
  184.2520  173.0590  136.8920 C   0  0  0  0  0  2  0  0  0  0  0  0
  181.1320  173.6980  137.5560 C   0  0  0  0  0  2  0  0  0  0  0  0
  184.1190  174.3150  137.7430 C   0  0  0  0  0  2  0  0  0  0  0  0
  183.0620  175.2330  137.1420 C   0  0  0  0  0  2  0  0  0  0  0  0
  180.0850  180.5530  140.3180 C   0  0  0  0  0  1  0  0  0  0  0  0
  180.4710  180.4150  138.9750 O   0  0  0  0  0  0  0  0  0  0  0  0
  1 35  1  6  0  0  0
  1  5  1  0  0  0  0
  1  7  1  0  0  0  0
  3  5  2  0  0  0  0
  5  6  1  0  0  0  0
  6  2  1  0  0  0  0
  6  4  2  0  0  0  0
  7  2  1  0  0  0  0
  8  7  2  0  0  0  0
  9  3  2  0  0  0  0
 10 11  1  0  0  0  0
 11 13  1  0  0  0  0
 12 11  2  0  0  0  0
 12  9  1  0  0  0  0
 13 14  2  0  0  0  0
 14 15  1  0  0  0  0
 15 16  1  0  0  0  0
 16 17  1  0  0  0  0
 17 18  1  0  0  0  0
 18 19  1  0  0  0  0
 19 20  1  0  0  0  0
 21 12  1  0  0  0  0
 22 21  1  0  0  0  0
 23 22  1  0  0  0  0
 24 25  1  1  0  0  0
 24 23  1  0  0  0  0
 26 27  1  6  0  0  0
 26 24  1  0  0  0  0
 26 28  1  0  0  0  0
 29 31  1  0  0  0  0
 29 28  1  0  0  0  0
 31 34  1  0  0  0  0
 31 30  1  1  0  0  0
 34 33  1  1  0  0  0
 34 32  1  0  0  0  0
 36 37  2  0  0  0  0
 37 35  1  0  0  0  0
 38 37  2  0  0  0  0
 39 37  1  0  0  0  0
 40 56  1  0  0  0  0
 40 39  1  1  0  0  0
 41 48  1  1  0  0  0
 41 47  1  0  0  0  0
 42 46  1  0  0  0  0
 42 43  2  0  0  0  0
 43 45  1  0  0  0  0
 44 46  2  0  0  0  0
 45 47  2  0  0  0  0
 45 40  1  0  0  0  0
 46 41  1  0  0  0  0
 49 50  1  0  0  0  0
 49 52  1  0  0  0  0
 51 50  1  0  0  0  0
 51 53  1  0  0  0  0
 52 48  1  0  0  0  0
 54 53  1  0  0  0  0
 54 48  1  0  0  0  0
 56 55  1  0  0  0  0
M  END
>  <MODEL>
1

>  <REMARK>
 VINA RESULT:      -7.3      0.000      0.000
  Name = 
  23 active torsions:
  status: ('A' for Active; 'I' for Inactive)
    1  A    between atoms: C_1  and  C_8
    2  A    between atoms: C_1  and  C_31
    3  A    between atoms: C_2  and  N_46
    4  A    between atoms: C_4  and  C_7
    5  A    between atoms: C_4  and  C_36
    6  A    between atoms: N_6  and  C_43
    7  A    between atoms: C_7  and  C_20
    8  A    between atoms: C_8  and  C_42
    9  A    between atoms: C_9  and  N_14
   10  A    between atoms: C_11  and  N_21
   11  A    between atoms: C_20  and  C_23
   12  A    between atoms: N_21  and  C_31
   13  A    between atoms: C_22  and  C_26
   14  A    between atoms: C_22  and  O_28
   15  A    between atoms: C_22  and  C_38
   16  A    between atoms: C_23  and  N_51
   17  A    between atoms: C_26  and  S_39
   18  A    between atoms: C_32  and  N_51
   19  A    between atoms: C_32  and  C_54
   20  A    between atoms: C_36  and  C_56
   21  A    between atoms: S_39  and  N_46
   22  A    between atoms: C_41  and  C_54
   23  A    between atoms: C_53  and  C_56
                            x       y       z     vdW  Elec       q    Type
                         _______ _______ _______ _____ _____    ______ ____

>  <TORSDO>
F 23

$$$$
=
 OpenBabel10222420553D

 56 58  0  0  1  0  0  0  0  0999 V2000
  184.3120  178.4360  142.9510 C   0  0  1  0  0  3  0  0  0  0  0  0
  184.0570  178.9450  145.3520 N   0  0  0  0  0  2  0  0  0  0  0  0
  186.6430  177.6610  143.2020 C   0  0  0  0  0  0  0  0  0  0  0  0
  186.3120  178.6180  145.9530 O   0  0  0  0  0  0  0  0  0  0  0  0
  185.6260  178.3480  143.6560 C   0  0  0  0  0  0  0  0  0  0  0  0
  185.4120  178.6370  145.0700 C   0  0  0  0  0  0  0  0  0  0  0  0
  183.4060  178.8200  144.0890 C   0  0  0  0  0  0  0  0  0  0  0  0
  182.1650  178.9990  143.9560 O   0  0  0  0  0  0  0  0  0  0  0  0
  187.6630  176.9740  142.7530 C   0  0  0  0  0  3  0  0  0  0  0  0
  190.7800  177.4450  140.5700 C   0  0  0  0  0  1  0  0  0  0  0  0
  189.8290  176.9340  141.6130 C   0  0  0  0  0  0  0  0  0  0  0  0
  188.6180  177.5130  141.7620 C   0  0  0  0  0  0  0  0  0  0  0  0
  190.1600  175.7770  142.4020 N   0  0  0  0  0  0  0  0  0  0  0  0
  190.9260  175.7280  143.4570 C   0  0  0  0  0  3  0  0  0  0  0  0
  191.5590  176.9230  144.1000 C   0  0  0  0  0  2  0  0  0  0  0  0
  190.8060  177.3150  145.3620 C   0  0  0  0  0  2  0  0  0  0  0  0
  191.4320  176.6850  146.5960 C   0  0  0  0  0  2  0  0  0  0  0  0
  190.6300  176.9720  147.7710 N   0  0  0  0  0  2  0  0  0  0  0  0
  189.4250  177.6510  147.3240 C   0  0  0  0  0  2  0  0  0  0  0  0
  188.5480  177.9880  148.5160 C   0  0  0  0  0  1  0  0  0  0  0  0
  188.2070  178.6820  140.9050 C   0  0  0  0  0  2  0  0  0  0  0  0
  187.3520  178.2190  139.8190 N   0  0  0  0  0  2  0  0  0  0  0  0
  188.0600  178.4630  138.5720 C   0  0  0  0  0  2  0  0  0  0  0  0
  188.2040  177.1670  137.7790 C   0  0  2  0  0  3  0  0  0  0  0  0
  189.5280  177.1880  137.0300 C   0  0  0  0  0  1  0  0  0  0  0  0
  187.0360  177.0100  136.8140 C   0  0  1  0  0  3  0  0  0  0  0  0
  187.4750  177.1920  135.4960 O   0  0  0  0  0  1  0  0  0  0  0  0
  186.4210  175.6270  136.9490 C   0  0  0  0  0  2  0  0  0  0  0  0
  186.9350  174.7030  135.8540 C   0  0  0  0  0  2  0  0  0  0  0  0
  189.0330  173.7080  136.4390 O   0  0  0  0  0  1  0  0  0  0  0  0
  187.6480  173.5040  136.4630 C   0  0  2  0  0  3  0  0  0  0  0  0
  187.9620  171.1260  136.2420 O   0  0  0  0  0  1  0  0  0  0  0  0
  185.7780  171.9800  135.8090 C   0  0  0  0  0  1  0  0  0  0  0  0
  187.2740  172.2260  135.7180 C   0  0  1  0  0  3  0  0  0  0  0  0
  184.3550  179.5180  141.9750 N   0  0  0  0  0  2  0  0  0  0  0  0
  183.9630  177.4750  140.3080 O   0  0  0  0  0  0  0  0  0  0  0  0
  183.6780  178.9440  140.4850 S   0  0  0  0  0  0  0  0  0  0  0  0
  184.2710  179.7060  139.3360 O   0  0  0  0  0  0  0  0  0  0  0  0
  181.9180  179.2190  140.5340 C   0  0  0  0  0  2  0  0  0  0  0  0
  181.4100  179.8750  139.2440 C   0  0  1  0  0  3  0  0  0  0  0  0
  179.9440  176.7630  137.4630 C   0  0  2  0  0  3  0  0  0  0  0  0
  180.9240  178.4300  135.7380 C   0  0  0  0  0  3  0  0  0  0  0  0
  181.3770  179.1910  136.7340 C   0  0  0  0  0  3  0  0  0  0  0  0
  179.5040  176.6600  135.0870 O   0  0  0  0  0  0  0  0  0  0  0  0
  181.0140  178.9190  138.1460 C   0  0  0  0  0  0  0  0  0  0  0  0
  180.0780  177.2660  136.0310 C   0  0  0  0  0  0  0  0  0  0  0  0
  180.3180  177.8190  138.4750 C   0  0  0  0  0  3  0  0  0  0  0  0
  180.7050  175.5240  137.7150 N   0  0  0  0  0  0  0  0  0  0  0  0
  179.9060  173.3500  136.6480 C   0  0  0  0  0  2  0  0  0  0  0  0
  181.0590  172.4030  136.9570 C   0  0  0  0  0  2  0  0  0  0  0  0
  182.3890  172.9710  136.4730 C   0  0  0  0  0  2  0  0  0  0  0  0
  179.7620  174.3880  137.7660 C   0  0  0  0  0  2  0  0  0  0  0  0
  182.7620  174.2520  137.2060 C   0  0  0  0  0  2  0  0  0  0  0  0
  181.8330  175.3800  136.7760 C   0  0  0  0  0  2  0  0  0  0  0  0
  179.8570  180.6660  140.7380 C   0  0  0  0  0  1  0  0  0  0  0  0
  180.4460  180.8830  139.4820 O   0  0  0  0  0  0  0  0  0  0  0  0
  1 35  1  6  0  0  0
  1  5  1  0  0  0  0
  1  7  1  0  0  0  0
  3  5  2  0  0  0  0
  5  6  1  0  0  0  0
  6  2  1  0  0  0  0
  6  4  2  0  0  0  0
  7  2  1  0  0  0  0
  8  7  2  0  0  0  0
  9  3  2  0  0  0  0
 10 11  1  0  0  0  0
 11 12  2  0  0  0  0
 11 13  1  0  0  0  0
 12  9  1  0  0  0  0
 13 14  2  0  0  0  0
 14 15  1  0  0  0  0
 15 16  1  0  0  0  0
 16 17  1  0  0  0  0
 17 18  1  0  0  0  0
 19 18  1  0  0  0  0
 19 20  1  0  0  0  0
 21 12  1  0  0  0  0
 22 21  1  0  0  0  0
 23 22  1  0  0  0  0
 24 25  1  6  0  0  0
 24 23  1  0  0  0  0
 26 27  1  6  0  0  0
 26 28  1  0  0  0  0
 26 24  1  0  0  0  0
 29 31  1  0  0  0  0
 29 28  1  0  0  0  0
 31 30  1  6  0  0  0
 34 33  1  1  0  0  0
 34 32  1  0  0  0  0
 34 31  1  0  0  0  0
 36 37  2  0  0  0  0
 37 39  1  0  0  0  0
 37 35  1  0  0  0  0
 38 37  2  0  0  0  0
 40 56  1  0  0  0  0
 40 39  1  1  0  0  0
 41 48  1  6  0  0  0
 41 47  1  0  0  0  0
 42 46  1  0  0  0  0
 42 43  2  0  0  0  0
 43 45  1  0  0  0  0
 44 46  2  0  0  0  0
 45 47  2  0  0  0  0
 45 40  1  0  0  0  0
 46 41  1  0  0  0  0
 48 52  1  0  0  0  0
 49 50  1  0  0  0  0
 49 52  1  0  0  0  0
 51 50  1  0  0  0  0
 51 53  1  0  0  0  0
 54 53  1  0  0  0  0
 54 48  1  0  0  0  0
 56 55  1  0  0  0  0
M  END
>  <MODEL>
2

>  <REMARK>
 VINA RESULT:      -6.8      1.545      2.372
  Name = 
  23 active torsions:
  status: ('A' for Active; 'I' for Inactive)
    1  A    between atoms: C_1  and  C_8
    2  A    between atoms: C_1  and  C_31
    3  A    between atoms: C_2  and  N_46
    4  A    between atoms: C_4  and  C_7
    5  A    between atoms: C_4  and  C_36
    6  A    between atoms: N_6  and  C_43
    7  A    between atoms: C_7  and  C_20
    8  A    between atoms: C_8  and  C_42
    9  A    between atoms: C_9  and  N_14
   10  A    between atoms: C_11  and  N_21
   11  A    between atoms: C_20  and  C_23
   12  A    between atoms: N_21  and  C_31
   13  A    between atoms: C_22  and  C_26
   14  A    between atoms: C_22  and  O_28
   15  A    between atoms: C_22  and  C_38
   16  A    between atoms: C_23  and  N_51
   17  A    between atoms: C_26  and  S_39
   18  A    between atoms: C_32  and  N_51
   19  A    between atoms: C_32  and  C_54
   20  A    between atoms: C_36  and  C_56
   21  A    between atoms: S_39  and  N_46
   22  A    between atoms: C_41  and  C_54
   23  A    between atoms: C_53  and  C_56
                            x       y       z     vdW  Elec       q    Type
                         _______ _______ _______ _____ _____    ______ ____

>  <TORSDO>
F 23

$$$$
=
 OpenBabel10222420553D

 56 58  0  0  1  0  0  0  0  0999 V2000
  184.5550  178.4780  142.4220 C   0  0  1  0  0  3  0  0  0  0  0  0
  184.0480  179.0110  144.7770 N   0  0  0  0  0  2  0  0  0  0  0  0
  186.8250  177.6500  142.9340 C   0  0  0  0  0  0  0  0  0  0  0  0
  186.2130  178.6350  145.6270 O   0  0  0  0  0  0  0  0  0  0  0  0
  185.7810  178.3640  143.2690 C   0  0  0  0  0  0  0  0  0  0  0  0
  185.4180  178.6690  144.6490 C   0  0  0  0  0  0  0  0  0  0  0  0
  183.5380  178.8920  143.4500 C   0  0  0  0  0  0  0  0  0  0  0  0
  182.3250  179.0990  143.1790 O   0  0  0  0  0  0  0  0  0  0  0  0
  187.8710  176.9350  142.6040 C   0  0  0  0  0  3  0  0  0  0  0  0
  191.2300  177.3330  140.7990 C   0  0  0  0  0  1  0  0  0  0  0  0
  190.1560  176.8520  141.7320 C   0  0  0  0  0  0  0  0  0  0  0  0
  188.9430  177.4450  141.7230 C   0  0  0  0  0  0  0  0  0  0  0  0
  190.3790  175.7100  142.5790 N   0  0  0  0  0  0  0  0  0  0  0  0
  191.0640  175.6660  143.6880 C   0  0  0  0  0  3  0  0  0  0  0  0
  191.7010  176.8550  144.3390 C   0  0  0  0  0  2  0  0  0  0  0  0
  190.6620  177.6790  145.0840 C   0  0  0  0  0  2  0  0  0  0  0  0
  190.2210  176.9850  146.3620 C   0  0  0  0  0  2  0  0  0  0  0  0
  188.7750  177.0250  146.4840 N   0  0  0  0  0  2  0  0  0  0  0  0
  188.4530  176.9020  147.8960 C   0  0  0  0  0  2  0  0  0  0  0  0
  188.3410  178.2800  148.5230 C   0  0  0  0  0  1  0  0  0  0  0  0
  188.6500  178.5980  140.7980 C   0  0  0  0  0  2  0  0  0  0  0  0
  187.9170  178.1190  139.6330 N   0  0  0  0  0  2  0  0  0  0  0  0
  188.7680  178.3190  138.4700 C   0  0  0  0  0  2  0  0  0  0  0  0
  188.7300  177.0900  137.5660 C   0  0  2  0  0  3  0  0  0  0  0  0
  189.8640  177.1810  136.5560 C   0  0  0  0  0  1  0  0  0  0  0  0
  187.3820  177.0000  136.8610 C   0  0  1  0  0  3  0  0  0  0  0  0
  187.1550  178.1600  136.1100 O   0  0  0  0  0  1  0  0  0  0  0  0
  187.3480  175.7920  135.9380 C   0  0  0  0  0  2  0  0  0  0  0  0
  187.3020  174.5030  136.7450 C   0  0  0  0  0  2  0  0  0  0  0  0
  186.2100  172.5490  135.8940 O   0  0  0  0  0  1  0  0  0  0  0  0
  187.3920  173.2960  135.8220 C   0  0  2  0  0  3  0  0  0  0  0  0
  188.6740  171.3100  135.3550 O   0  0  0  0  0  1  0  0  0  0  0  0
  189.8800  173.2460  136.0550 C   0  0  0  0  0  1  0  0  0  0  0  0
  188.6000  172.4370  136.1820 C   0  0  1  0  0  3  0  0  0  0  0  0
  184.7320  179.5510  141.4510 N   0  0  0  0  0  2  0  0  0  0  0  0
  185.2280  178.4190  139.0900 O   0  0  0  0  0  0  0  0  0  0  0  0
  184.1210  179.0170  139.9190 S   0  0  0  0  0  0  0  0  0  0  0  0
  183.5240  180.1800  139.1820 O   0  0  0  0  0  0  0  0  0  0  0  0
  182.8610  177.7940  140.2210 C   0  0  0  0  0  2  0  0  0  0  0  0
  181.8940  177.6700  139.0370 C   0  0  1  0  0  3  0  0  0  0  0  0
  181.4910  175.1790  136.0980 C   0  0  2  0  0  3  0  0  0  0  0  0
  183.6190  174.6360  137.4740 C   0  0  0  0  0  3  0  0  0  0  0  0
  183.2880  175.5810  138.3530 C   0  0  0  0  0  3  0  0  0  0  0  0
  183.2530  173.7080  135.3350 O   0  0  0  0  0  0  0  0  0  0  0  0
  182.1610  176.5130  138.1060 C   0  0  0  0  0  0  0  0  0  0  0  0
  182.8330  174.4720  136.2440 C   0  0  0  0  0  0  0  0  0  0  0  0
  181.3580  176.3490  137.0420 C   0  0  0  0  0  3  0  0  0  0  0  0
  180.3380  174.2690  136.2460 N   0  0  0  0  0  0  0  0  0  0  0  0
  180.0670  172.3450  134.5950 C   0  0  0  0  0  2  0  0  0  0  0  0
  178.9310  171.5470  135.2240 C   0  0  0  0  0  2  0  0  0  0  0  0
  179.2420  171.1850  136.6720 C   0  0  0  0  0  2  0  0  0  0  0  0
  179.8980  173.8370  134.9040 C   0  0  0  0  0  2  0  0  0  0  0  0
  179.3520  172.4200  137.5560 C   0  0  0  0  0  2  0  0  0  0  0  0
  180.6210  173.1890  137.2090 C   0  0  0  0  0  2  0  0  0  0  0  0
  180.4190  177.4660  140.7830 C   0  0  0  0  0  1  0  0  0  0  0  0
  180.5370  177.7790  139.4190 O   0  0  0  0  0  0  0  0  0  0  0  0
  1 35  1  6  0  0  0
  1  5  1  0  0  0  0
  1  7  1  0  0  0  0
  3  5  2  0  0  0  0
  5  6  1  0  0  0  0
  6  2  1  0  0  0  0
  6  4  2  0  0  0  0
  7  2  1  0  0  0  0
  8  7  2  0  0  0  0
  9  3  2  0  0  0  0
 10 11  1  0  0  0  0
 11 13  1  0  0  0  0
 12 11  2  0  0  0  0
 12  9  1  0  0  0  0
 13 14  2  0  0  0  0
 14 15  1  0  0  0  0
 15 16  1  0  0  0  0
 16 17  1  0  0  0  0
 17 18  1  0  0  0  0
 18 19  1  0  0  0  0
 19 20  1  0  0  0  0
 21 12  1  0  0  0  0
 22 21  1  0  0  0  0
 23 22  1  0  0  0  0
 24 25  1  6  0  0  0
 24 23  1  0  0  0  0
 26 27  1  6  0  0  0
 26 24  1  0  0  0  0
 28 29  1  0  0  0  0
 28 26  1  0  0  0  0
 31 30  1  1  0  0  0
 31 34  1  0  0  0  0
 31 29  1  0  0  0  0
 32 34  1  0  0  0  0
 34 33  1  6  0  0  0
 36 37  2  0  0  0  0
 37 39  1  0  0  0  0
 37 35  1  0  0  0  0
 38 37  2  0  0  0  0
 40 56  1  0  0  0  0
 40 39  1  1  0  0  0
 41 46  1  0  0  0  0
 41 48  1  1  0  0  0
 41 47  1  0  0  0  0
 42 43  2  0  0  0  0
 44 46  2  0  0  0  0
 45 43  1  0  0  0  0
 45 40  1  0  0  0  0
 46 42  1  0  0  0  0
 47 45  2  0  0  0  0
 48 54  1  0  0  0  0
 49 52  1  0  0  0  0
 49 50  1  0  0  0  0
 50 51  1  0  0  0  0
 51 53  1  0  0  0  0
 52 48  1  0  0  0  0
 54 53  1  0  0  0  0
 56 55  1  0  0  0  0
M  END
>  <MODEL>
3

>  <REMARK>
 VINA RESULT:      -6.5      1.955      2.783
  Name = 
  23 active torsions:
  status: ('A' for Active; 'I' for Inactive)
    1  A    between atoms: C_1  and  C_8
    2  A    between atoms: C_1  and  C_31
    3  A    between atoms: C_2  and  N_46
    4  A    between atoms: C_4  and  C_7
    5  A    between atoms: C_4  and  C_36
    6  A    between atoms: N_6  and  C_43
    7  A    between atoms: C_7  and  C_20
    8  A    between atoms: C_8  and  C_42
    9  A    between atoms: C_9  and  N_14
   10  A    between atoms: C_11  and  N_21
   11  A    between atoms: C_20  and  C_23
   12  A    between atoms: N_21  and  C_31
   13  A    between atoms: C_22  and  C_26
   14  A    between atoms: C_22  and  O_28
   15  A    between atoms: C_22  and  C_38
   16  A    between atoms: C_23  and  N_51
   17  A    between atoms: C_26  and  S_39
   18  A    between atoms: C_32  and  N_51
   19  A    between atoms: C_32  and  C_54
   20  A    between atoms: C_36  and  C_56
   21  A    between atoms: S_39  and  N_46
   22  A    between atoms: C_41  and  C_54
   23  A    between atoms: C_53  and  C_56
                            x       y       z     vdW  Elec       q    Type
                         _______ _______ _______ _____ _____    ______ ____

>  <TORSDO>
F 23

$$$$
=
 OpenBabel10222420553D

 56 58  0  0  1  0  0  0  0  0999 V2000
  188.8180  175.0320  137.4440 C   0  0  1  0  0  3  0  0  0  0  0  0
  189.9060  173.2810  136.0880 N   0  0  0  0  0  2  0  0  0  0  0  0
  186.5400  174.1980  136.9790 C   0  0  0  0  0  0  0  0  0  0  0  0
  187.9390  172.3900  135.1440 O   0  0  0  0  0  0  0  0  0  0  0  0
  187.8070  174.2640  136.6560 C   0  0  0  0  0  0  0  0  0  0  0  0
  188.5030  173.2330  135.8930 C   0  0  0  0  0  0  0  0  0  0  0  0
  190.0890  174.3490  137.0150 C   0  0  0  0  0  0  0  0  0  0  0  0
  191.2280  174.6710  137.4480 O   0  0  0  0  0  0  0  0  0  0  0  0
  185.2730  174.1280  137.2980 C   0  0  0  0  0  3  0  0  0  0  0  0
  182.4860  175.9970  135.4430 C   0  0  0  0  0  1  0  0  0  0  0  0
  183.5240  174.9750  135.8110 C   0  0  0  0  0  0  0  0  0  0  0  0
  184.2900  175.1600  136.9080 C   0  0  0  0  0  0  0  0  0  0  0  0
  183.6520  173.7580  135.0560 N   0  0  0  0  0  0  0  0  0  0  0  0
  183.0070  172.6390  135.2370 C   0  0  0  0  0  3  0  0  0  0  0  0
  181.9250  172.4400  136.2530 C   0  0  0  0  0  2  0  0  0  0  0  0
  180.5570  172.6870  135.6360 C   0  0  0  0  0  2  0  0  0  0  0  0
  179.7170  173.6060  136.5080 C   0  0  0  0  0  2  0  0  0  0  0  0
  179.4220  172.9670  137.7770 N   0  0  0  0  0  2  0  0  0  0  0  0
  180.0180  173.7800  138.8250 C   0  0  0  0  0  2  0  0  0  0  0  0
  178.9310  174.4890  139.6110 C   0  0  0  0  0  1  0  0  0  0  0  0
  184.1340  176.3890  137.7650 C   0  0  0  0  0  2  0  0  0  0  0  0
  183.1490  176.1390  138.8090 N   0  0  0  0  0  2  0  0  0  0  0  0
  183.0290  177.3560  139.5970 C   0  0  0  0  0  2  0  0  0  0  0  0
  182.5300  178.5060  138.7280 C   0  0  2  0  0  3  0  0  0  0  0  0
  183.3610  179.7470  139.0200 C   0  0  0  0  0  1  0  0  0  0  0  0
  181.0540  178.7660  138.9980 C   0  0  1  0  0  3  0  0  0  0  0  0
  180.2810  178.3180  137.9190 O   0  0  0  0  0  1  0  0  0  0  0  0
  180.6130  178.0440  140.2620 C   0  0  0  0  0  2  0  0  0  0  0  0
  179.1590  178.3610  140.5790 C   0  0  0  0  0  2  0  0  0  0  0  0
  179.2430  180.6610  141.2420 O   0  0  0  0  0  1  0  0  0  0  0  0
  179.0720  179.3590  141.7260 C   0  0  2  0  0  3  0  0  0  0  0  0
  180.9840  180.1150  142.9830 O   0  0  0  0  0  1  0  0  0  0  0  0
  179.4330  178.6950  144.1090 C   0  0  0  0  0  1  0  0  0  0  0  0
  180.1130  179.0350  142.7940 C   0  0  1  0  0  3  0  0  0  0  0  0
  188.8340  176.4190  136.9960 N   0  0  0  0  0  2  0  0  0  0  0  0
  187.1720  177.6220  138.6960 O   0  0  0  0  0  0  0  0  0  0  0  0
  188.6340  177.4480  138.3770 S   0  0  0  0  0  0  0  0  0  0  0  0
  189.2440  178.7910  138.0970 O   0  0  0  0  0  0  0  0  0  0  0  0
  189.4710  176.6920  139.7570 C   0  0  0  0  0  2  0  0  0  0  0  0
  190.1190  177.7390  140.6710 C   0  0  1  0  0  3  0  0  0  0  0  0
  188.0510  177.1080  143.8840 C   0  0  2  0  0  3  0  0  0  0  0  0
  190.4740  177.8130  144.4770 C   0  0  0  0  0  3  0  0  0  0  0  0
  190.7260  178.0220  143.1850 C   0  0  0  0  0  3  0  0  0  0  0  0
  189.0300  176.8580  146.0820 O   0  0  0  0  0  0  0  0  0  0  0  0
  189.7570  177.6340  142.1320 C   0  0  0  0  0  0  0  0  0  0  0  0
  189.1930  177.2220  144.8870 C   0  0  0  0  0  0  0  0  0  0  0  0
  188.5380  177.1750  142.4570 C   0  0  0  0  0  3  0  0  0  0  0  0
  186.9830  178.1010  144.1060 N   0  0  0  0  0  0  0  0  0  0  0  0
  184.9340  178.0660  142.5900 C   0  0  0  0  0  2  0  0  0  0  0  0
  184.0100  179.0610  143.2830 C   0  0  0  0  0  2  0  0  0  0  0  0
  183.8000  178.6950  144.7480 C   0  0  0  0  0  2  0  0  0  0  0  0
  186.3970  178.4690  142.8010 C   0  0  0  0  0  2  0  0  0  0  0  0
  185.0940  178.7810  145.5470 C   0  0  0  0  0  2  0  0  0  0  0  0
  186.0290  177.6510  145.1350 C   0  0  0  0  0  2  0  0  0  0  0  0
  191.9880  176.7270  139.8040 C   0  0  0  0  0  1  0  0  0  0  0  0
  191.5100  177.8790  140.4490 O   0  0  0  0  0  0  0  0  0  0  0  0
  1 35  1  6  0  0  0
  2  7  1  0  0  0  0
  3  9  2  0  0  0  0
  4  6  2  0  0  0  0
  5  3  2  0  0  0  0
  5  1  1  0  0  0  0
  6  2  1  0  0  0  0
  6  5  1  0  0  0  0
  7  1  1  0  0  0  0
  7  8  2  0  0  0  0
 10 11  1  0  0  0  0
 11 12  2  0  0  0  0
 12  9  1  0  0  0  0
 12 21  1  0  0  0  0
 13 14  2  0  0  0  0
 13 11  1  0  0  0  0
 14 15  1  0  0  0  0
 16 15  1  0  0  0  0
 16 17  1  0  0  0  0
 17 18  1  0  0  0  0
 18 19  1  0  0  0  0
 19 20  1  0  0  0  0
 21 22  1  0  0  0  0
 22 23  1  0  0  0  0
 24 26  1  0  0  0  0
 24 25  1  1  0  0  0
 24 23  1  0  0  0  0
 26 27  1  6  0  0  0
 26 28  1  0  0  0  0
 28 29  1  0  0  0  0
 29 31  1  0  0  0  0
 31 30  1  6  0  0  0
 31 34  1  0  0  0  0
 34 32  1  0  0  0  0
 34 33  1  1  0  0  0
 35 37  1  0  0  0  0
 37 36  2  0  0  0  0
 37 39  1  0  0  0  0
 38 37  2  0  0  0  0
 40 39  1  6  0  0  0
 40 45  1  0  0  0  0
 41 47  1  6  0  0  0
 41 48  1  0  0  0  0
 41 46  1  0  0  0  0
 42 46  1  0  0  0  0
 43 42  2  0  0  0  0
 45 47  2  0  0  0  0
 45 43  1  0  0  0  0
 46 44  2  0  0  0  0
 48 54  1  0  0  0  0
 49 52  1  0  0  0  0
 49 50  1  0  0  0  0
 50 51  1  0  0  0  0
 51 53  1  0  0  0  0
 52 48  1  0  0  0  0
 54 53  1  0  0  0  0
 55 56  1  0  0  0  0
 56 40  1  0  0  0  0
M  END
>  <MODEL>
4

>  <REMARK>
 VINA RESULT:      -5.8      2.453     10.557
  Name = 
  23 active torsions:
  status: ('A' for Active; 'I' for Inactive)
    1  A    between atoms: C_1  and  C_8
    2  A    between atoms: C_1  and  C_31
    3  A    between atoms: C_2  and  N_46
    4  A    between atoms: C_4  and  C_7
    5  A    between atoms: C_4  and  C_36
    6  A    between atoms: N_6  and  C_43
    7  A    between atoms: C_7  and  C_20
    8  A    between atoms: C_8  and  C_42
    9  A    between atoms: C_9  and  N_14
   10  A    between atoms: C_11  and  N_21
   11  A    between atoms: C_20  and  C_23
   12  A    between atoms: N_21  and  C_31
   13  A    between atoms: C_22  and  C_26
   14  A    between atoms: C_22  and  O_28
   15  A    between atoms: C_22  and  C_38
   16  A    between atoms: C_23  and  N_51
   17  A    between atoms: C_26  and  S_39
   18  A    between atoms: C_32  and  N_51
   19  A    between atoms: C_32  and  C_54
   20  A    between atoms: C_36  and  C_56
   21  A    between atoms: S_39  and  N_46
   22  A    between atoms: C_41  and  C_54
   23  A    between atoms: C_53  and  C_56
                            x       y       z     vdW  Elec       q    Type
                         _______ _______ _______ _____ _____    ______ ____

>  <TORSDO>
F 23

$$$$
=
 OpenBabel10222420553D

 56 58  0  0  1  0  0  0  0  0999 V2000
  187.9250  176.7470  136.9670 C   0  0  1  0  0  3  0  0  0  0  0  0
  190.2770  176.2800  136.3840 N   0  0  0  0  0  2  0  0  0  0  0  0
  188.5130  177.9200  139.0600 C   0  0  0  0  0  0  0  0  0  0  0  0
  191.2240  177.0100  138.4130 O   0  0  0  0  0  0  0  0  0  0  0  0
  188.8330  177.0830  138.1050 C   0  0  0  0  0  0  0  0  0  0  0  0
  190.2060  176.8080  137.6970 C   0  0  0  0  0  0  0  0  0  0  0  0
  188.9170  176.2500  135.9510 C   0  0  0  0  0  0  0  0  0  0  0  0
  188.5900  175.8550  134.8000 O   0  0  0  0  0  0  0  0  0  0  0  0
  188.1990  178.7570  140.0150 C   0  0  0  0  0  3  0  0  0  0  0  0
  185.3010  178.2460  142.4740 C   0  0  0  0  0  1  0  0  0  0  0  0
  186.1120  178.6970  141.2930 C   0  0  0  0  0  0  0  0  0  0  0  0
  187.4170  178.3580  141.2040 C   0  0  0  0  0  0  0  0  0  0  0  0
  185.4930  179.4150  140.2110 N   0  0  0  0  0  0  0  0  0  0  0  0
  184.4910  179.0260  139.4710 C   0  0  0  0  0  3  0  0  0  0  0  0
  183.7330  177.7510  139.6730 C   0  0  0  0  0  2  0  0  0  0  0  0
  182.2380  177.9830  139.5090 C   0  0  0  0  0  2  0  0  0  0  0  0
  181.8300  179.3420  140.0550 C   0  0  0  0  0  2  0  0  0  0  0  0
  180.6390  179.8200  139.3760 N   0  0  0  0  0  2  0  0  0  0  0  0
  181.0650  180.4630  138.1450 C   0  0  0  0  0  2  0  0  0  0  0  0
  181.7340  181.7890  138.4580 C   0  0  0  0  0  1  0  0  0  0  0  0
  188.0820  177.5450  142.2840 C   0  0  0  0  0  2  0  0  0  0  0  0
  189.5300  177.6240  142.1380 N   0  0  0  0  0  2  0  0  0  0  0  0
  190.0690  178.1170  143.3960 C   0  0  0  0  0  2  0  0  0  0  0  0
  191.0210  177.0910  144.0050 C   0  0  2  0  0  3  0  0  0  0  0  0
  190.8790  175.7760  143.2540 C   0  0  0  0  0  1  0  0  0  0  0  0
  190.7160  176.9070  145.4860 C   0  0  1  0  0  3  0  0  0  0  0  0
  191.8750  177.1120  146.2450 O   0  0  0  0  0  1  0  0  0  0  0  0
  189.6470  177.8920  145.9320 C   0  0  0  0  0  2  0  0  0  0  0  0
  188.5900  177.1900  146.7720 C   0  0  0  0  0  2  0  0  0  0  0  0
  187.2430  177.7190  148.6810 O   0  0  0  0  0  1  0  0  0  0  0  0
  187.6840  178.2110  147.4470 C   0  0  2  0  0  3  0  0  0  0  0  0
  186.6000  177.8850  145.3200 O   0  0  0  0  0  1  0  0  0  0  0  0
  185.1950  178.1840  147.2240 C   0  0  0  0  0  1  0  0  0  0  0  0
  186.5030  178.5550  146.5460 C   0  0  1  0  0  3  0  0  0  0  0  0
  187.0390  175.6570  137.3570 N   0  0  0  0  0  2  0  0  0  0  0  0
  185.3520  177.2870  136.0940 O   0  0  0  0  0  0  0  0  0  0  0  0
  185.5230  175.8580  136.5400 S   0  0  0  0  0  0  0  0  0  0  0  0
  184.3990  175.4900  137.4640 O   0  0  0  0  0  0  0  0  0  0  0  0
  185.5080  174.7750  135.1250 C   0  0  0  0  0  2  0  0  0  0  0  0
  185.5180  173.2990  135.5400 C   0  0  1  0  0  3  0  0  0  0  0  0
  181.7840  172.5000  134.8900 C   0  0  2  0  0  3  0  0  0  0  0  0
  182.7480  170.9460  136.7270 C   0  0  0  0  0  3  0  0  0  0  0  0
  183.8960  171.6210  136.6910 C   0  0  0  0  0  3  0  0  0  0  0  0
  180.6870  170.4910  135.6690 O   0  0  0  0  0  0  0  0  0  0  0  0
  184.1600  172.6530  135.6590 C   0  0  0  0  0  0  0  0  0  0  0  0
  181.6910  171.2470  135.7520 C   0  0  0  0  0  0  0  0  0  0  0  0
  183.1960  173.0270  134.8030 C   0  0  0  0  0  3  0  0  0  0  0  0
  180.8650  173.5700  135.3220 N   0  0  0  0  0  0  0  0  0  0  0  0
  181.0190  174.4330  137.7170 C   0  0  0  0  0  2  0  0  0  0  0  0
  180.0950  175.6440  137.6770 C   0  0  0  0  0  2  0  0  0  0  0  0
  180.4890  176.6060  136.5620 C   0  0  0  0  0  2  0  0  0  0  0  0
  180.5230  173.3580  136.7430 C   0  0  0  0  0  2  0  0  0  0  0  0
  180.3270  175.9790  135.1840 C   0  0  0  0  0  2  0  0  0  0  0  0
  181.3890  174.9050  134.9800 C   0  0  0  0  0  2  0  0  0  0  0  0
  187.6780  172.5270  135.4690 C   0  0  0  0  0  1  0  0  0  0  0  0
  186.4430  172.5240  134.8010 O   0  0  0  0  0  0  0  0  0  0  0  0
  1 35  1  1  0  0  0
  1  5  1  0  0  0  0
  2  6  1  0  0  0  0
  3  9  2  0  0  0  0
  5  3  2  0  0  0  0
  6  5  1  0  0  0  0
  6  4  2  0  0  0  0
  7  2  1  0  0  0  0
  7  1  1  0  0  0  0
  8  7  2  0  0  0  0
  9 12  1  0  0  0  0
 11 10  1  0  0  0  0
 12 11  2  0  0  0  0
 12 21  1  0  0  0  0
 13 11  1  0  0  0  0
 14 15  1  0  0  0  0
 14 13  2  0  0  0  0
 16 15  1  0  0  0  0
 16 17  1  0  0  0  0
 18 17  1  0  0  0  0
 19 20  1  0  0  0  0
 19 18  1  0  0  0  0
 22 21  1  0  0  0  0
 22 23  1  0  0  0  0
 23 24  1  0  0  0  0
 24 25  1  6  0  0  0
 24 26  1  0  0  0  0
 26 28  1  0  0  0  0
 26 27  1  1  0  0  0
 28 29  1  0  0  0  0
 29 31  1  0  0  0  0
 31 30  1  1  0  0  0
 32 34  1  0  0  0  0
 34 33  1  1  0  0  0
 34 31  1  0  0  0  0
 36 37  2  0  0  0  0
 37 35  1  0  0  0  0
 37 38  2  0  0  0  0
 39 37  1  0  0  0  0
 40 39  1  6  0  0  0
 40 45  1  0  0  0  0
 41 47  1  1  0  0  0
 41 48  1  0  0  0  0
 41 46  1  0  0  0  0
 43 42  2  0  0  0  0
 44 46  2  0  0  0  0
 45 43  1  0  0  0  0
 46 42  1  0  0  0  0
 47 45  2  0  0  0  0
 48 52  1  0  0  0  0
 50 49  1  0  0  0  0
 51 50  1  0  0  0  0
 52 49  1  0  0  0  0
 53 51  1  0  0  0  0
 54 53  1  0  0  0  0
 54 48  1  0  0  0  0
 56 55  1  0  0  0  0
 56 40  1  0  0  0  0
M  END
>  <MODEL>
5

>  <REMARK>
 VINA RESULT:      -5.7      2.553      8.101
  Name = 
  23 active torsions:
  status: ('A' for Active; 'I' for Inactive)
    1  A    between atoms: C_1  and  C_8
    2  A    between atoms: C_1  and  C_31
    3  A    between atoms: C_2  and  N_46
    4  A    between atoms: C_4  and  C_7
    5  A    between atoms: C_4  and  C_36
    6  A    between atoms: N_6  and  C_43
    7  A    between atoms: C_7  and  C_20
    8  A    between atoms: C_8  and  C_42
    9  A    between atoms: C_9  and  N_14
   10  A    between atoms: C_11  and  N_21
   11  A    between atoms: C_20  and  C_23
   12  A    between atoms: N_21  and  C_31
   13  A    between atoms: C_22  and  C_26
   14  A    between atoms: C_22  and  O_28
   15  A    between atoms: C_22  and  C_38
   16  A    between atoms: C_23  and  N_51
   17  A    between atoms: C_26  and  S_39
   18  A    between atoms: C_32  and  N_51
   19  A    between atoms: C_32  and  C_54
   20  A    between atoms: C_36  and  C_56
   21  A    between atoms: S_39  and  N_46
   22  A    between atoms: C_41  and  C_54
   23  A    between atoms: C_53  and  C_56
                            x       y       z     vdW  Elec       q    Type
                         _______ _______ _______ _____ _____    ______ ____

>  <TORSDO>
F 23

$$$$
=
 OpenBabel10222420553D

 56 58  0  0  1  0  0  0  0  0999 V2000
  182.9390  177.7000  139.7540 C   0  0  1  0  0  3  0  0  0  0  0  0
  180.7170  176.7660  140.2810 N   0  0  0  0  0  2  0  0  0  0  0  0
  183.3400  176.1160  137.9020 C   0  0  0  0  0  0  0  0  0  0  0  0
  180.8460  174.8990  138.8480 O   0  0  0  0  0  0  0  0  0  0  0  0
  182.7030  176.4310  139.0010 C   0  0  0  0  0  0  0  0  0  0  0  0
  181.3710  175.9370  139.3350 C   0  0  0  0  0  0  0  0  0  0  0  0
  181.6510  177.8160  140.5240 C   0  0  0  0  0  0  0  0  0  0  0  0
  181.3970  178.7690  141.3080 O   0  0  0  0  0  0  0  0  0  0  0  0
  183.9730  175.7960  136.8020 C   0  0  0  0  0  3  0  0  0  0  0  0
  186.7710  173.2090  137.2230 C   0  0  0  0  0  1  0  0  0  0  0  0
  185.4330  173.8900  137.2730 C   0  0  0  0  0  0  0  0  0  0  0  0
  185.3010  175.1490  136.8020 C   0  0  0  0  0  0  0  0  0  0  0  0
  184.2700  173.1840  137.7390 N   0  0  0  0  0  0  0  0  0  0  0  0
  183.6250  172.2270  137.1310 C   0  0  0  0  0  3  0  0  0  0  0  0
  184.0410  171.6210  135.8270 C   0  0  0  0  0  2  0  0  0  0  0  0
  182.8590  171.5410  134.8710 C   0  0  0  0  0  2  0  0  0  0  0  0
  181.9190  172.7200  135.0580 C   0  0  0  0  0  2  0  0  0  0  0  0
  180.5770  172.3690  134.6320 N   0  0  0  0  0  2  0  0  0  0  0  0
  179.7790  172.1570  135.8280 C   0  0  0  0  0  2  0  0  0  0  0  0
  179.5050  170.6760  136.0120 C   0  0  0  0  0  1  0  0  0  0  0  0
  186.4840  175.8940  136.2380 C   0  0  0  0  0  2  0  0  0  0  0  0
  186.6320  177.1710  136.9250 N   0  0  0  0  0  2  0  0  0  0  0  0
  188.0380  177.5410  136.8580 C   0  0  0  0  0  2  0  0  0  0  0  0
  188.8800  176.5890  137.7030 C   0  0  2  0  0  3  0  0  0  0  0  0
  189.3020  177.3010  138.9800 C   0  0  0  0  0  1  0  0  0  0  0  0
  190.0970  176.1230  136.9130 C   0  0  1  0  0  3  0  0  0  0  0  0
  190.0310  176.6070  135.6000 O   0  0  0  0  0  1  0  0  0  0  0  0
  191.3750  176.6250  137.5670 C   0  0  0  0  0  2  0  0  0  0  0  0
  192.1480  175.4690  138.1850 C   0  0  0  0  0  2  0  0  0  0  0  0
  193.8660  176.7220  137.0820 O   0  0  0  0  0  1  0  0  0  0  0  0
  193.6410  175.6380  137.9400 C   0  0  2  0  0  3  0  0  0  0  0  0
  194.7070  173.5240  138.3860 O   0  0  0  0  0  1  0  0  0  0  0  0
  193.1960  173.6150  136.5420 C   0  0  0  0  0  1  0  0  0  0  0  0
  194.2360  174.3570  137.3650 C   0  0  1  0  0  3  0  0  0  0  0  0
  184.0480  177.5160  140.6830 N   0  0  0  0  0  2  0  0  0  0  0  0
  184.3630  180.0530  139.9280 O   0  0  0  0  0  0  0  0  0  0  0  0
  185.0820  178.9060  140.5900 S   0  0  0  0  0  0  0  0  0  0  0  0
  186.3110  178.5670  139.7990 O   0  0  0  0  0  0  0  0  0  0  0  0
  185.5490  179.3590  142.2490 C   0  0  0  0  0  2  0  0  0  0  0  0
  185.1950  178.2610  143.2590 C   0  0  1  0  0  3  0  0  0  0  0  0
  188.4730  178.4960  145.3090 C   0  0  2  0  0  3  0  0  0  0  0  0
  186.6980  177.0950  146.5750 C   0  0  0  0  0  3  0  0  0  0  0  0
  185.8830  177.1820  145.5250 C   0  0  0  0  0  3  0  0  0  0  0  0
  188.6360  177.9090  147.6500 O   0  0  0  0  0  0  0  0  0  0  0  0
  186.1960  178.0580  144.3690 C   0  0  0  0  0  0  0  0  0  0  0  0
  187.9600  177.8460  146.5890 C   0  0  0  0  0  0  0  0  0  0  0  0
  187.3750  178.6950  144.2920 C   0  0  0  0  0  3  0  0  0  0  0  0
  189.6040  177.7680  144.7030 N   0  0  0  0  0  0  0  0  0  0  0  0
  189.1830  176.3420  142.6320 C   0  0  0  0  0  2  0  0  0  0  0  0
  190.5990  175.9700  142.2100 C   0  0  0  0  0  2  0  0  0  0  0  0
  191.4700  177.2100  142.0380 C   0  0  0  0  0  2  0  0  0  0  0  0
  189.1080  176.4890  144.1560 C   0  0  0  0  0  2  0  0  0  0  0  0
  191.6650  177.9560  143.3520 C   0  0  0  0  0  2  0  0  0  0  0  0
  190.3570  178.6200  143.7650 C   0  0  0  0  0  2  0  0  0  0  0  0
  183.5990  179.6640  144.1260 C   0  0  0  0  0  1  0  0  0  0  0  0
  183.8600  178.3450  143.7190 O   0  0  0  0  0  0  0  0  0  0  0  0
  1  7  1  0  0  0  0
  1 35  1  1  0  0  0
  2  7  1  0  0  0  0
  3  5  2  0  0  0  0
  4  6  2  0  0  0  0
  5  6  1  0  0  0  0
  5  1  1  0  0  0  0
  6  2  1  0  0  0  0
  7  8  2  0  0  0  0
  9  3  2  0  0  0  0
 10 11  1  0  0  0  0
 11 13  1  0  0  0  0
 12  9  1  0  0  0  0
 12 11  2  0  0  0  0
 14 13  2  0  0  0  0
 15 14  1  0  0  0  0
 16 17  1  0  0  0  0
 16 15  1  0  0  0  0
 18 17  1  0  0  0  0
 18 19  1  0  0  0  0
 19 20  1  0  0  0  0
 21 12  1  0  0  0  0
 21 22  1  0  0  0  0
 23 22  1  0  0  0  0
 23 24  1  0  0  0  0
 24 25  1  1  0  0  0
 26 27  1  6  0  0  0
 26 28  1  0  0  0  0
 26 24  1  0  0  0  0
 28 29  1  0  0  0  0
 31 30  1  6  0  0  0
 31 29  1  0  0  0  0
 34 33  1  1  0  0  0
 34 31  1  0  0  0  0
 34 32  1  0  0  0  0
 36 37  2  0  0  0  0
 37 35  1  0  0  0  0
 37 39  1  0  0  0  0
 38 37  2  0  0  0  0
 40 39  1  1  0  0  0
 40 56  1  0  0  0  0
 40 45  1  0  0  0  0
 41 47  1  6  0  0  0
 41 46  1  0  0  0  0
 42 46  1  0  0  0  0
 43 42  2  0  0  0  0
 45 43  1  0  0  0  0
 46 44  2  0  0  0  0
 47 45  2  0  0  0  0
 48 41  1  0  0  0  0
 49 52  1  0  0  0  0
 50 49  1  0  0  0  0
 51 50  1  0  0  0  0
 51 53  1  0  0  0  0
 52 48  1  0  0  0  0
 53 54  1  0  0  0  0
 54 48  1  0  0  0  0
 56 55  1  0  0  0  0
M  END
>  <MODEL>
6

>  <REMARK>
 VINA RESULT:      -5.7      2.114      8.429
  Name = 
  23 active torsions:
  status: ('A' for Active; 'I' for Inactive)
    1  A    between atoms: C_1  and  C_8
    2  A    between atoms: C_1  and  C_31
    3  A    between atoms: C_2  and  N_46
    4  A    between atoms: C_4  and  C_7
    5  A    between atoms: C_4  and  C_36
    6  A    between atoms: N_6  and  C_43
    7  A    between atoms: C_7  and  C_20
    8  A    between atoms: C_8  and  C_42
    9  A    between atoms: C_9  and  N_14
   10  A    between atoms: C_11  and  N_21
   11  A    between atoms: C_20  and  C_23
   12  A    between atoms: N_21  and  C_31
   13  A    between atoms: C_22  and  C_26
   14  A    between atoms: C_22  and  O_28
   15  A    between atoms: C_22  and  C_38
   16  A    between atoms: C_23  and  N_51
   17  A    between atoms: C_26  and  S_39
   18  A    between atoms: C_32  and  N_51
   19  A    between atoms: C_32  and  C_54
   20  A    between atoms: C_36  and  C_56
   21  A    between atoms: S_39  and  N_46
   22  A    between atoms: C_41  and  C_54
   23  A    between atoms: C_53  and  C_56
                            x       y       z     vdW  Elec       q    Type
                         _______ _______ _______ _____ _____    ______ ____

>  <TORSDO>
F 23

$$$$
=
 OpenBabel10222420553D

 56 58  0  0  1  0  0  0  0  0999 V2000
  184.8330  178.9120  141.7180 C   0  0  1  0  0  3  0  0  0  0  0  0
  182.8060  179.2380  143.0870 N   0  0  0  0  0  2  0  0  0  0  0  0
  183.5760  178.0200  139.7880 C   0  0  0  0  0  0  0  0  0  0  0  0
  181.3030  178.1480  141.6360 O   0  0  0  0  0  0  0  0  0  0  0  0
  183.6450  178.2800  141.0690 C   0  0  0  0  0  0  0  0  0  0  0  0
  182.4760  178.5220  141.9090 C   0  0  0  0  0  0  0  0  0  0  0  0
  184.2080  179.4720  142.9670 C   0  0  0  0  0  0  0  0  0  0  0  0
  184.8550  180.1170  143.8350 O   0  0  0  0  0  0  0  0  0  0  0  0
  183.5020  177.7590  138.5080 C   0  0  0  0  0  3  0  0  0  0  0  0
  185.6260  175.3640  136.3970 C   0  0  0  0  0  1  0  0  0  0  0  0
  185.0230  176.6150  136.9690 C   0  0  0  0  0  0  0  0  0  0  0  0
  184.0560  176.5270  137.9080 C   0  0  0  0  0  0  0  0  0  0  0  0
  185.5230  177.9090  136.5890 N   0  0  0  0  0  0  0  0  0  0  0  0
  186.7350  178.3680  136.7390 C   0  0  0  0  0  3  0  0  0  0  0  0
  187.8800  177.5730  137.2870 C   0  0  0  0  0  2  0  0  0  0  0  0
  189.1210  177.7560  136.4260 C   0  0  0  0  0  2  0  0  0  0  0  0
  189.9690  176.4960  136.4070 C   0  0  0  0  0  2  0  0  0  0  0  0
  189.2680  175.4060  137.0620 N   0  0  0  0  0  2  0  0  0  0  0  0
  189.8000  174.1620  136.5300 C   0  0  0  0  0  2  0  0  0  0  0  0
  188.8730  173.0120  136.8790 C   0  0  0  0  0  1  0  0  0  0  0  0
  183.5570  175.1880  138.3840 C   0  0  0  0  0  2  0  0  0  0  0  0
  182.1910  175.3170  138.8720 N   0  0  0  0  0  2  0  0  0  0  0  0
  181.3000  175.0310  137.7580 C   0  0  0  0  0  2  0  0  0  0  0  0
  179.8550  174.9460  138.2390 C   0  0  2  0  0  3  0  0  0  0  0  0
  179.1130  173.9140  137.4030 C   0  0  0  0  0  1  0  0  0  0  0  0
  179.1860  176.3110  138.1360 C   0  0  1  0  0  3  0  0  0  0  0  0
  179.2630  176.9770  139.3660 O   0  0  0  0  0  1  0  0  0  0  0  0
  179.8650  177.1530  137.0680 C   0  0  0  0  0  2  0  0  0  0  0  0
  179.6800  178.6350  137.3570 C   0  0  0  0  0  2  0  0  0  0  0  0
  181.5130  178.6630  135.8150 O   0  0  0  0  0  1  0  0  0  0  0  0
  180.5410  179.4700  136.4190 C   0  0  2  0  0  3  0  0  0  0  0  0
  180.6600  181.8520  136.7590 O   0  0  0  0  0  1  0  0  0  0  0  0
  180.9740  180.4620  138.6720 C   0  0  0  0  0  1  0  0  0  0  0  0
  181.1880  180.6250  137.1760 C   0  0  1  0  0  3  0  0  0  0  0  0
  185.7980  177.8790  142.0770 N   0  0  0  0  0  2  0  0  0  0  0  0
  188.0000  179.3810  142.0580 O   0  0  0  0  0  0  0  0  0  0  0  0
  187.3150  178.2570  141.3250 S   0  0  0  0  0  0  0  0  0  0  0  0
  187.0830  178.6630  139.8990 O   0  0  0  0  0  0  0  0  0  0  0  0
  188.3330  176.7950  141.3680 C   0  0  0  0  0  2  0  0  0  0  0  0
  189.8140  177.1410  141.5660 C   0  0  1  0  0  3  0  0  0  0  0  0
  189.8080  176.7920  145.4240 C   0  0  2  0  0  3  0  0  0  0  0  0
  192.0680  177.7500  144.5940 C   0  0  0  0  0  3  0  0  0  0  0  0
  191.5870  177.8030  143.3530 C   0  0  0  0  0  3  0  0  0  0  0  0
  191.8040  176.9130  146.7850 O   0  0  0  0  0  0  0  0  0  0  0  0
  190.2750  177.2060  143.0020 C   0  0  0  0  0  0  0  0  0  0  0  0
  191.2760  177.1250  145.6610 C   0  0  0  0  0  0  0  0  0  0  0  0
  189.4740  176.7040  143.9550 C   0  0  0  0  0  3  0  0  0  0  0  0
  188.8860  177.7230  146.1020 N   0  0  0  0  0  0  0  0  0  0  0  0
  186.3820  177.5150  145.6640 C   0  0  0  0  0  2  0  0  0  0  0  0
  185.7990  178.4700  146.6980 C   0  0  0  0  0  2  0  0  0  0  0  0
  186.2920  178.1370  148.1020 C   0  0  0  0  0  2  0  0  0  0  0  0
  187.7540  178.0140  145.1980 C   0  0  0  0  0  2  0  0  0  0  0  0
  187.7970  178.3270  148.2370 C   0  0  0  0  0  2  0  0  0  0  0  0
  188.5250  177.2450  147.4490 C   0  0  0  0  0  2  0  0  0  0  0  0
  191.4640  177.2580  139.9760 C   0  0  0  0  0  1  0  0  0  0  0  0
  190.6730  176.3830  140.7370 O   0  0  0  0  0  0  0  0  0  0  0  0
  1 35  1  1  0  0  0
  1  7  1  0  0  0  0
  3  5  2  0  0  0  0
  4  6  2  0  0  0  0
  5  1  1  0  0  0  0
  5  6  1  0  0  0  0
  6  2  1  0  0  0  0
  7  2  1  0  0  0  0
  7  8  2  0  0  0  0
  9  3  2  0  0  0  0
 10 11  1  0  0  0  0
 11 12  2  0  0  0  0
 12 21  1  0  0  0  0
 12  9  1  0  0  0  0
 13 14  2  0  0  0  0
 13 11  1  0  0  0  0
 14 15  1  0  0  0  0
 16 15  1  0  0  0  0
 17 16  1  0  0  0  0
 17 18  1  0  0  0  0
 19 20  1  0  0  0  0
 19 18  1  0  0  0  0
 21 22  1  0  0  0  0
 23 24  1  0  0  0  0
 23 22  1  0  0  0  0
 24 25  1  6  0  0  0
 26 24  1  0  0  0  0
 26 27  1  1  0  0  0
 28 29  1  0  0  0  0
 28 26  1  0  0  0  0
 31 30  1  1  0  0  0
 31 34  1  0  0  0  0
 31 29  1  0  0  0  0
 32 34  1  0  0  0  0
 34 33  1  1  0  0  0
 37 39  1  0  0  0  0
 37 36  2  0  0  0  0
 37 35  1  0  0  0  0
 38 37  2  0  0  0  0
 40 39  1  1  0  0  0
 40 45  1  0  0  0  0
 41 47  1  6  0  0  0
 41 46  1  0  0  0  0
 41 48  1  0  0  0  0
 42 46  1  0  0  0  0
 43 42  2  0  0  0  0
 45 43  1  0  0  0  0
 45 47  2  0  0  0  0
 46 44  2  0  0  0  0
 48 54  1  0  0  0  0
 49 50  1  0  0  0  0
 50 51  1  0  0  0  0
 51 53  1  0  0  0  0
 52 49  1  0  0  0  0
 52 48  1  0  0  0  0
 54 53  1  0  0  0  0
 55 56  1  0  0  0  0
 56 40  1  0  0  0  0
M  END
>  <MODEL>
7

>  <REMARK>
 VINA RESULT:      -5.4      2.283      9.667
  Name = 
  23 active torsions:
  status: ('A' for Active; 'I' for Inactive)
    1  A    between atoms: C_1  and  C_8
    2  A    between atoms: C_1  and  C_31
    3  A    between atoms: C_2  and  N_46
    4  A    between atoms: C_4  and  C_7
    5  A    between atoms: C_4  and  C_36
    6  A    between atoms: N_6  and  C_43
    7  A    between atoms: C_7  and  C_20
    8  A    between atoms: C_8  and  C_42
    9  A    between atoms: C_9  and  N_14
   10  A    between atoms: C_11  and  N_21
   11  A    between atoms: C_20  and  C_23
   12  A    between atoms: N_21  and  C_31
   13  A    between atoms: C_22  and  C_26
   14  A    between atoms: C_22  and  O_28
   15  A    between atoms: C_22  and  C_38
   16  A    between atoms: C_23  and  N_51
   17  A    between atoms: C_26  and  S_39
   18  A    between atoms: C_32  and  N_51
   19  A    between atoms: C_32  and  C_54
   20  A    between atoms: C_36  and  C_56
   21  A    between atoms: S_39  and  N_46
   22  A    between atoms: C_41  and  C_54
   23  A    between atoms: C_53  and  C_56
                            x       y       z     vdW  Elec       q    Type
                         _______ _______ _______ _____ _____    ______ ____

>  <TORSDO>
F 23

$$$$
=
 OpenBabel10222420553D

 56 58  0  0  1  0  0  0  0  0999 V2000
  185.5530  178.2840  141.6780 C   0  0  1  0  0  3  0  0  0  0  0  0
  185.5190  178.5160  144.1340 N   0  0  0  0  0  2  0  0  0  0  0  0
  187.7990  177.2560  141.6480 C   0  0  0  0  0  0  0  0  0  0  0  0
  187.7610  177.8950  144.5100 O   0  0  0  0  0  0  0  0  0  0  0  0
  186.8950  177.9800  142.2600 C   0  0  0  0  0  0  0  0  0  0  0  0
  186.8100  178.1120  143.7100 C   0  0  0  0  0  0  0  0  0  0  0  0
  184.7730  178.6120  142.9220 C   0  0  0  0  0  0  0  0  0  0  0  0
  183.5530  178.9290  142.9110 O   0  0  0  0  0  0  0  0  0  0  0  0
  188.7050  176.5320  141.0420 C   0  0  0  0  0  3  0  0  0  0  0  0
  190.1750  177.8780  137.7670 C   0  0  0  0  0  1  0  0  0  0  0  0
  189.2420  177.2590  138.7680 C   0  0  0  0  0  0  0  0  0  0  0  0
  189.6430  177.0930  140.0470 C   0  0  0  0  0  0  0  0  0  0  0  0
  187.8940  176.9170  138.4000 N   0  0  0  0  0  0  0  0  0  0  0  0
  187.5100  176.1620  137.4080 C   0  0  0  0  0  3  0  0  0  0  0  0
  188.4400  175.4300  136.4900 C   0  0  0  0  0  2  0  0  0  0  0  0
  188.9670  174.1670  137.1560 C   0  0  0  0  0  2  0  0  0  0  0  0
  190.4470  173.9740  136.8740 C   0  0  0  0  0  2  0  0  0  0  0  0
  191.2430  174.5000  137.9680 N   0  0  0  0  0  2  0  0  0  0  0  0
  192.6300  174.5110  137.5340 C   0  0  0  0  0  2  0  0  0  0  0  0
  193.1830  175.9230  137.6030 C   0  0  0  0  0  1  0  0  0  0  0  0
  191.0240  177.5050  140.4870 C   0  0  0  0  0  2  0  0  0  0  0  0
  190.9370  178.2750  141.7210 N   0  0  0  0  0  2  0  0  0  0  0  0
  191.5580  177.4840  142.7730 C   0  0  0  0  0  2  0  0  0  0  0  0
  190.9760  177.8580  144.1330 C   0  0  2  0  0  3  0  0  0  0  0  0
  191.6770  179.1070  144.6470 C   0  0  0  0  0  1  0  0  0  0  0  0
  191.1430  176.7020  145.1110 C   0  0  1  0  0  3  0  0  0  0  0  0
  192.2110  176.9580  145.9810 O   0  0  0  0  0  1  0  0  0  0  0  0
  189.8720  176.5080  145.9230 C   0  0  0  0  0  2  0  0  0  0  0  0
  190.0990  176.9080  147.3730 C   0  0  0  0  0  2  0  0  0  0  0  0
  189.5850  178.6290  148.9590 O   0  0  0  0  0  1  0  0  0  0  0  0
  189.1550  178.0380  147.7650 C   0  0  2  0  0  3  0  0  0  0  0  0
  187.5090  176.9910  149.1780 O   0  0  0  0  0  1  0  0  0  0  0  0
  186.7320  178.6330  147.6330 C   0  0  0  0  0  1  0  0  0  0  0  0
  187.7280  177.5180  147.9000 C   0  0  1  0  0  3  0  0  0  0  0  0
  185.6460  179.4690  140.8330 N   0  0  0  0  0  2  0  0  0  0  0  0
  185.5730  178.8600  138.2400 O   0  0  0  0  0  0  0  0  0  0  0  0
  184.6900  179.2080  139.4090 S   0  0  0  0  0  0  0  0  0  0  0  0
  183.9130  180.4520  139.0910 O   0  0  0  0  0  0  0  0  0  0  0  0
  183.5610  177.8690  139.7380 C   0  0  0  0  0  2  0  0  0  0  0  0
  182.1930  178.1080  139.0880 C   0  0  1  0  0  3  0  0  0  0  0  0
  181.6230  174.4430  137.9700 C   0  0  2  0  0  3  0  0  0  0  0  0
  179.7600  175.9860  137.0400 C   0  0  0  0  0  3  0  0  0  0  0  0
  180.3970  177.0480  137.5320 C   0  0  0  0  0  3  0  0  0  0  0  0
  179.5460  173.6350  137.0310 O   0  0  0  0  0  0  0  0  0  0  0  0
  181.5760  176.9040  138.4200 C   0  0  0  0  0  0  0  0  0  0  0  0
  180.2480  174.6340  137.3410 C   0  0  0  0  0  0  0  0  0  0  0  0
  182.1160  175.6970  138.6520 C   0  0  0  0  0  3  0  0  0  0  0  0
  182.6350  173.9520  137.0150 N   0  0  0  0  0  0  0  0  0  0  0  0
  184.9310  173.2740  137.8920 C   0  0  0  0  0  2  0  0  0  0  0  0
  185.5620  172.6300  136.6630 C   0  0  0  0  0  2  0  0  0  0  0  0
  184.6760  171.5240  136.1000 C   0  0  0  0  0  2  0  0  0  0  0  0
  183.9710  174.3910  137.4680 C   0  0  0  0  0  2  0  0  0  0  0  0
  183.3470  172.0650  135.5870 C   0  0  0  0  0  2  0  0  0  0  0  0
  182.4840  172.5070  136.7620 C   0  0  0  0  0  2  0  0  0  0  0  0
  180.8610  177.9290  140.9490 C   0  0  0  0  0  1  0  0  0  0  0  0
  181.2940  178.7990  139.9340 O   0  0  0  0  0  0  0  0  0  0  0  0
  1 35  1  6  0  0  0
  1  5  1  0  0  0  0
  1  7  1  0  0  0  0
  3  5  2  0  0  0  0
  5  6  1  0  0  0  0
  6  2  1  0  0  0  0
  6  4  2  0  0  0  0
  7  2  1  0  0  0  0
  8  7  2  0  0  0  0
  9  3  2  0  0  0  0
 10 11  1  0  0  0  0
 11 12  2  0  0  0  0
 12 21  1  0  0  0  0
 12  9  1  0  0  0  0
 13 11  1  0  0  0  0
 14 13  2  0  0  0  0
 15 16  1  0  0  0  0
 15 14  1  0  0  0  0
 17 16  1  0  0  0  0
 17 18  1  0  0  0  0
 19 20  1  0  0  0  0
 19 18  1  0  0  0  0
 21 22  1  0  0  0  0
 22 23  1  0  0  0  0
 23 24  1  0  0  0  0
 24 25  1  1  0  0  0
 24 26  1  0  0  0  0
 26 28  1  0  0  0  0
 26 27  1  1  0  0  0
 28 29  1  0  0  0  0
 29 31  1  0  0  0  0
 31 34  1  0  0  0  0
 31 30  1  1  0  0  0
 34 33  1  1  0  0  0
 34 32  1  0  0  0  0
 36 37  2  0  0  0  0
 37 39  1  0  0  0  0
 37 35  1  0  0  0  0
 38 37  2  0  0  0  0
 40 39  1  1  0  0  0
 40 56  1  0  0  0  0
 41 48  1  6  0  0  0
 41 47  1  0  0  0  0
 42 46  1  0  0  0  0
 42 43  2  0  0  0  0
 43 45  1  0  0  0  0
 44 46  2  0  0  0  0
 45 47  2  0  0  0  0
 45 40  1  0  0  0  0
 46 41  1  0  0  0  0
 48 52  1  0  0  0  0
 50 49  1  0  0  0  0
 51 50  1  0  0  0  0
 52 49  1  0  0  0  0
 53 51  1  0  0  0  0
 53 54  1  0  0  0  0
 54 48  1  0  0  0  0
 56 55  1  0  0  0  0
M  END
>  <MODEL>
8

>  <REMARK>
 VINA RESULT:      -5.3      2.325      6.307
  Name = 
  23 active torsions:
  status: ('A' for Active; 'I' for Inactive)
    1  A    between atoms: C_1  and  C_8
    2  A    between atoms: C_1  and  C_31
    3  A    between atoms: C_2  and  N_46
    4  A    between atoms: C_4  and  C_7
    5  A    between atoms: C_4  and  C_36
    6  A    between atoms: N_6  and  C_43
    7  A    between atoms: C_7  and  C_20
    8  A    between atoms: C_8  and  C_42
    9  A    between atoms: C_9  and  N_14
   10  A    between atoms: C_11  and  N_21
   11  A    between atoms: C_20  and  C_23
   12  A    between atoms: N_21  and  C_31
   13  A    between atoms: C_22  and  C_26
   14  A    between atoms: C_22  and  O_28
   15  A    between atoms: C_22  and  C_38
   16  A    between atoms: C_23  and  N_51
   17  A    between atoms: C_26  and  S_39
   18  A    between atoms: C_32  and  N_51
   19  A    between atoms: C_32  and  C_54
   20  A    between atoms: C_36  and  C_56
   21  A    between atoms: S_39  and  N_46
   22  A    between atoms: C_41  and  C_54
   23  A    between atoms: C_53  and  C_56
                            x       y       z     vdW  Elec       q    Type
                         _______ _______ _______ _____ _____    ______ ____

>  <TORSDO>
F 23

$$$$
=
 OpenBabel10222420553D

 56 58  0  0  1  0  0  0  0  0999 V2000
  185.1330  178.1760  144.4480 C   0  0  1  0  0  3  0  0  0  0  0  0
  185.4030  178.5890  146.8650 N   0  0  0  0  0  2  0  0  0  0  0  0
  187.4330  177.3170  144.1780 C   0  0  0  0  0  0  0  0  0  0  0  0
  187.7190  178.1650  146.9700 O   0  0  0  0  0  0  0  0  0  0  0  0
  186.5610  178.0160  144.8590 C   0  0  0  0  0  0  0  0  0  0  0  0
  186.6560  178.2500  146.2960 C   0  0  0  0  0  0  0  0  0  0  0  0
  184.4990  178.5390  145.7630 C   0  0  0  0  0  0  0  0  0  0  0  0
  183.2660  178.7630  145.8990 O   0  0  0  0  0  0  0  0  0  0  0  0
  188.3090  176.6180  143.5010 C   0  0  0  0  0  3  0  0  0  0  0  0
  191.0310  177.2150  140.8690 C   0  0  0  0  0  1  0  0  0  0  0  0
  190.2900  176.6960  142.0670 C   0  0  0  0  0  0  0  0  0  0  0  0
  189.0580  177.1690  142.3530 C   0  0  0  0  0  0  0  0  0  0  0  0
  190.8440  175.6370  142.8680 N   0  0  0  0  0  0  0  0  0  0  0  0
  191.3810  175.7360  144.0530 C   0  0  0  0  0  3  0  0  0  0  0  0
  191.4510  177.0030  144.8490 C   0  0  0  0  0  2  0  0  0  0  0  0
  190.5900  176.9000  146.0980 C   0  0  0  0  0  2  0  0  0  0  0  0
  191.4400  176.9230  147.3570 C   0  0  0  0  0  2  0  0  0  0  0  0
  191.8570  175.5780  147.7090 N   0  0  0  0  0  2  0  0  0  0  0  0
  193.1410  175.6790  148.3820 C   0  0  0  0  0  2  0  0  0  0  0  0
  193.0560  176.6910  149.5110 C   0  0  0  0  0  1  0  0  0  0  0  0
  188.4150  178.2270  141.4940 C   0  0  0  0  0  2  0  0  0  0  0  0
  187.5960  177.5960  140.4670 N   0  0  0  0  0  2  0  0  0  0  0  0
  187.5860  178.4810  139.3120 C   0  0  0  0  0  2  0  0  0  0  0  0
  187.9140  177.7020  138.0420 C   0  0  2  0  0  3  0  0  0  0  0  0
  189.2570  178.1720  137.5050 C   0  0  0  0  0  1  0  0  0  0  0  0
  186.8150  177.9020  137.0060 C   0  0  1  0  0  3  0  0  0  0  0  0
  187.3230  178.5850  135.8930 O   0  0  0  0  0  1  0  0  0  0  0  0
  186.2600  176.5600  136.5570 C   0  0  0  0  0  2  0  0  0  0  0  0
  187.2500  175.4440  136.8610 C   0  0  0  0  0  2  0  0  0  0  0  0
  187.0400  174.5070  134.6660 O   0  0  0  0  0  1  0  0  0  0  0  0
  187.9660  175.0100  135.5890 C   0  0  2  0  0  3  0  0  0  0  0  0
  189.5970  173.4580  134.7320 O   0  0  0  0  0  1  0  0  0  0  0  0
  190.1260  174.5810  136.7690 C   0  0  0  0  0  1  0  0  0  0  0  0
  189.0350  173.9690  135.9070 C   0  0  1  0  0  3  0  0  0  0  0  0
  185.0160  179.2970  143.5230 N   0  0  0  0  0  2  0  0  0  0  0  0
  184.3830  177.3610  141.8050 O   0  0  0  0  0  0  0  0  0  0  0  0
  184.0720  178.7920  142.1590 S   0  0  0  0  0  0  0  0  0  0  0  0
  184.3780  179.6720  140.9820 O   0  0  0  0  0  0  0  0  0  0  0  0
  182.3500  178.9500  142.5880 C   0  0  0  0  0  2  0  0  0  0  0  0
  181.4980  179.3490  141.3770 C   0  0  1  0  0  3  0  0  0  0  0  0
  181.1650  176.9540  138.3510 C   0  0  2  0  0  3  0  0  0  0  0  0
  179.6100  176.2090  140.2860 C   0  0  0  0  0  3  0  0  0  0  0  0
  179.9460  177.3000  140.9730 C   0  0  0  0  0  3  0  0  0  0  0  0
  180.1010  174.7850  138.4680 O   0  0  0  0  0  0  0  0  0  0  0  0
  181.0280  178.2050  140.5130 C   0  0  0  0  0  0  0  0  0  0  0  0
  180.2870  175.9020  139.0200 C   0  0  0  0  0  0  0  0  0  0  0  0
  181.6160  178.0190  139.3210 C   0  0  0  0  0  3  0  0  0  0  0  0
  180.5300  177.5740  137.1720 N   0  0  0  0  0  0  0  0  0  0  0  0
  179.2410  179.7540  137.4710 C   0  0  0  0  0  2  0  0  0  0  0  0
  178.9600  180.1560  136.0280 C   0  0  0  0  0  2  0  0  0  0  0  0
  180.2440  180.2110  135.2070 C   0  0  0  0  0  2  0  0  0  0  0  0
  179.2740  178.2270  137.5960 C   0  0  0  0  0  2  0  0  0  0  0  0
  180.9000  178.8420  135.0830 C   0  0  0  0  0  2  0  0  0  0  0  0
  181.4770  178.4250  136.4300 C   0  0  0  0  0  2  0  0  0  0  0  0
  179.2370  179.7310  141.2850 C   0  0  0  0  0  1  0  0  0  0  0  0
  180.4670  180.2620  141.7040 O   0  0  0  0  0  0  0  0  0  0  0  0
  1 35  1  6  0  0  0
  1  5  1  0  0  0  0
  1  7  1  0  0  0  0
  3  5  2  0  0  0  0
  5  6  1  0  0  0  0
  6  2  1  0  0  0  0
  6  4  2  0  0  0  0
  7  8  2  0  0  0  0
  7  2  1  0  0  0  0
  9  3  2  0  0  0  0
 10 11  1  0  0  0  0
 11 12  2  0  0  0  0
 11 13  1  0  0  0  0
 12  9  1  0  0  0  0
 13 14  2  0  0  0  0
 14 15  1  0  0  0  0
 15 16  1  0  0  0  0
 16 17  1  0  0  0  0
 17 18  1  0  0  0  0
 18 19  1  0  0  0  0
 19 20  1  0  0  0  0
 21 12  1  0  0  0  0
 22 21  1  0  0  0  0
 23 22  1  0  0  0  0
 24 25  1  6  0  0  0
 24 23  1  0  0  0  0
 26 27  1  6  0  0  0
 26 24  1  0  0  0  0
 28 29  1  0  0  0  0
 28 26  1  0  0  0  0
 31 30  1  6  0  0  0
 31 34  1  0  0  0  0
 31 29  1  0  0  0  0
 32 34  1  0  0  0  0
 34 33  1  1  0  0  0
 36 37  2  0  0  0  0
 37 39  1  0  0  0  0
 37 35  1  0  0  0  0
 38 37  2  0  0  0  0
 40 56  1  0  0  0  0
 40 39  1  1  0  0  0
 41 48  1  6  0  0  0
 41 46  1  0  0  0  0
 41 47  1  0  0  0  0
 42 43  2  0  0  0  0
 44 46  2  0  0  0  0
 45 43  1  0  0  0  0
 45 40  1  0  0  0  0
 46 42  1  0  0  0  0
 47 45  2  0  0  0  0
 48 52  1  0  0  0  0
 49 52  1  0  0  0  0
 50 49  1  0  0  0  0
 51 50  1  0  0  0  0
 53 51  1  0  0  0  0
 53 54  1  0  0  0  0
 54 48  1  0  0  0  0
 55 56  1  0  0  0  0
M  END
>  <MODEL>
9

>  <REMARK>
 VINA RESULT:      -5.3      2.310      3.498
  Name = 
  23 active torsions:
  status: ('A' for Active; 'I' for Inactive)
    1  A    between atoms: C_1  and  C_8
    2  A    between atoms: C_1  and  C_31
    3  A    between atoms: C_2  and  N_46
    4  A    between atoms: C_4  and  C_7
    5  A    between atoms: C_4  and  C_36
    6  A    between atoms: N_6  and  C_43
    7  A    between atoms: C_7  and  C_20
    8  A    between atoms: C_8  and  C_42
    9  A    between atoms: C_9  and  N_14
   10  A    between atoms: C_11  and  N_21
   11  A    between atoms: C_20  and  C_23
   12  A    between atoms: N_21  and  C_31
   13  A    between atoms: C_22  and  C_26
   14  A    between atoms: C_22  and  O_28
   15  A    between atoms: C_22  and  C_38
   16  A    between atoms: C_23  and  N_51
   17  A    between atoms: C_26  and  S_39
   18  A    between atoms: C_32  and  N_51
   19  A    between atoms: C_32  and  C_54
   20  A    between atoms: C_36  and  C_56
   21  A    between atoms: S_39  and  N_46
   22  A    between atoms: C_41  and  C_54
   23  A    between atoms: C_53  and  C_56
                            x       y       z     vdW  Elec       q    Type
                         _______ _______ _______ _____ _____    ______ ____

>  <TORSDO>
F 23

$$$$
