=
 OpenBabel10222417343D

 57 59  0  0  1  0  0  0  0  0999 V2000
  189.4800  176.9630  144.3680 C   0  0  0  0  0  0  0  0  0  0  0  0
  185.6930  178.4120  145.5950 N   0  0  0  0  0  1  0  0  0  0  0  0
  188.0150  177.8640  146.0850 C   0  0  0  0  0  3  0  0  0  0  0  0
  187.1590  177.4910  143.8470 C   0  0  0  0  0  0  0  0  0  0  0  0
  186.9600  177.9200  145.1720 C   0  0  0  0  0  0  0  0  0  0  0  0
  189.2660  177.3880  145.6870 C   0  0  0  0  0  3  0  0  0  0  0  0
  188.4150  177.0220  143.4520 C   0  0  0  0  0  3  0  0  0  0  0  0
  190.8170  176.4720  143.9620 C   0  0  0  0  0  0  0  0  0  0  0  0
  191.6780  176.0190  144.8720 C   0  0  0  0  0  2  0  0  0  0  0  0
  191.1760  176.4850  142.5750 N   0  0  0  0  0  2  0  0  0  0  0  0
  191.8040  177.6180  141.9110 C   0  0  0  0  0  2  0  0  0  0  0  0
  191.6180  177.4860  140.4140 C   0  0  0  0  0  2  0  0  0  0  0  0
  192.9520  177.1920  139.7610 C   0  0  0  0  0  2  0  0  0  0  0  0
  192.7180  176.4050  138.4910 C   0  0  0  0  0  2  0  0  0  0  0  0
  193.9840  175.6660  138.1130 C   0  0  0  0  0  2  0  0  0  0  0  0
  193.7820  174.9760  136.8340 N   0  0  0  0  0  0  0  0  0  0  0  0
  193.1460  176.3460  134.5990 O   0  0  0  0  0  1  0  0  0  0  0  0
  194.3100  175.9940  135.4990 P   0  0  0  0  0  0  0  0  0  0  0  0
  195.0090  177.4130  136.1000 O   0  0  0  0  0  1  0  0  0  0  0  0
  195.4660  175.1550  134.5950 O   0  0  0  0  0  0  0  0  0  0  0  0
  194.3830  173.6870  136.7390 N   0  0  0  0  0  0  0  0  0  0  0  0
  196.6540  171.5160  137.0550 C   0  0  0  0  0  2  0  0  0  0  0  0
  194.9630  173.1920  138.0250 C   0  0  1  0  0  3  0  0  0  0  0  0
  197.1580  174.5560  137.6630 C   0  0  0  0  0  2  0  0  0  0  0  0
  195.4810  171.7390  138.0070 C   0  0  0  0  0  2  0  0  0  0  0  0
  197.6900  173.4390  136.7700 C   0  0  0  0  0  2  0  0  0  0  0  0
  197.7730  172.2380  137.4770 O   0  0  0  0  0  0  0  0  0  0  0  0
  196.0260  174.1360  138.6150 C   0  0  0  0  0  2  0  0  0  0  0  0
  191.6300  173.0050  136.8710 O   0  0  0  0  0  1  0  0  0  0  0  0
  193.1050  172.6170  136.1420 P   0  0  0  0  0  0  0  0  0  0  0  0
  192.9740  172.7470  134.6410 O   0  0  0  0  0  0  0  0  0  0  0  0
  193.4860  171.0150  136.5240 O   0  0  0  0  0  1  0  0  0  0  0  0
  186.0550  177.5480  142.8420 C   0  0  0  0  0  2  0  0  0  0  0  0
  186.2090  178.7740  141.9640 C   0  0  0  0  0  2  0  0  0  0  0  0
  185.0360  178.9710  141.2390 O   0  0  0  0  0  0  0  0  0  0  0  0
  185.4450  179.0090  139.9060 C   0  0  0  0  0  2  0  0  0  0  0  0
  184.4510  178.2910  138.9920 C   0  0  1  0  0  3  0  0  0  0  0  0
  182.0450  178.6610  139.3350 C   0  0  0  0  0  0  0  0  0  0  0  0
  181.8570  177.4470  140.1870 C   0  0  0  0  0  1  0  0  0  0  0  0
  183.1930  179.0040  138.8410 N   0  0  0  0  0  0  0  0  0  0  0  0
  180.8390  179.5160  139.0730 C   0  0  1  0  0  3  0  0  0  0  0  0
  181.2380  180.7580  138.2830 C   0  0  0  0  0  2  0  0  0  0  0  0
  180.4580  181.9810  138.7420 C   0  0  0  0  0  2  0  0  0  0  0  0
  179.6650  182.5640  137.5870 C   0  0  0  0  0  1  0  0  0  0  0  0
  179.7510  178.7380  138.3310 C   0  0  0  0  0  2  0  0  0  0  0  0
  180.2800  178.4160  135.9530 C   0  0  0  0  0  2  0  0  0  0  0  0
  180.3140  177.9440  137.1960 C   0  0  0  0  0  3  0  0  0  0  0  0
  185.0490  177.8310  137.6630 C   0  0  0  0  0  2  0  0  0  0  0  0
  186.8610  179.1900  136.9420 O   0  0  0  0  0  1  0  0  0  0  0  0
  186.5600  178.0270  137.6600 C   0  0  2  0  0  3  0  0  0  0  0  0
  189.4000  175.4620  136.8970 C   0  0  0  0  0  2  0  0  0  0  0  0
  189.4830  175.5050  135.0800 S   0  0  0  0  0  0  0  0  0  0  0  0
  187.1150  176.7910  135.5200 C   0  0  0  0  0  2  0  0  0  0  0  0
  187.6730  175.5130  134.9160 C   0  0  0  0  0  2  0  0  0  0  0  0
  188.9430  176.7240  138.9480 C   0  0  0  0  0  1  0  0  0  0  0  0
  188.7460  176.7260  137.4420 C   0  0  2  0  0  3  0  0  0  0  0  0
  187.2540  176.7910  137.0490 C   0  0  1  0  0  3  0  0  0  0  0  0
  1  6  1  0  0  0  0
  4  5  2  0  0  0  0
  5  2  1  0  0  0  0
  5  3  1  0  0  0  0
  6  3  2  0  0  0  0
  7  4  1  0  0  0  0
  7  1  2  0  0  0  0
  8  1  1  0  0  0  0
  8  9  2  0  0  0  0
 10  8  1  0  0  0  0
 11 10  1  0  0  0  0
 12 11  1  0  0  0  0
 13 12  1  0  0  0  0
 14 13  1  0  0  0  0
 15 14  1  0  0  0  0
 16 15  1  0  0  0  0
 17 18  1  0  0  0  0
 18 19  1  0  0  0  0
 18 16  1  0  0  0  0
 20 18  2  0  0  0  0
 21 16  1  0  0  0  0
 22 27  1  0  0  0  0
 22 25  1  0  0  0  0
 23 21  1  6  0  0  0
 23 28  1  0  0  0  0
 24 28  1  0  0  0  0
 25 23  1  0  0  0  0
 26 27  1  0  0  0  0
 26 24  1  0  0  0  0
 30 32  1  0  0  0  0
 30 21  1  0  0  0  0
 30 29  1  0  0  0  0
 31 30  2  0  0  0  0
 33  4  1  0  0  0  0
 34 33  1  0  0  0  0
 35 34  1  0  0  0  0
 36 35  1  0  0  0  0
 37 48  1  6  0  0  0
 37 36  1  0  0  0  0
 38 39  1  0  0  0  0
 40 37  1  0  0  0  0
 40 38  2  0  0  0  0
 41 42  1  6  0  0  0
 41 38  1  0  0  0  0
 42 43  1  0  0  0  0
 44 43  1  0  0  0  0
 45 41  1  0  0  0  0
 46 47  2  0  0  0  0
 47 45  1  0  0  0  0
 50 49  1  6  0  0  0
 50 48  1  0  0  0  0
 51 56  1  0  0  0  0
 52 51  1  0  0  0  0
 53 57  1  0  0  0  0
 54 52  1  0  0  0  0
 54 53  1  0  0  0  0
 56 55  1  1  0  0  0
 57 56  1  0  0  0  0
 57 50  1  6  0  0  0
M  END
>  <MODEL>
1

>  <REMARK>
 VINA RESULT:      -5.8      0.000      0.000
  Name = 
  26 active torsions:
  status: ('A' for Active; 'I' for Inactive)
    1  A    between atoms: C_1  and  C_27
    2  A    between atoms: C_4  and  C_27
    3  A    between atoms: C_4  and  C_54
    4  A    between atoms: C_5  and  C_16
    5  A    between atoms: C_6  and  C_35
    6  A    between atoms: P_8  and  N_55
    7  A    between atoms: C_9  and  C_21
    8  A    between atoms: C_9  and  O_29
    9  A    between atoms: C_10  and  C_42
   10  A    between atoms: C_10  and  N_55
   11  A    between atoms: C_14  and  C_30
   12  A    between atoms: C_14  and  N_52
   13  A    between atoms: C_14  and  C_53
   14  A    between atoms: C_16  and  N_49
   15  A    between atoms: P_18  and  N_28
   16  A    between atoms: C_19  and  C_23
   17  A    between atoms: C_19  and  C_42
   18  A    between atoms: C_21  and  C_31
   19  A    between atoms: C_23  and  C_46
   20  A    between atoms: C_27  and  C_35
   21  A    between atoms: N_28  and  C_34
   22  A    between atoms: N_28  and  N_55
   23  A    between atoms: O_29  and  C_30
   24  A    between atoms: C_32  and  C_53
   25  A    between atoms: C_32  and  C_57
   26  A    between atoms: C_46  and  N_49
                            x       y       z     vdW  Elec       q    Type
                         _______ _______ _______ _____ _____    ______ ____

>  <TORSDO>
F 26

$$$$
=
 OpenBabel10222417343D

 57 59  0  0  1  0  0  0  0  0999 V2000
  188.1180  178.0370  144.8390 C   0  0  0  0  0  0  0  0  0  0  0  0
  191.3640  177.7500  142.1320 N   0  0  0  0  0  1  0  0  0  0  0  0
  190.4960  177.7790  144.4070 C   0  0  0  0  0  3  0  0  0  0  0  0
  188.9560  178.0230  142.5500 C   0  0  0  0  0  0  0  0  0  0  0  0
  190.2660  177.8510  143.0320 C   0  0  0  0  0  0  0  0  0  0  0  0
  189.4300  177.8720  145.3050 C   0  0  0  0  0  3  0  0  0  0  0  0
  187.8910  178.1090  143.4520 C   0  0  0  0  0  3  0  0  0  0  0  0
  186.9990  178.1220  145.8050 C   0  0  0  0  0  0  0  0  0  0  0  0
  187.0990  177.5590  147.0080 C   0  0  0  0  0  2  0  0  0  0  0  0
  185.8050  178.8240  145.4360 N   0  0  0  0  0  2  0  0  0  0  0  0
  184.4640  178.3630  145.7590 C   0  0  0  0  0  2  0  0  0  0  0  0
  183.5110  178.7900  144.6620 C   0  0  0  0  0  2  0  0  0  0  0  0
  184.2660  179.5760  143.6110 C   0  0  0  0  0  2  0  0  0  0  0  0
  184.1850  178.8420  142.2910 C   0  0  0  0  0  2  0  0  0  0  0  0
  182.7400  178.7560  141.8480 C   0  0  0  0  0  2  0  0  0  0  0  0
  182.6090  179.3270  140.5020 N   0  0  0  0  0  0  0  0  0  0  0  0
  184.7120  180.2160  139.0660 O   0  0  0  0  0  1  0  0  0  0  0  0
  184.0320  178.9500  139.5370 P   0  0  0  0  0  0  0  0  0  0  0  0
  185.1180  178.0300  140.4500 O   0  0  0  0  0  1  0  0  0  0  0  0
  183.5540  178.0510  138.1860 O   0  0  0  0  0  0  0  0  0  0  0  0
  181.4240  178.9580  139.8000 N   0  0  0  0  0  0  0  0  0  0  0  0
  178.9330  177.3930  138.6530 C   0  0  0  0  0  2  0  0  0  0  0  0
  180.5290  178.0380  140.5640 C   0  0  1  0  0  3  0  0  0  0  0  0
  181.5960  175.9320  139.4530 C   0  0  0  0  0  2  0  0  0  0  0  0
  179.0710  177.9600  140.0650 C   0  0  0  0  0  2  0  0  0  0  0  0
  180.6860  176.1240  138.2430 C   0  0  0  0  0  2  0  0  0  0  0  0
  179.3430  176.0580  138.6190 O   0  0  0  0  0  0  0  0  0  0  0  0
  181.1150  176.6250  140.7380 C   0  0  0  0  0  2  0  0  0  0  0  0
  179.8600  181.1130  140.7850 O   0  0  0  0  0  1  0  0  0  0  0  0
  180.6170  180.4850  139.4100 P   0  0  0  0  0  0  0  0  0  0  0  0
  181.6210  181.4870  138.8860 O   0  0  0  0  0  1  0  0  0  0  0  0
  179.4410  180.2150  138.2260 O   0  0  0  0  0  0  0  0  0  0  0  0
  188.6740  178.0940  141.0840 C   0  0  0  0  0  2  0  0  0  0  0  0
  188.8150  176.7210  140.4580 C   0  0  0  0  0  2  0  0  0  0  0  0
  189.3930  176.8480  139.1960 O   0  0  0  0  0  0  0  0  0  0  0  0
  188.3150  177.0320  138.3290 C   0  0  0  0  0  2  0  0  0  0  0  0
  188.0480  175.7830  137.4900 C   0  0  1  0  0  3  0  0  0  0  0  0
  186.0000  174.5050  137.0220 C   0  0  0  0  0  0  0  0  0  0  0  0
  186.6260  173.1730  137.2920 C   0  0  0  0  0  1  0  0  0  0  0  0
  186.6490  175.6220  137.1300 N   0  0  0  0  0  0  0  0  0  0  0  0
  184.5510  174.5220  136.6330 C   0  0  1  0  0  3  0  0  0  0  0  0
  184.3970  175.0430  135.2080 C   0  0  0  0  0  2  0  0  0  0  0  0
  183.8590  176.4660  135.1930 C   0  0  0  0  0  2  0  0  0  0  0  0
  182.3420  176.4580  135.2210 C   0  0  0  0  0  1  0  0  0  0  0  0
  183.9190  173.1350  136.7650 C   0  0  0  0  0  2  0  0  0  0  0  0
  181.5320  172.8300  137.2620 C   0  0  0  0  0  2  0  0  0  0  0  0
  182.4740  173.1460  136.3790 C   0  0  0  0  0  3  0  0  0  0  0  0
  189.0000  175.6140  136.3070 C   0  0  0  0  0  2  0  0  0  0  0  0
  190.4650  177.3570  135.6270 O   0  0  0  0  0  1  0  0  0  0  0  0
  190.3160  176.3350  136.5720 C   0  0  2  0  0  3  0  0  0  0  0  0
  193.9390  174.9570  137.0200 C   0  0  0  0  0  2  0  0  0  0  0  0
  194.3730  174.4520  135.3280 S   0  0  0  0  0  0  0  0  0  0  0  0
  191.6760  174.7990  135.0870 C   0  0  0  0  0  2  0  0  0  0  0  0
  192.7380  173.7130  135.0410 C   0  0  0  0  0  2  0  0  0  0  0  0
  192.6780  176.5260  138.4200 C   0  0  0  0  0  1  0  0  0  0  0  0
  192.8050  175.9750  137.0110 C   0  0  2  0  0  3  0  0  0  0  0  0
  191.4900  175.3360  136.5130 C   0  0  1  0  0  3  0  0  0  0  0  0
  1  6  1  0  0  0  0
  1  8  1  0  0  0  0
  2  5  1  0  0  0  0
  3  6  2  0  0  0  0
  4  5  2  0  0  0  0
  4  7  1  0  0  0  0
  5  3  1  0  0  0  0
  7  1  2  0  0  0  0
  8  9  2  0  0  0  0
 10 11  1  0  0  0  0
 10  8  1  0  0  0  0
 12 11  1  0  0  0  0
 13 12  1  0  0  0  0
 14 13  1  0  0  0  0
 15 14  1  0  0  0  0
 16 15  1  0  0  0  0
 17 18  1  0  0  0  0
 18 19  1  0  0  0  0
 18 16  1  0  0  0  0
 20 18  2  0  0  0  0
 21 16  1  0  0  0  0
 22 25  1  0  0  0  0
 23 21  1  6  0  0  0
 23 28  1  0  0  0  0
 24 28  1  0  0  0  0
 25 23  1  0  0  0  0
 26 27  1  0  0  0  0
 26 24  1  0  0  0  0
 27 22  1  0  0  0  0
 30 21  1  0  0  0  0
 30 29  1  0  0  0  0
 31 30  1  0  0  0  0
 32 30  2  0  0  0  0
 33  4  1  0  0  0  0
 34 33  1  0  0  0  0
 35 34  1  0  0  0  0
 36 35  1  0  0  0  0
 37 48  1  6  0  0  0
 37 36  1  0  0  0  0
 38 40  2  0  0  0  0
 38 39  1  0  0  0  0
 40 37  1  0  0  0  0
 41 42  1  6  0  0  0
 41 45  1  0  0  0  0
 41 38  1  0  0  0  0
 43 42  1  0  0  0  0
 43 44  1  0  0  0  0
 47 45  1  0  0  0  0
 47 46  2  0  0  0  0
 48 50  1  0  0  0  0
 50 49  1  6  0  0  0
 52 51  1  0  0  0  0
 53 57  1  0  0  0  0
 54 53  1  0  0  0  0
 54 52  1  0  0  0  0
 56 51  1  0  0  0  0
 56 55  1  1  0  0  0
 57 50  1  6  0  0  0
 57 56  1  0  0  0  0
M  END
>  <MODEL>
2

>  <REMARK>
 VINA RESULT:      -5.1      3.945      9.609
  Name = 
  26 active torsions:
  status: ('A' for Active; 'I' for Inactive)
    1  A    between atoms: C_1  and  C_27
    2  A    between atoms: C_4  and  C_27
    3  A    between atoms: C_4  and  C_54
    4  A    between atoms: C_5  and  C_16
    5  A    between atoms: C_6  and  C_35
    6  A    between atoms: P_8  and  N_55
    7  A    between atoms: C_9  and  C_21
    8  A    between atoms: C_9  and  O_29
    9  A    between atoms: C_10  and  C_42
   10  A    between atoms: C_10  and  N_55
   11  A    between atoms: C_14  and  C_30
   12  A    between atoms: C_14  and  N_52
   13  A    between atoms: C_14  and  C_53
   14  A    between atoms: C_16  and  N_49
   15  A    between atoms: P_18  and  N_28
   16  A    between atoms: C_19  and  C_23
   17  A    between atoms: C_19  and  C_42
   18  A    between atoms: C_21  and  C_31
   19  A    between atoms: C_23  and  C_46
   20  A    between atoms: C_27  and  C_35
   21  A    between atoms: N_28  and  C_34
   22  A    between atoms: N_28  and  N_55
   23  A    between atoms: O_29  and  C_30
   24  A    between atoms: C_32  and  C_53
   25  A    between atoms: C_32  and  C_57
   26  A    between atoms: C_46  and  N_49
                            x       y       z     vdW  Elec       q    Type
                         _______ _______ _______ _____ _____    ______ ____

>  <TORSDO>
F 26

$$$$
=
 OpenBabel10222417343D

 57 59  0  0  1  0  0  0  0  0999 V2000
  188.3600  177.8240  145.2050 C   0  0  0  0  0  0  0  0  0  0  0  0
  191.8970  177.0110  143.0200 N   0  0  0  0  0  1  0  0  0  0  0  0
  190.6670  177.0640  145.1210 C   0  0  0  0  0  3  0  0  0  0  0  0
  189.5660  177.7930  143.0870 C   0  0  0  0  0  0  0  0  0  0  0  0
  190.7030  177.2910  143.7440 C   0  0  0  0  0  0  0  0  0  0  0  0
  189.5040  177.3290  145.8470 C   0  0  0  0  0  3  0  0  0  0  0  0
  188.4020  178.0510  143.8180 C   0  0  0  0  0  3  0  0  0  0  0  0
  187.1320  178.0890  145.9900 C   0  0  0  0  0  0  0  0  0  0  0  0
  187.0910  177.8210  147.2940 C   0  0  0  0  0  2  0  0  0  0  0  0
  185.9860  178.6420  145.3320 N   0  0  0  0  0  2  0  0  0  0  0  0
  184.6270  178.5240  145.8380 C   0  0  0  0  0  2  0  0  0  0  0  0
  183.6500  178.8360  144.7240 C   0  0  0  0  0  2  0  0  0  0  0  0
  184.4090  179.1090  143.4440 C   0  0  0  0  0  2  0  0  0  0  0  0
  183.8710  178.2150  142.3490 C   0  0  0  0  0  2  0  0  0  0  0  0
  182.4750  178.6610  141.9710 C   0  0  0  0  0  2  0  0  0  0  0  0
  182.4600  179.0720  140.5630 N   0  0  0  0  0  0  0  0  0  0  0  0
  184.4890  177.3240  140.2510 O   0  0  0  0  0  1  0  0  0  0  0  0
  183.9930  178.6780  139.7940 P   0  0  0  0  0  0  0  0  0  0  0  0
  183.8080  178.6740  138.1130 O   0  0  0  0  0  0  0  0  0  0  0  0
  185.1350  179.8510  140.2170 O   0  0  0  0  0  1  0  0  0  0  0  0
  181.3750  178.5580  139.7930 N   0  0  0  0  0  0  0  0  0  0  0  0
  178.9330  176.9570  138.5910 C   0  0  0  0  0  2  0  0  0  0  0  0
  180.6570  177.4200  140.4430 C   0  0  1  0  0  3  0  0  0  0  0  0
  181.7920  175.6840  138.8600 C   0  0  0  0  0  2  0  0  0  0  0  0
  179.1670  177.2710  140.0670 C   0  0  0  0  0  2  0  0  0  0  0  0
  180.7440  175.9880  137.7940 C   0  0  0  0  0  2  0  0  0  0  0  0
  179.4610  175.7050  138.2660 O   0  0  0  0  0  0  0  0  0  0  0  0
  181.3880  176.0740  140.2920 C   0  0  0  0  0  2  0  0  0  0  0  0
  179.3850  179.6970  138.1180 O   0  0  0  0  0  0  0  0  0  0  0  0
  180.3020  179.9400  139.5170 P   0  0  0  0  0  0  0  0  0  0  0  0
  179.3770  180.1270  140.6990 O   0  0  0  0  0  1  0  0  0  0  0  0
  181.2270  181.3410  139.3160 O   0  0  0  0  0  1  0  0  0  0  0  0
  189.5680  178.0380  141.6130 C   0  0  0  0  0  2  0  0  0  0  0  0
  189.9080  176.7600  140.8720 C   0  0  0  0  0  2  0  0  0  0  0  0
  190.8750  177.0310  139.9070 O   0  0  0  0  0  0  0  0  0  0  0  0
  190.2310  176.8170  138.6880 C   0  0  0  0  0  2  0  0  0  0  0  0
  190.7850  175.5890  137.9670 C   0  0  1  0  0  3  0  0  0  0  0  0
  189.2380  175.0300  136.1390 C   0  0  0  0  0  0  0  0  0  0  0  0
  189.6630  176.1700  135.2690 C   0  0  0  0  0  1  0  0  0  0  0  0
  189.7580  174.8010  137.3040 N   0  0  0  0  0  0  0  0  0  0  0  0
  188.1770  174.1120  135.6060 C   0  0  1  0  0  3  0  0  0  0  0  0
  188.5950  172.6580  135.8000 C   0  0  0  0  0  2  0  0  0  0  0  0
  187.4790  171.8400  136.4330 C   0  0  0  0  0  2  0  0  0  0  0  0
  186.8720  170.8960  135.4130 C   0  0  0  0  0  1  0  0  0  0  0  0
  186.8250  174.3720  136.2730 C   0  0  0  0  0  2  0  0  0  0  0  0
  185.9600  176.6720  136.3140 C   0  0  0  0  0  2  0  0  0  0  0  0
  186.7500  175.7480  136.8540 C   0  0  0  0  0  3  0  0  0  0  0  0
  191.9910  175.8830  137.0750 C   0  0  0  0  0  2  0  0  0  0  0  0
  193.9070  176.0910  138.4640 O   0  0  0  0  0  1  0  0  0  0  0  0
  193.2390  175.1980  137.6190 C   0  0  2  0  0  3  0  0  0  0  0  0
  194.8010  172.8100  134.9580 C   0  0  0  0  0  2  0  0  0  0  0  0
  196.5770  172.9190  135.3360 S   0  0  0  0  0  0  0  0  0  0  0  0
  195.6150  175.0410  136.7590 C   0  0  0  0  0  2  0  0  0  0  0  0
  196.5010  174.7200  135.5670 C   0  0  0  0  0  2  0  0  0  0  0  0
  192.5190  172.8780  135.8500 C   0  0  0  0  0  1  0  0  0  0  0  0
  193.9630  173.2340  136.1580 C   0  0  2  0  0  3  0  0  0  0  0  0
  194.1410  174.7390  136.4550 C   0  0  1  0  0  3  0  0  0  0  0  0
  1  6  1  0  0  0  0
  1  8  1  0  0  0  0
  2  5  1  0  0  0  0
  3  6  2  0  0  0  0
  4  5  2  0  0  0  0
  4  7  1  0  0  0  0
  5  3  1  0  0  0  0
  7  1  2  0  0  0  0
  8  9  2  0  0  0  0
 10 11  1  0  0  0  0
 10  8  1  0  0  0  0
 12 11  1  0  0  0  0
 13 12  1  0  0  0  0
 14 13  1  0  0  0  0
 15 14  1  0  0  0  0
 16 15  1  0  0  0  0
 18 20  1  0  0  0  0
 18 17  1  0  0  0  0
 18 16  1  0  0  0  0
 19 18  2  0  0  0  0
 21 16  1  0  0  0  0
 22 25  1  0  0  0  0
 23 21  1  6  0  0  0
 24 28  1  0  0  0  0
 25 23  1  0  0  0  0
 26 27  1  0  0  0  0
 26 24  1  0  0  0  0
 27 22  1  0  0  0  0
 28 23  1  0  0  0  0
 29 30  2  0  0  0  0
 30 21  1  0  0  0  0
 30 31  1  0  0  0  0
 32 30  1  0  0  0  0
 33  4  1  0  0  0  0
 34 33  1  0  0  0  0
 35 34  1  0  0  0  0
 36 35  1  0  0  0  0
 37 48  1  6  0  0  0
 37 36  1  0  0  0  0
 38 40  2  0  0  0  0
 39 38  1  0  0  0  0
 40 37  1  0  0  0  0
 41 42  1  1  0  0  0
 41 38  1  0  0  0  0
 41 45  1  0  0  0  0
 42 43  1  0  0  0  0
 44 43  1  0  0  0  0
 45 47  1  0  0  0  0
 46 47  2  0  0  0  0
 48 50  1  0  0  0  0
 50 49  1  1  0  0  0
 51 52  1  0  0  0  0
 51 56  1  0  0  0  0
 52 54  1  0  0  0  0
 54 53  1  0  0  0  0
 56 55  1  6  0  0  0
 56 57  1  0  0  0  0
 57 53  1  0  0  0  0
 57 50  1  1  0  0  0
M  END
>  <MODEL>
3

>  <REMARK>
 VINA RESULT:      -4.8      3.805     10.391
  Name = 
  26 active torsions:
  status: ('A' for Active; 'I' for Inactive)
    1  A    between atoms: C_1  and  C_27
    2  A    between atoms: C_4  and  C_27
    3  A    between atoms: C_4  and  C_54
    4  A    between atoms: C_5  and  C_16
    5  A    between atoms: C_6  and  C_35
    6  A    between atoms: P_8  and  N_55
    7  A    between atoms: C_9  and  C_21
    8  A    between atoms: C_9  and  O_29
    9  A    between atoms: C_10  and  C_42
   10  A    between atoms: C_10  and  N_55
   11  A    between atoms: C_14  and  C_30
   12  A    between atoms: C_14  and  N_52
   13  A    between atoms: C_14  and  C_53
   14  A    between atoms: C_16  and  N_49
   15  A    between atoms: P_18  and  N_28
   16  A    between atoms: C_19  and  C_23
   17  A    between atoms: C_19  and  C_42
   18  A    between atoms: C_21  and  C_31
   19  A    between atoms: C_23  and  C_46
   20  A    between atoms: C_27  and  C_35
   21  A    between atoms: N_28  and  C_34
   22  A    between atoms: N_28  and  N_55
   23  A    between atoms: O_29  and  C_30
   24  A    between atoms: C_32  and  C_53
   25  A    between atoms: C_32  and  C_57
   26  A    between atoms: C_46  and  N_49
                            x       y       z     vdW  Elec       q    Type
                         _______ _______ _______ _____ _____    ______ ____

>  <TORSDO>
F 26

$$$$
=
 OpenBabel10222417343D

 57 59  0  0  1  0  0  0  0  0999 V2000
  189.7190  176.9970  144.8180 C   0  0  0  0  0  0  0  0  0  0  0  0
  185.9260  178.3490  146.1360 N   0  0  0  0  0  1  0  0  0  0  0  0
  188.2970  177.9620  146.5370 C   0  0  0  0  0  3  0  0  0  0  0  0
  187.3480  177.3630  144.3880 C   0  0  0  0  0  0  0  0  0  0  0  0
  187.1950  177.8890  145.6830 C   0  0  0  0  0  0  0  0  0  0  0  0
  189.5500  177.5190  146.1090 C   0  0  0  0  0  3  0  0  0  0  0  0
  188.6060  176.9260  143.9610 C   0  0  0  0  0  3  0  0  0  0  0  0
  191.0580  176.5430  144.3780 C   0  0  0  0  0  0  0  0  0  0  0  0
  192.0170  176.2990  145.2690 C   0  0  0  0  0  2  0  0  0  0  0  0
  191.3110  176.3630  142.9790 N   0  0  0  0  0  2  0  0  0  0  0  0
  191.2840  177.4430  142.0060 C   0  0  0  0  0  2  0  0  0  0  0  0
  190.9950  176.8730  140.6330 C   0  0  0  0  0  2  0  0  0  0  0  0
  192.1720  177.1300  139.7170 C   0  0  0  0  0  2  0  0  0  0  0  0
  192.1260  176.1500  138.5660 C   0  0  0  0  0  2  0  0  0  0  0  0
  193.5270  175.9250  138.0370 C   0  0  0  0  0  2  0  0  0  0  0  0
  193.5130  174.8120  137.0810 N   0  0  0  0  0  0  0  0  0  0  0  0
  192.3820  174.0310  134.7610 O   0  0  0  0  0  0  0  0  0  0  0  0
  192.5320  175.2230  135.6790 P   0  0  0  0  0  0  0  0  0  0  0  0
  191.0030  175.7460  136.1810 O   0  0  0  0  0  1  0  0  0  0  0  0
  193.2870  176.4760  134.8300 O   0  0  0  0  0  1  0  0  0  0  0  0
  194.7970  174.3530  136.6670 N   0  0  0  0  0  0  0  0  0  0  0  0
  197.8730  173.6370  136.6120 C   0  0  0  0  0  2  0  0  0  0  0  0
  195.9220  175.2470  137.0770 C   0  0  1  0  0  3  0  0  0  0  0  0
  196.6010  175.6810  134.5950 C   0  0  0  0  0  2  0  0  0  0  0  0
  197.1730  174.5330  137.6310 C   0  0  0  0  0  2  0  0  0  0  0  0
  197.3860  174.3730  134.5940 C   0  0  0  0  0  2  0  0  0  0  0  0
  198.3910  174.3990  135.5620 O   0  0  0  0  0  0  0  0  0  0  0  0
  196.3190  176.2630  135.9900 C   0  0  0  0  0  2  0  0  0  0  0  0
  195.9190  171.7620  136.3620 O   0  0  0  0  0  0  0  0  0  0  0  0
  194.9610  172.7320  137.3610 P   0  0  0  0  0  0  0  0  0  0  0  0
  195.5870  172.8140  138.7350 O   0  0  0  0  0  1  0  0  0  0  0  0
  193.4330  172.0200  137.4950 O   0  0  0  0  0  1  0  0  0  0  0  0
  186.1920  177.2800  143.4450 C   0  0  0  0  0  2  0  0  0  0  0  0
  186.1470  178.5120  142.5630 C   0  0  0  0  0  2  0  0  0  0  0  0
  184.8840  178.6180  141.9840 O   0  0  0  0  0  0  0  0  0  0  0  0
  185.0940  179.3310  140.8030 C   0  0  0  0  0  2  0  0  0  0  0  0
  184.3360  178.7100  139.6290 C   0  0  1  0  0  3  0  0  0  0  0  0
  181.9000  178.3790  139.6460 C   0  0  0  0  0  0  0  0  0  0  0  0
  181.9810  176.9040  139.8790 C   0  0  0  0  0  1  0  0  0  0  0  0
  182.9480  179.1360  139.5540 N   0  0  0  0  0  0  0  0  0  0  0  0
  180.5320  178.9890  139.5400 C   0  0  1  0  0  3  0  0  0  0  0  0
  179.8070  178.8880  140.8770 C   0  0  0  0  0  2  0  0  0  0  0  0
  179.6840  180.2490  141.5450 C   0  0  0  0  0  2  0  0  0  0  0  0
  179.9020  180.1230  143.0420 C   0  0  0  0  0  1  0  0  0  0  0  0
  180.6020  180.4460  139.0790 C   0  0  0  0  0  2  0  0  0  0  0  0
  179.9030  180.4610  136.7230 C   0  0  0  0  0  2  0  0  0  0  0  0
  180.8860  180.5510  137.6150 C   0  0  0  0  0  3  0  0  0  0  0  0
  185.0720  178.8070  138.2940 C   0  0  0  0  0  2  0  0  0  0  0  0
  187.3890  178.4220  138.6550 O   0  0  0  0  0  1  0  0  0  0  0  0
  186.2100  177.7960  138.2350 C   0  0  2  0  0  3  0  0  0  0  0  0
  185.9440  175.2490  135.2900 C   0  0  0  0  0  2  0  0  0  0  0  0
  187.6690  175.1310  134.7240 S   0  0  0  0  0  0  0  0  0  0  0  0
  187.7980  177.3470  136.3140 C   0  0  0  0  0  2  0  0  0  0  0  0
  187.9220  176.9250  134.8590 C   0  0  0  0  0  2  0  0  0  0  0  0
  184.4430  175.5970  137.1970 C   0  0  0  0  0  1  0  0  0  0  0  0
  185.8760  175.7660  136.7220 C   0  0  2  0  0  3  0  0  0  0  0  0
  186.3470  177.2350  136.8040 C   0  0  1  0  0  3  0  0  0  0  0  0
  1  6  1  0  0  0  0
  4  5  2  0  0  0  0
  5  2  1  0  0  0  0
  5  3  1  0  0  0  0
  6  3  2  0  0  0  0
  7  4  1  0  0  0  0
  7  1  2  0  0  0  0
  8  1  1  0  0  0  0
  8  9  2  0  0  0  0
 10  8  1  0  0  0  0
 11 10  1  0  0  0  0
 12 11  1  0  0  0  0
 13 12  1  0  0  0  0
 14 13  1  0  0  0  0
 15 14  1  0  0  0  0
 16 15  1  0  0  0  0
 17 18  2  0  0  0  0
 18 19  1  0  0  0  0
 18 16  1  0  0  0  0
 20 18  1  0  0  0  0
 21 16  1  0  0  0  0
 21 30  1  0  0  0  0
 22 25  1  0  0  0  0
 23 21  1  6  0  0  0
 23 25  1  0  0  0  0
 24 28  1  0  0  0  0
 26 24  1  0  0  0  0
 26 27  1  0  0  0  0
 27 22  1  0  0  0  0
 28 23  1  0  0  0  0
 29 30  2  0  0  0  0
 30 32  1  0  0  0  0
 30 31  1  0  0  0  0
 33  4  1  0  0  0  0
 34 33  1  0  0  0  0
 35 34  1  0  0  0  0
 36 35  1  0  0  0  0
 37 48  1  6  0  0  0
 37 36  1  0  0  0  0
 38 39  1  0  0  0  0
 40 37  1  0  0  0  0
 40 38  2  0  0  0  0
 41 45  1  1  0  0  0
 41 38  1  0  0  0  0
 41 42  1  0  0  0  0
 42 43  1  0  0  0  0
 43 44  1  0  0  0  0
 46 47  2  0  0  0  0
 47 45  1  0  0  0  0
 50 48  1  0  0  0  0
 50 49  1  6  0  0  0
 51 56  1  0  0  0  0
 52 54  1  0  0  0  0
 52 51  1  0  0  0  0
 53 57  1  0  0  0  0
 54 53  1  0  0  0  0
 56 57  1  0  0  0  0
 56 55  1  6  0  0  0
 57 50  1  1  0  0  0
M  END
>  <MODEL>
4

>  <REMARK>
 VINA RESULT:      -4.7      1.550      2.277
  Name = 
  26 active torsions:
  status: ('A' for Active; 'I' for Inactive)
    1  A    between atoms: C_1  and  C_27
    2  A    between atoms: C_4  and  C_27
    3  A    between atoms: C_4  and  C_54
    4  A    between atoms: C_5  and  C_16
    5  A    between atoms: C_6  and  C_35
    6  A    between atoms: P_8  and  N_55
    7  A    between atoms: C_9  and  C_21
    8  A    between atoms: C_9  and  O_29
    9  A    between atoms: C_10  and  C_42
   10  A    between atoms: C_10  and  N_55
   11  A    between atoms: C_14  and  C_30
   12  A    between atoms: C_14  and  N_52
   13  A    between atoms: C_14  and  C_53
   14  A    between atoms: C_16  and  N_49
   15  A    between atoms: P_18  and  N_28
   16  A    between atoms: C_19  and  C_23
   17  A    between atoms: C_19  and  C_42
   18  A    between atoms: C_21  and  C_31
   19  A    between atoms: C_23  and  C_46
   20  A    between atoms: C_27  and  C_35
   21  A    between atoms: N_28  and  C_34
   22  A    between atoms: N_28  and  N_55
   23  A    between atoms: O_29  and  C_30
   24  A    between atoms: C_32  and  C_53
   25  A    between atoms: C_32  and  C_57
   26  A    between atoms: C_46  and  N_49
                            x       y       z     vdW  Elec       q    Type
                         _______ _______ _______ _____ _____    ______ ____

>  <TORSDO>
F 26

$$$$
=
 OpenBabel10222417343D

 57 59  0  0  1  0  0  0  0  0999 V2000
  184.9400  178.7330  145.0800 C   0  0  0  0  0  0  0  0  0  0  0  0
  181.9750  178.8640  142.0570 N   0  0  0  0  0  1  0  0  0  0  0  0
  182.6060  178.6930  144.4030 C   0  0  0  0  0  3  0  0  0  0  0  0
  184.3430  178.8960  142.7220 C   0  0  0  0  0  0  0  0  0  0  0  0
  182.9810  178.8180  143.0640 C   0  0  0  0  0  0  0  0  0  0  0  0
  183.5790  178.6500  145.4040 C   0  0  0  0  0  3  0  0  0  0  0  0
  185.3120  178.8590  143.7290 C   0  0  0  0  0  3  0  0  0  0  0  0
  185.9570  178.6980  146.1570 C   0  0  0  0  0  0  0  0  0  0  0  0
  185.9840  179.6440  147.0940 C   0  0  0  0  0  2  0  0  0  0  0  0
  186.9120  177.6300  146.1840 N   0  0  0  0  0  2  0  0  0  0  0  0
  187.1890  176.7630  145.0490 C   0  0  0  0  0  2  0  0  0  0  0  0
  188.6270  176.9530  144.6150 C   0  0  0  0  0  2  0  0  0  0  0  0
  188.6790  177.8880  143.4250 C   0  0  0  0  0  2  0  0  0  0  0  0
  188.1010  177.1840  142.2170 C   0  0  0  0  0  2  0  0  0  0  0  0
  189.2110  176.4860  141.4600 C   0  0  0  0  0  2  0  0  0  0  0  0
  190.0610  177.4890  140.8100 N   0  0  0  0  0  0  0  0  0  0  0  0
  191.9350  176.1240  142.1880 O   0  0  0  0  0  1  0  0  0  0  0  0
  191.6890  177.4360  141.4770 P   0  0  0  0  0  0  0  0  0  0  0  0
  192.8240  177.6300  140.2390 O   0  0  0  0  0  0  0  0  0  0  0  0
  191.8670  178.7010  142.5850 O   0  0  0  0  0  1  0  0  0  0  0  0
  190.1090  177.4120  139.3860 N   0  0  0  0  0  0  0  0  0  0  0  0
  189.7400  176.6260  136.3500 C   0  0  0  0  0  2  0  0  0  0  0  0
  189.9120  176.0330  138.8470 C   0  0  1  0  0  3  0  0  0  0  0  0
  192.3580  175.9390  137.9440 C   0  0  0  0  0  2  0  0  0  0  0  0
  189.0860  175.9370  137.5470 C   0  0  0  0  0  2  0  0  0  0  0  0
  191.9140  176.6970  136.6970 C   0  0  0  0  0  2  0  0  0  0  0  0
  190.9330  175.9840  136.0070 O   0  0  0  0  0  0  0  0  0  0  0  0
  191.2240  175.2390  138.7110 C   0  0  0  0  0  2  0  0  0  0  0  0
  187.4240  177.6830  138.5040 O   0  0  0  0  0  1  0  0  0  0  0  0
  188.8560  178.5250  138.8160 P   0  0  0  0  0  0  0  0  0  0  0  0
  188.5960  179.5950  139.8520 O   0  0  0  0  0  1  0  0  0  0  0  0
  189.3680  179.2620  137.3820 O   0  0  0  0  0  0  0  0  0  0  0  0
  184.7770  179.0400  141.3000 C   0  0  0  0  0  2  0  0  0  0  0  0
  183.8160  178.3090  140.3840 C   0  0  0  0  0  2  0  0  0  0  0  0
  183.4950  179.1290  139.3050 O   0  0  0  0  0  0  0  0  0  0  0  0
  183.9850  178.4530  138.1870 C   0  0  0  0  0  2  0  0  0  0  0  0
  182.8550  177.8300  137.3670 C   0  0  1  0  0  3  0  0  0  0  0  0
  183.1990  175.3960  137.4140 C   0  0  0  0  0  0  0  0  0  0  0  0
  182.7890  175.2450  138.8450 C   0  0  0  0  0  1  0  0  0  0  0  0
  183.2040  176.5380  136.8000 N   0  0  0  0  0  0  0  0  0  0  0  0
  183.5960  174.1520  136.6740 C   0  0  1  0  0  3  0  0  0  0  0  0
  184.5450  173.3160  137.5240 C   0  0  0  0  0  2  0  0  0  0  0  0
  185.9950  173.7090  137.2860 C   0  0  0  0  0  2  0  0  0  0  0  0
  186.1730  174.2420  135.8770 C   0  0  0  0  0  1  0  0  0  0  0  0
  182.3730  173.3260  136.2700 C   0  0  0  0  0  2  0  0  0  0  0  0
  182.1270  170.9010  135.9600 C   0  0  0  0  0  2  0  0  0  0  0  0
  182.4770  171.9130  136.7480 C   0  0  0  0  0  3  0  0  0  0  0  0
  181.5000  177.8350  138.0710 C   0  0  0  0  0  2  0  0  0  0  0  0
  180.1970  177.5200  136.1090 O   0  0  0  0  0  1  0  0  0  0  0  0
  180.4250  178.4150  137.1610 C   0  0  2  0  0  3  0  0  0  0  0  0
  180.7330  182.3010  136.9890 C   0  0  0  0  0  2  0  0  0  0  0  0
  180.1300  182.6630  135.3120 S   0  0  0  0  0  0  0  0  0  0  0  0
  180.4950  179.9620  135.1570 C   0  0  0  0  0  2  0  0  0  0  0  0
  181.0400  181.2640  134.5940 C   0  0  0  0  0  2  0  0  0  0  0  0
  180.5640  180.8310  138.9430 C   0  0  0  0  0  1  0  0  0  0  0  0
  180.2330  180.9430  137.4650 C   0  0  2  0  0  3  0  0  0  0  0  0
  180.8620  179.8000  136.6390 C   0  0  1  0  0  3  0  0  0  0  0  0
  1  6  1  0  0  0  0
  1  8  1  0  0  0  0
  2  5  1  0  0  0  0
  3  6  2  0  0  0  0
  4  5  2  0  0  0  0
  4  7  1  0  0  0  0
  5  3  1  0  0  0  0
  7  1  2  0  0  0  0
  8 10  1  0  0  0  0
  8  9  2  0  0  0  0
 11 10  1  0  0  0  0
 12 11  1  0  0  0  0
 13 12  1  0  0  0  0
 14 13  1  0  0  0  0
 15 14  1  0  0  0  0
 16 15  1  0  0  0  0
 16 18  1  0  0  0  0
 18 17  1  0  0  0  0
 18 20  1  0  0  0  0
 19 18  2  0  0  0  0
 21 16  1  0  0  0  0
 22 25  1  0  0  0  0
 23 21  1  6  0  0  0
 24 28  1  0  0  0  0
 25 23  1  0  0  0  0
 26 24  1  0  0  0  0
 27 22  1  0  0  0  0
 27 26  1  0  0  0  0
 28 23  1  0  0  0  0
 29 30  1  0  0  0  0
 30 21  1  0  0  0  0
 30 31  1  0  0  0  0
 32 30  2  0  0  0  0
 33  4  1  0  0  0  0
 34 33  1  0  0  0  0
 35 34  1  0  0  0  0
 36 35  1  0  0  0  0
 37 48  1  1  0  0  0
 37 36  1  0  0  0  0
 38 39  1  0  0  0  0
 40 37  1  0  0  0  0
 40 38  2  0  0  0  0
 41 45  1  1  0  0  0
 41 38  1  0  0  0  0
 41 42  1  0  0  0  0
 43 42  1  0  0  0  0
 44 43  1  0  0  0  0
 45 47  1  0  0  0  0
 46 47  2  0  0  0  0
 50 49  1  6  0  0  0
 50 48  1  0  0  0  0
 51 56  1  0  0  0  0
 52 51  1  0  0  0  0
 53 57  1  0  0  0  0
 54 53  1  0  0  0  0
 54 52  1  0  0  0  0
 56 55  1  1  0  0  0
 57 50  1  1  0  0  0
 57 56  1  0  0  0  0
M  END
>  <MODEL>
5

>  <REMARK>
 VINA RESULT:      -4.2      3.679      6.735
  Name = 
  26 active torsions:
  status: ('A' for Active; 'I' for Inactive)
    1  A    between atoms: C_1  and  C_27
    2  A    between atoms: C_4  and  C_27
    3  A    between atoms: C_4  and  C_54
    4  A    between atoms: C_5  and  C_16
    5  A    between atoms: C_6  and  C_35
    6  A    between atoms: P_8  and  N_55
    7  A    between atoms: C_9  and  C_21
    8  A    between atoms: C_9  and  O_29
    9  A    between atoms: C_10  and  C_42
   10  A    between atoms: C_10  and  N_55
   11  A    between atoms: C_14  and  C_30
   12  A    between atoms: C_14  and  N_52
   13  A    between atoms: C_14  and  C_53
   14  A    between atoms: C_16  and  N_49
   15  A    between atoms: P_18  and  N_28
   16  A    between atoms: C_19  and  C_23
   17  A    between atoms: C_19  and  C_42
   18  A    between atoms: C_21  and  C_31
   19  A    between atoms: C_23  and  C_46
   20  A    between atoms: C_27  and  C_35
   21  A    between atoms: N_28  and  C_34
   22  A    between atoms: N_28  and  N_55
   23  A    between atoms: O_29  and  C_30
   24  A    between atoms: C_32  and  C_53
   25  A    between atoms: C_32  and  C_57
   26  A    between atoms: C_46  and  N_49
                            x       y       z     vdW  Elec       q    Type
                         _______ _______ _______ _____ _____    ______ ____

>  <TORSDO>
F 26

$$$$
=
 OpenBabel10222417343D

 57 59  0  0  1  0  0  0  0  0999 V2000
  189.0120  177.4650  142.5500 C   0  0  0  0  0  0  0  0  0  0  0  0
  186.8380  178.0220  146.1430 N   0  0  0  0  0  1  0  0  0  0  0  0
  188.9520  177.7820  144.9590 C   0  0  0  0  0  3  0  0  0  0  0  0
  186.8780  177.6930  143.7060 C   0  0  0  0  0  0  0  0  0  0  0  0
  187.5570  177.8320  144.9290 C   0  0  0  0  0  0  0  0  0  0  0  0
  189.6750  177.5990  143.7780 C   0  0  0  0  0  3  0  0  0  0  0  0
  187.6060  177.5160  142.5250 C   0  0  0  0  0  3  0  0  0  0  0  0
  189.7950  177.2840  141.3060 C   0  0  0  0  0  0  0  0  0  0  0  0
  189.1920  177.2850  140.1190 C   0  0  0  0  0  2  0  0  0  0  0  0
  191.2150  177.1120  141.3920 N   0  0  0  0  0  2  0  0  0  0  0  0
  192.1490  177.5720  140.3750 C   0  0  0  0  0  2  0  0  0  0  0  0
  193.0760  176.4360  139.9960 C   0  0  0  0  0  2  0  0  0  0  0  0
  194.5050  176.9350  139.9670 C   0  0  0  0  0  2  0  0  0  0  0  0
  195.4430  175.7530  140.0730 C   0  0  0  0  0  2  0  0  0  0  0  0
  195.0760  174.7200  139.0290 C   0  0  0  0  0  2  0  0  0  0  0  0
  195.7490  175.0440  137.7660 N   0  0  0  0  0  0  0  0  0  0  0  0
  198.2840  175.4620  136.9450 O   0  0  0  0  0  0  0  0  0  0  0  0
  197.4440  174.5760  137.8380 P   0  0  0  0  0  0  0  0  0  0  0  0
  198.0030  174.6850  139.4300 O   0  0  0  0  0  1  0  0  0  0  0  0
  197.5920  172.9740  137.3150 O   0  0  0  0  0  1  0  0  0  0  0  0
  195.1370  174.5040  136.5970 N   0  0  0  0  0  0  0  0  0  0  0  0
  193.6290  172.5790  134.6000 C   0  0  0  0  0  2  0  0  0  0  0  0
  193.8590  173.7770  136.8640 C   0  0  1  0  0  3  0  0  0  0  0  0
  195.1090  171.5050  137.1530 C   0  0  0  0  0  2  0  0  0  0  0  0
  192.9780  173.5030  135.6270 C   0  0  0  0  0  2  0  0  0  0  0  0
  195.1170  171.3300  135.6380 C   0  0  0  0  0  2  0  0  0  0  0  0
  193.8150  171.3020  135.1360 O   0  0  0  0  0  0  0  0  0  0  0  0
  194.0520  172.4880  137.6840 C   0  0  0  0  0  2  0  0  0  0  0  0
  196.2830  176.1600  134.5960 O   0  0  0  0  0  1  0  0  0  0  0  0
  194.8920  175.8850  135.5170 P   0  0  0  0  0  0  0  0  0  0  0  0
  193.7210  175.6270  134.5960 O   0  0  0  0  0  0  0  0  0  0  0  0
  194.5750  177.2700  136.4350 O   0  0  0  0  0  1  0  0  0  0  0  0
  185.3870  177.7510  143.6380 C   0  0  0  0  0  2  0  0  0  0  0  0
  184.9360  179.1380  143.2200 C   0  0  0  0  0  2  0  0  0  0  0  0
  183.8400  179.0280  142.3680 O   0  0  0  0  0  0  0  0  0  0  0  0
  184.3590  178.4930  141.1890 C   0  0  0  0  0  2  0  0  0  0  0  0
  183.3210  178.4920  140.0660 C   0  0  1  0  0  3  0  0  0  0  0  0
  180.9280  178.8270  140.5160 C   0  0  0  0  0  0  0  0  0  0  0  0
  180.5770  177.3790  140.3880 C   0  0  0  0  0  1  0  0  0  0  0  0
  182.1370  179.2740  140.3810 N   0  0  0  0  0  0  0  0  0  0  0  0
  179.8150  179.7820  140.8380 C   0  0  1  0  0  3  0  0  0  0  0  0
  179.7390  180.0110  142.3430 C   0  0  0  0  0  2  0  0  0  0  0  0
  179.0090  178.8740  143.0420 C   0  0  0  0  0  2  0  0  0  0  0  0
  179.6780  178.5500  144.3640 C   0  0  0  0  0  1  0  0  0  0  0  0
  179.9880  181.1130  140.1040 C   0  0  0  0  0  2  0  0  0  0  0  0
  180.0670  181.3520  137.6590 C   0  0  0  0  0  2  0  0  0  0  0  0
  179.3540  181.0840  138.7490 C   0  0  0  0  0  3  0  0  0  0  0  0
  183.8990  178.7970  138.6850 C   0  0  0  0  0  2  0  0  0  0  0  0
  186.2740  178.7850  138.7730 O   0  0  0  0  0  1  0  0  0  0  0  0
  185.1690  177.9900  138.4460 C   0  0  2  0  0  3  0  0  0  0  0  0
  184.7490  175.6250  135.3720 C   0  0  0  0  0  2  0  0  0  0  0  0
  186.4390  175.5530  134.7040 S   0  0  0  0  0  0  0  0  0  0  0  0
  186.6490  177.6700  136.4150 C   0  0  0  0  0  2  0  0  0  0  0  0
  186.6930  177.3380  134.9330 C   0  0  0  0  0  2  0  0  0  0  0  0
  183.3560  175.8450  137.3770 C   0  0  0  0  0  1  0  0  0  0  0  0
  184.7590  176.0540  136.8340 C   0  0  2  0  0  3  0  0  0  0  0  0
  185.2290  177.5180  136.9780 C   0  0  1  0  0  3  0  0  0  0  0  0
  1  6  1  0  0  0  0
  4  5  2  0  0  0  0
  5  3  1  0  0  0  0
  5  2  1  0  0  0  0
  6  3  2  0  0  0  0
  7  1  2  0  0  0  0
  7  4  1  0  0  0  0
  8 10  1  0  0  0  0
  8  1  1  0  0  0  0
  9  8  2  0  0  0  0
 11 10  1  0  0  0  0
 12 11  1  0  0  0  0
 13 12  1  0  0  0  0
 13 14  1  0  0  0  0
 15 14  1  0  0  0  0
 16 18  1  0  0  0  0
 16 15  1  0  0  0  0
 17 18  2  0  0  0  0
 18 19  1  0  0  0  0
 20 18  1  0  0  0  0
 21 16  1  0  0  0  0
 22 27  1  0  0  0  0
 22 25  1  0  0  0  0
 23 21  1  6  0  0  0
 23 28  1  0  0  0  0
 24 28  1  0  0  0  0
 25 23  1  0  0  0  0
 26 24  1  0  0  0  0
 27 26  1  0  0  0  0
 29 30  1  0  0  0  0
 30 32  1  0  0  0  0
 30 21  1  0  0  0  0
 31 30  2  0  0  0  0
 33  4  1  0  0  0  0
 34 33  1  0  0  0  0
 35 34  1  0  0  0  0
 36 35  1  0  0  0  0
 37 48  1  6  0  0  0
 37 40  1  0  0  0  0
 37 36  1  0  0  0  0
 38 41  1  0  0  0  0
 39 38  1  0  0  0  0
 40 38  2  0  0  0  0
 41 45  1  6  0  0  0
 41 42  1  0  0  0  0
 42 43  1  0  0  0  0
 43 44  1  0  0  0  0
 46 47  2  0  0  0  0
 47 45  1  0  0  0  0
 50 48  1  0  0  0  0
 50 49  1  6  0  0  0
 51 56  1  0  0  0  0
 52 54  1  0  0  0  0
 52 51  1  0  0  0  0
 53 57  1  0  0  0  0
 54 53  1  0  0  0  0
 56 57  1  0  0  0  0
 56 55  1  6  0  0  0
 57 50  1  1  0  0  0
M  END
>  <MODEL>
6

>  <REMARK>
 VINA RESULT:      -4.2      2.001      3.355
  Name = 
  26 active torsions:
  status: ('A' for Active; 'I' for Inactive)
    1  A    between atoms: C_1  and  C_27
    2  A    between atoms: C_4  and  C_27
    3  A    between atoms: C_4  and  C_54
    4  A    between atoms: C_5  and  C_16
    5  A    between atoms: C_6  and  C_35
    6  A    between atoms: P_8  and  N_55
    7  A    between atoms: C_9  and  C_21
    8  A    between atoms: C_9  and  O_29
    9  A    between atoms: C_10  and  C_42
   10  A    between atoms: C_10  and  N_55
   11  A    between atoms: C_14  and  C_30
   12  A    between atoms: C_14  and  N_52
   13  A    between atoms: C_14  and  C_53
   14  A    between atoms: C_16  and  N_49
   15  A    between atoms: P_18  and  N_28
   16  A    between atoms: C_19  and  C_23
   17  A    between atoms: C_19  and  C_42
   18  A    between atoms: C_21  and  C_31
   19  A    between atoms: C_23  and  C_46
   20  A    between atoms: C_27  and  C_35
   21  A    between atoms: N_28  and  C_34
   22  A    between atoms: N_28  and  N_55
   23  A    between atoms: O_29  and  C_30
   24  A    between atoms: C_32  and  C_53
   25  A    between atoms: C_32  and  C_57
   26  A    between atoms: C_46  and  N_49
                            x       y       z     vdW  Elec       q    Type
                         _______ _______ _______ _____ _____    ______ ____

>  <TORSDO>
F 26

$$$$
=
 OpenBabel10222417343D

 57 59  0  0  1  0  0  0  0  0999 V2000
  189.2100  177.4390  142.1900 C   0  0  0  0  0  0  0  0  0  0  0  0
  186.3220  177.6240  145.2830 N   0  0  0  0  0  1  0  0  0  0  0  0
  188.6200  177.3080  144.5440 C   0  0  0  0  0  3  0  0  0  0  0  0
  186.8970  177.7500  142.8950 C   0  0  0  0  0  0  0  0  0  0  0  0
  187.2820  177.5610  144.2350 C   0  0  0  0  0  0  0  0  0  0  0  0
  189.5770  177.2460  143.5290 C   0  0  0  0  0  3  0  0  0  0  0  0
  187.8610  177.6940  141.8830 C   0  0  0  0  0  3  0  0  0  0  0  0
  190.2410  177.3810  141.1280 C   0  0  0  0  0  0  0  0  0  0  0  0
  189.9120  177.5830  139.8530 C   0  0  0  0  0  2  0  0  0  0  0  0
  191.6010  177.1100  141.4870 N   0  0  0  0  0  2  0  0  0  0  0  0
  192.7410  177.4420  140.6450 C   0  0  0  0  0  2  0  0  0  0  0  0
  193.5650  176.1940  140.4060 C   0  0  0  0  0  2  0  0  0  0  0  0
  194.9590  176.5830  139.9620 C   0  0  0  0  0  2  0  0  0  0  0  0
  195.8910  175.4120  140.1760 C   0  0  0  0  0  2  0  0  0  0  0  0
  195.5970  174.3370  139.1500 C   0  0  0  0  0  2  0  0  0  0  0  0
  195.7520  174.8950  137.8030 N   0  0  0  0  0  0  0  0  0  0  0  0
  197.9710  173.5140  137.1380 O   0  0  0  0  0  1  0  0  0  0  0  0
  197.4500  174.9200  137.3410 P   0  0  0  0  0  0  0  0  0  0  0  0
  197.6450  175.8070  135.9140 O   0  0  0  0  0  0  0  0  0  0  0  0
  198.3410  175.6610  138.5720 O   0  0  0  0  0  1  0  0  0  0  0  0
  194.9750  174.2590  136.7900 N   0  0  0  0  0  0  0  0  0  0  0  0
  193.0310  172.4580  135.0730 C   0  0  0  0  0  2  0  0  0  0  0  0
  194.2870  173.0140  137.2470 C   0  0  1  0  0  3  0  0  0  0  0  0
  195.9140  171.5050  135.8760 C   0  0  0  0  0  2  0  0  0  0  0  0
  192.9300  172.7170  136.5750 C   0  0  0  0  0  2  0  0  0  0  0  0
  195.0680  171.7450  134.6300 C   0  0  0  0  0  2  0  0  0  0  0  0
  193.7620  171.2930  134.8250 O   0  0  0  0  0  0  0  0  0  0  0  0
  195.1920  171.7700  137.2080 C   0  0  0  0  0  2  0  0  0  0  0  0
  194.3970  177.0330  136.6070 O   0  0  0  0  0  1  0  0  0  0  0  0
  193.8190  175.4860  136.2480 P   0  0  0  0  0  0  0  0  0  0  0  0
  193.5900  175.3670  134.7580 O   0  0  0  0  0  0  0  0  0  0  0  0
  192.3450  175.2650  137.0490 O   0  0  0  0  0  1  0  0  0  0  0  0
  185.4760  178.0330  142.5310 C   0  0  0  0  0  2  0  0  0  0  0  0
  185.3890  179.3090  141.7190 C   0  0  0  0  0  2  0  0  0  0  0  0
  184.2170  179.2960  140.9660 O   0  0  0  0  0  0  0  0  0  0  0  0
  184.0580  177.9640  140.5810 C   0  0  0  0  0  2  0  0  0  0  0  0
  183.1930  177.8400  139.3270 C   0  0  1  0  0  3  0  0  0  0  0  0
  184.3730  176.2790  137.8390 C   0  0  0  0  0  0  0  0  0  0  0  0
  185.5130  177.2090  137.5690 C   0  0  0  0  0  1  0  0  0  0  0  0
  183.3850  176.5840  138.6200 N   0  0  0  0  0  0  0  0  0  0  0  0
  184.4110  174.9300  137.1810 C   0  0  1  0  0  3  0  0  0  0  0  0
  183.6250  174.9610  135.8760 C   0  0  0  0  0  2  0  0  0  0  0  0
  182.3480  174.1410  135.9780 C   0  0  0  0  0  2  0  0  0  0  0  0
  181.1890  174.8880  135.3440 C   0  0  0  0  0  1  0  0  0  0  0  0
  185.8490  174.4700  136.9280 C   0  0  0  0  0  2  0  0  0  0  0  0
  187.3460  172.6490  137.6210 C   0  0  0  0  0  2  0  0  0  0  0  0
  186.1060  173.1140  137.5030 C   0  0  0  0  0  3  0  0  0  0  0  0
  181.7220  178.1890  139.5490 C   0  0  0  0  0  2  0  0  0  0  0  0
  180.4130  180.0830  140.1390 O   0  0  0  0  0  1  0  0  0  0  0  0
  181.4880  179.6800  139.3390 C   0  0  2  0  0  3  0  0  0  0  0  0
  179.9660  181.4110  136.1910 C   0  0  0  0  0  2  0  0  0  0  0  0
  179.2120  180.0120  135.3060 S   0  0  0  0  0  0  0  0  0  0  0  0
  180.7750  178.6960  137.1170 C   0  0  0  0  0  2  0  0  0  0  0  0
  180.6420  178.9350  135.6220 C   0  0  0  0  0  2  0  0  0  0  0  0
  180.5550  182.3670  138.3700 C   0  0  0  0  0  1  0  0  0  0  0  0
  180.1630  181.0810  137.6650 C   0  0  2  0  0  3  0  0  0  0  0  0
  181.2220  179.9700  137.8470 C   0  0  1  0  0  3  0  0  0  0  0  0
  1  6  1  0  0  0  0
  4  5  2  0  0  0  0
  5  3  1  0  0  0  0
  5  2  1  0  0  0  0
  6  3  2  0  0  0  0
  7  1  2  0  0  0  0
  7  4  1  0  0  0  0
  8 10  1  0  0  0  0
  8  1  1  0  0  0  0
  9  8  2  0  0  0  0
 11 10  1  0  0  0  0
 12 11  1  0  0  0  0
 13 14  1  0  0  0  0
 13 12  1  0  0  0  0
 15 14  1  0  0  0  0
 16 15  1  0  0  0  0
 17 18  1  0  0  0  0
 18 16  1  0  0  0  0
 18 20  1  0  0  0  0
 19 18  2  0  0  0  0
 21 16  1  0  0  0  0
 22 25  1  0  0  0  0
 23 21  1  6  0  0  0
 24 28  1  0  0  0  0
 25 23  1  0  0  0  0
 26 27  1  0  0  0  0
 26 24  1  0  0  0  0
 27 22  1  0  0  0  0
 28 23  1  0  0  0  0
 30 29  1  0  0  0  0
 30 21  1  0  0  0  0
 30 32  1  0  0  0  0
 31 30  2  0  0  0  0
 33  4  1  0  0  0  0
 34 33  1  0  0  0  0
 35 34  1  0  0  0  0
 36 35  1  0  0  0  0
 37 48  1  1  0  0  0
 37 36  1  0  0  0  0
 38 40  2  0  0  0  0
 39 38  1  0  0  0  0
 40 37  1  0  0  0  0
 41 42  1  6  0  0  0
 41 38  1  0  0  0  0
 42 43  1  0  0  0  0
 44 43  1  0  0  0  0
 45 41  1  0  0  0  0
 45 47  1  0  0  0  0
 47 46  2  0  0  0  0
 50 48  1  0  0  0  0
 50 49  1  1  0  0  0
 51 56  1  0  0  0  0
 52 54  1  0  0  0  0
 52 51  1  0  0  0  0
 53 57  1  0  0  0  0
 54 53  1  0  0  0  0
 56 57  1  0  0  0  0
 56 55  1  1  0  0  0
 57 50  1  1  0  0  0
M  END
>  <MODEL>
7

>  <REMARK>
 VINA RESULT:      -3.8      2.575      5.133
  Name = 
  26 active torsions:
  status: ('A' for Active; 'I' for Inactive)
    1  A    between atoms: C_1  and  C_27
    2  A    between atoms: C_4  and  C_27
    3  A    between atoms: C_4  and  C_54
    4  A    between atoms: C_5  and  C_16
    5  A    between atoms: C_6  and  C_35
    6  A    between atoms: P_8  and  N_55
    7  A    between atoms: C_9  and  C_21
    8  A    between atoms: C_9  and  O_29
    9  A    between atoms: C_10  and  C_42
   10  A    between atoms: C_10  and  N_55
   11  A    between atoms: C_14  and  C_30
   12  A    between atoms: C_14  and  N_52
   13  A    between atoms: C_14  and  C_53
   14  A    between atoms: C_16  and  N_49
   15  A    between atoms: P_18  and  N_28
   16  A    between atoms: C_19  and  C_23
   17  A    between atoms: C_19  and  C_42
   18  A    between atoms: C_21  and  C_31
   19  A    between atoms: C_23  and  C_46
   20  A    between atoms: C_27  and  C_35
   21  A    between atoms: N_28  and  C_34
   22  A    between atoms: N_28  and  N_55
   23  A    between atoms: O_29  and  C_30
   24  A    between atoms: C_32  and  C_53
   25  A    between atoms: C_32  and  C_57
   26  A    between atoms: C_46  and  N_49
                            x       y       z     vdW  Elec       q    Type
                         _______ _______ _______ _____ _____    ______ ____

>  <TORSDO>
F 26

$$$$
=
 OpenBabel10222417343D

 57 59  0  0  1  0  0  0  0  0999 V2000
  182.2230  178.5740  141.3310 C   0  0  0  0  0  0  0  0  0  0  0  0
  186.0960  179.9970  142.2880 N   0  0  0  0  0  1  0  0  0  0  0  0
  184.3870  179.4420  140.6450 C   0  0  0  0  0  3  0  0  0  0  0  0
  183.9150  179.1110  143.0010 C   0  0  0  0  0  0  0  0  0  0  0  0
  184.7930  179.5140  141.9790 C   0  0  0  0  0  0  0  0  0  0  0  0
  183.1120  178.9740  140.3230 C   0  0  0  0  0  3  0  0  0  0  0  0
  182.6370  178.6490  142.6730 C   0  0  0  0  0  3  0  0  0  0  0  0
  180.8700  178.0920  140.9700 C   0  0  0  0  0  0  0  0  0  0  0  0
  179.9220  178.9510  140.5970 C   0  0  0  0  0  2  0  0  0  0  0  0
  180.5890  176.6880  141.0210 N   0  0  0  0  0  2  0  0  0  0  0  0
  179.2580  176.1350  141.2220 C   0  0  0  0  0  2  0  0  0  0  0  0
  178.9400  175.1770  140.0940 C   0  0  0  0  0  2  0  0  0  0  0  0
  179.9590  175.3390  138.9860 C   0  0  0  0  0  2  0  0  0  0  0  0
  181.2250  174.6030  139.3650 C   0  0  0  0  0  2  0  0  0  0  0  0
  182.3530  175.0310  138.4510 C   0  0  0  0  0  2  0  0  0  0  0  0
  181.9820  174.7550  137.0590 N   0  0  0  0  0  0  0  0  0  0  0  0
  182.7670  177.3300  136.8930 O   0  0  0  0  0  1  0  0  0  0  0  0
  182.2850  176.1670  136.0530 P   0  0  0  0  0  0  0  0  0  0  0  0
  183.4460  175.7980  134.8790 O   0  0  0  0  0  0  0  0  0  0  0  0
  180.8470  176.6090  135.2810 O   0  0  0  0  0  1  0  0  0  0  0  0
  182.5940  173.6010  136.4860 N   0  0  0  0  0  0  0  0  0  0  0  0
  184.5490  171.2490  135.6990 C   0  0  0  0  0  2  0  0  0  0  0  0
  183.5690  172.9210  137.3910 C   0  0  1  0  0  3  0  0  0  0  0  0
  185.5880  174.1540  136.2900 C   0  0  0  0  0  2  0  0  0  0  0  0
  183.8720  171.4450  137.0540 C   0  0  0  0  0  2  0  0  0  0  0  0
  185.6010  173.1130  135.1750 C   0  0  0  0  0  2  0  0  0  0  0  0
  185.8170  171.8350  135.6950 O   0  0  0  0  0  0  0  0  0  0  0  0
  184.8770  173.7100  137.5790 C   0  0  0  0  0  2  0  0  0  0  0  0
  181.6150  171.7020  134.6160 O   0  0  0  0  0  0  0  0  0  0  0  0
  181.2540  172.5330  136.0430 P   0  0  0  0  0  0  0  0  0  0  0  0
  180.9900  171.5380  137.1510 O   0  0  0  0  0  1  0  0  0  0  0  0
  179.8580  173.4540  135.7890 O   0  0  0  0  0  1  0  0  0  0  0  0
  184.3150  179.1850  144.4380 C   0  0  0  0  0  2  0  0  0  0  0  0
  185.7510  178.7300  144.6060 C   0  0  0  0  0  2  0  0  0  0  0  0
  185.8170  177.3480  144.4470 O   0  0  0  0  0  0  0  0  0  0  0  0
  186.4770  177.1600  143.2330 C   0  0  0  0  0  2  0  0  0  0  0  0
  187.9460  177.5750  143.3210 C   0  0  1  0  0  3  0  0  0  0  0  0
  189.7180  177.6530  145.0230 C   0  0  0  0  0  0  0  0  0  0  0  0
  190.6320  178.5100  144.2060 C   0  0  0  0  0  1  0  0  0  0  0  0
  188.5500  177.2750  144.6090 N   0  0  0  0  0  0  0  0  0  0  0  0
  190.1900  177.2460  146.3890 C   0  0  1  0  0  3  0  0  0  0  0  0
  191.6970  177.0160  146.3760 C   0  0  0  0  0  2  0  0  0  0  0  0
  192.0620  175.6970  147.0410 C   0  0  0  0  0  2  0  0  0  0  0  0
  192.7090  175.9480  148.3910 C   0  0  0  0  0  1  0  0  0  0  0  0
  189.8190  178.2900  147.4440 C   0  0  0  0  0  2  0  0  0  0  0  0
  187.9970  177.9950  149.0670 C   0  0  0  0  0  2  0  0  0  0  0  0
  188.3710  178.2160  147.8100 C   0  0  0  0  0  3  0  0  0  0  0  0
  188.7930  177.1170  142.1350 C   0  0  0  0  0  2  0  0  0  0  0  0
  187.3800  177.7970  140.3500 O   0  0  0  0  0  1  0  0  0  0  0  0
  188.6140  178.0620  140.9530 C   0  0  2  0  0  3  0  0  0  0  0  0
  190.4520  177.1200  137.6420 C   0  0  0  0  0  2  0  0  0  0  0  0
  191.7400  175.9770  138.2260 S   0  0  0  0  0  0  0  0  0  0  0  0
  190.9190  177.0780  140.5850 C   0  0  0  0  0  2  0  0  0  0  0  0
  192.1270  177.0180  139.6650 C   0  0  0  0  0  2  0  0  0  0  0  0
  188.1800  177.9770  137.9810 C   0  0  0  0  0  1  0  0  0  0  0  0
  189.3110  177.2140  138.6480 C   0  0  2  0  0  3  0  0  0  0  0  0
  189.7790  177.8900  139.9550 C   0  0  1  0  0  3  0  0  0  0  0  0
  1  7  1  0  0  0  0
  3  5  2  0  0  0  0
  4 33  1  0  0  0  0
  5  2  1  0  0  0  0
  5  4  1  0  0  0  0
  6  3  1  0  0  0  0
  6  1  2  0  0  0  0
  7  4  2  0  0  0  0
  8 10  1  0  0  0  0
  8  1  1  0  0  0  0
  9  8  2  0  0  0  0
 10 11  1  0  0  0  0
 12 11  1  0  0  0  0
 13 14  1  0  0  0  0
 13 12  1  0  0  0  0
 15 14  1  0  0  0  0
 16 15  1  0  0  0  0
 18 17  1  0  0  0  0
 18 16  1  0  0  0  0
 19 18  2  0  0  0  0
 20 18  1  0  0  0  0
 21 16  1  0  0  0  0
 22 25  1  0  0  0  0
 23 21  1  6  0  0  0
 23 28  1  0  0  0  0
 24 28  1  0  0  0  0
 25 23  1  0  0  0  0
 26 27  1  0  0  0  0
 26 24  1  0  0  0  0
 27 22  1  0  0  0  0
 29 30  2  0  0  0  0
 30 21  1  0  0  0  0
 30 31  1  0  0  0  0
 32 30  1  0  0  0  0
 33 34  1  0  0  0  0
 35 34  1  0  0  0  0
 36 37  1  0  0  0  0
 36 35  1  0  0  0  0
 37 48  1  6  0  0  0
 37 40  1  0  0  0  0
 38 41  1  0  0  0  0
 39 38  1  0  0  0  0
 40 38  2  0  0  0  0
 41 42  1  6  0  0  0
 41 45  1  0  0  0  0
 42 43  1  0  0  0  0
 43 44  1  0  0  0  0
 45 47  1  0  0  0  0
 47 46  2  0  0  0  0
 50 49  1  6  0  0  0
 50 48  1  0  0  0  0
 51 52  1  0  0  0  0
 51 56  1  0  0  0  0
 52 54  1  0  0  0  0
 54 53  1  0  0  0  0
 56 55  1  6  0  0  0
 56 57  1  0  0  0  0
 57 53  1  0  0  0  0
 57 50  1  1  0  0  0
M  END
>  <MODEL>
8

>  <REMARK>
 VINA RESULT:      -3.7      5.131     10.169
  Name = 
  26 active torsions:
  status: ('A' for Active; 'I' for Inactive)
    1  A    between atoms: C_1  and  C_27
    2  A    between atoms: C_4  and  C_27
    3  A    between atoms: C_4  and  C_54
    4  A    between atoms: C_5  and  C_16
    5  A    between atoms: C_6  and  C_35
    6  A    between atoms: P_8  and  N_55
    7  A    between atoms: C_9  and  C_21
    8  A    between atoms: C_9  and  O_29
    9  A    between atoms: C_10  and  C_42
   10  A    between atoms: C_10  and  N_55
   11  A    between atoms: C_14  and  C_30
   12  A    between atoms: C_14  and  N_52
   13  A    between atoms: C_14  and  C_53
   14  A    between atoms: C_16  and  N_49
   15  A    between atoms: P_18  and  N_28
   16  A    between atoms: C_19  and  C_23
   17  A    between atoms: C_19  and  C_42
   18  A    between atoms: C_21  and  C_31
   19  A    between atoms: C_23  and  C_46
   20  A    between atoms: C_27  and  C_35
   21  A    between atoms: N_28  and  C_34
   22  A    between atoms: N_28  and  N_55
   23  A    between atoms: O_29  and  C_30
   24  A    between atoms: C_32  and  C_53
   25  A    between atoms: C_32  and  C_57
   26  A    between atoms: C_46  and  N_49
                            x       y       z     vdW  Elec       q    Type
                         _______ _______ _______ _____ _____    ______ ____

>  <TORSDO>
F 26

$$$$
=
 OpenBabel10222417343D

 57 59  0  0  1  0  0  0  0  0999 V2000
  189.3970  177.4290  142.7010 C   0  0  0  0  0  0  0  0  0  0  0  0
  187.2780  178.0170  146.3220 N   0  0  0  0  0  1  0  0  0  0  0  0
  189.3740  177.8080  145.1020 C   0  0  0  0  0  3  0  0  0  0  0  0
  187.2800  177.6240  143.8940 C   0  0  0  0  0  0  0  0  0  0  0  0
  187.9780  177.8160  145.0990 C   0  0  0  0  0  0  0  0  0  0  0  0
  190.0790  177.6150  143.9120 C   0  0  0  0  0  3  0  0  0  0  0  0
  187.9900  177.4380  142.7040 C   0  0  0  0  0  3  0  0  0  0  0  0
  190.1610  177.2380  141.4480 C   0  0  0  0  0  0  0  0  0  0  0  0
  189.5430  177.2550  140.2680 C   0  0  0  0  0  2  0  0  0  0  0  0
  191.5790  177.0400  141.5140 N   0  0  0  0  0  2  0  0  0  0  0  0
  192.4970  177.3940  140.4420 C   0  0  0  0  0  2  0  0  0  0  0  0
  193.4160  176.2240  140.1650 C   0  0  0  0  0  2  0  0  0  0  0  0
  194.8470  176.7110  140.0790 C   0  0  0  0  0  2  0  0  0  0  0  0
  195.7700  175.5180  139.9720 C   0  0  0  0  0  2  0  0  0  0  0  0
  195.2160  174.5390  138.9590 C   0  0  0  0  0  2  0  0  0  0  0  0
  195.6370  174.9410  137.6120 N   0  0  0  0  0  0  0  0  0  0  0  0
  197.2830  172.8370  137.9810 O   0  0  0  0  0  1  0  0  0  0  0  0
  197.1050  174.0880  137.1500 P   0  0  0  0  0  0  0  0  0  0  0  0
  197.0380  173.6750  135.5110 O   0  0  0  0  0  0  0  0  0  0  0  0
  198.4320  175.1060  137.4040 O   0  0  0  0  0  1  0  0  0  0  0  0
  194.6440  174.7980  136.5980 N   0  0  0  0  0  0  0  0  0  0  0  0
  192.1710  174.0000  134.8050 C   0  0  0  0  0  2  0  0  0  0  0  0
  193.4010  174.1090  137.0610 C   0  0  1  0  0  3  0  0  0  0  0  0
  194.1410  171.8540  135.9780 C   0  0  0  0  0  2  0  0  0  0  0  0
  192.1210  174.4420  136.2660 C   0  0  0  0  0  2  0  0  0  0  0  0
  193.6050  172.3360  134.6340 C   0  0  0  0  0  2  0  0  0  0  0  0
  192.2380  172.6070  134.7160 O   0  0  0  0  0  0  0  0  0  0  0  0
  193.5670  172.5860  137.2030 C   0  0  0  0  0  2  0  0  0  0  0  0
  193.4040  176.4010  134.6090 O   0  0  0  0  0  0  0  0  0  0  0  0
  194.3110  176.4440  136.0350 P   0  0  0  0  0  0  0  0  0  0  0  0
  193.5530  177.2140  137.0920 O   0  0  0  0  0  1  0  0  0  0  0  0
  195.7710  177.2370  135.7180 O   0  0  0  0  0  1  0  0  0  0  0  0
  185.7870  177.6370  143.8550 C   0  0  0  0  0  2  0  0  0  0  0  0
  185.2880  178.9840  143.3700 C   0  0  0  0  0  2  0  0  0  0  0  0
  184.2870  178.7900  142.4210 O   0  0  0  0  0  0  0  0  0  0  0  0
  184.9510  178.2820  141.3040 C   0  0  0  0  0  2  0  0  0  0  0  0
  184.0130  178.1470  140.1040 C   0  0  1  0  0  3  0  0  0  0  0  0
  181.6050  177.7330  140.3710 C   0  0  0  0  0  0  0  0  0  0  0  0
  181.6930  176.2820  140.0230 C   0  0  0  0  0  1  0  0  0  0  0  0
  182.6390  178.5130  140.4070 N   0  0  0  0  0  0  0  0  0  0  0  0
  180.2490  178.2810  140.7110 C   0  0  1  0  0  3  0  0  0  0  0  0
  179.2360  177.8710  139.6490 C   0  0  0  0  0  2  0  0  0  0  0  0
  178.9310  179.0210  138.7000 C   0  0  0  0  0  2  0  0  0  0  0  0
  180.0990  179.9880  138.6500 C   0  0  0  0  0  1  0  0  0  0  0  0
  179.7880  177.8180  142.0950 C   0  0  0  0  0  2  0  0  0  0  0  0
  179.6180  180.2010  142.6740 C   0  0  0  0  0  2  0  0  0  0  0  0
  179.7760  178.9440  143.0790 C   0  0  0  0  0  3  0  0  0  0  0  0
  184.5430  178.7940  138.8260 C   0  0  0  0  0  2  0  0  0  0  0  0
  186.7800  179.0080  138.0530 O   0  0  0  0  0  1  0  0  0  0  0  0
  185.7850  178.0640  138.3310 C   0  0  2  0  0  3  0  0  0  0  0  0
  183.5960  176.1720  135.7130 C   0  0  0  0  0  2  0  0  0  0  0  0
  184.2940  174.4930  135.7660 S   0  0  0  0  0  0  0  0  0  0  0  0
  186.2210  175.8960  137.0970 C   0  0  0  0  0  2  0  0  0  0  0  0
  186.0010  175.1160  135.8120 C   0  0  0  0  0  2  0  0  0  0  0  0
  183.1100  178.2180  136.9730 C   0  0  0  0  0  1  0  0  0  0  0  0
  183.9280  176.9400  136.9870 C   0  0  2  0  0  3  0  0  0  0  0  0
  185.4440  177.2190  137.0860 C   0  0  1  0  0  3  0  0  0  0  0  0
  1  7  2  0  0  0  0
  1  6  1  0  0  0  0
  4  5  2  0  0  0  0
  5  3  1  0  0  0  0
  5  2  1  0  0  0  0
  6  3  2  0  0  0  0
  7  4  1  0  0  0  0
  8 10  1  0  0  0  0
  8  1  1  0  0  0  0
  9  8  2  0  0  0  0
 11 10  1  0  0  0  0
 12 11  1  0  0  0  0
 13 12  1  0  0  0  0
 14 13  1  0  0  0  0
 15 14  1  0  0  0  0
 16 15  1  0  0  0  0
 18 20  1  0  0  0  0
 18 16  1  0  0  0  0
 18 17  1  0  0  0  0
 19 18  2  0  0  0  0
 21 16  1  0  0  0  0
 22 25  1  0  0  0  0
 23 21  1  6  0  0  0
 23 28  1  0  0  0  0
 24 28  1  0  0  0  0
 25 23  1  0  0  0  0
 26 27  1  0  0  0  0
 26 24  1  0  0  0  0
 27 22  1  0  0  0  0
 29 30  2  0  0  0  0
 30 21  1  0  0  0  0
 30 31  1  0  0  0  0
 32 30  1  0  0  0  0
 33  4  1  0  0  0  0
 34 33  1  0  0  0  0
 35 34  1  0  0  0  0
 36 35  1  0  0  0  0
 37 48  1  6  0  0  0
 37 40  1  0  0  0  0
 37 36  1  0  0  0  0
 38 40  2  0  0  0  0
 38 41  1  0  0  0  0
 39 38  1  0  0  0  0
 41 42  1  6  0  0  0
 41 45  1  0  0  0  0
 43 42  1  0  0  0  0
 44 43  1  0  0  0  0
 45 47  1  0  0  0  0
 46 47  2  0  0  0  0
 50 49  1  6  0  0  0
 50 48  1  0  0  0  0
 51 52  1  0  0  0  0
 51 56  1  0  0  0  0
 52 54  1  0  0  0  0
 54 53  1  0  0  0  0
 56 55  1  6  0  0  0
 56 57  1  0  0  0  0
 57 53  1  0  0  0  0
 57 50  1  1  0  0  0
M  END
>  <MODEL>
9

>  <REMARK>
 VINA RESULT:      -3.7      1.999      3.570
  Name = 
  26 active torsions:
  status: ('A' for Active; 'I' for Inactive)
    1  A    between atoms: C_1  and  C_27
    2  A    between atoms: C_4  and  C_27
    3  A    between atoms: C_4  and  C_54
    4  A    between atoms: C_5  and  C_16
    5  A    between atoms: C_6  and  C_35
    6  A    between atoms: P_8  and  N_55
    7  A    between atoms: C_9  and  C_21
    8  A    between atoms: C_9  and  O_29
    9  A    between atoms: C_10  and  C_42
   10  A    between atoms: C_10  and  N_55
   11  A    between atoms: C_14  and  C_30
   12  A    between atoms: C_14  and  N_52
   13  A    between atoms: C_14  and  C_53
   14  A    between atoms: C_16  and  N_49
   15  A    between atoms: P_18  and  N_28
   16  A    between atoms: C_19  and  C_23
   17  A    between atoms: C_19  and  C_42
   18  A    between atoms: C_21  and  C_31
   19  A    between atoms: C_23  and  C_46
   20  A    between atoms: C_27  and  C_35
   21  A    between atoms: N_28  and  C_34
   22  A    between atoms: N_28  and  N_55
   23  A    between atoms: O_29  and  C_30
   24  A    between atoms: C_32  and  C_53
   25  A    between atoms: C_32  and  C_57
   26  A    between atoms: C_46  and  N_49
                            x       y       z     vdW  Elec       q    Type
                         _______ _______ _______ _____ _____    ______ ____

>  <TORSDO>
F 26

$$$$
