=
 OpenBabel10222416513D

 41 47  0  0  1  0  0  0  0  0999 V2000
  184.1530  178.4430  143.0270 C   0  0  0  0  0  0  0  0  0  0  0  0
  187.8530  178.0650  140.8460 C   0  0  0  0  0  0  0  0  0  0  0  0
  184.5210  178.6830  140.5660 C   0  0  1  0  0  3  0  0  0  0  0  0
  180.7420  179.5860  143.2760 C   0  0  0  0  0  1  0  0  0  0  0  0
  189.4870  177.0570  143.8850 C   0  0  0  0  0  3  0  0  0  0  0  0
  189.1070  177.4350  141.3230 C   0  0  0  0  0  0  0  0  0  0  0  0
  188.9310  178.0360  144.8620 C   0  0  0  0  0  2  0  0  0  0  0  0
  186.3580  178.9200  139.3930 C   0  0  1  0  0  3  0  0  0  0  0  0
  186.7700  178.3680  141.5780 C   0  0  1  0  0  3  0  0  0  0  0  0
  185.4700  178.1550  143.6490 C   0  0  0  0  0  0  0  0  0  0  0  0
  185.5080  177.8500  145.1200 C   0  0  0  0  0  2  0  0  0  0  0  0
  185.3050  178.6640  138.4780 N   0  0  0  0  0  0  0  0  0  0  0  0
  183.7240  178.0090  141.6440 C   0  0  2  0  0  3  0  0  0  0  0  0
  185.8040  178.9550  140.6900 C   0  0  2  0  0  3  0  0  0  0  0  0
  184.2340  178.5370  139.1630 N   0  0  0  0  0  0  0  0  0  0  0  0
  183.1940  179.0010  143.6910 N   0  0  0  0  0  0  0  0  0  0  0  0
  182.3140  178.5030  141.6570 C   0  0  0  0  0  0  0  0  0  0  0  0
  186.5750  178.0660  142.9640 N   0  0  0  0  0  0  0  0  0  0  0  0
  187.5460  178.3220  139.4140 C   0  0  0  0  0  3  0  0  0  0  0  0
  182.0610  179.0460  142.8390 C   0  0  0  0  0  0  0  0  0  0  0  0
  187.8630  177.4110  145.6360 N   0  0  0  0  0  0  0  0  0  0  0  0
  186.7750  178.3710  145.7960 C   0  0  0  0  0  2  0  0  0  0  0  0
  189.3120  177.2440  142.6050 C   0  0  0  0  0  0  0  0  0  0  0  0
  190.1020  177.0780  140.3500 N   0  0  0  0  0  2  0  0  0  0  0  0
  192.0460  177.7600  141.4770 O   0  0  0  0  0  0  0  0  0  0  0  0
  191.5230  177.2530  140.4470 C   0  0  0  0  0  0  0  0  0  0  0  0
  191.8420  176.4630  138.1560 C   0  0  0  0  0  3  0  0  0  0  0  0
  192.3620  176.8270  139.3230 C   0  0  0  0  0  3  0  0  0  0  0  0
  192.7210  176.0340  137.0280 C   0  0  2  0  0  3  0  0  0  0  0  0
  192.0660  174.9170  136.2430 C   0  0  0  0  0  2  0  0  0  0  0  0
  193.9990  173.4220  136.1920 N   0  0  0  0  0  2  0  0  0  0  0  0
  193.8230  173.9220  137.5640 C   0  0  1  0  0  3  0  0  0  0  0  0
  193.9920  175.4320  137.5830 C   0  0  0  0  0  2  0  0  0  0  0  0
  192.6500  173.6080  136.7470 C   0  0  1  0  0  3  0  0  0  0  0  0
  181.3170  178.2800  140.5640 C   0  0  0  0  0  2  0  0  0  0  0  0
  181.2810  176.8150  140.1710 C   0  0  0  0  0  1  0  0  0  0  0  0
  188.3620  176.9910  146.9530 C   0  0  0  0  0  2  0  0  0  0  0  0
  189.7580  177.5270  147.2950 C   0  0  0  0  0  2  0  0  0  0  0  0
  190.7720  176.3990  147.3960 C   0  0  0  0  0  2  0  0  0  0  0  0
  192.7480  175.7550  148.1340 C   0  0  0  0  0  1  0  0  0  0  0  0
  191.9930  176.8940  147.8550 O   0  0  0  0  0  0  0  0  0  0  0  0
  1 10  1  0  0  0  0
  1 16  2  0  0  0  0
  2  6  1  0  0  0  0
  3 15  1  6  0  0  0
  3 14  1  0  0  0  0
  3 13  1  0  0  0  0
  5  7  1  0  0  0  0
  6 23  2  0  0  0  0
  7 21  1  0  0  0  0
  8 19  1  1  0  0  0
  8 14  1  0  0  0  0
  9  2  1  6  0  0  0
  9 18  1  0  0  0  0
 10 11  1  0  0  0  0
 11 22  1  0  0  0  0
 12 15  2  0  0  0  0
 12  8  1  0  0  0  0
 13 17  1  6  0  0  0
 13  1  1  0  0  0  0
 14  9  1  0  0  0  0
 17 20  2  0  0  0  0
 18 10  2  0  0  0  0
 19  2  2  0  0  0  0
 20  4  1  0  0  0  0
 20 16  1  0  0  0  0
 21 22  1  0  0  0  0
 21 37  1  0  0  0  0
 23  5  2  0  0  0  0
 24 26  1  0  0  0  0
 24  6  1  0  0  0  0
 26 25  2  0  0  0  0
 27 28  2  0  0  0  0
 28 26  1  0  0  0  0
 29 33  1  0  0  0  0
 29 27  1  0  0  0  0
 30 34  1  0  0  0  0
 30 29  1  0  0  0  0
 31 34  1  0  0  0  0
 31 32  1  0  0  0  0
 32 33  1  0  0  0  0
 34 32  1  0  0  0  0
 35 17  1  0  0  0  0
 36 35  1  0  0  0  0
 37 38  1  0  0  0  0
 38 39  1  0  0  0  0
 39 41  1  0  0  0  0
 41 40  1  0  0  0  0
M  END
>  <MODEL>
1

>  <REMARK>
 VINA RESULT:      -9.0      0.000      0.000
  Name = 
  8 active torsions:
  status: ('A' for Active; 'I' for Inactive)
    1  A    between atoms: C_2  and  C_33
    2  A    between atoms: C_8  and  C_16
    3  A    between atoms: C_8  and  C_20
    4  A    between atoms: C_9  and  C_26
    5  A    between atoms: N_10  and  C_11
    6  A    between atoms: C_16  and  O_24
    7  A    between atoms: C_20  and  N_39
    8  A    between atoms: C_34  and  C_38
                            x       y       z     vdW  Elec       q    Type
                         _______ _______ _______ _____ _____    ______ ____

>  <TORSDO>
F 8

$$$$
=
 OpenBabel10222416513D

 41 47  0  0  1  0  0  0  0  0999 V2000
  188.6470  177.4770  142.9330 C   0  0  0  0  0  0  0  0  0  0  0  0
  185.7020  178.6090  139.9950 C   0  0  0  0  0  0  0  0  0  0  0  0
  186.3360  178.3480  143.3240 C   0  0  1  0  0  3  0  0  0  0  0  0
  189.9420  177.5690  146.2970 C   0  0  0  0  0  1  0  0  0  0  0  0
  187.9010  177.4320  137.4060 C   0  0  0  0  0  3  0  0  0  0  0  0
  185.6980  178.2530  138.5560 C   0  0  0  0  0  0  0  0  0  0  0  0
  189.2130  177.9810  137.8550 C   0  0  0  0  0  2  0  0  0  0  0  0
  184.9110  179.3280  141.9780 C   0  0  1  0  0  3  0  0  0  0  0  0
  186.7060  178.4370  140.8680 C   0  0  1  0  0  3  0  0  0  0  0  0
  188.8610  177.4260  141.4650 C   0  0  0  0  0  0  0  0  0  0  0  0
  190.1400  176.8230  140.9560 C   0  0  0  0  0  2  0  0  0  0  0  0
  184.2110  179.0080  143.1690 N   0  0  0  0  0  0  0  0  0  0  0  0
  187.3240  177.2620  143.6340 C   0  0  2  0  0  3  0  0  0  0  0  0
  186.2520  178.9230  142.1420 C   0  0  2  0  0  3  0  0  0  0  0  0
  185.0470  178.4460  143.9560 N   0  0  0  0  0  0  0  0  0  0  0  0
  189.6330  177.5930  143.7620 N   0  0  0  0  0  0  0  0  0  0  0  0
  187.7820  177.3400  145.0530 C   0  0  0  0  0  0  0  0  0  0  0  0
  187.9580  177.7940  140.6010 N   0  0  0  0  0  0  0  0  0  0  0  0
  184.5040  179.0850  140.7350 C   0  0  0  0  0  3  0  0  0  0  0  0
  189.0950  177.5170  145.0720 C   0  0  0  0  0  0  0  0  0  0  0  0
  189.9880  176.9350  138.5130 N   0  0  0  0  0  0  0  0  0  0  0  0
  190.6460  177.5030  139.6850 C   0  0  0  0  0  2  0  0  0  0  0  0
  186.7970  177.8440  137.9660 C   0  0  0  0  0  0  0  0  0  0  0  0
  184.4720  178.4040  137.8210 N   0  0  0  0  0  2  0  0  0  0  0  0
  183.5710  176.2490  138.0720 O   0  0  0  0  0  0  0  0  0  0  0  0
  183.4600  177.4120  137.5950 C   0  0  0  0  0  0  0  0  0  0  0  0
  181.6010  178.8930  137.0260 C   0  0  0  0  0  3  0  0  0  0  0  0
  182.2840  177.7760  136.7990 C   0  0  0  0  0  3  0  0  0  0  0  0
  180.4080  179.2390  136.1980 C   0  0  2  0  0  3  0  0  0  0  0  0
  180.8390  179.7630  134.8440 C   0  0  0  0  0  2  0  0  0  0  0  0
  179.4140  181.7500  134.8300 N   0  0  0  0  0  2  0  0  0  0  0  0
  180.0900  181.6600  136.1340 C   0  0  1  0  0  3  0  0  0  0  0  0
  179.6630  180.3860  136.8440 C   0  0  0  0  0  2  0  0  0  0  0  0
  180.8060  181.2800  134.9150 C   0  0  1  0  0  3  0  0  0  0  0  0
  186.9130  177.1050  146.2480 C   0  0  0  0  0  2  0  0  0  0  0  0
  186.6800  178.4030  146.9970 C   0  0  0  0  0  1  0  0  0  0  0  0
  190.9920  176.3830  137.5910 C   0  0  0  0  0  2  0  0  0  0  0  0
  192.4250  176.4050  138.1380 C   0  0  0  0  0  2  0  0  0  0  0  0
  193.4300  176.0030  137.0700 C   0  0  0  0  0  2  0  0  0  0  0  0
  194.4690  174.2780  137.9690 C   0  0  0  0  0  1  0  0  0  0  0  0
  194.6350  175.6290  137.6640 O   0  0  0  0  0  0  0  0  0  0  0  0
  1 16  2  0  0  0  0
  2 19  2  0  0  0  0
  3 13  1  0  0  0  0
  3 15  1  6  0  0  0
  5  7  1  0  0  0  0
  5 23  2  0  0  0  0
  6  2  1  0  0  0  0
  7 21  1  0  0  0  0
  8 19  1  6  0  0  0
  8 14  1  0  0  0  0
  8 12  1  0  0  0  0
  9  2  1  1  0  0  0
  9 14  1  0  0  0  0
 10  1  1  0  0  0  0
 11 10  1  0  0  0  0
 12 15  2  0  0  0  0
 13  1  1  6  0  0  0
 13 17  1  0  0  0  0
 14  3  1  0  0  0  0
 16 20  1  0  0  0  0
 17 20  2  0  0  0  0
 17 35  1  0  0  0  0
 18  9  1  0  0  0  0
 18 10  2  0  0  0  0
 20  4  1  0  0  0  0
 21 22  1  0  0  0  0
 22 11  1  0  0  0  0
 23  6  2  0  0  0  0
 24  6  1  0  0  0  0
 26 24  1  0  0  0  0
 26 25  2  0  0  0  0
 28 27  2  0  0  0  0
 28 26  1  0  0  0  0
 29 33  1  0  0  0  0
 29 27  1  0  0  0  0
 30 34  1  0  0  0  0
 30 29  1  0  0  0  0
 31 34  1  0  0  0  0
 31 32  1  0  0  0  0
 32 33  1  0  0  0  0
 34 32  1  0  0  0  0
 35 36  1  0  0  0  0
 37 38  1  0  0  0  0
 37 21  1  0  0  0  0
 39 41  1  0  0  0  0
 39 38  1  0  0  0  0
 41 40  1  0  0  0  0
M  END
>  <MODEL>
2

>  <REMARK>
 VINA RESULT:      -8.7      3.166      8.621
  Name = 
  8 active torsions:
  status: ('A' for Active; 'I' for Inactive)
    1  A    between atoms: C_2  and  C_33
    2  A    between atoms: C_8  and  C_16
    3  A    between atoms: C_8  and  C_20
    4  A    between atoms: C_9  and  C_26
    5  A    between atoms: N_10  and  C_11
    6  A    between atoms: C_16  and  O_24
    7  A    between atoms: C_20  and  N_39
    8  A    between atoms: C_34  and  C_38
                            x       y       z     vdW  Elec       q    Type
                         _______ _______ _______ _____ _____    ______ ____

>  <TORSDO>
F 8

$$$$
=
 OpenBabel10222416513D

 41 47  0  0  1  0  0  0  0  0999 V2000
  186.4400  178.1450  144.0310 C   0  0  0  0  0  0  0  0  0  0  0  0
  189.4220  177.0270  141.1240 C   0  0  0  0  0  0  0  0  0  0  0  0
  188.6920  177.1400  144.4430 C   0  0  1  0  0  3  0  0  0  0  0  0
  185.0320  177.9360  147.3440 C   0  0  0  0  0  1  0  0  0  0  0  0
  187.3690  178.4500  138.5400 C   0  0  0  0  0  3  0  0  0  0  0  0
  189.4920  177.4600  139.7080 C   0  0  0  0  0  0  0  0  0  0  0  0
  186.0190  177.9440  138.9180 C   0  0  0  0  0  2  0  0  0  0  0  0
  190.1120  176.1640  143.0880 C   0  0  1  0  0  3  0  0  0  0  0  0
  188.3990  177.2020  141.9750 C   0  0  1  0  0  3  0  0  0  0  0  0
  186.2770  178.2860  142.5610 C   0  0  0  0  0  0  0  0  0  0  0  0
  185.0460  178.9780  142.0480 C   0  0  0  0  0  2  0  0  0  0  0  0
  190.7870  176.3840  144.3150 N   0  0  0  0  0  0  0  0  0  0  0  0
  187.7480  178.2560  144.7810 C   0  0  2  0  0  3  0  0  0  0  0  0
  188.7870  176.6260  143.2330 C   0  0  2  0  0  3  0  0  0  0  0  0
  189.9530  176.9440  145.1070 N   0  0  0  0  0  0  0  0  0  0  0  0
  185.4230  178.0340  144.8210 N   0  0  0  0  0  0  0  0  0  0  0  0
  187.2400  178.1240  146.1800 C   0  0  0  0  0  0  0  0  0  0  0  0
  187.1900  177.9200  141.7070 N   0  0  0  0  0  0  0  0  0  0  0  0
  190.5710  176.4530  141.8730 C   0  0  0  0  0  3  0  0  0  0  0  0
  185.9200  178.0120  146.1490 C   0  0  0  0  0  0  0  0  0  0  0  0
  185.2730  178.9910  139.6080 N   0  0  0  0  0  0  0  0  0  0  0  0
  184.5500  178.3930  140.7270 C   0  0  0  0  0  2  0  0  0  0  0  0
  188.4330  177.9540  139.1090 C   0  0  0  0  0  0  0  0  0  0  0  0
  190.7320  177.2880  139.0040 N   0  0  0  0  0  2  0  0  0  0  0  0
  190.4670  175.0860  138.2320 O   0  0  0  0  0  0  0  0  0  0  0  0
  191.1840  176.1220  138.3010 C   0  0  0  0  0  0  0  0  0  0  0  0
  193.2090  175.0510  137.4490 C   0  0  0  0  0  3  0  0  0  0  0  0
  192.5000  176.1560  137.6570 C   0  0  0  0  0  3  0  0  0  0  0  0
  194.5470  175.1150  136.7890 C   0  0  2  0  0  3  0  0  0  0  0  0
  194.5040  174.4220  135.4420 C   0  0  0  0  0  2  0  0  0  0  0  0
  196.5130  173.0630  135.7470 N   0  0  0  0  0  2  0  0  0  0  0  0
  195.6820  172.9590  136.9570 C   0  0  1  0  0  3  0  0  0  0  0  0
  195.5480  174.3280  137.6040 C   0  0  0  0  0  2  0  0  0  0  0  0
  195.0470  173.0170  135.6390 C   0  0  1  0  0  3  0  0  0  0  0  0
  188.0790  178.2510  147.4120 C   0  0  0  0  0  2  0  0  0  0  0  0
  188.2880  176.8920  148.0530 C   0  0  0  0  0  1  0  0  0  0  0  0
  184.3280  179.6400  138.6880 C   0  0  0  0  0  2  0  0  0  0  0  0
  182.9460  178.9760  138.6360 C   0  0  0  0  0  2  0  0  0  0  0  0
  181.8380  180.0130  138.5520 C   0  0  0  0  0  2  0  0  0  0  0  0
  181.3420  182.1200  138.1310 C   0  0  0  0  0  1  0  0  0  0  0  0
  182.3830  181.2970  138.5570 O   0  0  0  0  0  0  0  0  0  0  0  0
  1 16  2  0  0  0  0
  2 19  2  0  0  0  0
  3 13  1  0  0  0  0
  3 15  1  6  0  0  0
  5  7  1  0  0  0  0
  5 23  2  0  0  0  0
  6  2  1  0  0  0  0
  7 21  1  0  0  0  0
  8 19  1  6  0  0  0
  8 14  1  0  0  0  0
  8 12  1  0  0  0  0
  9  2  1  1  0  0  0
  9 14  1  0  0  0  0
 10  1  1  0  0  0  0
 11 10  1  0  0  0  0
 12 15  2  0  0  0  0
 13  1  1  6  0  0  0
 13 17  1  0  0  0  0
 14  3  1  0  0  0  0
 16 20  1  0  0  0  0
 17 35  1  0  0  0  0
 18  9  1  0  0  0  0
 18 10  2  0  0  0  0
 20 17  2  0  0  0  0
 20  4  1  0  0  0  0
 21 22  1  0  0  0  0
 22 11  1  0  0  0  0
 23  6  2  0  0  0  0
 24  6  1  0  0  0  0
 25 26  2  0  0  0  0
 26 24  1  0  0  0  0
 27 28  2  0  0  0  0
 28 26  1  0  0  0  0
 29 27  1  0  0  0  0
 29 33  1  0  0  0  0
 30 34  1  0  0  0  0
 30 29  1  0  0  0  0
 31 32  1  0  0  0  0
 32 33  1  0  0  0  0
 34 31  1  0  0  0  0
 34 32  1  0  0  0  0
 35 36  1  0  0  0  0
 37 21  1  0  0  0  0
 38 37  1  0  0  0  0
 39 41  1  0  0  0  0
 39 38  1  0  0  0  0
 40 41  1  0  0  0  0
M  END
>  <MODEL>
3

>  <REMARK>
 VINA RESULT:      -8.5      2.529      6.478
  Name = 
  8 active torsions:
  status: ('A' for Active; 'I' for Inactive)
    1  A    between atoms: C_2  and  C_33
    2  A    between atoms: C_8  and  C_16
    3  A    between atoms: C_8  and  C_20
    4  A    between atoms: C_9  and  C_26
    5  A    between atoms: N_10  and  C_11
    6  A    between atoms: C_16  and  O_24
    7  A    between atoms: C_20  and  N_39
    8  A    between atoms: C_34  and  C_38
                            x       y       z     vdW  Elec       q    Type
                         _______ _______ _______ _____ _____    ______ ____

>  <TORSDO>
F 8

$$$$
=
 OpenBabel10222416513D

 41 47  0  0  1  0  0  0  0  0999 V2000
  188.7190  177.5100  143.3230 C   0  0  0  0  0  0  0  0  0  0  0  0
  185.4370  178.8590  140.8740 C   0  0  0  0  0  0  0  0  0  0  0  0
  186.4980  178.3840  144.0690 C   0  0  1  0  0  3  0  0  0  0  0  0
  190.4470  177.3770  146.4850 C   0  0  0  0  0  1  0  0  0  0  0  0
  187.2520  177.8180  137.9510 C   0  0  0  0  0  3  0  0  0  0  0  0
  185.2360  178.5930  139.4300 C   0  0  0  0  0  0  0  0  0  0  0  0
  188.6220  178.3220  138.2550 C   0  0  0  0  0  2  0  0  0  0  0  0
  184.9280  179.4630  142.9850 C   0  0  1  0  0  3  0  0  0  0  0  0
  186.5440  178.6210  141.5950 C   0  0  1  0  0  3  0  0  0  0  0  0
  188.7370  177.5480  141.8390 C   0  0  0  0  0  0  0  0  0  0  0  0
  189.9260  176.9630  141.1300 C   0  0  0  0  0  2  0  0  0  0  0  0
  184.3850  179.0780  144.2360 N   0  0  0  0  0  0  0  0  0  0  0  0
  187.4960  177.2680  144.1790 C   0  0  2  0  0  3  0  0  0  0  0  0
  186.2710  179.0320  142.9440 C   0  0  2  0  0  3  0  0  0  0  0  0
  185.3050  178.4580  144.8710 N   0  0  0  0  0  0  0  0  0  0  0  0
  189.8080  177.5620  144.0190 N   0  0  0  0  0  0  0  0  0  0  0  0
  188.1380  177.2530  145.5270 C   0  0  0  0  0  0  0  0  0  0  0  0
  187.7350  177.9800  141.1270 N   0  0  0  0  0  0  0  0  0  0  0  0
  184.3570  179.3020  141.7940 C   0  0  0  0  0  3  0  0  0  0  0  0
  189.4450  177.4120  145.3820 C   0  0  0  0  0  0  0  0  0  0  0  0
  189.4560  177.2280  138.7390 N   0  0  0  0  0  0  0  0  0  0  0  0
  190.2740  177.7140  139.8460 C   0  0  0  0  0  2  0  0  0  0  0  0
  186.2390  178.2090  138.6760 C   0  0  0  0  0  0  0  0  0  0  0  0
  183.9270  178.8040  138.8750 N   0  0  0  0  0  2  0  0  0  0  0  0
  182.9320  176.7340  139.3610 O   0  0  0  0  0  0  0  0  0  0  0  0
  182.8290  177.8820  138.8480 C   0  0  0  0  0  0  0  0  0  0  0  0
  181.4710  179.4470  137.5520 C   0  0  0  0  0  3  0  0  0  0  0  0
  181.5750  178.3000  138.2140 C   0  0  0  0  0  3  0  0  0  0  0  0
  180.1810  179.8460  136.9150 C   0  0  2  0  0  3  0  0  0  0  0  0
  180.1790  179.4720  135.4470 C   0  0  0  0  0  2  0  0  0  0  0  0
  179.4080  181.6300  134.5950 N   0  0  0  0  0  2  0  0  0  0  0  0
  180.4840  181.8630  135.5710 C   0  0  1  0  0  3  0  0  0  0  0  0
  180.0550  181.3530  136.9370 C   0  0  0  0  0  2  0  0  0  0  0  0
  180.5590  180.7170  134.6630 C   0  0  1  0  0  3  0  0  0  0  0  0
  187.4290  176.9540  146.8110 C   0  0  0  0  0  2  0  0  0  0  0  0
  187.3950  178.1860  147.6950 C   0  0  0  0  0  1  0  0  0  0  0  0
  190.3170  176.7220  137.6610 C   0  0  0  0  0  2  0  0  0  0  0  0
  189.6150  175.7590  136.6960 C   0  0  0  0  0  2  0  0  0  0  0  0
  189.8770  174.3100  137.0730 C   0  0  0  0  0  2  0  0  0  0  0  0
  191.9320  173.6410  136.6320 C   0  0  0  0  0  1  0  0  0  0  0  0
  191.1440  174.1870  137.6450 O   0  0  0  0  0  0  0  0  0  0  0  0
  1 16  2  0  0  0  0
  2 19  2  0  0  0  0
  3 13  1  0  0  0  0
  3 15  1  6  0  0  0
  5  7  1  0  0  0  0
  5 23  2  0  0  0  0
  6  2  1  0  0  0  0
  7 21  1  0  0  0  0
  8 19  1  6  0  0  0
  8 12  1  0  0  0  0
  9  2  1  1  0  0  0
  9 14  1  0  0  0  0
 10  1  1  0  0  0  0
 11 10  1  0  0  0  0
 12 15  2  0  0  0  0
 13  1  1  6  0  0  0
 13 17  1  0  0  0  0
 14  8  1  0  0  0  0
 14  3  1  0  0  0  0
 16 20  1  0  0  0  0
 17 35  1  0  0  0  0
 18  9  1  0  0  0  0
 18 10  2  0  0  0  0
 20 17  2  0  0  0  0
 20  4  1  0  0  0  0
 21 22  1  0  0  0  0
 22 11  1  0  0  0  0
 23  6  2  0  0  0  0
 24  6  1  0  0  0  0
 26 24  1  0  0  0  0
 26 25  2  0  0  0  0
 27 28  2  0  0  0  0
 28 26  1  0  0  0  0
 29 33  1  0  0  0  0
 29 27  1  0  0  0  0
 30 29  1  0  0  0  0
 31 34  1  0  0  0  0
 31 32  1  0  0  0  0
 32 33  1  0  0  0  0
 34 30  1  0  0  0  0
 34 32  1  0  0  0  0
 35 36  1  0  0  0  0
 37 21  1  0  0  0  0
 38 39  1  0  0  0  0
 38 37  1  0  0  0  0
 39 41  1  0  0  0  0
 40 41  1  0  0  0  0
M  END
>  <MODEL>
4

>  <REMARK>
 VINA RESULT:      -8.1      3.158      8.842
  Name = 
  8 active torsions:
  status: ('A' for Active; 'I' for Inactive)
    1  A    between atoms: C_2  and  C_33
    2  A    between atoms: C_8  and  C_16
    3  A    between atoms: C_8  and  C_20
    4  A    between atoms: C_9  and  C_26
    5  A    between atoms: N_10  and  C_11
    6  A    between atoms: C_16  and  O_24
    7  A    between atoms: C_20  and  N_39
    8  A    between atoms: C_34  and  C_38
                            x       y       z     vdW  Elec       q    Type
                         _______ _______ _______ _____ _____    ______ ____

>  <TORSDO>
F 8

$$$$
=
 OpenBabel10222416513D

 41 47  0  0  1  0  0  0  0  0999 V2000
  185.4410  178.1650  142.6850 C   0  0  0  0  0  0  0  0  0  0  0  0
  188.9910  178.0030  140.2440 C   0  0  0  0  0  0  0  0  0  0  0  0
  185.6320  178.5270  140.2190 C   0  0  1  0  0  3  0  0  0  0  0  0
  182.0240  179.1870  143.2190 C   0  0  0  0  0  1  0  0  0  0  0  0
  190.8590  176.9110  143.1140 C   0  0  0  0  0  3  0  0  0  0  0  0
  190.2920  177.3930  140.6040 C   0  0  0  0  0  0  0  0  0  0  0  0
  190.3440  177.8270  144.1720 C   0  0  0  0  0  2  0  0  0  0  0  0
  187.3750  178.8760  138.9370 C   0  0  1  0  0  3  0  0  0  0  0  0
  187.9530  178.2380  141.0610 C   0  0  1  0  0  3  0  0  0  0  0  0
  186.8060  177.8910  143.2020 C   0  0  0  0  0  0  0  0  0  0  0  0
  186.9540  177.5220  144.6510 C   0  0  0  0  0  2  0  0  0  0  0  0
  186.2700  178.6290  138.0840 N   0  0  0  0  0  0  0  0  0  0  0  0
  184.9300  177.7810  141.3150 C   0  0  2  0  0  3  0  0  0  0  0  0
  186.9120  178.8340  140.2690 C   0  0  2  0  0  3  0  0  0  0  0  0
  185.2520  178.4370  138.8340 N   0  0  0  0  0  0  0  0  0  0  0  0
  184.5150  178.6620  143.4380 N   0  0  0  0  0  0  0  0  0  0  0  0
  183.5110  178.2290  141.4480 C   0  0  0  0  0  0  0  0  0  0  0  0
  187.8630  177.8680  142.4410 N   0  0  0  0  0  0  0  0  0  0  0  0
  188.5780  178.3150  138.8500 C   0  0  0  0  0  3  0  0  0  0  0  0
  183.3250  178.7090  142.6690 C   0  0  0  0  0  0  0  0  0  0  0  0
  189.3500  177.1340  144.9860 N   0  0  0  0  0  0  0  0  0  0  0  0
  188.2490  178.0500  145.2650 C   0  0  0  0  0  2  0  0  0  0  0  0
  190.5910  177.1500  141.8590 C   0  0  0  0  0  0  0  0  0  0  0  0
  191.2280  177.1110  139.5500 N   0  0  0  0  0  2  0  0  0  0  0  0
  190.1890  175.2510  138.5620 O   0  0  0  0  0  0  0  0  0  0  0  0
  191.1580  176.0600  138.5760 C   0  0  0  0  0  0  0  0  0  0  0  0
  193.0680  174.9090  137.5770 C   0  0  0  0  0  3  0  0  0  0  0  0
  192.2340  175.9440  137.5890 C   0  0  0  0  0  3  0  0  0  0  0  0
  194.1550  174.8160  136.5580 C   0  0  2  0  0  3  0  0  0  0  0  0
  193.9060  173.6480  135.6260 C   0  0  0  0  0  2  0  0  0  0  0  0
  196.1500  172.6860  135.7550 N   0  0  0  0  0  2  0  0  0  0  0  0
  195.6910  173.0000  137.1160 C   0  0  1  0  0  3  0  0  0  0  0  0
  195.4630  174.4970  137.2470 C   0  0  0  0  0  2  0  0  0  0  0  0
  194.7420  172.4830  136.1280 C   0  0  1  0  0  3  0  0  0  0  0  0
  182.4480  178.0250  140.4150 C   0  0  0  0  0  2  0  0  0  0  0  0
  182.4240  176.5780  139.9600 C   0  0  0  0  0  1  0  0  0  0  0  0
  189.9500  176.6710  146.2450 C   0  0  0  0  0  2  0  0  0  0  0  0
  191.4820  176.7520  146.2770 C   0  0  0  0  0  2  0  0  0  0  0  0
  192.0550  175.9290  147.4190 C   0  0  0  0  0  2  0  0  0  0  0  0
  193.3280  176.0040  149.2190 C   0  0  0  0  0  1  0  0  0  0  0  0
  192.4320  176.7660  148.4700 O   0  0  0  0  0  0  0  0  0  0  0  0
  1 10  1  0  0  0  0
  1 16  2  0  0  0  0
  2  6  1  0  0  0  0
  3 15  1  6  0  0  0
  3 14  1  0  0  0  0
  3 13  1  0  0  0  0
  5  7  1  0  0  0  0
  6 23  2  0  0  0  0
  7 21  1  0  0  0  0
  8 19  1  1  0  0  0
  8 14  1  0  0  0  0
  9  2  1  6  0  0  0
  9 18  1  0  0  0  0
 10 11  1  0  0  0  0
 11 22  1  0  0  0  0
 12 15  2  0  0  0  0
 12  8  1  0  0  0  0
 13 17  1  1  0  0  0
 13  1  1  0  0  0  0
 14  9  1  0  0  0  0
 17 20  2  0  0  0  0
 18 10  2  0  0  0  0
 19  2  2  0  0  0  0
 20  4  1  0  0  0  0
 20 16  1  0  0  0  0
 21 22  1  0  0  0  0
 21 37  1  0  0  0  0
 23  5  2  0  0  0  0
 24  6  1  0  0  0  0
 25 26  2  0  0  0  0
 26 24  1  0  0  0  0
 27 28  2  0  0  0  0
 28 26  1  0  0  0  0
 29 33  1  0  0  0  0
 29 27  1  0  0  0  0
 30 34  1  0  0  0  0
 30 29  1  0  0  0  0
 31 34  1  0  0  0  0
 31 32  1  0  0  0  0
 32 33  1  0  0  0  0
 34 32  1  0  0  0  0
 35 17  1  0  0  0  0
 36 35  1  0  0  0  0
 37 38  1  0  0  0  0
 38 39  1  0  0  0  0
 39 41  1  0  0  0  0
 41 40  1  0  0  0  0
M  END
>  <MODEL>
5

>  <REMARK>
 VINA RESULT:      -7.7      1.428      1.699
  Name = 
  8 active torsions:
  status: ('A' for Active; 'I' for Inactive)
    1  A    between atoms: C_2  and  C_33
    2  A    between atoms: C_8  and  C_16
    3  A    between atoms: C_8  and  C_20
    4  A    between atoms: C_9  and  C_26
    5  A    between atoms: N_10  and  C_11
    6  A    between atoms: C_16  and  O_24
    7  A    between atoms: C_20  and  N_39
    8  A    between atoms: C_34  and  C_38
                            x       y       z     vdW  Elec       q    Type
                         _______ _______ _______ _____ _____    ______ ____

>  <TORSDO>
F 8

$$$$
=
 OpenBabel10222416513D

 41 47  0  0  1  0  0  0  0  0999 V2000
  189.9770  176.6620  138.9680 C   0  0  0  0  0  0  0  0  0  0  0  0
  185.9740  178.2510  138.7840 C   0  0  0  0  0  0  0  0  0  0  0  0
  188.5580  177.0300  136.9430 C   0  0  1  0  0  3  0  0  0  0  0  0
  192.7050  174.8100  137.5080 C   0  0  0  0  0  1  0  0  0  0  0  0
  186.1230  178.9090  142.3150 C   0  0  0  0  0  3  0  0  0  0  0  0
  185.2680  179.0120  139.8420 C   0  0  0  0  0  0  0  0  0  0  0  0
  186.7390  177.6520  142.8270 C   0  0  0  0  0  2  0  0  0  0  0  0
  186.4140  177.4320  136.7310 C   0  0  1  0  0  3  0  0  0  0  0  0
  187.1310  177.5820  138.9020 C   0  0  1  0  0  3  0  0  0  0  0  0
  189.1820  177.0780  140.1510 C   0  0  0  0  0  0  0  0  0  0  0  0
  189.8530  177.0650  141.4960 C   0  0  0  0  0  2  0  0  0  0  0  0
  187.0090  177.6520  135.4630 N   0  0  0  0  0  0  0  0  0  0  0  0
  189.8880  177.2800  137.5910 C   0  0  2  0  0  3  0  0  0  0  0  0
  187.4270  177.0100  137.6180 C   0  0  2  0  0  3  0  0  0  0  0  0
  188.2580  177.4060  135.5870 N   0  0  0  0  0  0  0  0  0  0  0  0
  190.9270  175.7890  139.0590 N   0  0  0  0  0  0  0  0  0  0  0  0
  190.9720  176.5130  136.9070 C   0  0  0  0  0  0  0  0  0  0  0  0
  187.9660  177.5370  140.0640 N   0  0  0  0  0  0  0  0  0  0  0  0
  185.5650  178.2450  137.3540 C   0  0  0  0  0  3  0  0  0  0  0  0
  191.5350  175.6920  137.7810 C   0  0  0  0  0  0  0  0  0  0  0  0
  188.1600  177.8640  143.0780 N   0  0  0  0  0  0  0  0  0  0  0  0
  188.8980  176.6880  142.6260 C   0  0  0  0  0  2  0  0  0  0  0  0
  185.6830  178.9650  141.0870 C   0  0  0  0  0  0  0  0  0  0  0  0
  184.1010  179.7650  139.4760 N   0  0  0  0  0  2  0  0  0  0  0  0
  182.5050  178.0440  139.3970 O   0  0  0  0  0  0  0  0  0  0  0  0
  182.7720  179.2690  139.2590 C   0  0  0  0  0  0  0  0  0  0  0  0
  181.9880  181.4930  138.6140 C   0  0  0  0  0  3  0  0  0  0  0  0
  181.7220  180.2170  138.8760 C   0  0  0  0  0  3  0  0  0  0  0  0
  180.8980  182.4350  138.2250 C   0  0  2  0  0  3  0  0  0  0  0  0
  179.8740  181.7300  137.3600 C   0  0  0  0  0  2  0  0  0  0  0  0
  179.7640  183.4190  135.5960 N   0  0  0  0  0  2  0  0  0  0  0  0
  181.1770  183.1470  135.9050 C   0  0  1  0  0  3  0  0  0  0  0  0
  181.4670  183.5270  137.3470 C   0  0  0  0  0  2  0  0  0  0  0  0
  180.2050  182.0520  135.9130 C   0  0  1  0  0  3  0  0  0  0  0  0
  191.4360  176.7500  135.5040 C   0  0  0  0  0  2  0  0  0  0  0  0
  191.0370  175.5900  134.6110 C   0  0  0  0  0  1  0  0  0  0  0  0
  188.4010  178.0900  144.5100 C   0  0  0  0  0  2  0  0  0  0  0  0
  189.8840  178.2090  144.8850 C   0  0  0  0  0  2  0  0  0  0  0  0
  190.2710  177.1850  145.9400 C   0  0  0  0  0  2  0  0  0  0  0  0
  191.8840  176.0870  146.9670 C   0  0  0  0  0  1  0  0  0  0  0  0
  191.6600  177.1130  146.0500 O   0  0  0  0  0  0  0  0  0  0  0  0
  1 16  2  0  0  0  0
  1 10  1  0  0  0  0
  2  6  1  0  0  0  0
  3 15  1  6  0  0  0
  3 13  1  0  0  0  0
  3 14  1  0  0  0  0
  4 20  1  0  0  0  0
  5  7  1  0  0  0  0
  6 23  2  0  0  0  0
  7 21  1  0  0  0  0
  8 19  1  1  0  0  0
  8 14  1  0  0  0  0
  9  2  1  6  0  0  0
  9 18  1  0  0  0  0
 10 11  1  0  0  0  0
 11 22  1  0  0  0  0
 12 15  2  0  0  0  0
 12  8  1  0  0  0  0
 13 17  1  6  0  0  0
 13  1  1  0  0  0  0
 14  9  1  0  0  0  0
 17 20  2  0  0  0  0
 18 10  2  0  0  0  0
 19  2  2  0  0  0  0
 20 16  1  0  0  0  0
 21 37  1  0  0  0  0
 22 21  1  0  0  0  0
 23  5  2  0  0  0  0
 24  6  1  0  0  0  0
 26 25  2  0  0  0  0
 26 24  1  0  0  0  0
 27 28  2  0  0  0  0
 28 26  1  0  0  0  0
 29 27  1  0  0  0  0
 30 29  1  0  0  0  0
 31 32  1  0  0  0  0
 31 34  1  0  0  0  0
 32 34  1  0  0  0  0
 32 33  1  0  0  0  0
 33 29  1  0  0  0  0
 34 30  1  0  0  0  0
 35 17  1  0  0  0  0
 36 35  1  0  0  0  0
 37 38  1  0  0  0  0
 38 39  1  0  0  0  0
 39 41  1  0  0  0  0
 41 40  1  0  0  0  0
M  END
>  <MODEL>
6

>  <REMARK>
 VINA RESULT:      -7.7      3.345      8.608
  Name = 
  8 active torsions:
  status: ('A' for Active; 'I' for Inactive)
    1  A    between atoms: C_2  and  C_33
    2  A    between atoms: C_8  and  C_16
    3  A    between atoms: C_8  and  C_20
    4  A    between atoms: C_9  and  C_26
    5  A    between atoms: N_10  and  C_11
    6  A    between atoms: C_16  and  O_24
    7  A    between atoms: C_20  and  N_39
    8  A    between atoms: C_34  and  C_38
                            x       y       z     vdW  Elec       q    Type
                         _______ _______ _______ _____ _____    ______ ____

>  <TORSDO>
F 8

$$$$
=
 OpenBabel10222416513D

 41 47  0  0  1  0  0  0  0  0999 V2000
  192.8740  174.6060  136.3910 C   0  0  0  0  0  0  0  0  0  0  0  0
  191.1850  177.1230  139.4560 C   0  0  0  0  0  0  0  0  0  0  0  0
  194.0180  175.5730  138.3920 C   0  0  1  0  0  3  0  0  0  0  0  0
  195.7150  173.2800  134.6100 C   0  0  0  0  0  1  0  0  0  0  0  0
  187.9460  176.6980  137.9570 C   0  0  0  0  0  3  0  0  0  0  0  0
  189.7470  177.3250  139.7500 C   0  0  0  0  0  0  0  0  0  0  0  0
  188.2630  176.8620  136.5090 C   0  0  0  0  0  2  0  0  0  0  0  0
  193.4150  177.1620  139.7780 C   0  0  1  0  0  3  0  0  0  0  0  0
  191.7150  176.5090  138.3870 C   0  0  1  0  0  3  0  0  0  0  0  0
  191.4630  175.0700  136.4160 C   0  0  0  0  0  0  0  0  0  0  0  0
  190.5220  174.5320  135.3750 C   0  0  0  0  0  2  0  0  0  0  0  0
  194.5490  176.5220  140.3390 N   0  0  0  0  0  0  0  0  0  0  0  0
  193.7260  174.3280  137.6080 C   0  0  2  0  0  3  0  0  0  0  0  0
  193.1430  176.5480  138.5370 C   0  0  2  0  0  3  0  0  0  0  0  0
  194.9050  175.6040  139.5250 N   0  0  0  0  0  0  0  0  0  0  0  0
  193.4620  174.2760  135.2870 N   0  0  0  0  0  0  0  0  0  0  0  0
  194.9570  173.8160  136.9340 C   0  0  0  0  0  0  0  0  0  0  0  0
  190.9870  175.8480  137.3460 N   0  0  0  0  0  0  0  0  0  0  0  0
  192.2800  177.4490  140.4080 C   0  0  0  0  0  3  0  0  0  0  0  0
  194.7530  173.7960  135.6250 C   0  0  0  0  0  0  0  0  0  0  0  0
  188.3500  175.5540  135.8700 N   0  0  0  0  0  0  0  0  0  0  0  0
  189.4760  175.5570  134.9410 C   0  0  0  0  0  2  0  0  0  0  0  0
  188.8340  177.0190  138.8580 C   0  0  0  0  0  0  0  0  0  0  0  0
  189.3840  177.8990  141.0170 N   0  0  0  0  0  2  0  0  0  0  0  0
  189.4130  175.9750  142.3650 O   0  0  0  0  0  0  0  0  0  0  0  0
  189.2220  177.2190  142.2700 C   0  0  0  0  0  0  0  0  0  0  0  0
  188.6440  177.4330  144.6360 C   0  0  0  0  0  3  0  0  0  0  0  0
  188.8320  178.0000  143.4480 C   0  0  0  0  0  3  0  0  0  0  0  0
  188.2490  178.2530  145.8190 C   0  0  2  0  0  3  0  0  0  0  0  0
  189.4260  178.4290  146.7560 C   0  0  0  0  0  2  0  0  0  0  0  0
  188.2550  177.8200  148.8140 N   0  0  0  0  0  2  0  0  0  0  0  0
  187.9370  176.8270  147.7760 C   0  0  1  0  0  3  0  0  0  0  0  0
  187.2120  177.5040  146.6250 C   0  0  0  0  0  2  0  0  0  0  0  0
  189.2850  177.3910  147.8560 C   0  0  1  0  0  3  0  0  0  0  0  0
  196.1600  173.2760  137.6420 C   0  0  0  0  0  2  0  0  0  0  0  0
  197.3330  174.2270  137.4940 C   0  0  0  0  0  1  0  0  0  0  0  0
  187.1050  175.2510  135.1490 C   0  0  0  0  0  2  0  0  0  0  0  0
  186.3600  174.0170  135.6740 C   0  0  0  0  0  2  0  0  0  0  0  0
  187.1240  173.3520  136.8080 C   0  0  0  0  0  2  0  0  0  0  0  0
  185.0610  173.4620  137.5790 C   0  0  0  0  0  1  0  0  0  0  0  0
  186.2350  172.7180  137.6760 O   0  0  0  0  0  0  0  0  0  0  0  0
  1 10  1  0  0  0  0
  2  6  1  0  0  0  0
  2 19  2  0  0  0  0
  3 14  1  0  0  0  0
  3 15  1  1  0  0  0
  4 20  1  0  0  0  0
  5 23  2  0  0  0  0
  6 24  1  0  0  0  0
  7  5  1  0  0  0  0
  8 12  1  0  0  0  0
  8 19  1  1  0  0  0
  9 18  1  1  0  0  0
  9 14  1  0  0  0  0
  9  2  1  0  0  0  0
 10 18  2  0  0  0  0
 11 10  1  0  0  0  0
 13  1  1  6  0  0  0
 13  3  1  0  0  0  0
 14  8  1  0  0  0  0
 15 12  2  0  0  0  0
 16 20  1  0  0  0  0
 16  1  2  0  0  0  0
 17 13  1  0  0  0  0
 17 35  1  0  0  0  0
 20 17  2  0  0  0  0
 21  7  1  0  0  0  0
 22 11  1  0  0  0  0
 22 21  1  0  0  0  0
 23  6  2  0  0  0  0
 24 26  1  0  0  0  0
 26 25  2  0  0  0  0
 26 28  1  0  0  0  0
 27 29  1  0  0  0  0
 28 27  2  0  0  0  0
 29 33  1  0  0  0  0
 29 30  1  0  0  0  0
 30 34  1  0  0  0  0
 32 34  1  0  0  0  0
 32 31  1  0  0  0  0
 33 32  1  0  0  0  0
 34 31  1  0  0  0  0
 36 35  1  0  0  0  0
 37 38  1  0  0  0  0
 37 21  1  0  0  0  0
 38 39  1  0  0  0  0
 39 41  1  0  0  0  0
 40 41  1  0  0  0  0
M  END
>  <MODEL>
7

>  <REMARK>
 VINA RESULT:      -7.4      3.708     10.678
  Name = 
  8 active torsions:
  status: ('A' for Active; 'I' for Inactive)
    1  A    between atoms: C_2  and  C_33
    2  A    between atoms: C_8  and  C_16
    3  A    between atoms: C_8  and  C_20
    4  A    between atoms: C_9  and  C_26
    5  A    between atoms: N_10  and  C_11
    6  A    between atoms: C_16  and  O_24
    7  A    between atoms: C_20  and  N_39
    8  A    between atoms: C_34  and  C_38
                            x       y       z     vdW  Elec       q    Type
                         _______ _______ _______ _____ _____    ______ ____

>  <TORSDO>
F 8

$$$$
=
 OpenBabel10222416513D

 41 47  0  0  1  0  0  0  0  0999 V2000
  191.2100  176.1000  138.2670 C   0  0  0  0  0  0  0  0  0  0  0  0
  187.1150  177.4300  138.0330 C   0  0  0  0  0  0  0  0  0  0  0  0
  189.6900  176.0640  136.2820 C   0  0  1  0  0  3  0  0  0  0  0  0
  193.9810  174.1820  136.9850 C   0  0  0  0  0  1  0  0  0  0  0  0
  187.3680  178.6530  141.4030 C   0  0  0  0  0  3  0  0  0  0  0  0
  186.4090  178.3130  138.9920 C   0  0  0  0  0  0  0  0  0  0  0  0
  188.0780  177.5280  142.0770 C   0  0  0  0  0  2  0  0  0  0  0  0
  187.5190  176.3160  136.1160 C   0  0  1  0  0  3  0  0  0  0  0  0
  188.3140  176.8500  138.1980 C   0  0  1  0  0  3  0  0  0  0  0  0
  190.4400  176.6590  139.4070 C   0  0  0  0  0  0  0  0  0  0  0  0
  191.1650  176.8980  140.7020 C   0  0  0  0  0  2  0  0  0  0  0  0
  188.0480  176.3590  134.8020 N   0  0  0  0  0  0  0  0  0  0  0  0
  191.0280  176.4840  136.8160 C   0  0  2  0  0  3  0  0  0  0  0  0
  188.5900  176.0940  137.0070 C   0  0  2  0  0  3  0  0  0  0  0  0
  189.3130  176.2020  134.9000 N   0  0  0  0  0  0  0  0  0  0  0  0
  192.2130  175.3040  138.4470 N   0  0  0  0  0  0  0  0  0  0  0  0
  192.1270  175.6740  136.2080 C   0  0  0  0  0  0  0  0  0  0  0  0
  189.1960  177.0340  139.3100 N   0  0  0  0  0  0  0  0  0  0  0  0
  186.6500  177.1730  136.6440 C   0  0  0  0  0  3  0  0  0  0  0  0
  192.7730  175.0350  137.1730 C   0  0  0  0  0  0  0  0  0  0  0  0
  189.4940  177.8510  142.2200 N   0  0  0  0  0  0  0  0  0  0  0  0
  190.2810  176.6580  141.9240 C   0  0  0  0  0  2  0  0  0  0  0  0
  186.8770  178.4880  140.2060 C   0  0  0  0  0  0  0  0  0  0  0  0
  185.1860  178.9360  138.5690 N   0  0  0  0  0  2  0  0  0  0  0  0
  183.6230  177.5370  139.6250 O   0  0  0  0  0  0  0  0  0  0  0  0
  183.8450  178.5350  138.8860 C   0  0  0  0  0  0  0  0  0  0  0  0
  181.4660  179.0400  138.6430 C   0  0  0  0  0  3  0  0  0  0  0  0
  182.7300  179.3110  138.3350 C   0  0  0  0  0  3  0  0  0  0  0  0
  180.3500  179.8480  138.0690 C   0  0  2  0  0  3  0  0  0  0  0  0
  180.8590  181.2000  137.6120 C   0  0  0  0  0  2  0  0  0  0  0  0
  179.1280  182.5460  138.6920 N   0  0  0  0  0  2  0  0  0  0  0  0
  179.6320  181.5580  139.6580 C   0  0  1  0  0  3  0  0  0  0  0  0
  179.3410  180.1550  139.1530 C   0  0  0  0  0  2  0  0  0  0  0  0
  180.5560  182.1950  138.7190 C   0  0  1  0  0  3  0  0  0  0  0  0
  192.5180  175.7070  134.7650 C   0  0  0  0  0  2  0  0  0  0  0  0
  193.8500  176.4150  134.5940 C   0  0  0  0  0  1  0  0  0  0  0  0
  189.7790  178.3160  143.5850 C   0  0  0  0  0  2  0  0  0  0  0  0
  190.0200  177.1860  144.5950 C   0  0  0  0  0  2  0  0  0  0  0  0
  189.1110  177.3240  145.8050 C   0  0  0  0  0  2  0  0  0  0  0  0
  187.0890  177.8690  146.4960 C   0  0  0  0  0  1  0  0  0  0  0  0
  188.0210  178.1360  145.4940 O   0  0  0  0  0  0  0  0  0  0  0  0
  1 16  2  0  0  0  0
  1 10  1  0  0  0  0
  2  6  1  0  0  0  0
  3 15  1  6  0  0  0
  3 13  1  0  0  0  0
  3 14  1  0  0  0  0
  4 20  1  0  0  0  0
  5  7  1  0  0  0  0
  6 23  2  0  0  0  0
  7 21  1  0  0  0  0
  8 19  1  1  0  0  0
  8 14  1  0  0  0  0
  9  2  1  6  0  0  0
  9 18  1  0  0  0  0
 10 11  1  0  0  0  0
 11 22  1  0  0  0  0
 12 15  2  0  0  0  0
 12  8  1  0  0  0  0
 13 17  1  6  0  0  0
 13  1  1  0  0  0  0
 14  9  1  0  0  0  0
 17 20  2  0  0  0  0
 18 10  2  0  0  0  0
 19  2  2  0  0  0  0
 20 16  1  0  0  0  0
 21 37  1  0  0  0  0
 22 21  1  0  0  0  0
 23  5  2  0  0  0  0
 24 26  1  0  0  0  0
 24  6  1  0  0  0  0
 26 25  2  0  0  0  0
 28 27  2  0  0  0  0
 28 26  1  0  0  0  0
 29 27  1  0  0  0  0
 29 33  1  0  0  0  0
 30 29  1  0  0  0  0
 30 34  1  0  0  0  0
 31 34  1  0  0  0  0
 31 32  1  0  0  0  0
 33 32  1  0  0  0  0
 34 32  1  0  0  0  0
 35 17  1  0  0  0  0
 36 35  1  0  0  0  0
 37 38  1  0  0  0  0
 38 39  1  0  0  0  0
 41 39  1  0  0  0  0
 41 40  1  0  0  0  0
M  END
>  <MODEL>
8

>  <REMARK>
 VINA RESULT:      -7.2      3.044      9.167
  Name = 
  8 active torsions:
  status: ('A' for Active; 'I' for Inactive)
    1  A    between atoms: C_2  and  C_33
    2  A    between atoms: C_8  and  C_16
    3  A    between atoms: C_8  and  C_20
    4  A    between atoms: C_9  and  C_26
    5  A    between atoms: N_10  and  C_11
    6  A    between atoms: C_16  and  O_24
    7  A    between atoms: C_20  and  N_39
    8  A    between atoms: C_34  and  C_38
                            x       y       z     vdW  Elec       q    Type
                         _______ _______ _______ _____ _____    ______ ____

>  <TORSDO>
F 8

$$$$
=
 OpenBabel10222416513D

 41 47  0  0  1  0  0  0  0  0999 V2000
  182.4430  178.7110  138.3770 C   0  0  0  0  0  0  0  0  0  0  0  0
  185.6420  178.1850  141.2200 C   0  0  0  0  0  0  0  0  0  0  0  0
  182.3270  178.8550  140.8710 C   0  0  1  0  0  3  0  0  0  0  0  0
  178.9310  178.8220  137.5680 C   0  0  0  0  0  1  0  0  0  0  0  0
  187.9620  177.9180  138.4870 C   0  0  0  0  0  3  0  0  0  0  0  0
  187.0970  178.2210  140.9390 C   0  0  0  0  0  0  0  0  0  0  0  0
  187.2210  177.0240  137.5520 C   0  0  0  0  0  2  0  0  0  0  0  0
  183.7380  178.2240  142.4250 C   0  0  1  0  0  3  0  0  0  0  0  0
  184.6450  178.1440  140.3220 C   0  0  1  0  0  3  0  0  0  0  0  0
  183.8450  178.3830  138.0150 C   0  0  0  0  0  0  0  0  0  0  0  0
  184.2110  178.3520  136.5570 C   0  0  0  0  0  2  0  0  0  0  0  0
  182.7440  179.0140  143.0560 N   0  0  0  0  0  0  0  0  0  0  0  0
  182.0170  179.5360  139.5700 C   0  0  2  0  0  3  0  0  0  0  0  0
  183.4100  178.1280  141.0560 C   0  0  2  0  0  3  0  0  0  0  0  0
  181.9160  179.3710  142.1500 N   0  0  0  0  0  0  0  0  0  0  0  0
  181.4500  178.4060  137.6060 N   0  0  0  0  0  0  0  0  0  0  0  0
  180.5440  179.5810  139.3250 C   0  0  0  0  0  0  0  0  0  0  0  0
  184.7860  178.2100  138.8990 N   0  0  0  0  0  0  0  0  0  0  0  0
  185.0550  178.3470  142.5760 C   0  0  0  0  0  3  0  0  0  0  0  0
  180.2770  178.9370  138.1980 C   0  0  0  0  0  0  0  0  0  0  0  0
  186.6020  177.8170  136.4960 N   0  0  0  0  0  0  0  0  0  0  0  0
  185.2640  177.2930  136.2370 C   0  0  0  0  0  2  0  0  0  0  0  0
  187.5450  178.0650  139.7150 C   0  0  0  0  0  0  0  0  0  0  0  0
  187.9990  178.3910  142.0440 N   0  0  0  0  0  2  0  0  0  0  0  0
  188.1090  176.1810  142.8320 O   0  0  0  0  0  0  0  0  0  0  0  0
  188.4690  177.3850  142.9520 C   0  0  0  0  0  0  0  0  0  0  0  0
  189.3660  177.1890  145.2180 C   0  0  0  0  0  3  0  0  0  0  0  0
  189.3840  177.7800  144.0270 C   0  0  0  0  0  3  0  0  0  0  0  0
  190.3110  177.6100  146.2930 C   0  0  2  0  0  3  0  0  0  0  0  0
  191.7390  177.2970  145.8950 C   0  0  0  0  0  2  0  0  0  0  0  0
  192.3920  176.2010  147.9800 N   0  0  0  0  0  2  0  0  0  0  0  0
  191.0890  175.6670  147.5520 C   0  0  1  0  0  3  0  0  0  0  0  0
  190.0600  176.7850  147.5350 C   0  0  0  0  0  2  0  0  0  0  0  0
  192.1120  175.9800  146.5530 C   0  0  1  0  0  3  0  0  0  0  0  0
  179.5610  180.3560  140.1450 C   0  0  0  0  0  2  0  0  0  0  0  0
  179.4860  181.7920  139.6610 C   0  0  0  0  0  1  0  0  0  0  0  0
  187.4100  177.7600  135.2700 C   0  0  0  0  0  2  0  0  0  0  0  0
  188.1540  176.4330  135.0700 C   0  0  0  0  0  2  0  0  0  0  0  0
  189.6300  176.6640  134.7930 C   0  0  0  0  0  2  0  0  0  0  0  0
  191.2890  175.7040  135.8850 C   0  0  0  0  0  1  0  0  0  0  0  0
  190.3390  176.7190  135.9940 O   0  0  0  0  0  0  0  0  0  0  0  0
  2 19  2  0  0  0  0
  3 14  1  0  0  0  0
  3 15  1  1  0  0  0
  4 20  1  0  0  0  0
  5 23  2  0  0  0  0
  6  2  1  0  0  0  0
  6 24  1  0  0  0  0
  7  5  1  0  0  0  0
  8 19  1  6  0  0  0
  8 12  1  0  0  0  0
  9 18  1  6  0  0  0
  9 14  1  0  0  0  0
  9  2  1  0  0  0  0
 10  1  1  0  0  0  0
 10 18  2  0  0  0  0
 11 10  1  0  0  0  0
 13  1  1  6  0  0  0
 13  3  1  0  0  0  0
 14  8  1  0  0  0  0
 15 12  2  0  0  0  0
 16 20  1  0  0  0  0
 16  1  2  0  0  0  0
 17 13  1  0  0  0  0
 17 35  1  0  0  0  0
 20 17  2  0  0  0  0
 21  7  1  0  0  0  0
 22 21  1  0  0  0  0
 22 11  1  0  0  0  0
 23  6  2  0  0  0  0
 24 26  1  0  0  0  0
 25 26  2  0  0  0  0
 26 28  1  0  0  0  0
 27 29  1  0  0  0  0
 28 27  2  0  0  0  0
 29 33  1  0  0  0  0
 30 29  1  0  0  0  0
 30 34  1  0  0  0  0
 32 31  1  0  0  0  0
 33 32  1  0  0  0  0
 34 32  1  0  0  0  0
 34 31  1  0  0  0  0
 36 35  1  0  0  0  0
 37 21  1  0  0  0  0
 38 37  1  0  0  0  0
 39 38  1  0  0  0  0
 39 41  1  0  0  0  0
 40 41  1  0  0  0  0
M  END
>  <MODEL>
9

>  <REMARK>
 VINA RESULT:      -6.7      2.654      7.402
  Name = 
  8 active torsions:
  status: ('A' for Active; 'I' for Inactive)
    1  A    between atoms: C_2  and  C_33
    2  A    between atoms: C_8  and  C_16
    3  A    between atoms: C_8  and  C_20
    4  A    between atoms: C_9  and  C_26
    5  A    between atoms: N_10  and  C_11
    6  A    between atoms: C_16  and  O_24
    7  A    between atoms: C_20  and  N_39
    8  A    between atoms: C_34  and  C_38
                            x       y       z     vdW  Elec       q    Type
                         _______ _______ _______ _____ _____    ______ ____

>  <TORSDO>
F 8

$$$$
