=
 OpenBabel10222421133D

 37 40  0  0  1  0  0  0  0  0999 V2000
  185.6800  179.3200  141.2950 C   0  0  2  0  0  3  0  0  0  0  0  0
  183.7610  178.7460  140.0970 C   0  0  2  0  0  3  0  0  0  0  0  0
  184.7510  178.7280  142.2510 N   0  0  0  0  0  0  0  0  0  0  0  0
  185.0700  179.3650  139.9680 N   0  0  0  0  0  2  0  0  0  0  0  0
  183.4690  178.6960  141.5760 C   0  0  0  0  0  2  0  0  0  0  0  0
  183.7800  177.3270  139.5150 C   0  0  2  0  0  3  0  0  0  0  0  0
  183.9230  177.3340  138.0250 C   0  0  0  0  0  0  0  0  0  0  0  0
  183.0630  177.0040  135.9650 N   0  0  0  0  0  0  0  0  0  0  0  0
  182.5420  176.5940  139.8710 N   0  0  0  0  0  2  0  0  0  0  0  0
  181.5270  176.8840  137.8200 N   0  0  0  0  0  2  0  0  0  0  0  0
  184.9980  177.3770  137.2630 C   0  0  0  0  0  3  0  0  0  0  0  0
  184.5100  177.2170  135.8410 C   0  0  0  0  0  2  0  0  0  0  0  0
  181.4180  177.1520  139.2030 N   0  0  0  0  0  2  0  0  0  0  0  0
  182.7880  177.1220  137.2140 C   0  0  0  0  0  0  0  0  0  0  0  0
  187.4990  178.1730  142.2750 O   0  0  0  0  0  0  0  0  0  0  0  0
  186.9510  178.5280  141.2440 C   0  0  0  0  0  0  0  0  0  0  0  0
  187.5300  178.1270  139.9250 C   0  0  0  0  0  2  0  0  0  0  0  0
  189.0410  178.3020  139.9230 C   0  0  0  0  0  2  0  0  0  0  0  0
  189.6920  177.0430  140.2400 N   0  0  0  0  0  2  0  0  0  0  0  0
  190.9200  177.3740  140.9410 C   0  0  0  0  0  2  0  0  0  0  0  0
  190.8550  176.8590  142.3650 C   0  0  2  0  0  3  0  0  0  0  0  0
  189.7880  175.9670  142.4920 O   0  0  0  0  0  1  0  0  0  0  0  0
  190.6600  178.0330  143.3100 C   0  0  0  0  0  2  0  0  0  0  0  0
  190.4710  176.6840  147.3750 C   0  0  0  0  0  3  0  0  0  0  0  0
  191.6670  176.8590  145.2780 C   0  0  0  0  0  3  0  0  0  0  0  0
  190.5990  177.5740  144.7270 C   0  0  0  0  0  0  0  0  0  0  0  0
  189.4650  177.8390  145.5020 C   0  0  0  0  0  3  0  0  0  0  0  0
  189.3940  177.3970  146.8290 C   0  0  0  0  0  0  0  0  0  0  0  0
  191.6040  176.4150  146.6010 C   0  0  0  0  0  3  0  0  0  0  0  0
  188.1970  177.6800  147.6370 C   0  0  0  0  0  0  0  0  0  0  0  0
  188.3250  178.0540  148.9700 O   0  0  0  0  0  1  0  0  0  0  0  0
  187.0470  177.5880  147.1300 O   0  0  0  0  0  0  0  0  0  0  0  0
  184.6260  179.6620  143.3600 C   0  0  0  0  0  2  0  0  0  0  0  0
  183.5510  178.7640  145.3970 C   0  0  0  0  0  1  0  0  0  0  0  0
  185.4450  177.7160  144.4550 F   0  0  0  0  0  0  0  0  0  0  0  0
  185.7110  179.7130  145.4750 F   0  0  0  0  0  0  0  0  0  0  0  0
  184.8710  178.9540  144.6820 C   0  0  0  0  0  0  0  0  0  0  0  0
  1 16  1  6  0  0  0
  1  3  1  0  0  0  0
  2  5  1  1  0  0  0
  3 33  1  0  0  0  0
  4  2  1  0  0  0  0
  4  1  1  0  0  0  0
  5  3  1  0  0  0  0
  6  7  1  6  0  0  0
  6  9  1  0  0  0  0
  6  2  1  0  0  0  0
  8 14  2  0  0  0  0
 10 13  1  0  0  0  0
 11  7  2  0  0  0  0
 12  8  1  0  0  0  0
 12 11  1  0  0  0  0
 13  9  1  0  0  0  0
 14 10  1  0  0  0  0
 14  7  1  0  0  0  0
 16 15  2  0  0  0  0
 17 16  1  0  0  0  0
 18 17  1  0  0  0  0
 18 19  1  0  0  0  0
 19 20  1  0  0  0  0
 20 21  1  0  0  0  0
 21 22  1  6  0  0  0
 21 23  1  0  0  0  0
 23 26  1  0  0  0  0
 25 29  1  0  0  0  0
 26 25  2  0  0  0  0
 26 27  1  0  0  0  0
 27 28  2  0  0  0  0
 28 24  1  0  0  0  0
 28 30  1  0  0  0  0
 29 24  2  0  0  0  0
 30 31  1  0  0  0  0
 32 30  2  0  0  0  0
 33 37  1  0  0  0  0
 35 37  1  0  0  0  0
 37 34  1  0  0  0  0
 37 36  1  0  0  0  0
M  END
>  <MODEL>
1

>  <REMARK>
 VINA RESULT:      -8.2      0.000      0.000
  Name = 
  12 active torsions:
  status: ('A' for Active; 'I' for Inactive)
    1  A    between atoms: C_1  and  C_27
    2  A    between atoms: C_2  and  N_8
    3  A    between atoms: C_2  and  C_35
    4  A    between atoms: C_3  and  C_4
    5  A    between atoms: C_5  and  C_32
    6  A    between atoms: C_7  and  N_15
    7  A    between atoms: C_7  and  C_26
    8  A    between atoms: C_11  and  C_18
    9  A    between atoms: C_11  and  C_29
   10  A    between atoms: N_15  and  C_18
   11  A    between atoms: C_24  and  C_29
   12  A    between atoms: C_26  and  C_27
                            x       y       z     vdW  Elec       q    Type
                         _______ _______ _______ _____ _____    ______ ____

>  <TORSDO>
F 12

$$$$
=
 OpenBabel10222421133D

 37 40  0  0  1  0  0  0  0  0999 V2000
  187.9880  178.6860  141.0180 C   0  0  2  0  0  3  0  0  0  0  0  0
  187.9170  178.2590  138.7250 C   0  0  2  0  0  3  0  0  0  0  0  0
  186.6290  178.2500  140.7160 N   0  0  0  0  0  0  0  0  0  0  0  0
  188.7850  178.7240  139.7950 N   0  0  0  0  0  2  0  0  0  0  0  0
  186.5130  178.3210  139.2730 C   0  0  0  0  0  2  0  0  0  0  0  0
  188.2690  176.8160  138.3390 C   0  0  2  0  0  3  0  0  0  0  0  0
  189.7380  176.6410  138.1090 C   0  0  0  0  0  0  0  0  0  0  0  0
  191.4840  176.2940  136.7230 N   0  0  0  0  0  0  0  0  0  0  0  0
  187.5430  176.4070  137.1140 N   0  0  0  0  0  2  0  0  0  0  0  0
  189.3390  176.6960  135.6960 N   0  0  0  0  0  2  0  0  0  0  0  0
  190.7150  176.3740  138.9520 C   0  0  0  0  0  3  0  0  0  0  0  0
  191.9540  176.1780  138.1080 C   0  0  0  0  0  2  0  0  0  0  0  0
  188.0220  177.1210  135.9820 N   0  0  0  0  0  2  0  0  0  0  0  0
  190.2370  176.5950  136.7910 C   0  0  0  0  0  0  0  0  0  0  0  0
  187.9600  176.8940  142.5590 O   0  0  0  0  0  0  0  0  0  0  0  0
  188.6240  177.7590  142.0090 C   0  0  0  0  0  0  0  0  0  0  0  0
  190.0880  177.8580  142.2950 C   0  0  0  0  0  2  0  0  0  0  0  0
  190.3590  178.9030  143.3670 C   0  0  0  0  0  2  0  0  0  0  0  0
  191.6630  178.6770  143.9670 N   0  0  0  0  0  2  0  0  0  0  0  0
  191.7460  177.2580  144.2620 C   0  0  0  0  0  2  0  0  0  0  0  0
  191.2980  177.0020  145.6870 C   0  0  2  0  0  3  0  0  0  0  0  0
  192.1780  176.1070  146.3000 O   0  0  0  0  0  1  0  0  0  0  0  0
  189.8960  176.4150  145.6710 C   0  0  0  0  0  2  0  0  0  0  0  0
  187.2430  178.6490  148.1900 C   0  0  0  0  0  3  0  0  0  0  0  0
  189.3460  177.4980  147.8590 C   0  0  0  0  0  3  0  0  0  0  0  0
  188.9780  177.2020  146.5430 C   0  0  0  0  0  0  0  0  0  0  0  0
  187.7390  177.6270  146.0530 C   0  0  0  0  0  3  0  0  0  0  0  0
  186.8650  178.3530  146.8720 C   0  0  0  0  0  0  0  0  0  0  0  0
  188.4790  178.2230  148.6820 C   0  0  0  0  0  3  0  0  0  0  0  0
  185.5630  178.7970  146.3490 C   0  0  0  0  0  0  0  0  0  0  0  0
  184.3850  178.2590  146.8530 O   0  0  0  0  0  1  0  0  0  0  0  0
  185.5030  179.6700  145.4410 O   0  0  0  0  0  0  0  0  0  0  0  0
  185.7280  179.2510  141.2660 C   0  0  0  0  0  2  0  0  0  0  0  0
  183.6280  177.9470  141.2170 C   0  0  0  0  0  1  0  0  0  0  0  0
  185.2270  177.6180  142.9220 F   0  0  0  0  0  0  0  0  0  0  0  0
  184.0370  179.5370  142.9140 F   0  0  0  0  0  0  0  0  0  0  0  0
  184.6570  178.5900  142.1200 C   0  0  0  0  0  0  0  0  0  0  0  0
  1 16  1  1  0  0  0
  2  5  1  1  0  0  0
  2  4  1  0  0  0  0
  3  1  1  0  0  0  0
  3 33  1  0  0  0  0
  4  1  1  0  0  0  0
  5  3  1  0  0  0  0
  6  9  1  6  0  0  0
  6  2  1  0  0  0  0
  7  6  1  0  0  0  0
  7 11  2  0  0  0  0
  8 14  2  0  0  0  0
  8 12  1  0  0  0  0
 10 13  1  0  0  0  0
 10 14  1  0  0  0  0
 12 11  1  0  0  0  0
 13  9  1  0  0  0  0
 14  7  1  0  0  0  0
 16 17  1  0  0  0  0
 16 15  2  0  0  0  0
 17 18  1  0  0  0  0
 18 19  1  0  0  0  0
 19 20  1  0  0  0  0
 20 21  1  0  0  0  0
 21 22  1  6  0  0  0
 23 21  1  0  0  0  0
 23 26  1  0  0  0  0
 24 29  1  0  0  0  0
 25 29  2  0  0  0  0
 26 25  1  0  0  0  0
 27 26  2  0  0  0  0
 27 28  1  0  0  0  0
 28 24  2  0  0  0  0
 30 31  1  0  0  0  0
 30 28  1  0  0  0  0
 32 30  2  0  0  0  0
 33 37  1  0  0  0  0
 34 37  1  0  0  0  0
 37 36  1  0  0  0  0
 37 35  1  0  0  0  0
M  END
>  <MODEL>
2

>  <REMARK>
 VINA RESULT:      -8.0      2.628      4.480
  Name = 
  12 active torsions:
  status: ('A' for Active; 'I' for Inactive)
    1  A    between atoms: C_1  and  C_27
    2  A    between atoms: C_2  and  N_8
    3  A    between atoms: C_2  and  C_35
    4  A    between atoms: C_3  and  C_4
    5  A    between atoms: C_5  and  C_32
    6  A    between atoms: C_7  and  N_15
    7  A    between atoms: C_7  and  C_26
    8  A    between atoms: C_11  and  C_18
    9  A    between atoms: C_11  and  C_29
   10  A    between atoms: N_15  and  C_18
   11  A    between atoms: C_24  and  C_29
   12  A    between atoms: C_26  and  C_27
                            x       y       z     vdW  Elec       q    Type
                         _______ _______ _______ _____ _____    ______ ____

>  <TORSDO>
F 12

$$$$
=
 OpenBabel10222421133D

 37 40  0  0  1  0  0  0  0  0999 V2000
  186.8510  177.1120  144.8040 C   0  0  2  0  0  3  0  0  0  0  0  0
  188.9350  176.8020  143.8020 C   0  0  2  0  0  3  0  0  0  0  0  0
  187.8450  177.6380  145.7340 N   0  0  0  0  0  0  0  0  0  0  0  0
  187.5120  176.5660  143.6220 N   0  0  0  0  0  2  0  0  0  0  0  0
  189.1200  177.1370  145.2610 C   0  0  0  0  0  2  0  0  0  0  0  0
  189.3980  177.9760  142.9290 C   0  0  2  0  0  3  0  0  0  0  0  0
  189.5200  177.5880  141.4880 C   0  0  0  0  0  0  0  0  0  0  0  0
  190.7830  177.1450  139.6710 N   0  0  0  0  0  0  0  0  0  0  0  0
  190.7040  178.4960  143.3950 N   0  0  0  0  0  2  0  0  0  0  0  0
  191.9470  177.4420  141.7620 N   0  0  0  0  0  2  0  0  0  0  0  0
  188.6230  177.5670  140.5230 C   0  0  0  0  0  3  0  0  0  0  0  0
  189.3760  177.2210  139.2590 C   0  0  0  0  0  2  0  0  0  0  0  0
  191.7380  177.5490  143.1550 N   0  0  0  0  0  2  0  0  0  0  0  0
  190.7940  177.3210  140.9430 C   0  0  0  0  0  0  0  0  0  0  0  0
  185.6140  179.0920  145.1750 O   0  0  0  0  0  0  0  0  0  0  0  0
  185.8940  178.1910  144.3990 C   0  0  0  0  0  0  0  0  0  0  0  0
  185.3130  178.1970  143.0220 C   0  0  0  0  0  2  0  0  0  0  0  0
  185.7140  179.4580  142.2720 C   0  0  0  0  0  2  0  0  0  0  0  0
  185.4640  179.2960  140.8490 N   0  0  0  0  0  2  0  0  0  0  0  0
  184.0840  178.8660  140.7150 C   0  0  0  0  0  2  0  0  0  0  0  0
  183.5260  179.3340  139.3870 C   0  0  2  0  0  3  0  0  0  0  0  0
  184.2540  180.4370  138.9350 O   0  0  0  0  0  1  0  0  0  0  0  0
  182.0670  179.7200  139.5670 C   0  0  0  0  0  2  0  0  0  0  0  0
  180.6310  181.8390  136.1290 C   0  0  0  0  0  3  0  0  0  0  0  0
  181.1930  179.7540  137.2220 C   0  0  0  0  0  3  0  0  0  0  0  0
  181.5570  180.4560  138.3760 C   0  0  0  0  0  0  0  0  0  0  0  0
  181.4610  181.8510  138.4020 C   0  0  0  0  0  3  0  0  0  0  0  0
  180.9970  182.5510  137.2800 C   0  0  0  0  0  0  0  0  0  0  0  0
  180.7300  180.4450  136.1000 C   0  0  0  0  0  3  0  0  0  0  0  0
  180.8990  184.0180  137.3160 C   0  0  0  0  0  0  0  0  0  0  0  0
  179.6580  184.6350  137.4310 O   0  0  0  0  0  1  0  0  0  0  0  0
  181.9370  184.7300  137.2440 O   0  0  0  0  0  0  0  0  0  0  0  0
  187.5940  177.0160  147.0250 C   0  0  0  0  0  2  0  0  0  0  0  0
  189.3020  178.3140  148.2540 C   0  0  0  0  0  1  0  0  0  0  0  0
  187.1400  179.1870  147.8850 F   0  0  0  0  0  0  0  0  0  0  0  0
  187.3810  177.4840  149.3470 F   0  0  0  0  0  0  0  0  0  0  0  0
  187.8220  178.0140  148.1490 C   0  0  0  0  0  0  0  0  0  0  0  0
  1 16  1  6  0  0  0
  1  3  1  0  0  0  0
  2  5  1  1  0  0  0
  3 33  1  0  0  0  0
  4  2  1  0  0  0  0
  4  1  1  0  0  0  0
  5  3  1  0  0  0  0
  6  7  1  6  0  0  0
  6  9  1  0  0  0  0
  6  2  1  0  0  0  0
  8 14  2  0  0  0  0
 10 13  1  0  0  0  0
 11  7  2  0  0  0  0
 12  8  1  0  0  0  0
 12 11  1  0  0  0  0
 13  9  1  0  0  0  0
 14  7  1  0  0  0  0
 14 10  1  0  0  0  0
 16 15  2  0  0  0  0
 17 16  1  0  0  0  0
 18 17  1  0  0  0  0
 19 18  1  0  0  0  0
 20 19  1  0  0  0  0
 21 22  1  1  0  0  0
 21 23  1  0  0  0  0
 21 20  1  0  0  0  0
 24 28  1  0  0  0  0
 25 26  2  0  0  0  0
 26 27  1  0  0  0  0
 26 23  1  0  0  0  0
 28 30  1  0  0  0  0
 28 27  2  0  0  0  0
 29 24  2  0  0  0  0
 29 25  1  0  0  0  0
 30 31  1  0  0  0  0
 32 30  2  0  0  0  0
 33 37  1  0  0  0  0
 35 37  1  0  0  0  0
 37 34  1  0  0  0  0
 37 36  1  0  0  0  0
M  END
>  <MODEL>
3

>  <REMARK>
 VINA RESULT:      -7.9      3.873      9.041
  Name = 
  12 active torsions:
  status: ('A' for Active; 'I' for Inactive)
    1  A    between atoms: C_1  and  C_27
    2  A    between atoms: C_2  and  N_8
    3  A    between atoms: C_2  and  C_35
    4  A    between atoms: C_3  and  C_4
    5  A    between atoms: C_5  and  C_32
    6  A    between atoms: C_7  and  N_15
    7  A    between atoms: C_7  and  C_26
    8  A    between atoms: C_11  and  C_18
    9  A    between atoms: C_11  and  C_29
   10  A    between atoms: N_15  and  C_18
   11  A    between atoms: C_24  and  C_29
   12  A    between atoms: C_26  and  C_27
                            x       y       z     vdW  Elec       q    Type
                         _______ _______ _______ _____ _____    ______ ____

>  <TORSDO>
F 12

$$$$
=
 OpenBabel10222421133D

 37 40  0  0  1  0  0  0  0  0999 V2000
  188.2520  177.6930  136.5610 C   0  0  2  0  0  3  0  0  0  0  0  0
  189.3340  175.6670  136.1440 C   0  0  2  0  0  3  0  0  0  0  0  0
  187.2460  176.6450  136.6960 N   0  0  0  0  0  0  0  0  0  0  0  0
  189.5380  177.1060  136.1920 N   0  0  0  0  0  2  0  0  0  0  0  0
  187.8400  175.4600  136.1100 C   0  0  0  0  0  2  0  0  0  0  0  0
  189.9300  175.0010  137.3910 C   0  0  2  0  0  3  0  0  0  0  0  0
  191.2830  175.5480  137.7250 C   0  0  0  0  0  0  0  0  0  0  0  0
  193.5230  175.3130  137.8510 N   0  0  0  0  0  0  0  0  0  0  0  0
  190.0420  173.5360  137.2030 N   0  0  0  0  0  2  0  0  0  0  0  0
  192.3020  173.5530  136.7430 N   0  0  0  0  0  2  0  0  0  0  0  0
  191.6350  176.5980  138.4420 C   0  0  0  0  0  3  0  0  0  0  0  0
  193.1430  176.5540  138.5350 C   0  0  0  0  0  2  0  0  0  0  0  0
  191.0280  173.2270  136.2260 N   0  0  0  0  0  2  0  0  0  0  0  0
  192.4370  174.8130  137.3830 C   0  0  0  0  0  0  0  0  0  0  0  0
  189.0960  179.4460  137.9020 O   0  0  0  0  0  0  0  0  0  0  0  0
  188.3900  178.4520  137.8450 C   0  0  0  0  0  0  0  0  0  0  0  0
  187.6230  178.0220  139.0540 C   0  0  0  0  0  2  0  0  0  0  0  0
  188.5610  177.7550  140.2220 C   0  0  0  0  0  2  0  0  0  0  0  0
  188.2710  178.6670  141.3150 N   0  0  0  0  0  2  0  0  0  0  0  0
  187.2520  178.0300  142.1300 C   0  0  0  0  0  2  0  0  0  0  0  0
  187.8990  177.3190  143.3020 C   0  0  2  0  0  3  0  0  0  0  0  0
  188.1140  175.9790  142.9750 O   0  0  0  0  0  1  0  0  0  0  0  0
  186.9820  177.4150  144.5100 C   0  0  0  0  0  2  0  0  0  0  0  0
  189.2560  177.7430  148.1290 C   0  0  0  0  0  3  0  0  0  0  0  0
  187.1690  178.0110  146.9340 C   0  0  0  0  0  3  0  0  0  0  0  0
  187.7700  177.5190  145.7710 C   0  0  0  0  0  0  0  0  0  0  0  0
  189.1170  177.1420  145.7890 C   0  0  0  0  0  3  0  0  0  0  0  0
  189.8680  177.2510  146.9670 C   0  0  0  0  0  0  0  0  0  0  0  0
  187.9110  178.1220  148.1120 C   0  0  0  0  0  3  0  0  0  0  0  0
  191.2840  176.8530  146.9780 C   0  0  0  0  0  0  0  0  0  0  0  0
  192.0650  177.0740  148.1060 O   0  0  0  0  0  1  0  0  0  0  0  0
  191.8030  176.3080  145.9660 O   0  0  0  0  0  0  0  0  0  0  0  0
  186.1220  177.0210  135.8510 C   0  0  0  0  0  2  0  0  0  0  0  0
  183.6590  176.9410  135.6530 C   0  0  0  0  0  1  0  0  0  0  0  0
  184.7850  175.7430  137.3470 F   0  0  0  0  0  0  0  0  0  0  0  0
  184.7020  177.9950  137.4910 F   0  0  0  0  0  0  0  0  0  0  0  0
  184.8180  176.9220  136.6270 C   0  0  0  0  0  0  0  0  0  0  0  0
  1  3  1  0  0  0  0
  1 16  1  1  0  0  0
  2  5  1  1  0  0  0
  2  4  1  0  0  0  0
  2  6  1  0  0  0  0
  4  1  1  0  0  0  0
  5  3  1  0  0  0  0
  6  9  1  6  0  0  0
  6  7  1  0  0  0  0
  7 11  2  0  0  0  0
  8 12  1  0  0  0  0
 10 14  1  0  0  0  0
 11 12  1  0  0  0  0
 13 10  1  0  0  0  0
 13  9  1  0  0  0  0
 14  7  1  0  0  0  0
 14  8  2  0  0  0  0
 16 15  2  0  0  0  0
 16 17  1  0  0  0  0
 17 18  1  0  0  0  0
 18 19  1  0  0  0  0
 19 20  1  0  0  0  0
 20 21  1  0  0  0  0
 21 22  1  6  0  0  0
 21 23  1  0  0  0  0
 23 26  1  0  0  0  0
 25 29  2  0  0  0  0
 26 27  2  0  0  0  0
 26 25  1  0  0  0  0
 27 28  1  0  0  0  0
 28 30  1  0  0  0  0
 28 24  2  0  0  0  0
 29 24  1  0  0  0  0
 30 31  1  0  0  0  0
 32 30  2  0  0  0  0
 33 37  1  0  0  0  0
 33  3  1  0  0  0  0
 34 37  1  0  0  0  0
 37 35  1  0  0  0  0
 37 36  1  0  0  0  0
M  END
>  <MODEL>
4

>  <REMARK>
 VINA RESULT:      -7.9      3.533      6.462
  Name = 
  12 active torsions:
  status: ('A' for Active; 'I' for Inactive)
    1  A    between atoms: C_1  and  C_27
    2  A    between atoms: C_2  and  N_8
    3  A    between atoms: C_2  and  C_35
    4  A    between atoms: C_3  and  C_4
    5  A    between atoms: C_5  and  C_32
    6  A    between atoms: C_7  and  N_15
    7  A    between atoms: C_7  and  C_26
    8  A    between atoms: C_11  and  C_18
    9  A    between atoms: C_11  and  C_29
   10  A    between atoms: N_15  and  C_18
   11  A    between atoms: C_24  and  C_29
   12  A    between atoms: C_26  and  C_27
                            x       y       z     vdW  Elec       q    Type
                         _______ _______ _______ _____ _____    ______ ____

>  <TORSDO>
F 12

$$$$
=
 OpenBabel10222421133D

 37 40  0  0  1  0  0  0  0  0999 V2000
  187.9500  177.9630  137.4950 C   0  0  2  0  0  3  0  0  0  0  0  0
  189.3440  176.3020  136.6330 C   0  0  2  0  0  3  0  0  0  0  0  0
  187.0980  176.8190  137.1880 N   0  0  0  0  0  0  0  0  0  0  0  0
  189.3330  177.6680  137.1300 N   0  0  0  0  0  2  0  0  0  0  0  0
  187.9040  175.9490  136.3550 C   0  0  0  0  0  2  0  0  0  0  0  0
  189.9250  175.3530  137.6910 C   0  0  2  0  0  3  0  0  0  0  0  0
  191.4030  175.5320  137.8520 C   0  0  0  0  0  0  0  0  0  0  0  0
  193.5150  174.7870  137.5840 N   0  0  0  0  0  0  0  0  0  0  0  0
  189.6520  173.9400  137.3370 N   0  0  0  0  0  2  0  0  0  0  0  0
  191.7660  173.5160  136.5160 N   0  0  0  0  0  2  0  0  0  0  0  0
  192.0910  176.3670  138.6050 C   0  0  0  0  0  3  0  0  0  0  0  0
  193.5420  175.9750  138.4450 C   0  0  0  0  0  2  0  0  0  0  0  0
  190.3930  173.5580  136.1850 N   0  0  0  0  0  2  0  0  0  0  0  0
  192.2870  174.6120  137.2510 C   0  0  0  0  0  0  0  0  0  0  0  0
  186.7920  178.5470  139.4710 O   0  0  0  0  0  0  0  0  0  0  0  0
  187.8690  178.2960  138.9530 C   0  0  0  0  0  0  0  0  0  0  0  0
  189.1040  178.2760  139.7950 C   0  0  0  0  0  2  0  0  0  0  0  0
  188.7850  177.8220  141.2110 C   0  0  0  0  0  2  0  0  0  0  0  0
  189.7590  176.8370  141.6520 N   0  0  0  0  0  2  0  0  0  0  0  0
  190.7790  177.5620  142.3890 C   0  0  0  0  0  2  0  0  0  0  0  0
  190.1590  178.2450  143.5910 C   0  0  2  0  0  3  0  0  0  0  0  0
  190.9700  179.3070  143.9960 O   0  0  0  0  0  1  0  0  0  0  0  0
  190.0250  177.2380  144.7220 C   0  0  0  0  0  2  0  0  0  0  0  0
  186.7810  178.2480  147.3350 C   0  0  0  0  0  3  0  0  0  0  0  0
  189.1030  177.6490  147.0120 C   0  0  0  0  0  3  0  0  0  0  0  0
  188.9000  177.6000  145.6290 C   0  0  0  0  0  0  0  0  0  0  0  0
  187.6340  177.8720  145.1010 C   0  0  0  0  0  3  0  0  0  0  0  0
  186.5670  178.1980  145.9490 C   0  0  0  0  0  0  0  0  0  0  0  0
  188.0450  177.9740  147.8640 C   0  0  0  0  0  3  0  0  0  0  0  0
  185.2380  178.4830  145.3860 C   0  0  0  0  0  0  0  0  0  0  0  0
  184.9740  178.2230  144.0460 O   0  0  0  0  0  0  0  0  0  0  0  0
  184.3260  178.9630  146.1130 O   0  0  0  0  0  1  0  0  0  0  0  0
  186.0060  177.3090  136.3600 C   0  0  0  0  0  2  0  0  0  0  0  0
  183.6460  176.7880  135.8410 C   0  0  0  0  0  1  0  0  0  0  0  0
  184.7820  175.6800  137.5880 F   0  0  0  0  0  0  0  0  0  0  0  0
  184.2430  177.8560  137.8600 F   0  0  0  0  0  0  0  0  0  0  0  0
  184.6660  176.9030  136.9530 C   0  0  0  0  0  0  0  0  0  0  0  0
  1 16  1  1  0  0  0
  2  5  1  1  0  0  0
  2  4  1  0  0  0  0
  2  6  1  0  0  0  0
  3  1  1  0  0  0  0
  4  1  1  0  0  0  0
  5  3  1  0  0  0  0
  6  9  1  6  0  0  0
  6  7  1  0  0  0  0
  7 11  2  0  0  0  0
  8 12  1  0  0  0  0
 10 14  1  0  0  0  0
 12 11  1  0  0  0  0
 13 10  1  0  0  0  0
 13  9  1  0  0  0  0
 14  8  2  0  0  0  0
 14  7  1  0  0  0  0
 16 15  2  0  0  0  0
 16 17  1  0  0  0  0
 17 18  1  0  0  0  0
 18 19  1  0  0  0  0
 19 20  1  0  0  0  0
 20 21  1  0  0  0  0
 21 22  1  1  0  0  0
 21 23  1  0  0  0  0
 23 26  1  0  0  0  0
 24 29  1  0  0  0  0
 25 29  2  0  0  0  0
 26 25  1  0  0  0  0
 27 26  2  0  0  0  0
 27 28  1  0  0  0  0
 28 24  2  0  0  0  0
 30 28  1  0  0  0  0
 30 32  1  0  0  0  0
 31 30  2  0  0  0  0
 33 37  1  0  0  0  0
 33  3  1  0  0  0  0
 34 37  1  0  0  0  0
 37 35  1  0  0  0  0
 37 36  1  0  0  0  0
M  END
>  <MODEL>
5

>  <REMARK>
 VINA RESULT:      -7.8      3.363      6.217
  Name = 
  12 active torsions:
  status: ('A' for Active; 'I' for Inactive)
    1  A    between atoms: C_1  and  C_27
    2  A    between atoms: C_2  and  N_8
    3  A    between atoms: C_2  and  C_35
    4  A    between atoms: C_3  and  C_4
    5  A    between atoms: C_5  and  C_32
    6  A    between atoms: C_7  and  N_15
    7  A    between atoms: C_7  and  C_26
    8  A    between atoms: C_11  and  C_18
    9  A    between atoms: C_11  and  C_29
   10  A    between atoms: N_15  and  C_18
   11  A    between atoms: C_24  and  C_29
   12  A    between atoms: C_26  and  C_27
                            x       y       z     vdW  Elec       q    Type
                         _______ _______ _______ _____ _____    ______ ____

>  <TORSDO>
F 12

$$$$
=
 OpenBabel10222421133D

 37 40  0  0  1  0  0  0  0  0999 V2000
  183.9790  179.3730  140.0890 C   0  0  2  0  0  3  0  0  0  0  0  0
  184.6260  178.6580  137.9640 C   0  0  2  0  0  3  0  0  0  0  0  0
  183.0580  178.3070  139.7080 N   0  0  0  0  0  0  0  0  0  0  0  0
  184.9320  179.6190  139.0110 N   0  0  0  0  0  2  0  0  0  0  0  0
  183.2540  178.1180  138.2840 C   0  0  0  0  0  2  0  0  0  0  0  0
  185.6550  177.5190  137.9660 C   0  0  2  0  0  3  0  0  0  0  0  0
  187.0530  178.0280  138.1330 C   0  0  0  0  0  0  0  0  0  0  0  0
  189.1090  178.4350  137.3010 N   0  0  0  0  0  0  0  0  0  0  0  0
  185.5780  176.7380  136.7090 N   0  0  0  0  0  2  0  0  0  0  0  0
  187.4180  177.7290  135.7330 N   0  0  0  0  0  2  0  0  0  0  0  0
  187.7450  178.3010  139.2210 C   0  0  0  0  0  3  0  0  0  0  0  0
  189.1410  178.6430  138.7530 C   0  0  0  0  0  2  0  0  0  0  0  0
  186.0280  177.5150  135.6060 N   0  0  0  0  0  2  0  0  0  0  0  0
  187.8970  178.1290  137.0080 C   0  0  0  0  0  0  0  0  0  0  0  0
  185.8560  179.3910  141.5250 O   0  0  0  0  0  0  0  0  0  0  0  0
  184.7130  179.0030  141.3420 C   0  0  0  0  0  0  0  0  0  0  0  0
  184.0300  178.1970  142.3990 C   0  0  0  0  0  2  0  0  0  0  0  0
  183.1980  179.0900  143.3070 C   0  0  0  0  0  2  0  0  0  0  0  0
  184.0250  179.6250  144.3760 N   0  0  0  0  0  2  0  0  0  0  0  0
  183.9060  178.7060  145.4940 C   0  0  0  0  0  2  0  0  0  0  0  0
  185.2660  178.4870  146.1270 C   0  0  2  0  0  3  0  0  0  0  0  0
  185.6810  179.6600  146.7610 O   0  0  0  0  0  1  0  0  0  0  0  0
  186.2630  178.1050  145.0450 C   0  0  0  0  0  2  0  0  0  0  0  0
  190.0870  177.1870  146.7500 C   0  0  0  0  0  3  0  0  0  0  0  0
  187.6990  177.4880  147.0000 C   0  0  0  0  0  3  0  0  0  0  0  0
  187.5910  177.7750  145.6360 C   0  0  0  0  0  0  0  0  0  0  0  0
  188.7340  177.7710  144.8300 C   0  0  0  0  0  3  0  0  0  0  0  0
  189.9880  177.4770  145.3810 C   0  0  0  0  0  0  0  0  0  0  0  0
  188.9460  177.1930  147.5560 C   0  0  0  0  0  3  0  0  0  0  0  0
  191.1870  177.4740  144.5270 C   0  0  0  0  0  0  0  0  0  0  0  0
  191.6110  176.2980  143.9190 O   0  0  0  0  0  0  0  0  0  0  0  0
  191.8390  178.5370  144.3390 O   0  0  0  0  0  1  0  0  0  0  0  0
  181.7100  178.8220  139.8880 C   0  0  0  0  0  2  0  0  0  0  0  0
  179.5340  177.6670  139.6730 C   0  0  0  0  0  1  0  0  0  0  0  0
  181.4460  176.5270  140.4580 F   0  0  0  0  0  0  0  0  0  0  0  0
  180.4920  178.0800  141.7910 F   0  0  0  0  0  0  0  0  0  0  0  0
  180.8080  177.7540  140.4860 C   0  0  0  0  0  0  0  0  0  0  0  0
  1 16  1  1  0  0  0
  2  6  1  0  0  0  0
  2  5  1  1  0  0  0
  2  4  1  0  0  0  0
  3 33  1  0  0  0  0
  3  1  1  0  0  0  0
  4  1  1  0  0  0  0
  5  3  1  0  0  0  0
  6  9  1  6  0  0  0
  6  7  1  0  0  0  0
  7 11  2  0  0  0  0
  8 12  1  0  0  0  0
 10 14  1  0  0  0  0
 12 11  1  0  0  0  0
 13 10  1  0  0  0  0
 13  9  1  0  0  0  0
 14  8  2  0  0  0  0
 14  7  1  0  0  0  0
 16 15  2  0  0  0  0
 16 17  1  0  0  0  0
 17 18  1  0  0  0  0
 18 19  1  0  0  0  0
 19 20  1  0  0  0  0
 20 21  1  0  0  0  0
 21 22  1  6  0  0  0
 23 26  1  0  0  0  0
 23 21  1  0  0  0  0
 24 29  1  0  0  0  0
 25 29  2  0  0  0  0
 26 25  1  0  0  0  0
 27 28  1  0  0  0  0
 27 26  2  0  0  0  0
 28 24  2  0  0  0  0
 30 28  1  0  0  0  0
 31 30  2  0  0  0  0
 32 30  1  0  0  0  0
 33 37  1  0  0  0  0
 34 37  1  0  0  0  0
 35 37  1  0  0  0  0
 37 36  1  0  0  0  0
M  END
>  <MODEL>
6

>  <REMARK>
 VINA RESULT:      -7.6      2.434      4.902
  Name = 
  12 active torsions:
  status: ('A' for Active; 'I' for Inactive)
    1  A    between atoms: C_1  and  C_27
    2  A    between atoms: C_2  and  N_8
    3  A    between atoms: C_2  and  C_35
    4  A    between atoms: C_3  and  C_4
    5  A    between atoms: C_5  and  C_32
    6  A    between atoms: C_7  and  N_15
    7  A    between atoms: C_7  and  C_26
    8  A    between atoms: C_11  and  C_18
    9  A    between atoms: C_11  and  C_29
   10  A    between atoms: N_15  and  C_18
   11  A    between atoms: C_24  and  C_29
   12  A    between atoms: C_26  and  C_27
                            x       y       z     vdW  Elec       q    Type
                         _______ _______ _______ _____ _____    ______ ____

>  <TORSDO>
F 12

$$$$
=
 OpenBabel10222421133D

 37 40  0  0  1  0  0  0  0  0999 V2000
  186.8960  177.1760  144.7440 C   0  0  2  0  0  3  0  0  0  0  0  0
  188.9750  176.8990  143.7190 C   0  0  2  0  0  3  0  0  0  0  0  0
  187.8950  177.6830  145.6790 N   0  0  0  0  0  0  0  0  0  0  0  0
  187.5510  176.6620  143.5440 N   0  0  0  0  0  2  0  0  0  0  0  0
  189.1690  177.1980  145.1850 C   0  0  0  0  0  2  0  0  0  0  0  0
  189.4270  178.0960  142.8720 C   0  0  2  0  0  3  0  0  0  0  0  0
  189.3200  177.8160  141.4060 C   0  0  0  0  0  0  0  0  0  0  0  0
  190.2820  177.4170  139.4050 N   0  0  0  0  0  0  0  0  0  0  0  0
  190.8270  178.4650  143.1860 N   0  0  0  0  0  2  0  0  0  0  0  0
  191.7360  177.4440  141.3280 N   0  0  0  0  0  2  0  0  0  0  0  0
  188.3040  177.9500  140.5760 C   0  0  0  0  0  3  0  0  0  0  0  0
  188.8470  177.6440  139.1990 C   0  0  0  0  0  2  0  0  0  0  0  0
  191.7250  177.4550  142.7410 N   0  0  0  0  0  2  0  0  0  0  0  0
  190.4790  177.4870  140.6720 C   0  0  0  0  0  0  0  0  0  0  0  0
  185.7750  178.5730  143.2020 O   0  0  0  0  0  0  0  0  0  0  0  0
  185.9330  178.2610  144.3720 C   0  0  0  0  0  0  0  0  0  0  0  0
  185.1210  178.9360  145.4310 C   0  0  0  0  0  2  0  0  0  0  0  0
  183.6440  178.6090  145.2700 C   0  0  0  0  0  2  0  0  0  0  0  0
  183.0660  179.4160  144.2090 N   0  0  0  0  0  2  0  0  0  0  0  0
  181.7350  178.8900  143.9650 C   0  0  0  0  0  2  0  0  0  0  0  0
  181.2120  179.4070  142.6400 C   0  0  2  0  0  3  0  0  0  0  0  0
  180.2950  180.4350  142.8680 O   0  0  0  0  0  1  0  0  0  0  0  0
  180.5350  178.2700  141.8930 C   0  0  0  0  0  2  0  0  0  0  0  0
  182.9610  176.9300  138.6230 C   0  0  0  0  0  3  0  0  0  0  0  0
  181.0550  176.6220  140.0820 C   0  0  0  0  0  3  0  0  0  0  0  0
  181.3720  177.8100  140.7490 C   0  0  0  0  0  0  0  0  0  0  0  0
  182.4880  178.5540  140.3530 C   0  0  0  0  0  3  0  0  0  0  0  0
  183.2890  178.1200  139.2880 C   0  0  0  0  0  0  0  0  0  0  0  0
  181.8480  176.1830  139.0180 C   0  0  0  0  0  3  0  0  0  0  0  0
  184.4610  178.9080  138.8780 C   0  0  0  0  0  0  0  0  0  0  0  0
  185.4760  178.3190  138.1310 O   0  0  0  0  0  0  0  0  0  0  0  0
  184.5570  180.1240  139.1980 O   0  0  0  0  0  1  0  0  0  0  0  0
  187.6560  177.0270  146.9560 C   0  0  0  0  0  2  0  0  0  0  0  0
  189.4000  178.2550  148.2070 C   0  0  0  0  0  1  0  0  0  0  0  0
  187.2570  179.1860  147.8740 F   0  0  0  0  0  0  0  0  0  0  0  0
  187.4670  177.4400  149.2910 F   0  0  0  0  0  0  0  0  0  0  0  0
  187.9130  177.9910  148.1040 C   0  0  0  0  0  0  0  0  0  0  0  0
  1 16  1  6  0  0  0
  1  3  1  0  0  0  0
  2  5  1  1  0  0  0
  3 33  1  0  0  0  0
  4  2  1  0  0  0  0
  4  1  1  0  0  0  0
  5  3  1  0  0  0  0
  6  7  1  6  0  0  0
  6  9  1  0  0  0  0
  6  2  1  0  0  0  0
  8 14  2  0  0  0  0
 10 13  1  0  0  0  0
 11  7  2  0  0  0  0
 12  8  1  0  0  0  0
 12 11  1  0  0  0  0
 13  9  1  0  0  0  0
 14 10  1  0  0  0  0
 14  7  1  0  0  0  0
 15 16  2  0  0  0  0
 16 17  1  0  0  0  0
 18 17  1  0  0  0  0
 19 18  1  0  0  0  0
 20 19  1  0  0  0  0
 21 22  1  1  0  0  0
 21 20  1  0  0  0  0
 23 21  1  0  0  0  0
 24 29  2  0  0  0  0
 24 28  1  0  0  0  0
 25 26  2  0  0  0  0
 26 23  1  0  0  0  0
 27 26  1  0  0  0  0
 28 27  2  0  0  0  0
 29 25  1  0  0  0  0
 30 32  1  0  0  0  0
 30 28  1  0  0  0  0
 31 30  2  0  0  0  0
 33 37  1  0  0  0  0
 35 37  1  0  0  0  0
 37 34  1  0  0  0  0
 37 36  1  0  0  0  0
M  END
>  <MODEL>
7

>  <REMARK>
 VINA RESULT:      -7.6      3.233      8.151
  Name = 
  12 active torsions:
  status: ('A' for Active; 'I' for Inactive)
    1  A    between atoms: C_1  and  C_27
    2  A    between atoms: C_2  and  N_8
    3  A    between atoms: C_2  and  C_35
    4  A    between atoms: C_3  and  C_4
    5  A    between atoms: C_5  and  C_32
    6  A    between atoms: C_7  and  N_15
    7  A    between atoms: C_7  and  C_26
    8  A    between atoms: C_11  and  C_18
    9  A    between atoms: C_11  and  C_29
   10  A    between atoms: N_15  and  C_18
   11  A    between atoms: C_24  and  C_29
   12  A    between atoms: C_26  and  C_27
                            x       y       z     vdW  Elec       q    Type
                         _______ _______ _______ _____ _____    ______ ____

>  <TORSDO>
F 12

$$$$
=
 OpenBabel10222421133D

 37 40  0  0  1  0  0  0  0  0999 V2000
  186.9930  177.1360  144.9140 C   0  0  2  0  0  3  0  0  0  0  0  0
  188.9900  176.8160  143.7490 C   0  0  2  0  0  3  0  0  0  0  0  0
  188.0640  177.6210  145.7780 N   0  0  0  0  0  0  0  0  0  0  0  0
  187.5530  176.6100  143.6720 N   0  0  0  0  0  2  0  0  0  0  0  0
  189.2900  177.1100  145.1980 C   0  0  0  0  0  2  0  0  0  0  0  0
  189.4070  178.0050  142.8730 C   0  0  2  0  0  3  0  0  0  0  0  0
  189.4700  177.6370  141.4230 C   0  0  0  0  0  0  0  0  0  0  0  0
  190.6550  177.2260  139.5480 N   0  0  0  0  0  0  0  0  0  0  0  0
  190.7300  178.5280  143.2890 N   0  0  0  0  0  2  0  0  0  0  0  0
  191.9060  177.5030  141.5900 N   0  0  0  0  0  2  0  0  0  0  0  0
  188.5310  177.6230  140.4970 C   0  0  0  0  0  3  0  0  0  0  0  0
  189.2310  177.2980  139.1980 C   0  0  0  0  0  2  0  0  0  0  0  0
  191.7570  177.5910  142.9920 N   0  0  0  0  0  2  0  0  0  0  0  0
  190.7200  177.3850  140.8200 C   0  0  0  0  0  0  0  0  0  0  0  0
  185.5460  178.9060  145.5120 O   0  0  0  0  0  0  0  0  0  0  0  0
  186.0290  178.2410  144.6090 C   0  0  0  0  0  0  0  0  0  0  0  0
  185.6880  178.5660  143.1900 C   0  0  0  0  0  2  0  0  0  0  0  0
  184.1890  178.4660  142.9570 C   0  0  0  0  0  2  0  0  0  0  0  0
  183.8880  178.6380  141.5460 N   0  0  0  0  0  2  0  0  0  0  0  0
  185.1340  179.0030  140.8970 C   0  0  0  0  0  2  0  0  0  0  0  0
  184.9280  179.0900  139.3980 C   0  0  2  0  0  3  0  0  0  0  0  0
  184.1810  180.2300  139.0940 O   0  0  0  0  0  1  0  0  0  0  0  0
  184.1900  177.8490  138.9240 C   0  0  0  0  0  2  0  0  0  0  0  0
  185.5230  176.6320  135.0360 C   0  0  0  0  0  3  0  0  0  0  0  0
  183.7210  177.1280  136.5730 C   0  0  0  0  0  3  0  0  0  0  0  0
  184.6530  177.4370  137.5690 C   0  0  0  0  0  0  0  0  0  0  0  0
  186.0220  177.3380  137.2960 C   0  0  0  0  0  3  0  0  0  0  0  0
  186.4650  176.9360  136.0300 C   0  0  0  0  0  0  0  0  0  0  0  0
  184.1560  176.7270  135.3080 C   0  0  0  0  0  3  0  0  0  0  0  0
  187.9060  176.8340  135.7510 C   0  0  0  0  0  0  0  0  0  0  0  0
  188.5140  175.5880  135.6460 O   0  0  0  0  0  1  0  0  0  0  0  0
  188.6030  177.8750  135.6040 O   0  0  0  0  0  0  0  0  0  0  0  0
  187.9000  176.9700  147.0690 C   0  0  0  0  0  2  0  0  0  0  0  0
  189.4990  178.2570  148.4470 C   0  0  0  0  0  1  0  0  0  0  0  0
  187.4040  179.1630  147.8450 F   0  0  0  0  0  0  0  0  0  0  0  0
  187.4600  177.4800  149.3500 F   0  0  0  0  0  0  0  0  0  0  0  0
  188.0320  177.9820  148.1960 C   0  0  0  0  0  0  0  0  0  0  0  0
  1 16  1  6  0  0  0
  1  3  1  0  0  0  0
  2  5  1  1  0  0  0
  3 33  1  0  0  0  0
  4  2  1  0  0  0  0
  4  1  1  0  0  0  0
  5  3  1  0  0  0  0
  6  7  1  6  0  0  0
  6  9  1  0  0  0  0
  6  2  1  0  0  0  0
  8 14  2  0  0  0  0
 10 13  1  0  0  0  0
 11  7  2  0  0  0  0
 12  8  1  0  0  0  0
 12 11  1  0  0  0  0
 13  9  1  0  0  0  0
 14  7  1  0  0  0  0
 14 10  1  0  0  0  0
 16 15  2  0  0  0  0
 17 16  1  0  0  0  0
 18 17  1  0  0  0  0
 19 18  1  0  0  0  0
 20 19  1  0  0  0  0
 21 22  1  1  0  0  0
 21 20  1  0  0  0  0
 23 21  1  0  0  0  0
 24 29  2  0  0  0  0
 24 28  1  0  0  0  0
 25 26  2  0  0  0  0
 26 23  1  0  0  0  0
 27 26  1  0  0  0  0
 28 27  2  0  0  0  0
 29 25  1  0  0  0  0
 30 28  1  0  0  0  0
 31 30  1  0  0  0  0
 32 30  2  0  0  0  0
 33 37  1  0  0  0  0
 35 37  1  0  0  0  0
 37 34  1  0  0  0  0
 37 36  1  0  0  0  0
M  END
>  <MODEL>
8

>  <REMARK>
 VINA RESULT:      -7.5      2.768      8.207
  Name = 
  12 active torsions:
  status: ('A' for Active; 'I' for Inactive)
    1  A    between atoms: C_1  and  C_27
    2  A    between atoms: C_2  and  N_8
    3  A    between atoms: C_2  and  C_35
    4  A    between atoms: C_3  and  C_4
    5  A    between atoms: C_5  and  C_32
    6  A    between atoms: C_7  and  N_15
    7  A    between atoms: C_7  and  C_26
    8  A    between atoms: C_11  and  C_18
    9  A    between atoms: C_11  and  C_29
   10  A    between atoms: N_15  and  C_18
   11  A    between atoms: C_24  and  C_29
   12  A    between atoms: C_26  and  C_27
                            x       y       z     vdW  Elec       q    Type
                         _______ _______ _______ _____ _____    ______ ____

>  <TORSDO>
F 12

$$$$
=
 OpenBabel10222421133D

 37 40  0  0  1  0  0  0  0  0999 V2000
  186.7120  177.5600  142.8440 C   0  0  2  0  0  3  0  0  0  0  0  0
  187.2340  177.1280  145.0780 C   0  0  2  0  0  3  0  0  0  0  0  0
  185.8330  178.4010  143.6500 N   0  0  0  0  0  0  0  0  0  0  0  0
  187.5600  176.7480  143.7130 N   0  0  0  0  0  2  0  0  0  0  0  0
  185.9280  177.8790  144.9990 C   0  0  0  0  0  2  0  0  0  0  0  0
  188.3290  178.0340  145.6570 C   0  0  2  0  0  3  0  0  0  0  0  0
  189.6100  177.2920  145.8780 C   0  0  0  0  0  0  0  0  0  0  0  0
  191.1410  176.3790  147.2610 N   0  0  0  0  0  0  0  0  0  0  0  0
  187.8940  178.6280  146.9440 N   0  0  0  0  0  2  0  0  0  0  0  0
  189.0960  177.1700  148.2670 N   0  0  0  0  0  2  0  0  0  0  0  0
  190.6150  177.0470  145.0600 C   0  0  0  0  0  3  0  0  0  0  0  0
  191.6810  176.3770  145.8970 C   0  0  0  0  0  2  0  0  0  0  0  0
  187.7980  177.6290  147.9520 N   0  0  0  0  0  2  0  0  0  0  0  0
  189.9570  176.8700  147.1780 C   0  0  0  0  0  0  0  0  0  0  0  0
  187.0650  179.3060  141.2910 O   0  0  0  0  0  0  0  0  0  0  0  0
  187.5640  178.4060  141.9480 C   0  0  0  0  0  0  0  0  0  0  0  0
  189.0410  178.1820  141.8900 C   0  0  0  0  0  2  0  0  0  0  0  0
  189.3950  177.1940  140.7890 C   0  0  0  0  0  2  0  0  0  0  0  0
  189.6940  177.9040  139.5570 N   0  0  0  0  0  2  0  0  0  0  0  0
  190.2660  176.9300  138.6440 C   0  0  0  0  0  2  0  0  0  0  0  0
  189.3380  176.7210  137.4650 C   0  0  2  0  0  3  0  0  0  0  0  0
  190.0910  176.4770  136.3140 O   0  0  0  0  0  1  0  0  0  0  0  0
  188.4900  177.9670  137.2710 C   0  0  0  0  0  2  0  0  0  0  0  0
  184.3110  177.0780  137.6100 C   0  0  0  0  0  3  0  0  0  0  0  0
  186.5040  176.5410  136.7390 C   0  0  0  0  0  3  0  0  0  0  0  0
  187.0390  177.6520  137.3980 C   0  0  0  0  0  0  0  0  0  0  0  0
  186.2070  178.4780  138.1600 C   0  0  0  0  0  3  0  0  0  0  0  0
  184.8390  178.1960  138.2720 C   0  0  0  0  0  0  0  0  0  0  0  0
  185.1410  176.2540  136.8460 C   0  0  0  0  0  3  0  0  0  0  0  0
  183.9690  179.0700  139.0750 C   0  0  0  0  0  0  0  0  0  0  0  0
  184.1800  180.4440  139.0940 O   0  0  0  0  0  0  0  0  0  0  0  0
  183.0250  178.5820  139.7530 O   0  0  0  0  0  1  0  0  0  0  0  0
  184.4730  178.1570  143.1940 C   0  0  0  0  0  2  0  0  0  0  0  0
  182.1650  179.0450  143.2110 C   0  0  0  0  0  1  0  0  0  0  0  0
  183.3140  178.5980  145.2240 F   0  0  0  0  0  0  0  0  0  0  0  0
  183.9800  180.3520  143.9670 F   0  0  0  0  0  0  0  0  0  0  0  0
  183.4950  179.0580  143.9330 C   0  0  0  0  0  0  0  0  0  0  0  0
  1 16  1  1  0  0  0
  1  3  1  0  0  0  0
  1  4  1  0  0  0  0
  2  5  1  6  0  0  0
  2  6  1  0  0  0  0
  3  5  1  0  0  0  0
  4  2  1  0  0  0  0
  6  7  1  1  0  0  0
  6  9  1  0  0  0  0
  7 14  1  0  0  0  0
  9 13  1  0  0  0  0
 11  7  2  0  0  0  0
 11 12  1  0  0  0  0
 12  8  1  0  0  0  0
 13 10  1  0  0  0  0
 14  8  2  0  0  0  0
 14 10  1  0  0  0  0
 15 16  2  0  0  0  0
 17 16  1  0  0  0  0
 18 17  1  0  0  0  0
 19 18  1  0  0  0  0
 20 19  1  0  0  0  0
 21 22  1  6  0  0  0
 21 20  1  0  0  0  0
 23 26  1  0  0  0  0
 23 21  1  0  0  0  0
 24 28  1  0  0  0  0
 25 29  1  0  0  0  0
 25 26  2  0  0  0  0
 26 27  1  0  0  0  0
 27 28  2  0  0  0  0
 28 30  1  0  0  0  0
 29 24  2  0  0  0  0
 30 31  2  0  0  0  0
 30 32  1  0  0  0  0
 33  3  1  0  0  0  0
 33 37  1  0  0  0  0
 34 37  1  0  0  0  0
 37 36  1  0  0  0  0
 37 35  1  0  0  0  0
M  END
>  <MODEL>
9

>  <REMARK>
 VINA RESULT:      -7.4      3.227      7.769
  Name = 
  12 active torsions:
  status: ('A' for Active; 'I' for Inactive)
    1  A    between atoms: C_1  and  C_27
    2  A    between atoms: C_2  and  N_8
    3  A    between atoms: C_2  and  C_35
    4  A    between atoms: C_3  and  C_4
    5  A    between atoms: C_5  and  C_32
    6  A    between atoms: C_7  and  N_15
    7  A    between atoms: C_7  and  C_26
    8  A    between atoms: C_11  and  C_18
    9  A    between atoms: C_11  and  C_29
   10  A    between atoms: N_15  and  C_18
   11  A    between atoms: C_24  and  C_29
   12  A    between atoms: C_26  and  C_27
                            x       y       z     vdW  Elec       q    Type
                         _______ _______ _______ _____ _____    ______ ____

>  <TORSDO>
F 12

$$$$
