=
 OpenBabel10222420073D

 27 32  0  0  1  0  0  0  0  0999 V2000
  180.6730  175.6290  138.1110 C   0  0  0  0  0  0  0  0  0  0  0  0
  183.5450  178.4980  140.5060 C   0  0  1  0  0  0  0  0  0  0  0  0
  183.8090  179.4790  139.3690 C   0  0  0  0  0  2  0  0  0  0  0  0
  183.2250  179.0100  141.7430 C   0  0  0  0  0  2  0  0  0  0  0  0
  183.4400  177.0840  137.4250 C   0  0  0  0  0  1  0  0  0  0  0  0
  181.8840  177.0790  139.4300 N   0  0  1  0  0  0  0  0  0  0  0  0
  183.1250  177.0680  140.1980 C   0  0  0  0  0  2  0  0  0  0  0  0
  182.0570  177.4300  137.9930 C   0  0  1  0  0  0  0  0  0  0  0  0
  181.7530  178.9150  137.7810 C   0  0  0  0  0  2  0  0  0  0  0  0
  181.2670  175.7520  139.4530 C   0  0  0  0  0  2  0  0  0  0  0  0
  181.1070  176.6470  137.2940 O   0  0  0  0  0  0  0  0  0  0  0  0
  182.5440  179.8660  138.6520 C   0  0  0  0  0  0  0  0  0  0  0  0
  184.6290  178.5380  141.5210 N   0  0  0  0  0  0  0  0  0  0  0  0
  182.1460  181.1320  138.7180 C   0  0  0  0  0  2  0  0  0  0  0  0
  179.8400  174.6760  137.7270 C   0  0  0  0  0  2  0  0  0  0  0  0
  186.6080  177.6430  145.6840 C   0  0  0  0  0  3  0  0  0  0  0  0
  187.8030  177.8830  143.1530 C   0  0  1  0  0  3  0  0  0  0  0  0
  186.4240  178.0450  143.2400 C   0  0  0  0  0  0  0  0  0  0  0  0
  185.9670  178.3040  141.9430 C   0  0  0  0  0  0  0  0  0  0  0  0
  187.3360  178.4510  139.8530 N   0  0  0  0  0  0  0  0  0  0  0  0
  189.2340  178.0230  141.0640 C   0  0  0  0  0  3  0  0  0  0  0  0
  185.6670  177.9420  144.5300 C   0  0  0  0  0  3  0  0  0  0  0  0
  188.6920  178.2870  139.7930 C   0  0  0  0  0  3  0  0  0  0  0  0
  187.9390  177.4980  145.5290 C   0  0  0  0  0  3  0  0  0  0  0  0
  187.1010  178.2800  141.1610 C   0  0  0  0  0  0  0  0  0  0  0  0
  188.5810  177.6210  144.1990 C   0  0  0  0  0  3  0  0  0  0  0  0
  188.1710  178.0340  141.8730 N   0  0  0  0  0  0  0  0  0  0  0  0
  1 10  1  0  0  0  0
  2  3  1  6  0  0  0
  2 13  1  0  0  0  0
  2  4  1  0  0  0  0
  6 10  1  6  0  0  0
  6  7  1  0  0  0  0
  7  2  1  0  0  0  0
  8  5  1  6  0  0  0
  8  6  1  0  0  0  0
  9  8  1  0  0  0  0
  9 12  1  0  0  0  0
 11  8  1  0  0  0  0
 11  1  1  0  0  0  0
 12 14  2  0  0  0  0
 12  3  1  0  0  0  0
 13  4  1  0  0  0  0
 13 19  1  0  0  0  0
 15  1  2  0  0  0  0
 17 18  1  0  0  0  0
 17 26  1  6  0  0  0
 18 22  1  0  0  0  0
 19 18  2  0  0  0  0
 20 25  2  0  0  0  0
 21 27  1  0  0  0  0
 22 16  2  0  0  0  0
 23 20  1  0  0  0  0
 23 21  2  0  0  0  0
 24 16  1  0  0  0  0
 25 27  1  0  0  0  0
 25 19  1  0  0  0  0
 26 24  2  0  0  0  0
 27 17  1  0  0  0  0
M  END
>  <MODEL>
1

>  <REMARK>
 VINA RESULT:      -8.1      0.000      0.000
  Name = 
  1 active torsions:
  status: ('A' for Active; 'I' for Inactive)
    1  A    between atoms: C_5  and  N_23
                            x       y       z     vdW  Elec       q    Type
                         _______ _______ _______ _____ _____    ______ ____

>  <TORSDO>
F 1

$$$$
=
 OpenBabel10222420073D

 27 32  0  0  1  0  0  0  0  0999 V2000
  190.4220  177.3840  142.9410 C   0  0  0  0  0  0  0  0  0  0  0  0
  185.9280  178.7180  143.4230 C   0  0  1  0  0  0  0  0  0  0  0  0
  185.6220  177.8810  144.6600 C   0  0  0  0  0  2  0  0  0  0  0  0
  185.5380  180.0380  143.4220 C   0  0  0  0  0  2  0  0  0  0  0  0
  187.7000  175.8320  143.5930 C   0  0  0  0  0  1  0  0  0  0  0  0
  188.3110  178.2660  143.2140 N   0  0  1  0  0  0  0  0  0  0  0  0
  187.0490  178.3080  142.4810 C   0  0  0  0  0  2  0  0  0  0  0  0
  188.4780  177.0640  144.0770 C   0  0  1  0  0  0  0  0  0  0  0  0
  188.0920  177.4020  145.5180 C   0  0  0  0  0  2  0  0  0  0  0  0
  189.4350  178.2530  142.2770 C   0  0  0  0  0  2  0  0  0  0  0  0
  189.8550  176.7410  144.0170 O   0  0  0  0  0  0  0  0  0  0  0  0
  186.7080  177.9860  145.6960 C   0  0  0  0  0  0  0  0  0  0  0  0
  184.6880  179.0560  142.6760 N   0  0  0  0  0  0  0  0  0  0  0  0
  186.4110  178.5490  146.8630 C   0  0  0  0  0  2  0  0  0  0  0  0
  191.6800  177.2270  142.5650 C   0  0  0  0  0  2  0  0  0  0  0  0
  180.0850  178.6690  143.5210 C   0  0  0  0  0  3  0  0  0  0  0  0
  181.5050  178.2470  141.1340 C   0  0  1  0  0  3  0  0  0  0  0  0
  182.2260  178.6280  142.2610 C   0  0  0  0  0  0  0  0  0  0  0  0
  183.5670  178.7040  141.8730 C   0  0  0  0  0  0  0  0  0  0  0  0
  184.5190  178.2530  139.6030 N   0  0  0  0  0  0  0  0  0  0  0  0
  182.4200  177.7780  138.8160 C   0  0  0  0  0  3  0  0  0  0  0  0
  181.5870  178.8830  143.5940 C   0  0  0  0  0  3  0  0  0  0  0  0
  183.7890  177.8790  138.5080 C   0  0  0  0  0  3  0  0  0  0  0  0
  179.4490  178.2990  142.3910 C   0  0  0  0  0  3  0  0  0  0  0  0
  183.5660  178.3640  140.5380 C   0  0  0  0  0  0  0  0  0  0  0  0
  180.1860  178.0740  141.1260 C   0  0  0  0  0  3  0  0  0  0  0  0
  182.3590  178.0980  140.1110 N   0  0  0  0  0  0  0  0  0  0  0  0
  1 11  1  0  0  0  0
  2  7  1  6  0  0  0
  2  3  1  0  0  0  0
  3 12  1  0  0  0  0
  4  2  1  0  0  0  0
  6 10  1  6  0  0  0
  6  8  1  0  0  0  0
  7  6  1  0  0  0  0
  8  5  1  6  0  0  0
  8  9  1  0  0  0  0
  9 12  1  0  0  0  0
 10  1  1  0  0  0  0
 11  8  1  0  0  0  0
 12 14  2  0  0  0  0
 13  4  1  0  0  0  0
 13  2  1  0  0  0  0
 15  1  2  0  0  0  0
 16 22  2  0  0  0  0
 17 26  1  6  0  0  0
 17 18  1  0  0  0  0
 18 22  1  0  0  0  0
 19 18  2  0  0  0  0
 19 13  1  0  0  0  0
 20 25  2  0  0  0  0
 21 27  1  0  0  0  0
 23 21  2  0  0  0  0
 23 20  1  0  0  0  0
 24 16  1  0  0  0  0
 25 19  1  0  0  0  0
 26 24  2  0  0  0  0
 27 25  1  0  0  0  0
 27 17  1  0  0  0  0
M  END
>  <MODEL>
2

>  <REMARK>
 VINA RESULT:      -7.6      2.803      7.368
  Name = 
  1 active torsions:
  status: ('A' for Active; 'I' for Inactive)
    1  A    between atoms: C_5  and  N_23
                            x       y       z     vdW  Elec       q    Type
                         _______ _______ _______ _____ _____    ______ ____

>  <TORSDO>
F 1

$$$$
=
 OpenBabel10222420073D

 27 32  0  0  1  0  0  0  0  0999 V2000
  180.5470  181.1910  138.2050 C   0  0  0  0  0  0  0  0  0  0  0  0
  184.1390  178.5080  139.6570 C   0  0  1  0  0  0  0  0  0  0  0  0
  183.4320  177.1650  139.5150 C   0  0  0  0  0  2  0  0  0  0  0  0
  185.4120  178.6270  139.1460 C   0  0  0  0  0  2  0  0  0  0  0  0
  180.7890  178.6680  140.1590 C   0  0  0  0  0  1  0  0  0  0  0  0
  182.4280  179.9630  138.7170 N   0  0  1  0  0  0  0  0  0  0  0  0
  183.3300  179.7820  139.8500 C   0  0  0  0  0  2  0  0  0  0  0  0
  181.2230  179.0880  138.7480 C   0  0  1  0  0  0  0  0  0  0  0  0
  181.4550  177.8540  137.8750 C   0  0  0  0  0  2  0  0  0  0  0  0
  181.9300  181.3390  138.6870 C   0  0  0  0  0  2  0  0  0  0  0  0
  180.1740  179.8670  138.2010 O   0  0  0  0  0  0  0  0  0  0  0  0
  182.6940  177.0510  138.2080 C   0  0  0  0  0  0  0  0  0  0  0  0
  185.2650  178.4290  140.6230 N   0  0  0  0  0  0  0  0  0  0  0  0
  183.1020  176.1380  137.3340 C   0  0  0  0  0  2  0  0  0  0  0  0
  179.7560  182.1830  137.8300 C   0  0  0  0  0  2  0  0  0  0  0  0
  183.4310  178.9340  144.9160 C   0  0  0  0  0  3  0  0  0  0  0  0
  186.0360  178.2050  144.1620 C   0  0  0  0  0  0  0  0  0  0  0  0
  185.1160  178.4660  143.1520 C   0  0  0  0  0  0  0  0  0  0  0  0
  185.7860  178.2800  141.9390 C   0  0  0  0  0  0  0  0  0  0  0  0
  188.1750  177.6090  141.6130 N   0  0  0  0  0  0  0  0  0  0  0  0
  188.4630  177.5240  143.8840 C   0  0  0  0  0  3  0  0  0  0  0  0
  183.6950  178.8630  143.4220 C   0  0  0  0  0  2  0  0  0  0  0  0
  189.0620  177.3570  142.6220 C   0  0  0  0  0  3  0  0  0  0  0  0
  184.3720  178.6670  145.8430 C   0  0  0  0  0  3  0  0  0  0  0  0
  187.0670  177.9200  142.2980 C   0  0  0  0  0  0  0  0  0  0  0  0
  185.7490  178.2810  145.4580 C   0  0  0  0  0  3  0  0  0  0  0  0
  187.2080  177.8780  143.5970 N   0  0  0  0  0  0  0  0  0  0  0  0
  1 10  1  0  0  0  0
  2  4  1  6  0  0  0
  2  7  1  0  0  0  0
  2 13  1  0  0  0  0
  3  2  1  0  0  0  0
  4 13  1  0  0  0  0
  6 10  1  1  0  0  0
  6  8  1  0  0  0  0
  6  7  1  0  0  0  0
  8  5  1  1  0  0  0
  9 12  1  0  0  0  0
  9  8  1  0  0  0  0
 11  1  1  0  0  0  0
 11  8  1  0  0  0  0
 12  3  1  0  0  0  0
 13 19  1  0  0  0  0
 14 12  2  0  0  0  0
 15  1  2  0  0  0  0
 16 24  2  0  0  0  0
 17 26  2  0  0  0  0
 18 22  1  0  0  0  0
 18 17  1  0  0  0  0
 19 25  1  0  0  0  0
 19 18  2  0  0  0  0
 20 25  2  0  0  0  0
 20 23  1  0  0  0  0
 22 16  1  0  0  0  0
 23 21  2  0  0  0  0
 25 27  1  0  0  0  0
 26 24  1  0  0  0  0
 27 21  1  0  0  0  0
 27 17  1  0  0  0  0
M  END
>  <MODEL>
3

>  <REMARK>
 VINA RESULT:      -7.5      1.733      3.346
  Name = 
  1 active torsions:
  status: ('A' for Active; 'I' for Inactive)
    1  A    between atoms: C_5  and  N_23
                            x       y       z     vdW  Elec       q    Type
                         _______ _______ _______ _____ _____    ______ ____

>  <TORSDO>
F 1

$$$$
=
 OpenBabel10222420073D

 27 32  0  0  1  0  0  0  0  0999 V2000
  180.6720  181.0420  137.6720 C   0  0  0  0  0  0  0  0  0  0  0  0
  184.0220  178.4800  139.7730 C   0  0  1  0  0  0  0  0  0  0  0  0
  183.3770  177.1170  139.5480 C   0  0  0  0  0  2  0  0  0  0  0  0
  185.3610  178.6190  139.4800 C   0  0  0  0  0  2  0  0  0  0  0  0
  180.6330  178.5680  139.7010 C   0  0  0  0  0  1  0  0  0  0  0  0
  182.4650  179.8720  138.5230 N   0  0  1  0  0  0  0  0  0  0  0  0
  183.1660  179.7370  139.7960 C   0  0  0  0  0  2  0  0  0  0  0  0
  181.2900  178.9690  138.3730 C   0  0  1  0  0  0  0  0  0  0  0  0
  181.6920  177.7220  137.5830 C   0  0  0  0  0  2  0  0  0  0  0  0
  181.9510  181.2350  138.3750 C   0  0  0  0  0  2  0  0  0  0  0  0
  180.3330  179.7100  137.6380 O   0  0  0  0  0  0  0  0  0  0  0  0
  182.8720  176.9580  138.1390 C   0  0  0  0  0  0  0  0  0  0  0  0
  184.9710  178.4480  140.9170 N   0  0  0  0  0  0  0  0  0  0  0  0
  183.4400  176.0360  137.3680 C   0  0  0  0  0  2  0  0  0  0  0  0
  179.9350  182.0060  137.1440 C   0  0  0  0  0  2  0  0  0  0  0  0
  188.7780  177.1350  143.3320 C   0  0  0  0  0  3  0  0  0  0  0  0
  186.2720  177.9880  144.2720 C   0  0  0  0  0  0  0  0  0  0  0  0
  186.4640  177.9280  142.8960 C   0  0  0  0  0  0  0  0  0  0  0  0
  185.2660  178.3400  142.3040 C   0  0  0  0  0  0  0  0  0  0  0  0
  183.1670  179.0550  143.4650 N   0  0  0  0  0  0  0  0  0  0  0  0
  184.1690  178.7030  145.4960 C   0  0  0  0  0  3  0  0  0  0  0  0
  187.7530  177.4900  142.2680 C   0  0  0  0  0  2  0  0  0  0  0  0
  183.0020  179.1070  144.8220 C   0  0  0  0  0  3  0  0  0  0  0  0
  188.5240  177.2160  144.6530 C   0  0  0  0  0  3  0  0  0  0  0  0
  184.4310  178.6220  143.3630 C   0  0  0  0  0  0  0  0  0  0  0  0
  187.2070  177.6650  145.1620 C   0  0  0  0  0  3  0  0  0  0  0  0
  185.0230  178.4140  144.5110 N   0  0  0  0  0  0  0  0  0  0  0  0
  1 10  1  0  0  0  0
  2  4  1  6  0  0  0
  2  7  1  0  0  0  0
  2 13  1  0  0  0  0
  3  2  1  0  0  0  0
  4 13  1  0  0  0  0
  6 10  1  1  0  0  0
  6  7  1  0  0  0  0
  8  6  1  0  0  0  0
  8  5  1  1  0  0  0
  9 12  1  0  0  0  0
  9  8  1  0  0  0  0
 11  1  1  0  0  0  0
 11  8  1  0  0  0  0
 12  3  1  0  0  0  0
 13 19  1  0  0  0  0
 14 12  2  0  0  0  0
 15  1  2  0  0  0  0
 16 24  2  0  0  0  0
 17 27  1  0  0  0  0
 17 26  2  0  0  0  0
 18 17  1  0  0  0  0
 19 18  2  0  0  0  0
 19 25  1  0  0  0  0
 20 23  1  0  0  0  0
 22 18  1  0  0  0  0
 22 16  1  0  0  0  0
 23 21  2  0  0  0  0
 24 26  1  0  0  0  0
 25 20  2  0  0  0  0
 25 27  1  0  0  0  0
 27 21  1  0  0  0  0
M  END
>  <MODEL>
4

>  <REMARK>
 VINA RESULT:      -7.5      1.819      3.893
  Name = 
  1 active torsions:
  status: ('A' for Active; 'I' for Inactive)
    1  A    between atoms: C_5  and  N_23
                            x       y       z     vdW  Elec       q    Type
                         _______ _______ _______ _____ _____    ______ ____

>  <TORSDO>
F 1

$$$$
=
 OpenBabel10222420073D

 27 32  0  0  1  0  0  0  0  0999 V2000
  190.1900  177.5320  142.7490 C   0  0  0  0  0  0  0  0  0  0  0  0
  185.6990  178.7510  143.4960 C   0  0  1  0  0  0  0  0  0  0  0  0
  185.4820  177.8910  144.7350 C   0  0  0  0  0  2  0  0  0  0  0  0
  185.2800  180.0620  143.5350 C   0  0  0  0  0  2  0  0  0  0  0  0
  187.5440  175.9060  143.5270 C   0  0  0  0  0  1  0  0  0  0  0  0
  188.0770  178.3600  143.1500 N   0  0  1  0  0  0  0  0  0  0  0  0
  186.7760  178.3810  142.4880 C   0  0  0  0  0  2  0  0  0  0  0  0
  188.3190  177.1500  143.9850 C   0  0  1  0  0  0  0  0  0  0  0  0
  188.0050  177.4600  145.4500 C   0  0  0  0  0  2  0  0  0  0  0  0
  189.1480  178.3860  142.1530 C   0  0  0  0  0  2  0  0  0  0  0  0
  189.6980  176.8610  143.8450 O   0  0  0  0  0  0  0  0  0  0  0  0
  186.6200  178.0090  145.7120 C   0  0  0  0  0  0  0  0  0  0  0  0
  184.4130  179.0700  142.8230 N   0  0  0  0  0  0  0  0  0  0  0  0
  186.3750  178.5490  146.9010 C   0  0  0  0  0  2  0  0  0  0  0  0
  191.4290  177.4100  142.3020 C   0  0  0  0  0  2  0  0  0  0  0  0
  183.6930  177.8580  138.3440 C   0  0  0  0  0  3  0  0  0  0  0  0
  181.8510  178.0790  140.4530 C   0  0  0  0  0  0  0  0  0  0  0  0
  183.1860  178.3600  140.7240 C   0  0  0  0  0  0  0  0  0  0  0  0
  183.2580  178.7030  142.0780 C   0  0  0  0  0  0  0  0  0  0  0  0
  181.3730  178.8000  143.7220 N   0  0  0  0  0  0  0  0  0  0  0  0
  179.9070  178.1630  142.0800 C   0  0  0  0  0  3  0  0  0  0  0  0
  184.2660  178.2790  139.6870 C   0  0  0  0  0  2  0  0  0  0  0  0
  180.0670  178.5180  143.4320 C   0  0  0  0  0  3  0  0  0  0  0  0
  182.3840  177.6000  138.1520 C   0  0  0  0  0  3  0  0  0  0  0  0
  181.9610  178.6060  142.5340 C   0  0  0  0  0  0  0  0  0  0  0  0
  181.4020  177.7120  139.2560 C   0  0  0  0  0  3  0  0  0  0  0  0
  181.1430  178.2410  141.5810 N   0  0  0  0  0  0  0  0  0  0  0  0
  1 11  1  0  0  0  0
  2  7  1  6  0  0  0
  2  4  1  0  0  0  0
  2  3  1  0  0  0  0
  3 12  1  0  0  0  0
  6 10  1  6  0  0  0
  6  8  1  0  0  0  0
  7  6  1  0  0  0  0
  8  5  1  6  0  0  0
  8  9  1  0  0  0  0
  9 12  1  0  0  0  0
 10  1  1  0  0  0  0
 11  8  1  0  0  0  0
 12 14  2  0  0  0  0
 13  2  1  0  0  0  0
 13  4  1  0  0  0  0
 15  1  2  0  0  0  0
 16 22  1  0  0  0  0
 17 18  1  0  0  0  0
 17 27  1  0  0  0  0
 18 19  2  0  0  0  0
 19 25  1  0  0  0  0
 19 13  1  0  0  0  0
 21 23  2  0  0  0  0
 22 18  1  0  0  0  0
 23 20  1  0  0  0  0
 24 16  2  0  0  0  0
 24 26  1  0  0  0  0
 25 20  2  0  0  0  0
 26 17  2  0  0  0  0
 27 21  1  0  0  0  0
 27 25  1  0  0  0  0
M  END
>  <MODEL>
5

>  <REMARK>
 VINA RESULT:      -7.3      2.751      7.738
  Name = 
  1 active torsions:
  status: ('A' for Active; 'I' for Inactive)
    1  A    between atoms: C_5  and  N_23
                            x       y       z     vdW  Elec       q    Type
                         _______ _______ _______ _____ _____    ______ ____

>  <TORSDO>
F 1

$$$$
=
 OpenBabel10222420073D

 27 32  0  0  1  0  0  0  0  0999 V2000
  190.3930  177.7370  144.1950 C   0  0  0  0  0  0  0  0  0  0  0  0
  186.1410  178.6230  142.3660 C   0  0  1  0  0  0  0  0  0  0  0  0
  185.3380  177.8050  143.3700 C   0  0  0  0  0  2  0  0  0  0  0  0
  185.7070  179.8960  142.0720 C   0  0  0  0  0  2  0  0  0  0  0  0
  187.8130  175.9410  143.5930 C   0  0  0  0  0  1  0  0  0  0  0  0
  188.3550  178.4090  143.3560 N   0  0  1  0  0  0  0  0  0  0  0  0
  187.6040  178.2950  142.1090 C   0  0  0  0  0  2  0  0  0  0  0  0
  188.1710  177.2620  144.2880 C   0  0  1  0  0  0  0  0  0  0  0  0
  187.1150  177.6110  145.3380 C   0  0  0  0  0  2  0  0  0  0  0  0
  189.7890  178.4770  143.0730 C   0  0  0  0  0  2  0  0  0  0  0  0
  189.4260  177.0800  144.9180 O   0  0  0  0  0  0  0  0  0  0  0  0
  185.7790  178.0580  144.7870 C   0  0  0  0  0  0  0  0  0  0  0  0
  185.3950  178.8060  141.0940 N   0  0  0  0  0  0  0  0  0  0  0  0
  184.9170  178.6300  145.6210 C   0  0  0  0  0  2  0  0  0  0  0  0
  191.6850  177.6950  144.4780 C   0  0  0  0  0  2  0  0  0  0  0  0
  181.0960  177.3590  139.8770 C   0  0  0  0  0  3  0  0  0  0  0  0
  183.4350  177.5100  138.3290 C   0  0  1  0  0  3  0  0  0  0  0  0
  183.5090  177.9110  139.6590 C   0  0  0  0  0  0  0  0  0  0  0  0
  184.8290  178.3130  139.8850 C   0  0  0  0  0  0  0  0  0  0  0  0
  186.7150  178.3240  138.2400 N   0  0  0  0  0  0  0  0  0  0  0  0
  185.3140  177.5010  136.6250 C   0  0  0  0  0  3  0  0  0  0  0  0
  182.3330  177.8790  140.5900 C   0  0  0  0  0  3  0  0  0  0  0  0
  186.6180  177.9250  136.9360 C   0  0  0  0  0  3  0  0  0  0  0  0
  181.0950  176.9870  138.5820 C   0  0  0  0  0  3  0  0  0  0  0  0
  185.4640  178.1280  138.6760 C   0  0  0  0  0  0  0  0  0  0  0  0
  182.3220  177.0620  137.7540 C   0  0  0  0  0  3  0  0  0  0  0  0
  184.6450  177.6590  137.7700 N   0  0  0  0  0  0  0  0  0  0  0  0
  1 15  2  0  0  0  0
  1 11  1  0  0  0  0
  2  4  1  1  0  0  0
  2  3  1  0  0  0  0
  3 12  1  0  0  0  0
  6  7  1  6  0  0  0
  6  8  1  0  0  0  0
  7  2  1  0  0  0  0
  8  5  1  6  0  0  0
  8 11  1  0  0  0  0
  8  9  1  0  0  0  0
 10  6  1  0  0  0  0
 10  1  1  0  0  0  0
 12  9  1  0  0  0  0
 12 14  2  0  0  0  0
 13  4  1  0  0  0  0
 13  2  1  0  0  0  0
 16 22  2  0  0  0  0
 17 26  1  6  0  0  0
 17 18  1  0  0  0  0
 18 19  2  0  0  0  0
 18 22  1  0  0  0  0
 19 13  1  0  0  0  0
 20 25  2  0  0  0  0
 21 23  2  0  0  0  0
 21 27  1  0  0  0  0
 23 20  1  0  0  0  0
 24 16  1  0  0  0  0
 25 19  1  0  0  0  0
 26 24  2  0  0  0  0
 27 17  1  0  0  0  0
 27 25  1  0  0  0  0
M  END
>  <MODEL>
6

>  <REMARK>
 VINA RESULT:      -7.3      2.753      7.295
  Name = 
  1 active torsions:
  status: ('A' for Active; 'I' for Inactive)
    1  A    between atoms: C_5  and  N_23
                            x       y       z     vdW  Elec       q    Type
                         _______ _______ _______ _____ _____    ______ ____

>  <TORSDO>
F 1

$$$$
=
 OpenBabel10222420073D

 27 32  0  0  1  0  0  0  0  0999 V2000
  185.7030  176.7280  135.4770 C   0  0  0  0  0  0  0  0  0  0  0  0
  188.7340  177.5340  138.9950 C   0  0  1  0  0  0  0  0  0  0  0  0
  189.6550  176.3520  138.7150 C   0  0  0  0  0  2  0  0  0  0  0  0
  189.3100  178.7660  139.2150 C   0  0  0  0  0  2  0  0  0  0  0  0
  187.1520  174.8610  137.6350 C   0  0  0  0  0  1  0  0  0  0  0  0
  187.2380  177.3370  137.0840 N   0  0  1  0  0  0  0  0  0  0  0  0
  187.2850  177.5000  138.5330 C   0  0  0  0  0  2  0  0  0  0  0  0
  187.5120  175.9500  136.6150 C   0  0  1  0  0  0  0  0  0  0  0  0
  188.9790  175.8220  136.1990 C   0  0  0  0  0  2  0  0  0  0  0  0
  185.9070  177.6800  136.5820 C   0  0  0  0  0  2  0  0  0  0  0  0
  186.6790  175.7590  135.4860 O   0  0  0  0  0  0  0  0  0  0  0  0
  189.9860  176.2270  137.2520 C   0  0  0  0  0  0  0  0  0  0  0  0
  188.8440  177.9860  140.4060 N   0  0  0  0  0  0  0  0  0  0  0  0
  191.2490  176.4010  136.8770 C   0  0  0  0  0  2  0  0  0  0  0  0
  184.7200  176.7790  134.5940 C   0  0  0  0  0  2  0  0  0  0  0  0
  191.6870  176.8060  143.9520 C   0  0  0  0  0  3  0  0  0  0  0  0
  188.9410  177.3960  143.9850 C   0  0  0  0  0  0  0  0  0  0  0  0
  189.6020  177.4470  142.7620 C   0  0  0  0  0  0  0  0  0  0  0  0
  188.6490  177.8060  141.8040 C   0  0  0  0  0  0  0  0  0  0  0  0
  186.2200  178.2750  142.1810 N   0  0  0  0  0  0  0  0  0  0  0  0
  186.4860  177.8610  144.4190 C   0  0  0  0  0  3  0  0  0  0  0  0
  191.0650  177.1540  142.6100 C   0  0  0  0  0  2  0  0  0  0  0  0
  185.5910  178.2190  143.3940 C   0  0  0  0  0  3  0  0  0  0  0  0
  190.9840  176.7760  145.1020 C   0  0  0  0  0  3  0  0  0  0  0  0
  187.4760  177.9480  142.5120 C   0  0  0  0  0  0  0  0  0  0  0  0
  189.5360  177.0850  145.1330 C   0  0  0  0  0  3  0  0  0  0  0  0
  187.6510  177.7070  143.7860 N   0  0  0  0  0  0  0  0  0  0  0  0
  1 11  1  0  0  0  0
  1 10  1  0  0  0  0
  2  7  1  6  0  0  0
  2  4  1  0  0  0  0
  2 13  1  0  0  0  0
  3  2  1  0  0  0  0
  4 13  1  0  0  0  0
  6 10  1  1  0  0  0
  6  7  1  0  0  0  0
  8  6  1  0  0  0  0
  8  5  1  1  0  0  0
  9  8  1  0  0  0  0
  9 12  1  0  0  0  0
 11  8  1  0  0  0  0
 12  3  1  0  0  0  0
 13 19  1  0  0  0  0
 14 12  2  0  0  0  0
 15  1  2  0  0  0  0
 16 24  2  0  0  0  0
 17 26  2  0  0  0  0
 18 17  1  0  0  0  0
 19 25  1  0  0  0  0
 19 18  2  0  0  0  0
 20 25  2  0  0  0  0
 20 23  1  0  0  0  0
 22 18  1  0  0  0  0
 22 16  1  0  0  0  0
 23 21  2  0  0  0  0
 24 26  1  0  0  0  0
 25 27  1  0  0  0  0
 27 17  1  0  0  0  0
 27 21  1  0  0  0  0
M  END
>  <MODEL>
7

>  <REMARK>
 VINA RESULT:      -7.2      3.526      5.367
  Name = 
  1 active torsions:
  status: ('A' for Active; 'I' for Inactive)
    1  A    between atoms: C_5  and  N_23
                            x       y       z     vdW  Elec       q    Type
                         _______ _______ _______ _____ _____    ______ ____

>  <TORSDO>
F 1

$$$$
=
 OpenBabel10222420073D

 27 32  0  0  1  0  0  0  0  0999 V2000
  190.3850  177.6770  144.0020 C   0  0  0  0  0  0  0  0  0  0  0  0
  186.1050  178.5670  142.2420 C   0  0  1  0  0  0  0  0  0  0  0  0
  185.3130  177.7930  143.2890 C   0  0  0  0  0  2  0  0  0  0  0  0
  185.6820  179.8370  141.9180 C   0  0  0  0  0  2  0  0  0  0  0  0
  187.7670  175.9000  143.5160 C   0  0  0  0  0  1  0  0  0  0  0  0
  188.3380  178.3520  143.1880 N   0  0  1  0  0  0  0  0  0  0  0  0
  187.5570  178.2110  141.9630 C   0  0  0  0  0  2  0  0  0  0  0  0
  188.1590  177.2380  144.1600 C   0  0  1  0  0  0  0  0  0  0  0  0
  187.1320  177.6350  145.2220 C   0  0  0  0  0  2  0  0  0  0  0  0
  189.7660  178.3900  142.8720 C   0  0  0  0  0  2  0  0  0  0  0  0
  189.4250  177.0560  144.7670 O   0  0  0  0  0  0  0  0  0  0  0  0
  185.7900  178.0840  144.6870 C   0  0  0  0  0  0  0  0  0  0  0  0
  185.3320  178.7220  140.9820 N   0  0  0  0  0  0  0  0  0  0  0  0
  184.9550  178.6940  145.5210 C   0  0  0  0  0  2  0  0  0  0  0  0
  191.6820  177.6250  144.2580 C   0  0  0  0  0  2  0  0  0  0  0  0
  186.9190  177.8410  136.6510 C   0  0  0  0  0  3  0  0  0  0  0  0
  184.3510  177.4640  137.7230 C   0  0  1  0  0  3  0  0  0  0  0  0
  185.3330  177.9860  138.5570 C   0  0  0  0  0  0  0  0  0  0  0  0
  184.7320  178.2000  139.8020 C   0  0  0  0  0  0  0  0  0  0  0  0
  182.3560  177.7400  140.4380 N   0  0  0  0  0  0  0  0  0  0  0  0
  181.9330  176.9810  138.3180 C   0  0  0  0  0  3  0  0  0  0  0  0
  186.7420  178.2350  138.1070 C   0  0  0  0  0  3  0  0  0  0  0  0
  181.4060  177.2250  139.6000 C   0  0  0  0  0  3  0  0  0  0  0  0
  185.9200  177.3390  135.8980 C   0  0  0  0  0  3  0  0  0  0  0  0
  183.4260  177.7920  139.6360 C   0  0  0  0  0  0  0  0  0  0  0  0
  184.5620  177.1350  136.4520 C   0  0  0  0  0  3  0  0  0  0  0  0
  183.2090  177.3630  138.4190 N   0  0  0  0  0  0  0  0  0  0  0  0
  1 15  2  0  0  0  0
  1 11  1  0  0  0  0
  2  4  1  1  0  0  0
  2  3  1  0  0  0  0
  3 12  1  0  0  0  0
  6  7  1  6  0  0  0
  6  8  1  0  0  0  0
  7  2  1  0  0  0  0
  8  5  1  6  0  0  0
  8 11  1  0  0  0  0
  8  9  1  0  0  0  0
 10  6  1  0  0  0  0
 10  1  1  0  0  0  0
 12  9  1  0  0  0  0
 12 14  2  0  0  0  0
 13  4  1  0  0  0  0
 13  2  1  0  0  0  0
 16 22  2  0  0  0  0
 17 26  1  1  0  0  0
 17 27  1  0  0  0  0
 17 18  1  0  0  0  0
 18 19  2  0  0  0  0
 19 13  1  0  0  0  0
 21 27  1  0  0  0  0
 21 23  2  0  0  0  0
 22 18  1  0  0  0  0
 23 20  1  0  0  0  0
 24 26  2  0  0  0  0
 24 16  1  0  0  0  0
 25 19  1  0  0  0  0
 25 20  2  0  0  0  0
 27 25  1  0  0  0  0
M  END
>  <MODEL>
8

>  <REMARK>
 VINA RESULT:      -7.1      2.743      7.581
  Name = 
  1 active torsions:
  status: ('A' for Active; 'I' for Inactive)
    1  A    between atoms: C_5  and  N_23
                            x       y       z     vdW  Elec       q    Type
                         _______ _______ _______ _____ _____    ______ ____

>  <TORSDO>
F 1

$$$$
=
 OpenBabel10222420073D

 27 32  0  0  1  0  0  0  0  0999 V2000
  181.1840  175.4180  137.8390 C   0  0  0  0  0  0  0  0  0  0  0  0
  183.1180  178.4510  140.8830 C   0  0  1  0  0  0  0  0  0  0  0  0
  183.6740  179.4200  139.8450 C   0  0  0  0  0  2  0  0  0  0  0  0
  182.4290  178.9740  141.9540 C   0  0  0  0  0  2  0  0  0  0  0  0
  183.9790  176.9730  137.9550 C   0  0  0  0  0  1  0  0  0  0  0  0
  181.8990  176.9430  139.4110 N   0  0  1  0  0  0  0  0  0  0  0  0
  182.8570  176.9990  140.5110 C   0  0  0  0  0  2  0  0  0  0  0  0
  182.4780  177.2720  138.0780 C   0  0  1  0  0  0  0  0  0  0  0  0
  182.2010  178.7380  137.7400 C   0  0  0  0  0  2  0  0  0  0  0  0
  181.3490  175.5920  139.2920 C   0  0  0  0  0  2  0  0  0  0  0  0
  181.8050  176.4360  137.1550 O   0  0  0  0  0  0  0  0  0  0  0  0
  182.6660  179.7390  138.7740 C   0  0  0  0  0  0  0  0  0  0  0  0
  183.8510  178.5570  142.1720 N   0  0  0  0  0  0  0  0  0  0  0  0
  182.2230  180.9880  138.6800 C   0  0  0  0  0  2  0  0  0  0  0  0
  180.5350  174.4230  137.2560 C   0  0  0  0  0  2  0  0  0  0  0  0
  188.3990  177.8960  141.2100 C   0  0  0  0  0  3  0  0  0  0  0  0
  187.1080  178.0820  143.6980 C   0  0  0  0  0  0  0  0  0  0  0  0
  186.3290  178.1960  142.5510 C   0  0  0  0  0  0  0  0  0  0  0  0
  185.0110  178.3870  142.9770 C   0  0  0  0  0  0  0  0  0  0  0  0
  184.1810  178.5080  145.3350 N   0  0  0  0  0  0  0  0  0  0  0  0
  186.3170  178.1960  146.1040 C   0  0  0  0  0  3  0  0  0  0  0  0
  186.8960  178.1140  141.1650 C   0  0  0  0  0  2  0  0  0  0  0  0
  184.9670  178.3940  146.4480 C   0  0  0  0  0  3  0  0  0  0  0  0
  189.0940  177.7940  142.3610 C   0  0  0  0  0  3  0  0  0  0  0  0
  185.0830  178.3760  144.3530 C   0  0  0  0  0  0  0  0  0  0  0  0
  188.4250  177.8910  143.6790 C   0  0  0  0  0  3  0  0  0  0  0  0
  186.3100  178.1970  144.7690 N   0  0  0  0  0  0  0  0  0  0  0  0
  1 10  1  0  0  0  0
  2  3  1  6  0  0  0
  2  4  1  0  0  0  0
  2 13  1  0  0  0  0
  4 13  1  0  0  0  0
  6 10  1  6  0  0  0
  6  7  1  0  0  0  0
  7  2  1  0  0  0  0
  8  5  1  6  0  0  0
  8  6  1  0  0  0  0
  9  8  1  0  0  0  0
  9 12  1  0  0  0  0
 11  1  1  0  0  0  0
 11  8  1  0  0  0  0
 12  3  1  0  0  0  0
 13 19  1  0  0  0  0
 14 12  2  0  0  0  0
 15  1  2  0  0  0  0
 16 24  2  0  0  0  0
 17 27  1  0  0  0  0
 18 19  2  0  0  0  0
 18 17  1  0  0  0  0
 19 25  1  0  0  0  0
 20 23  1  0  0  0  0
 21 23  2  0  0  0  0
 22 16  1  0  0  0  0
 22 18  1  0  0  0  0
 24 26  1  0  0  0  0
 25 27  1  0  0  0  0
 25 20  2  0  0  0  0
 26 17  2  0  0  0  0
 27 21  1  0  0  0  0
M  END
>  <MODEL>
9

>  <REMARK>
 VINA RESULT:      -7.1      1.283      2.821
  Name = 
  1 active torsions:
  status: ('A' for Active; 'I' for Inactive)
    1  A    between atoms: C_5  and  N_23
                            x       y       z     vdW  Elec       q    Type
                         _______ _______ _______ _____ _____    ______ ____

>  <TORSDO>
F 1

$$$$
