=
 OpenBabel10222417483D

 52 57  0  0  1  0  0  0  0  0999 V2000
  188.6990  177.3340  142.1210 C   0  0  0  0  0  3  0  0  0  0  0  0
  187.9400  178.0550  141.2850 C   0  0  0  0  0  0  0  0  0  0  0  0
  185.9840  179.3590  140.9670 O   0  0  0  0  0  0  0  0  0  0  0  0
  186.1530  178.3550  143.1410 C   0  0  1  0  0  3  0  0  0  0  0  0
  186.8100  177.1040  143.7330 C   0  0  0  0  0  2  0  0  0  0  0  0
  188.3310  177.1420  143.5640 C   0  0  2  0  0  3  0  0  0  0  0  0
  186.6440  178.6110  141.7360 C   0  0  0  0  0  0  0  0  0  0  0  0
  188.9020  178.2210  144.3610 N   0  0  0  0  0  2  0  0  0  0  0  0
  189.8640  177.6610  145.2250 N   0  0  0  0  0  0  0  0  0  0  0  0
  188.1080  177.3350  146.9460 N   0  0  0  0  0  1  0  0  0  0  0  0
  190.3140  176.7380  147.3340 O   0  0  0  0  0  0  0  0  0  0  0  0
  189.4670  177.2190  146.5340 C   0  0  0  0  0  0  0  0  0  0  0  0
  191.2660  177.5350  144.8130 C   0  0  0  0  0  3  0  0  0  0  0  0
  191.5040  176.1900  144.1480 C   0  0  0  0  0  1  0  0  0  0  0  0
  191.6890  178.6580  143.8790 C   0  0  0  0  0  1  0  0  0  0  0  0
  184.6380  178.1960  143.1760 C   0  0  0  0  0  2  0  0  0  0  0  0
  184.0420  178.8500  144.4170 C   0  0  0  0  0  2  0  0  0  0  0  0
  182.7350  179.5680  144.1070 C   0  0  0  0  0  2  0  0  0  0  0  0
  181.6220  178.5830  143.7860 C   0  0  0  0  0  2  0  0  0  0  0  0
  179.5470  178.3140  142.5480 N   0  0  0  0  0  2  0  0  0  0  0  0
  180.7840  179.1000  142.6320 C   0  0  2  0  0  3  0  0  0  0  0  0
  180.6560  178.0590  141.6160 C   0  0  2  0  0  3  0  0  0  0  0  0
  180.4000  178.6610  140.2140 C   0  0  1  0  0  3  0  0  0  0  0  0
  179.1040  180.7810  138.5220 C   0  0  0  0  0  2  0  0  0  0  0  0
  180.8910  180.0620  140.0860 N   0  0  0  0  0  0  0  0  0  0  0  0
  180.0460  181.1520  137.5450 O   0  0  0  0  0  0  0  0  0  0  0  0
  181.1040  180.2250  137.6110 C   0  0  0  0  0  2  0  0  0  0  0  0
  181.8060  180.3630  138.9640 C   0  0  2  0  0  3  0  0  0  0  0  0
  179.7100  180.9250  139.9320 C   0  0  0  0  0  2  0  0  0  0  0  0
  182.9910  179.6240  139.0300 O   0  0  0  0  0  1  0  0  0  0  0  0
  180.0600  176.4550  139.0240 C   0  0  1  0  0  0  0  0  0  0  0  0
  180.8960  177.6780  139.1410 C   0  0  1  0  0  3  0  0  0  0  0  0
  179.9130  177.5310  138.1360 O   0  0  0  0  0  0  0  0  0  0  0  0
  180.6140  175.2280  138.3350 C   0  0  0  0  0  1  0  0  0  0  0  0
  178.9310  176.3120  139.8330 O   0  0  0  0  0  1  0  0  0  0  0  0
  188.4110  178.2490  139.8830 C   0  0  0  0  0  2  0  0  0  0  0  0
  189.3390  177.1190  139.4680 C   0  0  0  0  0  2  0  0  0  0  0  0
  190.1980  177.5500  138.2880 C   0  0  2  0  0  3  0  0  0  0  0  0
  189.3900  178.4050  137.3270 C   0  0  0  0  0  1  0  0  0  0  0  0
  189.9710  175.8470  136.2290 O   0  0  0  0  0  0  0  0  0  0  0  0
  190.8010  174.9290  138.3420 O   0  0  0  0  0  0  0  0  0  0  0  0
  190.8330  176.1220  137.4300 S   0  0  0  0  0  0  0  0  0  0  0  0
  193.1410  175.1250  136.4310 C   0  0  0  0  0  2  0  0  0  0  0  0
  194.2600  174.8900  137.4090 C   0  0  1  0  0  3  0  0  0  0  0  0
  193.3120  176.8890  138.0270 N   0  0  0  0  0  2  0  0  0  0  0  0
  192.5160  176.4090  136.9010 C   0  0  2  0  0  3  0  0  0  0  0  0
  194.0170  175.7830  138.5350 N   0  0  0  0  0  2  0  0  0  0  0  0
  195.4410  173.1670  138.6840 N   0  0  0  0  0  2  0  0  0  0  0  0
  194.2720  173.4330  137.8690 C   0  0  2  0  0  3  0  0  0  0  0  0
  195.9070  171.9030  138.2880 N   0  0  0  0  0  2  0  0  0  0  0  0
  194.4020  172.5150  136.6890 C   0  0  0  0  0  2  0  0  0  0  0  0
  195.6190  171.7620  136.9160 N   0  0  0  0  0  2  0  0  0  0  0  0
  1  6  1  0  0  0  0
  2  7  1  0  0  0  0
  2  1  2  0  0  0  0
  3  7  2  0  0  0  0
  4 16  1  6  0  0  0
  4  5  1  0  0  0  0
  6  5  1  0  0  0  0
  6  8  1  1  0  0  0
  7  4  1  0  0  0  0
  8  9  1  0  0  0  0
  9 12  1  0  0  0  0
 12 10  1  0  0  0  0
 12 11  2  0  0  0  0
 13  9  1  0  0  0  0
 14 13  1  0  0  0  0
 15 13  1  0  0  0  0
 16 17  1  0  0  0  0
 18 17  1  0  0  0  0
 19 18  1  0  0  0  0
 20 21  1  0  0  0  0
 21 19  1  1  0  0  0
 22 23  1  6  0  0  0
 22 20  1  0  0  0  0
 22 21  1  0  0  0  0
 23 25  1  1  0  0  0
 24 29  1  0  0  0  0
 26 27  1  0  0  0  0
 26 24  1  0  0  0  0
 27 28  1  0  0  0  0
 28 30  1  6  0  0  0
 28 25  1  0  0  0  0
 29 25  1  0  0  0  0
 31 34  1  6  0  0  0
 31 32  1  0  0  0  0
 31 35  1  0  0  0  0
 32 23  1  1  0  0  0
 33 31  1  0  0  0  0
 33 32  1  0  0  0  0
 36  2  1  0  0  0  0
 37 36  1  0  0  0  0
 38 39  1  6  0  0  0
 38 37  1  0  0  0  0
 40 42  2  0  0  0  0
 42 38  1  0  0  0  0
 42 41  2  0  0  0  0
 43 46  1  0  0  0  0
 44 43  1  6  0  0  0
 44 49  1  0  0  0  0
 44 47  1  0  0  0  0
 45 47  1  0  0  0  0
 46 42  1  1  0  0  0
 46 45  1  0  0  0  0
 49 51  1  6  0  0  0
 49 48  1  0  0  0  0
 50 48  1  0  0  0  0
 51 52  1  0  0  0  0
 52 50  1  0  0  0  0
M  END
>  <MODEL>
1

>  <REMARK>
 VINA RESULT:      -8.4      0.000      0.000
  Name = 
  17 active torsions:
  status: ('A' for Active; 'I' for Inactive)
    1  A    between atoms: N_2  and  C_45
    2  A    between atoms: C_3  and  C_10
    3  A    between atoms: C_3  and  C_51
    4  A    between atoms: C_7  and  N_18
    5  A    between atoms: C_9  and  C_12
    6  A    between atoms: C_9  and  C_39
    7  A    between atoms: C_11  and  C_32
    8  A    between atoms: C_12  and  C_17
    9  A    between atoms: N_18  and  N_48
   10  A    between atoms: C_25  and  C_45
   11  A    between atoms: C_26  and  S_30
   12  A    between atoms: C_26  and  C_51
   13  A    between atoms: S_30  and  C_36
   14  A    between atoms: C_35  and  C_52
   15  A    between atoms: C_39  and  C_52
   16  A    between atoms: C_40  and  C_45
   17  A    between atoms: C_42  and  N_48
                            x       y       z     vdW  Elec       q    Type
                         _______ _______ _______ _____ _____    ______ ____

>  <TORSDO>
F 17

$$$$
=
 OpenBabel10222417483D

 52 57  0  0  1  0  0  0  0  0999 V2000
  190.6750  176.4170  138.2900 C   0  0  0  0  0  3  0  0  0  0  0  0
  190.0280  177.0440  139.2830 C   0  0  0  0  0  0  0  0  0  0  0  0
  187.9840  177.9200  140.1090 O   0  0  0  0  0  0  0  0  0  0  0  0
  187.8630  177.0990  137.8550 C   0  0  1  0  0  3  0  0  0  0  0  0
  188.8380  176.9330  136.6860 C   0  0  0  0  0  2  0  0  0  0  0  0
  189.9740  175.9710  137.0410 C   0  0  2  0  0  3  0  0  0  0  0  0
  188.6010  177.4100  139.1360 C   0  0  0  0  0  0  0  0  0  0  0  0
  189.4530  174.6220  137.2290 N   0  0  0  0  0  2  0  0  0  0  0  0
  189.6920  173.8940  136.0460 N   0  0  0  0  0  0  0  0  0  0  0  0
  192.1260  173.9430  136.5210 N   0  0  0  0  0  1  0  0  0  0  0  0
  191.2810  172.9280  134.6170 O   0  0  0  0  0  0  0  0  0  0  0  0
  191.0410  173.5560  135.6820 C   0  0  0  0  0  0  0  0  0  0  0  0
  188.5840  173.4880  135.1740 C   0  0  0  0  0  3  0  0  0  0  0  0
  187.6330  172.5680  135.9190 C   0  0  0  0  0  1  0  0  0  0  0  0
  187.8240  174.6840  134.6230 C   0  0  0  0  0  1  0  0  0  0  0  0
  186.8530  178.1900  137.5220 C   0  0  0  0  0  2  0  0  0  0  0  0
  185.4810  177.5990  137.2180 C   0  0  0  0  0  2  0  0  0  0  0  0
  184.5640  177.6390  138.4330 C   0  0  0  0  0  2  0  0  0  0  0  0
  184.6710  178.9670  139.1680 C   0  0  0  0  0  2  0  0  0  0  0  0
  183.1590  177.7480  140.6300 N   0  0  0  0  0  2  0  0  0  0  0  0
  183.5560  179.0900  140.1870 C   0  0  2  0  0  3  0  0  0  0  0  0
  182.3380  178.4830  139.6560 C   0  0  2  0  0  3  0  0  0  0  0  0
  181.0700  179.0970  140.2970 C   0  0  1  0  0  3  0  0  0  0  0  0
  181.5760  179.4750  137.3580 C   0  0  0  0  0  2  0  0  0  0  0  0
  180.0260  179.4470  139.2950 N   0  0  0  0  0  0  0  0  0  0  0  0
  181.2520  180.8110  137.0590 O   0  0  0  0  0  0  0  0  0  0  0  0
  181.0540  181.4770  138.2840 C   0  0  0  0  0  2  0  0  0  0  0  0
  179.8310  180.8810  138.9860 C   0  0  2  0  0  3  0  0  0  0  0  0
  180.3830  178.7730  138.0380 C   0  0  0  0  0  2  0  0  0  0  0  0
  179.4460  181.6200  140.1080 O   0  0  0  0  0  1  0  0  0  0  0  0
  180.3290  178.9590  142.7110 C   0  0  1  0  0  0  0  0  0  0  0  0
  180.6090  178.2060  141.4620 C   0  0  1  0  0  3  0  0  0  0  0  0
  179.2960  178.5650  141.8470 O   0  0  0  0  0  0  0  0  0  0  0  0
  180.2670  178.2270  144.0340 C   0  0  0  0  0  1  0  0  0  0  0  0
  180.4700  180.3490  142.7250 O   0  0  0  0  0  1  0  0  0  0  0  0
  190.7870  177.3970  140.5170 C   0  0  0  0  0  2  0  0  0  0  0  0
  190.3890  176.4890  141.6690 C   0  0  0  0  0  2  0  0  0  0  0  0
  190.9480  177.0260  142.9790 C   0  0  2  0  0  3  0  0  0  0  0  0
  191.4320  175.8840  143.8570 C   0  0  0  0  0  1  0  0  0  0  0  0
  188.8310  178.6670  142.8450 O   0  0  0  0  0  0  0  0  0  0  0  0
  190.3610  178.9800  144.7320 O   0  0  0  0  0  0  0  0  0  0  0  0
  189.7030  177.9610  143.8470 S   0  0  0  0  0  0  0  0  0  0  0  0
  187.2390  177.0750  144.5330 C   0  0  0  0  0  2  0  0  0  0  0  0
  186.6590  177.6050  145.8170 C   0  0  1  0  0  3  0  0  0  0  0  0
  188.8770  177.2040  146.2630 N   0  0  0  0  0  2  0  0  0  0  0  0
  188.6960  176.8770  144.8510 C   0  0  2  0  0  3  0  0  0  0  0  0
  187.7900  178.0110  146.6420 N   0  0  0  0  0  2  0  0  0  0  0  0
  184.4870  178.6440  146.2510 N   0  0  0  0  0  2  0  0  0  0  0  0
  185.7400  178.7940  145.5380 C   0  0  2  0  0  3  0  0  0  0  0  0
  183.4850  179.0610  145.3600 N   0  0  0  0  0  2  0  0  0  0  0  0
  185.3610  178.8290  144.0860 C   0  0  0  0  0  2  0  0  0  0  0  0
  183.9160  178.7290  144.0610 N   0  0  0  0  0  2  0  0  0  0  0  0
  1  2  2  0  0  0  0
  2 36  1  0  0  0  0
  4 16  1  6  0  0  0
  4  7  1  0  0  0  0
  5  6  1  0  0  0  0
  5  4  1  0  0  0  0
  6  8  1  1  0  0  0
  6  1  1  0  0  0  0
  7  2  1  0  0  0  0
  7  3  2  0  0  0  0
  9  8  1  0  0  0  0
 11 12  2  0  0  0  0
 12  9  1  0  0  0  0
 12 10  1  0  0  0  0
 13 14  1  0  0  0  0
 13  9  1  0  0  0  0
 15 13  1  0  0  0  0
 17 16  1  0  0  0  0
 17 18  1  0  0  0  0
 18 19  1  0  0  0  0
 21 19  1  6  0  0  0
 21 20  1  0  0  0  0
 22 21  1  0  0  0  0
 22 23  1  1  0  0  0
 22 20  1  0  0  0  0
 23 25  1  6  0  0  0
 24 29  1  0  0  0  0
 26 24  1  0  0  0  0
 26 27  1  0  0  0  0
 27 28  1  0  0  0  0
 28 25  1  0  0  0  0
 28 30  1  1  0  0  0
 29 25  1  0  0  0  0
 31 35  1  0  0  0  0
 31 34  1  1  0  0  0
 32 23  1  6  0  0  0
 32 33  1  0  0  0  0
 32 31  1  0  0  0  0
 33 31  1  0  0  0  0
 36 37  1  0  0  0  0
 37 38  1  0  0  0  0
 38 42  1  0  0  0  0
 38 39  1  1  0  0  0
 40 42  2  0  0  0  0
 42 41  2  0  0  0  0
 43 46  1  0  0  0  0
 44 43  1  6  0  0  0
 44 47  1  0  0  0  0
 45 47  1  0  0  0  0
 46 42  1  6  0  0  0
 46 45  1  0  0  0  0
 49 51  1  6  0  0  0
 49 44  1  0  0  0  0
 49 48  1  0  0  0  0
 50 48  1  0  0  0  0
 52 51  1  0  0  0  0
 52 50  1  0  0  0  0
M  END
>  <MODEL>
2

>  <REMARK>
 VINA RESULT:      -7.8      2.958      7.931
  Name = 
  17 active torsions:
  status: ('A' for Active; 'I' for Inactive)
    1  A    between atoms: N_2  and  C_45
    2  A    between atoms: C_3  and  C_10
    3  A    between atoms: C_3  and  C_51
    4  A    between atoms: C_7  and  N_18
    5  A    between atoms: C_9  and  C_12
    6  A    between atoms: C_9  and  C_39
    7  A    between atoms: C_11  and  C_32
    8  A    between atoms: C_12  and  C_17
    9  A    between atoms: N_18  and  N_48
   10  A    between atoms: C_25  and  C_45
   11  A    between atoms: C_26  and  S_30
   12  A    between atoms: C_26  and  C_51
   13  A    between atoms: S_30  and  C_36
   14  A    between atoms: C_35  and  C_52
   15  A    between atoms: C_39  and  C_52
   16  A    between atoms: C_40  and  C_45
   17  A    between atoms: C_42  and  N_48
                            x       y       z     vdW  Elec       q    Type
                         _______ _______ _______ _____ _____    ______ ____

>  <TORSDO>
F 17

$$$$
=
 OpenBabel10222417483D

 52 57  0  0  1  0  0  0  0  0999 V2000
  190.9250  176.6400  139.6000 C   0  0  0  0  0  3  0  0  0  0  0  0
  189.8170  177.2120  140.0910 C   0  0  0  0  0  0  0  0  0  0  0  0
  187.6340  178.0440  139.6750 O   0  0  0  0  0  0  0  0  0  0  0  0
  188.8130  177.3480  137.7030 C   0  0  1  0  0  3  0  0  0  0  0  0
  190.2780  177.2440  137.2700 C   0  0  0  0  0  2  0  0  0  0  0  0
  191.0520  176.2630  138.1530 C   0  0  2  0  0  3  0  0  0  0  0  0
  188.7030  177.5880  139.1900 C   0  0  0  0  0  0  0  0  0  0  0  0
  190.5550  174.9060  137.9570 N   0  0  0  0  0  2  0  0  0  0  0  0
  191.0660  174.4280  136.7340 N   0  0  0  0  0  0  0  0  0  0  0  0
  193.3390  174.3640  137.7240 N   0  0  0  0  0  1  0  0  0  0  0  0
  192.9570  173.7550  135.5210 O   0  0  0  0  0  0  0  0  0  0  0  0
  192.4730  174.1590  136.6120 C   0  0  0  0  0  0  0  0  0  0  0  0
  190.1850  174.2110  135.5810 C   0  0  0  0  0  3  0  0  0  0  0  0
  188.7570  173.9790  136.0420 C   0  0  0  0  0  1  0  0  0  0  0  0
  190.2320  175.3740  134.6020 C   0  0  0  0  0  1  0  0  0  0  0  0
  188.1280  178.4560  136.9130 C   0  0  0  0  0  2  0  0  0  0  0  0
  187.0860  177.8890  135.9560 C   0  0  0  0  0  2  0  0  0  0  0  0
  185.7220  177.7490  136.6200 C   0  0  0  0  0  2  0  0  0  0  0  0
  185.4460  176.3100  137.0270 C   0  0  0  0  0  2  0  0  0  0  0  0
  183.1060  176.6080  136.4360 N   0  0  0  0  0  2  0  0  0  0  0  0
  184.0130  176.1690  137.5040 C   0  0  2  0  0  3  0  0  0  0  0  0
  183.3900  177.4880  137.5790 C   0  0  2  0  0  3  0  0  0  0  0  0
  182.2340  177.5130  138.6070 C   0  0  1  0  0  3  0  0  0  0  0  0
  184.5320  179.2530  139.4610 C   0  0  0  0  0  2  0  0  0  0  0  0
  182.0930  178.8290  139.2900 N   0  0  0  0  0  0  0  0  0  0  0  0
  184.4610  179.3590  140.8620 O   0  0  0  0  0  0  0  0  0  0  0  0
  183.5010  178.4280  141.3040 C   0  0  0  0  0  2  0  0  0  0  0  0
  182.1260  178.8360  140.7690 C   0  0  2  0  0  3  0  0  0  0  0  0
  183.1960  179.6830  138.8230 C   0  0  0  0  0  2  0  0  0  0  0  0
  181.0900  178.0830  141.3280 O   0  0  0  0  0  1  0  0  0  0  0  0
  180.4110  175.7600  138.6320 C   0  0  1  0  0  0  0  0  0  0  0  0
  180.9590  176.9600  137.9490 C   0  0  1  0  0  3  0  0  0  0  0  0
  179.8800  177.0380  138.8590 O   0  0  0  0  0  0  0  0  0  0  0  0
  179.4310  174.8630  137.9070 C   0  0  0  0  0  1  0  0  0  0  0  0
  181.0440  175.2670  139.7760 O   0  0  0  0  0  1  0  0  0  0  0  0
  189.7490  177.4970  141.5530 C   0  0  0  0  0  2  0  0  0  0  0  0
  191.1400  177.7270  142.1200 C   0  0  0  0  0  2  0  0  0  0  0  0
  191.3500  176.8740  143.3630 C   0  0  2  0  0  3  0  0  0  0  0  0
  190.7070  175.5090  143.1860 C   0  0  0  0  0  1  0  0  0  0  0  0
  189.9880  178.9580  144.3600 O   0  0  0  0  0  0  0  0  0  0  0  0
  191.7480  178.0060  145.7710 O   0  0  0  0  0  0  0  0  0  0  0  0
  190.6550  177.6820  144.7920 S   0  0  0  0  0  0  0  0  0  0  0  0
  188.0850  176.8660  145.0150 C   0  0  0  0  0  2  0  0  0  0  0  0
  187.3000  177.4030  146.1810 C   0  0  1  0  0  3  0  0  0  0  0  0
  189.3890  176.9310  147.0110 N   0  0  0  0  0  2  0  0  0  0  0  0
  189.4550  176.6210  145.5860 C   0  0  2  0  0  3  0  0  0  0  0  0
  188.2750  177.7680  147.2010 N   0  0  0  0  0  2  0  0  0  0  0  0
  185.3940  178.8500  146.6920 N   0  0  0  0  0  2  0  0  0  0  0  0
  186.4790  178.6200  145.7580 C   0  0  2  0  0  3  0  0  0  0  0  0
  184.2800  179.1950  145.9090 N   0  0  0  0  0  2  0  0  0  0  0  0
  185.8120  178.3650  144.4390 C   0  0  0  0  0  2  0  0  0  0  0  0
  184.3910  178.4950  144.6920 N   0  0  0  0  0  2  0  0  0  0  0  0
  1  2  2  0  0  0  0
  2 36  1  0  0  0  0
  4 16  1  6  0  0  0
  4  7  1  0  0  0  0
  5  4  1  0  0  0  0
  5  6  1  0  0  0  0
  6  8  1  1  0  0  0
  6  1  1  0  0  0  0
  7  3  2  0  0  0  0
  7  2  1  0  0  0  0
  9  8  1  0  0  0  0
 11 12  2  0  0  0  0
 12  9  1  0  0  0  0
 12 10  1  0  0  0  0
 13 14  1  0  0  0  0
 13  9  1  0  0  0  0
 15 13  1  0  0  0  0
 17 18  1  0  0  0  0
 17 16  1  0  0  0  0
 18 19  1  0  0  0  0
 20 21  1  0  0  0  0
 20 22  1  0  0  0  0
 21 19  1  6  0  0  0
 21 22  1  0  0  0  0
 22 23  1  1  0  0  0
 23 25  1  6  0  0  0
 24 26  1  0  0  0  0
 25 28  1  0  0  0  0
 26 27  1  0  0  0  0
 28 27  1  0  0  0  0
 28 30  1  1  0  0  0
 29 25  1  0  0  0  0
 29 24  1  0  0  0  0
 31 34  1  6  0  0  0
 31 33  1  0  0  0  0
 31 35  1  0  0  0  0
 32 23  1  1  0  0  0
 32 31  1  0  0  0  0
 32 33  1  0  0  0  0
 36 37  1  0  0  0  0
 37 38  1  0  0  0  0
 38 39  1  6  0  0  0
 38 42  1  0  0  0  0
 40 42  2  0  0  0  0
 42 41  2  0  0  0  0
 43 46  1  0  0  0  0
 44 43  1  6  0  0  0
 44 47  1  0  0  0  0
 45 47  1  0  0  0  0
 46 42  1  6  0  0  0
 46 45  1  0  0  0  0
 49 51  1  6  0  0  0
 49 44  1  0  0  0  0
 49 48  1  0  0  0  0
 50 48  1  0  0  0  0
 51 52  1  0  0  0  0
 52 50  1  0  0  0  0
M  END
>  <MODEL>
3

>  <REMARK>
 VINA RESULT:      -7.7      2.762      7.977
  Name = 
  17 active torsions:
  status: ('A' for Active; 'I' for Inactive)
    1  A    between atoms: N_2  and  C_45
    2  A    between atoms: C_3  and  C_10
    3  A    between atoms: C_3  and  C_51
    4  A    between atoms: C_7  and  N_18
    5  A    between atoms: C_9  and  C_12
    6  A    between atoms: C_9  and  C_39
    7  A    between atoms: C_11  and  C_32
    8  A    between atoms: C_12  and  C_17
    9  A    between atoms: N_18  and  N_48
   10  A    between atoms: C_25  and  C_45
   11  A    between atoms: C_26  and  S_30
   12  A    between atoms: C_26  and  C_51
   13  A    between atoms: S_30  and  C_36
   14  A    between atoms: C_35  and  C_52
   15  A    between atoms: C_39  and  C_52
   16  A    between atoms: C_40  and  C_45
   17  A    between atoms: C_42  and  N_48
                            x       y       z     vdW  Elec       q    Type
                         _______ _______ _______ _____ _____    ______ ____

>  <TORSDO>
F 17

$$$$
=
 OpenBabel10222417483D

 52 57  0  0  1  0  0  0  0  0999 V2000
  185.8700  178.2600  137.7950 C   0  0  0  0  0  3  0  0  0  0  0  0
  186.9540  178.2240  138.5820 C   0  0  0  0  0  0  0  0  0  0  0  0
  187.8360  178.1990  140.7840 O   0  0  0  0  0  0  0  0  0  0  0  0
  185.4540  178.4830  140.6820 C   0  0  1  0  0  3  0  0  0  0  0  0
  184.4520  179.0640  139.6810 C   0  0  0  0  0  2  0  0  0  0  0  0
  184.4790  178.2970  138.3570 C   0  0  2  0  0  3  0  0  0  0  0  0
  186.8170  178.3210  140.0530 C   0  0  0  0  0  0  0  0  0  0  0  0
  183.9960  176.9350  138.5520 N   0  0  0  0  0  2  0  0  0  0  0  0
  182.8280  176.7740  137.7800 N   0  0  0  0  0  0  0  0  0  0  0  0
  184.1920  175.8390  135.9320 N   0  0  0  0  0  1  0  0  0  0  0  0
  181.8970  176.0960  135.7370 O   0  0  0  0  0  0  0  0  0  0  0  0
  182.9250  176.2270  136.4540 C   0  0  0  0  0  0  0  0  0  0  0  0
  181.5160  177.1670  138.3060 C   0  0  0  0  0  3  0  0  0  0  0  0
  181.4520  176.9280  139.8050 C   0  0  0  0  0  1  0  0  0  0  0  0
  181.1910  178.6200  137.9980 C   0  0  0  0  0  1  0  0  0  0  0  0
  185.5170  179.3760  141.9140 C   0  0  0  0  0  2  0  0  0  0  0  0
  185.2850  178.5760  143.1910 C   0  0  0  0  0  2  0  0  0  0  0  0
  185.0580  179.4820  144.3940 C   0  0  0  0  0  2  0  0  0  0  0  0
  185.6550  178.8880  145.6590 C   0  0  0  0  0  2  0  0  0  0  0  0
  186.9740  177.0320  146.5130 N   0  0  0  0  0  2  0  0  0  0  0  0
  186.6540  177.8030  145.3050 C   0  0  2  0  0  3  0  0  0  0  0  0
  187.9110  178.0470  146.0080 C   0  0  2  0  0  3  0  0  0  0  0  0
  189.1120  177.4210  145.2590 C   0  0  1  0  0  3  0  0  0  0  0  0
  190.0560  175.5540  143.1010 C   0  0  0  0  0  2  0  0  0  0  0  0
  189.1190  177.7410  143.8040 N   0  0  0  0  0  0  0  0  0  0  0  0
  191.1570  176.1740  142.4810 O   0  0  0  0  0  0  0  0  0  0  0  0
  191.5080  177.2870  143.2700 C   0  0  0  0  0  2  0  0  0  0  0  0
  190.3630  178.3040  143.2360 C   0  0  2  0  0  3  0  0  0  0  0  0
  188.8330  176.4920  143.0820 C   0  0  0  0  0  2  0  0  0  0  0  0
  190.7140  179.5220  143.8240 O   0  0  0  0  0  1  0  0  0  0  0  0
  190.6670  176.8310  147.1650 C   0  0  1  0  0  0  0  0  0  0  0  0
  190.4080  177.7430  146.0210 C   0  0  1  0  0  3  0  0  0  0  0  0
  191.3020  176.6510  145.9270 O   0  0  0  0  0  0  0  0  0  0  0  0
  191.6450  177.2370  148.2460 C   0  0  0  0  0  1  0  0  0  0  0  0
  189.7760  175.7880  147.4310 O   0  0  0  0  0  1  0  0  0  0  0  0
  188.2980  178.1250  137.9420 C   0  0  0  0  0  2  0  0  0  0  0  0
  188.6160  176.6820  137.5860 C   0  0  0  0  0  2  0  0  0  0  0  0
  189.9310  176.6060  136.8240 C   0  0  2  0  0  3  0  0  0  0  0  0
  189.6760  176.3490  135.3480 C   0  0  0  0  0  1  0  0  0  0  0  0
  190.1370  174.0590  137.6360 O   0  0  0  0  0  0  0  0  0  0  0  0
  191.4800  175.7180  138.8360 O   0  0  0  0  0  0  0  0  0  0  0  0
  190.9580  175.3100  137.4880 S   0  0  0  0  0  0  0  0  0  0  0  0
  193.2400  173.9410  136.9940 C   0  0  0  0  0  2  0  0  0  0  0  0
  194.5350  174.6720  137.2280 C   0  0  1  0  0  3  0  0  0  0  0  0
  193.1360  176.2020  136.2400 N   0  0  0  0  0  2  0  0  0  0  0  0
  192.3400  174.9880  136.3990 C   0  0  2  0  0  3  0  0  0  0  0  0
  194.2330  176.0930  137.1130 N   0  0  0  0  0  2  0  0  0  0  0  0
  195.0550  175.5260  139.4610 N   0  0  0  0  0  2  0  0  0  0  0  0
  195.0890  174.3490  138.6150 C   0  0  2  0  0  3  0  0  0  0  0  0
  196.2630  175.5190  140.1790 N   0  0  0  0  0  2  0  0  0  0  0  0
  196.5390  173.9760  138.5230 C   0  0  0  0  0  2  0  0  0  0  0  0
  197.2400  174.9420  139.3450 N   0  0  0  0  0  2  0  0  0  0  0  0
  1  6  1  0  0  0  0
  1  2  2  0  0  0  0
  2  7  1  0  0  0  0
  4 16  1  1  0  0  0
  5  4  1  0  0  0  0
  6  8  1  1  0  0  0
  6  5  1  0  0  0  0
  7  4  1  0  0  0  0
  7  3  2  0  0  0  0
  9 13  1  0  0  0  0
  9  8  1  0  0  0  0
 10 12  1  0  0  0  0
 11 12  2  0  0  0  0
 12  9  1  0  0  0  0
 13 14  1  0  0  0  0
 15 13  1  0  0  0  0
 16 17  1  0  0  0  0
 17 18  1  0  0  0  0
 18 19  1  0  0  0  0
 21 19  1  1  0  0  0
 21 22  1  0  0  0  0
 21 20  1  0  0  0  0
 22 23  1  6  0  0  0
 22 20  1  0  0  0  0
 23 25  1  6  0  0  0
 26 24  1  0  0  0  0
 26 27  1  0  0  0  0
 28 27  1  0  0  0  0
 28 25  1  0  0  0  0
 28 30  1  1  0  0  0
 29 24  1  0  0  0  0
 29 25  1  0  0  0  0
 31 35  1  0  0  0  0
 31 34  1  1  0  0  0
 32 23  1  6  0  0  0
 32 31  1  0  0  0  0
 33 32  1  0  0  0  0
 33 31  1  0  0  0  0
 36  2  1  0  0  0  0
 37 36  1  0  0  0  0
 38 39  1  6  0  0  0
 38 42  1  0  0  0  0
 38 37  1  0  0  0  0
 42 40  2  0  0  0  0
 42 41  2  0  0  0  0
 44 43  1  1  0  0  0
 44 49  1  0  0  0  0
 45 46  1  0  0  0  0
 45 47  1  0  0  0  0
 46 43  1  0  0  0  0
 46 42  1  1  0  0  0
 47 44  1  0  0  0  0
 48 50  1  0  0  0  0
 49 51  1  6  0  0  0
 49 48  1  0  0  0  0
 51 52  1  0  0  0  0
 52 50  1  0  0  0  0
M  END
>  <MODEL>
4

>  <REMARK>
 VINA RESULT:      -7.7      2.511      8.045
  Name = 
  17 active torsions:
  status: ('A' for Active; 'I' for Inactive)
    1  A    between atoms: N_2  and  C_45
    2  A    between atoms: C_3  and  C_10
    3  A    between atoms: C_3  and  C_51
    4  A    between atoms: C_7  and  N_18
    5  A    between atoms: C_9  and  C_12
    6  A    between atoms: C_9  and  C_39
    7  A    between atoms: C_11  and  C_32
    8  A    between atoms: C_12  and  C_17
    9  A    between atoms: N_18  and  N_48
   10  A    between atoms: C_25  and  C_45
   11  A    between atoms: C_26  and  S_30
   12  A    between atoms: C_26  and  C_51
   13  A    between atoms: S_30  and  C_36
   14  A    between atoms: C_35  and  C_52
   15  A    between atoms: C_39  and  C_52
   16  A    between atoms: C_40  and  C_45
   17  A    between atoms: C_42  and  N_48
                            x       y       z     vdW  Elec       q    Type
                         _______ _______ _______ _____ _____    ______ ____

>  <TORSDO>
F 17

$$$$
=
 OpenBabel10222417483D

 52 57  0  0  1  0  0  0  0  0999 V2000
  188.4930  177.0580  142.2200 C   0  0  0  0  0  3  0  0  0  0  0  0
  187.8460  177.7200  141.2510 C   0  0  0  0  0  0  0  0  0  0  0  0
  186.0590  179.1600  140.6500 O   0  0  0  0  0  0  0  0  0  0  0  0
  186.0480  178.4870  142.9550 C   0  0  1  0  0  3  0  0  0  0  0  0
  186.5410  177.2800  143.7560 C   0  0  0  0  0  2  0  0  0  0  0  0
  188.0620  177.1290  143.6560 C   0  0  2  0  0  3  0  0  0  0  0  0
  186.6080  178.4730  141.5520 C   0  0  0  0  0  0  0  0  0  0  0  0
  188.7250  178.2500  144.3100 N   0  0  0  0  0  2  0  0  0  0  0  0
  189.7090  177.7300  145.1740 N   0  0  0  0  0  0  0  0  0  0  0  0
  187.9750  177.3660  146.9090 N   0  0  0  0  0  1  0  0  0  0  0  0
  190.2000  176.8420  147.2890 O   0  0  0  0  0  0  0  0  0  0  0  0
  189.3340  177.2890  146.4900 C   0  0  0  0  0  0  0  0  0  0  0  0
  191.1120  177.6430  144.7540 C   0  0  0  0  0  3  0  0  0  0  0  0
  191.4080  176.2700  144.1780 C   0  0  0  0  0  1  0  0  0  0  0  0
  191.4720  178.7200  143.7420 C   0  0  0  0  0  1  0  0  0  0  0  0
  184.5240  178.4980  142.9410 C   0  0  0  0  0  2  0  0  0  0  0  0
  183.9590  178.6880  144.3440 C   0  0  0  0  0  2  0  0  0  0  0  0
  182.6050  179.3830  144.3200 C   0  0  0  0  0  2  0  0  0  0  0  0
  181.5930  178.6050  143.4930 C   0  0  0  0  0  2  0  0  0  0  0  0
  180.2290  179.8860  141.9410 N   0  0  0  0  0  2  0  0  0  0  0  0
  181.5080  179.1820  142.0930 C   0  0  2  0  0  3  0  0  0  0  0  0
  180.4130  178.5440  141.3660 C   0  0  2  0  0  3  0  0  0  0  0  0
  180.6470  178.5840  139.8370 C   0  0  1  0  0  3  0  0  0  0  0  0
  179.6590  176.0200  141.0570 C   0  0  0  0  0  2  0  0  0  0  0  0
  179.8790  177.5380  139.1060 N   0  0  0  0  0  0  0  0  0  0  0  0
  180.2990  174.9720  140.3710 O   0  0  0  0  0  0  0  0  0  0  0  0
  181.3030  175.5490  139.5690 C   0  0  0  0  0  2  0  0  0  0  0  0
  180.6460  176.4270  138.5010 C   0  0  2  0  0  3  0  0  0  0  0  0
  178.9310  176.9450  140.0610 C   0  0  0  0  0  2  0  0  0  0  0  0
  181.5590  176.8720  137.5400 O   0  0  0  0  0  1  0  0  0  0  0  0
  181.6420  180.5540  138.6020 C   0  0  1  0  0  0  0  0  0  0  0  0
  180.4620  180.0250  139.3330 C   0  0  1  0  0  3  0  0  0  0  0  0
  180.5240  180.0490  137.9210 O   0  0  0  0  0  0  0  0  0  0  0  0
  181.7970  182.0450  138.4010 C   0  0  0  0  0  1  0  0  0  0  0  0
  182.7590  179.7370  138.4120 O   0  0  0  0  0  1  0  0  0  0  0  0
  188.3790  177.6460  139.8590 C   0  0  0  0  0  2  0  0  0  0  0  0
  189.8830  177.4310  139.8730 C   0  0  0  0  0  2  0  0  0  0  0  0
  190.4760  177.7730  138.5130 C   0  0  2  0  0  3  0  0  0  0  0  0
  189.3890  178.2490  137.5650 C   0  0  0  0  0  1  0  0  0  0  0  0
  190.6830  176.0350  136.4820 O   0  0  0  0  0  0  0  0  0  0  0  0
  191.1180  175.1690  138.7300 O   0  0  0  0  0  0  0  0  0  0  0  0
  191.2940  176.3500  137.8180 S   0  0  0  0  0  0  0  0  0  0  0  0
  193.4920  176.2430  136.2440 C   0  0  0  0  0  2  0  0  0  0  0  0
  194.4740  175.1360  136.5210 C   0  0  1  0  0  3  0  0  0  0  0  0
  193.8050  175.8940  138.5830 N   0  0  0  0  0  2  0  0  0  0  0  0
  193.0410  176.6730  137.6130 C   0  0  2  0  0  3  0  0  0  0  0  0
  194.2810  174.7530  137.9130 N   0  0  0  0  0  2  0  0  0  0  0  0
  193.0370  174.1840  134.7850 N   0  0  0  0  0  2  0  0  0  0  0  0
  194.2170  173.9490  135.5940 C   0  0  2  0  0  3  0  0  0  0  0  0
  192.3470  172.9610  134.7460 N   0  0  0  0  0  2  0  0  0  0  0  0
  193.9010  172.7210  136.3970 C   0  0  0  0  0  2  0  0  0  0  0  0
  192.5760  172.3130  135.9760 N   0  0  0  0  0  2  0  0  0  0  0  0
  1  6  1  0  0  0  0
  2  7  1  0  0  0  0
  2  1  2  0  0  0  0
  3  7  2  0  0  0  0
  4 16  1  6  0  0  0
  4  5  1  0  0  0  0
  6  5  1  0  0  0  0
  6  8  1  6  0  0  0
  7  4  1  0  0  0  0
  8  9  1  0  0  0  0
  9 12  1  0  0  0  0
 12 10  1  0  0  0  0
 12 11  2  0  0  0  0
 13  9  1  0  0  0  0
 14 13  1  0  0  0  0
 15 13  1  0  0  0  0
 16 17  1  0  0  0  0
 18 17  1  0  0  0  0
 19 18  1  0  0  0  0
 20 21  1  0  0  0  0
 21 19  1  1  0  0  0
 22 23  1  6  0  0  0
 22 20  1  0  0  0  0
 22 21  1  0  0  0  0
 23 25  1  6  0  0  0
 25 29  1  0  0  0  0
 26 24  1  0  0  0  0
 27 26  1  0  0  0  0
 28 30  1  6  0  0  0
 28 25  1  0  0  0  0
 28 27  1  0  0  0  0
 29 24  1  0  0  0  0
 31 34  1  6  0  0  0
 31 32  1  0  0  0  0
 32 23  1  1  0  0  0
 33 31  1  0  0  0  0
 33 32  1  0  0  0  0
 35 31  1  0  0  0  0
 36 37  1  0  0  0  0
 36  2  1  0  0  0  0
 38 39  1  6  0  0  0
 38 37  1  0  0  0  0
 40 42  2  0  0  0  0
 42 38  1  0  0  0  0
 42 41  2  0  0  0  0
 43 46  1  0  0  0  0
 44 43  1  6  0  0  0
 44 47  1  0  0  0  0
 46 42  1  6  0  0  0
 46 45  1  0  0  0  0
 47 45  1  0  0  0  0
 48 49  1  0  0  0  0
 49 51  1  1  0  0  0
 49 44  1  0  0  0  0
 50 48  1  0  0  0  0
 50 52  1  0  0  0  0
 52 51  1  0  0  0  0
M  END
>  <MODEL>
5

>  <REMARK>
 VINA RESULT:      -7.7      1.344      2.567
  Name = 
  17 active torsions:
  status: ('A' for Active; 'I' for Inactive)
    1  A    between atoms: N_2  and  C_45
    2  A    between atoms: C_3  and  C_10
    3  A    between atoms: C_3  and  C_51
    4  A    between atoms: C_7  and  N_18
    5  A    between atoms: C_9  and  C_12
    6  A    between atoms: C_9  and  C_39
    7  A    between atoms: C_11  and  C_32
    8  A    between atoms: C_12  and  C_17
    9  A    between atoms: N_18  and  N_48
   10  A    between atoms: C_25  and  C_45
   11  A    between atoms: C_26  and  S_30
   12  A    between atoms: C_26  and  C_51
   13  A    between atoms: S_30  and  C_36
   14  A    between atoms: C_35  and  C_52
   15  A    between atoms: C_39  and  C_52
   16  A    between atoms: C_40  and  C_45
   17  A    between atoms: C_42  and  N_48
                            x       y       z     vdW  Elec       q    Type
                         _______ _______ _______ _____ _____    ______ ____

>  <TORSDO>
F 17

$$$$
=
 OpenBabel10222417483D

 52 57  0  0  1  0  0  0  0  0999 V2000
  183.0800  177.8310  141.1660 C   0  0  0  0  0  3  0  0  0  0  0  0
  182.1010  178.3140  141.9420 C   0  0  0  0  0  0  0  0  0  0  0  0
  181.4950  179.5190  143.8940 O   0  0  0  0  0  0  0  0  0  0  0  0
  183.8540  179.1310  143.6700 C   0  0  1  0  0  3  0  0  0  0  0  0
  184.7420  178.0740  143.0080 C   0  0  0  0  0  2  0  0  0  0  0  0
  184.5300  178.0390  141.4920 C   0  0  2  0  0  3  0  0  0  0  0  0
  182.4200  178.9940  143.2180 C   0  0  0  0  0  0  0  0  0  0  0  0
  184.9930  179.2820  140.8880 N   0  0  0  0  0  2  0  0  0  0  0  0
  185.4520  178.9890  139.5880 N   0  0  0  0  0  0  0  0  0  0  0  0
  187.6430  178.3070  140.5290 N   0  0  0  0  0  1  0  0  0  0  0  0
  187.2330  178.2580  138.2480 O   0  0  0  0  0  0  0  0  0  0  0  0
  186.7920  178.5030  139.4030 C   0  0  0  0  0  0  0  0  0  0  0  0
  184.5860  179.1840  138.4200 C   0  0  0  0  0  3  0  0  0  0  0  0
  184.0540  177.8510  137.9260 C   0  0  0  0  0  1  0  0  0  0  0  0
  183.4290  180.1260  138.7190 C   0  0  0  0  0  1  0  0  0  0  0  0
  183.9700  179.0140  145.1850 C   0  0  0  0  0  2  0  0  0  0  0  0
  185.3540  178.5300  145.5980 C   0  0  0  0  0  2  0  0  0  0  0  0
  185.9350  179.3710  146.7270 C   0  0  0  0  0  2  0  0  0  0  0  0
  186.7280  178.5190  147.7060 C   0  0  0  0  0  2  0  0  0  0  0  0
  188.4350  176.7990  147.9070 N   0  0  0  0  0  2  0  0  0  0  0  0
  187.5740  177.5100  146.9530 C   0  0  2  0  0  3  0  0  0  0  0  0
  188.9850  177.8740  147.0660 C   0  0  2  0  0  3  0  0  0  0  0  0
  189.8100  177.3300  145.8760 C   0  0  1  0  0  3  0  0  0  0  0  0
  189.2090  176.0400  143.2290 C   0  0  0  0  0  2  0  0  0  0  0  0
  189.5580  178.0710  144.6090 N   0  0  0  0  0  0  0  0  0  0  0  0
  190.2530  176.3960  142.3570 O   0  0  0  0  0  0  0  0  0  0  0  0
  191.2580  177.0040  143.1350 C   0  0  0  0  0  2  0  0  0  0  0  0
  190.7150  178.3110  143.7190 C   0  0  2  0  0  3  0  0  0  0  0  0
  188.5680  177.3010  143.8420 C   0  0  0  0  0  2  0  0  0  0  0  0
  191.7110  179.0760  144.3340 O   0  0  0  0  0  1  0  0  0  0  0  0
  191.5620  176.0070  147.1320 C   0  0  1  0  0  0  0  0  0  0  0  0
  191.2830  177.2030  146.2970 C   0  0  1  0  0  3  0  0  0  0  0  0
  191.8350  176.0190  145.7550 O   0  0  0  0  0  0  0  0  0  0  0  0
  192.8290  175.9430  147.9560 C   0  0  0  0  0  1  0  0  0  0  0  0
  190.5270  175.1190  147.4320 O   0  0  0  0  0  1  0  0  0  0  0  0
  180.6860  178.1170  141.5110 C   0  0  0  0  0  2  0  0  0  0  0  0
  180.6020  177.9750  140.0000 C   0  0  0  0  0  2  0  0  0  0  0  0
  179.7450  176.7710  139.6330 C   0  0  2  0  0  3  0  0  0  0  0  0
  179.4450  175.9360  140.8660 C   0  0  0  0  0  1  0  0  0  0  0  0
  181.8570  175.2400  139.0090 O   0  0  0  0  0  0  0  0  0  0  0  0
  180.9000  176.5980  137.2090 O   0  0  0  0  0  0  0  0  0  0  0  0
  180.5780  175.7660  138.4190 S   0  0  0  0  0  0  0  0  0  0  0  0
  180.3250  173.1120  137.9560 C   0  0  0  0  0  2  0  0  0  0  0  0
  180.3430  172.6680  136.5180 C   0  0  1  0  0  3  0  0  0  0  0  0
  179.0850  174.5900  136.5530 N   0  0  0  0  0  2  0  0  0  0  0  0
  179.5420  174.3950  137.9260 C   0  0  2  0  0  3  0  0  0  0  0  0
  179.9210  173.8160  135.7270 N   0  0  0  0  0  2  0  0  0  0  0  0
  182.3930  171.5270  137.2100 N   0  0  0  0  0  2  0  0  0  0  0  0
  181.7460  172.2200  136.1140 C   0  0  2  0  0  3  0  0  0  0  0  0
  183.7250  171.9750  137.2170 N   0  0  0  0  0  2  0  0  0  0  0  0
  182.6140  173.4140  135.8400 C   0  0  0  0  0  2  0  0  0  0  0  0
  183.7170  173.3130  136.7740 N   0  0  0  0  0  2  0  0  0  0  0  0
  1  6  1  0  0  0  0
  1  2  2  0  0  0  0
  2  7  1  0  0  0  0
  4 16  1  1  0  0  0
  5  4  1  0  0  0  0
  6  8  1  6  0  0  0
  6  5  1  0  0  0  0
  7  4  1  0  0  0  0
  7  3  2  0  0  0  0
  9  8  1  0  0  0  0
 11 12  2  0  0  0  0
 12  9  1  0  0  0  0
 12 10  1  0  0  0  0
 13 15  1  0  0  0  0
 13  9  1  0  0  0  0
 14 13  1  0  0  0  0
 16 17  1  0  0  0  0
 17 18  1  0  0  0  0
 18 19  1  0  0  0  0
 21 22  1  0  0  0  0
 21 19  1  1  0  0  0
 21 20  1  0  0  0  0
 22 23  1  6  0  0  0
 22 20  1  0  0  0  0
 23 25  1  6  0  0  0
 24 29  1  0  0  0  0
 26 27  1  0  0  0  0
 26 24  1  0  0  0  0
 27 28  1  0  0  0  0
 28 30  1  1  0  0  0
 28 25  1  0  0  0  0
 29 25  1  0  0  0  0
 31 35  1  0  0  0  0
 31 34  1  1  0  0  0
 32 23  1  6  0  0  0
 32 31  1  0  0  0  0
 33 32  1  0  0  0  0
 33 31  1  0  0  0  0
 36  2  1  0  0  0  0
 37 36  1  0  0  0  0
 38 37  1  0  0  0  0
 38 39  1  1  0  0  0
 41 42  2  0  0  0  0
 42 40  2  0  0  0  0
 42 38  1  0  0  0  0
 44 43  1  1  0  0  0
 45 46  1  0  0  0  0
 46 43  1  0  0  0  0
 46 42  1  6  0  0  0
 47 44  1  0  0  0  0
 47 45  1  0  0  0  0
 48 50  1  0  0  0  0
 49 51  1  1  0  0  0
 49 44  1  0  0  0  0
 49 48  1  0  0  0  0
 51 52  1  0  0  0  0
 52 50  1  0  0  0  0
M  END
>  <MODEL>
6

>  <REMARK>
 VINA RESULT:      -7.7      4.466     10.203
  Name = 
  17 active torsions:
  status: ('A' for Active; 'I' for Inactive)
    1  A    between atoms: N_2  and  C_45
    2  A    between atoms: C_3  and  C_10
    3  A    between atoms: C_3  and  C_51
    4  A    between atoms: C_7  and  N_18
    5  A    between atoms: C_9  and  C_12
    6  A    between atoms: C_9  and  C_39
    7  A    between atoms: C_11  and  C_32
    8  A    between atoms: C_12  and  C_17
    9  A    between atoms: N_18  and  N_48
   10  A    between atoms: C_25  and  C_45
   11  A    between atoms: C_26  and  S_30
   12  A    between atoms: C_26  and  C_51
   13  A    between atoms: S_30  and  C_36
   14  A    between atoms: C_35  and  C_52
   15  A    between atoms: C_39  and  C_52
   16  A    between atoms: C_40  and  C_45
   17  A    between atoms: C_42  and  N_48
                            x       y       z     vdW  Elec       q    Type
                         _______ _______ _______ _____ _____    ______ ____

>  <TORSDO>
F 17

$$$$
=
 OpenBabel10222417483D

 52 57  0  0  1  0  0  0  0  0999 V2000
  191.4810  176.3640  138.7570 C   0  0  0  0  0  3  0  0  0  0  0  0
  190.3010  176.8660  139.1460 C   0  0  0  0  0  0  0  0  0  0  0  0
  188.0150  177.2470  138.6400 O   0  0  0  0  0  0  0  0  0  0  0  0
  189.2760  176.2870  136.8360 C   0  0  1  0  0  3  0  0  0  0  0  0
  190.7370  176.3020  136.3780 C   0  0  0  0  0  2  0  0  0  0  0  0
  191.6570  175.6800  137.4320 C   0  0  2  0  0  3  0  0  0  0  0  0
  189.1390  176.8510  138.2300 C   0  0  0  0  0  0  0  0  0  0  0  0
  191.3710  174.2580  137.5760 N   0  0  0  0  0  2  0  0  0  0  0  0
  192.0860  173.5680  136.5770 N   0  0  0  0  0  0  0  0  0  0  0  0
  189.9420  172.8400  135.5640 N   0  0  0  0  0  1  0  0  0  0  0  0
  191.9830  172.2010  134.6730 O   0  0  0  0  0  0  0  0  0  0  0  0
  191.3660  172.8450  135.5630 C   0  0  0  0  0  0  0  0  0  0  0  0
  193.5530  173.5660  136.5620 C   0  0  0  0  0  3  0  0  0  0  0  0
  194.0740  174.5170  135.5000 C   0  0  0  0  0  1  0  0  0  0  0  0
  194.1360  173.9330  137.9190 C   0  0  0  0  0  1  0  0  0  0  0  0
  188.4250  177.0650  135.8390 C   0  0  0  0  0  2  0  0  0  0  0  0
  187.2260  176.2460  135.3780 C   0  0  0  0  0  2  0  0  0  0  0  0
  186.1940  177.1070  134.6610 C   0  0  0  0  0  2  0  0  0  0  0  0
  184.7950  176.8720  135.2110 C   0  0  0  0  0  2  0  0  0  0  0  0
  184.7100  176.4130  137.5970 N   0  0  0  0  0  2  0  0  0  0  0  0
  184.6680  177.4840  136.5930 C   0  0  2  0  0  3  0  0  0  0  0  0
  183.4290  177.0280  137.2180 C   0  0  2  0  0  3  0  0  0  0  0  0
  182.9210  178.0370  138.2760 C   0  0  1  0  0  3  0  0  0  0  0  0
  181.0080  177.9340  135.9600 C   0  0  0  0  0  2  0  0  0  0  0  0
  181.4370  178.0490  138.4000 N   0  0  0  0  0  0  0  0  0  0  0  0
  180.2750  179.1340  135.9860 O   0  0  0  0  0  0  0  0  0  0  0  0
  180.8920  179.9810  136.9280 C   0  0  0  0  0  2  0  0  0  0  0  0
  180.7580  179.3600  138.3210 C   0  0  2  0  0  3  0  0  0  0  0  0
  180.9020  177.2110  137.3170 C   0  0  0  0  0  2  0  0  0  0  0  0
  181.1620  180.2320  139.3350 O   0  0  0  0  0  1  0  0  0  0  0  0
  184.5510  178.9940  139.9560 C   0  0  1  0  0  0  0  0  0  0  0  0
  183.7020  177.8340  139.5850 C   0  0  1  0  0  3  0  0  0  0  0  0
  183.2920  178.7920  140.5400 O   0  0  0  0  0  0  0  0  0  0  0  0
  185.6710  178.8170  140.9590 C   0  0  0  0  0  1  0  0  0  0  0  0
  184.5560  180.1330  139.1470 O   0  0  0  0  0  1  0  0  0  0  0  0
  190.1990  177.4730  140.5050 C   0  0  0  0  0  2  0  0  0  0  0  0
  190.2860  176.4020  141.5790 C   0  0  0  0  0  2  0  0  0  0  0  0
  190.9320  176.9680  142.8360 C   0  0  2  0  0  3  0  0  0  0  0  0
  191.5020  175.8480  143.6900 C   0  0  0  0  0  1  0  0  0  0  0  0
  188.7710  178.5560  142.8400 O   0  0  0  0  0  0  0  0  0  0  0  0
  190.4400  178.9480  144.5890 O   0  0  0  0  0  0  0  0  0  0  0  0
  189.7380  177.8930  143.7820 S   0  0  0  0  0  0  0  0  0  0  0  0
  187.3620  177.0190  144.7370 C   0  0  0  0  0  2  0  0  0  0  0  0
  186.9340  177.5460  146.0810 C   0  0  1  0  0  3  0  0  0  0  0  0
  189.1840  177.1280  146.2720 N   0  0  0  0  0  2  0  0  0  0  0  0
  188.8440  176.8110  144.8880 C   0  0  2  0  0  3  0  0  0  0  0  0
  188.1520  177.9400  146.7760 N   0  0  0  0  0  2  0  0  0  0  0  0
  184.7740  178.5370  146.6640 N   0  0  0  0  0  2  0  0  0  0  0  0
  185.9970  178.7410  145.9130 C   0  0  2  0  0  3  0  0  0  0  0  0
  183.7350  179.0000  145.8410 N   0  0  0  0  0  2  0  0  0  0  0  0
  185.5610  178.8640  144.4820 C   0  0  0  0  0  2  0  0  0  0  0  0
  184.1160  178.7530  144.5070 N   0  0  0  0  0  2  0  0  0  0  0  0
  1  2  2  0  0  0  0
  2 36  1  0  0  0  0
  4 16  1  6  0  0  0
  4  7  1  0  0  0  0
  5  4  1  0  0  0  0
  5  6  1  0  0  0  0
  6  8  1  1  0  0  0
  6  1  1  0  0  0  0
  7  3  2  0  0  0  0
  7  2  1  0  0  0  0
  9  8  1  0  0  0  0
 11 12  2  0  0  0  0
 12 10  1  0  0  0  0
 12  9  1  0  0  0  0
 13  9  1  0  0  0  0
 13 15  1  0  0  0  0
 14 13  1  0  0  0  0
 17 16  1  0  0  0  0
 18 19  1  0  0  0  0
 18 17  1  0  0  0  0
 21 19  1  6  0  0  0
 21 22  1  0  0  0  0
 21 20  1  0  0  0  0
 22 20  1  0  0  0  0
 22 23  1  1  0  0  0
 23 25  1  1  0  0  0
 24 26  1  0  0  0  0
 24 29  1  0  0  0  0
 26 27  1  0  0  0  0
 27 28  1  0  0  0  0
 28 25  1  0  0  0  0
 28 30  1  1  0  0  0
 29 25  1  0  0  0  0
 31 33  1  0  0  0  0
 31 34  1  1  0  0  0
 32 23  1  6  0  0  0
 32 31  1  0  0  0  0
 32 33  1  0  0  0  0
 35 31  1  0  0  0  0
 36 37  1  0  0  0  0
 37 38  1  0  0  0  0
 38 39  1  1  0  0  0
 38 42  1  0  0  0  0
 40 42  2  0  0  0  0
 42 41  2  0  0  0  0
 43 46  1  0  0  0  0
 44 43  1  6  0  0  0
 44 47  1  0  0  0  0
 45 47  1  0  0  0  0
 46 42  1  6  0  0  0
 46 45  1  0  0  0  0
 49 51  1  6  0  0  0
 49 44  1  0  0  0  0
 49 48  1  0  0  0  0
 50 48  1  0  0  0  0
 51 52  1  0  0  0  0
 52 50  1  0  0  0  0
M  END
>  <MODEL>
7

>  <REMARK>
 VINA RESULT:      -7.5      2.983      8.353
  Name = 
  17 active torsions:
  status: ('A' for Active; 'I' for Inactive)
    1  A    between atoms: N_2  and  C_45
    2  A    between atoms: C_3  and  C_10
    3  A    between atoms: C_3  and  C_51
    4  A    between atoms: C_7  and  N_18
    5  A    between atoms: C_9  and  C_12
    6  A    between atoms: C_9  and  C_39
    7  A    between atoms: C_11  and  C_32
    8  A    between atoms: C_12  and  C_17
    9  A    between atoms: N_18  and  N_48
   10  A    between atoms: C_25  and  C_45
   11  A    between atoms: C_26  and  S_30
   12  A    between atoms: C_26  and  C_51
   13  A    between atoms: S_30  and  C_36
   14  A    between atoms: C_35  and  C_52
   15  A    between atoms: C_39  and  C_52
   16  A    between atoms: C_40  and  C_45
   17  A    between atoms: C_42  and  N_48
                            x       y       z     vdW  Elec       q    Type
                         _______ _______ _______ _____ _____    ______ ____

>  <TORSDO>
F 17

$$$$
=
 OpenBabel10222417483D

 52 57  0  0  1  0  0  0  0  0999 V2000
  190.4450  177.5090  140.2920 C   0  0  0  0  0  3  0  0  0  0  0  0
  189.2080  177.9560  140.5480 C   0  0  0  0  0  0  0  0  0  0  0  0
  187.0290  178.4150  139.7290 O   0  0  0  0  0  0  0  0  0  0  0  0
  188.5870  177.7160  138.0410 C   0  0  1  0  0  3  0  0  0  0  0  0
  190.1020  177.7890  137.8380 C   0  0  0  0  0  2  0  0  0  0  0  0
  190.8480  177.0190  138.9320 C   0  0  2  0  0  3  0  0  0  0  0  0
  188.2120  178.0770  139.4590 C   0  0  0  0  0  0  0  0  0  0  0  0
  190.5700  175.5920  138.8250 N   0  0  0  0  0  2  0  0  0  0  0  0
  191.3810  175.0660  137.7990 N   0  0  0  0  0  0  0  0  0  0  0  0
  189.5860  173.4560  137.2210 N   0  0  0  0  0  1  0  0  0  0  0  0
  191.6060  173.4810  136.0850 O   0  0  0  0  0  0  0  0  0  0  0  0
  190.8890  173.9830  136.9920 C   0  0  0  0  0  0  0  0  0  0  0  0
  192.7250  175.6010  137.5510 C   0  0  0  0  0  3  0  0  0  0  0  0
  193.7810  174.5890  137.9560 C   0  0  0  0  0  1  0  0  0  0  0  0
  192.9190  176.0010  136.0960 C   0  0  0  0  0  1  0  0  0  0  0  0
  187.8960  178.6320  137.0380 C   0  0  0  0  0  2  0  0  0  0  0  0
  187.6030  177.9020  135.7330 C   0  0  0  0  0  2  0  0  0  0  0  0
  186.1380  177.4990  135.6260 C   0  0  0  0  0  2  0  0  0  0  0  0
  185.8910  176.1290  136.2390 C   0  0  0  0  0  2  0  0  0  0  0  0
  183.4890  175.7550  136.2570 N   0  0  0  0  0  2  0  0  0  0  0  0
  184.6330  176.1560  137.0850 C   0  0  2  0  0  3  0  0  0  0  0  0
  183.7190  177.1730  136.5710 C   0  0  2  0  0  3  0  0  0  0  0  0
  182.7690  177.6960  137.6750 C   0  0  1  0  0  3  0  0  0  0  0  0
  181.2870  177.2500  140.2520 C   0  0  0  0  0  2  0  0  0  0  0  0
  183.3960  177.6980  139.0260 N   0  0  0  0  0  0  0  0  0  0  0  0
  181.4200  178.4290  141.0060 O   0  0  0  0  0  0  0  0  0  0  0  0
  181.9830  179.4050  140.1600 C   0  0  0  0  0  2  0  0  0  0  0  0
  183.4000  178.9750  139.7730 C   0  0  2  0  0  3  0  0  0  0  0  0
  182.6730  176.7140  139.8450 C   0  0  0  0  0  2  0  0  0  0  0  0
  184.1000  179.9820  139.1030 O   0  0  0  0  0  1  0  0  0  0  0  0
  181.0990  178.8720  136.1840 C   0  0  1  0  0  0  0  0  0  0  0  0
  182.1500  179.0280  137.2220 C   0  0  1  0  0  3  0  0  0  0  0  0
  180.7720  179.0460  137.5370 O   0  0  0  0  0  0  0  0  0  0  0  0
  180.6850  180.0630  135.3470 C   0  0  0  0  0  1  0  0  0  0  0  0
  180.7510  177.5940  135.7420 O   0  0  0  0  0  1  0  0  0  0  0  0
  188.8720  178.3640  141.9430 C   0  0  0  0  0  2  0  0  0  0  0  0
  189.5780  177.4690  142.9480 C   0  0  0  0  0  2  0  0  0  0  0  0
  189.8810  178.2450  144.2220 C   0  0  2  0  0  3  0  0  0  0  0  0
  190.8430  179.3860  143.9320 C   0  0  0  0  0  1  0  0  0  0  0  0
  191.6800  177.8980  146.1800 O   0  0  0  0  0  0  0  0  0  0  0  0
  191.1700  175.9520  144.7840 O   0  0  0  0  0  0  0  0  0  0  0  0
  190.5880  177.1650  145.4510 S   0  0  0  0  0  0  0  0  0  0  0  0
  187.9710  176.7550  146.0020 C   0  0  0  0  0  2  0  0  0  0  0  0
  187.2790  177.7980  146.8380 C   0  0  1  0  0  3  0  0  0  0  0  0
  189.3550  177.5270  147.7840 N   0  0  0  0  0  2  0  0  0  0  0  0
  189.3380  176.6470  146.6190 C   0  0  2  0  0  3  0  0  0  0  0  0
  188.3220  178.4650  147.6080 N   0  0  0  0  0  2  0  0  0  0  0  0
  185.3020  179.2120  146.5650 N   0  0  0  0  0  2  0  0  0  0  0  0
  186.5450  178.7980  145.9460 C   0  0  2  0  0  3  0  0  0  0  0  0
  184.3530  179.2570  145.5300 N   0  0  0  0  0  2  0  0  0  0  0  0
  186.1410  178.1450  144.6560 C   0  0  0  0  0  2  0  0  0  0  0  0
  184.6970  178.2540  144.6030 N   0  0  0  0  0  2  0  0  0  0  0  0
  1  2  2  0  0  0  0
  2 36  1  0  0  0  0
  4 16  1  6  0  0  0
  4  7  1  0  0  0  0
  5  4  1  0  0  0  0
  5  6  1  0  0  0  0
  6  8  1  1  0  0  0
  6  1  1  0  0  0  0
  7  3  2  0  0  0  0
  7  2  1  0  0  0  0
  9  8  1  0  0  0  0
 11 12  2  0  0  0  0
 12 10  1  0  0  0  0
 12  9  1  0  0  0  0
 13  9  1  0  0  0  0
 13 14  1  0  0  0  0
 15 13  1  0  0  0  0
 17 16  1  0  0  0  0
 18 17  1  0  0  0  0
 18 19  1  0  0  0  0
 20 22  1  0  0  0  0
 20 21  1  0  0  0  0
 21 19  1  6  0  0  0
 22 21  1  0  0  0  0
 22 23  1  1  0  0  0
 23 25  1  1  0  0  0
 24 26  1  0  0  0  0
 25 28  1  0  0  0  0
 25 29  1  0  0  0  0
 27 26  1  0  0  0  0
 28 30  1  6  0  0  0
 28 27  1  0  0  0  0
 29 24  1  0  0  0  0
 31 34  1  6  0  0  0
 31 32  1  0  0  0  0
 31 33  1  0  0  0  0
 32 33  1  0  0  0  0
 32 23  1  1  0  0  0
 35 31  1  0  0  0  0
 36 37  1  0  0  0  0
 37 38  1  0  0  0  0
 38 39  1  6  0  0  0
 38 42  1  0  0  0  0
 41 42  2  0  0  0  0
 42 40  2  0  0  0  0
 43 46  1  0  0  0  0
 44 43  1  6  0  0  0
 44 47  1  0  0  0  0
 46 42  1  6  0  0  0
 46 45  1  0  0  0  0
 47 45  1  0  0  0  0
 49 51  1  6  0  0  0
 49 48  1  0  0  0  0
 49 44  1  0  0  0  0
 50 48  1  0  0  0  0
 52 51  1  0  0  0  0
 52 50  1  0  0  0  0
M  END
>  <MODEL>
8

>  <REMARK>
 VINA RESULT:      -7.4      2.788      7.969
  Name = 
  17 active torsions:
  status: ('A' for Active; 'I' for Inactive)
    1  A    between atoms: N_2  and  C_45
    2  A    between atoms: C_3  and  C_10
    3  A    between atoms: C_3  and  C_51
    4  A    between atoms: C_7  and  N_18
    5  A    between atoms: C_9  and  C_12
    6  A    between atoms: C_9  and  C_39
    7  A    between atoms: C_11  and  C_32
    8  A    between atoms: C_12  and  C_17
    9  A    between atoms: N_18  and  N_48
   10  A    between atoms: C_25  and  C_45
   11  A    between atoms: C_26  and  S_30
   12  A    between atoms: C_26  and  C_51
   13  A    between atoms: S_30  and  C_36
   14  A    between atoms: C_35  and  C_52
   15  A    between atoms: C_39  and  C_52
   16  A    between atoms: C_40  and  C_45
   17  A    between atoms: C_42  and  N_48
                            x       y       z     vdW  Elec       q    Type
                         _______ _______ _______ _____ _____    ______ ____

>  <TORSDO>
F 17

$$$$
=
 OpenBabel10222417483D

 52 57  0  0  1  0  0  0  0  0999 V2000
  183.5860  178.2840  138.6600 C   0  0  0  0  0  3  0  0  0  0  0  0
  184.9010  178.4850  138.8260 C   0  0  0  0  0  0  0  0  0  0  0  0
  186.7370  178.6260  140.3220 O   0  0  0  0  0  0  0  0  0  0  0  0
  184.6090  178.3550  141.4000 C   0  0  1  0  0  3  0  0  0  0  0  0
  183.1550  178.7070  141.0790 C   0  0  0  0  0  2  0  0  0  0  0  0
  182.6740  177.9890  139.8150 C   0  0  2  0  0  3  0  0  0  0  0  0
  185.4890  178.5230  140.1850 C   0  0  0  0  0  0  0  0  0  0  0  0
  182.6210  176.5500  140.0410 N   0  0  0  0  0  2  0  0  0  0  0  0
  181.5600  176.0280  139.2740 N   0  0  0  0  0  0  0  0  0  0  0  0
  179.9460  176.8670  140.9590 N   0  0  0  0  0  1  0  0  0  0  0  0
  179.2460  175.7020  139.0830 O   0  0  0  0  0  0  0  0  0  0  0  0
  180.2090  176.1810  139.7390 C   0  0  0  0  0  0  0  0  0  0  0  0
  181.8160  175.3200  138.0140 C   0  0  0  0  0  3  0  0  0  0  0  0
  181.4940  176.2140  136.8300 C   0  0  0  0  0  1  0  0  0  0  0  0
  183.2530  174.8290  137.9180 C   0  0  0  0  0  1  0  0  0  0  0  0
  185.0960  179.2190  142.5570 C   0  0  0  0  0  2  0  0  0  0  0  0
  185.3550  178.3800  143.8030 C   0  0  0  0  0  2  0  0  0  0  0  0
  184.9710  179.1230  145.0760 C   0  0  0  0  0  2  0  0  0  0  0  0
  185.9440  178.8290  146.2070 C   0  0  0  0  0  2  0  0  0  0  0  0
  187.5270  177.1390  146.9490 N   0  0  0  0  0  2  0  0  0  0  0  0
  186.9640  177.7980  145.7640 C   0  0  2  0  0  3  0  0  0  0  0  0
  188.2890  178.1820  146.2450 C   0  0  2  0  0  3  0  0  0  0  0  0
  189.4100  177.5950  145.3540 C   0  0  1  0  0  3  0  0  0  0  0  0
  189.3520  175.8770  142.8890 C   0  0  0  0  0  2  0  0  0  0  0  0
  189.3740  178.1150  143.9590 N   0  0  0  0  0  0  0  0  0  0  0  0
  190.5290  176.1580  142.1700 O   0  0  0  0  0  0  0  0  0  0  0  0
  191.3510  176.9400  143.0050 C   0  0  0  0  0  2  0  0  0  0  0  0
  190.6670  178.2860  143.2620 C   0  0  2  0  0  3  0  0  0  0  0  0
  188.5690  177.1750  143.1650 C   0  0  0  0  0  2  0  0  0  0  0  0
  191.5060  179.1960  143.9110 O   0  0  0  0  0  1  0  0  0  0  0  0
  190.9930  176.6630  147.0930 C   0  0  1  0  0  0  0  0  0  0  0  0
  190.7580  177.7260  146.0830 C   0  0  1  0  0  3  0  0  0  0  0  0
  191.5600  176.5950  145.8110 O   0  0  0  0  0  0  0  0  0  0  0  0
  192.0440  176.8600  148.1640 C   0  0  0  0  0  1  0  0  0  0  0  0
  190.0380  175.6600  147.2750 O   0  0  0  0  0  1  0  0  0  0  0  0
  185.7460  178.7090  137.6180 C   0  0  0  0  0  2  0  0  0  0  0  0
  185.7430  177.4780  136.7270 C   0  0  0  0  0  2  0  0  0  0  0  0
  187.1070  177.2960  136.0760 C   0  0  2  0  0  3  0  0  0  0  0  0
  186.9510  176.9660  134.6010 C   0  0  0  0  0  1  0  0  0  0  0  0
  187.0430  174.9630  137.3970 O   0  0  0  0  0  0  0  0  0  0  0  0
  188.7820  176.5590  138.0470 O   0  0  0  0  0  0  0  0  0  0  0  0
  188.0130  175.9930  136.8880 S   0  0  0  0  0  0  0  0  0  0  0  0
  190.0810  174.2960  136.4850 C   0  0  0  0  0  2  0  0  0  0  0  0
  191.4390  174.9130  136.2890 C   0  0  1  0  0  3  0  0  0  0  0  0
  189.9820  176.2440  135.1130 N   0  0  0  0  0  2  0  0  0  0  0  0
  189.1550  175.2230  135.7480 C   0  0  2  0  0  3  0  0  0  0  0  0
  191.2090  176.2670  135.8000 N   0  0  0  0  0  2  0  0  0  0  0  0
  192.1600  176.2630  138.1980 N   0  0  0  0  0  2  0  0  0  0  0  0
  192.2110  174.9400  137.6070 C   0  0  2  0  0  3  0  0  0  0  0  0
  193.4480  176.5090  138.7030 N   0  0  0  0  0  2  0  0  0  0  0  0
  193.6680  174.6770  137.3630 C   0  0  0  0  0  2  0  0  0  0  0  0
  194.3610  175.8510  137.8560 N   0  0  0  0  0  2  0  0  0  0  0  0
  1  2  2  0  0  0  0
  1  6  1  0  0  0  0
  2  7  1  0  0  0  0
  4 16  1  1  0  0  0
  5  4  1  0  0  0  0
  6  8  1  1  0  0  0
  6  5  1  0  0  0  0
  7  3  2  0  0  0  0
  7  4  1  0  0  0  0
  9 12  1  0  0  0  0
  9  8  1  0  0  0  0
 11 12  2  0  0  0  0
 12 10  1  0  0  0  0
 13  9  1  0  0  0  0
 14 13  1  0  0  0  0
 15 13  1  0  0  0  0
 16 17  1  0  0  0  0
 17 18  1  0  0  0  0
 18 19  1  0  0  0  0
 21 19  1  1  0  0  0
 21 22  1  0  0  0  0
 21 20  1  0  0  0  0
 22 23  1  6  0  0  0
 22 20  1  0  0  0  0
 23 25  1  6  0  0  0
 24 29  1  0  0  0  0
 26 24  1  0  0  0  0
 26 27  1  0  0  0  0
 27 28  1  0  0  0  0
 28 30  1  1  0  0  0
 28 25  1  0  0  0  0
 29 25  1  0  0  0  0
 31 35  1  0  0  0  0
 31 34  1  1  0  0  0
 32 23  1  6  0  0  0
 32 31  1  0  0  0  0
 33 32  1  0  0  0  0
 33 31  1  0  0  0  0
 36  2  1  0  0  0  0
 37 36  1  0  0  0  0
 38 39  1  6  0  0  0
 38 37  1  0  0  0  0
 38 42  1  0  0  0  0
 42 40  2  0  0  0  0
 42 41  2  0  0  0  0
 44 43  1  1  0  0  0
 44 49  1  0  0  0  0
 45 46  1  0  0  0  0
 45 47  1  0  0  0  0
 46 43  1  0  0  0  0
 46 42  1  1  0  0  0
 47 44  1  0  0  0  0
 48 50  1  0  0  0  0
 49 51  1  6  0  0  0
 49 48  1  0  0  0  0
 51 52  1  0  0  0  0
 52 50  1  0  0  0  0
M  END
>  <MODEL>
9

>  <REMARK>
 VINA RESULT:      -7.4      2.488      8.222
  Name = 
  17 active torsions:
  status: ('A' for Active; 'I' for Inactive)
    1  A    between atoms: N_2  and  C_45
    2  A    between atoms: C_3  and  C_10
    3  A    between atoms: C_3  and  C_51
    4  A    between atoms: C_7  and  N_18
    5  A    between atoms: C_9  and  C_12
    6  A    between atoms: C_9  and  C_39
    7  A    between atoms: C_11  and  C_32
    8  A    between atoms: C_12  and  C_17
    9  A    between atoms: N_18  and  N_48
   10  A    between atoms: C_25  and  C_45
   11  A    between atoms: C_26  and  S_30
   12  A    between atoms: C_26  and  C_51
   13  A    between atoms: S_30  and  C_36
   14  A    between atoms: C_35  and  C_52
   15  A    between atoms: C_39  and  C_52
   16  A    between atoms: C_40  and  C_45
   17  A    between atoms: C_42  and  N_48
                            x       y       z     vdW  Elec       q    Type
                         _______ _______ _______ _____ _____    ______ ____

>  <TORSDO>
F 17

$$$$
