=
 OpenBabel10222420343D

 41 49  0  0  1  0  0  0  0  0999 V2000
  188.1760  178.2310  140.3630 C   0  0  0  0  0  0  0  0  0  0  0  0
  188.3760  178.3110  141.6790 C   0  0  0  0  0  3  0  0  0  0  0  0
  185.2870  178.6110  141.4260 C   0  0  0  0  0  0  0  0  0  0  0  0
  187.1760  177.8860  138.1960 C   0  0  1  0  0  3  0  0  0  0  0  0
  189.3160  178.5610  136.8070 C   0  0  0  0  0  2  0  0  0  0  0  0
  185.8350  178.9260  140.0830 C   0  0  1  0  0  3  0  0  0  0  0  0
  183.9700  178.6180  141.4500 C   0  0  0  0  0  2  0  0  0  0  0  0
  186.8780  177.8830  139.7000 C   0  0  2  0  0  3  0  0  0  0  0  0
  183.4040  178.9380  140.1170 C   0  0  0  0  0  2  0  0  0  0  0  0
  189.2910  178.4960  139.4210 C   0  0  0  0  0  2  0  0  0  0  0  0
  186.0580  178.2790  142.6340 C   0  0  0  0  0  3  0  0  0  0  0  0
  188.6310  179.6210  137.4300 O   0  0  0  0  0  0  0  0  0  0  0  0
  184.6010  178.8780  139.1810 C   0  0  0  0  0  2  0  0  0  0  0  0
  187.3900  178.1390  142.7760 C   0  0  2  0  0  3  0  0  0  0  0  0
  188.6040  178.3790  138.0890 C   0  0  2  0  0  0  0  0  0  0  0  0
  189.0450  177.0210  146.6890 C   0  0  2  0  0  3  0  0  0  0  0  0
  188.3150  178.0240  148.6580 C   0  0  0  0  0  2  0  0  0  0  0  0
  187.9340  177.8420  144.1310 C   0  0  0  0  0  0  0  0  0  0  0  0
  187.6770  177.4630  146.4860 N   0  0  0  0  0  0  0  0  0  0  0  0
  187.1320  177.7600  145.1990 C   0  0  0  0  0  3  0  0  0  0  0  0
  189.3930  177.6700  144.3230 C   0  0  0  0  0  3  0  0  0  0  0  0
  187.1580  178.0750  147.6780 C   0  0  0  0  0  2  0  0  0  0  0  0
  189.5190  177.6780  147.9040 N   0  0  0  0  0  2  0  0  0  0  0  0
  189.9330  177.3340  145.5000 C   0  0  0  0  0  0  0  0  0  0  0  0
  191.3450  177.1130  145.5510 N   0  0  0  0  0  2  0  0  0  0  0  0
  191.9550  175.9780  146.2220 C   0  0  0  0  0  1  0  0  0  0  0  0
  187.0840  176.4630  137.6640 C   0  0  0  0  0  2  0  0  0  0  0  0
  186.7700  176.4650  136.1740 C   0  0  0  0  0  2  0  0  0  0  0  0
  185.4540  177.1740  135.8880 C   0  0  0  0  0  2  0  0  0  0  0  0
  181.5800  175.5300  139.5910 C   0  0  0  0  0  2  0  0  0  0  0  0
  182.8440  175.7880  139.0270 O   0  0  0  0  0  0  0  0  0  0  0  0
  180.9770  177.3030  137.8820 C   0  0  0  0  0  2  0  0  0  0  0  0
  181.6920  176.3460  136.9270 C   0  0  1  0  0  3  0  0  0  0  0  0
  184.3020  176.1900  135.9210 C   0  0  1  0  0  3  0  0  0  0  0  0
  180.5740  176.6100  139.1890 C   0  0  0  0  0  2  0  0  0  0  0  0
  183.1580  176.7900  136.7660 C   0  0  2  0  0  0  0  0  0  0  0  0
  183.1390  176.7630  135.2290 C   0  0  0  0  0  2  0  0  0  0  0  0
  182.7460  175.5630  137.6340 C   0  0  1  0  0  0  0  0  0  0  0  0
  182.8480  174.1300  137.1680 C   0  0  0  0  0  0  0  0  0  0  0  0
  181.9330  173.6340  136.4580 O   0  0  0  0  0  0  0  0  0  0  0  0
  183.9670  173.3670  137.4800 O   0  0  0  0  0  1  0  0  0  0  0  0
  1  2  2  0  0  0  0
  2 14  1  0  0  0  0
  3  7  1  0  0  0  0
  3 11  2  0  0  0  0
  4 27  1  1  0  0  0
  4  8  1  0  0  0  0
  5 12  1  0  0  0  0
  6 13  1  6  0  0  0
  6  3  1  0  0  0  0
  8  6  1  0  0  0  0
  8  1  1  1  0  0  0
  9  7  1  0  0  0  0
 10  1  1  0  0  0  0
 11 14  1  0  0  0  0
 12 15  1  0  0  0  0
 13  9  1  0  0  0  0
 14 18  1  1  0  0  0
 15  5  1  6  0  0  0
 15  4  1  0  0  0  0
 15 10  1  0  0  0  0
 16 24  1  6  0  0  0
 16 23  1  0  0  0  0
 18 21  1  0  0  0  0
 18 20  2  0  0  0  0
 19 16  1  0  0  0  0
 19 22  1  0  0  0  0
 20 19  1  0  0  0  0
 21 24  2  0  0  0  0
 22 17  1  0  0  0  0
 23 17  1  0  0  0  0
 24 25  1  0  0  0  0
 25 26  1  0  0  0  0
 28 27  1  0  0  0  0
 29 28  1  0  0  0  0
 31 30  1  0  0  0  0
 32 35  1  0  0  0  0
 33 38  1  0  0  0  0
 33 32  1  1  0  0  0
 34 29  1  6  0  0  0
 34 36  1  0  0  0  0
 35 30  1  0  0  0  0
 36 37  1  6  0  0  0
 36 33  1  0  0  0  0
 36 38  1  0  0  0  0
 37 34  1  0  0  0  0
 38 39  1  6  0  0  0
 38 31  1  0  0  0  0
 39 41  1  0  0  0  0
 40 39  2  0  0  0  0
M  END
>  <MODEL>
1

>  <REMARK>
 VINA RESULT:      -8.9      0.000      0.000
  Name = 
  7 active torsions:
  status: ('A' for Active; 'I' for Inactive)
    1  A    between atoms: C_7  and  C_30
    2  A    between atoms: C_8  and  C_32
    3  A    between atoms: C_12  and  C_17
    4  A    between atoms: C_12  and  C_32
    5  A    between atoms: N_15  and  C_41
    6  A    between atoms: C_17  and  C_25
    7  A    between atoms: C_24  and  C_35
                            x       y       z     vdW  Elec       q    Type
                         _______ _______ _______ _____ _____    ______ ____

>  <TORSDO>
F 7

$$$$
=
 OpenBabel10222420343D

 41 49  0  0  1  0  0  0  0  0999 V2000
  185.2130  178.4850  141.7160 C   0  0  0  0  0  0  0  0  0  0  0  0
  186.0080  178.5030  142.7870 C   0  0  0  0  0  3  0  0  0  0  0  0
  183.1600  178.6760  144.0340 C   0  0  0  0  0  0  0  0  0  0  0  0
  183.3150  178.2110  140.2540 C   0  0  1  0  0  3  0  0  0  0  0  0
  184.5380  179.0550  138.0730 C   0  0  0  0  0  2  0  0  0  0  0  0
  183.0060  179.0870  142.6150 C   0  0  1  0  0  3  0  0  0  0  0  0
  182.0090  178.6210  144.6730 C   0  0  0  0  0  2  0  0  0  0  0  0
  183.7610  178.1140  141.7180 C   0  0  2  0  0  3  0  0  0  0  0  0
  180.8780  178.9860  143.7870 C   0  0  0  0  0  2  0  0  0  0  0  0
  185.7490  178.8500  140.3830 C   0  0  0  0  0  2  0  0  0  0  0  0
  184.4140  178.3150  144.7130 C   0  0  0  0  0  3  0  0  0  0  0  0
  184.2120  180.0480  139.0160 O   0  0  0  0  0  0  0  0  0  0  0  0
  181.4940  179.0310  142.3980 C   0  0  0  0  0  2  0  0  0  0  0  0
  185.6580  178.2290  144.2040 C   0  0  2  0  0  3  0  0  0  0  0  0
  184.5170  178.7730  139.5240 C   0  0  2  0  0  0  0  0  0  0  0  0
  188.9430  176.9650  146.8330 C   0  0  2  0  0  3  0  0  0  0  0  0
  189.4350  178.0980  148.8060 C   0  0  0  0  0  2  0  0  0  0  0  0
  186.7800  177.8840  145.1210 C   0  0  0  0  0  0  0  0  0  0  0  0
  187.7210  177.5900  147.3080 N   0  0  0  0  0  0  0  0  0  0  0  0
  186.6320  177.9360  146.4500 C   0  0  0  0  0  3  0  0  0  0  0  0
  188.1040  177.5140  144.5680 C   0  0  0  0  0  3  0  0  0  0  0  0
  187.9550  178.2910  148.5410 C   0  0  0  0  0  2  0  0  0  0  0  0
  190.0390  177.5730  147.5820 N   0  0  0  0  0  2  0  0  0  0  0  0
  189.1280  177.1280  145.3370 C   0  0  0  0  0  0  0  0  0  0  0  0
  190.3340  176.7140  144.6900 N   0  0  0  0  0  2  0  0  0  0  0  0
  190.3770  176.1820  143.3380 C   0  0  0  0  0  1  0  0  0  0  0  0
  183.0050  176.8160  139.7310 C   0  0  0  0  0  2  0  0  0  0  0  0
  181.5110  176.5330  139.8090 C   0  0  0  0  0  2  0  0  0  0  0  0
  181.0930  175.4810  138.7910 C   0  0  0  0  0  2  0  0  0  0  0  0
  185.3780  172.4220  136.8650 C   0  0  0  0  0  2  0  0  0  0  0  0
  184.6110  173.2250  137.7310 O   0  0  0  0  0  0  0  0  0  0  0  0
  183.0460  171.9720  135.9790 C   0  0  0  0  0  2  0  0  0  0  0  0
  182.9940  173.4980  135.8980 C   0  0  1  0  0  3  0  0  0  0  0  0
  182.0190  175.5050  137.5920 C   0  0  1  0  0  3  0  0  0  0  0  0
  184.4850  171.4530  136.0870 C   0  0  0  0  0  2  0  0  0  0  0  0
  182.3270  174.0530  137.1710 C   0  0  2  0  0  0  0  0  0  0  0  0
  181.3280  174.9480  136.4200 C   0  0  0  0  0  2  0  0  0  0  0  0
  183.8660  174.1250  136.9340 C   0  0  1  0  0  0  0  0  0  0  0  0
  184.5850  175.3610  136.4490 C   0  0  0  0  0  0  0  0  0  0  0  0
  185.4000  175.9520  137.2070 O   0  0  0  0  0  1  0  0  0  0  0  0
  184.3890  175.8270  135.1550 O   0  0  0  0  0  0  0  0  0  0  0  0
  1  2  2  0  0  0  0
  2 14  1  0  0  0  0
  3  7  1  0  0  0  0
  3 11  2  0  0  0  0
  4 27  1  6  0  0  0
  4  8  1  0  0  0  0
  5 12  1  0  0  0  0
  6 13  1  6  0  0  0
  6  3  1  0  0  0  0
  8  1  1  6  0  0  0
  8  6  1  0  0  0  0
  9  7  1  0  0  0  0
 10  1  1  0  0  0  0
 12 15  1  0  0  0  0
 13  9  1  0  0  0  0
 14 11  1  0  0  0  0
 14 18  1  1  0  0  0
 15  5  1  6  0  0  0
 15  4  1  0  0  0  0
 15 10  1  0  0  0  0
 16 24  1  6  0  0  0
 16 19  1  0  0  0  0
 16 23  1  0  0  0  0
 18 20  2  0  0  0  0
 19 22  1  0  0  0  0
 20 19  1  0  0  0  0
 21 18  1  0  0  0  0
 21 24  2  0  0  0  0
 22 17  1  0  0  0  0
 23 17  1  0  0  0  0
 25 24  1  0  0  0  0
 26 25  1  0  0  0  0
 27 28  1  0  0  0  0
 29 28  1  0  0  0  0
 30 31  1  0  0  0  0
 32 35  1  0  0  0  0
 33 32  1  1  0  0  0
 33 38  1  0  0  0  0
 33 36  1  0  0  0  0
 34 29  1  1  0  0  0
 35 30  1  0  0  0  0
 36 37  1  6  0  0  0
 36 34  1  0  0  0  0
 37 34  1  0  0  0  0
 38 39  1  6  0  0  0
 38 36  1  0  0  0  0
 38 31  1  0  0  0  0
 39 40  1  0  0  0  0
 41 39  2  0  0  0  0
M  END
>  <MODEL>
2

>  <REMARK>
 VINA RESULT:      -8.7      2.070      3.637
  Name = 
  7 active torsions:
  status: ('A' for Active; 'I' for Inactive)
    1  A    between atoms: C_7  and  C_30
    2  A    between atoms: C_8  and  C_32
    3  A    between atoms: C_12  and  C_17
    4  A    between atoms: C_12  and  C_32
    5  A    between atoms: N_15  and  C_41
    6  A    between atoms: C_17  and  C_25
    7  A    between atoms: C_24  and  C_35
                            x       y       z     vdW  Elec       q    Type
                         _______ _______ _______ _____ _____    ______ ____

>  <TORSDO>
F 7

$$$$
=
 OpenBabel10222420343D

 41 49  0  0  1  0  0  0  0  0999 V2000
  185.7480  178.4430  141.4360 C   0  0  0  0  0  0  0  0  0  0  0  0
  186.7960  178.4150  142.2610 C   0  0  0  0  0  3  0  0  0  0  0  0
  184.3810  178.6220  144.2150 C   0  0  0  0  0  0  0  0  0  0  0  0
  183.5260  178.2530  140.5190 C   0  0  1  0  0  3  0  0  0  0  0  0
  184.1590  179.1260  138.1100 C   0  0  0  0  0  2  0  0  0  0  0  0
  183.8730  179.0730  142.8950 C   0  0  1  0  0  3  0  0  0  0  0  0
  183.4370  178.5770  145.1330 C   0  0  0  0  0  2  0  0  0  0  0  0
  184.3370  178.1070  141.8130 C   0  0  2  0  0  3  0  0  0  0  0  0
  182.1240  178.9920  144.5820 C   0  0  0  0  0  2  0  0  0  0  0  0
  185.9260  178.8310  140.0160 C   0  0  0  0  0  2  0  0  0  0  0  0
  185.7580  178.2140  144.5340 C   0  0  0  0  0  3  0  0  0  0  0  0
  184.1210  180.1010  139.1250 O   0  0  0  0  0  0  0  0  0  0  0  0
  182.3550  179.0590  143.0820 C   0  0  0  0  0  2  0  0  0  0  0  0
  186.8220  178.1110  143.7140 C   0  0  2  0  0  3  0  0  0  0  0  0
  184.5110  178.8060  139.5100 C   0  0  2  0  0  0  0  0  0  0  0  0
  190.7280  177.1970  145.5050 C   0  0  2  0  0  3  0  0  0  0  0  0
  192.0520  175.4500  144.7240 C   0  0  0  0  0  2  0  0  0  0  0  0
  188.1340  177.7170  144.2970 C   0  0  0  0  0  0  0  0  0  0  0  0
  190.4110  176.9860  144.1040 N   0  0  0  0  0  0  0  0  0  0  0  0
  189.1590  177.3500  143.5190 C   0  0  0  0  0  3  0  0  0  0  0  0
  188.3130  177.6870  145.7680 C   0  0  0  0  0  3  0  0  0  0  0  0
  191.2150  175.9290  143.5540 C   0  0  0  0  0  2  0  0  0  0  0  0
  191.4830  176.0260  145.9410 N   0  0  0  0  0  2  0  0  0  0  0  0
  189.4850  177.4090  146.3490 C   0  0  0  0  0  0  0  0  0  0  0  0
  189.5630  177.4900  147.7750 N   0  0  0  0  0  2  0  0  0  0  0  0
  188.4950  178.0180  148.6070 C   0  0  0  0  0  1  0  0  0  0  0  0
  183.0480  176.8800  140.0690 C   0  0  0  0  0  2  0  0  0  0  0  0
  181.5270  176.8220  140.0430 C   0  0  0  0  0  2  0  0  0  0  0  0
  181.0300  175.8030  139.0270 C   0  0  0  0  0  2  0  0  0  0  0  0
  185.2050  172.5940  137.1070 C   0  0  0  0  0  2  0  0  0  0  0  0
  184.4720  173.4360  137.9650 O   0  0  0  0  0  0  0  0  0  0  0  0
  182.8490  172.1830  136.2670 C   0  0  0  0  0  2  0  0  0  0  0  0
  182.8340  173.7070  136.1510 C   0  0  1  0  0  3  0  0  0  0  0  0
  181.9360  175.7760  137.8130 C   0  0  1  0  0  3  0  0  0  0  0  0
  184.2760  171.6310  136.3650 C   0  0  0  0  0  2  0  0  0  0  0  0
  182.2020  174.3080  137.4220 C   0  0  2  0  0  0  0  0  0  0  0  0
  181.2130  175.2110  136.6660 C   0  0  0  0  0  2  0  0  0  0  0  0
  183.7370  174.3360  137.1590 C   0  0  1  0  0  0  0  0  0  0  0  0
  184.4790  175.5410  136.6340 C   0  0  0  0  0  0  0  0  0  0  0  0
  185.3320  176.1190  137.3600 O   0  0  0  0  0  1  0  0  0  0  0  0
  184.2610  175.9930  135.3390 O   0  0  0  0  0  0  0  0  0  0  0  0
  1  2  2  0  0  0  0
  2 14  1  0  0  0  0
  3 11  2  0  0  0  0
  3  7  1  0  0  0  0
  4 27  1  6  0  0  0
  4  8  1  0  0  0  0
  5 12  1  0  0  0  0
  6 13  1  1  0  0  0
  6  3  1  0  0  0  0
  8  1  1  6  0  0  0
  8  6  1  0  0  0  0
  9  7  1  0  0  0  0
 10  1  1  0  0  0  0
 12 15  1  0  0  0  0
 13  9  1  0  0  0  0
 14 18  1  1  0  0  0
 14 11  1  0  0  0  0
 15  5  1  6  0  0  0
 15 10  1  0  0  0  0
 15  4  1  0  0  0  0
 16 23  1  1  0  0  0
 16 24  1  0  0  0  0
 17 23  1  0  0  0  0
 18 21  1  0  0  0  0
 19 16  1  0  0  0  0
 20 19  1  0  0  0  0
 20 18  2  0  0  0  0
 21 24  2  0  0  0  0
 22 19  1  0  0  0  0
 22 17  1  0  0  0  0
 24 25  1  0  0  0  0
 25 26  1  0  0  0  0
 28 27  1  0  0  0  0
 29 28  1  0  0  0  0
 30 31  1  0  0  0  0
 32 35  1  0  0  0  0
 33 32  1  1  0  0  0
 33 38  1  0  0  0  0
 33 36  1  0  0  0  0
 34 29  1  1  0  0  0
 35 30  1  0  0  0  0
 36 37  1  6  0  0  0
 36 34  1  0  0  0  0
 37 34  1  0  0  0  0
 38 39  1  6  0  0  0
 38 36  1  0  0  0  0
 38 31  1  0  0  0  0
 39 40  1  0  0  0  0
 41 39  2  0  0  0  0
M  END
>  <MODEL>
3

>  <REMARK>
 VINA RESULT:      -8.7      1.956      3.923
  Name = 
  7 active torsions:
  status: ('A' for Active; 'I' for Inactive)
    1  A    between atoms: C_7  and  C_30
    2  A    between atoms: C_8  and  C_32
    3  A    between atoms: C_12  and  C_17
    4  A    between atoms: C_12  and  C_32
    5  A    between atoms: N_15  and  C_41
    6  A    between atoms: C_17  and  C_25
    7  A    between atoms: C_24  and  C_35
                            x       y       z     vdW  Elec       q    Type
                         _______ _______ _______ _____ _____    ______ ____

>  <TORSDO>
F 7

$$$$
=
 OpenBabel10222420343D

 41 49  0  0  1  0  0  0  0  0999 V2000
  188.3670  178.2460  140.1720 C   0  0  0  0  0  0  0  0  0  0  0  0
  188.7250  178.3230  141.4550 C   0  0  0  0  0  3  0  0  0  0  0  0
  185.6240  178.5620  141.5850 C   0  0  0  0  0  0  0  0  0  0  0  0
  187.1150  177.8930  138.1410 C   0  0  1  0  0  3  0  0  0  0  0  0
  189.0540  178.6190  136.5050 C   0  0  0  0  0  2  0  0  0  0  0  0
  185.9960  178.8950  140.1870 C   0  0  1  0  0  3  0  0  0  0  0  0
  184.3190  178.5420  141.7700 C   0  0  0  0  0  2  0  0  0  0  0  0
  187.0040  177.8760  139.6710 C   0  0  2  0  0  3  0  0  0  0  0  0
  183.5880  178.8580  140.5200 C   0  0  0  0  0  2  0  0  0  0  0  0
  189.3520  178.5390  139.1030 C   0  0  0  0  0  2  0  0  0  0  0  0
  186.5440  178.2390  142.6860 C   0  0  0  0  0  3  0  0  0  0  0  0
  188.4300  179.6620  137.2170 O   0  0  0  0  0  0  0  0  0  0  0  0
  184.6610  178.8280  139.4440 C   0  0  0  0  0  2  0  0  0  0  0  0
  187.8860  178.1250  142.6630 C   0  0  2  0  0  3  0  0  0  0  0  0
  188.5090  178.4160  137.8640 C   0  0  2  0  0  0  0  0  0  0  0  0
  189.9360  177.5040  146.4980 C   0  0  2  0  0  3  0  0  0  0  0  0
  191.6730  175.9720  146.7220 C   0  0  0  0  0  2  0  0  0  0  0  0
  188.5970  177.8310  143.9380 C   0  0  0  0  0  0  0  0  0  0  0  0
  190.5810  177.3650  145.2050 N   0  0  0  0  0  0  0  0  0  0  0  0
  189.9210  177.6350  143.9660 C   0  0  0  0  0  3  0  0  0  0  0  0
  187.8340  177.7120  145.2030 C   0  0  0  0  0  3  0  0  0  0  0  0
  191.6810  176.4440  145.2810 C   0  0  0  0  0  2  0  0  0  0  0  0
  190.4060  176.3920  147.3190 N   0  0  0  0  0  2  0  0  0  0  0  0
  188.4230  177.5190  146.3880 C   0  0  0  0  0  0  0  0  0  0  0  0
  187.5950  177.5030  147.5540 N   0  0  0  0  0  2  0  0  0  0  0  0
  187.9050  178.2410  148.7670 C   0  0  0  0  0  1  0  0  0  0  0  0
  186.9860  176.4720  137.6130 C   0  0  0  0  0  2  0  0  0  0  0  0
  186.3890  176.4710  136.2130 C   0  0  0  0  0  2  0  0  0  0  0  0
  185.1650  177.3720  136.1320 C   0  0  0  0  0  2  0  0  0  0  0  0
  181.2830  175.6280  139.7820 C   0  0  0  0  0  2  0  0  0  0  0  0
  182.5430  175.8200  139.1820 O   0  0  0  0  0  0  0  0  0  0  0  0
  180.8390  177.7160  138.4140 C   0  0  0  0  0  2  0  0  0  0  0  0
  181.3780  176.8480  137.2760 C   0  0  1  0  0  3  0  0  0  0  0  0
  183.8970  176.5430  136.0870 C   0  0  1  0  0  3  0  0  0  0  0  0
  180.4090  176.8730  139.6210 C   0  0  0  0  0  2  0  0  0  0  0  0
  182.8820  177.1300  137.0900 C   0  0  2  0  0  0  0  0  0  0  0  0
  182.7880  177.3580  135.5720 C   0  0  0  0  0  2  0  0  0  0  0  0
  182.3530  175.8380  137.7810 C   0  0  1  0  0  0  0  0  0  0  0  0
  182.2460  174.4990  137.0910 C   0  0  0  0  0  0  0  0  0  0  0  0
  181.2490  174.2440  136.3650 O   0  0  0  0  0  0  0  0  0  0  0  0
  183.2620  173.5600  137.2170 O   0  0  0  0  0  1  0  0  0  0  0  0
  1  2  2  0  0  0  0
  2 14  1  0  0  0  0
  3  7  1  0  0  0  0
  3 11  2  0  0  0  0
  4 27  1  1  0  0  0
  4  8  1  0  0  0  0
  5 12  1  0  0  0  0
  6 13  1  6  0  0  0
  6  3  1  0  0  0  0
  8  1  1  1  0  0  0
  8  6  1  0  0  0  0
  9  7  1  0  0  0  0
 10  1  1  0  0  0  0
 12 15  1  0  0  0  0
 13  9  1  0  0  0  0
 14 11  1  0  0  0  0
 14 18  1  1  0  0  0
 15  5  1  6  0  0  0
 15  4  1  0  0  0  0
 15 10  1  0  0  0  0
 16 24  1  6  0  0  0
 16 23  1  0  0  0  0
 17 23  1  0  0  0  0
 18 20  2  0  0  0  0
 18 21  1  0  0  0  0
 19 22  1  0  0  0  0
 19 16  1  0  0  0  0
 20 19  1  0  0  0  0
 21 24  2  0  0  0  0
 22 17  1  0  0  0  0
 24 25  1  0  0  0  0
 25 26  1  0  0  0  0
 28 27  1  0  0  0  0
 29 28  1  0  0  0  0
 31 30  1  0  0  0  0
 32 35  1  0  0  0  0
 33 38  1  0  0  0  0
 33 32  1  1  0  0  0
 34 29  1  1  0  0  0
 34 36  1  0  0  0  0
 35 30  1  0  0  0  0
 36 37  1  6  0  0  0
 36 33  1  0  0  0  0
 36 38  1  0  0  0  0
 37 34  1  0  0  0  0
 38 39  1  6  0  0  0
 38 31  1  0  0  0  0
 39 41  1  0  0  0  0
 40 39  2  0  0  0  0
M  END
>  <MODEL>
4

>  <REMARK>
 VINA RESULT:      -8.5      0.649      1.791
  Name = 
  7 active torsions:
  status: ('A' for Active; 'I' for Inactive)
    1  A    between atoms: C_7  and  C_30
    2  A    between atoms: C_8  and  C_32
    3  A    between atoms: C_12  and  C_17
    4  A    between atoms: C_12  and  C_32
    5  A    between atoms: N_15  and  C_41
    6  A    between atoms: C_17  and  C_25
    7  A    between atoms: C_24  and  C_35
                            x       y       z     vdW  Elec       q    Type
                         _______ _______ _______ _____ _____    ______ ____

>  <TORSDO>
F 7

$$$$
=
 OpenBabel10222420343D

 41 49  0  0  1  0  0  0  0  0999 V2000
  187.9990  178.2590  140.2310 C   0  0  0  0  0  0  0  0  0  0  0  0
  188.1900  178.3350  141.5490 C   0  0  0  0  0  3  0  0  0  0  0  0
  185.0940  178.5280  141.2840 C   0  0  0  0  0  0  0  0  0  0  0  0
  187.0210  177.8980  138.0560 C   0  0  1  0  0  3  0  0  0  0  0  0
  189.1410  178.6600  136.6820 C   0  0  0  0  0  2  0  0  0  0  0  0
  185.6360  178.8740  139.9460 C   0  0  1  0  0  3  0  0  0  0  0  0
  183.7770  178.4880  141.3020 C   0  0  0  0  0  2  0  0  0  0  0  0
  186.7160  177.8710  139.5590 C   0  0  2  0  0  3  0  0  0  0  0  0
  183.2060  178.8000  139.9700 C   0  0  0  0  0  2  0  0  0  0  0  0
  189.1070  178.5720  139.2960 C   0  0  0  0  0  2  0  0  0  0  0  0
  185.8710  178.2130  142.4930 C   0  0  0  0  0  3  0  0  0  0  0  0
  188.4170  179.6900  137.3120 O   0  0  0  0  0  0  0  0  0  0  0  0
  184.4080  178.7910  139.0390 C   0  0  0  0  0  2  0  0  0  0  0  0
  187.2070  178.1180  142.6390 C   0  0  2  0  0  3  0  0  0  0  0  0
  188.4310  178.4420  137.9600 C   0  0  2  0  0  0  0  0  0  0  0  0
  188.8580  177.0170  146.5580 C   0  0  2  0  0  3  0  0  0  0  0  0
  188.2270  178.1220  148.5060 C   0  0  0  0  0  2  0  0  0  0  0  0
  187.7550  177.8290  143.9940 C   0  0  0  0  0  0  0  0  0  0  0  0
  187.5170  177.5380  146.3640 N   0  0  0  0  0  0  0  0  0  0  0  0
  186.9690  177.8290  145.0770 C   0  0  0  0  0  3  0  0  0  0  0  0
  189.2040  177.5710  144.1680 C   0  0  0  0  0  3  0  0  0  0  0  0
  187.0590  178.2170  147.5440 C   0  0  0  0  0  2  0  0  0  0  0  0
  189.3940  177.6790  147.7450 N   0  0  0  0  0  2  0  0  0  0  0  0
  189.7430  177.2370  145.3460 C   0  0  0  0  0  0  0  0  0  0  0  0
  191.1390  176.9300  145.3820 N   0  0  0  0  0  2  0  0  0  0  0  0
  191.7780  175.9980  144.4680 C   0  0  0  0  0  1  0  0  0  0  0  0
  186.9810  176.4780  137.5120 C   0  0  0  0  0  2  0  0  0  0  0  0
  185.9550  176.3590  136.3930 C   0  0  0  0  0  2  0  0  0  0  0  0
  185.7030  174.9040  136.0260 C   0  0  0  0  0  2  0  0  0  0  0  0
  181.6830  171.2200  134.7230 C   0  0  0  0  0  2  0  0  0  0  0  0
  182.5500  172.3240  134.6140 O   0  0  0  0  0  0  0  0  0  0  0  0
  183.5450  170.5090  136.2890 C   0  0  0  0  0  2  0  0  0  0  0  0
  183.2670  171.8730  136.9230 C   0  0  1  0  0  3  0  0  0  0  0  0
  184.4060  174.4170  136.6410 C   0  0  1  0  0  3  0  0  0  0  0  0
  182.3830  170.0430  135.4040 C   0  0  0  0  0  2  0  0  0  0  0  0
  184.2470  172.9120  136.3420 C   0  0  2  0  0  0  0  0  0  0  0  0
  184.6940  173.4530  137.7110 C   0  0  0  0  0  2  0  0  0  0  0  0
  182.7500  172.8430  135.9140 C   0  0  1  0  0  0  0  0  0  0  0  0
  181.6780  173.7590  136.4530 C   0  0  0  0  0  0  0  0  0  0  0  0
  181.2340  174.6960  135.7380 O   0  0  0  0  0  0  0  0  0  0  0  0
  181.1440  173.5480  137.7180 O   0  0  0  0  0  1  0  0  0  0  0  0
  1  2  2  0  0  0  0
  2 14  1  0  0  0  0
  3  7  1  0  0  0  0
  3 11  2  0  0  0  0
  4 27  1  1  0  0  0
  4  8  1  0  0  0  0
  5 12  1  0  0  0  0
  6 13  1  6  0  0  0
  6  3  1  0  0  0  0
  8  6  1  0  0  0  0
  8  1  1  1  0  0  0
  9  7  1  0  0  0  0
 10  1  1  0  0  0  0
 11 14  1  0  0  0  0
 12 15  1  0  0  0  0
 13  9  1  0  0  0  0
 14 18  1  1  0  0  0
 15  5  1  6  0  0  0
 15  4  1  0  0  0  0
 15 10  1  0  0  0  0
 16 24  1  6  0  0  0
 16 23  1  0  0  0  0
 18 21  1  0  0  0  0
 18 20  2  0  0  0  0
 19 16  1  0  0  0  0
 19 22  1  0  0  0  0
 20 19  1  0  0  0  0
 21 24  2  0  0  0  0
 22 17  1  0  0  0  0
 23 17  1  0  0  0  0
 24 25  1  0  0  0  0
 26 25  1  0  0  0  0
 28 27  1  0  0  0  0
 29 28  1  0  0  0  0
 30 35  1  0  0  0  0
 31 30  1  0  0  0  0
 31 38  1  0  0  0  0
 33 32  1  6  0  0  0
 34 29  1  6  0  0  0
 34 37  1  0  0  0  0
 35 32  1  0  0  0  0
 36 34  1  0  0  0  0
 36 33  1  0  0  0  0
 36 37  1  1  0  0  0
 38 36  1  0  0  0  0
 38 39  1  1  0  0  0
 38 33  1  0  0  0  0
 39 41  1  0  0  0  0
 40 39  2  0  0  0  0
M  END
>  <MODEL>
5

>  <REMARK>
 VINA RESULT:      -8.4      1.534      2.637
  Name = 
  7 active torsions:
  status: ('A' for Active; 'I' for Inactive)
    1  A    between atoms: C_7  and  C_30
    2  A    between atoms: C_8  and  C_32
    3  A    between atoms: C_12  and  C_17
    4  A    between atoms: C_12  and  C_32
    5  A    between atoms: N_15  and  C_41
    6  A    between atoms: C_17  and  C_25
    7  A    between atoms: C_24  and  C_35
                            x       y       z     vdW  Elec       q    Type
                         _______ _______ _______ _____ _____    ______ ____

>  <TORSDO>
F 7

$$$$
=
 OpenBabel10222420343D

 41 49  0  0  1  0  0  0  0  0999 V2000
  188.0030  178.2260  140.2070 C   0  0  0  0  0  0  0  0  0  0  0  0
  188.2360  178.3150  141.5180 C   0  0  0  0  0  3  0  0  0  0  0  0
  185.1470  178.6580  141.3390 C   0  0  0  0  0  0  0  0  0  0  0  0
  186.9440  177.8770  138.0690 C   0  0  1  0  0  3  0  0  0  0  0  0
  189.0580  178.5080  136.6210 C   0  0  0  0  0  2  0  0  0  0  0  0
  185.6660  178.9530  139.9790 C   0  0  1  0  0  3  0  0  0  0  0  0
  183.8310  178.6840  141.3950 C   0  0  0  0  0  2  0  0  0  0  0  0
  186.6830  177.8920  139.5800 C   0  0  2  0  0  3  0  0  0  0  0  0
  183.2370  179.0010  140.0740 C   0  0  0  0  0  2  0  0  0  0  0  0
  189.0970  178.4670  139.2360 C   0  0  0  0  0  2  0  0  0  0  0  0
  185.9430  178.3260  142.5300 C   0  0  0  0  0  3  0  0  0  0  0  0
  188.4040  179.5840  137.2520 O   0  0  0  0  0  0  0  0  0  0  0  0
  184.4090  178.9160  139.1090 C   0  0  0  0  0  2  0  0  0  0  0  0
  187.2760  178.1670  142.6400 C   0  0  2  0  0  3  0  0  0  0  0  0
  188.3760  178.3480  137.9230 C   0  0  2  0  0  0  0  0  0  0  0  0
  189.0130  177.0590  146.5200 C   0  0  2  0  0  3  0  0  0  0  0  0
  188.3420  178.0840  148.4980 C   0  0  0  0  0  2  0  0  0  0  0  0
  187.8490  177.8740  143.9840 C   0  0  0  0  0  0  0  0  0  0  0  0
  187.6450  177.5150  146.3470 N   0  0  0  0  0  0  0  0  0  0  0  0
  187.0720  177.8090  145.0720 C   0  0  0  0  0  3  0  0  0  0  0  0
  189.3100  177.6870  144.1420 C   0  0  0  0  0  3  0  0  0  0  0  0
  187.1630  178.1410  147.5470 C   0  0  0  0  0  2  0  0  0  0  0  0
  189.5230  177.7190  147.7180 N   0  0  0  0  0  2  0  0  0  0  0  0
  189.8750  177.3530  145.3080 C   0  0  0  0  0  0  0  0  0  0  0  0
  191.2850  177.1160  145.3260 N   0  0  0  0  0  2  0  0  0  0  0  0
  191.9060  176.0300  146.0660 C   0  0  0  0  0  1  0  0  0  0  0  0
  186.8180  176.4520  137.5520 C   0  0  0  0  0  2  0  0  0  0  0  0
  185.6110  176.3170  136.6340 C   0  0  0  0  0  2  0  0  0  0  0  0
  184.6160  175.3000  137.1750 C   0  0  0  0  0  2  0  0  0  0  0  0
  179.1670  174.4500  136.1670 C   0  0  0  0  0  2  0  0  0  0  0  0
  180.5370  174.6720  135.9280 O   0  0  0  0  0  0  0  0  0  0  0  0
  180.1660  173.6040  138.3380 C   0  0  0  0  0  2  0  0  0  0  0  0
  180.8160  174.9880  138.3510 C   0  0  1  0  0  3  0  0  0  0  0  0
  183.3060  175.9740  137.5310 C   0  0  1  0  0  3  0  0  0  0  0  0
  178.9670  173.5440  137.3830 C   0  0  0  0  0  2  0  0  0  0  0  0
  182.2290  174.8910  137.7440 C   0  0  2  0  0  0  0  0  0  0  0  0
  182.9230  175.6230  138.9050 C   0  0  0  0  0  2  0  0  0  0  0  0
  181.0250  175.5000  136.9660 C   0  0  1  0  0  0  0  0  0  0  0  0
  180.7760  176.9830  136.8270 C   0  0  0  0  0  0  0  0  0  0  0  0
  180.2650  177.6260  137.7810 O   0  0  0  0  0  1  0  0  0  0  0  0
  181.1500  177.6530  135.6690 O   0  0  0  0  0  0  0  0  0  0  0  0
  1  2  2  0  0  0  0
  2 14  1  0  0  0  0
  3  7  1  0  0  0  0
  3 11  2  0  0  0  0
  4 27  1  1  0  0  0
  4  8  1  0  0  0  0
  5 12  1  0  0  0  0
  6 13  1  6  0  0  0
  6  3  1  0  0  0  0
  8  6  1  0  0  0  0
  8  1  1  1  0  0  0
  9  7  1  0  0  0  0
 10  1  1  0  0  0  0
 11 14  1  0  0  0  0
 12 15  1  0  0  0  0
 13  9  1  0  0  0  0
 14 18  1  1  0  0  0
 15  5  1  6  0  0  0
 15  4  1  0  0  0  0
 15 10  1  0  0  0  0
 16 24  1  6  0  0  0
 16 23  1  0  0  0  0
 18 21  1  0  0  0  0
 18 20  2  0  0  0  0
 19 16  1  0  0  0  0
 19 22  1  0  0  0  0
 20 19  1  0  0  0  0
 21 24  2  0  0  0  0
 22 17  1  0  0  0  0
 23 17  1  0  0  0  0
 24 25  1  0  0  0  0
 25 26  1  0  0  0  0
 28 29  1  0  0  0  0
 28 27  1  0  0  0  0
 30 35  1  0  0  0  0
 31 30  1  0  0  0  0
 31 38  1  0  0  0  0
 33 32  1  6  0  0  0
 34 29  1  1  0  0  0
 34 36  1  0  0  0  0
 34 37  1  0  0  0  0
 35 32  1  0  0  0  0
 36 33  1  0  0  0  0
 36 37  1  1  0  0  0
 38 39  1  6  0  0  0
 38 36  1  0  0  0  0
 38 33  1  0  0  0  0
 39 40  1  0  0  0  0
 41 39  2  0  0  0  0
M  END
>  <MODEL>
6

>  <REMARK>
 VINA RESULT:      -8.4      1.380      2.024
  Name = 
  7 active torsions:
  status: ('A' for Active; 'I' for Inactive)
    1  A    between atoms: C_7  and  C_30
    2  A    between atoms: C_8  and  C_32
    3  A    between atoms: C_12  and  C_17
    4  A    between atoms: C_12  and  C_32
    5  A    between atoms: N_15  and  C_41
    6  A    between atoms: C_17  and  C_25
    7  A    between atoms: C_24  and  C_35
                            x       y       z     vdW  Elec       q    Type
                         _______ _______ _______ _____ _____    ______ ____

>  <TORSDO>
F 7

$$$$
=
 OpenBabel10222420343D

 41 49  0  0  1  0  0  0  0  0999 V2000
  191.5080  176.6810  139.4100 C   0  0  0  0  0  0  0  0  0  0  0  0
  191.1550  177.1300  140.6160 C   0  0  0  0  0  3  0  0  0  0  0  0
  188.7440  177.9650  138.8320 C   0  0  0  0  0  0  0  0  0  0  0  0
  191.4490  175.8840  137.1350 C   0  0  1  0  0  3  0  0  0  0  0  0
  194.0630  175.6290  136.8760 C   0  0  0  0  0  2  0  0  0  0  0  0
  189.8720  177.7200  137.8980 C   0  0  1  0  0  3  0  0  0  0  0  0
  187.6210  178.2510  138.2060 C   0  0  0  0  0  2  0  0  0  0  0  0
  190.5690  176.4180  138.2720 C   0  0  2  0  0  3  0  0  0  0  0  0
  187.8020  178.2430  136.7340 C   0  0  0  0  0  2  0  0  0  0  0  0
  192.9320  176.4000  139.1050 C   0  0  0  0  0  2  0  0  0  0  0  0
  188.7850  177.8800  140.3000 C   0  0  0  0  0  3  0  0  0  0  0  0
  193.5730  176.9490  136.8800 O   0  0  0  0  0  0  0  0  0  0  0  0
  189.1850  177.6460  136.5340 C   0  0  0  0  0  2  0  0  0  0  0  0
  189.8070  177.5200  141.0990 C   0  0  2  0  0  3  0  0  0  0  0  0
  192.8660  176.0120  137.6540 C   0  0  2  0  0  0  0  0  0  0  0  0
  189.1140  177.8780  145.4230 C   0  0  2  0  0  3  0  0  0  0  0  0
  190.4370  176.7530  146.9710 C   0  0  0  0  0  2  0  0  0  0  0  0
  189.6050  177.5600  142.5750 C   0  0  0  0  0  0  0  0  0  0  0  0
  190.4220  177.6710  144.8280 N   0  0  0  0  0  0  0  0  0  0  0  0
  190.6430  177.6230  143.4170 C   0  0  0  0  0  3  0  0  0  0  0  0
  188.2370  177.4890  143.1380 C   0  0  0  0  0  3  0  0  0  0  0  0
  191.2980  176.9970  145.7460 C   0  0  0  0  0  2  0  0  0  0  0  0
  189.0480  177.0100  146.5950 N   0  0  0  0  0  2  0  0  0  0  0  0
  187.9870  177.5900  144.4490 C   0  0  0  0  0  0  0  0  0  0  0  0
  186.6220  177.5920  144.8730 N   0  0  0  0  0  2  0  0  0  0  0  0
  185.5510  178.2330  144.1280 C   0  0  0  0  0  1  0  0  0  0  0  0
  191.1220  174.4180  136.8940 C   0  0  0  0  0  2  0  0  0  0  0  0
  189.8530  174.2790  136.0640 C   0  0  0  0  0  2  0  0  0  0  0  0
  188.7220  173.6710  136.8800 C   0  0  0  0  0  2  0  0  0  0  0  0
  183.2660  174.5000  137.8680 C   0  0  0  0  0  2  0  0  0  0  0  0
  184.5590  173.9490  137.9650 O   0  0  0  0  0  0  0  0  0  0  0  0
  184.6610  176.4170  136.9720 C   0  0  0  0  0  2  0  0  0  0  0  0
  185.1940  175.3330  136.0340 C   0  0  1  0  0  3  0  0  0  0  0  0
  187.4370  173.6540  136.0770 C   0  0  1  0  0  3  0  0  0  0  0  0
  183.3350  176.0080  137.6220 C   0  0  0  0  0  2  0  0  0  0  0  0
  186.4960  174.7510  136.6180 C   0  0  2  0  0  0  0  0  0  0  0  0
  187.3070  174.9070  135.3210 C   0  0  0  0  0  2  0  0  0  0  0  0
  185.1390  173.9880  136.6760 C   0  0  1  0  0  0  0  0  0  0  0  0
  184.7550  172.8810  135.7230 C   0  0  0  0  0  0  0  0  0  0  0  0
  184.2710  173.1620  134.5950 O   0  0  0  0  0  0  0  0  0  0  0  0
  184.9750  171.5520  136.0650 O   0  0  0  0  0  1  0  0  0  0  0  0
  1  2  2  0  0  0  0
  2 14  1  0  0  0  0
  3 11  2  0  0  0  0
  4 27  1  1  0  0  0
  4 15  1  0  0  0  0
  4  8  1  0  0  0  0
  5 12  1  0  0  0  0
  6 13  1  6  0  0  0
  6  8  1  0  0  0  0
  6  3  1  0  0  0  0
  7  3  1  0  0  0  0
  8  1  1  1  0  0  0
  9  7  1  0  0  0  0
 10  1  1  0  0  0  0
 11 14  1  0  0  0  0
 12 15  1  0  0  0  0
 13  9  1  0  0  0  0
 14 18  1  1  0  0  0
 15  5  1  6  0  0  0
 15 10  1  0  0  0  0
 16 24  1  6  0  0  0
 16 23  1  0  0  0  0
 18 21  1  0  0  0  0
 18 20  2  0  0  0  0
 19 16  1  0  0  0  0
 19 22  1  0  0  0  0
 20 19  1  0  0  0  0
 21 24  2  0  0  0  0
 22 17  1  0  0  0  0
 23 17  1  0  0  0  0
 24 25  1  0  0  0  0
 26 25  1  0  0  0  0
 28 29  1  0  0  0  0
 28 27  1  0  0  0  0
 30 31  1  0  0  0  0
 32 35  1  0  0  0  0
 33 36  1  0  0  0  0
 33 38  1  0  0  0  0
 33 32  1  1  0  0  0
 34 36  1  0  0  0  0
 34 29  1  1  0  0  0
 35 30  1  0  0  0  0
 36 37  1  6  0  0  0
 36 38  1  0  0  0  0
 37 34  1  0  0  0  0
 38 39  1  6  0  0  0
 38 31  1  0  0  0  0
 39 41  1  0  0  0  0
 40 39  2  0  0  0  0
M  END
>  <MODEL>
7

>  <REMARK>
 VINA RESULT:      -8.2      2.516      4.027
  Name = 
  7 active torsions:
  status: ('A' for Active; 'I' for Inactive)
    1  A    between atoms: C_7  and  C_30
    2  A    between atoms: C_8  and  C_32
    3  A    between atoms: C_12  and  C_17
    4  A    between atoms: C_12  and  C_32
    5  A    between atoms: N_15  and  C_41
    6  A    between atoms: C_17  and  C_25
    7  A    between atoms: C_24  and  C_35
                            x       y       z     vdW  Elec       q    Type
                         _______ _______ _______ _____ _____    ______ ____

>  <TORSDO>
F 7

$$$$
=
 OpenBabel10222420343D

 41 49  0  0  1  0  0  0  0  0999 V2000
  188.2680  176.8910  144.0310 C   0  0  0  0  0  0  0  0  0  0  0  0
  186.9650  177.0420  143.7890 C   0  0  0  0  0  3  0  0  0  0  0  0
  187.2710  178.1790  146.6710 C   0  0  0  0  0  0  0  0  0  0  0  0
  190.4950  177.1410  144.9220 C   0  0  1  0  0  3  0  0  0  0  0  0
  191.5810  175.2320  143.4600 C   0  0  0  0  0  2  0  0  0  0  0  0
  188.4710  177.3350  146.4400 C   0  0  1  0  0  3  0  0  0  0  0  0
  187.3040  178.7990  147.8340 C   0  0  0  0  0  2  0  0  0  0  0  0
  189.0520  177.6410  145.0660 C   0  0  2  0  0  3  0  0  0  0  0  0
  188.5410  178.4770  148.5860 C   0  0  0  0  0  2  0  0  0  0  0  0
  189.0660  175.9190  143.2470 C   0  0  0  0  0  2  0  0  0  0  0  0
  186.1500  178.3850  145.7420 C   0  0  0  0  0  3  0  0  0  0  0  0
  190.7460  174.8010  144.5080 O   0  0  0  0  0  0  0  0  0  0  0  0
  189.4090  177.7430  147.5770 C   0  0  0  0  0  2  0  0  0  0  0  0
  185.9890  177.9110  144.4920 C   0  0  2  0  0  3  0  0  0  0  0  0
  190.4150  176.0250  143.9020 C   0  0  2  0  0  0  0  0  0  0  0  0
  182.3830  179.0620  142.2600 C   0  0  2  0  0  3  0  0  0  0  0  0
  180.2520  178.4940  143.0030 C   0  0  0  0  0  2  0  0  0  0  0  0
  184.7260  178.2300  143.7680 C   0  0  0  0  0  0  0  0  0  0  0  0
  182.4320  178.9300  143.7050 N   0  0  0  0  0  0  0  0  0  0  0  0
  183.6280  178.6210  144.4240 C   0  0  0  0  0  3  0  0  0  0  0  0
  184.6570  178.0770  142.2950 C   0  0  0  0  0  3  0  0  0  0  0  0
  181.1360  178.6000  144.2300 C   0  0  0  0  0  2  0  0  0  0  0  0
  181.1250  178.4590  141.8300 N   0  0  0  0  0  2  0  0  0  0  0  0
  183.5760  178.4130  141.5830 C   0  0  0  0  0  0  0  0  0  0  0  0
  183.6490  178.3020  140.1590 N   0  0  0  0  0  2  0  0  0  0  0  0
  183.8460  179.4400  139.2760 C   0  0  0  0  0  1  0  0  0  0  0  0
  191.3640  178.2680  144.3830 C   0  0  0  0  0  2  0  0  0  0  0  0
  190.6700  178.9760  143.2270 C   0  0  0  0  0  2  0  0  0  0  0  0
  191.1020  178.4000  141.8860 C   0  0  0  0  0  2  0  0  0  0  0  0
  188.7220  179.1940  136.8730 C   0  0  0  0  0  2  0  0  0  0  0  0
  189.2290  179.4780  138.1550 O   0  0  0  0  0  0  0  0  0  0  0  0
  190.3300  177.2580  137.1810 C   0  0  0  0  0  2  0  0  0  0  0  0
  189.5340  177.0580  138.4710 C   0  0  1  0  0  3  0  0  0  0  0  0
  189.9050  177.8570  141.1300 C   0  0  1  0  0  3  0  0  0  0  0  0
  189.5750  178.1330  136.1730 C   0  0  0  0  0  2  0  0  0  0  0  0
  190.2640  177.7580  139.6330 C   0  0  2  0  0  0  0  0  0  0  0  0
  190.2290  176.5390  140.5690 C   0  0  0  0  0  2  0  0  0  0  0  0
  188.9830  178.3500  138.9730 C   0  0  1  0  0  0  0  0  0  0  0  0
  187.5990  178.2270  139.5640 C   0  0  0  0  0  0  0  0  0  0  0  0
  186.7570  177.4520  139.0360 O   0  0  0  0  0  0  0  0  0  0  0  0
  187.2600  178.9290  140.7130 O   0  0  0  0  0  1  0  0  0  0  0  0
  2  1  2  0  0  0  0
  2 14  1  0  0  0  0
  3  7  1  0  0  0  0
  4 27  1  6  0  0  0
  4  8  1  0  0  0  0
  5 15  1  0  0  0  0
  5 12  1  0  0  0  0
  6  3  1  0  0  0  0
  6 13  1  1  0  0  0
  7  9  1  0  0  0  0
  8  1  1  6  0  0  0
  8  6  1  0  0  0  0
 10  1  1  0  0  0  0
 11  3  2  0  0  0  0
 13  9  1  0  0  0  0
 14 18  1  1  0  0  0
 14 11  1  0  0  0  0
 15 10  1  6  0  0  0
 15 12  1  0  0  0  0
 15  4  1  0  0  0  0
 16 24  1  6  0  0  0
 16 19  1  0  0  0  0
 17 22  1  0  0  0  0
 18 20  2  0  0  0  0
 19 22  1  0  0  0  0
 19 20  1  0  0  0  0
 21 18  1  0  0  0  0
 23 16  1  0  0  0  0
 23 17  1  0  0  0  0
 24 21  2  0  0  0  0
 25 24  1  0  0  0  0
 26 25  1  0  0  0  0
 28 27  1  0  0  0  0
 29 28  1  0  0  0  0
 30 31  1  0  0  0  0
 31 38  1  0  0  0  0
 33 32  1  6  0  0  0
 33 38  1  0  0  0  0
 33 36  1  0  0  0  0
 34 29  1  1  0  0  0
 35 30  1  0  0  0  0
 35 32  1  0  0  0  0
 36 37  1  1  0  0  0
 36 34  1  0  0  0  0
 37 34  1  0  0  0  0
 38 39  1  1  0  0  0
 38 36  1  0  0  0  0
 39 41  1  0  0  0  0
 40 39  2  0  0  0  0
M  END
>  <MODEL>
8

>  <REMARK>
 VINA RESULT:      -7.5      3.592      7.505
  Name = 
  7 active torsions:
  status: ('A' for Active; 'I' for Inactive)
    1  A    between atoms: C_7  and  C_30
    2  A    between atoms: C_8  and  C_32
    3  A    between atoms: C_12  and  C_17
    4  A    between atoms: C_12  and  C_32
    5  A    between atoms: N_15  and  C_41
    6  A    between atoms: C_17  and  C_25
    7  A    between atoms: C_24  and  C_35
                            x       y       z     vdW  Elec       q    Type
                         _______ _______ _______ _____ _____    ______ ____

>  <TORSDO>
F 7

$$$$
=
 OpenBabel10222420343D

 41 49  0  0  1  0  0  0  0  0999 V2000
  190.9000  176.4840  139.0410 C   0  0  0  0  0  0  0  0  0  0  0  0
  190.3750  176.9470  140.1770 C   0  0  0  0  0  3  0  0  0  0  0  0
  188.4170  178.0340  138.0140 C   0  0  0  0  0  0  0  0  0  0  0  0
  191.1860  175.7280  136.7690 C   0  0  1  0  0  3  0  0  0  0  0  0
  193.7680  175.2280  136.9790 C   0  0  0  0  0  2  0  0  0  0  0  0
  189.6700  177.6950  137.2920 C   0  0  1  0  0  3  0  0  0  0  0  0
  187.4580  178.4340  137.2040 C   0  0  0  0  0  2  0  0  0  0  0  0
  190.1650  176.3270  137.7450 C   0  0  2  0  0  3  0  0  0  0  0  0
  187.9050  178.4300  135.7900 C   0  0  0  0  0  2  0  0  0  0  0  0
  192.3240  176.0720  138.9900 C   0  0  0  0  0  2  0  0  0  0  0  0
  188.1810  177.9240  139.4620 C   0  0  0  0  0  3  0  0  0  0  0  0
  193.4090  176.5890  136.9360 O   0  0  0  0  0  0  0  0  0  0  0  0
  189.2410  177.7060  135.8240 C   0  0  0  0  0  2  0  0  0  0  0  0
  189.0030  177.4570  140.4210 C   0  0  2  0  0  3  0  0  0  0  0  0
  192.4890  175.7130  137.5400 C   0  0  2  0  0  0  0  0  0  0  0  0
  187.7240  177.3260  144.6220 C   0  0  2  0  0  3  0  0  0  0  0  0
  185.9130  178.5710  145.3880 C   0  0  0  0  0  2  0  0  0  0  0  0
  188.5390  177.4960  141.8360 C   0  0  0  0  0  0  0  0  0  0  0  0
  186.8170  177.5330  143.5070 N   0  0  0  0  0  0  0  0  0  0  0  0
  187.2360  177.5070  142.1410 C   0  0  0  0  0  3  0  0  0  0  0  0
  189.5270  177.5630  142.9390 C   0  0  0  0  0  3  0  0  0  0  0  0
  185.6630  178.2810  143.9210 C   0  0  0  0  0  2  0  0  0  0  0  0
  187.3130  178.2570  145.6690 N   0  0  0  0  0  2  0  0  0  0  0  0
  189.1750  177.5290  144.2290 C   0  0  0  0  0  0  0  0  0  0  0  0
  190.2170  177.5160  145.2080 N   0  0  0  0  0  2  0  0  0  0  0  0
  191.6290  177.5960  144.8770 C   0  0  0  0  0  1  0  0  0  0  0  0
  190.7760  174.3030  136.4280 C   0  0  0  0  0  2  0  0  0  0  0  0
  189.4230  174.2850  135.7300 C   0  0  0  0  0  2  0  0  0  0  0  0
  188.3190  173.8270  136.6730 C   0  0  0  0  0  2  0  0  0  0  0  0
  182.9440  174.8110  137.9220 C   0  0  0  0  0  2  0  0  0  0  0  0
  184.2330  174.2470  137.9800 O   0  0  0  0  0  0  0  0  0  0  0  0
  184.3070  176.6410  136.8180 C   0  0  0  0  0  2  0  0  0  0  0  0
  184.7690  175.4880  135.9260 C   0  0  1  0  0  3  0  0  0  0  0  0
  186.9890  173.7780  135.9500 C   0  0  1  0  0  3  0  0  0  0  0  0
  183.0170  176.2990  137.5720 C   0  0  0  0  0  2  0  0  0  0  0  0
  186.0960  174.9240  136.4700 C   0  0  2  0  0  0  0  0  0  0  0  0
  186.8290  174.9800  135.1190 C   0  0  0  0  0  2  0  0  0  0  0  0
  184.7360  174.1890  136.6590 C   0  0  1  0  0  0  0  0  0  0  0  0
  184.2810  173.0280  135.8080 C   0  0  0  0  0  0  0  0  0  0  0  0
  183.7570  173.2400  134.6820 O   0  0  0  0  0  0  0  0  0  0  0  0
  184.4780  171.7210  136.2380 O   0  0  0  0  0  1  0  0  0  0  0  0
  1  2  2  0  0  0  0
  2 14  1  0  0  0  0
  3 11  2  0  0  0  0
  4 27  1  1  0  0  0
  4 15  1  0  0  0  0
  4  8  1  0  0  0  0
  6 13  1  6  0  0  0
  6  8  1  0  0  0  0
  6  3  1  0  0  0  0
  7  3  1  0  0  0  0
  8  1  1  1  0  0  0
  9 13  1  0  0  0  0
  9  7  1  0  0  0  0
 10  1  1  0  0  0  0
 11 14  1  0  0  0  0
 12  5  1  0  0  0  0
 12 15  1  0  0  0  0
 14 18  1  1  0  0  0
 15  5  1  6  0  0  0
 15 10  1  0  0  0  0
 16 24  1  6  0  0  0
 16 23  1  0  0  0  0
 17 23  1  0  0  0  0
 18 20  2  0  0  0  0
 18 21  1  0  0  0  0
 19 22  1  0  0  0  0
 19 16  1  0  0  0  0
 20 19  1  0  0  0  0
 21 24  2  0  0  0  0
 22 17  1  0  0  0  0
 24 25  1  0  0  0  0
 26 25  1  0  0  0  0
 28 27  1  0  0  0  0
 28 29  1  0  0  0  0
 30 31  1  0  0  0  0
 32 35  1  0  0  0  0
 33 36  1  0  0  0  0
 33 38  1  0  0  0  0
 33 32  1  1  0  0  0
 34 36  1  0  0  0  0
 34 29  1  1  0  0  0
 35 30  1  0  0  0  0
 36 37  1  6  0  0  0
 36 38  1  0  0  0  0
 37 34  1  0  0  0  0
 38 39  1  6  0  0  0
 38 31  1  0  0  0  0
 39 41  1  0  0  0  0
 40 39  2  0  0  0  0
M  END
>  <MODEL>
9

>  <REMARK>
 VINA RESULT:      -7.4      2.414      3.756
  Name = 
  7 active torsions:
  status: ('A' for Active; 'I' for Inactive)
    1  A    between atoms: C_7  and  C_30
    2  A    between atoms: C_8  and  C_32
    3  A    between atoms: C_12  and  C_17
    4  A    between atoms: C_12  and  C_32
    5  A    between atoms: N_15  and  C_41
    6  A    between atoms: C_17  and  C_25
    7  A    between atoms: C_24  and  C_35
                            x       y       z     vdW  Elec       q    Type
                         _______ _______ _______ _____ _____    ______ ____

>  <TORSDO>
F 7

$$$$
