=
 OpenBabel10222415133D

 34 35  0  0  1  0  0  0  0  0999 V2000
  186.1640  178.2240  142.2990 C   0  0  0  0  0  2  0  0  0  0  0  0
  185.1180  179.2050  142.7930 C   0  0  2  0  0  3  0  0  0  0  0  0
  185.5690  178.0750  143.6900 C   0  0  2  0  0  3  0  0  0  0  0  0
  181.8900  178.9200  140.7210 N   0  0  0  0  0  0  0  0  0  0  0  0
  181.3550  178.7900  142.9950 C   0  0  0  0  0  0  0  0  0  0  0  0
  183.1880  178.8700  145.0420 Cl  0  0  0  0  0  0  0  0  0  0  0  0
  182.7130  178.8820  143.3370 C   0  0  0  0  0  0  0  0  0  0  0  0
  183.2270  178.9670  140.9680 C   0  0  0  0  0  0  0  0  0  0  0  0
  183.6840  178.9960  142.3190 C   0  0  0  0  0  0  0  0  0  0  0  0
  180.9860  178.8410  141.6960 N   0  0  0  0  0  0  0  0  0  0  0  0
  184.1090  178.9020  139.7900 C   0  0  0  0  0  0  0  0  0  0  0  0
  184.1470  177.7120  138.9960 N   0  0  0  0  0  2  0  0  0  0  0  0
  184.7720  179.9180  139.4480 O   0  0  0  0  0  0  0  0  0  0  0  0
  184.8300  177.6420  137.7140 C   0  0  0  0  0  2  0  0  0  0  0  0
  186.3400  177.5730  137.8920 C   0  0  0  0  0  2  0  0  0  0  0  0
  187.0690  178.1390  136.6790 C   0  0  0  0  0  2  0  0  0  0  0  0
  189.0040  179.0750  137.2340 C   0  0  0  0  0  1  0  0  0  0  0  0
  187.6590  179.3690  136.9910 O   0  0  0  0  0  0  0  0  0  0  0  0
  180.2970  178.6280  144.0370 C   0  0  0  0  0  2  0  0  0  0  0  0
  179.0230  178.3360  143.4010 N   0  0  0  0  0  1  0  0  0  0  0  0
  186.5440  178.6070  144.7230 C   0  0  0  0  0  2  0  0  0  0  0  0
  187.4310  177.4850  145.2500 C   0  0  1  0  0  3  0  0  0  0  0  0
  189.1760  176.5760  143.6720 N   0  0  0  0  0  2  0  0  0  0  0  0
  188.7920  177.5570  144.6410 C   0  0  0  0  0  0  0  0  0  0  0  0
  189.5980  178.4700  144.9750 O   0  0  0  0  0  0  0  0  0  0  0  0
  190.4660  176.5900  142.9880 C   0  0  1  0  0  3  0  0  0  0  0  0
  191.4960  175.8130  143.7910 C   0  0  0  0  0  1  0  0  0  0  0  0
  190.3600  176.0650  141.6220 N   0  0  0  0  0  2  0  0  0  0  0  0
  188.9570  177.3800  140.2980 O   0  0  0  0  0  1  0  0  0  0  0  0
  190.2860  177.1460  140.6430 C   0  0  2  0  0  3  0  0  0  0  0  0
  190.5310  175.6890  138.7540 O   0  0  0  0  0  1  0  0  0  0  0  0
  191.0920  176.7910  139.4040 C   0  0  0  0  0  2  0  0  0  0  0  0
  187.5270  177.5360  146.7170 C   0  0  0  0  0  0  0  0  0  0  0  0
  187.5980  177.5750  147.9210 C   0  0  0  0  0  3  0  0  0  0  0  0
  1  2  1  0  0  0  0
  1  3  1  0  0  0  0
  2  9  1  6  0  0  0
  2  3  1  0  0  0  0
  3 21  1  1  0  0  0
  4  8  2  0  0  0  0
  4 10  1  0  0  0  0
  5  7  1  0  0  0  0
  5 19  1  0  0  0  0
  7  6  1  0  0  0  0
  8  9  1  0  0  0  0
  9  7  2  0  0  0  0
 10  5  2  0  0  0  0
 11  8  1  0  0  0  0
 12 11  1  0  0  0  0
 13 11  2  0  0  0  0
 14 15  1  0  0  0  0
 14 12  1  0  0  0  0
 16 18  1  0  0  0  0
 16 15  1  0  0  0  0
 18 17  1  0  0  0  0
 20 19  1  0  0  0  0
 22 21  1  6  0  0  0
 22 33  1  0  0  0  0
 23 24  1  0  0  0  0
 24 25  2  0  0  0  0
 24 22  1  0  0  0  0
 26 23  1  0  0  0  0
 26 27  1  1  0  0  0
 28 26  1  0  0  0  0
 30 29  1  6  0  0  0
 30 28  1  0  0  0  0
 31 32  1  0  0  0  0
 32 30  1  0  0  0  0
 33 34  3  0  0  0  0
M  END
>  <MODEL>
1

>  <REMARK>
 VINA RESULT:      -7.3      0.000      0.000
  Name = 
  15 active torsions:
  status: ('A' for Active; 'I' for Inactive)
    1  A    between atoms: C_2  and  C_16
    2  A    between atoms: C_3  and  C_8
    3  A    between atoms: C_3  and  O_20
    4  A    between atoms: C_4  and  C_8
    5  A    between atoms: C_4  and  N_17
    6  A    between atoms: N_6  and  C_14
    7  A    between atoms: C_7  and  C_31
    8  A    between atoms: C_9  and  C_31
    9  A    between atoms: C_10  and  C_26
   10  A    between atoms: C_13  and  C_22
   11  A    between atoms: C_13  and  N_25
   12  A    between atoms: C_14  and  N_25
   13  A    between atoms: C_24  and  C_29
   14  A    between atoms: C_28  and  C_34
   15  A    between atoms: C_31  and  C_34
                            x       y       z     vdW  Elec       q    Type
                         _______ _______ _______ _____ _____    ______ ____

>  <TORSDO>
F 15

$$$$
=
 OpenBabel10222415133D

 34 35  0  0  1  0  0  0  0  0999 V2000
  186.0820  178.6100  141.8240 C   0  0  0  0  0  2  0  0  0  0  0  0
  184.9040  179.3380  142.4430 C   0  0  2  0  0  3  0  0  0  0  0  0
  185.5000  178.1400  143.1470 C   0  0  2  0  0  3  0  0  0  0  0  0
  181.8250  178.8100  140.1990 N   0  0  0  0  0  0  0  0  0  0  0  0
  181.1770  178.6450  142.4410 C   0  0  0  0  0  0  0  0  0  0  0  0
  182.8840  178.8660  144.5850 Cl  0  0  0  0  0  0  0  0  0  0  0  0
  182.5040  178.8390  142.8560 C   0  0  0  0  0  0  0  0  0  0  0  0
  183.1390  178.9560  140.5190 C   0  0  0  0  0  0  0  0  0  0  0  0
  183.5170  179.0220  141.8930 C   0  0  0  0  0  0  0  0  0  0  0  0
  180.8770  178.6660  141.1230 N   0  0  0  0  0  0  0  0  0  0  0  0
  184.0870  178.9550  139.3910 C   0  0  0  0  0  0  0  0  0  0  0  0
  184.3720  177.7320  138.7040 N   0  0  0  0  0  2  0  0  0  0  0  0
  184.5890  180.0410  138.9940 O   0  0  0  0  0  0  0  0  0  0  0  0
  185.1310  177.6820  137.4650 C   0  0  0  0  0  2  0  0  0  0  0  0
  186.5860  177.3160  137.7200 C   0  0  0  0  0  2  0  0  0  0  0  0
  187.5300  178.3790  137.1690 C   0  0  0  0  0  2  0  0  0  0  0  0
  189.2580  178.2020  138.5520 C   0  0  0  0  0  1  0  0  0  0  0  0
  188.1900  179.0380  138.2130 O   0  0  0  0  0  0  0  0  0  0  0  0
  180.0780  178.4070  143.4250 C   0  0  0  0  0  2  0  0  0  0  0  0
  179.2470  179.5950  143.5270 N   0  0  0  0  0  1  0  0  0  0  0  0
  186.3820  178.6110  144.2880 C   0  0  0  0  0  2  0  0  0  0  0  0
  186.9690  177.4220  145.0380 C   0  0  1  0  0  3  0  0  0  0  0  0
  189.4650  177.7800  145.0260 N   0  0  0  0  0  2  0  0  0  0  0  0
  188.3250  177.0830  144.5140 C   0  0  0  0  0  0  0  0  0  0  0  0
  188.4680  176.1940  143.6290 O   0  0  0  0  0  0  0  0  0  0  0  0
  190.8340  177.4870  144.6100 C   0  0  1  0  0  3  0  0  0  0  0  0
  191.3140  178.5250  143.6090 C   0  0  0  0  0  1  0  0  0  0  0  0
  191.7420  177.4050  145.7590 N   0  0  0  0  0  2  0  0  0  0  0  0
  190.7760  177.3590  147.8830 O   0  0  0  0  0  1  0  0  0  0  0  0
  191.1880  176.5640  146.8160 C   0  0  2  0  0  3  0  0  0  0  0  0
  192.6730  174.7800  146.2130 O   0  0  0  0  0  1  0  0  0  0  0  0
  192.2230  175.5550  147.2850 C   0  0  0  0  0  2  0  0  0  0  0  0
  187.0330  177.6910  146.4830 C   0  0  0  0  0  0  0  0  0  0  0  0
  187.0880  177.9200  147.6670 C   0  0  0  0  0  3  0  0  0  0  0  0
  1  2  1  0  0  0  0
  1  3  1  0  0  0  0
  2  9  1  6  0  0  0
  2  3  1  0  0  0  0
  3 21  1  1  0  0  0
  4  8  2  0  0  0  0
  4 10  1  0  0  0  0
  5  7  1  0  0  0  0
  5 19  1  0  0  0  0
  7  6  1  0  0  0  0
  8  9  1  0  0  0  0
  9  7  2  0  0  0  0
 10  5  2  0  0  0  0
 11  8  1  0  0  0  0
 12 11  1  0  0  0  0
 13 11  2  0  0  0  0
 14 15  1  0  0  0  0
 14 12  1  0  0  0  0
 16 15  1  0  0  0  0
 16 18  1  0  0  0  0
 18 17  1  0  0  0  0
 19 20  1  0  0  0  0
 22 21  1  6  0  0  0
 22 33  1  0  0  0  0
 24 23  1  0  0  0  0
 24 22  1  0  0  0  0
 25 24  2  0  0  0  0
 26 27  1  6  0  0  0
 26 23  1  0  0  0  0
 26 28  1  0  0  0  0
 28 30  1  0  0  0  0
 30 32  1  0  0  0  0
 30 29  1  1  0  0  0
 31 32  1  0  0  0  0
 33 34  3  0  0  0  0
M  END
>  <MODEL>
2

>  <REMARK>
 VINA RESULT:      -7.2      1.736      2.880
  Name = 
  15 active torsions:
  status: ('A' for Active; 'I' for Inactive)
    1  A    between atoms: C_2  and  C_16
    2  A    between atoms: C_3  and  C_8
    3  A    between atoms: C_3  and  O_20
    4  A    between atoms: C_4  and  C_8
    5  A    between atoms: C_4  and  N_17
    6  A    between atoms: N_6  and  C_14
    7  A    between atoms: C_7  and  C_31
    8  A    between atoms: C_9  and  C_31
    9  A    between atoms: C_10  and  C_26
   10  A    between atoms: C_13  and  C_22
   11  A    between atoms: C_13  and  N_25
   12  A    between atoms: C_14  and  N_25
   13  A    between atoms: C_24  and  C_29
   14  A    between atoms: C_28  and  C_34
   15  A    between atoms: C_31  and  C_34
                            x       y       z     vdW  Elec       q    Type
                         _______ _______ _______ _____ _____    ______ ____

>  <TORSDO>
F 15

$$$$
=
 OpenBabel10222415133D

 34 35  0  0  1  0  0  0  0  0999 V2000
  187.7900  178.3160  141.7200 C   0  0  0  0  0  2  0  0  0  0  0  0
  188.0310  177.0960  142.5900 C   0  0  2  0  0  3  0  0  0  0  0  0
  187.1290  178.2040  143.0840 C   0  0  2  0  0  3  0  0  0  0  0  0
  191.6950  176.7490  143.7050 N   0  0  0  0  0  0  0  0  0  0  0  0
  190.3310  176.9170  145.5980 C   0  0  0  0  0  0  0  0  0  0  0  0
  187.6010  177.2430  145.5380 Cl  0  0  0  0  0  0  0  0  0  0  0  0
  189.1950  177.0620  144.7870 C   0  0  0  0  0  0  0  0  0  0  0  0
  190.6510  176.9290  142.8520 C   0  0  0  0  0  0  0  0  0  0  0  0
  189.3320  177.0480  143.3830 C   0  0  0  0  0  0  0  0  0  0  0  0
  191.5430  176.7360  145.0280 N   0  0  0  0  0  0  0  0  0  0  0  0
  190.9930  177.0680  141.4260 C   0  0  0  0  0  0  0  0  0  0  0  0
  190.2640  176.3230  140.4450 N   0  0  0  0  0  2  0  0  0  0  0  0
  191.8780  177.8930  141.0720 O   0  0  0  0  0  0  0  0  0  0  0  0
  190.4010  176.5560  139.0170 C   0  0  0  0  0  2  0  0  0  0  0  0
  189.5240  177.7120  138.5550 C   0  0  0  0  0  2  0  0  0  0  0  0
  189.3650  177.7160  137.0390 C   0  0  0  0  0  2  0  0  0  0  0  0
  187.2290  178.2690  137.2880 C   0  0  0  0  0  1  0  0  0  0  0  0
  188.4090  178.6610  136.6490 O   0  0  0  0  0  0  0  0  0  0  0  0
  190.2370  176.9660  147.0880 C   0  0  0  0  0  2  0  0  0  0  0  0
  191.5700  176.9170  147.6650 N   0  0  0  0  0  1  0  0  0  0  0  0
  185.6790  177.7890  142.9160 C   0  0  0  0  0  2  0  0  0  0  0  0
  184.7470  178.8830  143.4220 C   0  0  1  0  0  3  0  0  0  0  0  0
  182.2320  178.9290  143.6080 N   0  0  0  0  0  2  0  0  0  0  0  0
  183.3970  178.7580  142.7960 C   0  0  0  0  0  0  0  0  0  0  0  0
  183.2820  178.5020  141.5640 O   0  0  0  0  0  0  0  0  0  0  0  0
  180.8730  178.8720  143.0780 C   0  0  1  0  0  3  0  0  0  0  0  0
  179.8980  178.4650  144.1710 C   0  0  0  0  0  1  0  0  0  0  0  0
  180.4760  180.1460  142.4680 N   0  0  0  0  0  2  0  0  0  0  0  0
  179.9570  178.6650  140.7400 O   0  0  0  0  0  1  0  0  0  0  0  0
  179.6920  179.9310  141.2550 C   0  0  2  0  0  3  0  0  0  0  0  0
  181.0990  180.5890  139.4270 O   0  0  0  0  0  1  0  0  0  0  0  0
  180.0220  180.9940  140.2190 C   0  0  0  0  0  2  0  0  0  0  0  0
  184.6330  178.8410  144.8880 C   0  0  0  0  0  0  0  0  0  0  0  0
  184.5330  178.8090  146.0900 C   0  0  0  0  0  3  0  0  0  0  0  0
  1  2  1  0  0  0  0
  1  3  1  0  0  0  0
  2  3  1  0  0  0  0
  2  9  1  1  0  0  0
  3 21  1  6  0  0  0
  4 10  1  0  0  0  0
  5 19  1  0  0  0  0
  7  6  1  0  0  0  0
  7  5  1  0  0  0  0
  8  9  1  0  0  0  0
  8  4  2  0  0  0  0
  9  7  2  0  0  0  0
 10  5  2  0  0  0  0
 11  8  1  0  0  0  0
 12 11  1  0  0  0  0
 13 11  2  0  0  0  0
 14 12  1  0  0  0  0
 15 14  1  0  0  0  0
 16 15  1  0  0  0  0
 18 16  1  0  0  0  0
 18 17  1  0  0  0  0
 19 20  1  0  0  0  0
 22 21  1  6  0  0  0
 22 33  1  0  0  0  0
 24 22  1  0  0  0  0
 24 23  1  0  0  0  0
 25 24  2  0  0  0  0
 26 23  1  0  0  0  0
 26 27  1  1  0  0  0
 28 26  1  0  0  0  0
 30 29  1  6  0  0  0
 30 28  1  0  0  0  0
 31 32  1  0  0  0  0
 32 30  1  0  0  0  0
 33 34  3  0  0  0  0
M  END
>  <MODEL>
3

>  <REMARK>
 VINA RESULT:      -6.9      2.367      7.683
  Name = 
  15 active torsions:
  status: ('A' for Active; 'I' for Inactive)
    1  A    between atoms: C_2  and  C_16
    2  A    between atoms: C_3  and  C_8
    3  A    between atoms: C_3  and  O_20
    4  A    between atoms: C_4  and  C_8
    5  A    between atoms: C_4  and  N_17
    6  A    between atoms: N_6  and  C_14
    7  A    between atoms: C_7  and  C_31
    8  A    between atoms: C_9  and  C_31
    9  A    between atoms: C_10  and  C_26
   10  A    between atoms: C_13  and  C_22
   11  A    between atoms: C_13  and  N_25
   12  A    between atoms: C_14  and  N_25
   13  A    between atoms: C_24  and  C_29
   14  A    between atoms: C_28  and  C_34
   15  A    between atoms: C_31  and  C_34
                            x       y       z     vdW  Elec       q    Type
                         _______ _______ _______ _____ _____    ______ ____

>  <TORSDO>
F 15

$$$$
=
 OpenBabel10222415133D

 34 35  0  0  1  0  0  0  0  0999 V2000
  186.0040  178.5170  142.0210 C   0  0  0  0  0  2  0  0  0  0  0  0
  184.8670  179.3140  142.6310 C   0  0  2  0  0  3  0  0  0  0  0  0
  185.4450  178.1350  143.3810 C   0  0  2  0  0  3  0  0  0  0  0  0
  181.7060  178.7990  140.5020 N   0  0  0  0  0  0  0  0  0  0  0  0
  181.1280  178.6990  142.7670 C   0  0  0  0  0  0  0  0  0  0  0  0
  182.9090  178.9330  144.8490 Cl  0  0  0  0  0  0  0  0  0  0  0  0
  182.4720  178.8750  143.1340 C   0  0  0  0  0  0  0  0  0  0  0  0
  183.0320  178.9260  140.7750 C   0  0  0  0  0  0  0  0  0  0  0  0
  183.4570  179.0140  142.1340 C   0  0  0  0  0  0  0  0  0  0  0  0
  180.7860  178.6970  141.4600 N   0  0  0  0  0  0  0  0  0  0  0  0
  183.9420  178.8780  139.6180 C   0  0  0  0  0  0  0  0  0  0  0  0
  184.1710  177.6360  138.9440 N   0  0  0  0  0  2  0  0  0  0  0  0
  184.4600  179.9430  139.1850 O   0  0  0  0  0  0  0  0  0  0  0  0
  184.8870  177.5450  137.6820 C   0  0  0  0  0  2  0  0  0  0  0  0
  184.0840  176.7740  136.6430 C   0  0  0  0  0  2  0  0  0  0  0  0
  184.5550  175.3280  136.5380 C   0  0  0  0  0  2  0  0  0  0  0  0
  184.9480  173.4470  137.6490 C   0  0  0  0  0  1  0  0  0  0  0  0
  184.1580  174.6000  137.6650 O   0  0  0  0  0  0  0  0  0  0  0  0
  180.0580  178.5070  143.7910 C   0  0  0  0  0  2  0  0  0  0  0  0
  179.2400  179.7050  143.8760 N   0  0  0  0  0  1  0  0  0  0  0  0
  186.3720  178.6350  144.4730 C   0  0  0  0  0  2  0  0  0  0  0  0
  187.0140  177.4650  145.2080 C   0  0  1  0  0  3  0  0  0  0  0  0
  189.4860  177.9460  145.0630 N   0  0  0  0  0  2  0  0  0  0  0  0
  188.3630  177.1640  144.6450 C   0  0  0  0  0  0  0  0  0  0  0  0
  188.5150  176.2310  143.8070 O   0  0  0  0  0  0  0  0  0  0  0  0
  190.8490  177.6980  144.6040 C   0  0  1  0  0  3  0  0  0  0  0  0
  191.3190  178.8340  143.7100 C   0  0  0  0  0  1  0  0  0  0  0  0
  191.7710  177.4980  145.7280 N   0  0  0  0  0  2  0  0  0  0  0  0
  190.7750  177.2140  147.8200 O   0  0  0  0  0  1  0  0  0  0  0  0
  191.2330  176.5400  146.6900 C   0  0  2  0  0  3  0  0  0  0  0  0
  192.6050  174.6970  146.0030 O   0  0  0  0  0  1  0  0  0  0  0  0
  192.3000  175.5310  147.0820 C   0  0  0  0  0  2  0  0  0  0  0  0
  187.1150  177.7410  146.6500 C   0  0  0  0  0  0  0  0  0  0  0  0
  187.2010  177.9610  147.8330 C   0  0  0  0  0  3  0  0  0  0  0  0
  1  2  1  0  0  0  0
  1  3  1  0  0  0  0
  2  9  1  6  0  0  0
  2  3  1  0  0  0  0
  3 21  1  1  0  0  0
  4  8  2  0  0  0  0
  4 10  1  0  0  0  0
  5  7  1  0  0  0  0
  5 19  1  0  0  0  0
  7  6  1  0  0  0  0
  8  9  1  0  0  0  0
  9  7  2  0  0  0  0
 10  5  2  0  0  0  0
 11  8  1  0  0  0  0
 12 11  1  0  0  0  0
 13 11  2  0  0  0  0
 14 12  1  0  0  0  0
 15 14  1  0  0  0  0
 16 15  1  0  0  0  0
 16 18  1  0  0  0  0
 17 18  1  0  0  0  0
 19 20  1  0  0  0  0
 22 21  1  6  0  0  0
 22 33  1  0  0  0  0
 24 23  1  0  0  0  0
 24 22  1  0  0  0  0
 25 24  2  0  0  0  0
 26 27  1  1  0  0  0
 26 23  1  0  0  0  0
 26 28  1  0  0  0  0
 28 30  1  0  0  0  0
 30 32  1  0  0  0  0
 30 29  1  1  0  0  0
 31 32  1  0  0  0  0
 33 34  3  0  0  0  0
M  END
>  <MODEL>
4

>  <REMARK>
 VINA RESULT:      -6.9      2.196      3.313
  Name = 
  15 active torsions:
  status: ('A' for Active; 'I' for Inactive)
    1  A    between atoms: C_2  and  C_16
    2  A    between atoms: C_3  and  C_8
    3  A    between atoms: C_3  and  O_20
    4  A    between atoms: C_4  and  C_8
    5  A    between atoms: C_4  and  N_17
    6  A    between atoms: N_6  and  C_14
    7  A    between atoms: C_7  and  C_31
    8  A    between atoms: C_9  and  C_31
    9  A    between atoms: C_10  and  C_26
   10  A    between atoms: C_13  and  C_22
   11  A    between atoms: C_13  and  N_25
   12  A    between atoms: C_14  and  N_25
   13  A    between atoms: C_24  and  C_29
   14  A    between atoms: C_28  and  C_34
   15  A    between atoms: C_31  and  C_34
                            x       y       z     vdW  Elec       q    Type
                         _______ _______ _______ _____ _____    ______ ____

>  <TORSDO>
F 15

$$$$
=
 OpenBabel10222415133D

 34 35  0  0  1  0  0  0  0  0999 V2000
  187.5410  177.4610  142.1250 C   0  0  0  0  0  2  0  0  0  0  0  0
  187.3960  176.8370  143.5000 C   0  0  2  0  0  3  0  0  0  0  0  0
  186.6290  178.0950  143.1610 C   0  0  2  0  0  3  0  0  0  0  0  0
  190.7290  177.0560  145.4050 N   0  0  0  0  0  0  0  0  0  0  0  0
  188.9980  177.7790  146.8030 C   0  0  0  0  0  0  0  0  0  0  0  0
  186.3530  177.9350  146.0690 Cl  0  0  0  0  0  0  0  0  0  0  0  0
  188.0640  177.5910  145.7730 C   0  0  0  0  0  0  0  0  0  0  0  0
  189.8950  176.8920  144.3430 C   0  0  0  0  0  0  0  0  0  0  0  0
  188.4970  177.1180  144.5160 C   0  0  0  0  0  0  0  0  0  0  0  0
  190.2990  177.4770  146.5930 N   0  0  0  0  0  0  0  0  0  0  0  0
  190.5350  176.5650  143.0580 C   0  0  0  0  0  0  0  0  0  0  0  0
  191.1100  177.6090  142.2650 N   0  0  0  0  0  2  0  0  0  0  0  0
  190.6340  175.3620  142.6960 O   0  0  0  0  0  0  0  0  0  0  0  0
  191.9320  177.3470  141.0950 C   0  0  0  0  0  2  0  0  0  0  0  0
  191.1130  177.4220  139.8130 C   0  0  0  0  0  2  0  0  0  0  0  0
  191.4180  176.2470  138.8910 C   0  0  0  0  0  2  0  0  0  0  0  0
  192.9630  176.3600  137.3020 C   0  0  0  0  0  1  0  0  0  0  0  0
  191.6350  176.6940  137.5830 O   0  0  0  0  0  0  0  0  0  0  0  0
  188.5910  178.3170  148.1360 C   0  0  0  0  0  2  0  0  0  0  0  0
  187.9380  177.2720  148.9070 N   0  0  0  0  0  1  0  0  0  0  0  0
  185.1860  177.7420  142.8560 C   0  0  0  0  0  2  0  0  0  0  0  0
  184.3610  179.0030  142.6310 C   0  0  1  0  0  3  0  0  0  0  0  0
  182.7370  178.8200  140.7100 N   0  0  0  0  0  2  0  0  0  0  0  0
  184.0400  179.1730  141.1830 C   0  0  0  0  0  0  0  0  0  0  0  0
  184.9070  179.6230  140.3820 O   0  0  0  0  0  0  0  0  0  0  0  0
  182.3150  178.9940  139.3230 C   0  0  1  0  0  3  0  0  0  0  0  0
  182.5460  177.7130  138.5380 C   0  0  0  0  0  1  0  0  0  0  0  0
  180.9140  179.4200  139.2330 N   0  0  0  0  0  2  0  0  0  0  0  0
  179.3210  178.1530  140.3760 O   0  0  0  0  0  1  0  0  0  0  0  0
  180.2150  179.2140  140.4990 C   0  0  2  0  0  3  0  0  0  0  0  0
  179.8730  180.8950  142.1750 O   0  0  0  0  0  1  0  0  0  0  0  0
  179.4730  180.4780  140.9030 C   0  0  0  0  0  2  0  0  0  0  0  0
  183.1240  178.9710  143.4260 C   0  0  0  0  0  0  0  0  0  0  0  0
  182.1120  178.9390  144.0830 C   0  0  0  0  0  3  0  0  0  0  0  0
  1  3  1  0  0  0  0
  1  2  1  0  0  0  0
  2  9  1  1  0  0  0
  3 21  1  6  0  0  0
  3  2  1  0  0  0  0
  4 10  1  0  0  0  0
  5 19  1  0  0  0  0
  7  6  1  0  0  0  0
  7  5  1  0  0  0  0
  8  9  1  0  0  0  0
  8  4  2  0  0  0  0
  9  7  2  0  0  0  0
 10  5  2  0  0  0  0
 11  8  1  0  0  0  0
 12 11  1  0  0  0  0
 13 11  2  0  0  0  0
 14 12  1  0  0  0  0
 15 14  1  0  0  0  0
 16 15  1  0  0  0  0
 17 18  1  0  0  0  0
 18 16  1  0  0  0  0
 19 20  1  0  0  0  0
 22 21  1  6  0  0  0
 22 33  1  0  0  0  0
 23 24  1  0  0  0  0
 24 22  1  0  0  0  0
 25 24  2  0  0  0  0
 26 27  1  6  0  0  0
 26 23  1  0  0  0  0
 28 26  1  0  0  0  0
 28 30  1  0  0  0  0
 30 29  1  6  0  0  0
 30 32  1  0  0  0  0
 32 31  1  0  0  0  0
 33 34  3  0  0  0  0
M  END
>  <MODEL>
5

>  <REMARK>
 VINA RESULT:      -6.8      2.455      7.731
  Name = 
  15 active torsions:
  status: ('A' for Active; 'I' for Inactive)
    1  A    between atoms: C_2  and  C_16
    2  A    between atoms: C_3  and  C_8
    3  A    between atoms: C_3  and  O_20
    4  A    between atoms: C_4  and  C_8
    5  A    between atoms: C_4  and  N_17
    6  A    between atoms: N_6  and  C_14
    7  A    between atoms: C_7  and  C_31
    8  A    between atoms: C_9  and  C_31
    9  A    between atoms: C_10  and  C_26
   10  A    between atoms: C_13  and  C_22
   11  A    between atoms: C_13  and  N_25
   12  A    between atoms: C_14  and  N_25
   13  A    between atoms: C_24  and  C_29
   14  A    between atoms: C_28  and  C_34
   15  A    between atoms: C_31  and  C_34
                            x       y       z     vdW  Elec       q    Type
                         _______ _______ _______ _____ _____    ______ ____

>  <TORSDO>
F 15

$$$$
=
 OpenBabel10222415133D

 34 35  0  0  1  0  0  0  0  0999 V2000
  187.9520  178.3850  142.1610 C   0  0  0  0  0  2  0  0  0  0  0  0
  187.8750  177.2480  143.1620 C   0  0  2  0  0  3  0  0  0  0  0  0
  186.8310  178.3420  143.1870 C   0  0  2  0  0  3  0  0  0  0  0  0
  190.8840  177.3610  145.5540 N   0  0  0  0  0  0  0  0  0  0  0  0
  188.9190  177.1470  146.8050 C   0  0  0  0  0  0  0  0  0  0  0  0
  186.3860  177.0580  145.7390 Cl  0  0  0  0  0  0  0  0  0  0  0  0
  188.1480  177.1900  145.6330 C   0  0  0  0  0  0  0  0  0  0  0  0
  190.2070  177.4570  144.3790 C   0  0  0  0  0  0  0  0  0  0  0  0
  188.7860  177.3260  144.3820 C   0  0  0  0  0  0  0  0  0  0  0  0
  190.2660  177.2040  146.7240 N   0  0  0  0  0  0  0  0  0  0  0  0
  191.0130  177.7760  143.1880 C   0  0  0  0  0  0  0  0  0  0  0  0
  190.9820  176.9030  142.0550 N   0  0  0  0  0  2  0  0  0  0  0  0
  191.6710  178.8510  143.1470 O   0  0  0  0  0  0  0  0  0  0  0  0
  191.5830  177.2490  140.7770 C   0  0  0  0  0  2  0  0  0  0  0  0
  190.7490  176.7310  139.6130 C   0  0  0  0  0  2  0  0  0  0  0  0
  189.8110  177.8080  139.0800 C   0  0  0  0  0  2  0  0  0  0  0  0
  190.5350  176.7870  137.2470 C   0  0  0  0  0  1  0  0  0  0  0  0
  189.4760  177.5510  137.7460 O   0  0  0  0  0  0  0  0  0  0  0  0
  188.2830  177.0440  148.1530 C   0  0  0  0  0  2  0  0  0  0  0  0
  188.1860  178.3660  148.7500 N   0  0  0  0  0  1  0  0  0  0  0  0
  185.5580  177.8420  142.5310 C   0  0  0  0  0  2  0  0  0  0  0  0
  184.4640  178.8990  142.6090 C   0  0  1  0  0  3  0  0  0  0  0  0
  183.8370  178.2650  140.2500 N   0  0  0  0  0  2  0  0  0  0  0  0
  183.4270  178.6650  141.5610 C   0  0  0  0  0  0  0  0  0  0  0  0
  182.2010  178.8200  141.8250 O   0  0  0  0  0  0  0  0  0  0  0  0
  182.8960  177.9680  139.1740 C   0  0  1  0  0  3  0  0  0  0  0  0
  182.5470  179.2380  138.4150 C   0  0  0  0  0  1  0  0  0  0  0  0
  183.4180  176.9400  138.2670 N   0  0  0  0  0  2  0  0  0  0  0  0
  183.8440  176.9270  135.9730 O   0  0  0  0  0  1  0  0  0  0  0  0
  184.1870  177.5350  137.1780 C   0  0  2  0  0  3  0  0  0  0  0  0
  186.2470  178.6080  137.7760 O   0  0  0  0  0  1  0  0  0  0  0  0
  185.6760  177.3780  137.4370 C   0  0  0  0  0  2  0  0  0  0  0  0
  183.8450  178.9170  143.9440 C   0  0  0  0  0  0  0  0  0  0  0  0
  183.3300  178.9320  145.0350 C   0  0  0  0  0  3  0  0  0  0  0  0
  1  2  1  0  0  0  0
  1  3  1  0  0  0  0
  2  3  1  0  0  0  0
  2  9  1  1  0  0  0
  3 21  1  6  0  0  0
  4 10  1  0  0  0  0
  5 19  1  0  0  0  0
  7  6  1  0  0  0  0
  7  5  1  0  0  0  0
  8  9  1  0  0  0  0
  8  4  2  0  0  0  0
  9  7  2  0  0  0  0
 10  5  2  0  0  0  0
 11  8  1  0  0  0  0
 12 11  1  0  0  0  0
 13 11  2  0  0  0  0
 14 12  1  0  0  0  0
 15 14  1  0  0  0  0
 16 15  1  0  0  0  0
 17 18  1  0  0  0  0
 18 16  1  0  0  0  0
 19 20  1  0  0  0  0
 22 21  1  1  0  0  0
 22 33  1  0  0  0  0
 23 24  1  0  0  0  0
 24 25  2  0  0  0  0
 24 22  1  0  0  0  0
 26 27  1  6  0  0  0
 26 23  1  0  0  0  0
 28 26  1  0  0  0  0
 30 29  1  6  0  0  0
 30 32  1  0  0  0  0
 30 28  1  0  0  0  0
 32 31  1  0  0  0  0
 33 34  3  0  0  0  0
M  END
>  <MODEL>
6

>  <REMARK>
 VINA RESULT:      -6.7      2.158      6.805
  Name = 
  15 active torsions:
  status: ('A' for Active; 'I' for Inactive)
    1  A    between atoms: C_2  and  C_16
    2  A    between atoms: C_3  and  C_8
    3  A    between atoms: C_3  and  O_20
    4  A    between atoms: C_4  and  C_8
    5  A    between atoms: C_4  and  N_17
    6  A    between atoms: N_6  and  C_14
    7  A    between atoms: C_7  and  C_31
    8  A    between atoms: C_9  and  C_31
    9  A    between atoms: C_10  and  C_26
   10  A    between atoms: C_13  and  C_22
   11  A    between atoms: C_13  and  N_25
   12  A    between atoms: C_14  and  N_25
   13  A    between atoms: C_24  and  C_29
   14  A    between atoms: C_28  and  C_34
   15  A    between atoms: C_31  and  C_34
                            x       y       z     vdW  Elec       q    Type
                         _______ _______ _______ _____ _____    ______ ____

>  <TORSDO>
F 15

$$$$
=
 OpenBabel10222415133D

 34 35  0  0  1  0  0  0  0  0999 V2000
  186.0880  178.3550  142.2180 C   0  0  0  0  0  2  0  0  0  0  0  0
  185.0110  179.2510  142.7990 C   0  0  2  0  0  3  0  0  0  0  0  0
  185.5360  178.0880  143.6090 C   0  0  2  0  0  3  0  0  0  0  0  0
  181.7740  178.8420  140.7630 N   0  0  0  0  0  0  0  0  0  0  0  0
  181.2540  178.8090  143.0440 C   0  0  0  0  0  0  0  0  0  0  0  0
  183.0990  179.0010  145.0740 Cl  0  0  0  0  0  0  0  0  0  0  0  0
  182.6140  178.9300  143.3720 C   0  0  0  0  0  0  0  0  0  0  0  0
  183.1120  178.9130  140.9990 C   0  0  0  0  0  0  0  0  0  0  0  0
  183.5760  179.0070  142.3450 C   0  0  0  0  0  0  0  0  0  0  0  0
  180.8770  178.7980  141.7460 N   0  0  0  0  0  0  0  0  0  0  0  0
  183.9870  178.8040  139.8190 C   0  0  0  0  0  0  0  0  0  0  0  0
  183.9150  177.6420  138.9860 N   0  0  0  0  0  2  0  0  0  0  0  0
  184.7460  179.7620  139.5120 O   0  0  0  0  0  0  0  0  0  0  0  0
  184.5910  177.5500  137.7030 C   0  0  0  0  0  2  0  0  0  0  0  0
  184.7160  176.1030  137.2430 C   0  0  0  0  0  2  0  0  0  0  0  0
  183.5960  175.2410  137.8150 C   0  0  0  0  0  2  0  0  0  0  0  0
  184.1670  173.1650  137.2740 C   0  0  0  0  0  1  0  0  0  0  0  0
  183.2850  174.1960  136.9370 O   0  0  0  0  0  0  0  0  0  0  0  0
  180.2050  178.6840  144.0990 C   0  0  0  0  0  2  0  0  0  0  0  0
  179.8680  177.2840  144.2920 N   0  0  0  0  0  1  0  0  0  0  0  0
  186.5120  178.5960  144.6520 C   0  0  0  0  0  2  0  0  0  0  0  0
  187.3880  177.4600  145.1660 C   0  0  1  0  0  3  0  0  0  0  0  0
  189.0970  176.5270  143.5630 N   0  0  0  0  0  2  0  0  0  0  0  0
  188.7420  177.5110  144.5390 C   0  0  0  0  0  0  0  0  0  0  0  0
  189.5670  178.4100  144.8650 O   0  0  0  0  0  0  0  0  0  0  0  0
  190.3780  176.5220  142.8620 C   0  0  1  0  0  3  0  0  0  0  0  0
  191.3900  175.6780  143.6200 C   0  0  0  0  0  1  0  0  0  0  0  0
  190.2360  176.0560  141.4790 N   0  0  0  0  0  2  0  0  0  0  0  0
  189.1130  177.8200  140.4430 O   0  0  0  0  0  1  0  0  0  0  0  0
  190.3380  177.1640  140.5330 C   0  0  2  0  0  3  0  0  0  0  0  0
  192.1340  176.8050  138.9850 O   0  0  0  0  0  1  0  0  0  0  0  0
  190.7570  176.6520  139.1640 C   0  0  0  0  0  2  0  0  0  0  0  0
  187.5030  177.5050  146.6310 C   0  0  0  0  0  0  0  0  0  0  0  0
  187.5980  177.5350  147.8340 C   0  0  0  0  0  3  0  0  0  0  0  0
  1  2  1  0  0  0  0
  1  3  1  0  0  0  0
  2  9  1  6  0  0  0
  2  3  1  0  0  0  0
  3 21  1  1  0  0  0
  4  8  2  0  0  0  0
  4 10  1  0  0  0  0
  5  7  1  0  0  0  0
  5 19  1  0  0  0  0
  7  6  1  0  0  0  0
  8  9  1  0  0  0  0
  9  7  2  0  0  0  0
 10  5  2  0  0  0  0
 11  8  1  0  0  0  0
 12 11  1  0  0  0  0
 13 11  2  0  0  0  0
 14 12  1  0  0  0  0
 15 14  1  0  0  0  0
 15 16  1  0  0  0  0
 18 17  1  0  0  0  0
 18 16  1  0  0  0  0
 19 20  1  0  0  0  0
 22 21  1  6  0  0  0
 22 33  1  0  0  0  0
 23 24  1  0  0  0  0
 24 25  2  0  0  0  0
 24 22  1  0  0  0  0
 26 23  1  0  0  0  0
 26 27  1  1  0  0  0
 28 26  1  0  0  0  0
 30 29  1  6  0  0  0
 30 28  1  0  0  0  0
 31 32  1  0  0  0  0
 32 30  1  0  0  0  0
 33 34  3  0  0  0  0
M  END
>  <MODEL>
7

>  <REMARK>
 VINA RESULT:      -6.6      1.528      2.020
  Name = 
  15 active torsions:
  status: ('A' for Active; 'I' for Inactive)
    1  A    between atoms: C_2  and  C_16
    2  A    between atoms: C_3  and  C_8
    3  A    between atoms: C_3  and  O_20
    4  A    between atoms: C_4  and  C_8
    5  A    between atoms: C_4  and  N_17
    6  A    between atoms: N_6  and  C_14
    7  A    between atoms: C_7  and  C_31
    8  A    between atoms: C_9  and  C_31
    9  A    between atoms: C_10  and  C_26
   10  A    between atoms: C_13  and  C_22
   11  A    between atoms: C_13  and  N_25
   12  A    between atoms: C_14  and  N_25
   13  A    between atoms: C_24  and  C_29
   14  A    between atoms: C_28  and  C_34
   15  A    between atoms: C_31  and  C_34
                            x       y       z     vdW  Elec       q    Type
                         _______ _______ _______ _____ _____    ______ ____

>  <TORSDO>
F 15

$$$$
=
 OpenBabel10222415133D

 34 35  0  0  1  0  0  0  0  0999 V2000
  190.2540  177.1510  140.7520 C   0  0  0  0  0  2  0  0  0  0  0  0
  189.2030  178.0230  141.4130 C   0  0  2  0  0  3  0  0  0  0  0  0
  189.3870  176.5940  141.8690 C   0  0  2  0  0  3  0  0  0  0  0  0
  186.4610  178.5850  138.7750 N   0  0  0  0  0  0  0  0  0  0  0  0
  185.5000  178.6540  140.9070 C   0  0  0  0  0  0  0  0  0  0  0  0
  186.8740  178.2750  143.2580 Cl  0  0  0  0  0  0  0  0  0  0  0  0
  186.7440  178.3800  141.4950 C   0  0  0  0  0  0  0  0  0  0  0  0
  187.6910  178.2720  139.2650 C   0  0  0  0  0  0  0  0  0  0  0  0
  187.8800  178.2030  140.6780 C   0  0  0  0  0  0  0  0  0  0  0  0
  185.4060  178.7770  139.5640 N   0  0  0  0  0  0  0  0  0  0  0  0
  188.7240  177.9440  138.2680 C   0  0  0  0  0  0  0  0  0  0  0  0
  188.8840  176.5910  137.8280 N   0  0  0  0  0  2  0  0  0  0  0  0
  189.4150  178.8660  137.7570 O   0  0  0  0  0  0  0  0  0  0  0  0
  189.7330  176.2220  136.7080 C   0  0  0  0  0  2  0  0  0  0  0  0
  191.1980  176.1540  137.1200 C   0  0  0  0  0  2  0  0  0  0  0  0
  191.5950  174.7390  137.5250 C   0  0  0  0  0  2  0  0  0  0  0  0
  193.5710  175.6790  137.8990 C   0  0  0  0  0  1  0  0  0  0  0  0
  192.9690  174.5450  137.3460 O   0  0  0  0  0  0  0  0  0  0  0  0
  184.2640  178.8080  141.7320 C   0  0  0  0  0  2  0  0  0  0  0  0
  183.0970  178.8340  140.8650 N   0  0  0  0  0  1  0  0  0  0  0  0
  190.1750  176.5740  143.1650 C   0  0  0  0  0  2  0  0  0  0  0  0
  189.7900  177.7570  144.0450 C   0  0  1  0  0  3  0  0  0  0  0  0
  188.4970  177.9120  146.2040 N   0  0  0  0  0  2  0  0  0  0  0  0
  189.5580  177.3170  145.4520 C   0  0  0  0  0  0  0  0  0  0  0  0
  190.2900  176.4300  145.9760 O   0  0  0  0  0  0  0  0  0  0  0  0
  188.1630  177.5150  147.5690 C   0  0  1  0  0  3  0  0  0  0  0  0
  189.0460  178.2530  148.5620 C   0  0  0  0  0  1  0  0  0  0  0  0
  186.7430  177.7340  147.8650 N   0  0  0  0  0  2  0  0  0  0  0  0
  186.0010  179.9370  147.6540 O   0  0  0  0  0  1  0  0  0  0  0  0
  186.1640  178.7340  146.9720 C   0  0  2  0  0  3  0  0  0  0  0  0
  184.3400  179.1300  145.4660 O   0  0  0  0  0  1  0  0  0  0  0  0
  184.8250  178.2510  146.4380 C   0  0  0  0  0  2  0  0  0  0  0  0
  190.8250  178.8020  144.0020 C   0  0  0  0  0  0  0  0  0  0  0  0
  191.6770  179.6560  143.9730 C   0  0  0  0  0  3  0  0  0  0  0  0
  1  2  1  0  0  0  0
  1  3  1  0  0  0  0
  2  9  1  6  0  0  0
  2  3  1  0  0  0  0
  3 21  1  1  0  0  0
  4  8  2  0  0  0  0
  4 10  1  0  0  0  0
  5  7  1  0  0  0  0
  5 19  1  0  0  0  0
  7  6  1  0  0  0  0
  8  9  1  0  0  0  0
  9  7  2  0  0  0  0
 10  5  2  0  0  0  0
 11  8  1  0  0  0  0
 12 11  1  0  0  0  0
 13 11  2  0  0  0  0
 14 15  1  0  0  0  0
 14 12  1  0  0  0  0
 15 16  1  0  0  0  0
 18 16  1  0  0  0  0
 18 17  1  0  0  0  0
 20 19  1  0  0  0  0
 22 21  1  6  0  0  0
 22 24  1  0  0  0  0
 23 26  1  0  0  0  0
 24 25  2  0  0  0  0
 24 23  1  0  0  0  0
 26 28  1  0  0  0  0
 26 27  1  1  0  0  0
 30 29  1  1  0  0  0
 30 28  1  0  0  0  0
 31 32  1  0  0  0  0
 32 30  1  0  0  0  0
 33 22  1  0  0  0  0
 34 33  3  0  0  0  0
M  END
>  <MODEL>
8

>  <REMARK>
 VINA RESULT:      -6.6      2.628      5.511
  Name = 
  15 active torsions:
  status: ('A' for Active; 'I' for Inactive)
    1  A    between atoms: C_2  and  C_16
    2  A    between atoms: C_3  and  C_8
    3  A    between atoms: C_3  and  O_20
    4  A    between atoms: C_4  and  C_8
    5  A    between atoms: C_4  and  N_17
    6  A    between atoms: N_6  and  C_14
    7  A    between atoms: C_7  and  C_31
    8  A    between atoms: C_9  and  C_31
    9  A    between atoms: C_10  and  C_26
   10  A    between atoms: C_13  and  C_22
   11  A    between atoms: C_13  and  N_25
   12  A    between atoms: C_14  and  N_25
   13  A    between atoms: C_24  and  C_29
   14  A    between atoms: C_28  and  C_34
   15  A    between atoms: C_31  and  C_34
                            x       y       z     vdW  Elec       q    Type
                         _______ _______ _______ _____ _____    ______ ____

>  <TORSDO>
F 15

$$$$
=
 OpenBabel10222415133D

 34 35  0  0  1  0  0  0  0  0999 V2000
  186.5180  177.8580  146.8010 C   0  0  0  0  0  2  0  0  0  0  0  0
  187.5310  178.5130  145.8820 C   0  0  2  0  0  3  0  0  0  0  0  0
  186.3300  177.8090  145.2940 C   0  0  2  0  0  3  0  0  0  0  0  0
  190.3200  176.3890  144.2990 N   0  0  0  0  0  0  0  0  0  0  0  0
  190.8160  176.7460  146.5570 C   0  0  0  0  0  0  0  0  0  0  0  0
  189.2750  178.2290  148.2850 Cl  0  0  0  0  0  0  0  0  0  0  0  0
  189.6620  177.5300  146.7050 C   0  0  0  0  0  0  0  0  0  0  0  0
  189.2100  177.1740  144.3490 C   0  0  0  0  0  0  0  0  0  0  0  0
  188.8170  177.7440  145.5960 C   0  0  0  0  0  0  0  0  0  0  0  0
  191.0920  176.1760  145.3630 N   0  0  0  0  0  0  0  0  0  0  0  0
  188.5420  177.4380  143.0630 C   0  0  0  0  0  0  0  0  0  0  0  0
  189.0520  178.4520  142.1920 N   0  0  0  0  0  2  0  0  0  0  0  0
  187.5670  176.7230  142.7060 O   0  0  0  0  0  0  0  0  0  0  0  0
  188.5780  178.6330  140.8290 C   0  0  0  0  0  2  0  0  0  0  0  0
  189.2330  177.6410  139.8780 C   0  0  0  0  0  2  0  0  0  0  0  0
  188.3500  177.3710  138.6650 C   0  0  0  0  0  2  0  0  0  0  0  0
  186.8810  178.1970  137.2200 C   0  0  0  0  0  1  0  0  0  0  0  0
  187.4270  178.4080  138.4890 O   0  0  0  0  0  0  0  0  0  0  0  0
  191.7610  176.5260  147.6940 C   0  0  0  0  0  2  0  0  0  0  0  0
  192.7130  175.4850  147.3450 N   0  0  0  0  0  1  0  0  0  0  0  0
  185.2960  178.8370  144.8750 C   0  0  0  0  0  2  0  0  0  0  0  0
  184.3640  178.2590  143.8160 C   0  0  1  0  0  3  0  0  0  0  0  0
  181.9780  178.5200  143.0430 N   0  0  0  0  0  2  0  0  0  0  0  0
  182.9500  178.6550  144.0840 C   0  0  0  0  0  0  0  0  0  0  0  0
  182.6120  179.1060  145.2150 O   0  0  0  0  0  0  0  0  0  0  0  0
  180.5640  178.8370  143.2230 C   0  0  1  0  0  3  0  0  0  0  0  0
  180.2880  180.2710  142.8010 C   0  0  0  0  0  1  0  0  0  0  0  0
  179.7030  177.8990  142.4950 N   0  0  0  0  0  2  0  0  0  0  0  0
  179.0030  178.4870  140.3470 O   0  0  0  0  0  1  0  0  0  0  0  0
  180.0260  177.8790  141.0710 C   0  0  2  0  0  3  0  0  0  0  0  0
  179.5650  175.5550  141.4450 O   0  0  0  0  0  1  0  0  0  0  0  0
  180.2220  176.4490  140.5950 C   0  0  0  0  0  2  0  0  0  0  0  0
  184.7670  178.6900  142.4690 C   0  0  0  0  0  0  0  0  0  0  0  0
  185.0910  179.0450  141.3620 C   0  0  0  0  0  3  0  0  0  0  0  0
  2  9  1  6  0  0  0
  2  1  1  0  0  0  0
  3 21  1  1  0  0  0
  3  2  1  0  0  0  0
  3  1  1  0  0  0  0
  4  8  2  0  0  0  0
  4 10  1  0  0  0  0
  5  7  1  0  0  0  0
  5 19  1  0  0  0  0
  7  6  1  0  0  0  0
  8  9  1  0  0  0  0
  9  7  2  0  0  0  0
 10  5  2  0  0  0  0
 11  8  1  0  0  0  0
 12 11  1  0  0  0  0
 13 11  2  0  0  0  0
 14 12  1  0  0  0  0
 15 14  1  0  0  0  0
 16 15  1  0  0  0  0
 17 18  1  0  0  0  0
 18 16  1  0  0  0  0
 20 19  1  0  0  0  0
 22 33  1  6  0  0  0
 22 24  1  0  0  0  0
 22 21  1  0  0  0  0
 23 26  1  0  0  0  0
 23 24  1  0  0  0  0
 24 25  2  0  0  0  0
 26 27  1  6  0  0  0
 28 26  1  0  0  0  0
 30 29  1  6  0  0  0
 30 28  1  0  0  0  0
 32 30  1  0  0  0  0
 32 31  1  0  0  0  0
 34 33  3  0  0  0  0
M  END
>  <MODEL>
9

>  <REMARK>
 VINA RESULT:      -6.6      3.008      7.895
  Name = 
  15 active torsions:
  status: ('A' for Active; 'I' for Inactive)
    1  A    between atoms: C_2  and  C_16
    2  A    between atoms: C_3  and  C_8
    3  A    between atoms: C_3  and  O_20
    4  A    between atoms: C_4  and  C_8
    5  A    between atoms: C_4  and  N_17
    6  A    between atoms: N_6  and  C_14
    7  A    between atoms: C_7  and  C_31
    8  A    between atoms: C_9  and  C_31
    9  A    between atoms: C_10  and  C_26
   10  A    between atoms: C_13  and  C_22
   11  A    between atoms: C_13  and  N_25
   12  A    between atoms: C_14  and  N_25
   13  A    between atoms: C_24  and  C_29
   14  A    between atoms: C_28  and  C_34
   15  A    between atoms: C_31  and  C_34
                            x       y       z     vdW  Elec       q    Type
                         _______ _______ _______ _____ _____    ______ ____

>  <TORSDO>
F 15

$$$$
