=
 OpenBabel10222418353D

 62 63  0  0  1  0  0  0  0  0999 V2000
  189.2970  177.5730  141.3810 C   0  0  1  0  0  3  0  0  0  0  0  0
  189.0230  176.1220  141.7470 C   0  0  0  0  0  2  0  0  0  0  0  0
  188.0860  176.0660  142.7820 O   0  0  0  0  0  1  0  0  0  0  0  0
  190.5790  177.6650  140.5480 C   0  0  2  0  0  3  0  0  0  0  0  0
  189.9630  175.9030  138.9560 N   0  0  0  0  0  1  0  0  0  0  0  0
  190.9240  176.2830  139.9780 C   0  0  1  0  0  3  0  0  0  0  0  0
  192.3480  176.2270  139.4270 C   0  0  0  0  0  2  0  0  0  0  0  0
  192.3720  175.6870  138.0070 C   0  0  0  0  0  2  0  0  0  0  0  0
  193.0600  176.6750  137.0800 C   0  0  0  0  0  2  0  0  0  0  0  0
  193.4830  175.9790  135.7980 C   0  0  0  0  0  2  0  0  0  0  0  0
  194.8250  175.3380  135.9320 C   0  0  0  0  0  0  0  0  0  0  0  0
  195.8290  176.0340  136.2470 O   0  0  0  0  0  0  0  0  0  0  0  0
  196.3570  173.5700  138.6190 C   0  0  0  0  0  1  0  0  0  0  0  0
  194.9550  173.9390  135.6520 N   0  0  0  0  0  0  0  0  0  0  0  0
  195.1820  171.5150  136.5800 C   0  0  0  0  0  2  0  0  0  0  0  0
  195.2460  171.4380  138.0670 C   0  0  0  0  0  2  0  0  0  0  0  0
  195.0930  172.9200  138.0740 C   0  0  2  0  0  3  0  0  0  0  0  0
  195.0530  173.0220  136.5620 C   0  0  0  0  0  0  0  0  0  0  0  0
  191.6910  178.1850  141.3410 N   0  0  0  0  0  2  0  0  0  0  0  0
  191.1740  178.5420  142.6550 C   0  0  0  0  0  2  0  0  0  0  0  0
  192.0230  177.9070  143.7490 C   0  0  0  0  0  2  0  0  0  0  0  0
  191.9250  175.6250  144.3470 O   0  0  0  0  0  0  0  0  0  0  0  0
  191.3530  176.7020  144.3350 C   0  0  0  0  0  0  0  0  0  0  0  0
  190.0100  176.8300  144.9810 C   0  0  0  0  0  2  0  0  0  0  0  0
  190.1080  177.4940  146.3520 C   0  0  2  0  0  3  0  0  0  0  0  0
  191.9730  176.9350  147.7460 O   0  0  0  0  0  1  0  0  0  0  0  0
  190.7200  176.4880  147.3210 C   0  0  0  0  0  2  0  0  0  0  0  0
  188.7190  177.9630  146.8230 C   0  0  2  0  0  3  0  0  0  0  0  0
  189.4950  178.7340  149.0760 O   0  0  0  0  0  1  0  0  0  0  0  0
  187.7610  177.2510  148.8880 O   0  0  0  0  0  0  0  0  0  0  0  0
  188.6300  177.9580  148.3160 C   0  0  0  0  0  0  0  0  0  0  0  0
  187.5940  177.1030  146.2540 C   0  0  0  0  0  2  0  0  0  0  0  0
  186.5580  177.9910  145.5920 C   0  0  0  0  0  2  0  0  0  0  0  0
  186.2430  179.0530  146.4410 O   0  0  0  0  0  1  0  0  0  0  0  0
  187.8430  178.2480  140.5120 S   0  0  0  0  0  0  0  0  0  0  0  0
  188.8430  178.7410  139.0770 C   0  0  0  0  0  2  0  0  0  0  0  0
  189.8810  178.0930  136.5050 O   0  0  0  0  0  0  0  0  0  0  0  0
  188.6350  178.2320  136.6130 C   0  0  0  0  0  0  0  0  0  0  0  0
  188.0560  178.6110  137.8610 N   0  0  0  0  0  2  0  0  0  0  0  0
  187.7530  178.0560  135.4230 C   0  0  0  0  0  2  0  0  0  0  0  0
  186.3860  178.0100  135.8180 O   0  0  0  0  0  0  0  0  0  0  0  0
  186.1960  175.7260  135.5150 O   0  0  0  0  0  0  0  0  0  0  0  0
  185.6440  176.8250  135.7990 C   0  0  0  0  0  0  0  0  0  0  0  0
  183.4930  176.0800  135.1400 F   0  0  0  0  0  0  0  0  0  0  0  0
  184.1770  176.8580  136.0640 C   0  0  1  0  0  3  0  0  0  0  0  0
  183.8600  176.4160  137.4990 C   0  0  1  0  0  3  0  0  0  0  0  0
  181.4450  178.4860  140.4680 C   0  0  1  0  0  3  0  0  0  0  0  0
  181.7830  176.3170  139.0950 C   0  0  0  0  0  2  0  0  0  0  0  0
  183.7680  179.5060  139.7050 C   0  0  0  0  0  2  0  0  0  0  0  0
  183.7760  178.6760  138.4670 C   0  0  0  0  0  2  0  0  0  0  0  0
  184.2910  177.4460  138.4990 C   0  0  0  0  0  2  0  0  0  0  0  0
  182.3640  176.0210  137.6940 C   0  0  2  0  0  3  0  0  0  0  0  0
  182.9250  178.8210  140.8130 C   0  0  2  0  0  3  0  0  0  0  0  0
  179.8380  177.6960  138.8500 O   0  0  0  0  0  1  0  0  0  0  0  0
  181.2000  177.7330  139.1420 C   0  0  1  0  0  3  0  0  0  0  0  0
  180.8200  174.1070  137.1330 N   0  0  0  0  0  1  0  0  0  0  0  0
  182.1430  174.5820  137.3590 C   0  0  0  0  0  0  0  0  0  0  0  0
  183.1120  173.7800  137.3090 O   0  0  0  0  0  0  0  0  0  0  0  0
  180.0020  178.7250  142.1370 C   0  0  0  0  0  1  0  0  0  0  0  0
  180.8480  177.7980  141.5290 O   0  0  0  0  0  0  0  0  0  0  0  0
  184.4630  178.2260  142.2980 C   0  0  0  0  0  1  0  0  0  0  0  0
  183.5900  177.7030  141.3390 O   0  0  0  0  0  0  0  0  0  0  0  0
  1  2  1  6  0  0  0
  2  3  1  0  0  0  0
  4 19  1  1  0  0  0
  4  1  1  0  0  0  0
  6  5  1  6  0  0  0
  6  4  1  0  0  0  0
  7  6  1  0  0  0  0
  8  7  1  0  0  0  0
  9  8  1  0  0  0  0
 10 11  1  0  0  0  0
 10  9  1  0  0  0  0
 11 12  2  0  0  0  0
 14 11  1  0  0  0  0
 14 18  2  0  0  0  0
 15 16  1  0  0  0  0
 16 17  1  0  0  0  0
 17 13  1  6  0  0  0
 18 15  1  0  0  0  0
 18 17  1  0  0  0  0
 19 20  1  0  0  0  0
 20 21  1  0  0  0  0
 21 23  1  0  0  0  0
 23 22  2  0  0  0  0
 23 24  1  0  0  0  0
 25 24  1  6  0  0  0
 25 28  1  0  0  0  0
 25 27  1  0  0  0  0
 27 26  1  0  0  0  0
 28 32  1  6  0  0  0
 28 31  1  0  0  0  0
 31 30  2  0  0  0  0
 31 29  1  0  0  0  0
 33 32  1  0  0  0  0
 33 34  1  0  0  0  0
 35  1  1  0  0  0  0
 36 35  1  0  0  0  0
 37 38  2  0  0  0  0
 38 39  1  0  0  0  0
 39 36  1  0  0  0  0
 40 41  1  0  0  0  0
 40 38  1  0  0  0  0
 42 43  2  0  0  0  0
 43 41  1  0  0  0  0
 43 45  1  0  0  0  0
 45 44  1  6  0  0  0
 46 45  1  6  0  0  0
 46 52  1  0  0  0  0
 46 51  1  0  0  0  0
 47 53  1  0  0  0  0
 47 60  1  1  0  0  0
 48 55  1  0  0  0  0
 49 53  1  0  0  0  0
 50 51  1  0  0  0  0
 50 49  1  0  0  0  0
 52 57  1  1  0  0  0
 52 48  1  0  0  0  0
 53 62  1  6  0  0  0
 55 54  1  1  0  0  0
 55 47  1  0  0  0  0
 56 57  1  0  0  0  0
 58 57  2  0  0  0  0
 60 59  1  0  0  0  0
 62 61  1  0  0  0  0
M  END
>  <MODEL>
1

>  <REMARK>
 VINA RESULT:      -5.0      0.000      0.000
  Name = 
  31 active torsions:
  status: ('A' for Active; 'I' for Inactive)
    1  A    between atoms: C_1  and  C_42
    2  A    between atoms: C_4  and  C_48
    3  A    between atoms: C_6  and  C_25
    4  A    between atoms: C_6  and  C_46
    5  A    between atoms: C_6  and  C_49
    6  A    between atoms: N_7  and  C_28
    7  A    between atoms: C_9  and  C_26
    8  A    between atoms: C_9  and  C_28
    9  A    between atoms: C_14  and  C_47
   10  A    between atoms: C_16  and  C_41
   11  A    between atoms: C_17  and  O_62
   12  A    between atoms: C_23  and  C_25
   13  A    between atoms: C_23  and  C_56
   14  A    between atoms: O_24  and  C_43
   15  A    between atoms: C_26  and  C_32
   16  A    between atoms: C_30  and  S_53
   17  A    between atoms: C_30  and  N_55
   18  A    between atoms: O_31  and  C_47
   19  A    between atoms: O_31  and  C_60
   20  A    between atoms: C_32  and  C_54
   21  A    between atoms: C_36  and  C_59
   22  A    between atoms: C_42  and  C_60
   23  A    between atoms: C_44  and  N_45
   24  A    between atoms: C_44  and  C_56
   25  A    between atoms: N_45  and  C_58
   26  A    between atoms: C_48  and  S_53
   27  A    between atoms: C_48  and  C_58
   28  A    between atoms: C_49  and  C_59
   29  A    between atoms: C_49  and  C_61
   30  A    between atoms: C_50  and  C_54
   31  A    between atoms: C_50  and  C_58
                            x       y       z     vdW  Elec       q    Type
                         _______ _______ _______ _____ _____    ______ ____

>  <TORSDO>
F 31

$$$$
=
 OpenBabel10222418353D

 62 63  0  0  1  0  0  0  0  0999 V2000
  189.4490  177.6720  142.5570 C   0  0  1  0  0  3  0  0  0  0  0  0
  188.7930  176.3160  142.3480 C   0  0  0  0  0  2  0  0  0  0  0  0
  189.0970  175.4740  143.4220 O   0  0  0  0  0  1  0  0  0  0  0  0
  190.9700  177.5070  142.6190 C   0  0  2  0  0  3  0  0  0  0  0  0
  191.4620  179.7360  143.5150 N   0  0  0  0  0  1  0  0  0  0  0  0
  191.5290  178.3130  143.7990 C   0  0  1  0  0  3  0  0  0  0  0  0
  190.8090  177.9890  145.1070 C   0  0  0  0  0  2  0  0  0  0  0  0
  191.5260  176.8920  145.8770 C   0  0  0  0  0  2  0  0  0  0  0  0
  190.6660  176.4120  147.0330 C   0  0  0  0  0  2  0  0  0  0  0  0
  189.7100  177.5110  147.4640 C   0  0  0  0  0  2  0  0  0  0  0  0
  188.2840  177.1000  147.3050 C   0  0  0  0  0  0  0  0  0  0  0  0
  187.5910  176.8190  148.3210 O   0  0  0  0  0  0  0  0  0  0  0  0
  185.0040  178.4740  147.0870 C   0  0  0  0  0  1  0  0  0  0  0  0
  187.7390  176.9870  145.9850 N   0  0  0  0  0  0  0  0  0  0  0  0
  186.0610  177.8870  144.2070 C   0  0  0  0  0  2  0  0  0  0  0  0
  185.2110  179.0120  144.6890 C   0  0  0  0  0  2  0  0  0  0  0  0
  185.9500  178.9160  145.9790 C   0  0  2  0  0  3  0  0  0  0  0  0
  186.8050  177.7530  145.5160 C   0  0  0  0  0  0  0  0  0  0  0  0
  191.6000  177.9260  141.3680 N   0  0  0  0  0  2  0  0  0  0  0  0
  192.5860  176.9160  141.0050 C   0  0  0  0  0  2  0  0  0  0  0  0
  193.2240  177.2560  139.6640 C   0  0  0  0  0  2  0  0  0  0  0  0
  191.5910  177.2940  137.9590 O   0  0  0  0  0  0  0  0  0  0  0  0
  192.4610  176.6520  138.5250 C   0  0  0  0  0  0  0  0  0  0  0  0
  192.8170  175.2900  138.0210 C   0  0  0  0  0  2  0  0  0  0  0  0
  193.9820  175.3410  137.0360 C   0  0  2  0  0  3  0  0  0  0  0  0
  193.7240  176.8480  135.1930 O   0  0  0  0  0  1  0  0  0  0  0  0
  193.4090  175.5640  135.6400 C   0  0  0  0  0  2  0  0  0  0  0  0
  194.8070  174.0440  137.1100 C   0  0  2  0  0  3  0  0  0  0  0  0
  195.6090  175.0120  139.2760 O   0  0  0  0  0  1  0  0  0  0  0  0
  195.9250  172.7940  138.8060 O   0  0  0  0  0  0  0  0  0  0  0  0
  195.4790  173.9110  138.4390 C   0  0  0  0  0  0  0  0  0  0  0  0
  195.8610  173.9650  136.0090 C   0  0  0  0  0  2  0  0  0  0  0  0
  195.5580  172.7930  135.0960 C   0  0  0  0  0  2  0  0  0  0  0  0
  195.3580  171.6440  135.8610 O   0  0  0  0  0  1  0  0  0  0  0  0
  188.9160  178.7980  141.2250 S   0  0  0  0  0  0  0  0  0  0  0  0
  188.5630  177.4150  140.1010 C   0  0  0  0  0  2  0  0  0  0  0  0
  188.5250  175.7800  137.7700 O   0  0  0  0  0  0  0  0  0  0  0  0
  188.4090  177.0230  137.6120 C   0  0  0  0  0  0  0  0  0  0  0  0
  188.4760  177.9020  138.7340 N   0  0  0  0  0  2  0  0  0  0  0  0
  188.2550  177.5960  136.2440 C   0  0  0  0  0  2  0  0  0  0  0  0
  187.5450  176.6960  135.4020 O   0  0  0  0  0  0  0  0  0  0  0  0
  185.7950  178.0650  134.7620 O   0  0  0  0  0  0  0  0  0  0  0  0
  186.2090  176.9070  135.0440 C   0  0  0  0  0  0  0  0  0  0  0  0
  185.8660  174.6030  134.6080 F   0  0  0  0  0  0  0  0  0  0  0  0
  185.2470  175.7680  135.0430 C   0  0  1  0  0  3  0  0  0  0  0  0
  184.6140  175.5730  136.4270 C   0  0  1  0  0  3  0  0  0  0  0  0
  180.4310  176.0110  137.5450 C   0  0  1  0  0  3  0  0  0  0  0  0
  182.4850  174.4380  137.4540 C   0  0  0  0  0  2  0  0  0  0  0  0
  181.8460  178.1390  136.8440 C   0  0  0  0  0  2  0  0  0  0  0  0
  182.8720  177.2910  136.1740 C   0  0  0  0  0  2  0  0  0  0  0  0
  183.8930  176.8060  136.8810 C   0  0  0  0  0  2  0  0  0  0  0  0
  183.6940  174.3150  136.4990 C   0  0  2  0  0  3  0  0  0  0  0  0
  181.1260  177.3390  137.9620 C   0  0  2  0  0  3  0  0  0  0  0  0
  180.4780  173.9920  136.2230 O   0  0  0  0  0  1  0  0  0  0  0  0
  181.2780  175.0220  136.7140 C   0  0  1  0  0  3  0  0  0  0  0  0
  183.8340  171.9940  137.4750 N   0  0  0  0  0  1  0  0  0  0  0  0
  184.4820  173.0950  136.8500 C   0  0  0  0  0  0  0  0  0  0  0  0
  185.7210  173.0480  136.6300 O   0  0  0  0  0  0  0  0  0  0  0  0
  179.4480  176.3920  139.4970 C   0  0  0  0  0  1  0  0  0  0  0  0
  179.9070  175.3670  138.6700 O   0  0  0  0  0  0  0  0  0  0  0  0
  182.2820  178.4370  139.5050 C   0  0  0  0  0  1  0  0  0  0  0  0
  181.9660  177.1470  139.0700 O   0  0  0  0  0  0  0  0  0  0  0  0
  1  2  1  6  0  0  0
  1  4  1  0  0  0  0
  2  3  1  0  0  0  0
  4 19  1  6  0  0  0
  4  6  1  0  0  0  0
  6  5  1  6  0  0  0
  6  7  1  0  0  0  0
  7  8  1  0  0  0  0
  8  9  1  0  0  0  0
  9 10  1  0  0  0  0
 11 10  1  0  0  0  0
 11 12  2  0  0  0  0
 14 11  1  0  0  0  0
 15 16  1  0  0  0  0
 15 18  1  0  0  0  0
 16 17  1  0  0  0  0
 17 13  1  1  0  0  0
 18 17  1  0  0  0  0
 18 14  2  0  0  0  0
 20 19  1  0  0  0  0
 21 20  1  0  0  0  0
 22 23  2  0  0  0  0
 23 21  1  0  0  0  0
 24 23  1  0  0  0  0
 25 27  1  6  0  0  0
 25 28  1  0  0  0  0
 25 24  1  0  0  0  0
 26 27  1  0  0  0  0
 28 32  1  6  0  0  0
 28 31  1  0  0  0  0
 31 30  2  0  0  0  0
 31 29  1  0  0  0  0
 33 34  1  0  0  0  0
 33 32  1  0  0  0  0
 35  1  1  0  0  0  0
 36 35  1  0  0  0  0
 38 37  2  0  0  0  0
 38 39  1  0  0  0  0
 39 36  1  0  0  0  0
 40 38  1  0  0  0  0
 41 40  1  0  0  0  0
 42 43  2  0  0  0  0
 43 41  1  0  0  0  0
 45 44  1  1  0  0  0
 45 43  1  0  0  0  0
 46 45  1  6  0  0  0
 46 52  1  0  0  0  0
 46 51  1  0  0  0  0
 47 53  1  0  0  0  0
 47 60  1  1  0  0  0
 49 53  1  0  0  0  0
 50 49  1  0  0  0  0
 50 51  1  0  0  0  0
 52 57  1  1  0  0  0
 52 48  1  0  0  0  0
 53 62  1  1  0  0  0
 55 54  1  1  0  0  0
 55 48  1  0  0  0  0
 55 47  1  0  0  0  0
 57 56  1  0  0  0  0
 58 57  2  0  0  0  0
 60 59  1  0  0  0  0
 62 61  1  0  0  0  0
M  END
>  <MODEL>
2

>  <REMARK>
 VINA RESULT:      -4.5      2.101      8.067
  Name = 
  31 active torsions:
  status: ('A' for Active; 'I' for Inactive)
    1  A    between atoms: C_1  and  C_42
    2  A    between atoms: C_4  and  C_48
    3  A    between atoms: C_6  and  C_25
    4  A    between atoms: C_6  and  C_46
    5  A    between atoms: C_6  and  C_49
    6  A    between atoms: N_7  and  C_28
    7  A    between atoms: C_9  and  C_26
    8  A    between atoms: C_9  and  C_28
    9  A    between atoms: C_14  and  C_47
   10  A    between atoms: C_16  and  C_41
   11  A    between atoms: C_17  and  O_62
   12  A    between atoms: C_23  and  C_25
   13  A    between atoms: C_23  and  C_56
   14  A    between atoms: O_24  and  C_43
   15  A    between atoms: C_26  and  C_32
   16  A    between atoms: C_30  and  S_53
   17  A    between atoms: C_30  and  N_55
   18  A    between atoms: O_31  and  C_47
   19  A    between atoms: O_31  and  C_60
   20  A    between atoms: C_32  and  C_54
   21  A    between atoms: C_36  and  C_59
   22  A    between atoms: C_42  and  C_60
   23  A    between atoms: C_44  and  N_45
   24  A    between atoms: C_44  and  C_56
   25  A    between atoms: N_45  and  C_58
   26  A    between atoms: C_48  and  S_53
   27  A    between atoms: C_48  and  C_58
   28  A    between atoms: C_49  and  C_59
   29  A    between atoms: C_49  and  C_61
   30  A    between atoms: C_50  and  C_54
   31  A    between atoms: C_50  and  C_58
                            x       y       z     vdW  Elec       q    Type
                         _______ _______ _______ _____ _____    ______ ____

>  <TORSDO>
F 31

$$$$
=
 OpenBabel10222418353D

 62 63  0  0  1  0  0  0  0  0999 V2000
  190.2800  177.0080  141.5280 C   0  0  1  0  0  3  0  0  0  0  0  0
  189.0090  176.2540  141.8840 C   0  0  0  0  0  2  0  0  0  0  0  0
  189.1850  175.5760  143.0930 O   0  0  0  0  0  1  0  0  0  0  0  0
  190.3270  177.2630  140.0180 C   0  0  2  0  0  3  0  0  0  0  0  0
  189.1710  179.1400  138.9450 N   0  0  0  0  0  1  0  0  0  0  0  0
  188.9830  177.8320  139.5490 C   0  0  1  0  0  3  0  0  0  0  0  0
  188.2650  176.8910  138.5840 C   0  0  0  0  0  2  0  0  0  0  0  0
  187.0420  177.5520  137.9700 C   0  0  0  0  0  2  0  0  0  0  0  0
  186.9140  177.1650  136.5070 C   0  0  0  0  0  2  0  0  0  0  0  0
  185.5030  176.6850  136.2160 C   0  0  0  0  0  2  0  0  0  0  0  0
  185.3450  175.2260  136.4910 C   0  0  0  0  0  0  0  0  0  0  0  0
  184.2040  174.6930  136.4360 O   0  0  0  0  0  0  0  0  0  0  0  0
  185.5790  172.1800  134.6580 C   0  0  0  0  0  1  0  0  0  0  0  0
  186.5000  174.4630  136.8590 N   0  0  0  0  0  0  0  0  0  0  0  0
  188.2590  172.6600  136.1910 C   0  0  0  0  0  2  0  0  0  0  0  0
  188.0370  172.0650  134.8430 C   0  0  0  0  0  2  0  0  0  0  0  0
  186.8700  172.9840  134.7150 C   0  0  2  0  0  3  0  0  0  0  0  0
  187.0640  173.5810  136.0940 C   0  0  0  0  0  0  0  0  0  0  0  0
  190.6520  176.0410  139.2840 N   0  0  0  0  0  2  0  0  0  0  0  0
  191.9740  176.2120  138.6970 C   0  0  0  0  0  2  0  0  0  0  0  0
  191.8660  176.3720  137.1860 C   0  0  0  0  0  2  0  0  0  0  0  0
  192.0980  174.4790  135.7940 O   0  0  0  0  0  0  0  0  0  0  0  0
  192.6620  175.3290  136.4650 C   0  0  0  0  0  0  0  0  0  0  0  0
  194.1570  175.3700  136.4950 C   0  0  0  0  0  2  0  0  0  0  0  0
  194.7410  174.1110  137.1290 C   0  0  2  0  0  3  0  0  0  0  0  0
  195.7150  173.3370  139.1750 O   0  0  0  0  0  1  0  0  0  0  0  0
  195.2810  174.4830  138.5060 C   0  0  0  0  0  2  0  0  0  0  0  0
  195.8400  173.5160  136.2300 C   0  0  2  0  0  3  0  0  0  0  0  0
  194.4870  171.4130  136.3470 O   0  0  0  0  0  1  0  0  0  0  0  0
  196.7250  171.3310  135.8730 O   0  0  0  0  0  0  0  0  0  0  0  0
  195.7150  172.0290  136.1420 C   0  0  0  0  0  0  0  0  0  0  0  0
  197.2420  173.8690  136.7200 C   0  0  0  0  0  2  0  0  0  0  0  0
  197.8660  174.8920  135.7900 C   0  0  0  0  0  2  0  0  0  0  0  0
  197.5530  176.1780  136.2320 O   0  0  0  0  0  1  0  0  0  0  0  0
  190.3480  178.5480  142.5030 S   0  0  0  0  0  0  0  0  0  0  0  0
  191.9840  178.1330  143.1760 C   0  0  0  0  0  2  0  0  0  0  0  0
  191.9430  175.5310  144.3300 O   0  0  0  0  0  0  0  0  0  0  0  0
  191.9110  176.5160  145.1130 C   0  0  0  0  0  0  0  0  0  0  0  0
  191.8730  177.8460  144.5970 N   0  0  0  0  0  2  0  0  0  0  0  0
  191.8570  176.3040  146.5880 C   0  0  0  0  0  2  0  0  0  0  0  0
  190.5210  176.0460  147.0060 O   0  0  0  0  0  0  0  0  0  0  0  0
  189.9450  178.1460  147.7830 O   0  0  0  0  0  0  0  0  0  0  0  0
  189.5960  177.0740  147.2190 C   0  0  0  0  0  0  0  0  0  0  0  0
  187.4000  176.5260  147.9210 F   0  0  0  0  0  0  0  0  0  0  0  0
  188.1700  176.8870  146.8240 C   0  0  1  0  0  3  0  0  0  0  0  0
  187.6110  178.1450  146.1460 C   0  0  1  0  0  3  0  0  0  0  0  0
  183.8820  178.5680  143.9430 C   0  0  1  0  0  3  0  0  0  0  0  0
  185.3130  179.3890  145.9380 C   0  0  0  0  0  2  0  0  0  0  0  0
  185.8480  177.0930  142.9510 C   0  0  0  0  0  2  0  0  0  0  0  0
  186.4960  176.9800  144.2880 C   0  0  0  0  0  2  0  0  0  0  0  0
  187.3580  177.9170  144.6870 C   0  0  0  0  0  2  0  0  0  0  0  0
  186.3450  178.7060  146.8630 C   0  0  2  0  0  3  0  0  0  0  0  0
  184.9940  178.3870  142.8700 C   0  0  2  0  0  3  0  0  0  0  0  0
  183.1840  178.3310  146.2410 O   0  0  0  0  0  1  0  0  0  0  0  0
  184.3040  178.3610  145.4140 C   0  0  1  0  0  3  0  0  0  0  0  0
  186.2080  180.9720  147.9640 N   0  0  0  0  0  1  0  0  0  0  0  0
  186.7250  179.6460  147.9610 C   0  0  0  0  0  0  0  0  0  0  0  0
  187.5270  179.2860  148.8630 O   0  0  0  0  0  0  0  0  0  0  0  0
  181.9730  179.5280  143.3450 C   0  0  0  0  0  1  0  0  0  0  0  0
  183.2640  179.8120  143.7900 O   0  0  0  0  0  0  0  0  0  0  0  0
  186.4800  179.3930  141.5650 C   0  0  0  0  0  1  0  0  0  0  0  0
  185.8070  179.5270  142.7820 O   0  0  0  0  0  0  0  0  0  0  0  0
  1  2  1  6  0  0  0
  1 35  1  0  0  0  0
  2  3  1  0  0  0  0
  4 19  1  6  0  0  0
  4  1  1  0  0  0  0
  6  5  1  6  0  0  0
  6  4  1  0  0  0  0
  7  6  1  0  0  0  0
  8  7  1  0  0  0  0
  9  8  1  0  0  0  0
 10 11  1  0  0  0  0
 10  9  1  0  0  0  0
 11 14  1  0  0  0  0
 12 11  2  0  0  0  0
 16 15  1  0  0  0  0
 17 13  1  1  0  0  0
 17 16  1  0  0  0  0
 17 18  1  0  0  0  0
 18 15  1  0  0  0  0
 18 14  2  0  0  0  0
 20 19  1  0  0  0  0
 21 20  1  0  0  0  0
 22 23  2  0  0  0  0
 23 24  1  0  0  0  0
 23 21  1  0  0  0  0
 25 24  1  6  0  0  0
 25 27  1  0  0  0  0
 27 26  1  0  0  0  0
 28 32  1  1  0  0  0
 28 25  1  0  0  0  0
 30 31  2  0  0  0  0
 31 28  1  0  0  0  0
 31 29  1  0  0  0  0
 33 34  1  0  0  0  0
 33 32  1  0  0  0  0
 35 36  1  0  0  0  0
 36 39  1  0  0  0  0
 37 38  2  0  0  0  0
 38 40  1  0  0  0  0
 39 38  1  0  0  0  0
 40 41  1  0  0  0  0
 41 43  1  0  0  0  0
 43 42  2  0  0  0  0
 45 43  1  0  0  0  0
 45 44  1  1  0  0  0
 46 45  1  1  0  0  0
 46 52  1  0  0  0  0
 47 60  1  1  0  0  0
 47 55  1  0  0  0  0
 48 52  1  0  0  0  0
 49 50  1  0  0  0  0
 50 51  1  0  0  0  0
 51 46  1  0  0  0  0
 52 57  1  1  0  0  0
 53 62  1  1  0  0  0
 53 49  1  0  0  0  0
 53 47  1  0  0  0  0
 55 48  1  0  0  0  0
 55 54  1  1  0  0  0
 57 56  1  0  0  0  0
 57 58  2  0  0  0  0
 59 60  1  0  0  0  0
 61 62  1  0  0  0  0
M  END
>  <MODEL>
3

>  <REMARK>
 VINA RESULT:      -4.1      3.175      9.308
  Name = 
  31 active torsions:
  status: ('A' for Active; 'I' for Inactive)
    1  A    between atoms: C_1  and  C_42
    2  A    between atoms: C_4  and  C_48
    3  A    between atoms: C_6  and  C_25
    4  A    between atoms: C_6  and  C_46
    5  A    between atoms: C_6  and  C_49
    6  A    between atoms: N_7  and  C_28
    7  A    between atoms: C_9  and  C_26
    8  A    between atoms: C_9  and  C_28
    9  A    between atoms: C_14  and  C_47
   10  A    between atoms: C_16  and  C_41
   11  A    between atoms: C_17  and  O_62
   12  A    between atoms: C_23  and  C_25
   13  A    between atoms: C_23  and  C_56
   14  A    between atoms: O_24  and  C_43
   15  A    between atoms: C_26  and  C_32
   16  A    between atoms: C_30  and  S_53
   17  A    between atoms: C_30  and  N_55
   18  A    between atoms: O_31  and  C_47
   19  A    between atoms: O_31  and  C_60
   20  A    between atoms: C_32  and  C_54
   21  A    between atoms: C_36  and  C_59
   22  A    between atoms: C_42  and  C_60
   23  A    between atoms: C_44  and  N_45
   24  A    between atoms: C_44  and  C_56
   25  A    between atoms: N_45  and  C_58
   26  A    between atoms: C_48  and  S_53
   27  A    between atoms: C_48  and  C_58
   28  A    between atoms: C_49  and  C_59
   29  A    between atoms: C_49  and  C_61
   30  A    between atoms: C_50  and  C_54
   31  A    between atoms: C_50  and  C_58
                            x       y       z     vdW  Elec       q    Type
                         _______ _______ _______ _____ _____    ______ ____

>  <TORSDO>
F 31

$$$$
=
 OpenBabel10222418353D

 62 63  0  0  1  0  0  0  0  0999 V2000
  190.4040  177.0180  141.5040 C   0  0  1  0  0  3  0  0  0  0  0  0
  189.2320  176.1060  141.8330 C   0  0  0  0  0  2  0  0  0  0  0  0
  189.5680  175.2730  142.9030 O   0  0  0  0  0  1  0  0  0  0  0  0
  190.4140  177.3300  140.0050 C   0  0  2  0  0  3  0  0  0  0  0  0
  189.1290  179.1480  138.9770 N   0  0  0  0  0  1  0  0  0  0  0  0
  189.0290  177.8260  139.5710 C   0  0  1  0  0  3  0  0  0  0  0  0
  188.3440  176.8530  138.6120 C   0  0  0  0  0  2  0  0  0  0  0  0
  187.3830  177.5750  137.6830 C   0  0  0  0  0  2  0  0  0  0  0  0
  186.6190  176.5740  136.8340 C   0  0  0  0  0  2  0  0  0  0  0  0
  185.4130  177.2420  136.1970 C   0  0  0  0  0  2  0  0  0  0  0  0
  184.3290  177.4950  137.1910 C   0  0  0  0  0  0  0  0  0  0  0  0
  184.6190  177.7480  138.3920 O   0  0  0  0  0  0  0  0  0  0  0  0
  183.3670  174.1300  136.5200 C   0  0  0  0  0  1  0  0  0  0  0  0
  182.9640  177.3990  136.7660 N   0  0  0  0  0  0  0  0  0  0  0  0
  180.8180  175.9360  136.5500 C   0  0  0  0  0  2  0  0  0  0  0  0
  180.9870  174.5350  137.0290 C   0  0  0  0  0  2  0  0  0  0  0  0
  182.3850  174.9080  137.3860 C   0  0  2  0  0  3  0  0  0  0  0  0
  182.2410  176.3290  136.8780 C   0  0  0  0  0  0  0  0  0  0  0  0
  190.8090  176.1600  139.2220 N   0  0  0  0  0  2  0  0  0  0  0  0
  191.9580  176.5330  138.4100 C   0  0  0  0  0  2  0  0  0  0  0  0
  191.8870  175.8550  137.0470 C   0  0  0  0  0  2  0  0  0  0  0  0
  192.7520  173.7430  137.6520 O   0  0  0  0  0  0  0  0  0  0  0  0
  192.8690  174.7290  136.9430 C   0  0  0  0  0  0  0  0  0  0  0  0
  193.9520  174.7700  135.9130 C   0  0  0  0  0  2  0  0  0  0  0  0
  195.2610  175.2970  136.4940 C   0  0  2  0  0  3  0  0  0  0  0  0
  195.3090  176.7660  134.6030 O   0  0  0  0  0  1  0  0  0  0  0  0
  196.0850  175.8770  135.3490 C   0  0  0  0  0  2  0  0  0  0  0  0
  196.0180  174.1730  137.2240 C   0  0  2  0  0  3  0  0  0  0  0  0
  197.8290  175.4920  138.3420 O   0  0  0  0  0  1  0  0  0  0  0  0
  198.3390  173.9510  136.7290 O   0  0  0  0  0  0  0  0  0  0  0  0
  197.4570  174.5300  137.4120 C   0  0  0  0  0  0  0  0  0  0  0  0
  195.9270  172.8400  136.4870 C   0  0  0  0  0  2  0  0  0  0  0  0
  195.9650  171.7000  137.4860 C   0  0  0  0  0  2  0  0  0  0  0  0
  195.4210  172.1240  138.6990 O   0  0  0  0  0  1  0  0  0  0  0  0
  190.2920  178.5200  142.5340 S   0  0  0  0  0  0  0  0  0  0  0  0
  191.9540  178.2580  143.2200 C   0  0  0  0  0  2  0  0  0  0  0  0
  192.0240  175.6230  144.2960 O   0  0  0  0  0  0  0  0  0  0  0  0
  191.9510  176.5820  145.1080 C   0  0  0  0  0  0  0  0  0  0  0  0
  191.8560  177.9240  144.6320 N   0  0  0  0  0  2  0  0  0  0  0  0
  191.9070  176.3240  146.5760 C   0  0  0  0  0  2  0  0  0  0  0  0
  190.5880  175.9730  146.9810 O   0  0  0  0  0  0  0  0  0  0  0  0
  190.1190  177.8060  148.3100 O   0  0  0  0  0  0  0  0  0  0  0  0
  189.7030  176.9090  147.5270 C   0  0  0  0  0  0  0  0  0  0  0  0
  187.5120  176.6640  148.3960 F   0  0  0  0  0  0  0  0  0  0  0  0
  188.2450  176.8210  147.2270 C   0  0  1  0  0  3  0  0  0  0  0  0
  187.7650  178.0430  146.4330 C   0  0  1  0  0  3  0  0  0  0  0  0
  184.2330  178.3830  143.9140 C   0  0  1  0  0  3  0  0  0  0  0  0
  185.5140  179.3030  145.9680 C   0  0  0  0  0  2  0  0  0  0  0  0
  186.2450  176.8260  143.1730 C   0  0  0  0  0  2  0  0  0  0  0  0
  186.7820  176.7840  144.5630 C   0  0  0  0  0  2  0  0  0  0  0  0
  187.6260  177.7320  144.9740 C   0  0  0  0  0  2  0  0  0  0  0  0
  186.4550  178.6630  147.0120 C   0  0  2  0  0  3  0  0  0  0  0  0
  185.4240  178.1230  142.9470 C   0  0  2  0  0  3  0  0  0  0  0  0
  183.3480  178.2930  146.1580 O   0  0  0  0  0  1  0  0  0  0  0  0
  184.5320  178.2590  145.4250 C   0  0  1  0  0  3  0  0  0  0  0  0
  186.0640  180.9010  148.1080 N   0  0  0  0  0  1  0  0  0  0  0  0
  186.7640  179.6620  148.0800 C   0  0  0  0  0  0  0  0  0  0  0  0
  187.6610  179.4310  148.9330 O   0  0  0  0  0  0  0  0  0  0  0  0
  182.2780  179.3850  143.6020 C   0  0  0  0  0  1  0  0  0  0  0  0
  183.6510  179.6240  143.6390 O   0  0  0  0  0  0  0  0  0  0  0  0
  186.6100  179.3250  141.5090 C   0  0  0  0  0  1  0  0  0  0  0  0
  186.2610  179.2450  142.8600 O   0  0  0  0  0  0  0  0  0  0  0  0
  1  2  1  6  0  0  0
  1 35  1  0  0  0  0
  2  3  1  0  0  0  0
  4 19  1  6  0  0  0
  4  1  1  0  0  0  0
  6  5  1  6  0  0  0
  6  4  1  0  0  0  0
  7  6  1  0  0  0  0
  8  7  1  0  0  0  0
  9  8  1  0  0  0  0
 10  9  1  0  0  0  0
 10 11  1  0  0  0  0
 11 12  2  0  0  0  0
 14 18  2  0  0  0  0
 14 11  1  0  0  0  0
 15 18  1  0  0  0  0
 15 16  1  0  0  0  0
 16 17  1  0  0  0  0
 17 13  1  6  0  0  0
 18 17  1  0  0  0  0
 20 19  1  0  0  0  0
 21 20  1  0  0  0  0
 23 21  1  0  0  0  0
 23 22  2  0  0  0  0
 24 25  1  0  0  0  0
 24 23  1  0  0  0  0
 25 27  1  6  0  0  0
 25 28  1  0  0  0  0
 26 27  1  0  0  0  0
 28 32  1  6  0  0  0
 28 31  1  0  0  0  0
 30 31  2  0  0  0  0
 31 29  1  0  0  0  0
 32 33  1  0  0  0  0
 33 34  1  0  0  0  0
 35 36  1  0  0  0  0
 36 39  1  0  0  0  0
 37 38  2  0  0  0  0
 38 40  1  0  0  0  0
 39 38  1  0  0  0  0
 40 41  1  0  0  0  0
 41 43  1  0  0  0  0
 43 42  2  0  0  0  0
 45 43  1  0  0  0  0
 45 44  1  1  0  0  0
 46 52  1  0  0  0  0
 46 45  1  1  0  0  0
 47 60  1  1  0  0  0
 47 55  1  0  0  0  0
 48 52  1  0  0  0  0
 49 50  1  0  0  0  0
 50 51  1  0  0  0  0
 51 46  1  0  0  0  0
 52 57  1  1  0  0  0
 53 62  1  1  0  0  0
 53 49  1  0  0  0  0
 53 47  1  0  0  0  0
 55 48  1  0  0  0  0
 55 54  1  1  0  0  0
 57 56  1  0  0  0  0
 57 58  2  0  0  0  0
 59 60  1  0  0  0  0
 61 62  1  0  0  0  0
M  END
>  <MODEL>
4

>  <REMARK>
 VINA RESULT:      -3.9      2.896      9.899
  Name = 
  31 active torsions:
  status: ('A' for Active; 'I' for Inactive)
    1  A    between atoms: C_1  and  C_42
    2  A    between atoms: C_4  and  C_48
    3  A    between atoms: C_6  and  C_25
    4  A    between atoms: C_6  and  C_46
    5  A    between atoms: C_6  and  C_49
    6  A    between atoms: N_7  and  C_28
    7  A    between atoms: C_9  and  C_26
    8  A    between atoms: C_9  and  C_28
    9  A    between atoms: C_14  and  C_47
   10  A    between atoms: C_16  and  C_41
   11  A    between atoms: C_17  and  O_62
   12  A    between atoms: C_23  and  C_25
   13  A    between atoms: C_23  and  C_56
   14  A    between atoms: O_24  and  C_43
   15  A    between atoms: C_26  and  C_32
   16  A    between atoms: C_30  and  S_53
   17  A    between atoms: C_30  and  N_55
   18  A    between atoms: O_31  and  C_47
   19  A    between atoms: O_31  and  C_60
   20  A    between atoms: C_32  and  C_54
   21  A    between atoms: C_36  and  C_59
   22  A    between atoms: C_42  and  C_60
   23  A    between atoms: C_44  and  N_45
   24  A    between atoms: C_44  and  C_56
   25  A    between atoms: N_45  and  C_58
   26  A    between atoms: C_48  and  S_53
   27  A    between atoms: C_48  and  C_58
   28  A    between atoms: C_49  and  C_59
   29  A    between atoms: C_49  and  C_61
   30  A    between atoms: C_50  and  C_54
   31  A    between atoms: C_50  and  C_58
                            x       y       z     vdW  Elec       q    Type
                         _______ _______ _______ _____ _____    ______ ____

>  <TORSDO>
F 31

$$$$
=
 OpenBabel10222418353D

 62 63  0  0  1  0  0  0  0  0999 V2000
  189.9970  177.0070  137.9340 C   0  0  1  0  0  3  0  0  0  0  0  0
  188.9540  177.9470  138.5170 C   0  0  0  0  0  2  0  0  0  0  0  0
  189.1370  179.2330  138.0000 O   0  0  0  0  0  1  0  0  0  0  0  0
  190.9680  176.5640  139.0330 C   0  0  2  0  0  3  0  0  0  0  0  0
  189.4110  176.9670  140.8850 N   0  0  0  0  0  1  0  0  0  0  0  0
  190.6900  177.3570  140.3170 C   0  0  1  0  0  3  0  0  0  0  0  0
  191.8080  177.1960  141.3450 C   0  0  0  0  0  2  0  0  0  0  0  0
  191.2740  177.2900  142.7650 C   0  0  0  0  0  2  0  0  0  0  0  0
  191.5080  178.6820  143.3240 C   0  0  0  0  0  2  0  0  0  0  0  0
  190.9020  178.7960  144.7120 C   0  0  0  0  0  2  0  0  0  0  0  0
  190.5600  177.4590  145.2800 C   0  0  0  0  0  0  0  0  0  0  0  0
  191.4700  176.7180  145.7450 O   0  0  0  0  0  0  0  0  0  0  0  0
  188.8790  178.0470  148.3650 C   0  0  0  0  0  1  0  0  0  0  0  0
  189.1970  177.0190  145.2430 N   0  0  0  0  0  0  0  0  0  0  0  0
  186.7820  177.2380  146.1950 C   0  0  0  0  0  2  0  0  0  0  0  0
  186.6560  178.2190  147.3100 C   0  0  0  0  0  2  0  0  0  0  0  0
  188.1090  178.4940  147.1300 C   0  0  2  0  0  3  0  0  0  0  0  0
  188.2630  177.4810  146.0130 C   0  0  0  0  0  0  0  0  0  0  0  0
  192.3580  176.7340  138.6150 N   0  0  0  0  0  2  0  0  0  0  0  0
  192.4450  176.3820  137.2040 C   0  0  0  0  0  2  0  0  0  0  0  0
  193.0260  174.9830  137.0420 C   0  0  0  0  0  2  0  0  0  0  0  0
  194.7760  176.0350  135.8550 O   0  0  0  0  0  0  0  0  0  0  0  0
  194.3870  175.0230  136.4170 C   0  0  0  0  0  0  0  0  0  0  0  0
  195.3080  173.8530  136.5470 C   0  0  0  0  0  2  0  0  0  0  0  0
  196.3290  174.0630  137.6620 C   0  0  2  0  0  3  0  0  0  0  0  0
  195.4610  174.6510  139.8150 O   0  0  0  0  0  1  0  0  0  0  0  0
  195.8140  175.1750  138.5700 C   0  0  0  0  0  2  0  0  0  0  0  0
  197.7090  174.4070  137.0700 C   0  0  2  0  0  3  0  0  0  0  0  0
  198.3030  174.3200  134.6400 O   0  0  0  0  0  0  0  0  0  0  0  0
  197.8480  172.3970  135.7940 O   0  0  0  0  0  1  0  0  0  0  0  0
  197.9530  173.6500  135.8040 C   0  0  0  0  0  0  0  0  0  0  0  0
  198.8450  174.1210  138.0490 C   0  0  0  0  0  2  0  0  0  0  0  0
  198.6140  174.8870  139.3370 C   0  0  0  0  0  2  0  0  0  0  0  0
  198.9790  176.2220  139.1580 O   0  0  0  0  0  1  0  0  0  0  0  0
  189.1490  175.6030  137.1370 S   0  0  0  0  0  0  0  0  0  0  0  0
  187.9230  176.6950  136.3580 C   0  0  0  0  0  2  0  0  0  0  0  0
  185.5470  177.4950  135.0090 O   0  0  0  0  0  0  0  0  0  0  0  0
  185.4380  176.6340  135.9210 C   0  0  0  0  0  0  0  0  0  0  0  0
  186.5810  176.2320  136.6730 N   0  0  0  0  0  2  0  0  0  0  0  0
  184.1020  176.0660  136.2630 C   0  0  0  0  0  2  0  0  0  0  0  0
  183.0910  177.0600  136.1420 O   0  0  0  0  0  0  0  0  0  0  0  0
  180.8910  177.5230  136.6810 O   0  0  0  0  0  0  0  0  0  0  0  0
  182.0410  177.1690  137.0590 C   0  0  0  0  0  0  0  0  0  0  0  0
  183.4080  176.1180  138.6840 F   0  0  0  0  0  0  0  0  0  0  0  0
  182.2870  176.9170  138.5080 C   0  0  1  0  0  3  0  0  0  0  0  0
  182.4180  178.2320  139.2880 C   0  0  1  0  0  3  0  0  0  0  0  0
  182.5800  178.7850  143.6010 C   0  0  1  0  0  3  0  0  0  0  0  0
  183.7710  179.1590  141.3330 C   0  0  0  0  0  2  0  0  0  0  0  0
  180.3410  177.9530  142.4540 C   0  0  0  0  0  2  0  0  0  0  0  0
  181.0730  177.5350  141.2260 C   0  0  0  0  0  2  0  0  0  0  0  0
  181.2830  178.4180  140.2480 C   0  0  0  0  0  2  0  0  0  0  0  0
  183.7980  178.3780  140.0010 C   0  0  2  0  0  3  0  0  0  0  0  0
  181.1100  179.0840  143.1870 C   0  0  2  0  0  3  0  0  0  0  0  0
  184.7060  177.7820  143.0570 O   0  0  0  0  0  1  0  0  0  0  0  0
  183.5010  178.2080  142.5040 C   0  0  1  0  0  3  0  0  0  0  0  0
  184.3820  179.6110  137.8800 N   0  0  0  0  0  1  0  0  0  0  0  0
  184.8100  178.9900  139.0870 C   0  0  0  0  0  0  0  0  0  0  0  0
  186.0380  178.9290  139.3580 O   0  0  0  0  0  0  0  0  0  0  0  0
  184.1100  179.4400  145.0680 C   0  0  0  0  0  1  0  0  0  0  0  0
  183.1610  179.9230  144.1680 O   0  0  0  0  0  0  0  0  0  0  0  0
  179.6470  180.4780  142.2710 C   0  0  0  0  0  1  0  0  0  0  0  0
  181.0150  180.2970  142.4890 O   0  0  0  0  0  0  0  0  0  0  0  0
  1  2  1  1  0  0  0
  1  4  1  0  0  0  0
  3  2  1  0  0  0  0
  4 19  1  6  0  0  0
  4  6  1  0  0  0  0
  6  5  1  1  0  0  0
  6  7  1  0  0  0  0
  7  8  1  0  0  0  0
  8  9  1  0  0  0  0
  9 10  1  0  0  0  0
 10 11  1  0  0  0  0
 11 12  2  0  0  0  0
 14 11  1  0  0  0  0
 14 18  2  0  0  0  0
 15 16  1  0  0  0  0
 17 16  1  0  0  0  0
 17 13  1  1  0  0  0
 18 15  1  0  0  0  0
 18 17  1  0  0  0  0
 20 19  1  0  0  0  0
 21 20  1  0  0  0  0
 22 23  2  0  0  0  0
 23 24  1  0  0  0  0
 23 21  1  0  0  0  0
 25 24  1  6  0  0  0
 25 27  1  0  0  0  0
 27 26  1  0  0  0  0
 28 25  1  0  0  0  0
 28 32  1  1  0  0  0
 29 31  2  0  0  0  0
 30 31  1  0  0  0  0
 31 28  1  0  0  0  0
 32 33  1  0  0  0  0
 34 33  1  0  0  0  0
 35  1  1  0  0  0  0
 36 39  1  0  0  0  0
 36 35  1  0  0  0  0
 37 38  2  0  0  0  0
 38 40  1  0  0  0  0
 38 39  1  0  0  0  0
 41 40  1  0  0  0  0
 41 43  1  0  0  0  0
 42 43  2  0  0  0  0
 43 45  1  0  0  0  0
 45 44  1  6  0  0  0
 46 45  1  1  0  0  0
 46 52  1  0  0  0  0
 46 51  1  0  0  0  0
 47 60  1  6  0  0  0
 48 55  1  0  0  0  0
 49 53  1  0  0  0  0
 50 49  1  0  0  0  0
 51 50  1  0  0  0  0
 52 57  1  6  0  0  0
 52 48  1  0  0  0  0
 53 62  1  6  0  0  0
 53 47  1  0  0  0  0
 55 54  1  1  0  0  0
 55 47  1  0  0  0  0
 56 57  1  0  0  0  0
 57 58  2  0  0  0  0
 60 59  1  0  0  0  0
 61 62  1  0  0  0  0
M  END
>  <MODEL>
5

>  <REMARK>
 VINA RESULT:      -3.7      2.250      8.399
  Name = 
  31 active torsions:
  status: ('A' for Active; 'I' for Inactive)
    1  A    between atoms: C_1  and  C_42
    2  A    between atoms: C_4  and  C_48
    3  A    between atoms: C_6  and  C_25
    4  A    between atoms: C_6  and  C_46
    5  A    between atoms: C_6  and  C_49
    6  A    between atoms: N_7  and  C_28
    7  A    between atoms: C_9  and  C_26
    8  A    between atoms: C_9  and  C_28
    9  A    between atoms: C_14  and  C_47
   10  A    between atoms: C_16  and  C_41
   11  A    between atoms: C_17  and  O_62
   12  A    between atoms: C_23  and  C_25
   13  A    between atoms: C_23  and  C_56
   14  A    between atoms: O_24  and  C_43
   15  A    between atoms: C_26  and  C_32
   16  A    between atoms: C_30  and  S_53
   17  A    between atoms: C_30  and  N_55
   18  A    between atoms: O_31  and  C_47
   19  A    between atoms: O_31  and  C_60
   20  A    between atoms: C_32  and  C_54
   21  A    between atoms: C_36  and  C_59
   22  A    between atoms: C_42  and  C_60
   23  A    between atoms: C_44  and  N_45
   24  A    between atoms: C_44  and  C_56
   25  A    between atoms: N_45  and  C_58
   26  A    between atoms: C_48  and  S_53
   27  A    between atoms: C_48  and  C_58
   28  A    between atoms: C_49  and  C_59
   29  A    between atoms: C_49  and  C_61
   30  A    between atoms: C_50  and  C_54
   31  A    between atoms: C_50  and  C_58
                            x       y       z     vdW  Elec       q    Type
                         _______ _______ _______ _____ _____    ______ ____

>  <TORSDO>
F 31

$$$$
=
 OpenBabel10222418353D

 62 63  0  0  1  0  0  0  0  0999 V2000
  188.8270  176.8140  137.8840 C   0  0  1  0  0  3  0  0  0  0  0  0
  187.9330  177.9540  138.3470 C   0  0  0  0  0  2  0  0  0  0  0  0
  188.2130  179.1050  137.6050 O   0  0  0  0  0  1  0  0  0  0  0  0
  189.6830  176.3180  139.0530 C   0  0  2  0  0  3  0  0  0  0  0  0
  188.5550  176.8430  141.1670 N   0  0  0  0  0  1  0  0  0  0  0  0
  189.5680  177.2970  140.2280 C   0  0  1  0  0  3  0  0  0  0  0  0
  190.9050  177.5050  140.9360 C   0  0  0  0  0  2  0  0  0  0  0  0
  190.7160  177.7150  142.4290 C   0  0  0  0  0  2  0  0  0  0  0  0
  191.6710  176.8280  143.2100 C   0  0  0  0  0  2  0  0  0  0  0  0
  191.7160  177.2640  144.6650 C   0  0  0  0  0  2  0  0  0  0  0  0
  190.3510  177.3310  145.2660 C   0  0  0  0  0  0  0  0  0  0  0  0
  189.3340  177.1300  144.5480 O   0  0  0  0  0  0  0  0  0  0  0  0
  187.1010  178.5660  146.0440 C   0  0  0  0  0  1  0  0  0  0  0  0
  190.2220  177.6720  146.6510 N   0  0  0  0  0  0  0  0  0  0  0  0
  188.6500  178.0170  148.7010 C   0  0  0  0  0  2  0  0  0  0  0  0
  187.2030  177.8280  148.3950 C   0  0  0  0  0  2  0  0  0  0  0  0
  187.6190  177.5030  147.0020 C   0  0  2  0  0  3  0  0  0  0  0  0
  189.0930  177.7180  147.2870 C   0  0  0  0  0  0  0  0  0  0  0  0
  191.0800  176.1540  138.6560 N   0  0  0  0  0  2  0  0  0  0  0  0
  191.1030  175.7900  137.2460 C   0  0  0  0  0  2  0  0  0  0  0  0
  191.4940  174.3270  137.0820 C   0  0  0  0  0  2  0  0  0  0  0  0
  193.3370  175.0980  135.8230 O   0  0  0  0  0  0  0  0  0  0  0  0
  192.8590  174.1880  136.4810 C   0  0  0  0  0  0  0  0  0  0  0  0
  193.6780  172.9670  136.7520 C   0  0  0  0  0  2  0  0  0  0  0  0
  195.0320  173.0310  136.0510 C   0  0  2  0  0  3  0  0  0  0  0  0
  194.0060  171.0230  135.2450 O   0  0  0  0  0  1  0  0  0  0  0  0
  195.1260  171.8440  135.0970 C   0  0  0  0  0  2  0  0  0  0  0  0
  196.1750  173.0210  137.0820 C   0  0  2  0  0  3  0  0  0  0  0  0
  198.1050  174.5780  136.7360 O   0  0  0  0  0  0  0  0  0  0  0  0
  196.1650  175.3260  137.6930 O   0  0  0  0  0  1  0  0  0  0  0  0
  196.8100  174.3700  137.1920 C   0  0  0  0  0  0  0  0  0  0  0  0
  197.2490  171.9900  136.7470 C   0  0  0  0  0  2  0  0  0  0  0  0
  196.9240  170.6740  137.4260 C   0  0  0  0  0  2  0  0  0  0  0  0
  197.0680  169.6290  136.5130 O   0  0  0  0  0  1  0  0  0  0  0  0
  187.7850  175.4990  137.1670 S   0  0  0  0  0  0  0  0  0  0  0  0
  186.8680  176.6880  136.1430 C   0  0  0  0  0  2  0  0  0  0  0  0
  184.8310  177.9350  134.5940 O   0  0  0  0  0  0  0  0  0  0  0  0
  184.4720  177.1010  135.4650 C   0  0  0  0  0  0  0  0  0  0  0  0
  185.4380  176.4820  136.3120 N   0  0  0  0  0  2  0  0  0  0  0  0
  183.0260  176.7910  135.6600 C   0  0  0  0  0  2  0  0  0  0  0  0
  182.2780  177.9900  135.8360 O   0  0  0  0  0  0  0  0  0  0  0  0
  180.1170  178.6190  136.3640 O   0  0  0  0  0  0  0  0  0  0  0  0
  181.1950  178.0680  136.7170 C   0  0  0  0  0  0  0  0  0  0  0  0
  182.4600  176.7530  138.2300 F   0  0  0  0  0  0  0  0  0  0  0  0
  181.3250  177.5450  138.1080 C   0  0  1  0  0  3  0  0  0  0  0  0
  181.3340  178.6850  139.1340 C   0  0  1  0  0  3  0  0  0  0  0  0
  181.8530  178.4060  143.4450 C   0  0  1  0  0  3  0  0  0  0  0  0
  182.7330  179.4120  141.2280 C   0  0  0  0  0  2  0  0  0  0  0  0
  179.6600  177.4460  142.3090 C   0  0  0  0  0  2  0  0  0  0  0  0
  180.3170  177.4060  140.9720 C   0  0  0  0  0  2  0  0  0  0  0  0
  180.2890  178.4850  140.1880 C   0  0  0  0  0  2  0  0  0  0  0  0
  182.7420  178.9210  139.7640 C   0  0  2  0  0  3  0  0  0  0  0  0
  180.3200  178.5260  143.2060 C   0  0  2  0  0  3  0  0  0  0  0  0
  184.0400  177.9050  142.5560 O   0  0  0  0  0  1  0  0  0  0  0  0
  182.7330  178.2190  142.1900 C   0  0  1  0  0  3  0  0  0  0  0  0
  184.8320  179.4630  138.4590 N   0  0  0  0  0  1  0  0  0  0  0  0
  183.5490  179.8620  138.9290 C   0  0  0  0  0  0  0  0  0  0  0  0
  183.1200  181.0170  138.6690 O   0  0  0  0  0  0  0  0  0  0  0  0
  183.5260  179.0800  144.7370 C   0  0  0  0  0  1  0  0  0  0  0  0
  182.3090  179.4940  144.1960 O   0  0  0  0  0  0  0  0  0  0  0  0
  178.9550  180.2160  143.6600 C   0  0  0  0  0  1  0  0  0  0  0  0
  179.9700  179.8180  142.7860 O   0  0  0  0  0  0  0  0  0  0  0  0
  1  2  1  1  0  0  0
  1  4  1  0  0  0  0
  3  2  1  0  0  0  0
  4 19  1  6  0  0  0
  4  6  1  0  0  0  0
  6  7  1  0  0  0  0
  6  5  1  1  0  0  0
  7  8  1  0  0  0  0
  8  9  1  0  0  0  0
  9 10  1  0  0  0  0
 10 11  1  0  0  0  0
 11 14  1  0  0  0  0
 12 11  2  0  0  0  0
 14 18  2  0  0  0  0
 16 15  1  0  0  0  0
 17 13  1  6  0  0  0
 17 18  1  0  0  0  0
 17 16  1  0  0  0  0
 18 15  1  0  0  0  0
 20 19  1  0  0  0  0
 21 20  1  0  0  0  0
 22 23  2  0  0  0  0
 23 24  1  0  0  0  0
 23 21  1  0  0  0  0
 25 27  1  6  0  0  0
 25 24  1  0  0  0  0
 25 28  1  0  0  0  0
 27 26  1  0  0  0  0
 28 32  1  6  0  0  0
 28 31  1  0  0  0  0
 29 31  2  0  0  0  0
 31 30  1  0  0  0  0
 32 33  1  0  0  0  0
 34 33  1  0  0  0  0
 35  1  1  0  0  0  0
 36 39  1  0  0  0  0
 36 35  1  0  0  0  0
 37 38  2  0  0  0  0
 38 40  1  0  0  0  0
 38 39  1  0  0  0  0
 40 41  1  0  0  0  0
 41 43  1  0  0  0  0
 42 43  2  0  0  0  0
 43 45  1  0  0  0  0
 45 44  1  6  0  0  0
 46 45  1  6  0  0  0
 46 52  1  0  0  0  0
 46 51  1  0  0  0  0
 47 60  1  6  0  0  0
 48 55  1  0  0  0  0
 49 53  1  0  0  0  0
 50 49  1  0  0  0  0
 51 50  1  0  0  0  0
 52 57  1  6  0  0  0
 52 48  1  0  0  0  0
 53 62  1  6  0  0  0
 53 47  1  0  0  0  0
 55 54  1  1  0  0  0
 55 47  1  0  0  0  0
 56 57  1  0  0  0  0
 58 57  2  0  0  0  0
 60 59  1  0  0  0  0
 62 61  1  0  0  0  0
M  END
>  <MODEL>
6

>  <REMARK>
 VINA RESULT:      -3.6      2.401      8.641
  Name = 
  31 active torsions:
  status: ('A' for Active; 'I' for Inactive)
    1  A    between atoms: C_1  and  C_42
    2  A    between atoms: C_4  and  C_48
    3  A    between atoms: C_6  and  C_25
    4  A    between atoms: C_6  and  C_46
    5  A    between atoms: C_6  and  C_49
    6  A    between atoms: N_7  and  C_28
    7  A    between atoms: C_9  and  C_26
    8  A    between atoms: C_9  and  C_28
    9  A    between atoms: C_14  and  C_47
   10  A    between atoms: C_16  and  C_41
   11  A    between atoms: C_17  and  O_62
   12  A    between atoms: C_23  and  C_25
   13  A    between atoms: C_23  and  C_56
   14  A    between atoms: O_24  and  C_43
   15  A    between atoms: C_26  and  C_32
   16  A    between atoms: C_30  and  S_53
   17  A    between atoms: C_30  and  N_55
   18  A    between atoms: O_31  and  C_47
   19  A    between atoms: O_31  and  C_60
   20  A    between atoms: C_32  and  C_54
   21  A    between atoms: C_36  and  C_59
   22  A    between atoms: C_42  and  C_60
   23  A    between atoms: C_44  and  N_45
   24  A    between atoms: C_44  and  C_56
   25  A    between atoms: N_45  and  C_58
   26  A    between atoms: C_48  and  S_53
   27  A    between atoms: C_48  and  C_58
   28  A    between atoms: C_49  and  C_59
   29  A    between atoms: C_49  and  C_61
   30  A    between atoms: C_50  and  C_54
   31  A    between atoms: C_50  and  C_58
                            x       y       z     vdW  Elec       q    Type
                         _______ _______ _______ _____ _____    ______ ____

>  <TORSDO>
F 31

$$$$
=
 OpenBabel10222418353D

 62 63  0  0  1  0  0  0  0  0999 V2000
  190.3880  177.0100  141.1680 C   0  0  1  0  0  3  0  0  0  0  0  0
  189.2460  176.0460  141.4520 C   0  0  0  0  0  2  0  0  0  0  0  0
  189.1230  175.8550  142.8320 O   0  0  0  0  0  1  0  0  0  0  0  0
  190.3650  177.4190  139.6920 C   0  0  2  0  0  3  0  0  0  0  0  0
  188.9490  179.2640  138.9130 N   0  0  0  0  0  1  0  0  0  0  0  0
  188.9500  177.8640  139.3010 C   0  0  1  0  0  3  0  0  0  0  0  0
  188.3600  176.9960  138.1910 C   0  0  0  0  0  2  0  0  0  0  0  0
  187.8780  177.8410  137.0230 C   0  0  0  0  0  2  0  0  0  0  0  0
  186.3610  177.9180  137.0200 C   0  0  0  0  0  2  0  0  0  0  0  0
  185.7960  177.0330  135.9240 C   0  0  0  0  0  2  0  0  0  0  0  0
  184.4690  176.4630  136.3000 C   0  0  0  0  0  0  0  0  0  0  0  0
  183.5580  176.3560  135.4330 O   0  0  0  0  0  0  0  0  0  0  0  0
  182.7890  179.0150  138.1310 C   0  0  0  0  0  1  0  0  0  0  0  0
  184.2390  176.0850  137.6620 N   0  0  0  0  0  0  0  0  0  0  0  0
  182.8200  176.3910  139.8260 C   0  0  0  0  0  2  0  0  0  0  0  0
  181.7570  177.4290  139.7140 C   0  0  0  0  0  2  0  0  0  0  0  0
  182.2010  177.6220  138.3050 C   0  0  2  0  0  3  0  0  0  0  0  0
  183.3060  176.5890  138.4090 C   0  0  0  0  0  0  0  0  0  0  0  0
  190.8160  176.3260  138.8310 N   0  0  0  0  0  2  0  0  0  0  0  0
  192.2610  176.2180  138.9690 C   0  0  0  0  0  2  0  0  0  0  0  0
  192.9520  176.6960  137.6980 C   0  0  0  0  0  2  0  0  0  0  0  0
  193.2930  175.7980  135.5400 O   0  0  0  0  0  0  0  0  0  0  0  0
  193.1640  175.5700  136.7320 C   0  0  0  0  0  0  0  0  0  0  0  0
  193.3010  174.1680  137.2320 C   0  0  0  0  0  2  0  0  0  0  0  0
  193.4890  173.1780  136.0860 C   0  0  2  0  0  3  0  0  0  0  0  0
  191.3640  173.3260  134.9910 O   0  0  0  0  0  1  0  0  0  0  0  0
  192.1440  172.5110  135.8140 C   0  0  0  0  0  2  0  0  0  0  0  0
  194.5730  172.1440  136.4390 C   0  0  2  0  0  3  0  0  0  0  0  0
  195.2120  172.2030  138.8590 O   0  0  0  0  0  1  0  0  0  0  0  0
  196.3760  173.4320  137.3190 O   0  0  0  0  0  0  0  0  0  0  0  0
  195.4360  172.6330  137.5580 C   0  0  0  0  0  0  0  0  0  0  0  0
  195.4570  171.8000  135.2420 C   0  0  0  0  0  2  0  0  0  0  0  0
  195.9680  170.3790  135.3770 C   0  0  0  0  0  2  0  0  0  0  0  0
  197.3460  170.3960  135.5960 O   0  0  0  0  0  1  0  0  0  0  0  0
  190.2520  178.4370  142.2950 S   0  0  0  0  0  0  0  0  0  0  0  0
  191.9020  178.1310  142.9940 C   0  0  0  0  0  2  0  0  0  0  0  0
  191.8340  175.5920  144.2810 O   0  0  0  0  0  0  0  0  0  0  0  0
  191.8210  176.6170  145.0120 C   0  0  0  0  0  0  0  0  0  0  0  0
  191.7960  177.9190  144.4280 N   0  0  0  0  0  2  0  0  0  0  0  0
  191.7730  176.4820  146.4960 C   0  0  0  0  0  2  0  0  0  0  0  0
  190.4610  176.1350  146.9240 O   0  0  0  0  0  0  0  0  0  0  0  0
  189.7550  178.1260  147.8620 O   0  0  0  0  0  0  0  0  0  0  0  0
  189.4820  177.1000  147.1820 C   0  0  0  0  0  0  0  0  0  0  0  0
  187.2630  176.4750  147.7320 F   0  0  0  0  0  0  0  0  0  0  0  0
  188.0870  176.8960  146.6960 C   0  0  1  0  0  3  0  0  0  0  0  0
  187.5360  178.1660  146.0340 C   0  0  1  0  0  3  0  0  0  0  0  0
  183.8650  178.6160  143.7420 C   0  0  1  0  0  3  0  0  0  0  0  0
  185.2350  179.3990  145.7950 C   0  0  0  0  0  2  0  0  0  0  0  0
  185.8670  177.1800  142.7690 C   0  0  0  0  0  2  0  0  0  0  0  0
  186.4810  177.0390  144.1200 C   0  0  0  0  0  2  0  0  0  0  0  0
  187.3250  177.9710  144.5640 C   0  0  0  0  0  2  0  0  0  0  0  0
  186.2470  178.7010  146.7310 C   0  0  2  0  0  3  0  0  0  0  0  0
  185.0070  178.4690  142.6960 C   0  0  2  0  0  3  0  0  0  0  0  0
  183.1070  178.3200  146.0150 O   0  0  0  0  0  1  0  0  0  0  0  0
  184.2490  178.3770  145.2190 C   0  0  1  0  0  3  0  0  0  0  0  0
  187.2360  179.0950  149.0170 N   0  0  0  0  0  1  0  0  0  0  0  0
  186.5920  179.6170  147.8610 C   0  0  0  0  0  0  0  0  0  0  0  0
  186.2840  180.8370  147.8130 O   0  0  0  0  0  0  0  0  0  0  0  0
  181.8750  179.5860  143.5960 C   0  0  0  0  0  1  0  0  0  0  0  0
  183.2420  179.8600  143.6030 O   0  0  0  0  0  0  0  0  0  0  0  0
  186.5150  179.5190  141.4530 C   0  0  0  0  0  1  0  0  0  0  0  0
  185.8130  179.6160  142.6570 O   0  0  0  0  0  0  0  0  0  0  0  0
  1  2  1  6  0  0  0
  1 35  1  0  0  0  0
  2  3  1  0  0  0  0
  4 19  1  6  0  0  0
  4  1  1  0  0  0  0
  6  5  1  6  0  0  0
  6  4  1  0  0  0  0
  7  6  1  0  0  0  0
  8  7  1  0  0  0  0
  9  8  1  0  0  0  0
 10 11  1  0  0  0  0
 10  9  1  0  0  0  0
 11 14  1  0  0  0  0
 12 11  2  0  0  0  0
 14 18  2  0  0  0  0
 16 15  1  0  0  0  0
 17 13  1  1  0  0  0
 17 18  1  0  0  0  0
 17 16  1  0  0  0  0
 18 15  1  0  0  0  0
 19 20  1  0  0  0  0
 21 20  1  0  0  0  0
 22 23  2  0  0  0  0
 23 24  1  0  0  0  0
 23 21  1  0  0  0  0
 25 27  1  1  0  0  0
 25 28  1  0  0  0  0
 25 24  1  0  0  0  0
 26 27  1  0  0  0  0
 28 32  1  6  0  0  0
 28 31  1  0  0  0  0
 30 31  2  0  0  0  0
 31 29  1  0  0  0  0
 32 33  1  0  0  0  0
 33 34  1  0  0  0  0
 35 36  1  0  0  0  0
 36 39  1  0  0  0  0
 37 38  2  0  0  0  0
 38 40  1  0  0  0  0
 39 38  1  0  0  0  0
 40 41  1  0  0  0  0
 41 43  1  0  0  0  0
 43 42  2  0  0  0  0
 45 43  1  0  0  0  0
 45 44  1  1  0  0  0
 46 45  1  1  0  0  0
 46 52  1  0  0  0  0
 47 60  1  1  0  0  0
 47 55  1  0  0  0  0
 48 52  1  0  0  0  0
 49 50  1  0  0  0  0
 50 51  1  0  0  0  0
 51 46  1  0  0  0  0
 52 57  1  1  0  0  0
 53 62  1  1  0  0  0
 53 49  1  0  0  0  0
 53 47  1  0  0  0  0
 55 48  1  0  0  0  0
 55 54  1  1  0  0  0
 57 56  1  0  0  0  0
 58 57  2  0  0  0  0
 59 60  1  0  0  0  0
 61 62  1  0  0  0  0
M  END
>  <MODEL>
7

>  <REMARK>
 VINA RESULT:      -3.5      2.921      9.867
  Name = 
  31 active torsions:
  status: ('A' for Active; 'I' for Inactive)
    1  A    between atoms: C_1  and  C_42
    2  A    between atoms: C_4  and  C_48
    3  A    between atoms: C_6  and  C_25
    4  A    between atoms: C_6  and  C_46
    5  A    between atoms: C_6  and  C_49
    6  A    between atoms: N_7  and  C_28
    7  A    between atoms: C_9  and  C_26
    8  A    between atoms: C_9  and  C_28
    9  A    between atoms: C_14  and  C_47
   10  A    between atoms: C_16  and  C_41
   11  A    between atoms: C_17  and  O_62
   12  A    between atoms: C_23  and  C_25
   13  A    between atoms: C_23  and  C_56
   14  A    between atoms: O_24  and  C_43
   15  A    between atoms: C_26  and  C_32
   16  A    between atoms: C_30  and  S_53
   17  A    between atoms: C_30  and  N_55
   18  A    between atoms: O_31  and  C_47
   19  A    between atoms: O_31  and  C_60
   20  A    between atoms: C_32  and  C_54
   21  A    between atoms: C_36  and  C_59
   22  A    between atoms: C_42  and  C_60
   23  A    between atoms: C_44  and  N_45
   24  A    between atoms: C_44  and  C_56
   25  A    between atoms: N_45  and  C_58
   26  A    between atoms: C_48  and  S_53
   27  A    between atoms: C_48  and  C_58
   28  A    between atoms: C_49  and  C_59
   29  A    between atoms: C_49  and  C_61
   30  A    between atoms: C_50  and  C_54
   31  A    between atoms: C_50  and  C_58
                            x       y       z     vdW  Elec       q    Type
                         _______ _______ _______ _____ _____    ______ ____

>  <TORSDO>
F 31

$$$$
=
 OpenBabel10222418353D

 62 63  0  0  1  0  0  0  0  0999 V2000
  188.3960  177.4620  137.6180 C   0  0  1  0  0  3  0  0  0  0  0  0
  188.6300  178.8760  138.1240 C   0  0  0  0  0  2  0  0  0  0  0  0
  188.5690  178.8940  139.5200 O   0  0  0  0  0  1  0  0  0  0  0  0
  186.9070  177.1150  137.7160 C   0  0  2  0  0  3  0  0  0  0  0  0
  186.7820  176.6660  135.3080 N   0  0  0  0  0  1  0  0  0  0  0  0
  186.5400  176.1010  136.6250 C   0  0  1  0  0  3  0  0  0  0  0  0
  187.2910  174.7810  136.7910 C   0  0  0  0  0  2  0  0  0  0  0  0
  186.7900  173.7310  135.8140 C   0  0  0  0  0  2  0  0  0  0  0  0
  186.3420  172.4870  136.5620 C   0  0  0  0  0  2  0  0  0  0  0  0
  185.0900  171.9160  135.9220 C   0  0  0  0  0  2  0  0  0  0  0  0
  183.8590  172.6220  136.3830 C   0  0  0  0  0  0  0  0  0  0  0  0
  183.8220  173.8830  136.3990 O   0  0  0  0  0  0  0  0  0  0  0  0
  181.3780  174.6390  137.9550 C   0  0  0  0  0  1  0  0  0  0  0  0
  182.7470  171.8460  136.8470 N   0  0  0  0  0  0  0  0  0  0  0  0
  180.2250  171.7730  137.4940 C   0  0  0  0  0  2  0  0  0  0  0  0
  179.5370  173.0920  137.4060 C   0  0  0  0  0  2  0  0  0  0  0  0
  180.8340  173.6510  136.9330 C   0  0  2  0  0  3  0  0  0  0  0  0
  181.5580  172.3230  137.0420 C   0  0  0  0  0  0  0  0  0  0  0  0
  186.0760  178.3130  137.6050 N   0  0  0  0  0  2  0  0  0  0  0  0
  185.4420  178.5360  138.8970 C   0  0  0  0  0  2  0  0  0  0  0  0
  183.9570  178.2050  138.8220 C   0  0  0  0  0  2  0  0  0  0  0  0
  183.5530  180.5310  138.8650 O   0  0  0  0  0  0  0  0  0  0  0  0
  183.1340  179.4270  138.5550 C   0  0  0  0  0  0  0  0  0  0  0  0
  181.8290  179.3120  137.8350 C   0  0  0  0  0  2  0  0  0  0  0  0
  180.7050  178.8780  138.7720 C   0  0  2  0  0  3  0  0  0  0  0  0
  179.4260  177.3740  137.4170 O   0  0  0  0  0  1  0  0  0  0  0  0
  179.4470  178.6710  137.9360 C   0  0  0  0  0  2  0  0  0  0  0  0
  180.4860  179.9320  139.8740 C   0  0  2  0  0  3  0  0  0  0  0  0
  181.6530  178.2300  141.2930 O   0  0  0  0  0  0  0  0  0  0  0  0
  180.7010  180.0810  142.2440 O   0  0  0  0  0  1  0  0  0  0  0  0
  180.9470  179.4230  141.2020 C   0  0  0  0  0  0  0  0  0  0  0  0
  179.0250  180.3590  139.9840 C   0  0  0  0  0  2  0  0  0  0  0  0
  178.9310  181.8720  139.9420 C   0  0  0  0  0  2  0  0  0  0  0  0
  179.7180  182.3600  138.8980 O   0  0  0  0  0  1  0  0  0  0  0  0
  189.0390  177.3280  135.9160 S   0  0  0  0  0  0  0  0  0  0  0  0
  190.4570  176.3280  136.4560 C   0  0  0  0  0  2  0  0  0  0  0  0
  193.1050  175.9990  137.4490 O   0  0  0  0  0  0  0  0  0  0  0  0
  192.2960  176.6580  138.1530 C   0  0  0  0  0  0  0  0  0  0  0  0
  190.9400  176.8120  137.7390 N   0  0  0  0  0  2  0  0  0  0  0  0
  192.7320  177.2370  139.4560 C   0  0  0  0  0  2  0  0  0  0  0  0
  191.6210  177.7930  140.1520 O   0  0  0  0  0  0  0  0  0  0  0  0
  190.6640  175.9100  141.0930 O   0  0  0  0  0  0  0  0  0  0  0  0
  190.9920  177.1230  141.2060 C   0  0  0  0  0  0  0  0  0  0  0  0
  189.7780  178.9000  142.2000 F   0  0  0  0  0  0  0  0  0  0  0  0
  190.6560  177.8560  142.4610 C   0  0  1  0  0  3  0  0  0  0  0  0
  190.0860  176.9080  143.5240 C   0  0  1  0  0  3  0  0  0  0  0  0
  189.4790  177.6890  147.7620 C   0  0  1  0  0  3  0  0  0  0  0  0
  188.3850  177.0100  145.5160 C   0  0  0  0  0  2  0  0  0  0  0  0
  191.9360  177.5220  146.7830 C   0  0  0  0  0  2  0  0  0  0  0  0
  191.4460  177.7480  145.3950 C   0  0  0  0  0  2  0  0  0  0  0  0
  191.0470  176.7100  144.6570 C   0  0  0  0  0  2  0  0  0  0  0  0
  188.6810  177.3500  144.0390 C   0  0  2  0  0  3  0  0  0  0  0  0
  190.8160  176.9000  147.6600 C   0  0  2  0  0  3  0  0  0  0  0  0
  187.7910  179.0250  146.6700 O   0  0  0  0  0  1  0  0  0  0  0  0
  188.8480  178.1500  146.4290 C   0  0  1  0  0  3  0  0  0  0  0  0
  187.0490  177.5950  142.1310 N   0  0  0  0  0  1  0  0  0  0  0  0
  187.5970  176.7950  143.1730 C   0  0  0  0  0  0  0  0  0  0  0  0
  187.1390  175.6410  143.3810 O   0  0  0  0  0  0  0  0  0  0  0  0
  187.6780  177.9170  149.0380 C   0  0  0  0  0  1  0  0  0  0  0  0
  188.5470  176.9630  148.5100 O   0  0  0  0  0  0  0  0  0  0  0  0
  191.7670  174.8960  147.6780 C   0  0  0  0  0  1  0  0  0  0  0  0
  190.5900  175.5580  147.3190 O   0  0  0  0  0  0  0  0  0  0  0  0
  1  4  1  0  0  0  0
  1  2  1  6  0  0  0
  2  3  1  0  0  0  0
  4 19  1  6  0  0  0
  6  5  1  6  0  0  0
  6  7  1  0  0  0  0
  6  4  1  0  0  0  0
  8  9  1  0  0  0  0
  8  7  1  0  0  0  0
 10 11  1  0  0  0  0
 10  9  1  0  0  0  0
 11 12  2  0  0  0  0
 11 14  1  0  0  0  0
 14 18  2  0  0  0  0
 16 15  1  0  0  0  0
 17 18  1  0  0  0  0
 17 16  1  0  0  0  0
 17 13  1  1  0  0  0
 18 15  1  0  0  0  0
 19 20  1  0  0  0  0
 21 20  1  0  0  0  0
 23 21  1  0  0  0  0
 23 22  2  0  0  0  0
 24 23  1  0  0  0  0
 25 24  1  6  0  0  0
 25 28  1  0  0  0  0
 26 27  1  0  0  0  0
 27 25  1  0  0  0  0
 28 32  1  1  0  0  0
 28 31  1  0  0  0  0
 31 29  2  0  0  0  0
 31 30  1  0  0  0  0
 33 32  1  0  0  0  0
 34 33  1  0  0  0  0
 35 36  1  0  0  0  0
 35  1  1  0  0  0  0
 36 39  1  0  0  0  0
 37 38  2  0  0  0  0
 38 40  1  0  0  0  0
 39 38  1  0  0  0  0
 40 41  1  0  0  0  0
 41 43  1  0  0  0  0
 42 43  2  0  0  0  0
 43 45  1  0  0  0  0
 45 44  1  6  0  0  0
 46 45  1  6  0  0  0
 46 52  1  0  0  0  0
 46 51  1  0  0  0  0
 47 60  1  6  0  0  0
 48 55  1  0  0  0  0
 49 53  1  0  0  0  0
 50 49  1  0  0  0  0
 51 50  1  0  0  0  0
 52 57  1  6  0  0  0
 52 48  1  0  0  0  0
 53 62  1  6  0  0  0
 53 47  1  0  0  0  0
 55 54  1  1  0  0  0
 55 47  1  0  0  0  0
 56 57  1  0  0  0  0
 57 58  2  0  0  0  0
 60 59  1  0  0  0  0
 62 61  1  0  0  0  0
M  END
>  <MODEL>
8

>  <REMARK>
 VINA RESULT:      -3.0      2.873      9.777
  Name = 
  31 active torsions:
  status: ('A' for Active; 'I' for Inactive)
    1  A    between atoms: C_1  and  C_42
    2  A    between atoms: C_4  and  C_48
    3  A    between atoms: C_6  and  C_25
    4  A    between atoms: C_6  and  C_46
    5  A    between atoms: C_6  and  C_49
    6  A    between atoms: N_7  and  C_28
    7  A    between atoms: C_9  and  C_26
    8  A    between atoms: C_9  and  C_28
    9  A    between atoms: C_14  and  C_47
   10  A    between atoms: C_16  and  C_41
   11  A    between atoms: C_17  and  O_62
   12  A    between atoms: C_23  and  C_25
   13  A    between atoms: C_23  and  C_56
   14  A    between atoms: O_24  and  C_43
   15  A    between atoms: C_26  and  C_32
   16  A    between atoms: C_30  and  S_53
   17  A    between atoms: C_30  and  N_55
   18  A    between atoms: O_31  and  C_47
   19  A    between atoms: O_31  and  C_60
   20  A    between atoms: C_32  and  C_54
   21  A    between atoms: C_36  and  C_59
   22  A    between atoms: C_42  and  C_60
   23  A    between atoms: C_44  and  N_45
   24  A    between atoms: C_44  and  C_56
   25  A    between atoms: N_45  and  C_58
   26  A    between atoms: C_48  and  S_53
   27  A    between atoms: C_48  and  C_58
   28  A    between atoms: C_49  and  C_59
   29  A    between atoms: C_49  and  C_61
   30  A    between atoms: C_50  and  C_54
   31  A    between atoms: C_50  and  C_58
                            x       y       z     vdW  Elec       q    Type
                         _______ _______ _______ _____ _____    ______ ____

>  <TORSDO>
F 31

$$$$
=
 OpenBabel10222418353D

 62 63  0  0  1  0  0  0  0  0999 V2000
  191.1870  177.5470  139.7270 C   0  0  1  0  0  3  0  0  0  0  0  0
  192.4670  176.8610  140.1770 C   0  0  0  0  0  2  0  0  0  0  0  0
  193.5720  177.6330  139.8050 O   0  0  0  0  0  1  0  0  0  0  0  0
  190.5930  176.8010  138.5280 C   0  0  2  0  0  3  0  0  0  0  0  0
  188.8340  178.4400  138.0430 N   0  0  0  0  0  1  0  0  0  0  0  0
  189.0840  177.0680  138.4510 C   0  0  1  0  0  3  0  0  0  0  0  0
  188.3750  176.0900  137.5160 C   0  0  0  0  0  2  0  0  0  0  0  0
  187.2550  176.7700  136.7480 C   0  0  0  0  0  2  0  0  0  0  0  0
  186.1410  175.7800  136.4540 C   0  0  0  0  0  2  0  0  0  0  0  0
  185.0280  175.9280  137.4770 C   0  0  0  0  0  2  0  0  0  0  0  0
  183.7140  176.2160  136.8310 C   0  0  0  0  0  0  0  0  0  0  0  0
  183.3350  177.4090  136.6740 O   0  0  0  0  0  0  0  0  0  0  0  0
  181.2080  175.5000  139.2610 C   0  0  0  0  0  1  0  0  0  0  0  0
  182.8800  175.1190  136.4380 N   0  0  0  0  0  0  0  0  0  0  0  0
  180.5810  173.9110  136.6450 C   0  0  0  0  0  2  0  0  0  0  0  0
  179.6410  174.5550  137.6070 C   0  0  0  0  0  2  0  0  0  0  0  0
  180.6960  175.5830  137.8290 C   0  0  2  0  0  3  0  0  0  0  0  0
  181.6750  174.9280  136.8760 C   0  0  0  0  0  0  0  0  0  0  0  0
  190.8570  175.3660  138.6120 N   0  0  0  0  0  2  0  0  0  0  0  0
  192.0480  175.0850  137.8210 C   0  0  0  0  0  2  0  0  0  0  0  0
  191.6720  174.3550  136.5380 C   0  0  0  0  0  2  0  0  0  0  0  0
  192.6820  172.5600  135.3840 O   0  0  0  0  0  0  0  0  0  0  0  0
  192.8440  173.6240  135.9590 C   0  0  0  0  0  0  0  0  0  0  0  0
  194.2090  174.2330  136.0090 C   0  0  0  0  0  2  0  0  0  0  0  0
  195.1980  173.3340  136.7470 C   0  0  2  0  0  3  0  0  0  0  0  0
  195.5250  172.9510  139.0880 O   0  0  0  0  0  1  0  0  0  0  0  0
  195.4650  173.9520  138.1160 C   0  0  0  0  0  2  0  0  0  0  0  0
  196.4950  173.1790  135.9320 C   0  0  2  0  0  3  0  0  0  0  0  0
  197.3170  171.1000  137.0590 O   0  0  0  0  0  1  0  0  0  0  0  0
  196.9550  171.1320  134.8000 O   0  0  0  0  0  0  0  0  0  0  0  0
  196.9360  171.7510  135.8940 C   0  0  0  0  0  0  0  0  0  0  0  0
  197.6310  174.0360  136.4830 C   0  0  0  0  0  2  0  0  0  0  0  0
  197.8350  175.2470  135.5930 C   0  0  0  0  0  2  0  0  0  0  0  0
  197.0680  176.3110  136.0690 O   0  0  0  0  0  1  0  0  0  0  0  0
  190.0370  177.6370  141.1390 S   0  0  0  0  0  0  0  0  0  0  0  0
  191.3760  177.3670  142.3380 C   0  0  0  0  0  2  0  0  0  0  0  0
  191.8520  176.1510  144.8680 O   0  0  0  0  0  0  0  0  0  0  0  0
  191.3210  177.2930  144.8610 C   0  0  0  0  0  0  0  0  0  0  0  0
  191.0050  177.9330  143.6250 N   0  0  0  0  0  2  0  0  0  0  0  0
  190.9660  177.9650  146.1430 C   0  0  0  0  0  2  0  0  0  0  0  0
  190.1930  177.0970  146.9650 O   0  0  0  0  0  0  0  0  0  0  0  0
  188.1750  176.0340  147.3400 O   0  0  0  0  0  0  0  0  0  0  0  0
  188.8000  177.0190  146.8620 C   0  0  0  0  0  0  0  0  0  0  0  0
  188.9000  178.8430  145.3510 F   0  0  0  0  0  0  0  0  0  0  0  0
  188.0450  178.0810  146.1370 C   0  0  1  0  0  3  0  0  0  0  0  0
  186.9090  177.4830  145.2970 C   0  0  1  0  0  3  0  0  0  0  0  0
  184.7330  179.3420  142.0190 C   0  0  1  0  0  3  0  0  0  0  0  0
  186.2100  177.3540  142.7740 C   0  0  0  0  0  2  0  0  0  0  0  0
  184.4360  180.2490  144.4910 C   0  0  0  0  0  2  0  0  0  0  0  0
  185.6990  179.5930  144.9310 C   0  0  0  0  0  2  0  0  0  0  0  0
  185.6740  178.3290  145.3580 C   0  0  0  0  0  2  0  0  0  0  0  0
  187.3330  177.1970  143.8230 C   0  0  2  0  0  3  0  0  0  0  0  0
  183.8290  179.4990  143.2760 C   0  0  2  0  0  3  0  0  0  0  0  0
  186.9250  178.9160  141.1030 O   0  0  0  0  0  1  0  0  0  0  0  0
  186.1580  178.7960  142.2600 C   0  0  1  0  0  3  0  0  0  0  0  0
  187.1220  174.6840  143.8100 N   0  0  0  0  0  1  0  0  0  0  0  0
  187.9450  175.8390  143.6960 C   0  0  0  0  0  0  0  0  0  0  0  0
  189.1850  175.7090  143.5250 O   0  0  0  0  0  0  0  0  0  0  0  0
  184.0300  179.3830  139.9150 C   0  0  0  0  0  1  0  0  0  0  0  0
  184.0810  178.5740  141.0500 O   0  0  0  0  0  0  0  0  0  0  0  0
  181.9740  178.5710  144.0650 C   0  0  0  0  0  1  0  0  0  0  0  0
  183.2780  178.2680  143.6620 O   0  0  0  0  0  0  0  0  0  0  0  0
  1  2  1  1  0  0  0
  1 35  1  0  0  0  0
  3  2  1  0  0  0  0
  4 19  1  1  0  0  0
  4  1  1  0  0  0  0
  6  5  1  6  0  0  0
  6  4  1  0  0  0  0
  7  6  1  0  0  0  0
  8  7  1  0  0  0  0
  9  8  1  0  0  0  0
  9 10  1  0  0  0  0
 11 10  1  0  0  0  0
 12 11  2  0  0  0  0
 14 11  1  0  0  0  0
 14 18  2  0  0  0  0
 15 18  1  0  0  0  0
 15 16  1  0  0  0  0
 16 17  1  0  0  0  0
 17 13  1  1  0  0  0
 18 17  1  0  0  0  0
 20 19  1  0  0  0  0
 21 20  1  0  0  0  0
 22 23  2  0  0  0  0
 23 24  1  0  0  0  0
 23 21  1  0  0  0  0
 25 24  1  6  0  0  0
 25 27  1  0  0  0  0
 27 26  1  0  0  0  0
 28 32  1  1  0  0  0
 28 25  1  0  0  0  0
 30 31  2  0  0  0  0
 31 28  1  0  0  0  0
 31 29  1  0  0  0  0
 33 34  1  0  0  0  0
 33 32  1  0  0  0  0
 35 36  1  0  0  0  0
 36 39  1  0  0  0  0
 38 37  2  0  0  0  0
 38 40  1  0  0  0  0
 39 38  1  0  0  0  0
 40 41  1  0  0  0  0
 43 41  1  0  0  0  0
 43 42  2  0  0  0  0
 45 44  1  6  0  0  0
 45 43  1  0  0  0  0
 46 51  1  0  0  0  0
 46 45  1  1  0  0  0
 47 60  1  6  0  0  0
 47 55  1  0  0  0  0
 47 53  1  0  0  0  0
 48 52  1  0  0  0  0
 49 50  1  0  0  0  0
 50 51  1  0  0  0  0
 52 57  1  1  0  0  0
 52 46  1  0  0  0  0
 53 62  1  1  0  0  0
 53 49  1  0  0  0  0
 55 54  1  6  0  0  0
 55 48  1  0  0  0  0
 57 56  1  0  0  0  0
 58 57  2  0  0  0  0
 59 60  1  0  0  0  0
 62 61  1  0  0  0  0
M  END
>  <MODEL>
9

>  <REMARK>
 VINA RESULT:      -2.8      2.747      9.810
  Name = 
  31 active torsions:
  status: ('A' for Active; 'I' for Inactive)
    1  A    between atoms: C_1  and  C_42
    2  A    between atoms: C_4  and  C_48
    3  A    between atoms: C_6  and  C_25
    4  A    between atoms: C_6  and  C_46
    5  A    between atoms: C_6  and  C_49
    6  A    between atoms: N_7  and  C_28
    7  A    between atoms: C_9  and  C_26
    8  A    between atoms: C_9  and  C_28
    9  A    between atoms: C_14  and  C_47
   10  A    between atoms: C_16  and  C_41
   11  A    between atoms: C_17  and  O_62
   12  A    between atoms: C_23  and  C_25
   13  A    between atoms: C_23  and  C_56
   14  A    between atoms: O_24  and  C_43
   15  A    between atoms: C_26  and  C_32
   16  A    between atoms: C_30  and  S_53
   17  A    between atoms: C_30  and  N_55
   18  A    between atoms: O_31  and  C_47
   19  A    between atoms: O_31  and  C_60
   20  A    between atoms: C_32  and  C_54
   21  A    between atoms: C_36  and  C_59
   22  A    between atoms: C_42  and  C_60
   23  A    between atoms: C_44  and  N_45
   24  A    between atoms: C_44  and  C_56
   25  A    between atoms: N_45  and  C_58
   26  A    between atoms: C_48  and  S_53
   27  A    between atoms: C_48  and  C_58
   28  A    between atoms: C_49  and  C_59
   29  A    between atoms: C_49  and  C_61
   30  A    between atoms: C_50  and  C_54
   31  A    between atoms: C_50  and  C_58
                            x       y       z     vdW  Elec       q    Type
                         _______ _______ _______ _____ _____    ______ ____

>  <TORSDO>
F 31

$$$$
