=
 OpenBabel10222418343D

 62 66  0  0  1  0  0  0  0  0999 V2000
  186.9520  178.0910  139.6470 C   0  0  0  0  0  0  0  0  0  0  0  0
  189.5160  178.3670  139.2250 C   0  0  0  0  0  3  0  0  0  0  0  0
  188.2300  178.2290  139.4160 C   0  0  0  0  0  0  0  0  0  0  0  0
  184.8920  179.0750  138.6440 C   0  0  0  0  0  1  0  0  0  0  0  0
  185.9960  178.0390  138.4930 C   0  0  1  0  0  3  0  0  0  0  0  0
  186.6970  178.1880  137.1720 C   0  0  0  0  0  0  0  0  0  0  0  0
  187.0680  179.2880  136.7880 O   0  0  0  0  0  0  0  0  0  0  0  0
  186.8770  177.0080  136.2720 C   0  0  1  0  0  3  0  0  0  0  0  0
  188.0100  177.1670  135.4750 O   0  0  0  0  0  1  0  0  0  0  0  0
  186.9940  175.7410  137.1050 C   0  0  0  0  0  2  0  0  0  0  0  0
  186.5940  174.5010  136.3120 C   0  0  0  0  0  2  0  0  0  0  0  0
  180.7040  175.3440  138.3200 C   0  0  1  0  0  3  0  0  0  0  0  0
  183.1220  173.0450  135.6520 C   0  0  0  0  0  0  0  0  0  0  0  0
  180.8490  173.6660  136.7000 C   0  0  2  0  0  3  0  0  0  0  0  0
  182.9710  174.6740  137.4900 C   0  0  1  0  0  3  0  0  0  0  0  0
  184.5800  173.2390  135.6500 C   0  0  0  0  0  3  0  0  0  0  0  0
  182.6270  172.0410  135.0750 O   0  0  0  0  0  0  0  0  0  0  0  0
  182.1720  175.8060  138.1360 C   0  0  0  0  0  0  0  0  0  0  0  0
  180.0900  174.7650  137.1790 O   0  0  0  0  0  0  0  0  0  0  0  0
  182.7940  176.1840  139.4710 C   0  0  0  0  0  1  0  0  0  0  0  0
  182.1820  177.0390  137.2450 C   0  0  0  0  0  1  0  0  0  0  0  0
  185.1230  174.2290  136.3720 C   0  0  0  0  0  0  0  0  0  0  0  0
  182.2500  174.1190  136.2620 C   0  0  1  0  0  3  0  0  0  0  0  0
  180.1700  173.0910  135.6220 O   0  0  0  0  0  1  0  0  0  0  0  0
  184.3100  175.0520  137.1650 O   0  0  0  0  0  0  0  0  0  0  0  0
  179.4510  175.5620  140.2340 C   0  0  0  0  0  1  0  0  0  0  0  0
  180.3470  174.7320  139.5440 O   0  0  0  0  0  0  0  0  0  0  0  0
  186.4790  177.8620  141.0490 C   0  0  0  0  0  2  0  0  0  0  0  0
  186.5600  179.1440  141.8680 C   0  0  0  0  0  2  0  0  0  0  0  0
  185.2090  179.4570  142.4870 C   0  0  0  0  0  2  0  0  0  0  0  0
  184.2620  178.2810  142.3140 C   0  0  0  0  0  2  0  0  0  0  0  0
  182.1690  178.7380  144.2050 O   0  0  0  0  0  0  0  0  0  0  0  0
  182.9220  178.7550  141.9930 N   0  0  0  0  0  2  0  0  0  0  0  0
  181.9210  178.9750  142.9930 C   0  0  0  0  0  0  0  0  0  0  0  0
  180.2170  180.6120  142.9870 O   0  0  0  0  0  1  0  0  0  0  0  0
  179.7700  178.7140  141.7910 O   0  0  0  0  0  0  0  0  0  0  0  0
  180.6000  179.4790  142.6020 C   0  0  0  0  0  0  0  0  0  0  0  0
  190.5570  177.6250  140.0220 C   0  0  2  0  0  3  0  0  0  0  0  0
  192.8920  177.1560  139.6830 O   0  0  0  0  0  1  0  0  0  0  0  0
  191.6310  177.0650  139.0850 C   0  0  1  0  0  3  0  0  0  0  0  0
  191.3500  175.6450  138.6670 C   0  0  0  0  0  3  0  0  0  0  0  0
  191.2860  175.2580  137.3870 C   0  0  0  0  0  3  0  0  0  0  0  0
  191.4960  176.1990  136.2390 C   0  0  0  0  0  2  0  0  0  0  0  0
  192.7500  175.8110  135.4770 C   0  0  0  0  0  2  0  0  0  0  0  0
  195.0010  176.7920  135.1240 C   0  0  0  0  0  0  0  0  0  0  0  0
  195.1060  175.4980  135.9500 C   0  0  0  0  0  2  0  0  0  0  0  0
  195.2510  178.0620  135.6490 O   0  0  0  0  0  0  0  0  0  0  0  0
  193.9640  176.3730  136.1850 C   0  0  2  0  0  3  0  0  0  0  0  0
  196.2750  177.2720  135.4230 O   0  0  0  0  0  0  0  0  0  0  0  0
  189.9670  176.5590  140.9540 C   0  0  0  0  0  2  0  0  0  0  0  0
  189.9130  177.0480  142.3880 C   0  0  0  0  0  2  0  0  0  0  0  0
  191.1710  177.8430  142.7020 C   0  0  0  0  0  2  0  0  0  0  0  0
  191.5500  177.7390  144.1760 C   0  0  0  0  0  2  0  0  0  0  0  0
  190.3950  177.2090  145.0110 C   0  0  0  0  0  2  0  0  0  0  0  0
  190.8510  176.9790  146.4410 C   0  0  0  0  0  2  0  0  0  0  0  0
  189.7720  177.2070  147.3420 O   0  0  0  0  0  0  0  0  0  0  0  0
  185.9060  178.2940  146.1060 C   0  0  0  0  0  3  0  0  0  0  0  0
  186.7350  177.5860  145.2320 C   0  0  0  0  0  3  0  0  0  0  0  0
  186.3600  178.6270  147.3860 C   0  0  0  0  0  3  0  0  0  0  0  0
  188.4860  177.5560  146.9160 C   0  0  0  0  0  0  0  0  0  0  0  0
  188.0210  177.2170  145.6330 C   0  0  0  0  0  3  0  0  0  0  0  0
  187.6470  178.2560  147.7890 C   0  0  0  0  0  3  0  0  0  0  0  0
  1 28  1  0  0  0  0
  2  3  2  0  0  0  0
  3  1  2  0  0  0  0
  5  4  1  1  0  0  0
  5  1  1  0  0  0  0
  6  5  1  0  0  0  0
  7  6  2  0  0  0  0
  8  9  1  1  0  0  0
  8 10  1  0  0  0  0
  8  6  1  0  0  0  0
 11 22  1  0  0  0  0
 11 10  1  0  0  0  0
 12 27  1  1  0  0  0
 14 24  1  6  0  0  0
 14 19  1  0  0  0  0
 15 25  1  6  0  0  0
 15 18  1  0  0  0  0
 16 13  1  0  0  0  0
 16 22  2  0  0  0  0
 17 13  2  0  0  0  0
 18 12  1  0  0  0  0
 18 20  1  0  0  0  0
 19 12  1  0  0  0  0
 21 18  1  0  0  0  0
 22 25  1  0  0  0  0
 23 13  1  1  0  0  0
 23 14  1  0  0  0  0
 23 15  1  0  0  0  0
 27 26  1  0  0  0  0
 28 29  1  0  0  0  0
 29 30  1  0  0  0  0
 31 30  1  0  0  0  0
 33 31  1  0  0  0  0
 33 34  1  0  0  0  0
 34 32  2  0  0  0  0
 36 37  2  0  0  0  0
 37 35  1  0  0  0  0
 37 34  1  0  0  0  0
 38  2  1  6  0  0  0
 38 50  1  0  0  0  0
 40 39  1  1  0  0  0
 40 38  1  0  0  0  0
 41 40  1  0  0  0  0
 42 41  2  0  0  0  0
 43 42  1  0  0  0  0
 44 43  1  0  0  0  0
 45 49  1  0  0  0  0
 45 47  1  0  0  0  0
 45 46  1  0  0  0  0
 45 48  1  0  0  0  0
 46 48  1  0  0  0  0
 48 44  1  6  0  0  0
 49 47  1  0  0  0  0
 50 51  1  0  0  0  0
 51 52  1  0  0  0  0
 52 53  1  0  0  0  0
 53 54  1  0  0  0  0
 54 55  1  0  0  0  0
 55 56  1  0  0  0  0
 57 59  1  0  0  0  0
 58 61  1  0  0  0  0
 58 57  2  0  0  0  0
 59 62  2  0  0  0  0
 60 56  1  0  0  0  0
 60 62  1  0  0  0  0
 61 60  2  0  0  0  0
M  END
>  <MODEL>
1

>  <REMARK>
 VINA RESULT:      -6.8      0.000      0.000
  Name = 
  27 active torsions:
  status: ('A' for Active; 'I' for Inactive)
    1  A    between atoms: C_2  and  O_51
    2  A    between atoms: C_3  and  C_13
    3  A    between atoms: C_3  and  C_16
    4  A    between atoms: C_5  and  C_62
    5  A    between atoms: C_6  and  C_21
    6  A    between atoms: C_6  and  C_53
    7  A    between atoms: O_7  and  C_27
    8  A    between atoms: O_7  and  C_35
    9  A    between atoms: C_9  and  C_12
   10  A    between atoms: C_9  and  C_36
   11  A    between atoms: C_12  and  C_45
   12  A    between atoms: C_12  and  C_62
   13  A    between atoms: C_13  and  C_40
   14  A    between atoms: C_15  and  C_21
   15  A    between atoms: C_15  and  C_30
   16  A    between atoms: C_16  and  C_28
   17  A    between atoms: C_24  and  C_50
   18  A    between atoms: C_24  and  C_54
   19  A    between atoms: C_27  and  C_50
   20  A    between atoms: C_28  and  C_53
   21  A    between atoms: C_30  and  C_47
   22  A    between atoms: N_31  and  C_40
   23  A    between atoms: C_34  and  C_57
   24  A    between atoms: C_36  and  C_54
   25  A    between atoms: C_41  and  C_44
   26  A    between atoms: C_49  and  C_55
   27  A    between atoms: C_49  and  C_57
                            x       y       z     vdW  Elec       q    Type
                         _______ _______ _______ _____ _____    ______ ____

>  <TORSDO>
F 27

$$$$
=
 OpenBabel10222418343D

 62 66  0  0  1  0  0  0  0  0999 V2000
  183.3120  178.3320  141.4400 C   0  0  0  0  0  0  0  0  0  0  0  0
  183.1740  176.7730  139.3480 C   0  0  0  0  0  3  0  0  0  0  0  0
  183.2610  177.5460  140.4000 C   0  0  0  0  0  0  0  0  0  0  0  0
  185.8020  178.3490  141.5620 C   0  0  0  0  0  1  0  0  0  0  0  0
  184.5020  178.2760  142.3500 C   0  0  1  0  0  3  0  0  0  0  0  0
  184.4540  179.3400  143.4090 C   0  0  0  0  0  0  0  0  0  0  0  0
  184.9120  180.4530  143.1910 O   0  0  0  0  0  0  0  0  0  0  0  0
  183.9220  179.0300  144.7720 C   0  0  1  0  0  3  0  0  0  0  0  0
  182.6130  178.5570  144.6910 O   0  0  0  0  0  1  0  0  0  0  0  0
  184.8130  178.0000  145.4480 C   0  0  0  0  0  2  0  0  0  0  0  0
  185.7140  178.6340  146.5030 C   0  0  0  0  0  2  0  0  0  0  0  0
  190.8620  176.5010  143.6070 C   0  0  1  0  0  3  0  0  0  0  0  0
  189.2810  177.6090  147.4180 C   0  0  0  0  0  0  0  0  0  0  0  0
  191.1890  176.7560  145.9070 C   0  0  2  0  0  3  0  0  0  0  0  0
  188.9060  177.1550  145.0290 C   0  0  1  0  0  3  0  0  0  0  0  0
  187.8670  178.0000  147.5270 C   0  0  0  0  0  3  0  0  0  0  0  0
  189.9380  177.3510  148.4610 O   0  0  0  0  0  0  0  0  0  0  0  0
  189.4780  177.1970  143.6120 C   0  0  0  0  0  0  0  0  0  0  0  0
  191.7660  176.9140  144.6200 O   0  0  0  0  0  0  0  0  0  0  0  0
  188.5230  176.5140  142.6460 C   0  0  0  0  0  1  0  0  0  0  0  0
  189.6600  178.6370  143.1540 C   0  0  0  0  0  1  0  0  0  0  0  0
  187.1280  178.1470  146.4190 C   0  0  0  0  0  0  0  0  0  0  0  0
  189.9340  177.6310  146.0550 C   0  0  1  0  0  3  0  0  0  0  0  0
  192.1390  177.1110  146.8690 O   0  0  0  0  0  1  0  0  0  0  0  0
  187.6840  177.8850  145.1580 O   0  0  0  0  0  0  0  0  0  0  0  0
  191.7080  174.4700  144.2710 C   0  0  0  0  0  1  0  0  0  0  0  0
  190.9110  175.1180  143.3150 O   0  0  0  0  0  0  0  0  0  0  0  0
  182.2420  179.3630  141.6370 C   0  0  0  0  0  2  0  0  0  0  0  0
  180.8580  178.7290  141.5700 C   0  0  0  0  0  2  0  0  0  0  0  0
  179.8490  179.7300  141.0330 C   0  0  0  0  0  2  0  0  0  0  0  0
  179.7960  179.6670  139.5160 C   0  0  0  0  0  2  0  0  0  0  0  0
  182.0410  180.7660  138.1310 O   0  0  0  0  0  0  0  0  0  0  0  0
  179.8660  181.0080  138.9510 N   0  0  0  0  0  2  0  0  0  0  0  0
  181.0210  181.4940  138.2570 C   0  0  0  0  0  0  0  0  0  0  0  0
  180.0210  183.2510  137.0350 O   0  0  0  0  0  0  0  0  0  0  0  0
  182.0980  183.6930  137.8860 O   0  0  0  0  0  1  0  0  0  0  0  0
  181.0140  182.8470  137.6900 C   0  0  0  0  0  0  0  0  0  0  0  0
  182.6340  177.2380  138.0210 C   0  0  2  0  0  3  0  0  0  0  0  0
  180.3030  176.6400  138.0400 O   0  0  0  0  0  1  0  0  0  0  0  0
  181.5520  176.2720  137.5290 C   0  0  1  0  0  3  0  0  0  0  0  0
  181.4990  176.1800  136.0250 C   0  0  0  0  0  3  0  0  0  0  0  0
  181.2280  175.0440  135.3700 C   0  0  0  0  0  3  0  0  0  0  0  0
  180.9420  173.7490  136.0680 C   0  0  0  0  0  2  0  0  0  0  0  0
  182.0030  172.7250  135.7080 C   0  0  0  0  0  2  0  0  0  0  0  0
  184.4600  172.3850  135.7570 C   0  0  0  0  0  0  0  0  0  0  0  0
  183.8080  171.7420  136.9930 C   0  0  0  0  0  2  0  0  0  0  0  0
  185.2760  173.5180  135.8210 O   0  0  0  0  0  0  0  0  0  0  0  0
  183.2610  173.0020  136.5040 C   0  0  2  0  0  3  0  0  0  0  0  0
  185.7660  172.3760  136.2480 O   0  0  0  0  0  0  0  0  0  0  0  0
  183.7260  177.4900  136.9720 C   0  0  0  0  0  2  0  0  0  0  0  0
  184.9940  176.7270  137.3010 C   0  0  0  0  0  2  0  0  0  0  0  0
  186.2010  177.6230  137.0760 C   0  0  0  0  0  2  0  0  0  0  0  0
  187.3300  176.8810  136.3690 C   0  0  0  0  0  2  0  0  0  0  0  0
  187.7170  175.6150  137.1170 C   0  0  0  0  0  2  0  0  0  0  0  0
  189.0740  175.1260  136.6430 C   0  0  0  0  0  2  0  0  0  0  0  0
  189.8850  174.7730  137.7600 O   0  0  0  0  0  0  0  0  0  0  0  0
  192.7970  177.3240  139.3950 C   0  0  0  0  0  3  0  0  0  0  0  0
  193.0840  176.6070  138.2290 C   0  0  0  0  0  3  0  0  0  0  0  0
  191.5440  177.1970  140.0020 C   0  0  0  0  0  3  0  0  0  0  0  0
  190.8640  175.6220  138.2870 C   0  0  0  0  0  0  0  0  0  0  0  0
  192.1220  175.7590  137.6750 C   0  0  0  0  0  3  0  0  0  0  0  0
  190.5800  176.3490  139.4470 C   0  0  0  0  0  3  0  0  0  0  0  0
  1 28  1  0  0  0  0
  1  5  1  0  0  0  0
  2  3  2  0  0  0  0
  3  1  2  0  0  0  0
  5  4  1  6  0  0  0
  5  6  1  0  0  0  0
  6  8  1  0  0  0  0
  7  6  2  0  0  0  0
  8  9  1  6  0  0  0
  8 10  1  0  0  0  0
 10 11  1  0  0  0  0
 12 27  1  1  0  0  0
 12 18  1  0  0  0  0
 12 19  1  0  0  0  0
 13 16  1  0  0  0  0
 13 17  2  0  0  0  0
 14 23  1  0  0  0  0
 14 24  1  1  0  0  0
 15 25  1  6  0  0  0
 15 23  1  0  0  0  0
 18 15  1  0  0  0  0
 19 14  1  0  0  0  0
 20 18  1  0  0  0  0
 21 18  1  0  0  0  0
 22 11  1  0  0  0  0
 22 16  2  0  0  0  0
 23 13  1  1  0  0  0
 25 22  1  0  0  0  0
 27 26  1  0  0  0  0
 29 28  1  0  0  0  0
 30 29  1  0  0  0  0
 31 30  1  0  0  0  0
 32 34  2  0  0  0  0
 33 31  1  0  0  0  0
 34 33  1  0  0  0  0
 35 37  2  0  0  0  0
 37 36  1  0  0  0  0
 37 34  1  0  0  0  0
 38 50  1  6  0  0  0
 38  2  1  0  0  0  0
 40 38  1  0  0  0  0
 40 39  1  6  0  0  0
 41 40  1  0  0  0  0
 42 41  2  0  0  0  0
 42 43  1  0  0  0  0
 44 43  1  0  0  0  0
 45 47  1  0  0  0  0
 45 49  1  0  0  0  0
 45 48  1  0  0  0  0
 45 46  1  0  0  0  0
 47 49  1  0  0  0  0
 48 44  1  6  0  0  0
 48 46  1  0  0  0  0
 50 51  1  0  0  0  0
 52 51  1  0  0  0  0
 53 52  1  0  0  0  0
 53 54  1  0  0  0  0
 55 54  1  0  0  0  0
 55 56  1  0  0  0  0
 56 60  1  0  0  0  0
 57 59  1  0  0  0  0
 58 57  2  0  0  0  0
 60 62  1  0  0  0  0
 61 58  1  0  0  0  0
 61 60  2  0  0  0  0
 62 59  2  0  0  0  0
M  END
>  <MODEL>
2

>  <REMARK>
 VINA RESULT:      -6.2      2.485      9.706
  Name = 
  27 active torsions:
  status: ('A' for Active; 'I' for Inactive)
    1  A    between atoms: C_2  and  O_51
    2  A    between atoms: C_3  and  C_13
    3  A    between atoms: C_3  and  C_16
    4  A    between atoms: C_5  and  C_62
    5  A    between atoms: C_6  and  C_21
    6  A    between atoms: C_6  and  C_53
    7  A    between atoms: O_7  and  C_27
    8  A    between atoms: O_7  and  C_35
    9  A    between atoms: C_9  and  C_12
   10  A    between atoms: C_9  and  C_36
   11  A    between atoms: C_12  and  C_45
   12  A    between atoms: C_12  and  C_62
   13  A    between atoms: C_13  and  C_40
   14  A    between atoms: C_15  and  C_21
   15  A    between atoms: C_15  and  C_30
   16  A    between atoms: C_16  and  C_28
   17  A    between atoms: C_24  and  C_50
   18  A    between atoms: C_24  and  C_54
   19  A    between atoms: C_27  and  C_50
   20  A    between atoms: C_28  and  C_53
   21  A    between atoms: C_30  and  C_47
   22  A    between atoms: N_31  and  C_40
   23  A    between atoms: C_34  and  C_57
   24  A    between atoms: C_36  and  C_54
   25  A    between atoms: C_41  and  C_44
   26  A    between atoms: C_49  and  C_55
   27  A    between atoms: C_49  and  C_57
                            x       y       z     vdW  Elec       q    Type
                         _______ _______ _______ _____ _____    ______ ____

>  <TORSDO>
F 27

$$$$
=
 OpenBabel10222418343D

 62 66  0  0  1  0  0  0  0  0999 V2000
  184.0460  178.9130  139.0770 C   0  0  0  0  0  0  0  0  0  0  0  0
  186.0740  177.7980  137.8650 C   0  0  0  0  0  3  0  0  0  0  0  0
  185.0650  178.3480  138.4890 C   0  0  0  0  0  0  0  0  0  0  0  0
  183.3890  177.2580  140.8220 C   0  0  0  0  0  1  0  0  0  0  0  0
  183.8230  178.6890  140.5430 C   0  0  1  0  0  3  0  0  0  0  0  0
  185.0310  179.0540  141.3600 C   0  0  0  0  0  0  0  0  0  0  0  0
  184.9320  179.8320  142.2980 O   0  0  0  0  0  0  0  0  0  0  0  0
  186.3830  178.5360  140.9870 C   0  0  1  0  0  3  0  0  0  0  0  0
  187.3190  179.5700  140.9790 O   0  0  0  0  0  1  0  0  0  0  0  0
  186.8050  177.4530  141.9670 C   0  0  0  0  0  2  0  0  0  0  0  0
  186.0970  177.5970  143.3100 C   0  0  0  0  0  2  0  0  0  0  0  0
  191.6690  176.8500  146.1090 C   0  0  1  0  0  3  0  0  0  0  0  0
  187.5700  177.8140  146.8310 C   0  0  0  0  0  0  0  0  0  0  0  0
  189.9930  177.4320  147.6300 C   0  0  2  0  0  3  0  0  0  0  0  0
  189.3100  177.0190  145.2830 C   0  0  1  0  0  3  0  0  0  0  0  0
  186.6100  177.7630  145.7180 C   0  0  0  0  0  3  0  0  0  0  0  0
  187.1480  177.8800  148.0160 O   0  0  0  0  0  0  0  0  0  0  0  0
  190.7790  177.0850  144.8630 C   0  0  0  0  0  0  0  0  0  0  0  0
  191.3480  177.6230  147.2550 O   0  0  0  0  0  0  0  0  0  0  0  0
  191.0590  176.0460  143.7900 C   0  0  0  0  0  1  0  0  0  0  0  0
  191.1060  178.4560  144.2880 C   0  0  0  0  0  1  0  0  0  0  0  0
  187.0470  177.5600  144.4670 C   0  0  0  0  0  0  0  0  0  0  0  0
  189.0460  177.8910  146.5100 C   0  0  1  0  0  3  0  0  0  0  0  0
  189.7460  178.1590  148.7980 O   0  0  0  0  0  1  0  0  0  0  0  0
  188.4120  177.3500  144.2220 O   0  0  0  0  0  0  0  0  0  0  0  0
  192.6330  175.4810  147.6830 C   0  0  0  0  0  1  0  0  0  0  0  0
  192.0720  175.5250  146.3980 O   0  0  0  0  0  0  0  0  0  0  0  0
  183.1920  179.8740  138.3070 C   0  0  0  0  0  2  0  0  0  0  0  0
  182.2920  180.6720  139.2420 C   0  0  0  0  0  2  0  0  0  0  0  0
  181.0080  181.0600  138.5290 C   0  0  0  0  0  2  0  0  0  0  0  0
  179.8640  181.1750  139.5230 C   0  0  0  0  0  2  0  0  0  0  0  0
  179.1670  178.5990  140.5430 O   0  0  0  0  0  0  0  0  0  0  0  0
  180.2650  180.6430  140.8180 N   0  0  0  0  0  2  0  0  0  0  0  0
  179.8900  179.3350  141.2650 C   0  0  0  0  0  0  0  0  0  0  0  0
  181.4740  179.2020  143.0130 O   0  0  0  0  0  0  0  0  0  0  0  0
  179.5440  178.0170  143.3340 O   0  0  0  0  0  1  0  0  0  0  0  0
  180.3520  178.8520  142.5710 C   0  0  0  0  0  0  0  0  0  0  0  0
  186.8890  178.5110  136.8180 C   0  0  2  0  0  3  0  0  0  0  0  0
  187.8770  177.8730  134.7180 O   0  0  0  0  0  1  0  0  0  0  0  0
  186.6890  177.8420  135.4550 C   0  0  1  0  0  3  0  0  0  0  0  0
  186.1820  176.4270  135.5740 C   0  0  0  0  0  3  0  0  0  0  0  0
  184.9540  176.0550  135.1920 C   0  0  0  0  0  3  0  0  0  0  0  0
  183.9610  177.0070  134.5980 C   0  0  0  0  0  2  0  0  0  0  0  0
  182.9040  177.3590  135.6300 C   0  0  0  0  0  2  0  0  0  0  0  0
  181.3990  175.5280  136.3610 C   0  0  0  0  0  0  0  0  0  0  0  0
  181.6570  176.5030  137.5230 C   0  0  0  0  0  2  0  0  0  0  0  0
  181.8940  174.2220  136.3290 O   0  0  0  0  0  0  0  0  0  0  0  0
  182.7560  176.2150  136.6100 C   0  0  2  0  0  3  0  0  0  0  0  0
  180.8950  174.4870  137.1400 O   0  0  0  0  0  0  0  0  0  0  0  0
  188.3690  178.6620  137.1930 C   0  0  0  0  0  2  0  0  0  0  0  0
  188.7520  177.7180  138.3170 C   0  0  0  0  0  2  0  0  0  0  0  0
  189.6400  176.6110  137.7720 C   0  0  0  0  0  2  0  0  0  0  0  0
  190.5950  176.0790  138.8350 C   0  0  0  0  0  2  0  0  0  0  0  0
  191.9840  176.6760  138.6820 C   0  0  0  0  0  2  0  0  0  0  0  0
  192.6200  176.1890  137.3920 C   0  0  0  0  0  2  0  0  0  0  0  0
  194.0360  176.1310  137.5350 O   0  0  0  0  0  0  0  0  0  0  0  0
  196.2300  172.6240  136.7950 C   0  0  0  0  0  3  0  0  0  0  0  0
  196.4330  173.7480  135.9870 C   0  0  0  0  0  3  0  0  0  0  0  0
  195.3100  172.6760  137.8460 C   0  0  0  0  0  3  0  0  0  0  0  0
  194.7790  174.9740  137.2770 C   0  0  0  0  0  0  0  0  0  0  0  0
  195.7110  174.9190  136.2260 C   0  0  0  0  0  3  0  0  0  0  0  0
  194.5880  173.8500  138.0870 C   0  0  0  0  0  3  0  0  0  0  0  0
  1  5  1  0  0  0  0
  2  3  2  0  0  0  0
  3  1  2  0  0  0  0
  5  4  1  6  0  0  0
  5  6  1  0  0  0  0
  6  7  2  0  0  0  0
  8  9  1  1  0  0  0
  8  6  1  0  0  0  0
  8 10  1  0  0  0  0
 10 11  1  0  0  0  0
 11 22  1  0  0  0  0
 12 27  1  1  0  0  0
 12 19  1  0  0  0  0
 13 17  2  0  0  0  0
 14 24  1  1  0  0  0
 15 25  1  6  0  0  0
 15 23  1  0  0  0  0
 16 13  1  0  0  0  0
 18 15  1  0  0  0  0
 18 12  1  0  0  0  0
 19 14  1  0  0  0  0
 20 18  1  0  0  0  0
 21 18  1  0  0  0  0
 22 16  2  0  0  0  0
 23 13  1  1  0  0  0
 23 14  1  0  0  0  0
 25 22  1  0  0  0  0
 27 26  1  0  0  0  0
 28  1  1  0  0  0  0
 28 29  1  0  0  0  0
 30 29  1  0  0  0  0
 30 31  1  0  0  0  0
 31 33  1  0  0  0  0
 32 34  2  0  0  0  0
 33 34  1  0  0  0  0
 34 37  1  0  0  0  0
 37 35  2  0  0  0  0
 37 36  1  0  0  0  0
 38 50  1  1  0  0  0
 38  2  1  0  0  0  0
 40 39  1  1  0  0  0
 40 41  1  0  0  0  0
 40 38  1  0  0  0  0
 42 41  2  0  0  0  0
 43 42  1  0  0  0  0
 43 44  1  0  0  0  0
 45 48  1  0  0  0  0
 45 49  1  0  0  0  0
 45 46  1  0  0  0  0
 47 45  1  0  0  0  0
 47 49  1  0  0  0  0
 48 44  1  6  0  0  0
 48 46  1  0  0  0  0
 50 51  1  0  0  0  0
 52 51  1  0  0  0  0
 52 53  1  0  0  0  0
 54 53  1  0  0  0  0
 55 56  1  0  0  0  0
 55 54  1  0  0  0  0
 57 59  1  0  0  0  0
 58 61  1  0  0  0  0
 58 57  2  0  0  0  0
 59 62  2  0  0  0  0
 60 56  1  0  0  0  0
 60 62  1  0  0  0  0
 61 60  2  0  0  0  0
M  END
>  <MODEL>
3

>  <REMARK>
 VINA RESULT:      -6.1      2.026      9.643
  Name = 
  27 active torsions:
  status: ('A' for Active; 'I' for Inactive)
    1  A    between atoms: C_2  and  O_51
    2  A    between atoms: C_3  and  C_13
    3  A    between atoms: C_3  and  C_16
    4  A    between atoms: C_5  and  C_62
    5  A    between atoms: C_6  and  C_21
    6  A    between atoms: C_6  and  C_53
    7  A    between atoms: O_7  and  C_27
    8  A    between atoms: O_7  and  C_35
    9  A    between atoms: C_9  and  C_12
   10  A    between atoms: C_9  and  C_36
   11  A    between atoms: C_12  and  C_45
   12  A    between atoms: C_12  and  C_62
   13  A    between atoms: C_13  and  C_40
   14  A    between atoms: C_15  and  C_21
   15  A    between atoms: C_15  and  C_30
   16  A    between atoms: C_16  and  C_28
   17  A    between atoms: C_24  and  C_50
   18  A    between atoms: C_24  and  C_54
   19  A    between atoms: C_27  and  C_50
   20  A    between atoms: C_28  and  C_53
   21  A    between atoms: C_30  and  C_47
   22  A    between atoms: N_31  and  C_40
   23  A    between atoms: C_34  and  C_57
   24  A    between atoms: C_36  and  C_54
   25  A    between atoms: C_41  and  C_44
   26  A    between atoms: C_49  and  C_55
   27  A    between atoms: C_49  and  C_57
                            x       y       z     vdW  Elec       q    Type
                         _______ _______ _______ _____ _____    ______ ____

>  <TORSDO>
F 27

$$$$
=
 OpenBabel10222418343D

 62 66  0  0  1  0  0  0  0  0999 V2000
  185.5640  178.3380  139.2820 C   0  0  0  0  0  0  0  0  0  0  0  0
  183.1140  179.2440  139.3630 C   0  0  0  0  0  3  0  0  0  0  0  0
  184.3410  178.7920  139.3420 C   0  0  0  0  0  0  0  0  0  0  0  0
  187.8590  178.3610  140.2540 C   0  0  0  0  0  1  0  0  0  0  0  0
  186.3710  178.2250  140.5400 C   0  0  1  0  0  3  0  0  0  0  0  0
  185.9310  179.2130  141.5840 C   0  0  0  0  0  0  0  0  0  0  0  0
  186.4750  180.3040  141.6730 O   0  0  0  0  0  0  0  0  0  0  0  0
  184.8790  178.8440  142.5810 C   0  0  1  0  0  3  0  0  0  0  0  0
  184.5770  177.4850  142.4950 O   0  0  0  0  0  1  0  0  0  0  0  0
  185.3580  179.1880  143.9830 C   0  0  0  0  0  2  0  0  0  0  0  0
  185.4030  177.9590  144.8840 C   0  0  0  0  0  2  0  0  0  0  0  0
  191.5020  176.5390  144.3960 C   0  0  1  0  0  3  0  0  0  0  0  0
  188.4030  177.4420  147.1960 C   0  0  0  0  0  0  0  0  0  0  0  0
  190.8460  176.8510  146.6180 C   0  0  2  0  0  3  0  0  0  0  0  0
  189.0750  176.9260  144.8860 C   0  0  1  0  0  3  0  0  0  0  0  0
  187.0280  177.6350  146.7130 C   0  0  0  0  0  3  0  0  0  0  0  0
  188.6140  177.2830  148.4280 O   0  0  0  0  0  0  0  0  0  0  0  0
  190.1560  177.0380  143.8110 C   0  0  0  0  0  0  0  0  0  0  0  0
  191.8660  177.0790  145.6580 O   0  0  0  0  0  0  0  0  0  0  0  0
  189.7600  176.2230  142.5900 C   0  0  0  0  0  1  0  0  0  0  0  0
  190.3260  178.4860  143.3760 C   0  0  0  0  0  1  0  0  0  0  0  0
  186.7810  177.6720  145.3960 C   0  0  0  0  0  0  0  0  0  0  0  0
  189.5400  177.5450  146.2040 C   0  0  1  0  0  3  0  0  0  0  0  0
  191.2800  177.3400  147.8540 O   0  0  0  0  0  1  0  0  0  0  0  0
  187.8240  177.4810  144.4770 O   0  0  0  0  0  0  0  0  0  0  0  0
  192.4680  174.7080  145.3940 C   0  0  0  0  0  1  0  0  0  0  0  0
  191.8340  175.1750  144.2320 O   0  0  0  0  0  0  0  0  0  0  0  0
  186.0930  177.8220  137.9790 C   0  0  0  0  0  2  0  0  0  0  0  0
  187.5480  178.2290  137.7830 C   0  0  0  0  0  2  0  0  0  0  0  0
  188.0930  177.6230  136.5010 C   0  0  0  0  0  2  0  0  0  0  0  0
  188.8060  176.3140  136.7950 C   0  0  0  0  0  2  0  0  0  0  0  0
  190.6330  175.6070  138.8750 O   0  0  0  0  0  0  0  0  0  0  0  0
  190.2500  176.5050  136.7520 N   0  0  0  0  0  2  0  0  0  0  0  0
  191.1130  176.1160  137.8270 C   0  0  0  0  0  0  0  0  0  0  0  0
  193.1800  175.8510  136.7150 O   0  0  0  0  0  0  0  0  0  0  0  0
  193.2550  177.0230  138.6780 O   0  0  0  0  0  1  0  0  0  0  0  0
  192.5610  176.3120  137.7060 C   0  0  0  0  0  0  0  0  0  0  0  0
  182.0020  178.6580  138.5320 C   0  0  2  0  0  3  0  0  0  0  0  0
  181.3090  177.9260  140.7170 O   0  0  0  0  0  1  0  0  0  0  0  0
  181.2240  177.6260  139.3540 C   0  0  1  0  0  3  0  0  0  0  0  0
  179.7820  177.5160  138.9290 C   0  0  0  0  0  3  0  0  0  0  0  0
  178.9390  178.5560  138.9270 C   0  0  0  0  0  3  0  0  0  0  0  0
  179.3470  179.9370  139.3410 C   0  0  0  0  0  2  0  0  0  0  0  0
  179.1730  180.8970  138.1770 C   0  0  0  0  0  2  0  0  0  0  0  0
  180.1260  182.9440  137.1490 C   0  0  0  0  0  0  0  0  0  0  0  0
  181.2280  182.1420  137.8620 C   0  0  0  0  0  2  0  0  0  0  0  0
  179.6610  184.1800  137.6020 O   0  0  0  0  0  0  0  0  0  0  0  0
  179.9060  182.1870  138.4750 C   0  0  2  0  0  3  0  0  0  0  0  0
  180.8460  184.1330  137.0380 O   0  0  0  0  0  0  0  0  0  0  0  0
  182.4740  178.1090  137.1800 C   0  0  0  0  0  2  0  0  0  0  0  0
  181.6690  178.6930  136.0360 C   0  0  0  0  0  2  0  0  0  0  0  0
  180.9380  177.5780  135.3050 C   0  0  0  0  0  2  0  0  0  0  0  0
  181.9030  176.5190  134.7840 C   0  0  0  0  0  2  0  0  0  0  0  0
  181.2620  175.1400  134.7730 C   0  0  0  0  0  2  0  0  0  0  0  0
  180.4840  174.9190  136.0580 C   0  0  0  0  0  2  0  0  0  0  0  0
  181.3690  174.9320  137.1750 O   0  0  0  0  0  0  0  0  0  0  0  0
  184.9060  172.6720  137.3680 C   0  0  0  0  0  3  0  0  0  0  0  0
  183.7000  172.0400  137.0490 C   0  0  0  0  0  3  0  0  0  0  0  0
  184.9300  174.0490  137.6090 C   0  0  0  0  0  3  0  0  0  0  0  0
  182.5370  174.1650  137.2290 C   0  0  0  0  0  0  0  0  0  0  0  0
  182.5190  172.7820  136.9790 C   0  0  0  0  0  3  0  0  0  0  0  0
  183.7490  174.7930  137.5380 C   0  0  0  0  0  3  0  0  0  0  0  0
  1  3  2  0  0  0  0
  1  5  1  0  0  0  0
  3  2  2  0  0  0  0
  5  4  1  6  0  0  0
  5  6  1  0  0  0  0
  6  7  2  0  0  0  0
  6  8  1  0  0  0  0
  8  9  1  1  0  0  0
  8 10  1  0  0  0  0
 10 11  1  0  0  0  0
 11 22  1  0  0  0  0
 12 27  1  1  0  0  0
 12 19  1  0  0  0  0
 13 17  2  0  0  0  0
 14 24  1  1  0  0  0
 15 25  1  6  0  0  0
 15 23  1  0  0  0  0
 16 13  1  0  0  0  0
 18 12  1  0  0  0  0
 18 15  1  0  0  0  0
 19 14  1  0  0  0  0
 20 18  1  0  0  0  0
 21 18  1  0  0  0  0
 22 16  2  0  0  0  0
 23 14  1  0  0  0  0
 23 13  1  1  0  0  0
 25 22  1  0  0  0  0
 27 26  1  0  0  0  0
 28  1  1  0  0  0  0
 29 28  1  0  0  0  0
 30 31  1  0  0  0  0
 30 29  1  0  0  0  0
 33 31  1  0  0  0  0
 33 34  1  0  0  0  0
 34 32  2  0  0  0  0
 35 37  2  0  0  0  0
 37 34  1  0  0  0  0
 37 36  1  0  0  0  0
 38 50  1  6  0  0  0
 38 40  1  0  0  0  0
 38  2  1  0  0  0  0
 40 39  1  1  0  0  0
 41 40  1  0  0  0  0
 42 41  2  0  0  0  0
 42 43  1  0  0  0  0
 44 43  1  0  0  0  0
 45 47  1  0  0  0  0
 45 46  1  0  0  0  0
 45 48  1  0  0  0  0
 46 48  1  0  0  0  0
 48 44  1  6  0  0  0
 49 45  1  0  0  0  0
 49 47  1  0  0  0  0
 51 50  1  0  0  0  0
 52 51  1  0  0  0  0
 53 52  1  0  0  0  0
 54 53  1  0  0  0  0
 54 55  1  0  0  0  0
 55 56  1  0  0  0  0
 56 60  1  0  0  0  0
 57 59  1  0  0  0  0
 58 57  2  0  0  0  0
 60 62  1  0  0  0  0
 61 58  1  0  0  0  0
 61 60  2  0  0  0  0
 62 59  2  0  0  0  0
M  END
>  <MODEL>
4

>  <REMARK>
 VINA RESULT:      -5.7      2.859     11.418
  Name = 
  27 active torsions:
  status: ('A' for Active; 'I' for Inactive)
    1  A    between atoms: C_2  and  O_51
    2  A    between atoms: C_3  and  C_13
    3  A    between atoms: C_3  and  C_16
    4  A    between atoms: C_5  and  C_62
    5  A    between atoms: C_6  and  C_21
    6  A    between atoms: C_6  and  C_53
    7  A    between atoms: O_7  and  C_27
    8  A    between atoms: O_7  and  C_35
    9  A    between atoms: C_9  and  C_12
   10  A    between atoms: C_9  and  C_36
   11  A    between atoms: C_12  and  C_45
   12  A    between atoms: C_12  and  C_62
   13  A    between atoms: C_13  and  C_40
   14  A    between atoms: C_15  and  C_21
   15  A    between atoms: C_15  and  C_30
   16  A    between atoms: C_16  and  C_28
   17  A    between atoms: C_24  and  C_50
   18  A    between atoms: C_24  and  C_54
   19  A    between atoms: C_27  and  C_50
   20  A    between atoms: C_28  and  C_53
   21  A    between atoms: C_30  and  C_47
   22  A    between atoms: N_31  and  C_40
   23  A    between atoms: C_34  and  C_57
   24  A    between atoms: C_36  and  C_54
   25  A    between atoms: C_41  and  C_44
   26  A    between atoms: C_49  and  C_55
   27  A    between atoms: C_49  and  C_57
                            x       y       z     vdW  Elec       q    Type
                         _______ _______ _______ _____ _____    ______ ____

>  <TORSDO>
F 27

$$$$
=
 OpenBabel10222418343D

 62 66  0  0  1  0  0  0  0  0999 V2000
  189.6720  176.5020  138.3210 C   0  0  0  0  0  0  0  0  0  0  0  0
  187.4330  175.9130  137.1100 C   0  0  0  0  0  3  0  0  0  0  0  0
  188.5440  176.2220  137.7260 C   0  0  0  0  0  0  0  0  0  0  0  0
  188.7160  178.7200  138.9380 C   0  0  0  0  0  1  0  0  0  0  0  0
  189.7310  177.6440  139.2910 C   0  0  1  0  0  3  0  0  0  0  0  0
  189.5580  177.1870  140.7120 C   0  0  0  0  0  0  0  0  0  0  0  0
  189.8150  176.0340  141.0280 O   0  0  0  0  0  0  0  0  0  0  0  0
  188.9920  178.1110  141.7420 C   0  0  1  0  0  3  0  0  0  0  0  0
  189.5250  179.3920  141.5970 O   0  0  0  0  0  1  0  0  0  0  0  0
  187.4770  178.1550  141.6150 C   0  0  0  0  0  2  0  0  0  0  0  0
  186.7920  177.3600  142.7200 C   0  0  0  0  0  2  0  0  0  0  0  0
  191.9270  176.7130  146.2780 C   0  0  1  0  0  3  0  0  0  0  0  0
  187.7670  177.6820  146.4030 C   0  0  0  0  0  0  0  0  0  0  0  0
  190.0570  177.3320  147.5370 C   0  0  2  0  0  3  0  0  0  0  0  0
  189.7040  176.8500  145.1310 C   0  0  1  0  0  3  0  0  0  0  0  0
  186.9690  177.5960  145.1700 C   0  0  0  0  0  3  0  0  0  0  0  0
  187.1860  177.7790  147.5160 O   0  0  0  0  0  0  0  0  0  0  0  0
  191.2160  176.9100  144.9150 C   0  0  0  0  0  0  0  0  0  0  0  0
  191.4510  177.5170  147.3470 O   0  0  0  0  0  0  0  0  0  0  0  0
  191.6410  175.8420  143.9210 C   0  0  0  0  0  1  0  0  0  0  0  0
  191.6190  178.2650  144.3520 C   0  0  0  0  0  1  0  0  0  0  0  0
  187.5740  177.3590  143.9980 C   0  0  0  0  0  0  0  0  0  0  0  0
  189.2730  177.7560  146.2850 C   0  0  1  0  0  3  0  0  0  0  0  0
  189.6520  178.0910  148.6390 O   0  0  0  0  0  1  0  0  0  0  0  0
  188.9600  177.1480  143.9480 O   0  0  0  0  0  0  0  0  0  0  0  0
  191.9280  175.1880  147.9970 C   0  0  0  0  0  1  0  0  0  0  0  0
  192.2860  175.3990  146.6570 O   0  0  0  0  0  0  0  0  0  0  0  0
  190.8520  175.6020  138.1200 C   0  0  0  0  0  2  0  0  0  0  0  0
  190.4550  174.3450  137.3560 C   0  0  0  0  0  2  0  0  0  0  0  0
  191.3080  174.1990  136.1070 C   0  0  0  0  0  2  0  0  0  0  0  0
  192.5030  173.3030  136.3840 C   0  0  0  0  0  2  0  0  0  0  0  0
  194.4870  174.0510  138.2990 O   0  0  0  0  0  0  0  0  0  0  0  0
  193.7420  174.0070  136.0850 N   0  0  0  0  0  2  0  0  0  0  0  0
  194.7030  174.3420  137.0930 C   0  0  0  0  0  0  0  0  0  0  0  0
  197.0560  174.5430  137.0400 O   0  0  0  0  0  1  0  0  0  0  0  0
  195.8970  176.2110  135.9880 O   0  0  0  0  0  0  0  0  0  0  0  0
  195.9440  175.0280  136.7170 C   0  0  0  0  0  0  0  0  0  0  0  0
  186.9850  174.4950  136.8730 C   0  0  2  0  0  3  0  0  0  0  0  0
  187.9720  175.0940  134.7620 O   0  0  0  0  0  1  0  0  0  0  0  0
  187.2110  174.1140  135.4070 C   0  0  1  0  0  3  0  0  0  0  0  0
  187.8580  172.7610  135.2540 C   0  0  0  0  0  3  0  0  0  0  0  0
  187.1820  171.6630  134.8920 C   0  0  0  0  0  3  0  0  0  0  0  0
  185.7130  171.6710  134.5940 C   0  0  0  0  0  2  0  0  0  0  0  0
  184.9280  171.4100  135.8670 C   0  0  0  0  0  2  0  0  0  0  0  0
  182.7040  171.5380  136.9600 C   0  0  0  0  0  0  0  0  0  0  0  0
  182.6350  170.6420  135.7120 C   0  0  0  0  0  2  0  0  0  0  0  0
  182.0880  172.7890  137.0430 O   0  0  0  0  0  0  0  0  0  0  0  0
  183.4860  171.8240  135.6620 C   0  0  2  0  0  3  0  0  0  0  0  0
  181.3290  171.7180  137.0990 O   0  0  0  0  0  0  0  0  0  0  0  0
  185.5500  174.2210  137.3430 C   0  0  0  0  0  2  0  0  0  0  0  0
  184.6470  175.4100  137.0790 C   0  0  0  0  0  2  0  0  0  0  0  0
  183.6900  175.5910  138.2470 C   0  0  0  0  0  2  0  0  0  0  0  0
  182.5760  176.5790  137.9150 C   0  0  0  0  0  2  0  0  0  0  0  0
  183.1270  177.9730  137.6640 C   0  0  0  0  0  2  0  0  0  0  0  0
  182.8850  178.8530  138.8770 C   0  0  0  0  0  2  0  0  0  0  0  0
  182.1550  178.1340  139.8670 O   0  0  0  0  0  0  0  0  0  0  0  0
  182.2860  179.0380  143.9680 C   0  0  0  0  0  3  0  0  0  0  0  0
  183.4800  178.8550  143.2640 C   0  0  0  0  0  3  0  0  0  0  0  0
  181.0600  178.9310  143.3050 C   0  0  0  0  0  3  0  0  0  0  0  0
  182.2180  178.4400  141.2310 C   0  0  0  0  0  0  0  0  0  0  0  0
  183.4480  178.5570  141.9000 C   0  0  0  0  0  3  0  0  0  0  0  0
  181.0270  178.6340  141.9390 C   0  0  0  0  0  3  0  0  0  0  0  0
  1  5  1  0  0  0  0
  2  3  2  0  0  0  0
  3  1  2  0  0  0  0
  5  4  1  6  0  0  0
  5  6  1  0  0  0  0
  6  7  2  0  0  0  0
  6  8  1  0  0  0  0
  8  9  1  6  0  0  0
 10  8  1  0  0  0  0
 10 11  1  0  0  0  0
 11 22  1  0  0  0  0
 12 27  1  1  0  0  0
 12 19  1  0  0  0  0
 13 17  2  0  0  0  0
 14 24  1  1  0  0  0
 15 25  1  6  0  0  0
 15 23  1  0  0  0  0
 16 13  1  0  0  0  0
 18 15  1  0  0  0  0
 18 12  1  0  0  0  0
 19 14  1  0  0  0  0
 20 18  1  0  0  0  0
 21 18  1  0  0  0  0
 22 16  2  0  0  0  0
 23 13  1  1  0  0  0
 23 14  1  0  0  0  0
 25 22  1  0  0  0  0
 27 26  1  0  0  0  0
 28  1  1  0  0  0  0
 29 28  1  0  0  0  0
 30 31  1  0  0  0  0
 30 29  1  0  0  0  0
 33 31  1  0  0  0  0
 33 34  1  0  0  0  0
 34 32  2  0  0  0  0
 36 37  2  0  0  0  0
 37 35  1  0  0  0  0
 37 34  1  0  0  0  0
 38  2  1  6  0  0  0
 38 50  1  0  0  0  0
 40 39  1  1  0  0  0
 40 38  1  0  0  0  0
 41 40  1  0  0  0  0
 42 41  2  0  0  0  0
 43 42  1  0  0  0  0
 43 44  1  0  0  0  0
 45 47  1  0  0  0  0
 45 49  1  0  0  0  0
 46 45  1  0  0  0  0
 47 49  1  0  0  0  0
 48 46  1  0  0  0  0
 48 44  1  1  0  0  0
 48 45  1  0  0  0  0
 51 50  1  0  0  0  0
 51 52  1  0  0  0  0
 53 52  1  0  0  0  0
 54 53  1  0  0  0  0
 54 55  1  0  0  0  0
 55 56  1  0  0  0  0
 56 60  1  0  0  0  0
 58 57  2  0  0  0  0
 59 57  1  0  0  0  0
 60 61  2  0  0  0  0
 60 62  1  0  0  0  0
 61 58  1  0  0  0  0
 62 59  2  0  0  0  0
M  END
>  <MODEL>
5

>  <REMARK>
 VINA RESULT:      -5.4      2.674     10.591
  Name = 
  27 active torsions:
  status: ('A' for Active; 'I' for Inactive)
    1  A    between atoms: C_2  and  O_51
    2  A    between atoms: C_3  and  C_13
    3  A    between atoms: C_3  and  C_16
    4  A    between atoms: C_5  and  C_62
    5  A    between atoms: C_6  and  C_21
    6  A    between atoms: C_6  and  C_53
    7  A    between atoms: O_7  and  C_27
    8  A    between atoms: O_7  and  C_35
    9  A    between atoms: C_9  and  C_12
   10  A    between atoms: C_9  and  C_36
   11  A    between atoms: C_12  and  C_45
   12  A    between atoms: C_12  and  C_62
   13  A    between atoms: C_13  and  C_40
   14  A    between atoms: C_15  and  C_21
   15  A    between atoms: C_15  and  C_30
   16  A    between atoms: C_16  and  C_28
   17  A    between atoms: C_24  and  C_50
   18  A    between atoms: C_24  and  C_54
   19  A    between atoms: C_27  and  C_50
   20  A    between atoms: C_28  and  C_53
   21  A    between atoms: C_30  and  C_47
   22  A    between atoms: N_31  and  C_40
   23  A    between atoms: C_34  and  C_57
   24  A    between atoms: C_36  and  C_54
   25  A    between atoms: C_41  and  C_44
   26  A    between atoms: C_49  and  C_55
   27  A    between atoms: C_49  and  C_57
                            x       y       z     vdW  Elec       q    Type
                         _______ _______ _______ _____ _____    ______ ____

>  <TORSDO>
F 27

$$$$
=
 OpenBabel10222418343D

 62 66  0  0  1  0  0  0  0  0999 V2000
  189.7250  176.5320  138.4190 C   0  0  0  0  0  0  0  0  0  0  0  0
  187.4470  176.0190  137.2460 C   0  0  0  0  0  3  0  0  0  0  0  0
  188.5780  176.2900  137.8440 C   0  0  0  0  0  0  0  0  0  0  0  0
  188.8880  178.7910  139.0630 C   0  0  0  0  0  1  0  0  0  0  0  0
  189.8290  177.6480  139.4150 C   0  0  1  0  0  3  0  0  0  0  0  0
  189.5970  177.1730  140.8210 C   0  0  0  0  0  0  0  0  0  0  0  0
  189.8310  176.0140  141.1310 O   0  0  0  0  0  0  0  0  0  0  0  0
  189.0000  178.0890  141.8410 C   0  0  1  0  0  3  0  0  0  0  0  0
  189.5390  179.3700  141.7270 O   0  0  0  0  0  1  0  0  0  0  0  0
  187.4900  178.1370  141.6650 C   0  0  0  0  0  2  0  0  0  0  0  0
  186.7670  177.3480  142.7520 C   0  0  0  0  0  2  0  0  0  0  0  0
  191.7150  176.7320  146.5690 C   0  0  1  0  0  3  0  0  0  0  0  0
  187.5780  177.7950  146.4600 C   0  0  0  0  0  0  0  0  0  0  0  0
  189.8040  177.4400  147.7140 C   0  0  2  0  0  3  0  0  0  0  0  0
  189.5510  176.8720  145.3140 C   0  0  1  0  0  3  0  0  0  0  0  0
  186.8360  177.6770  145.1960 C   0  0  0  0  0  3  0  0  0  0  0  0
  186.9490  177.9480  147.5400 O   0  0  0  0  0  0  0  0  0  0  0  0
  191.0730  176.8900  145.1680 C   0  0  0  0  0  0  0  0  0  0  0  0
  191.2100  177.5880  147.5830 O   0  0  0  0  0  0  0  0  0  0  0  0
  191.5180  175.7740  144.2370 C   0  0  0  0  0  1  0  0  0  0  0  0
  191.5330  178.2130  144.5730 C   0  0  0  0  0  1  0  0  0  0  0  0
  187.4890  177.3820  144.0630 C   0  0  0  0  0  0  0  0  0  0  0  0
  189.0890  177.8310  146.4110 C   0  0  1  0  0  3  0  0  0  0  0  0
  189.3670  178.2500  148.7650 O   0  0  0  0  0  1  0  0  0  0  0  0
  188.8700  177.1380  144.0870 O   0  0  0  0  0  0  0  0  0  0  0  0
  192.8420  175.5060  148.1530 C   0  0  0  0  0  1  0  0  0  0  0  0
  192.0260  175.4260  147.0150 O   0  0  0  0  0  0  0  0  0  0  0  0
  190.8810  175.6130  138.1700 C   0  0  0  0  0  2  0  0  0  0  0  0
  191.5350  175.9130  136.8270 C   0  0  0  0  0  2  0  0  0  0  0  0
  192.9010  176.5440  137.0390 C   0  0  0  0  0  2  0  0  0  0  0  0
  193.8950  176.0090  136.0220 C   0  0  0  0  0  2  0  0  0  0  0  0
  194.6390  173.4550  137.0660 O   0  0  0  0  0  0  0  0  0  0  0  0
  195.1620  175.6980  136.6700 N   0  0  0  0  0  2  0  0  0  0  0  0
  195.4780  174.3900  137.1610 C   0  0  0  0  0  0  0  0  0  0  0  0
  197.2680  174.9700  138.5890 O   0  0  0  0  0  1  0  0  0  0  0  0
  197.4860  172.9780  137.4860 O   0  0  0  0  0  0  0  0  0  0  0  0
  196.7840  174.1400  137.7800 C   0  0  0  0  0  0  0  0  0  0  0  0
  186.9630  174.6170  136.9840 C   0  0  2  0  0  3  0  0  0  0  0  0
  188.2940  175.1020  135.0400 O   0  0  0  0  0  1  0  0  0  0  0  0
  187.4630  174.1380  135.6180 C   0  0  1  0  0  3  0  0  0  0  0  0
  188.1730  172.8100  135.6950 C   0  0  0  0  0  3  0  0  0  0  0  0
  187.6190  171.6600  135.2920 C   0  0  0  0  0  3  0  0  0  0  0  0
  186.2380  171.5770  134.7160 C   0  0  0  0  0  2  0  0  0  0  0  0
  185.3050  170.9040  135.7060 C   0  0  0  0  0  2  0  0  0  0  0  0
  183.1540  171.2640  136.8880 C   0  0  0  0  0  0  0  0  0  0  0  0
  182.9330  170.4140  135.6250 C   0  0  0  0  0  2  0  0  0  0  0  0
  182.6920  172.5750  137.0230 O   0  0  0  0  0  0  0  0  0  0  0  0
  183.9160  171.4900  135.5680 C   0  0  2  0  0  3  0  0  0  0  0  0
  181.8150  171.6000  137.0860 O   0  0  0  0  0  0  0  0  0  0  0  0
  185.4470  174.4520  137.1540 C   0  0  0  0  0  2  0  0  0  0  0  0
  184.6990  175.6670  136.6400 C   0  0  0  0  0  2  0  0  0  0  0  0
  183.6420  176.0790  137.6510 C   0  0  0  0  0  2  0  0  0  0  0  0
  182.9160  177.3500  137.2210 C   0  0  0  0  0  2  0  0  0  0  0  0
  183.1070  178.4680  138.2340 C   0  0  0  0  0  2  0  0  0  0  0  0
  181.9840  178.4400  139.2550 C   0  0  0  0  0  2  0  0  0  0  0  0
  180.7880  178.9630  138.6840 O   0  0  0  0  0  0  0  0  0  0  0  0
  180.7400  182.4910  136.4020 C   0  0  0  0  0  3  0  0  0  0  0  0
  180.4070  181.2750  135.7980 C   0  0  0  0  0  3  0  0  0  0  0  0
  181.0740  182.5290  137.7590 C   0  0  0  0  0  3  0  0  0  0  0  0
  180.7610  180.1280  137.9100 C   0  0  0  0  0  0  0  0  0  0  0  0
  180.4170  180.0960  136.5480 C   0  0  0  0  0  3  0  0  0  0  0  0
  181.0830  181.3500  138.5110 C   0  0  0  0  0  3  0  0  0  0  0  0
  1  5  1  0  0  0  0
  2  3  2  0  0  0  0
  3  1  2  0  0  0  0
  5  4  1  6  0  0  0
  5  6  1  0  0  0  0
  6  7  2  0  0  0  0
  6  8  1  0  0  0  0
  8  9  1  6  0  0  0
 10  8  1  0  0  0  0
 10 11  1  0  0  0  0
 11 22  1  0  0  0  0
 12 27  1  1  0  0  0
 12 19  1  0  0  0  0
 13 17  2  0  0  0  0
 14 24  1  1  0  0  0
 15 25  1  6  0  0  0
 15 23  1  0  0  0  0
 16 13  1  0  0  0  0
 18 15  1  0  0  0  0
 18 12  1  0  0  0  0
 19 14  1  0  0  0  0
 20 18  1  0  0  0  0
 21 18  1  0  0  0  0
 22 25  1  0  0  0  0
 22 16  2  0  0  0  0
 23 13  1  1  0  0  0
 23 14  1  0  0  0  0
 27 26  1  0  0  0  0
 28  1  1  0  0  0  0
 29 30  1  0  0  0  0
 29 28  1  0  0  0  0
 31 33  1  0  0  0  0
 31 30  1  0  0  0  0
 32 34  2  0  0  0  0
 33 34  1  0  0  0  0
 34 37  1  0  0  0  0
 36 37  2  0  0  0  0
 37 35  1  0  0  0  0
 38 50  1  6  0  0  0
 38  2  1  0  0  0  0
 40 39  1  1  0  0  0
 40 41  1  0  0  0  0
 40 38  1  0  0  0  0
 42 41  2  0  0  0  0
 43 42  1  0  0  0  0
 43 44  1  0  0  0  0
 45 47  1  0  0  0  0
 45 49  1  0  0  0  0
 46 45  1  0  0  0  0
 47 49  1  0  0  0  0
 48 46  1  0  0  0  0
 48 44  1  1  0  0  0
 48 45  1  0  0  0  0
 51 50  1  0  0  0  0
 51 52  1  0  0  0  0
 53 52  1  0  0  0  0
 53 54  1  0  0  0  0
 54 55  1  0  0  0  0
 56 55  1  0  0  0  0
 57 59  1  0  0  0  0
 58 57  2  0  0  0  0
 58 61  1  0  0  0  0
 59 62  2  0  0  0  0
 60 62  1  0  0  0  0
 60 56  1  0  0  0  0
 61 60  2  0  0  0  0
M  END
>  <MODEL>
6

>  <REMARK>
 VINA RESULT:      -5.4      3.056     11.144
  Name = 
  27 active torsions:
  status: ('A' for Active; 'I' for Inactive)
    1  A    between atoms: C_2  and  O_51
    2  A    between atoms: C_3  and  C_13
    3  A    between atoms: C_3  and  C_16
    4  A    between atoms: C_5  and  C_62
    5  A    between atoms: C_6  and  C_21
    6  A    between atoms: C_6  and  C_53
    7  A    between atoms: O_7  and  C_27
    8  A    between atoms: O_7  and  C_35
    9  A    between atoms: C_9  and  C_12
   10  A    between atoms: C_9  and  C_36
   11  A    between atoms: C_12  and  C_45
   12  A    between atoms: C_12  and  C_62
   13  A    between atoms: C_13  and  C_40
   14  A    between atoms: C_15  and  C_21
   15  A    between atoms: C_15  and  C_30
   16  A    between atoms: C_16  and  C_28
   17  A    between atoms: C_24  and  C_50
   18  A    between atoms: C_24  and  C_54
   19  A    between atoms: C_27  and  C_50
   20  A    between atoms: C_28  and  C_53
   21  A    between atoms: C_30  and  C_47
   22  A    between atoms: N_31  and  C_40
   23  A    between atoms: C_34  and  C_57
   24  A    between atoms: C_36  and  C_54
   25  A    between atoms: C_41  and  C_44
   26  A    between atoms: C_49  and  C_55
   27  A    between atoms: C_49  and  C_57
                            x       y       z     vdW  Elec       q    Type
                         _______ _______ _______ _____ _____    ______ ____

>  <TORSDO>
F 27

$$$$
=
 OpenBabel10222418343D

 62 66  0  0  1  0  0  0  0  0999 V2000
  188.1100  176.9030  137.2970 C   0  0  0  0  0  0  0  0  0  0  0  0
  188.7100  174.3940  136.8770 C   0  0  0  0  0  3  0  0  0  0  0  0
  188.4280  175.6530  137.0940 C   0  0  0  0  0  0  0  0  0  0  0  0
  189.1530  179.1650  137.2020 C   0  0  0  0  0  1  0  0  0  0  0  0
  189.1100  177.8260  137.9240 C   0  0  1  0  0  3  0  0  0  0  0  0
  188.8600  178.0160  139.3940 C   0  0  0  0  0  0  0  0  0  0  0  0
  188.2300  178.9840  139.7960 O   0  0  0  0  0  0  0  0  0  0  0  0
  189.4460  177.0680  140.3910 C   0  0  1  0  0  3  0  0  0  0  0  0
  189.0460  175.7600  140.1190 O   0  0  0  0  0  1  0  0  0  0  0  0
  190.9630  177.1700  140.3640 C   0  0  0  0  0  2  0  0  0  0  0  0
  191.4830  178.1570  141.4030 C   0  0  0  0  0  2  0  0  0  0  0  0
  186.9320  177.5470  145.6880 C   0  0  1  0  0  3  0  0  0  0  0  0
  191.1630  177.3440  145.1250 C   0  0  0  0  0  0  0  0  0  0  0  0
  189.0520  177.1720  146.5980 C   0  0  2  0  0  3  0  0  0  0  0  0
  188.9400  177.9160  144.2360 C   0  0  1  0  0  3  0  0  0  0  0  0
  191.7330  177.6810  143.8120 C   0  0  0  0  0  3  0  0  0  0  0  0
  191.9190  177.2580  146.1290 O   0  0  0  0  0  0  0  0  0  0  0  0
  187.4440  177.6020  144.2260 C   0  0  0  0  0  0  0  0  0  0  0  0
  187.6960  176.7530  146.5830 O   0  0  0  0  0  0  0  0  0  0  0  0
  186.6970  178.6570  143.4270 C   0  0  0  0  0  1  0  0  0  0  0  0
  187.1900  176.2500  143.5750 C   0  0  0  0  0  1  0  0  0  0  0  0
  190.9210  177.9040  142.7690 C   0  0  0  0  0  0  0  0  0  0  0  0
  189.6910  177.0080  145.2100 C   0  0  1  0  0  3  0  0  0  0  0  0
  189.7450  176.4070  147.5400 O   0  0  0  0  0  1  0  0  0  0  0  0
  189.5290  177.8630  142.9350 O   0  0  0  0  0  0  0  0  0  0  0  0
  185.0400  178.5990  146.4590 C   0  0  0  0  0  1  0  0  0  0  0  0
  186.4220  178.7360  146.2590 O   0  0  0  0  0  0  0  0  0  0  0  0
  186.8000  177.4200  136.7850 C   0  0  0  0  0  2  0  0  0  0  0  0
  185.6640  177.0610  137.7360 C   0  0  0  0  0  2  0  0  0  0  0  0
  184.3370  177.5360  137.1690 C   0  0  0  0  0  2  0  0  0  0  0  0
  183.3790  176.3660  137.0130 C   0  0  0  0  0  2  0  0  0  0  0  0
  183.0520  176.2380  139.8490 O   0  0  0  0  0  0  0  0  0  0  0  0
  182.1400  176.6290  137.7320 N   0  0  0  0  0  2  0  0  0  0  0  0
  182.0470  176.5590  139.1600 C   0  0  0  0  0  0  0  0  0  0  0  0
  180.5500  178.0170  140.2610 O   0  0  0  0  0  1  0  0  0  0  0  0
  179.8020  175.8770  139.9540 O   0  0  0  0  0  0  0  0  0  0  0  0
  180.7740  176.8610  139.8220 C   0  0  0  0  0  0  0  0  0  0  0  0
  188.2980  173.6560  135.6300 C   0  0  2  0  0  3  0  0  0  0  0  0
  186.8480  172.5340  137.1880 O   0  0  0  0  0  1  0  0  0  0  0  0
  186.9570  172.9530  135.8590 C   0  0  1  0  0  3  0  0  0  0  0  0
  185.7800  173.8180  135.4830 C   0  0  0  0  0  3  0  0  0  0  0  0
  184.5510  173.3290  135.2740 C   0  0  0  0  0  3  0  0  0  0  0  0
  184.2190  171.8730  135.4000 C   0  0  0  0  0  2  0  0  0  0  0  0
  183.4540  171.6280  136.6880 C   0  0  0  0  0  2  0  0  0  0  0  0
  181.0070  171.4370  137.0480 C   0  0  0  0  0  0  0  0  0  0  0  0
  181.3020  171.8510  135.5960 C   0  0  0  0  0  2  0  0  0  0  0  0
  180.4150  172.2880  137.9840 O   0  0  0  0  0  0  0  0  0  0  0  0
  182.1490  172.3940  136.6520 C   0  0  2  0  0  3  0  0  0  0  0  0
  179.6570  171.7850  137.0370 O   0  0  0  0  0  0  0  0  0  0  0  0
  189.3810  172.7110  135.0950 C   0  0  0  0  0  2  0  0  0  0  0  0
  190.7450  173.0600  135.6560 C   0  0  0  0  0  2  0  0  0  0  0  0
  191.4660  173.9960  134.6990 C   0  0  0  0  0  2  0  0  0  0  0  0
  191.7460  175.3510  135.3400 C   0  0  0  0  0  2  0  0  0  0  0  0
  192.1890  175.2000  136.7870 C   0  0  0  0  0  2  0  0  0  0  0  0
  193.0680  176.3720  137.1860 C   0  0  0  0  0  2  0  0  0  0  0  0
  194.4420  176.0170  137.0640 O   0  0  0  0  0  0  0  0  0  0  0  0
  195.8220  172.0500  137.1690 C   0  0  0  0  0  3  0  0  0  0  0  0
  195.4460  172.6810  138.3590 C   0  0  0  0  0  3  0  0  0  0  0  0
  195.7280  172.7350  135.9540 C   0  0  0  0  0  3  0  0  0  0  0  0
  194.8940  174.6940  137.1170 C   0  0  0  0  0  0  0  0  0  0  0  0
  194.9830  173.9980  138.3350 C   0  0  0  0  0  3  0  0  0  0  0  0
  195.2630  174.0540  135.9290 C   0  0  0  0  0  3  0  0  0  0  0  0
  1  5  1  0  0  0  0
  2  3  2  0  0  0  0
  3  1  2  0  0  0  0
  5  4  1  6  0  0  0
  5  6  1  0  0  0  0
  6  7  2  0  0  0  0
  6  8  1  0  0  0  0
  8  9  1  6  0  0  0
 10  8  1  0  0  0  0
 10 11  1  0  0  0  0
 11 22  1  0  0  0  0
 12 27  1  1  0  0  0
 12 19  1  0  0  0  0
 13 17  2  0  0  0  0
 14 24  1  1  0  0  0
 15 25  1  6  0  0  0
 15 23  1  0  0  0  0
 16 13  1  0  0  0  0
 18 15  1  0  0  0  0
 18 12  1  0  0  0  0
 19 14  1  0  0  0  0
 20 18  1  0  0  0  0
 21 18  1  0  0  0  0
 22 25  1  0  0  0  0
 22 16  2  0  0  0  0
 23 13  1  1  0  0  0
 23 14  1  0  0  0  0
 27 26  1  0  0  0  0
 28  1  1  0  0  0  0
 28 29  1  0  0  0  0
 30 29  1  0  0  0  0
 31 30  1  0  0  0  0
 31 33  1  0  0  0  0
 33 34  1  0  0  0  0
 34 37  1  0  0  0  0
 34 32  2  0  0  0  0
 37 36  2  0  0  0  0
 37 35  1  0  0  0  0
 38 50  1  1  0  0  0
 38 40  1  0  0  0  0
 38  2  1  0  0  0  0
 40 39  1  1  0  0  0
 41 40  1  0  0  0  0
 42 43  1  0  0  0  0
 42 41  2  0  0  0  0
 43 44  1  0  0  0  0
 45 47  1  0  0  0  0
 46 48  1  0  0  0  0
 46 45  1  0  0  0  0
 48 44  1  6  0  0  0
 48 45  1  0  0  0  0
 49 45  1  0  0  0  0
 49 47  1  0  0  0  0
 50 51  1  0  0  0  0
 52 53  1  0  0  0  0
 52 51  1  0  0  0  0
 53 54  1  0  0  0  0
 54 55  1  0  0  0  0
 56 60  1  0  0  0  0
 56 55  1  0  0  0  0
 57 58  1  0  0  0  0
 59 57  2  0  0  0  0
 60 61  1  0  0  0  0
 61 58  2  0  0  0  0
 62 59  1  0  0  0  0
 62 60  2  0  0  0  0
M  END
>  <MODEL>
7

>  <REMARK>
 VINA RESULT:      -5.1      2.180      9.546
  Name = 
  27 active torsions:
  status: ('A' for Active; 'I' for Inactive)
    1  A    between atoms: C_2  and  O_51
    2  A    between atoms: C_3  and  C_13
    3  A    between atoms: C_3  and  C_16
    4  A    between atoms: C_5  and  C_62
    5  A    between atoms: C_6  and  C_21
    6  A    between atoms: C_6  and  C_53
    7  A    between atoms: O_7  and  C_27
    8  A    between atoms: O_7  and  C_35
    9  A    between atoms: C_9  and  C_12
   10  A    between atoms: C_9  and  C_36
   11  A    between atoms: C_12  and  C_45
   12  A    between atoms: C_12  and  C_62
   13  A    between atoms: C_13  and  C_40
   14  A    between atoms: C_15  and  C_21
   15  A    between atoms: C_15  and  C_30
   16  A    between atoms: C_16  and  C_28
   17  A    between atoms: C_24  and  C_50
   18  A    between atoms: C_24  and  C_54
   19  A    between atoms: C_27  and  C_50
   20  A    between atoms: C_28  and  C_53
   21  A    between atoms: C_30  and  C_47
   22  A    between atoms: N_31  and  C_40
   23  A    between atoms: C_34  and  C_57
   24  A    between atoms: C_36  and  C_54
   25  A    between atoms: C_41  and  C_44
   26  A    between atoms: C_49  and  C_55
   27  A    between atoms: C_49  and  C_57
                            x       y       z     vdW  Elec       q    Type
                         _______ _______ _______ _____ _____    ______ ____

>  <TORSDO>
F 27

$$$$
=
 OpenBabel10222418343D

 62 66  0  0  1  0  0  0  0  0999 V2000
  184.0550  178.5940  138.9450 C   0  0  0  0  0  0  0  0  0  0  0  0
  186.3030  177.4680  138.2310 C   0  0  0  0  0  3  0  0  0  0  0  0
  185.1780  178.0210  138.6050 C   0  0  0  0  0  0  0  0  0  0  0  0
  183.1860  176.7200  140.3410 C   0  0  0  0  0  1  0  0  0  0  0  0
  183.4010  178.2230  140.2420 C   0  0  1  0  0  3  0  0  0  0  0  0
  184.1680  178.7370  141.4280 C   0  0  0  0  0  0  0  0  0  0  0  0
  183.5830  179.0600  142.4520 O   0  0  0  0  0  0  0  0  0  0  0  0
  185.6470  178.9370  141.3450 C   0  0  1  0  0  3  0  0  0  0  0  0
  186.0120  180.1470  141.9340 O   0  0  0  0  0  1  0  0  0  0  0  0
  186.3600  177.7820  142.0310 C   0  0  0  0  0  2  0  0  0  0  0  0
  185.7570  177.4760  143.3980 C   0  0  0  0  0  2  0  0  0  0  0  0
  191.5250  176.9440  145.8260 C   0  0  1  0  0  3  0  0  0  0  0  0
  187.4460  177.7440  146.8170 C   0  0  0  0  0  0  0  0  0  0  0  0
  189.9290  177.4560  147.4550 C   0  0  2  0  0  3  0  0  0  0  0  0
  189.1120  177.0220  145.1550 C   0  0  1  0  0  3  0  0  0  0  0  0
  186.4190  177.6570  145.7680 C   0  0  0  0  0  3  0  0  0  0  0  0
  187.0990  177.7900  148.0270 O   0  0  0  0  0  0  0  0  0  0  0  0
  190.5460  177.1470  144.6410 C   0  0  0  0  0  0  0  0  0  0  0  0
  191.2480  177.7020  146.9940 O   0  0  0  0  0  0  0  0  0  0  0  0
  190.7970  176.1220  143.5470 C   0  0  0  0  0  1  0  0  0  0  0  0
  190.7810  178.5310  144.0530 C   0  0  0  0  0  1  0  0  0  0  0  0
  186.7810  177.4740  144.4910 C   0  0  0  0  0  0  0  0  0  0  0  0
  188.8940  177.8800  146.4010 C   0  0  1  0  0  3  0  0  0  0  0  0
  189.7300  178.1700  148.6400 O   0  0  0  0  0  1  0  0  0  0  0  0
  188.1340  177.3190  144.1560 O   0  0  0  0  0  0  0  0  0  0  0  0
  192.5710  175.5920  147.3610 C   0  0  0  0  0  1  0  0  0  0  0  0
  191.9980  175.6360  146.0820 O   0  0  0  0  0  0  0  0  0  0  0  0
  183.5070  179.6990  138.0950 C   0  0  0  0  0  2  0  0  0  0  0  0
  181.9860  179.7450  138.1770 C   0  0  0  0  0  2  0  0  0  0  0  0
  181.5510  180.4940  139.4250 C   0  0  0  0  0  2  0  0  0  0  0  0
  180.3520  181.3780  139.1220 C   0  0  0  0  0  2  0  0  0  0  0  0
  181.0440  183.6200  137.4910 O   0  0  0  0  0  0  0  0  0  0  0  0
  180.1450  181.4710  137.6830 N   0  0  0  0  0  2  0  0  0  0  0  0
  180.5260  182.6220  136.9210 C   0  0  0  0  0  0  0  0  0  0  0  0
  179.1460  182.6110  135.0040 O   0  0  0  0  0  1  0  0  0  0  0  0
  181.3970  182.7010  134.6040 O   0  0  0  0  0  0  0  0  0  0  0  0
  180.3120  182.6390  135.4700 C   0  0  0  0  0  0  0  0  0  0  0  0
  187.4190  178.2290  137.5650 C   0  0  2  0  0  3  0  0  0  0  0  0
  188.4760  178.6190  135.4390 O   0  0  0  0  0  1  0  0  0  0  0  0
  187.4720  177.8820  136.0740 C   0  0  1  0  0  3  0  0  0  0  0  0
  187.6700  176.4070  135.8320 C   0  0  0  0  0  3  0  0  0  0  0  0
  186.6580  175.5630  135.5910 C   0  0  0  0  0  3  0  0  0  0  0  0
  185.2270  176.0020  135.5300 C   0  0  0  0  0  2  0  0  0  0  0  0
  184.3120  174.7970  135.6570 C   0  0  0  0  0  2  0  0  0  0  0  0
  181.8860  175.0320  136.1180 C   0  0  0  0  0  0  0  0  0  0  0  0
  182.6290  176.3240  136.4980 C   0  0  0  0  0  2  0  0  0  0  0  0
  181.3120  174.1720  137.0570 O   0  0  0  0  0  0  0  0  0  0  0  0
  183.2930  175.0510  136.7470 C   0  0  2  0  0  3  0  0  0  0  0  0
  180.7130  175.3160  136.8170 O   0  0  0  0  0  0  0  0  0  0  0  0
  188.7750  178.0610  138.2630 C   0  0  0  0  0  2  0  0  0  0  0  0
  188.6260  177.3450  139.5920 C   0  0  0  0  0  2  0  0  0  0  0  0
  189.9830  176.8390  140.0520 C   0  0  0  0  0  2  0  0  0  0  0  0
  191.0960  177.2630  139.1000 C   0  0  0  0  0  2  0  0  0  0  0  0
  192.1330  176.1640  138.9320 C   0  0  0  0  0  2  0  0  0  0  0  0
  192.8720  176.3440  137.6180 C   0  0  0  0  0  2  0  0  0  0  0  0
  193.6360  175.1790  137.3220 O   0  0  0  0  0  0  0  0  0  0  0  0
  197.3690  175.3690  135.4030 C   0  0  0  0  0  3  0  0  0  0  0  0
  197.2650  174.7410  136.6480 C   0  0  0  0  0  3  0  0  0  0  0  0
  196.2330  175.9180  134.8000 C   0  0  0  0  0  3  0  0  0  0  0  0
  194.8860  175.2280  136.6950 C   0  0  0  0  0  0  0  0  0  0  0  0
  196.0290  174.6700  137.2930 C   0  0  0  0  0  3  0  0  0  0  0  0
  194.9950  175.8450  135.4450 C   0  0  0  0  0  3  0  0  0  0  0  0
  1  5  1  0  0  0  0
  2  3  2  0  0  0  0
  3  1  2  0  0  0  0
  5  4  1  1  0  0  0
  5  6  1  0  0  0  0
  6  7  2  0  0  0  0
  8  6  1  0  0  0  0
  8  9  1  1  0  0  0
  8 10  1  0  0  0  0
 10 11  1  0  0  0  0
 11 22  1  0  0  0  0
 12 27  1  1  0  0  0
 12 19  1  0  0  0  0
 13 17  2  0  0  0  0
 14 24  1  1  0  0  0
 15 25  1  6  0  0  0
 15 23  1  0  0  0  0
 16 13  1  0  0  0  0
 18 15  1  0  0  0  0
 18 12  1  0  0  0  0
 19 14  1  0  0  0  0
 20 18  1  0  0  0  0
 21 18  1  0  0  0  0
 22 16  2  0  0  0  0
 23 13  1  1  0  0  0
 23 14  1  0  0  0  0
 25 22  1  0  0  0  0
 27 26  1  0  0  0  0
 28 29  1  0  0  0  0
 28  1  1  0  0  0  0
 29 30  1  0  0  0  0
 31 30  1  0  0  0  0
 33 31  1  0  0  0  0
 34 32  2  0  0  0  0
 34 33  1  0  0  0  0
 35 37  1  0  0  0  0
 36 37  2  0  0  0  0
 37 34  1  0  0  0  0
 38  2  1  1  0  0  0
 38 50  1  0  0  0  0
 40 39  1  1  0  0  0
 40 38  1  0  0  0  0
 41 40  1  0  0  0  0
 42 41  2  0  0  0  0
 43 42  1  0  0  0  0
 43 44  1  0  0  0  0
 45 46  1  0  0  0  0
 45 48  1  0  0  0  0
 45 49  1  0  0  0  0
 45 47  1  0  0  0  0
 46 48  1  0  0  0  0
 48 44  1  6  0  0  0
 49 47  1  0  0  0  0
 50 51  1  0  0  0  0
 51 52  1  0  0  0  0
 53 52  1  0  0  0  0
 54 53  1  0  0  0  0
 55 54  1  0  0  0  0
 56 55  1  0  0  0  0
 57 58  1  0  0  0  0
 58 61  2  0  0  0  0
 59 57  2  0  0  0  0
 59 62  1  0  0  0  0
 60 61  1  0  0  0  0
 60 56  1  0  0  0  0
 62 60  2  0  0  0  0
M  END
>  <MODEL>
8

>  <REMARK>
 VINA RESULT:      -5.0      2.674      9.817
  Name = 
  27 active torsions:
  status: ('A' for Active; 'I' for Inactive)
    1  A    between atoms: C_2  and  O_51
    2  A    between atoms: C_3  and  C_13
    3  A    between atoms: C_3  and  C_16
    4  A    between atoms: C_5  and  C_62
    5  A    between atoms: C_6  and  C_21
    6  A    between atoms: C_6  and  C_53
    7  A    between atoms: O_7  and  C_27
    8  A    between atoms: O_7  and  C_35
    9  A    between atoms: C_9  and  C_12
   10  A    between atoms: C_9  and  C_36
   11  A    between atoms: C_12  and  C_45
   12  A    between atoms: C_12  and  C_62
   13  A    between atoms: C_13  and  C_40
   14  A    between atoms: C_15  and  C_21
   15  A    between atoms: C_15  and  C_30
   16  A    between atoms: C_16  and  C_28
   17  A    between atoms: C_24  and  C_50
   18  A    between atoms: C_24  and  C_54
   19  A    between atoms: C_27  and  C_50
   20  A    between atoms: C_28  and  C_53
   21  A    between atoms: C_30  and  C_47
   22  A    between atoms: N_31  and  C_40
   23  A    between atoms: C_34  and  C_57
   24  A    between atoms: C_36  and  C_54
   25  A    between atoms: C_41  and  C_44
   26  A    between atoms: C_49  and  C_55
   27  A    between atoms: C_49  and  C_57
                            x       y       z     vdW  Elec       q    Type
                         _______ _______ _______ _____ _____    ______ ____

>  <TORSDO>
F 27

$$$$
=
 OpenBabel10222418343D

 62 66  0  0  1  0  0  0  0  0999 V2000
  189.1010  177.2720  138.6620 C   0  0  0  0  0  0  0  0  0  0  0  0
  186.9310  178.2020  137.5420 C   0  0  0  0  0  3  0  0  0  0  0  0
  188.0160  177.7500  138.1170 C   0  0  0  0  0  0  0  0  0  0  0  0
  188.5520  178.4500  140.7890 C   0  0  0  0  0  1  0  0  0  0  0  0
  189.6610  177.9270  139.8880 C   0  0  1  0  0  3  0  0  0  0  0  0
  190.5830  177.0140  140.6460 C   0  0  0  0  0  0  0  0  0  0  0  0
  191.4440  176.3750  140.0570 O   0  0  0  0  0  0  0  0  0  0  0  0
  190.4080  176.8100  142.1170 C   0  0  1  0  0  3  0  0  0  0  0  0
  189.9800  175.5090  142.3840 O   0  0  0  0  0  1  0  0  0  0  0  0
  191.7210  177.0880  142.8320 C   0  0  0  0  0  2  0  0  0  0  0  0
  191.6180  178.2990  143.7540 C   0  0  0  0  0  2  0  0  0  0  0  0
  185.5980  177.9570  145.5100 C   0  0  1  0  0  3  0  0  0  0  0  0
  189.6070  177.9370  146.9850 C   0  0  0  0  0  0  0  0  0  0  0  0
  187.0540  177.8250  147.3330 C   0  0  2  0  0  3  0  0  0  0  0  0
  188.0510  178.2620  145.1060 C   0  0  1  0  0  3  0  0  0  0  0  0
  190.7220  178.1410  146.0480 C   0  0  0  0  0  3  0  0  0  0  0  0
  189.8130  178.0210  148.2250 O   0  0  0  0  0  0  0  0  0  0  0  0
  186.7280  177.8600  144.4550 C   0  0  0  0  0  0  0  0  0  0  0  0
  185.8570  177.3270  146.7550 O   0  0  0  0  0  0  0  0  0  0  0  0
  186.4400  178.7620  143.2650 C   0  0  0  0  0  1  0  0  0  0  0  0
  186.7980  176.4250  143.9530 C   0  0  0  0  0  1  0  0  0  0  0  0
  190.4870  178.1850  144.7290 C   0  0  0  0  0  0  0  0  0  0  0  0
  188.2610  177.5280  146.4300 C   0  0  1  0  0  3  0  0  0  0  0  0
  187.2290  177.2250  148.5840 O   0  0  0  0  0  1  0  0  0  0  0  0
  189.1750  178.0820  144.2420 O   0  0  0  0  0  0  0  0  0  0  0  0
  183.5900  179.0000  145.1080 C   0  0  0  0  0  1  0  0  0  0  0  0
  184.8870  179.1750  145.6140 O   0  0  0  0  0  0  0  0  0  0  0  0
  189.6950  176.0050  138.1270 C   0  0  0  0  0  2  0  0  0  0  0  0
  190.2580  176.2160  136.7270 C   0  0  0  0  0  2  0  0  0  0  0  0
  191.7770  176.2150  136.7660 C   0  0  0  0  0  2  0  0  0  0  0  0
  192.3100  174.8040  136.5800 C   0  0  0  0  0  2  0  0  0  0  0  0
  193.9200  172.4440  136.5710 O   0  0  0  0  0  0  0  0  0  0  0  0
  193.6170  174.6710  137.2100 N   0  0  0  0  0  2  0  0  0  0  0  0
  194.3790  173.4600  137.1580 C   0  0  0  0  0  0  0  0  0  0  0  0
  196.4130  174.4360  137.8580 O   0  0  0  0  0  0  0  0  0  0  0  0
  196.1670  172.2120  138.3340 O   0  0  0  0  0  1  0  0  0  0  0  0
  195.7010  173.4030  137.7910 C   0  0  0  0  0  0  0  0  0  0  0  0
  185.8570  177.3070  136.9810 C   0  0  2  0  0  3  0  0  0  0  0  0
  186.4080  178.2670  134.8440 O   0  0  0  0  0  1  0  0  0  0  0  0
  186.1070  177.0630  135.4900 C   0  0  1  0  0  3  0  0  0  0  0  0
  187.1950  176.0490  135.2440 C   0  0  0  0  0  3  0  0  0  0  0  0
  186.9720  174.7290  135.2160 C   0  0  0  0  0  3  0  0  0  0  0  0
  185.6150  174.1270  135.4180 C   0  0  0  0  0  2  0  0  0  0  0  0
  185.7360  172.6210  135.5680 C   0  0  0  0  0  2  0  0  0  0  0  0
  183.4430  172.0240  136.3010 C   0  0  0  0  0  0  0  0  0  0  0  0
  183.9700  173.2170  137.1170 C   0  0  0  0  0  2  0  0  0  0  0  0
  183.2400  170.7530  136.8430 O   0  0  0  0  0  0  0  0  0  0  0  0
  184.9110  172.1640  136.7510 C   0  0  2  0  0  3  0  0  0  0  0  0
  182.3900  171.7040  137.1580 O   0  0  0  0  0  0  0  0  0  0  0  0
  184.4350  177.8040  137.2720 C   0  0  0  0  0  2  0  0  0  0  0  0
  183.3990  176.7600  136.9020 C   0  0  0  0  0  2  0  0  0  0  0  0
  182.2110  176.8640  137.8440 C   0  0  0  0  0  2  0  0  0  0  0  0
  182.0330  178.2840  138.3710 C   0  0  0  0  0  2  0  0  0  0  0  0
  180.8480  178.3810  139.3180 C   0  0  0  0  0  2  0  0  0  0  0  0
  180.3560  179.8160  139.3890 C   0  0  0  0  0  2  0  0  0  0  0  0
  180.1300  180.3220  138.0770 O   0  0  0  0  0  0  0  0  0  0  0  0
  181.2720  184.1730  136.8430 C   0  0  0  0  0  3  0  0  0  0  0  0
  181.9280  183.5710  137.9220 C   0  0  0  0  0  3  0  0  0  0  0  0
  180.2520  183.4880  136.1760 C   0  0  0  0  0  3  0  0  0  0  0  0
  180.5280  181.6020  137.6760 C   0  0  0  0  0  0  0  0  0  0  0  0
  181.5580  182.2910  138.3380 C   0  0  0  0  0  3  0  0  0  0  0  0
  179.8820  182.2050  136.5920 C   0  0  0  0  0  3  0  0  0  0  0  0
  1  5  1  0  0  0  0
  2  3  2  0  0  0  0
  3  1  2  0  0  0  0
  5  6  1  0  0  0  0
  5  4  1  1  0  0  0
  6  8  1  0  0  0  0
  7  6  2  0  0  0  0
  8  9  1  6  0  0  0
  8 10  1  0  0  0  0
 10 11  1  0  0  0  0
 11 22  1  0  0  0  0
 12 27  1  1  0  0  0
 12 19  1  0  0  0  0
 13 17  2  0  0  0  0
 14 24  1  1  0  0  0
 15 25  1  6  0  0  0
 15 23  1  0  0  0  0
 16 13  1  0  0  0  0
 18 15  1  0  0  0  0
 18 12  1  0  0  0  0
 19 14  1  0  0  0  0
 20 18  1  0  0  0  0
 21 18  1  0  0  0  0
 22 16  2  0  0  0  0
 23 13  1  1  0  0  0
 23 14  1  0  0  0  0
 25 22  1  0  0  0  0
 26 27  1  0  0  0  0
 28  1  1  0  0  0  0
 29 30  1  0  0  0  0
 29 28  1  0  0  0  0
 31 30  1  0  0  0  0
 31 33  1  0  0  0  0
 32 34  2  0  0  0  0
 34 33  1  0  0  0  0
 34 37  1  0  0  0  0
 37 35  2  0  0  0  0
 37 36  1  0  0  0  0
 38 50  1  6  0  0  0
 38  2  1  0  0  0  0
 40 39  1  6  0  0  0
 40 38  1  0  0  0  0
 41 40  1  0  0  0  0
 42 41  2  0  0  0  0
 42 43  1  0  0  0  0
 43 44  1  0  0  0  0
 45 48  1  0  0  0  0
 45 47  1  0  0  0  0
 45 46  1  0  0  0  0
 45 49  1  0  0  0  0
 47 49  1  0  0  0  0
 48 44  1  6  0  0  0
 48 46  1  0  0  0  0
 51 50  1  0  0  0  0
 51 52  1  0  0  0  0
 52 53  1  0  0  0  0
 53 54  1  0  0  0  0
 54 55  1  0  0  0  0
 56 55  1  0  0  0  0
 57 58  1  0  0  0  0
 58 61  2  0  0  0  0
 59 62  1  0  0  0  0
 59 57  2  0  0  0  0
 60 56  1  0  0  0  0
 60 61  1  0  0  0  0
 62 60  2  0  0  0  0
M  END
>  <MODEL>
9

>  <REMARK>
 VINA RESULT:      -5.0      3.157     10.651
  Name = 
  27 active torsions:
  status: ('A' for Active; 'I' for Inactive)
    1  A    between atoms: C_2  and  O_51
    2  A    between atoms: C_3  and  C_13
    3  A    between atoms: C_3  and  C_16
    4  A    between atoms: C_5  and  C_62
    5  A    between atoms: C_6  and  C_21
    6  A    between atoms: C_6  and  C_53
    7  A    between atoms: O_7  and  C_27
    8  A    between atoms: O_7  and  C_35
    9  A    between atoms: C_9  and  C_12
   10  A    between atoms: C_9  and  C_36
   11  A    between atoms: C_12  and  C_45
   12  A    between atoms: C_12  and  C_62
   13  A    between atoms: C_13  and  C_40
   14  A    between atoms: C_15  and  C_21
   15  A    between atoms: C_15  and  C_30
   16  A    between atoms: C_16  and  C_28
   17  A    between atoms: C_24  and  C_50
   18  A    between atoms: C_24  and  C_54
   19  A    between atoms: C_27  and  C_50
   20  A    between atoms: C_28  and  C_53
   21  A    between atoms: C_30  and  C_47
   22  A    between atoms: N_31  and  C_40
   23  A    between atoms: C_34  and  C_57
   24  A    between atoms: C_36  and  C_54
   25  A    between atoms: C_41  and  C_44
   26  A    between atoms: C_49  and  C_55
   27  A    between atoms: C_49  and  C_57
                            x       y       z     vdW  Elec       q    Type
                         _______ _______ _______ _____ _____    ______ ____

>  <TORSDO>
F 27

$$$$
