=
 OpenBabel10222420373D

 41 44  0  0  1  0  0  0  0  0999 V2000
  190.7790  177.1410  139.8260 C   0  0  0  0  0  0  0  0  0  0  0  0
  191.0360  178.4290  143.7890 O   0  0  0  0  0  1  0  0  0  0  0  0
  192.0850  177.4860  141.8090 C   0  0  0  0  0  3  0  0  0  0  0  0
  188.4160  178.6210  142.3640 C   0  0  0  0  0  3  0  0  0  0  0  0
  188.6370  177.6410  139.6530 C   0  0  0  0  0  0  0  0  0  0  0  0
  189.6990  177.6320  140.4840 C   0  0  2  0  0  3  0  0  0  0  0  0
  187.3470  178.1760  140.1020 C   0  0  0  0  0  3  0  0  0  0  0  0
  190.9380  178.0030  142.4710 C   0  0  0  0  0  0  0  0  0  0  0  0
  189.0030  177.1490  138.4450 N   0  0  0  0  0  0  0  0  0  0  0  0
  189.7100  178.0820  141.7830 C   0  0  0  0  0  0  0  0  0  0  0  0
  192.0170  177.0490  140.4630 C   0  0  0  0  0  3  0  0  0  0  0  0
  190.3330  176.8510  138.5420 C   0  0  0  0  0  0  0  0  0  0  0  0
  187.2460  178.6480  141.3670 C   0  0  0  0  0  0  0  0  0  0  0  0
  186.8880  176.5560  137.5150 O   0  0  0  0  0  0  0  0  0  0  0  0
  188.1720  177.0580  137.2470 C   0  0  2  0  0  0  0  0  0  0  0  0
  187.7750  175.7050  136.8160 C   0  0  0  0  0  2  0  0  0  0  0  0
  188.1840  178.1920  136.2370 C   0  0  0  0  0  2  0  0  0  0  0  0
  187.5520  179.3140  136.7720 O   0  0  0  0  0  1  0  0  0  0  0  0
  191.1650  176.2870  137.4390 C   0  0  0  0  0  2  0  0  0  0  0  0
  192.4480  174.2620  137.1270 C   0  0  0  0  0  0  0  0  0  0  0  0
  193.4770  173.6800  136.5690 C   0  0  0  0  0  3  0  0  0  0  0  0
  191.4260  174.8440  137.6860 C   0  0  0  0  0  3  0  0  0  0  0  0
  194.7970  174.2380  136.6230 N   0  0  0  0  0  0  0  0  0  0  0  0
  195.6960  174.1040  138.0970 S   0  0  0  0  0  0  0  0  0  0  0  0
  195.3180  175.2330  139.0140 O   0  0  0  0  0  0  0  0  0  0  0  0
  195.3810  172.7930  138.7640 O   0  0  0  0  0  0  0  0  0  0  0  0
  198.1760  174.8710  138.8730 C   0  0  0  0  0  1  0  0  0  0  0  0
  197.9430  172.8750  137.6060 O   0  0  0  0  0  1  0  0  0  0  0  0
  197.4440  174.1690  137.7470 C   0  0  1  0  0  3  0  0  0  0  0  0
  195.3530  175.0330  135.5330 C   0  0  0  0  0  2  0  0  0  0  0  0
  194.8090  176.4490  135.5860 C   0  0  0  0  0  1  0  0  0  0  0  0
  185.9370  179.1780  141.8410 C   0  0  0  0  0  2  0  0  0  0  0  0
  185.1700  178.1060  142.6020 C   0  0  0  0  0  2  0  0  0  0  0  0
  184.7080  179.4040  144.6830 C   0  0  0  0  0  1  0  0  0  0  0  0
  186.2460  177.4270  144.7780 C   0  0  0  0  0  0  0  0  0  0  0  0
  185.3580  178.2780  144.0350 N   0  0  0  0  0  0  0  0  0  0  0  0
  186.8820  176.5090  144.1870 O   0  0  0  0  0  0  0  0  0  0  0  0
  186.4090  177.6230  146.1880 N   0  0  0  0  0  0  0  0  0  0  0  0
  187.5600  177.8760  146.7210 C   0  0  0  0  0  3  0  0  0  0  0  0
  187.6690  178.0710  148.1910 C   0  0  0  0  0  2  0  0  0  0  0  0
  189.1230  178.2620  148.5690 C   0  0  0  0  0  1  0  0  0  0  0  0
  1 11  1  0  0  0  0
  1  6  1  0  0  0  0
  3  8  1  0  0  0  0
  5  7  2  0  0  0  0
  6  5  1  6  0  0  0
  6 10  1  0  0  0  0
  7 13  1  0  0  0  0
  8  2  1  0  0  0  0
  9 12  1  0  0  0  0
  9  5  1  0  0  0  0
 10  4  1  0  0  0  0
 10  8  2  0  0  0  0
 11  3  2  0  0  0  0
 12  1  2  0  0  0  0
 13 32  1  0  0  0  0
 13  4  2  0  0  0  0
 15 17  1  6  0  0  0
 15 14  1  0  0  0  0
 15  9  1  0  0  0  0
 16 15  1  0  0  0  0
 16 14  1  0  0  0  0
 17 18  1  0  0  0  0
 19 22  1  0  0  0  0
 19 12  1  0  0  0  0
 20 22  2  0  0  0  0
 21 23  1  0  0  0  0
 21 20  2  0  0  0  0
 23 24  1  0  0  0  0
 24 26  2  0  0  0  0
 24 25  2  0  0  0  0
 28 29  1  0  0  0  0
 29 24  1  0  0  0  0
 29 27  1  1  0  0  0
 30 31  1  0  0  0  0
 30 23  1  0  0  0  0
 32 33  1  0  0  0  0
 33 36  1  0  0  0  0
 35 38  1  0  0  0  0
 36 34  1  0  0  0  0
 36 35  1  0  0  0  0
 37 35  2  0  0  0  0
 38 39  2  0  0  0  0
 39 40  1  0  0  0  0
 40 41  1  0  0  0  0
M  END
>  <MODEL>
1

>  <REMARK>
 VINA RESULT:      -7.4      0.000      0.000
  Name = 
  13 active torsions:
  status: ('A' for Active; 'I' for Inactive)
    1  A    between atoms: C_6  and  C_31
    2  A    between atoms: S_8  and  C_23
    3  A    between atoms: S_8  and  N_24
    4  A    between atoms: C_9  and  C_29
    5  A    between atoms: C_9  and  N_34
    6  A    between atoms: C_13  and  C_36
    7  A    between atoms: C_13  and  C_41
    8  A    between atoms: N_14  and  C_16
    9  A    between atoms: C_18  and  N_24
   10  A    between atoms: C_21  and  C_25
   11  A    between atoms: N_24  and  C_38
   12  A    between atoms: C_25  and  N_27
   13  A    between atoms: C_29  and  C_40
                            x       y       z     vdW  Elec       q    Type
                         _______ _______ _______ _____ _____    ______ ____

>  <TORSDO>
F 13

$$$$
=
 OpenBabel10222420373D

 41 44  0  0  1  0  0  0  0  0999 V2000
  187.5800  177.9380  142.0550 C   0  0  0  0  0  0  0  0  0  0  0  0
  184.0980  178.9210  144.1400 O   0  0  0  0  0  1  0  0  0  0  0  0
  186.4380  178.2590  144.1410 C   0  0  0  0  0  3  0  0  0  0  0  0
  184.0610  178.9440  141.1510 C   0  0  0  0  0  2  0  0  0  0  0  0
  186.6450  178.2170  140.0770 C   0  0  0  0  0  0  0  0  0  0  0  0
  186.4310  178.2550  141.4070 C   0  0  0  0  0  0  0  0  0  0  0  0
  185.5720  178.5720  139.1420 C   0  0  0  0  0  3  0  0  0  0  0  0
  185.2500  178.5950  143.4350 C   0  0  0  0  0  0  0  0  0  0  0  0
  187.9310  177.8660  139.8350 N   0  0  0  0  0  0  0  0  0  0  0  0
  185.2520  178.5970  142.0250 C   0  0  0  0  0  0  0  0  0  0  0  0
  187.6290  177.9270  143.4500 C   0  0  0  0  0  3  0  0  0  0  0  0
  188.5190  177.7060  141.0570 C   0  0  0  0  0  0  0  0  0  0  0  0
  184.3660  178.9270  139.6440 C   0  0  0  0  0  0  0  0  0  0  0  0
  187.7830  177.1700  137.5580 O   0  0  0  0  0  0  0  0  0  0  0  0
  188.5870  177.7840  138.5320 C   0  0  2  0  0  0  0  0  0  0  0  0
  188.8940  176.4330  138.0280 C   0  0  0  0  0  2  0  0  0  0  0  0
  189.3730  178.9740  138.0100 C   0  0  0  0  0  2  0  0  0  0  0  0
  188.5310  179.8240  137.2920 O   0  0  0  0  0  1  0  0  0  0  0  0
  189.9460  177.3260  141.2760 C   0  0  0  0  0  2  0  0  0  0  0  0
  190.6470  176.1040  143.2400 C   0  0  0  0  0  0  0  0  0  0  0  0
  191.2710  176.1200  144.3890 C   0  0  0  0  0  3  0  0  0  0  0  0
  190.0210  176.0890  142.0980 C   0  0  0  0  0  3  0  0  0  0  0  0
  191.0260  177.1260  145.3820 N   0  0  0  0  0  0  0  0  0  0  0  0
  190.9530  176.6510  147.0450 S   0  0  0  0  0  0  0  0  0  0  0  0
  191.4020  175.2220  147.1730 O   0  0  0  0  0  0  0  0  0  0  0  0
  191.8570  177.5320  147.8630 O   0  0  0  0  0  0  0  0  0  0  0  0
  189.1240  178.1260  148.3930 C   0  0  0  0  0  1  0  0  0  0  0  0
  188.3920  176.7800  146.5770 O   0  0  0  0  0  1  0  0  0  0  0  0
  189.2830  176.8150  147.6480 C   0  0  1  0  0  3  0  0  0  0  0  0
  190.6970  178.5040  145.0310 C   0  0  0  0  0  2  0  0  0  0  0  0
  191.8550  179.1470  144.2890 C   0  0  0  0  0  1  0  0  0  0  0  0
  183.2620  179.2720  138.7040 C   0  0  0  0  0  2  0  0  0  0  0  0
  182.1780  178.2060  138.7380 C   0  0  0  0  0  2  0  0  0  0  0  0
  182.6590  177.3030  136.4610 C   0  0  0  0  0  1  0  0  0  0  0  0
  182.7140  175.7620  138.4370 C   0  0  0  0  0  0  0  0  0  0  0  0
  182.5550  177.0810  137.8930 N   0  0  0  0  0  0  0  0  0  0  0  0
  182.5270  175.5600  139.6690 O   0  0  0  0  0  0  0  0  0  0  0  0
  183.0850  174.6760  137.5780 N   0  0  0  0  0  0  0  0  0  0  0  0
  184.2290  174.0800  137.6710 C   0  0  0  0  0  3  0  0  0  0  0  0
  184.5580  172.9600  136.7520 C   0  0  0  0  0  2  0  0  0  0  0  0
  183.7190  171.7500  137.1080 C   0  0  0  0  0  1  0  0  0  0  0  0
  1 11  1  0  0  0  0
  4 10  1  0  0  0  0
  5  6  2  0  0  0  0
  6 10  1  0  0  0  0
  6  1  1  0  0  0  0
  7 13  2  0  0  0  0
  7  5  1  0  0  0  0
  8  2  1  0  0  0  0
  8  3  1  0  0  0  0
  9  5  1  0  0  0  0
  9 12  1  0  0  0  0
 10  8  2  0  0  0  0
 11  3  2  0  0  0  0
 12 19  1  0  0  0  0
 12  1  2  0  0  0  0
 13  4  1  0  0  0  0
 14 16  1  0  0  0  0
 14 15  1  0  0  0  0
 15 17  1  6  0  0  0
 15  9  1  0  0  0  0
 16 15  1  0  0  0  0
 18 17  1  0  0  0  0
 19 22  1  0  0  0  0
 20 21  2  0  0  0  0
 21 23  1  0  0  0  0
 22 20  2  0  0  0  0
 23 24  1  0  0  0  0
 24 25  2  0  0  0  0
 24 29  1  0  0  0  0
 24 26  2  0  0  0  0
 28 29  1  0  0  0  0
 29 27  1  6  0  0  0
 30 23  1  0  0  0  0
 31 30  1  0  0  0  0
 32 33  1  0  0  0  0
 32 13  1  0  0  0  0
 34 36  1  0  0  0  0
 35 37  2  0  0  0  0
 36 35  1  0  0  0  0
 36 33  1  0  0  0  0
 38 39  2  0  0  0  0
 38 35  1  0  0  0  0
 40 41  1  0  0  0  0
 40 39  1  0  0  0  0
M  END
>  <MODEL>
2

>  <REMARK>
 VINA RESULT:      -7.3      4.622      7.678
  Name = 
  13 active torsions:
  status: ('A' for Active; 'I' for Inactive)
    1  A    between atoms: C_6  and  C_31
    2  A    between atoms: S_8  and  C_23
    3  A    between atoms: S_8  and  N_24
    4  A    between atoms: C_9  and  C_29
    5  A    between atoms: C_9  and  N_34
    6  A    between atoms: C_13  and  C_36
    7  A    between atoms: C_13  and  C_41
    8  A    between atoms: N_14  and  C_16
    9  A    between atoms: C_18  and  N_24
   10  A    between atoms: C_21  and  C_25
   11  A    between atoms: N_24  and  C_38
   12  A    between atoms: C_25  and  N_27
   13  A    between atoms: C_29  and  C_40
                            x       y       z     vdW  Elec       q    Type
                         _______ _______ _______ _____ _____    ______ ____

>  <TORSDO>
F 13

$$$$
=
 OpenBabel10222420373D

 41 44  0  0  1  0  0  0  0  0999 V2000
  189.1890  177.1060  138.7740 C   0  0  0  0  0  0  0  0  0  0  0  0
  185.4750  178.0010  137.0900 O   0  0  0  0  0  1  0  0  0  0  0  0
  187.7290  177.1180  136.8700 C   0  0  0  0  0  3  0  0  0  0  0  0
  185.9470  178.6070  139.9780 C   0  0  0  0  0  3  0  0  0  0  0  0
  188.6210  177.8450  140.7730 C   0  0  0  0  0  0  0  0  0  0  0  0
  188.1980  177.6760  139.5040 C   0  0  2  0  0  3  0  0  0  0  0  0
  187.7180  178.3990  141.7890 C   0  0  0  0  0  3  0  0  0  0  0  0
  186.7070  177.7090  137.6610 C   0  0  0  0  0  0  0  0  0  0  0  0
  189.8940  177.3990  140.8900 N   0  0  0  0  0  0  0  0  0  0  0  0
  186.9500  177.9900  139.0210 C   0  0  0  0  0  0  0  0  0  0  0  0
  188.9940  176.8030  137.4260 C   0  0  0  0  0  3  0  0  0  0  0  0
  190.2460  176.9260  139.6580 C   0  0  0  0  0  0  0  0  0  0  0  0
  186.4610  178.7420  141.4210 C   0  0  0  0  0  0  0  0  0  0  0  0
  191.0260  178.6040  142.6100 O   0  0  0  0  0  0  0  0  0  0  0  0
  190.6920  177.3340  142.1120 C   0  0  2  0  0  0  0  0  0  0  0  0
  192.0710  177.8470  142.0320 C   0  0  0  0  0  2  0  0  0  0  0  0
  190.3280  176.3330  143.1950 C   0  0  0  0  0  2  0  0  0  0  0  0
  190.1110  175.0760  142.6280 O   0  0  0  0  0  1  0  0  0  0  0  0
  191.5700  176.3250  139.3200 C   0  0  0  0  0  2  0  0  0  0  0  0
  193.0460  176.2120  137.4080 C   0  0  0  0  0  0  0  0  0  0  0  0
  194.1970  175.8290  136.9210 C   0  0  0  0  0  3  0  0  0  0  0  0
  191.8980  176.5900  137.8930 C   0  0  0  0  0  3  0  0  0  0  0  0
  194.7040  174.4990  137.1040 N   0  0  0  0  0  0  0  0  0  0  0  0
  195.7230  174.1790  138.4670 S   0  0  0  0  0  0  0  0  0  0  0  0
  195.4490  175.1930  139.5420 O   0  0  0  0  0  0  0  0  0  0  0  0
  195.4400  172.8000  138.9970 O   0  0  0  0  0  0  0  0  0  0  0  0
  197.7920  173.0800  137.1050 C   0  0  0  0  0  1  0  0  0  0  0  0
  197.6580  175.4470  137.2630 O   0  0  0  0  0  1  0  0  0  0  0  0
  197.4350  174.2690  137.9740 C   0  0  1  0  0  3  0  0  0  0  0  0
  194.5080  173.4470  136.1120 C   0  0  0  0  0  2  0  0  0  0  0  0
  193.1260  172.8350  136.2630 C   0  0  0  0  0  1  0  0  0  0  0  0
  185.5410  179.3220  142.4390 C   0  0  0  0  0  2  0  0  0  0  0  0
  185.0180  178.2350  143.3680 C   0  0  0  0  0  2  0  0  0  0  0  0
  185.3370  179.4330  145.5340 C   0  0  0  0  0  1  0  0  0  0  0  0
  186.7170  177.4030  145.0330 C   0  0  0  0  0  0  0  0  0  0  0  0
  185.6780  178.3220  144.6630 N   0  0  0  0  0  0  0  0  0  0  0  0
  187.0750  176.4970  144.2280 O   0  0  0  0  0  0  0  0  0  0  0  0
  187.3480  177.5160  146.3140 N   0  0  0  0  0  0  0  0  0  0  0  0
  188.6290  177.4230  146.4650 C   0  0  0  0  0  3  0  0  0  0  0  0
  189.2280  177.5490  147.8200 C   0  0  0  0  0  2  0  0  0  0  0  0
  188.1590  177.9670  148.8080 C   0  0  0  0  0  1  0  0  0  0  0  0
  1 12  2  0  0  0  0
  2  8  1  0  0  0  0
  3 11  2  0  0  0  0
  3  8  1  0  0  0  0
  4 13  2  0  0  0  0
  5  9  1  0  0  0  0
  5  7  2  0  0  0  0
  6  1  1  1  0  0  0
  6  5  1  0  0  0  0
  8 10  2  0  0  0  0
  9 15  1  0  0  0  0
 10  6  1  0  0  0  0
 10  4  1  0  0  0  0
 11  1  1  0  0  0  0
 12  9  1  0  0  0  0
 13  7  1  0  0  0  0
 13 32  1  0  0  0  0
 15 14  1  0  0  0  0
 15 17  1  1  0  0  0
 16 15  1  0  0  0  0
 16 14  1  0  0  0  0
 18 17  1  0  0  0  0
 19 12  1  0  0  0  0
 20 22  2  0  0  0  0
 21 23  1  0  0  0  0
 21 20  2  0  0  0  0
 22 19  1  0  0  0  0
 23 24  1  0  0  0  0
 24 26  2  0  0  0  0
 24 25  2  0  0  0  0
 28 29  1  0  0  0  0
 29 27  1  6  0  0  0
 29 24  1  0  0  0  0
 30 31  1  0  0  0  0
 30 23  1  0  0  0  0
 32 33  1  0  0  0  0
 33 36  1  0  0  0  0
 35 38  1  0  0  0  0
 36 35  1  0  0  0  0
 36 34  1  0  0  0  0
 37 35  2  0  0  0  0
 38 39  2  0  0  0  0
 39 40  1  0  0  0  0
 40 41  1  0  0  0  0
M  END
>  <MODEL>
3

>  <REMARK>
 VINA RESULT:      -7.2      1.302      3.591
  Name = 
  13 active torsions:
  status: ('A' for Active; 'I' for Inactive)
    1  A    between atoms: C_6  and  C_31
    2  A    between atoms: S_8  and  C_23
    3  A    between atoms: S_8  and  N_24
    4  A    between atoms: C_9  and  C_29
    5  A    between atoms: C_9  and  N_34
    6  A    between atoms: C_13  and  C_36
    7  A    between atoms: C_13  and  C_41
    8  A    between atoms: N_14  and  C_16
    9  A    between atoms: C_18  and  N_24
   10  A    between atoms: C_21  and  C_25
   11  A    between atoms: N_24  and  C_38
   12  A    between atoms: C_25  and  N_27
   13  A    between atoms: C_29  and  C_40
                            x       y       z     vdW  Elec       q    Type
                         _______ _______ _______ _____ _____    ______ ____

>  <TORSDO>
F 13

$$$$
=
 OpenBabel10222420373D

 41 44  0  0  1  0  0  0  0  0999 V2000
  190.5520  177.3360  140.7210 C   0  0  0  0  0  0  0  0  0  0  0  0
  190.0000  178.1520  144.7780 O   0  0  0  0  0  1  0  0  0  0  0  0
  191.4430  177.4700  142.9440 C   0  0  0  0  0  3  0  0  0  0  0  0
  187.6910  178.4580  142.9050 C   0  0  0  0  0  3  0  0  0  0  0  0
  188.4630  177.8110  140.1950 C   0  0  0  0  0  0  0  0  0  0  0  0
  189.3470  177.7240  141.2090 C   0  0  2  0  0  3  0  0  0  0  0  0
  187.0900  178.2630  140.4440 C   0  0  0  0  0  3  0  0  0  0  0  0
  190.1710  177.8820  143.4260 C   0  0  0  0  0  0  0  0  0  0  0  0
  189.0720  177.4720  139.0330 N   0  0  0  0  0  0  0  0  0  0  0  0
  189.0930  178.0180  142.5270 C   0  0  0  0  0  0  0  0  0  0  0  0
  191.6500  177.1930  141.5700 C   0  0  0  0  0  3  0  0  0  0  0  0
  190.3700  177.1900  139.3510 C   0  0  0  0  0  0  0  0  0  0  0  0
  186.7310  178.5800  141.7100 C   0  0  0  0  0  0  0  0  0  0  0  0
  187.1460  177.0890  137.6770 O   0  0  0  0  0  0  0  0  0  0  0  0
  188.4870  177.5060  137.6940 C   0  0  2  0  0  0  0  0  0  0  0  0
  188.0970  176.2120  137.1070 C   0  0  0  0  0  2  0  0  0  0  0  0
  188.7690  178.6870  136.7820 C   0  0  0  0  0  2  0  0  0  0  0  0
  188.9200  179.8490  137.5400 O   0  0  0  0  0  1  0  0  0  0  0  0
  191.4190  176.7770  138.3730 C   0  0  0  0  0  2  0  0  0  0  0  0
  192.4420  174.7240  137.6130 C   0  0  0  0  0  0  0  0  0  0  0  0
  193.3730  174.1520  136.8950 C   0  0  0  0  0  3  0  0  0  0  0  0
  191.5180  175.2940  138.3310 C   0  0  0  0  0  3  0  0  0  0  0  0
  194.7520  174.5420  136.9730 N   0  0  0  0  0  0  0  0  0  0  0  0
  195.6170  174.2460  138.4440 S   0  0  0  0  0  0  0  0  0  0  0  0
  195.3670  175.3760  139.4030 O   0  0  0  0  0  0  0  0  0  0  0  0
  195.1440  172.9580  139.0580 O   0  0  0  0  0  0  0  0  0  0  0  0
  197.6040  173.1150  136.9910 C   0  0  0  0  0  1  0  0  0  0  0  0
  197.8590  175.3630  137.7190 O   0  0  0  0  0  1  0  0  0  0  0  0
  197.3620  174.1180  138.1020 C   0  0  1  0  0  3  0  0  0  0  0  0
  195.4080  175.3030  135.9150 C   0  0  0  0  0  2  0  0  0  0  0  0
  194.6680  176.6060  135.6700 C   0  0  0  0  0  1  0  0  0  0  0  0
  185.3350  179.0240  141.9780 C   0  0  0  0  0  2  0  0  0  0  0  0
  184.3370  178.0290  141.4040 C   0  0  0  0  0  2  0  0  0  0  0  0
  181.9830  178.7970  141.7150 C   0  0  0  0  0  1  0  0  0  0  0  0
  183.1520  179.2500  139.5450 C   0  0  0  0  0  0  0  0  0  0  0  0
  183.1720  178.7300  140.8830 N   0  0  0  0  0  0  0  0  0  0  0  0
  184.1570  179.1020  138.7950 O   0  0  0  0  0  0  0  0  0  0  0  0
  181.9890  179.9340  139.0620 N   0  0  0  0  0  0  0  0  0  0  0  0
  182.0530  181.1020  138.5120 C   0  0  0  0  0  3  0  0  0  0  0  0
  180.8120  181.7640  138.0300 C   0  0  0  0  0  2  0  0  0  0  0  0
  180.6060  181.4460  136.5640 C   0  0  0  0  0  1  0  0  0  0  0  0
  1  6  1  0  0  0  0
  1 11  1  0  0  0  0
  3  8  1  0  0  0  0
  5  7  2  0  0  0  0
  6  5  1  6  0  0  0
  6 10  1  0  0  0  0
  7 13  1  0  0  0  0
  8  2  1  0  0  0  0
  9 12  1  0  0  0  0
  9  5  1  0  0  0  0
 10  4  1  0  0  0  0
 10  8  2  0  0  0  0
 11  3  2  0  0  0  0
 12  1  2  0  0  0  0
 13 32  1  0  0  0  0
 13  4  2  0  0  0  0
 14 15  1  0  0  0  0
 15 17  1  6  0  0  0
 15  9  1  0  0  0  0
 16 14  1  0  0  0  0
 16 15  1  0  0  0  0
 17 18  1  0  0  0  0
 19 12  1  0  0  0  0
 20 22  2  0  0  0  0
 21 23  1  0  0  0  0
 21 20  2  0  0  0  0
 22 19  1  0  0  0  0
 23 24  1  0  0  0  0
 24 26  2  0  0  0  0
 24 25  2  0  0  0  0
 28 29  1  0  0  0  0
 29 27  1  6  0  0  0
 29 24  1  0  0  0  0
 30 23  1  0  0  0  0
 31 30  1  0  0  0  0
 33 32  1  0  0  0  0
 35 36  1  0  0  0  0
 36 33  1  0  0  0  0
 36 34  1  0  0  0  0
 37 35  2  0  0  0  0
 38 35  1  0  0  0  0
 39 38  2  0  0  0  0
 40 39  1  0  0  0  0
 41 40  1  0  0  0  0
M  END
>  <MODEL>
4

>  <REMARK>
 VINA RESULT:      -7.1      2.525      4.208
  Name = 
  13 active torsions:
  status: ('A' for Active; 'I' for Inactive)
    1  A    between atoms: C_6  and  C_31
    2  A    between atoms: S_8  and  C_23
    3  A    between atoms: S_8  and  N_24
    4  A    between atoms: C_9  and  C_29
    5  A    between atoms: C_9  and  N_34
    6  A    between atoms: C_13  and  C_36
    7  A    between atoms: C_13  and  C_41
    8  A    between atoms: N_14  and  C_16
    9  A    between atoms: C_18  and  N_24
   10  A    between atoms: C_21  and  C_25
   11  A    between atoms: N_24  and  C_38
   12  A    between atoms: C_25  and  N_27
   13  A    between atoms: C_29  and  C_40
                            x       y       z     vdW  Elec       q    Type
                         _______ _______ _______ _____ _____    ______ ____

>  <TORSDO>
F 13

$$$$
=
 OpenBabel10222420373D

 41 44  0  0  1  0  0  0  0  0999 V2000
  186.3600  177.7710  137.9770 C   0  0  0  0  0  0  0  0  0  0  0  0
  185.5170  179.5160  141.6760 O   0  0  0  0  0  1  0  0  0  0  0  0
  184.8170  178.8940  139.4320 C   0  0  0  0  0  3  0  0  0  0  0  0
  188.2260  178.3430  141.2030 C   0  0  0  0  0  3  0  0  0  0  0  0
  188.4230  177.2320  138.5410 C   0  0  0  0  0  0  0  0  0  0  0  0
  187.2900  177.8290  138.9620 C   0  0  2  0  0  3  0  0  0  0  0  0
  189.5770  177.1110  139.4380 C   0  0  0  0  0  3  0  0  0  0  0  0
  185.8090  178.9330  140.4490 C   0  0  0  0  0  0  0  0  0  0  0  0
  188.2550  176.7850  137.2730 N   0  0  0  0  0  0  0  0  0  0  0  0
  187.0820  178.3780  140.2050 C   0  0  0  0  0  0  0  0  0  0  0  0
  185.0840  178.3020  138.1720 C   0  0  0  0  0  3  0  0  0  0  0  0
  186.9730  177.1040  136.9240 C   0  0  0  0  0  0  0  0  0  0  0  0
  189.4800  177.6180  140.6900 C   0  0  0  0  0  0  0  0  0  0  0  0
  190.4870  176.6100  136.4490 O   0  0  0  0  0  0  0  0  0  0  0  0
  189.2130  176.0200  136.4790 C   0  0  2  0  0  0  0  0  0  0  0  0
  189.7270  176.6640  135.2570 C   0  0  0  0  0  2  0  0  0  0  0  0
  189.2460  174.5060  136.5970 C   0  0  0  0  0  2  0  0  0  0  0  0
  190.1830  174.1230  137.5570 O   0  0  0  0  0  1  0  0  0  0  0  0
  186.3440  176.7920  135.6070 C   0  0  0  0  0  2  0  0  0  0  0  0
  184.5200  175.2990  136.1440 C   0  0  0  0  0  0  0  0  0  0  0  0
  183.3170  175.1540  136.6350 C   0  0  0  0  0  3  0  0  0  0  0  0
  185.7170  175.4440  135.6510 C   0  0  0  0  0  3  0  0  0  0  0  0
  182.2180  175.9830  136.2320 N   0  0  0  0  0  0  0  0  0  0  0  0
  181.0370  176.4310  137.4160 S   0  0  0  0  0  0  0  0  0  0  0  0
  181.5220  177.6380  138.1690 O   0  0  0  0  0  0  0  0  0  0  0  0
  179.7370  176.7570  136.7350 O   0  0  0  0  0  0  0  0  0  0  0  0
  180.3790  175.6080  139.9120 C   0  0  0  0  0  1  0  0  0  0  0  0
  179.7640  174.2490  138.0620 O   0  0  0  0  0  1  0  0  0  0  0  0
  180.7740  175.0780  138.5480 C   0  0  1  0  0  3  0  0  0  0  0  0
  181.9850  176.3440  134.8370 C   0  0  0  0  0  2  0  0  0  0  0  0
  182.3330  177.8050  134.6080 C   0  0  0  0  0  1  0  0  0  0  0  0
  190.6520  177.5160  141.6050 C   0  0  0  0  0  2  0  0  0  0  0  0
  190.4140  176.4460  142.6610 C   0  0  0  0  0  2  0  0  0  0  0  0
  191.2580  177.6710  144.6650 C   0  0  0  0  0  1  0  0  0  0  0  0
  188.8490  176.9880  144.5600 C   0  0  0  0  0  0  0  0  0  0  0  0
  190.1480  177.0650  143.9510 N   0  0  0  0  0  0  0  0  0  0  0  0
  187.9130  176.3750  143.9750 O   0  0  0  0  0  0  0  0  0  0  0  0
  188.6190  177.6070  145.8320 N   0  0  0  0  0  0  0  0  0  0  0  0
  187.4490  177.6440  146.3810 C   0  0  0  0  0  3  0  0  0  0  0  0
  187.2710  178.3000  147.7030 C   0  0  0  0  0  2  0  0  0  0  0  0
  188.4200  177.9220  148.6140 C   0  0  0  0  0  1  0  0  0  0  0  0
  1 11  1  0  0  0  0
  3  8  1  0  0  0  0
  5  6  1  0  0  0  0
  5  7  2  0  0  0  0
  6  1  1  1  0  0  0
  6 10  1  0  0  0  0
  7 13  1  0  0  0  0
  8  2  1  0  0  0  0
  9  5  1  0  0  0  0
 10  8  2  0  0  0  0
 10  4  1  0  0  0  0
 11  3  2  0  0  0  0
 12  9  1  0  0  0  0
 12  1  2  0  0  0  0
 13  4  2  0  0  0  0
 13 32  1  0  0  0  0
 14 15  1  0  0  0  0
 15 17  1  1  0  0  0
 15  9  1  0  0  0  0
 16 14  1  0  0  0  0
 16 15  1  0  0  0  0
 17 18  1  0  0  0  0
 19 22  1  0  0  0  0
 19 12  1  0  0  0  0
 20 21  2  0  0  0  0
 22 20  2  0  0  0  0
 23 21  1  0  0  0  0
 23 24  1  0  0  0  0
 24 25  2  0  0  0  0
 24 29  1  0  0  0  0
 26 24  2  0  0  0  0
 28 29  1  0  0  0  0
 29 27  1  1  0  0  0
 30 23  1  0  0  0  0
 31 30  1  0  0  0  0
 32 33  1  0  0  0  0
 33 36  1  0  0  0  0
 35 38  1  0  0  0  0
 36 35  1  0  0  0  0
 36 34  1  0  0  0  0
 37 35  2  0  0  0  0
 38 39  2  0  0  0  0
 39 40  1  0  0  0  0
 40 41  1  0  0  0  0
M  END
>  <MODEL>
5

>  <REMARK>
 VINA RESULT:      -6.9      4.269      8.288
  Name = 
  13 active torsions:
  status: ('A' for Active; 'I' for Inactive)
    1  A    between atoms: C_6  and  C_31
    2  A    between atoms: S_8  and  C_23
    3  A    between atoms: S_8  and  N_24
    4  A    between atoms: C_9  and  C_29
    5  A    between atoms: C_9  and  N_34
    6  A    between atoms: C_13  and  C_36
    7  A    between atoms: C_13  and  C_41
    8  A    between atoms: N_14  and  C_16
    9  A    between atoms: C_18  and  N_24
   10  A    between atoms: C_21  and  C_25
   11  A    between atoms: N_24  and  C_38
   12  A    between atoms: C_25  and  N_27
   13  A    between atoms: C_29  and  C_40
                            x       y       z     vdW  Elec       q    Type
                         _______ _______ _______ _____ _____    ______ ____

>  <TORSDO>
F 13

$$$$
=
 OpenBabel10222420373D

 41 44  0  0  1  0  0  0  0  0999 V2000
  187.8750  177.9110  139.8490 C   0  0  0  0  0  0  0  0  0  0  0  0
  186.7200  177.4990  135.8580 O   0  0  0  0  0  1  0  0  0  0  0  0
  186.2850  178.3290  138.1020 C   0  0  0  0  0  3  0  0  0  0  0  0
  189.3150  176.3140  136.7520 C   0  0  0  0  0  2  0  0  0  0  0  0
  189.7650  176.8090  139.5650 C   0  0  0  0  0  0  0  0  0  0  0  0
  188.6440  177.2420  138.9540 C   0  0  0  0  0  0  0  0  0  0  0  0
  190.7970  176.0960  138.8050 C   0  0  0  0  0  3  0  0  0  0  0  0
  187.1150  177.6290  137.1840 C   0  0  0  0  0  0  0  0  0  0  0  0
  189.7420  177.1790  140.8680 N   0  0  0  0  0  0  0  0  0  0  0  0
  188.3340  177.0740  137.6250 C   0  0  0  0  0  0  0  0  0  0  0  0
  186.6630  178.4820  139.4580 C   0  0  0  0  0  3  0  0  0  0  0  0
  188.5800  177.8740  141.0460 C   0  0  0  0  0  0  0  0  0  0  0  0
  190.5940  175.8770  137.4840 C   0  0  0  0  0  0  0  0  0  0  0  0
  191.2440  178.1710  142.4340 O   0  0  0  0  0  0  0  0  0  0  0  0
  190.7970  176.9710  141.8570 C   0  0  2  0  0  0  0  0  0  0  0  0
  192.1250  177.5250  141.5370 C   0  0  0  0  0  2  0  0  0  0  0  0
  190.6840  175.8250  142.8470 C   0  0  0  0  0  2  0  0  0  0  0  0
  189.3620  175.3840  142.9160 O   0  0  0  0  0  1  0  0  0  0  0  0
  188.1380  178.4840  142.3350 C   0  0  0  0  0  2  0  0  0  0  0  0
  186.7490  177.4420  144.0160 C   0  0  0  0  0  0  0  0  0  0  0  0
  186.6260  177.0340  145.2520 C   0  0  0  0  0  3  0  0  0  0  0  0
  186.8700  177.8530  142.7860 C   0  0  0  0  0  3  0  0  0  0  0  0
  186.9630  177.8650  146.3720 N   0  0  0  0  0  0  0  0  0  0  0  0
  188.3900  177.4950  147.2810 S   0  0  0  0  0  0  0  0  0  0  0  0
  188.7590  178.6790  148.1290 O   0  0  0  0  0  0  0  0  0  0  0  0
  188.1320  176.3080  148.1670 O   0  0  0  0  0  0  0  0  0  0  0  0
  190.1560  178.3490  145.4120 C   0  0  0  0  0  1  0  0  0  0  0  0
  190.8130  176.6120  146.8940 O   0  0  0  0  0  1  0  0  0  0  0  0
  189.7300  177.1080  146.1690 C   0  0  1  0  0  3  0  0  0  0  0  0
  186.0760  178.9180  146.8570 C   0  0  0  0  0  2  0  0  0  0  0  0
  184.7380  178.8470  146.1420 C   0  0  0  0  0  1  0  0  0  0  0  0
  191.6280  175.1390  136.7040 C   0  0  0  0  0  2  0  0  0  0  0  0
  192.6660  174.5300  137.6350 C   0  0  0  0  0  2  0  0  0  0  0  0
  194.1400  175.7150  136.0060 C   0  0  0  0  0  1  0  0  0  0  0  0
  195.1720  174.3790  137.8590 C   0  0  0  0  0  0  0  0  0  0  0  0
  194.0060  174.8970  137.1990 N   0  0  0  0  0  0  0  0  0  0  0  0
  195.0460  173.5900  138.8370 O   0  0  0  0  0  0  0  0  0  0  0  0
  196.4770  174.7580  137.4030 N   0  0  0  0  0  0  0  0  0  0  0  0
  197.5540  174.2000  137.8520 C   0  0  0  0  0  3  0  0  0  0  0  0
  198.8810  174.6350  137.3430 C   0  0  0  0  0  2  0  0  0  0  0  0
  198.9970  174.2900  135.8730 C   0  0  0  0  0  1  0  0  0  0  0  0
  1 12  2  0  0  0  0
  2  8  1  0  0  0  0
  3 11  2  0  0  0  0
  4 13  1  0  0  0  0
  4 10  1  0  0  0  0
  5  9  1  0  0  0  0
  6  5  2  0  0  0  0
  6  1  1  0  0  0  0
  7  5  1  0  0  0  0
  8 10  2  0  0  0  0
  8  3  1  0  0  0  0
  9 12  1  0  0  0  0
  9 15  1  0  0  0  0
 10  6  1  0  0  0  0
 11  1  1  0  0  0  0
 12 19  1  0  0  0  0
 13  7  2  0  0  0  0
 15 14  1  0  0  0  0
 15 17  1  1  0  0  0
 16 15  1  0  0  0  0
 16 14  1  0  0  0  0
 17 18  1  0  0  0  0
 19 22  1  0  0  0  0
 20 21  2  0  0  0  0
 21 23  1  0  0  0  0
 22 20  2  0  0  0  0
 23 30  1  0  0  0  0
 23 24  1  0  0  0  0
 24 25  2  0  0  0  0
 24 26  2  0  0  0  0
 29 27  1  1  0  0  0
 29 28  1  0  0  0  0
 29 24  1  0  0  0  0
 31 30  1  0  0  0  0
 32 13  1  0  0  0  0
 32 33  1  0  0  0  0
 34 36  1  0  0  0  0
 35 37  2  0  0  0  0
 36 33  1  0  0  0  0
 36 35  1  0  0  0  0
 38 39  2  0  0  0  0
 38 35  1  0  0  0  0
 40 39  1  0  0  0  0
 41 40  1  0  0  0  0
M  END
>  <MODEL>
6

>  <REMARK>
 VINA RESULT:      -6.8      2.672      9.865
  Name = 
  13 active torsions:
  status: ('A' for Active; 'I' for Inactive)
    1  A    between atoms: C_6  and  C_31
    2  A    between atoms: S_8  and  C_23
    3  A    between atoms: S_8  and  N_24
    4  A    between atoms: C_9  and  C_29
    5  A    between atoms: C_9  and  N_34
    6  A    between atoms: C_13  and  C_36
    7  A    between atoms: C_13  and  C_41
    8  A    between atoms: N_14  and  C_16
    9  A    between atoms: C_18  and  N_24
   10  A    between atoms: C_21  and  C_25
   11  A    between atoms: N_24  and  C_38
   12  A    between atoms: C_25  and  N_27
   13  A    between atoms: C_29  and  C_40
                            x       y       z     vdW  Elec       q    Type
                         _______ _______ _______ _____ _____    ______ ____

>  <TORSDO>
F 13

$$$$
=
 OpenBabel10222420373D

 41 44  0  0  1  0  0  0  0  0999 V2000
  186.6160  178.2620  140.7840 C   0  0  0  0  0  0  0  0  0  0  0  0
  182.8050  179.2130  142.2000 O   0  0  0  0  0  1  0  0  0  0  0  0
  184.3590  178.9510  140.3490 C   0  0  0  0  0  3  0  0  0  0  0  0
  184.9210  178.4020  144.1490 C   0  0  0  0  0  3  0  0  0  0  0  0
  187.4090  177.8210  142.7950 C   0  0  0  0  0  0  0  0  0  0  0  0
  186.3210  178.2230  142.1070 C   0  0  2  0  0  3  0  0  0  0  0  0
  187.3440  177.6440  144.2490 C   0  0  0  0  0  3  0  0  0  0  0  0
  184.0770  178.8950  141.7410 C   0  0  0  0  0  0  0  0  0  0  0  0
  188.4320  177.6010  141.9340 N   0  0  0  0  0  0  0  0  0  0  0  0
  185.0890  178.5140  142.6450 C   0  0  0  0  0  0  0  0  0  0  0  0
  185.6450  178.6280  139.8500 C   0  0  0  0  0  3  0  0  0  0  0  0
  187.9420  177.8580  140.6860 C   0  0  0  0  0  0  0  0  0  0  0  0
  186.1760  177.9020  144.8830 C   0  0  0  0  0  0  0  0  0  0  0  0
  190.1320  175.9950  141.4620 O   0  0  0  0  0  0  0  0  0  0  0  0
  189.7580  177.0850  142.2640 C   0  0  2  0  0  0  0  0  0  0  0  0
  189.8230  175.7200  142.8140 C   0  0  0  0  0  2  0  0  0  0  0  0
  190.8940  178.0560  142.5380 C   0  0  0  0  0  2  0  0  0  0  0  0
  191.8270  178.0030  141.5020 O   0  0  0  0  0  1  0  0  0  0  0  0
  188.7230  177.7360  139.4200 C   0  0  0  0  0  2  0  0  0  0  0  0
  188.2960  176.6580  137.2990 C   0  0  0  0  0  0  0  0  0  0  0  0
  188.7700  175.9740  136.2900 C   0  0  0  0  0  3  0  0  0  0  0  0
  187.8230  177.3350  138.3050 C   0  0  0  0  0  3  0  0  0  0  0  0
  189.5700  174.7970  136.4690 N   0  0  0  0  0  0  0  0  0  0  0  0
  191.1940  174.7960  135.8680 S   0  0  0  0  0  0  0  0  0  0  0  0
  191.4410  173.5230  135.1080 O   0  0  0  0  0  0  0  0  0  0  0  0
  191.3940  175.9710  134.9520 O   0  0  0  0  0  0  0  0  0  0  0  0
  193.3710  175.9950  136.9450 C   0  0  0  0  0  1  0  0  0  0  0  0
  191.6500  175.2370  138.3980 O   0  0  0  0  0  1  0  0  0  0  0  0
  192.3410  174.9200  137.2280 C   0  0  1  0  0  3  0  0  0  0  0  0
  189.0220  173.5570  137.0100 C   0  0  0  0  0  2  0  0  0  0  0  0
  187.6830  173.2490  136.3630 C   0  0  0  0  0  1  0  0  0  0  0  0
  186.1030  177.7420  146.3620 C   0  0  0  0  0  2  0  0  0  0  0  0
  187.1270  178.6360  147.0480 C   0  0  0  0  0  2  0  0  0  0  0  0
  188.1240  177.1470  148.7850 C   0  0  0  0  0  1  0  0  0  0  0  0
  189.4990  177.8220  146.8020 C   0  0  0  0  0  0  0  0  0  0  0  0
  188.2530  177.8400  147.5150 N   0  0  0  0  0  0  0  0  0  0  0  0
  189.6340  178.5050  145.7480 O   0  0  0  0  0  0  0  0  0  0  0  0
  190.5890  177.0300  147.2890 N   0  0  0  0  0  0  0  0  0  0  0  0
  191.3110  176.2930  146.5090 C   0  0  0  0  0  3  0  0  0  0  0  0
  192.4290  175.4910  147.0720 C   0  0  0  0  0  2  0  0  0  0  0  0
  192.7630  175.9940  148.4610 C   0  0  0  0  0  1  0  0  0  0  0  0
  3  8  1  0  0  0  0
  4 13  2  0  0  0  0
  5  7  2  0  0  0  0
  6  1  1  6  0  0  0
  6 10  1  0  0  0  0
  6  5  1  0  0  0  0
  7 13  1  0  0  0  0
  8  2  1  0  0  0  0
  8 10  2  0  0  0  0
  9 15  1  0  0  0  0
  9  5  1  0  0  0  0
 10  4  1  0  0  0  0
 11  3  2  0  0  0  0
 11  1  1  0  0  0  0
 12  1  2  0  0  0  0
 12  9  1  0  0  0  0
 13 32  1  0  0  0  0
 14 15  1  0  0  0  0
 14 16  1  0  0  0  0
 15 17  1  1  0  0  0
 15 16  1  0  0  0  0
 18 17  1  0  0  0  0
 19 12  1  0  0  0  0
 20 22  2  0  0  0  0
 21 23  1  0  0  0  0
 21 20  2  0  0  0  0
 22 19  1  0  0  0  0
 23 30  1  0  0  0  0
 24 23  1  0  0  0  0
 24 29  1  0  0  0  0
 25 24  2  0  0  0  0
 26 24  2  0  0  0  0
 29 27  1  6  0  0  0
 29 28  1  0  0  0  0
 31 30  1  0  0  0  0
 32 33  1  0  0  0  0
 33 36  1  0  0  0  0
 35 38  1  0  0  0  0
 35 36  1  0  0  0  0
 36 34  1  0  0  0  0
 37 35  2  0  0  0  0
 39 40  1  0  0  0  0
 39 38  2  0  0  0  0
 40 41  1  0  0  0  0
M  END
>  <MODEL>
7

>  <REMARK>
 VINA RESULT:      -6.7      2.885      5.363
  Name = 
  13 active torsions:
  status: ('A' for Active; 'I' for Inactive)
    1  A    between atoms: C_6  and  C_31
    2  A    between atoms: S_8  and  C_23
    3  A    between atoms: S_8  and  N_24
    4  A    between atoms: C_9  and  C_29
    5  A    between atoms: C_9  and  N_34
    6  A    between atoms: C_13  and  C_36
    7  A    between atoms: C_13  and  C_41
    8  A    between atoms: N_14  and  C_16
    9  A    between atoms: C_18  and  N_24
   10  A    between atoms: C_21  and  C_25
   11  A    between atoms: N_24  and  C_38
   12  A    between atoms: C_25  and  N_27
   13  A    between atoms: C_29  and  C_40
                            x       y       z     vdW  Elec       q    Type
                         _______ _______ _______ _____ _____    ______ ____

>  <TORSDO>
F 13

$$$$
=
 OpenBabel10222420373D

 41 44  0  0  1  0  0  0  0  0999 V2000
  187.5560  178.3140  140.1890 C   0  0  0  0  0  0  0  0  0  0  0  0
  190.6040  177.1240  137.5940 O   0  0  0  0  0  1  0  0  0  0  0  0
  189.8740  177.8250  139.8040 C   0  0  0  0  0  3  0  0  0  0  0  0
  187.8040  177.3110  136.5620 C   0  0  0  0  0  2  0  0  0  0  0  0
  185.9870  178.1580  138.6460 C   0  0  0  0  0  0  0  0  0  0  0  0
  187.3060  178.0230  138.8870 C   0  0  0  0  0  0  0  0  0  0  0  0
  185.4400  177.8510  137.3200 C   0  0  0  0  0  3  0  0  0  0  0  0
  189.5810  177.5190  138.4470 C   0  0  0  0  0  0  0  0  0  0  0  0
  185.3570  178.5480  139.7800 N   0  0  0  0  0  0  0  0  0  0  0  0
  188.2550  177.6170  137.9790 C   0  0  0  0  0  0  0  0  0  0  0  0
  188.8520  178.2260  140.7000 C   0  0  0  0  0  3  0  0  0  0  0  0
  186.3220  178.6320  140.7420 C   0  0  0  0  0  0  0  0  0  0  0  0
  186.2870  177.4400  136.3480 C   0  0  0  0  0  0  0  0  0  0  0  0
  183.4800  178.3390  141.2380 O   0  0  0  0  0  0  0  0  0  0  0  0
  183.9200  178.7340  139.9640 C   0  0  2  0  0  0  0  0  0  0  0  0
  183.1110  177.5160  140.1490 C   0  0  0  0  0  2  0  0  0  0  0  0
  183.2560  180.0030  139.4580 C   0  0  0  0  0  2  0  0  0  0  0  0
  184.1740  180.7650  138.7350 O   0  0  0  0  0  1  0  0  0  0  0  0
  186.0810  179.0210  142.1630 C   0  0  0  0  0  2  0  0  0  0  0  0
  187.0120  177.3160  143.6020 C   0  0  0  0  0  0  0  0  0  0  0  0
  188.0680  176.8300  144.2000 C   0  0  0  0  0  3  0  0  0  0  0  0
  185.9600  177.8030  143.0090 C   0  0  0  0  0  3  0  0  0  0  0  0
  188.9550  177.6480  144.9760 N   0  0  0  0  0  0  0  0  0  0  0  0
  190.5680  177.9020  144.3990 S   0  0  0  0  0  0  0  0  0  0  0  0
  190.6480  179.2400  143.7190 O   0  0  0  0  0  0  0  0  0  0  0  0
  191.5290  177.8720  145.5550 O   0  0  0  0  0  0  0  0  0  0  0  0
  192.0560  177.1150  142.2760 C   0  0  0  0  0  1  0  0  0  0  0  0
  191.5110  175.5130  143.9440 O   0  0  0  0  0  1  0  0  0  0  0  0
  191.0080  176.6120  143.2480 C   0  0  1  0  0  3  0  0  0  0  0  0
  188.5950  178.1540  146.2960 C   0  0  0  0  0  2  0  0  0  0  0  0
  188.7790  177.0690  147.3430 C   0  0  0  0  0  1  0  0  0  0  0  0
  185.7460  177.1420  134.9920 C   0  0  0  0  0  2  0  0  0  0  0  0
  186.0130  175.6920  134.6160 C   0  0  0  0  0  2  0  0  0  0  0  0
  183.6280  174.9870  134.8320 C   0  0  0  0  0  1  0  0  0  0  0  0
  185.3700  173.9040  136.2730 C   0  0  0  0  0  0  0  0  0  0  0  0
  185.0160  174.8240  135.2280 N   0  0  0  0  0  0  0  0  0  0  0  0
  186.5640  173.8370  136.6780 O   0  0  0  0  0  0  0  0  0  0  0  0
  184.3650  173.0650  136.8550 N   0  0  0  0  0  0  0  0  0  0  0  0
  183.9890  171.9550  136.3070 C   0  0  0  0  0  3  0  0  0  0  0  0
  182.9410  171.1250  136.9570 C   0  0  0  0  0  2  0  0  0  0  0  0
  181.6970  171.1140  136.0930 C   0  0  0  0  0  1  0  0  0  0  0  0
  1 11  1  0  0  0  0
  1 12  2  0  0  0  0
  2  8  1  0  0  0  0
  3 11  2  0  0  0  0
  4 10  1  0  0  0  0
  5  6  2  0  0  0  0
  5  9  1  0  0  0  0
  6  1  1  0  0  0  0
  7  5  1  0  0  0  0
  8  3  1  0  0  0  0
  9 15  1  0  0  0  0
  9 12  1  0  0  0  0
 10  8  2  0  0  0  0
 10  6  1  0  0  0  0
 12 19  1  0  0  0  0
 13  4  1  0  0  0  0
 13  7  2  0  0  0  0
 15 17  1  6  0  0  0
 15 16  1  0  0  0  0
 15 14  1  0  0  0  0
 16 14  1  0  0  0  0
 18 17  1  0  0  0  0
 19 22  1  0  0  0  0
 20 21  2  0  0  0  0
 21 23  1  0  0  0  0
 22 20  2  0  0  0  0
 23 30  1  0  0  0  0
 24 23  1  0  0  0  0
 24 26  2  0  0  0  0
 25 24  2  0  0  0  0
 29 27  1  6  0  0  0
 29 28  1  0  0  0  0
 29 24  1  0  0  0  0
 30 31  1  0  0  0  0
 32 13  1  0  0  0  0
 33 32  1  0  0  0  0
 33 36  1  0  0  0  0
 34 36  1  0  0  0  0
 35 37  2  0  0  0  0
 35 38  1  0  0  0  0
 36 35  1  0  0  0  0
 39 38  2  0  0  0  0
 39 40  1  0  0  0  0
 41 40  1  0  0  0  0
M  END
>  <MODEL>
8

>  <REMARK>
 VINA RESULT:      -6.6      4.165      8.269
  Name = 
  13 active torsions:
  status: ('A' for Active; 'I' for Inactive)
    1  A    between atoms: C_6  and  C_31
    2  A    between atoms: S_8  and  C_23
    3  A    between atoms: S_8  and  N_24
    4  A    between atoms: C_9  and  C_29
    5  A    between atoms: C_9  and  N_34
    6  A    between atoms: C_13  and  C_36
    7  A    between atoms: C_13  and  C_41
    8  A    between atoms: N_14  and  C_16
    9  A    between atoms: C_18  and  N_24
   10  A    between atoms: C_21  and  C_25
   11  A    between atoms: N_24  and  C_38
   12  A    between atoms: C_25  and  N_27
   13  A    between atoms: C_29  and  C_40
                            x       y       z     vdW  Elec       q    Type
                         _______ _______ _______ _____ _____    ______ ____

>  <TORSDO>
F 13

$$$$
=
 OpenBabel10222420373D

 41 44  0  0  1  0  0  0  0  0999 V2000
  182.7700  178.8840  142.8460 C   0  0  0  0  0  0  0  0  0  0  0  0
  185.0480  178.4630  146.3200 O   0  0  0  0  0  1  0  0  0  0  0  0
  182.8840  178.6820  145.2340 C   0  0  0  0  0  3  0  0  0  0  0  0
  186.4360  178.5850  143.6760 C   0  0  0  0  0  3  0  0  0  0  0  0
  184.5330  178.8730  141.5190 C   0  0  0  0  0  0  0  0  0  0  0  0
  184.1250  178.8140  142.8020 C   0  0  2  0  0  3  0  0  0  0  0  0
  185.9570  178.7660  141.1870 C   0  0  0  0  0  3  0  0  0  0  0  0
  184.3010  178.6040  145.1580 C   0  0  0  0  0  0  0  0  0  0  0  0
  183.4550  178.9920  140.7060 N   0  0  0  0  0  0  0  0  0  0  0  0
  184.9380  178.6670  143.9010 C   0  0  0  0  0  0  0  0  0  0  0  0
  182.0950  178.8200  144.0660 C   0  0  0  0  0  3  0  0  0  0  0  0
  182.3600  178.9850  141.5230 C   0  0  0  0  0  0  0  0  0  0  0  0
  186.8480  178.6160  142.1950 C   0  0  0  0  0  0  0  0  0  0  0  0
  184.2570  180.0390  138.7190 O   0  0  0  0  0  0  0  0  0  0  0  0
  183.4570  179.0130  139.2460 C   0  0  2  0  0  0  0  0  0  0  0  0
  182.8570  180.1930  138.5980 C   0  0  0  0  0  2  0  0  0  0  0  0
  183.5570  177.7070  138.4760 C   0  0  0  0  0  2  0  0  0  0  0  0
  184.7440  177.6760  137.7430 O   0  0  0  0  0  1  0  0  0  0  0  0
  180.9460  179.0850  141.0550 C   0  0  0  0  0  2  0  0  0  0  0  0
  179.7570  177.2660  139.9960 C   0  0  0  0  0  0  0  0  0  0  0  0
  179.2080  176.7880  138.9110 C   0  0  0  0  0  3  0  0  0  0  0  0
  180.3080  177.7410  141.0760 C   0  0  0  0  0  3  0  0  0  0  0  0
  179.8860  176.7790  137.6470 N   0  0  0  0  0  0  0  0  0  0  0  0
  180.5770  175.2940  137.0860 S   0  0  0  0  0  0  0  0  0  0  0  0
  181.0300  174.4800  138.2650 O   0  0  0  0  0  0  0  0  0  0  0  0
  179.5480  174.5180  136.3110 O   0  0  0  0  0  0  0  0  0  0  0  0
  183.0240  174.5650  136.1790 C   0  0  0  0  0  1  0  0  0  0  0  0
  181.5400  175.6770  134.6930 O   0  0  0  0  0  1  0  0  0  0  0  0
  181.9650  175.6380  136.0200 C   0  0  1  0  0  3  0  0  0  0  0  0
  180.1350  177.9990  136.8870 C   0  0  0  0  0  2  0  0  0  0  0  0
  179.2330  179.1170  137.3800 C   0  0  0  0  0  1  0  0  0  0  0  0
  188.3000  178.5230  141.8720 C   0  0  0  0  0  2  0  0  0  0  0  0
  188.8240  177.1240  142.1640 C   0  0  0  0  0  2  0  0  0  0  0  0
  191.2500  177.3400  142.7100 C   0  0  0  0  0  1  0  0  0  0  0  0
  189.5950  176.9840  144.5590 C   0  0  0  0  0  0  0  0  0  0  0  0
  189.8790  177.1830  143.1650 N   0  0  0  0  0  0  0  0  0  0  0  0
  188.4120  176.7520  144.9350 O   0  0  0  0  0  0  0  0  0  0  0  0
  190.6570  177.0470  145.5190 N   0  0  0  0  0  0  0  0  0  0  0  0
  190.4730  176.7790  146.7710 C   0  0  0  0  0  3  0  0  0  0  0  0
  191.6120  176.8610  147.7220 C   0  0  0  0  0  2  0  0  0  0  0  0
  192.4790  175.6270  147.5810 C   0  0  0  0  0  1  0  0  0  0  0  0
  1 11  1  0  0  0  0
  4 10  1  0  0  0  0
  6  5  1  6  0  0  0
  6  1  1  0  0  0  0
  6 10  1  0  0  0  0
  7  5  2  0  0  0  0
  7 13  1  0  0  0  0
  8  3  1  0  0  0  0
  8  2  1  0  0  0  0
  9  5  1  0  0  0  0
  9 12  1  0  0  0  0
 10  8  2  0  0  0  0
 11  3  2  0  0  0  0
 12  1  2  0  0  0  0
 13  4  2  0  0  0  0
 14 15  1  0  0  0  0
 15 17  1  6  0  0  0
 15  9  1  0  0  0  0
 16 14  1  0  0  0  0
 16 15  1  0  0  0  0
 18 17  1  0  0  0  0
 19 22  1  0  0  0  0
 19 12  1  0  0  0  0
 20 22  2  0  0  0  0
 21 20  2  0  0  0  0
 23 21  1  0  0  0  0
 24 23  1  0  0  0  0
 24 25  2  0  0  0  0
 26 24  2  0  0  0  0
 28 29  1  0  0  0  0
 29 27  1  6  0  0  0
 29 24  1  0  0  0  0
 30 31  1  0  0  0  0
 30 23  1  0  0  0  0
 32 33  1  0  0  0  0
 32 13  1  0  0  0  0
 33 36  1  0  0  0  0
 34 36  1  0  0  0  0
 35 37  2  0  0  0  0
 35 38  1  0  0  0  0
 36 35  1  0  0  0  0
 38 39  2  0  0  0  0
 39 40  1  0  0  0  0
 41 40  1  0  0  0  0
M  END
>  <MODEL>
9

>  <REMARK>
 VINA RESULT:      -6.5      5.709      9.576
  Name = 
  13 active torsions:
  status: ('A' for Active; 'I' for Inactive)
    1  A    between atoms: C_6  and  C_31
    2  A    between atoms: S_8  and  C_23
    3  A    between atoms: S_8  and  N_24
    4  A    between atoms: C_9  and  C_29
    5  A    between atoms: C_9  and  N_34
    6  A    between atoms: C_13  and  C_36
    7  A    between atoms: C_13  and  C_41
    8  A    between atoms: N_14  and  C_16
    9  A    between atoms: C_18  and  N_24
   10  A    between atoms: C_21  and  C_25
   11  A    between atoms: N_24  and  C_38
   12  A    between atoms: C_25  and  N_27
   13  A    between atoms: C_29  and  C_40
                            x       y       z     vdW  Elec       q    Type
                         _______ _______ _______ _____ _____    ______ ____

>  <TORSDO>
F 13

$$$$
