=
 OpenBabel10222420013D

 36 39  0  0  1  0  0  0  0  0999 V2000
  183.2660  179.1360  145.0260 S   0  0  0  0  0  0  0  0  0  0  0  0
  181.2350  179.2550  143.1460 N   0  0  0  0  0  1  0  0  0  0  0  0
  184.7620  178.5580  144.5240 C   0  0  0  0  0  0  0  0  0  0  0  0
  186.8100  177.8010  143.9040 C   0  0  0  0  0  0  0  0  0  0  0  0
  183.5200  178.4240  142.5810 C   0  0  0  0  0  0  0  0  0  0  0  0
  185.9720  177.7390  142.7330 N   0  0  0  0  0  0  0  0  0  0  0  0
  182.5810  178.9370  143.4770 C   0  0  0  0  0  0  0  0  0  0  0  0
  188.0960  177.4120  143.8970 C   0  0  2  0  0  3  0  0  0  0  0  0
  183.2810  178.1580  141.2740 F   0  0  0  0  0  0  0  0  0  0  0  0
  186.0880  178.3290  145.1330 C   0  0  0  0  0  2  0  0  0  0  0  0
  184.7370  178.2250  143.2190 C   0  0  0  0  0  0  0  0  0  0  0  0
  189.2580  175.5050  142.7190 C   0  0  0  0  0  1  0  0  0  0  0  0
  188.8850  177.6910  141.5640 C   0  0  0  0  0  0  0  0  0  0  0  0
  188.7370  176.9050  142.6620 C   0  0  0  0  0  0  0  0  0  0  0  0
  188.4620  179.1250  141.6030 C   0  0  0  0  0  1  0  0  0  0  0  0
  189.4850  177.2710  140.2740 C   0  0  0  0  0  3  0  0  0  0  0  0
  189.2700  178.5220  137.9910 C   0  0  0  0  0  3  0  0  0  0  0  0
  189.3730  177.9000  139.1340 C   0  0  0  0  0  0  0  0  0  0  0  0
  191.1890  173.8760  137.0840 C   0  0  0  0  0  3  0  0  0  0  0  0
  191.5370  176.4110  137.2870 C   0  0  0  0  0  3  0  0  0  0  0  0
  189.4140  175.4380  136.6410 C   0  0  0  0  0  0  0  0  0  0  0  0
  189.4560  177.7820  136.7100 C   0  0  1  0  0  3  0  0  0  0  0  0
  189.0470  172.9010  136.3890 C   0  0  0  0  0  1  0  0  0  0  0  0
  188.2420  175.8190  136.2710 N   0  0  0  0  0  2  0  0  0  0  0  0
  192.1320  175.0220  137.4370 C   0  0  0  0  0  3  0  0  0  0  0  0
  190.2600  176.5540  136.9380 C   0  0  0  0  0  0  0  0  0  0  0  0
  188.2130  177.2010  136.2990 O   0  0  0  0  0  0  0  0  0  0  0  0
  189.9130  174.0640  136.7200 C   0  0  0  0  0  0  0  0  0  0  0  0
  188.8970  177.4210  145.1620 C   0  0  0  0  0  2  0  0  0  0  0  0
  190.0000  178.4650  145.0860 C   0  0  0  0  0  2  0  0  0  0  0  0
  191.3640  177.7930  145.0730 C   0  0  2  0  0  3  0  0  0  0  0  0
  191.9000  177.7830  143.7220 N   0  0  0  0  0  1  0  0  0  0  0  0
  191.3180  176.3750  145.6490 C   0  0  0  0  0  2  0  0  0  0  0  0
  191.6990  177.1210  147.8850 O   0  0  0  0  0  1  0  0  0  0  0  0
  191.9630  176.2730  146.9940 C   0  0  0  0  0  0  0  0  0  0  0  0
  192.8330  175.2270  147.2710 O   0  0  0  0  0  0  0  0  0  0  0  0
  2  7  1  0  0  0  0
  3  1  1  0  0  0  0
  3 10  1  0  0  0  0
  4 10  1  0  0  0  0
  5 11  1  0  0  0  0
  5  7  2  0  0  0  0
  6 11  1  0  0  0  0
  6  4  2  0  0  0  0
  7  1  1  0  0  0  0
  8  4  1  0  0  0  0
  8 29  1  1  0  0  0
  9  5  1  0  0  0  0
 11  3  2  0  0  0  0
 13 15  1  0  0  0  0
 13 14  2  0  0  0  0
 14 12  1  0  0  0  0
 14  8  1  0  0  0  0
 16 13  1  0  0  0  0
 17 18  2  0  0  0  0
 18 16  2  0  0  0  0
 19 25  1  0  0  0  0
 20 25  2  0  0  0  0
 21 28  1  0  0  0  0
 21 26  2  0  0  0  0
 22 26  1  0  0  0  0
 22 17  1  1  0  0  0
 23 28  1  0  0  0  0
 24 27  1  0  0  0  0
 24 21  1  0  0  0  0
 26 20  1  0  0  0  0
 27 22  1  0  0  0  0
 28 19  2  0  0  0  0
 30 29  1  0  0  0  0
 31 32  1  6  0  0  0
 31 30  1  0  0  0  0
 31 33  1  0  0  0  0
 33 35  1  0  0  0  0
 35 36  2  0  0  0  0
 35 34  1  0  0  0  0
M  END
>  <MODEL>
1

>  <REMARK>
 VINA RESULT:      -8.4      0.000      0.000
  Name = 
  8 active torsions:
  status: ('A' for Active; 'I' for Inactive)
    1  A    between atoms: C_7  and  C_19
    2  A    between atoms: C_9  and  C_16
    3  A    between atoms: C_14  and  C_21
    4  A    between atoms: C_14  and  C_24
    5  A    between atoms: C_15  and  C_26
    6  A    between atoms: C_21  and  C_32
    7  A    between atoms: C_24  and  C_25
    8  A    between atoms: C_25  and  C_26
                            x       y       z     vdW  Elec       q    Type
                         _______ _______ _______ _____ _____    ______ ____

>  <TORSDO>
F 8

$$$$
=
 OpenBabel10222420013D

 36 39  0  0  1  0  0  0  0  0999 V2000
  179.0750  180.9800  138.0180 S   0  0  0  0  0  0  0  0  0  0  0  0
  179.3060  183.6630  137.3660 N   0  0  0  0  0  1  0  0  0  0  0  0
  180.4670  180.1710  138.4990 C   0  0  0  0  0  0  0  0  0  0  0  0
  182.3080  179.0260  139.1720 C   0  0  0  0  0  0  0  0  0  0  0  0
  181.2650  182.3010  138.1000 C   0  0  0  0  0  0  0  0  0  0  0  0
  182.7340  180.3750  138.8970 N   0  0  0  0  0  0  0  0  0  0  0  0
  179.9110  182.4500  137.7980 C   0  0  0  0  0  0  0  0  0  0  0  0
  183.1540  178.0670  139.5830 C   0  0  2  0  0  3  0  0  0  0  0  0
  182.1910  183.2890  138.0260 F   0  0  0  0  0  0  0  0  0  0  0  0
  180.8230  178.8050  138.9340 C   0  0  0  0  0  2  0  0  0  0  0  0
  181.5310  180.9960  138.4910 C   0  0  0  0  0  0  0  0  0  0  0  0
  185.4600  178.2910  138.5790 C   0  0  0  0  0  1  0  0  0  0  0  0
  185.0910  178.6030  141.0330 C   0  0  0  0  0  0  0  0  0  0  0  0
  184.5920  178.3520  139.7950 C   0  0  0  0  0  0  0  0  0  0  0  0
  184.2020  178.5250  142.2330 C   0  0  0  0  0  1  0  0  0  0  0  0
  186.5040  178.9260  141.3460 C   0  0  0  0  0  3  0  0  0  0  0  0
  188.1340  177.4860  142.7930 C   0  0  0  0  0  3  0  0  0  0  0  0
  187.3150  178.2020  142.0720 C   0  0  0  0  0  0  0  0  0  0  0  0
  190.0880  176.8070  147.4630 C   0  0  0  0  0  3  0  0  0  0  0  0
  188.5230  178.0910  145.8870 C   0  0  0  0  0  3  0  0  0  0  0  0
  190.5340  176.9890  145.1060 C   0  0  0  0  0  0  0  0  0  0  0  0
  189.3110  178.1200  143.4530 C   0  0  1  0  0  3  0  0  0  0  0  0
  192.1450  175.7280  146.6700 C   0  0  0  0  0  1  0  0  0  0  0  0
  191.2010  176.8430  144.0160 N   0  0  0  0  0  2  0  0  0  0  0  0
  188.7970  177.6020  147.2980 C   0  0  0  0  0  3  0  0  0  0  0  0
  189.3460  177.7600  144.8950 C   0  0  0  0  0  0  0  0  0  0  0  0
  190.5170  177.4910  143.0050 O   0  0  0  0  0  0  0  0  0  0  0  0
  190.9000  176.5090  146.4390 C   0  0  0  0  0  0  0  0  0  0  0  0
  182.6710  176.6630  139.7760 C   0  0  0  0  0  2  0  0  0  0  0  0
  183.0610  175.7980  138.5870 C   0  0  0  0  0  2  0  0  0  0  0  0
  181.8670  175.5920  137.6690 C   0  0  2  0  0  3  0  0  0  0  0  0
  181.2310  174.3170  137.9600 N   0  0  0  0  0  1  0  0  0  0  0  0
  182.2490  175.6810  136.1900 C   0  0  0  0  0  2  0  0  0  0  0  0
  184.1220  177.0080  135.5300 O   0  0  0  0  0  0  0  0  0  0  0  0
  182.9020  176.9800  135.8360 C   0  0  0  0  0  0  0  0  0  0  0  0
  182.1570  178.1510  135.8200 O   0  0  0  0  0  1  0  0  0  0  0  0
  1  3  1  0  0  0  0
  2  7  1  0  0  0  0
  3 10  1  0  0  0  0
  4  8  1  0  0  0  0
  5 11  1  0  0  0  0
  6  4  2  0  0  0  0
  7  1  1  0  0  0  0
  7  5  2  0  0  0  0
  8 29  1  6  0  0  0
  8 14  1  0  0  0  0
  9  5  1  0  0  0  0
 10  4  1  0  0  0  0
 11  3  2  0  0  0  0
 11  6  1  0  0  0  0
 12 14  1  0  0  0  0
 13 16  1  0  0  0  0
 13 15  1  0  0  0  0
 14 13  2  0  0  0  0
 16 18  2  0  0  0  0
 18 17  2  0  0  0  0
 20 25  2  0  0  0  0
 21 28  1  0  0  0  0
 22 17  1  6  0  0  0
 22 26  1  0  0  0  0
 24 21  1  0  0  0  0
 25 19  1  0  0  0  0
 26 21  2  0  0  0  0
 26 20  1  0  0  0  0
 27 22  1  0  0  0  0
 27 24  1  0  0  0  0
 28 23  1  0  0  0  0
 28 19  2  0  0  0  0
 30 29  1  0  0  0  0
 31 32  1  6  0  0  0
 31 30  1  0  0  0  0
 33 31  1  0  0  0  0
 34 35  2  0  0  0  0
 35 33  1  0  0  0  0
 36 35  1  0  0  0  0
M  END
>  <MODEL>
2

>  <REMARK>
 VINA RESULT:      -8.3      4.492      8.914
  Name = 
  8 active torsions:
  status: ('A' for Active; 'I' for Inactive)
    1  A    between atoms: C_7  and  C_19
    2  A    between atoms: C_9  and  C_16
    3  A    between atoms: C_14  and  C_21
    4  A    between atoms: C_14  and  C_24
    5  A    between atoms: C_15  and  C_26
    6  A    between atoms: C_21  and  C_32
    7  A    between atoms: C_24  and  C_25
    8  A    between atoms: C_25  and  C_26
                            x       y       z     vdW  Elec       q    Type
                         _______ _______ _______ _____ _____    ______ ____

>  <TORSDO>
F 8

$$$$
=
 OpenBabel10222420013D

 36 39  0  0  1  0  0  0  0  0999 V2000
  180.9300  173.7590  137.0700 S   0  0  0  0  0  0  0  0  0  0  0  0
  182.3560  171.5060  136.3190 N   0  0  0  0  0  1  0  0  0  0  0  0
  181.7940  175.0540  137.7050 C   0  0  0  0  0  0  0  0  0  0  0  0
  182.9050  176.8420  138.5540 C   0  0  0  0  0  0  0  0  0  0  0  0
  183.4700  173.5220  137.2800 C   0  0  0  0  0  0  0  0  0  0  0  0
  183.8940  175.8340  138.2690 N   0  0  0  0  0  0  0  0  0  0  0  0
  182.3390  172.8230  136.8570 C   0  0  0  0  0  0  0  0  0  0  0  0
  183.2170  178.0360  139.0840 C   0  0  2  0  0  3  0  0  0  0  0  0
  184.7390  173.0480  137.2370 F   0  0  0  0  0  0  0  0  0  0  0  0
  181.4890  176.4070  138.2130 C   0  0  0  0  0  2  0  0  0  0  0  0
  183.1110  174.7780  137.7520 C   0  0  0  0  0  0  0  0  0  0  0  0
  185.5260  178.5810  138.2200 C   0  0  0  0  0  1  0  0  0  0  0  0
  185.0610  178.4960  140.6760 C   0  0  0  0  0  0  0  0  0  0  0  0
  184.6200  178.3950  139.3950 C   0  0  0  0  0  0  0  0  0  0  0  0
  184.1460  178.1730  141.8130 C   0  0  0  0  0  1  0  0  0  0  0  0
  186.4330  178.8750  141.0900 C   0  0  0  0  0  3  0  0  0  0  0  0
  187.9810  177.5370  142.7130 C   0  0  0  0  0  3  0  0  0  0  0  0
  187.2030  178.2020  141.9040 C   0  0  0  0  0  0  0  0  0  0  0  0
  189.8420  176.7810  147.4100 C   0  0  0  0  0  3  0  0  0  0  0  0
  188.2230  178.0130  145.8450 C   0  0  0  0  0  3  0  0  0  0  0  0
  190.3430  177.1210  145.0820 C   0  0  0  0  0  0  0  0  0  0  0  0
  189.0810  178.2310  143.4440 C   0  0  1  0  0  3  0  0  0  0  0  0
  192.0060  175.9170  146.6370 C   0  0  0  0  0  1  0  0  0  0  0  0
  191.0530  177.0870  144.0100 N   0  0  0  0  0  2  0  0  0  0  0  0
  188.4940  177.4750  147.2390 C   0  0  0  0  0  3  0  0  0  0  0  0
  189.1010  177.8020  144.8670 C   0  0  0  0  0  0  0  0  0  0  0  0
  190.3480  177.7270  143.0080 O   0  0  0  0  0  0  0  0  0  0  0  0
  190.7070  176.6040  146.4010 C   0  0  0  0  0  0  0  0  0  0  0  0
  182.1380  179.0140  139.4360 C   0  0  0  0  0  2  0  0  0  0  0  0
  182.3590  180.3330  138.7120 C   0  0  0  0  0  2  0  0  0  0  0  0
  181.0310  181.0310  138.4690 C   0  0  2  0  0  3  0  0  0  0  0  0
  179.9430  180.2360  139.0130 N   0  0  0  0  0  1  0  0  0  0  0  0
  180.7950  181.3290  136.9860 C   0  0  0  0  0  2  0  0  0  0  0  0
  180.8990  183.6310  137.6140 O   0  0  0  0  0  1  0  0  0  0  0  0
  180.7790  182.7930  136.6820 C   0  0  0  0  0  0  0  0  0  0  0  0
  180.6570  183.2310  135.3710 O   0  0  0  0  0  0  0  0  0  0  0  0
  1  3  1  0  0  0  0
  2  7  1  0  0  0  0
  3 11  2  0  0  0  0
  3 10  1  0  0  0  0
  4  8  1  0  0  0  0
  5 11  1  0  0  0  0
  6  4  2  0  0  0  0
  7  1  1  0  0  0  0
  7  5  2  0  0  0  0
  8 14  1  0  0  0  0
  8 29  1  1  0  0  0
  9  5  1  0  0  0  0
 10  4  1  0  0  0  0
 11  6  1  0  0  0  0
 12 14  1  0  0  0  0
 13 16  1  0  0  0  0
 13 15  1  0  0  0  0
 14 13  2  0  0  0  0
 16 18  2  0  0  0  0
 18 17  2  0  0  0  0
 20 25  2  0  0  0  0
 21 28  1  0  0  0  0
 22 17  1  6  0  0  0
 22 26  1  0  0  0  0
 24 21  1  0  0  0  0
 25 19  1  0  0  0  0
 26 21  2  0  0  0  0
 26 20  1  0  0  0  0
 27 22  1  0  0  0  0
 27 24  1  0  0  0  0
 28 23  1  0  0  0  0
 28 19  2  0  0  0  0
 30 29  1  0  0  0  0
 31 30  1  0  0  0  0
 31 32  1  6  0  0  0
 33 31  1  0  0  0  0
 35 33  1  0  0  0  0
 35 34  1  0  0  0  0
 36 35  2  0  0  0  0
M  END
>  <MODEL>
3

>  <REMARK>
 VINA RESULT:      -7.6      4.983      9.594
  Name = 
  8 active torsions:
  status: ('A' for Active; 'I' for Inactive)
    1  A    between atoms: C_7  and  C_19
    2  A    between atoms: C_9  and  C_16
    3  A    between atoms: C_14  and  C_21
    4  A    between atoms: C_14  and  C_24
    5  A    between atoms: C_15  and  C_26
    6  A    between atoms: C_21  and  C_32
    7  A    between atoms: C_24  and  C_25
    8  A    between atoms: C_25  and  C_26
                            x       y       z     vdW  Elec       q    Type
                         _______ _______ _______ _____ _____    ______ ____

>  <TORSDO>
F 8

$$$$
=
 OpenBabel10222420013D

 36 39  0  0  1  0  0  0  0  0999 V2000
  185.6280  171.8180  135.1890 S   0  0  0  0  0  0  0  0  0  0  0  0
  183.4470  171.5610  136.8770 N   0  0  0  0  0  1  0  0  0  0  0  0
  186.7420  173.0280  135.5330 C   0  0  0  0  0  0  0  0  0  0  0  0
  188.2920  174.6320  135.9530 C   0  0  0  0  0  0  0  0  0  0  0  0
  185.2020  173.3000  137.2320 C   0  0  0  0  0  0  0  0  0  0  0  0
  187.2870  174.7470  136.9780 N   0  0  0  0  0  0  0  0  0  0  0  0
  184.6540  172.2270  136.5270 C   0  0  0  0  0  0  0  0  0  0  0  0
  189.3600  175.4450  135.8900 C   0  0  2  0  0  3  0  0  0  0  0  0
  184.6630  173.8550  138.3450 F   0  0  0  0  0  0  0  0  0  0  0  0
  188.0090  173.5220  134.9550 C   0  0  0  0  0  3  0  0  0  0  0  0
  186.3820  173.7180  136.6310 C   0  0  1  0  0  3  0  0  0  0  0  0
  189.0090  177.8530  136.5640 C   0  0  0  0  0  1  0  0  0  0  0  0
  190.2880  176.2820  138.0300 C   0  0  0  0  0  0  0  0  0  0  0  0
  189.5740  176.5100  136.8970 C   0  0  0  0  0  0  0  0  0  0  0  0
  190.9410  174.9560  138.2540 C   0  0  0  0  0  1  0  0  0  0  0  0
  190.5340  177.2690  139.1090 C   0  0  0  0  0  3  0  0  0  0  0  0
  190.2630  176.8520  141.6740 C   0  0  0  0  0  3  0  0  0  0  0  0
  190.3960  177.0550  140.3920 C   0  0  0  0  0  0  0  0  0  0  0  0
  186.9150  177.4230  145.4890 C   0  0  0  0  0  3  0  0  0  0  0  0
  187.5240  177.7390  143.0160 C   0  0  0  0  0  3  0  0  0  0  0  0
  189.1970  177.6630  144.7670 C   0  0  0  0  0  0  0  0  0  0  0  0
  190.0350  177.9980  142.6010 C   0  0  1  0  0  3  0  0  0  0  0  0
  188.6140  177.3890  147.2600 C   0  0  0  0  0  1  0  0  0  0  0  0
  190.4710  177.7860  144.9000 N   0  0  0  0  0  2  0  0  0  0  0  0
  186.4300  177.5130  144.0450 C   0  0  0  0  0  3  0  0  0  0  0  0
  188.7990  177.7770  143.3960 C   0  0  0  0  0  0  0  0  0  0  0  0
  191.0150  177.9820  143.6450 O   0  0  0  0  0  0  0  0  0  0  0  0
  188.2090  177.4840  145.8320 C   0  0  0  0  0  0  0  0  0  0  0  0
  190.3310  175.3340  134.7550 C   0  0  0  0  0  2  0  0  0  0  0  0
  191.2650  174.1520  134.9680 C   0  0  0  0  0  2  0  0  0  0  0  0
  192.7140  174.6070  134.9100 C   0  0  2  0  0  3  0  0  0  0  0  0
  193.5170  173.8270  135.8380 N   0  0  0  0  0  1  0  0  0  0  0  0
  192.8650  176.1050  135.1910 C   0  0  0  0  0  2  0  0  0  0  0  0
  195.1720  176.4790  135.6800 O   0  0  0  0  0  0  0  0  0  0  0  0
  193.9950  176.4110  136.1210 C   0  0  0  0  0  0  0  0  0  0  0  0
  193.7460  176.6470  137.4660 O   0  0  0  0  0  1  0  0  0  0  0  0
  1  3  1  0  0  0  0
  1  7  1  0  0  0  0
  4  6  2  0  0  0  0
  5  9  1  0  0  0  0
  7  2  1  0  0  0  0
  7  5  2  0  0  0  0
  8 29  1  6  0  0  0
  8  4  1  0  0  0  0
  8 14  1  0  0  0  0
 10  3  2  0  0  0  0
 10  4  1  0  0  0  0
 11  3  1  1  0  0  0
 11  6  1  0  0  0  0
 11  5  1  0  0  0  0
 12 14  1  0  0  0  0
 13 15  1  0  0  0  0
 13 16  1  0  0  0  0
 14 13  2  0  0  0  0
 16 18  2  0  0  0  0
 18 17  2  0  0  0  0
 19 28  1  0  0  0  0
 20 26  2  0  0  0  0
 20 25  1  0  0  0  0
 21 24  1  0  0  0  0
 21 28  2  0  0  0  0
 22 17  1  6  0  0  0
 22 26  1  0  0  0  0
 22 27  1  0  0  0  0
 25 19  2  0  0  0  0
 26 21  1  0  0  0  0
 27 24  1  0  0  0  0
 28 23  1  0  0  0  0
 29 30  1  0  0  0  0
 31 30  1  0  0  0  0
 31 33  1  0  0  0  0
 31 32  1  1  0  0  0
 33 35  1  0  0  0  0
 34 35  2  0  0  0  0
 35 36  1  0  0  0  0
M  END
>  <MODEL>
4

>  <REMARK>
 VINA RESULT:      -7.5      3.650      8.806
  Name = 
  8 active torsions:
  status: ('A' for Active; 'I' for Inactive)
    1  A    between atoms: C_7  and  C_19
    2  A    between atoms: C_9  and  C_16
    3  A    between atoms: C_14  and  C_21
    4  A    between atoms: C_14  and  C_24
    5  A    between atoms: C_15  and  C_26
    6  A    between atoms: C_21  and  C_32
    7  A    between atoms: C_24  and  C_25
    8  A    between atoms: C_25  and  C_26
                            x       y       z     vdW  Elec       q    Type
                         _______ _______ _______ _____ _____    ______ ____

>  <TORSDO>
F 8

$$$$
=
 OpenBabel10222420013D

 36 39  0  0  1  0  0  0  0  0999 V2000
  191.2010  177.8120  143.7080 S   0  0  0  0  0  0  0  0  0  0  0  0
  189.1000  177.9010  145.5120 N   0  0  0  0  0  1  0  0  0  0  0  0
  190.8370  177.4730  142.1030 C   0  0  0  0  0  0  0  0  0  0  0  0
  190.4090  177.0360  139.9160 C   0  0  0  0  0  0  0  0  0  0  0  0
  188.7500  177.4120  143.0890 C   0  0  0  0  0  0  0  0  0  0  0  0
  189.1420  177.0070  140.6020 N   0  0  0  0  0  0  0  0  0  0  0  0
  189.5660  177.7080  144.1820 C   0  0  0  0  0  0  0  0  0  0  0  0
  190.5270  176.8040  138.5990 C   0  0  2  0  0  3  0  0  0  0  0  0
  187.4030  177.2670  143.1420 F   0  0  0  0  0  0  0  0  0  0  0  0
  191.5830  177.3360  140.8350 C   0  0  0  0  0  3  0  0  0  0  0  0
  189.5130  177.2880  141.9360 C   0  0  1  0  0  3  0  0  0  0  0  0
  189.0230  175.0720  137.5440 C   0  0  0  0  0  1  0  0  0  0  0  0
  188.6160  177.5140  137.1880 C   0  0  0  0  0  0  0  0  0  0  0  0
  189.3390  176.5160  137.7610 C   0  0  0  0  0  0  0  0  0  0  0  0
  189.0520  178.9370  137.3320 C   0  0  0  0  0  1  0  0  0  0  0  0
  187.4000  177.3320  136.3600 C   0  0  0  0  0  3  0  0  0  0  0  0
  185.0970  176.4120  137.1800 C   0  0  0  0  0  3  0  0  0  0  0  0
  186.2500  176.8700  136.7750 C   0  0  0  0  0  0  0  0  0  0  0  0
  183.7150  171.5430  136.4920 C   0  0  0  0  0  3  0  0  0  0  0  0
  185.2420  173.5150  135.8860 C   0  0  0  0  0  3  0  0  0  0  0  0
  182.9870  173.8250  136.7180 C   0  0  0  0  0  0  0  0  0  0  0  0
  184.1430  175.8020  136.2090 C   0  0  1  0  0  3  0  0  0  0  0  0
  181.4180  171.8660  137.2960 C   0  0  0  0  0  1  0  0  0  0  0  0
  182.1620  174.7830  136.9540 N   0  0  0  0  0  2  0  0  0  0  0  0
  185.0860  172.0090  136.0120 C   0  0  0  0  0  3  0  0  0  0  0  0
  184.2470  174.3210  136.2500 C   0  0  0  0  0  0  0  0  0  0  0  0
  182.7990  175.9760  136.6720 O   0  0  0  0  0  0  0  0  0  0  0  0
  182.7320  172.3890  136.8330 C   0  0  0  0  0  0  0  0  0  0  0  0
  191.8780  176.7660  137.9530 C   0  0  0  0  0  2  0  0  0  0  0  0
  192.4340  175.3510  137.9660 C   0  0  0  0  0  2  0  0  0  0  0  0
  193.9440  175.3740  137.7890 C   0  0  2  0  0  3  0  0  0  0  0  0
  194.3100  176.3530  136.7790 N   0  0  0  0  0  1  0  0  0  0  0  0
  194.5090  173.9950  137.4370 C   0  0  0  0  0  2  0  0  0  0  0  0
  195.2730  172.1240  138.7100 O   0  0  0  0  0  0  0  0  0  0  0  0
  195.2690  173.3740  138.5660 C   0  0  0  0  0  0  0  0  0  0  0  0
  195.9920  174.1730  139.4410 O   0  0  0  0  0  1  0  0  0  0  0  0
  1  7  1  0  0  0  0
  3  1  1  0  0  0  0
  4  6  2  0  0  0  0
  4 10  1  0  0  0  0
  5  9  1  0  0  0  0
  5  7  2  0  0  0  0
  7  2  1  0  0  0  0
  8 29  1  1  0  0  0
  8  4  1  0  0  0  0
 10  3  2  0  0  0  0
 11  6  1  6  0  0  0
 11  3  1  0  0  0  0
 11  5  1  0  0  0  0
 12 14  1  0  0  0  0
 13 15  1  0  0  0  0
 13 14  2  0  0  0  0
 14  8  1  0  0  0  0
 16 18  2  0  0  0  0
 16 13  1  0  0  0  0
 18 17  2  0  0  0  0
 19 28  1  0  0  0  0
 20 25  1  0  0  0  0
 20 26  2  0  0  0  0
 21 28  2  0  0  0  0
 21 24  1  0  0  0  0
 22 26  1  0  0  0  0
 22 27  1  0  0  0  0
 22 17  1  1  0  0  0
 25 19  2  0  0  0  0
 26 21  1  0  0  0  0
 27 24  1  0  0  0  0
 28 23  1  0  0  0  0
 29 30  1  0  0  0  0
 31 32  1  6  0  0  0
 31 30  1  0  0  0  0
 33 31  1  0  0  0  0
 33 35  1  0  0  0  0
 35 34  2  0  0  0  0
 35 36  1  0  0  0  0
M  END
>  <MODEL>
5

>  <REMARK>
 VINA RESULT:      -7.3      4.436      6.819
  Name = 
  8 active torsions:
  status: ('A' for Active; 'I' for Inactive)
    1  A    between atoms: C_7  and  C_19
    2  A    between atoms: C_9  and  C_16
    3  A    between atoms: C_14  and  C_21
    4  A    between atoms: C_14  and  C_24
    5  A    between atoms: C_15  and  C_26
    6  A    between atoms: C_21  and  C_32
    7  A    between atoms: C_24  and  C_25
    8  A    between atoms: C_25  and  C_26
                            x       y       z     vdW  Elec       q    Type
                         _______ _______ _______ _____ _____    ______ ____

>  <TORSDO>
F 8

$$$$
=
 OpenBabel10222420013D

 36 39  0  0  1  0  0  0  0  0999 V2000
  192.8030  176.9470  139.3670 S   0  0  0  0  0  0  0  0  0  0  0  0
  192.1390  176.0110  136.8460 N   0  0  0  0  0  1  0  0  0  0  0  0
  191.5600  177.1330  140.4830 C   0  0  0  0  0  0  0  0  0  0  0  0
  189.9290  177.3890  142.0400 C   0  0  0  0  0  0  0  0  0  0  0  0
  190.4260  176.3480  138.6300 C   0  0  0  0  0  0  0  0  0  0  0  0
  189.2890  176.9050  140.8430 N   0  0  0  0  0  0  0  0  0  0  0  0
  191.7390  176.3880  138.1570 C   0  0  0  0  0  0  0  0  0  0  0  0
  189.2490  177.6650  143.1650 C   0  0  2  0  0  3  0  0  0  0  0  0
  189.3520  175.9460  137.9070 F   0  0  0  0  0  0  0  0  0  0  0  0
  191.4300  177.5700  141.8880 C   0  0  0  0  0  2  0  0  0  0  0  0
  190.3750  176.7790  139.9480 C   0  0  0  0  0  0  0  0  0  0  0  0
  187.3210  176.2990  144.0560 C   0  0  0  0  0  1  0  0  0  0  0  0
  186.9200  178.2730  142.5740 C   0  0  0  0  0  0  0  0  0  0  0  0
  187.7830  177.4660  143.2440 C   0  0  0  0  0  0  0  0  0  0  0  0
  187.4400  179.3470  141.6730 C   0  0  0  0  0  1  0  0  0  0  0  0
  185.4410  178.1760  142.6100 C   0  0  0  0  0  3  0  0  0  0  0  0
  183.8310  178.3550  140.5610 C   0  0  0  0  0  3  0  0  0  0  0  0
  184.6390  178.2680  141.5820 C   0  0  0  0  0  0  0  0  0  0  0  0
  180.3350  179.9620  137.2010 C   0  0  0  0  0  3  0  0  0  0  0  0
  182.1750  180.5030  138.9060 C   0  0  0  0  0  3  0  0  0  0  0  0
  180.8240  178.4970  139.0450 C   0  0  0  0  0  0  0  0  0  0  0  0
  182.4070  178.7530  140.7580 C   0  0  1  0  0  3  0  0  0  0  0  0
  178.9440  177.9480  137.3730 C   0  0  0  0  0  1  0  0  0  0  0  0
  180.6670  177.4830  139.8210 N   0  0  0  0  0  2  0  0  0  0  0  0
  181.4500  180.9090  137.6350 C   0  0  0  0  0  3  0  0  0  0  0  0
  181.8670  179.3590  139.5130 C   0  0  0  0  0  0  0  0  0  0  0  0
  181.5840  177.5850  140.8500 O   0  0  0  0  0  0  0  0  0  0  0  0
  180.0440  178.8270  137.8510 C   0  0  0  0  0  0  0  0  0  0  0  0
  189.9540  178.2440  144.3540 C   0  0  0  0  0  2  0  0  0  0  0  0
  190.7020  177.1570  145.1090 C   0  0  0  0  0  2  0  0  0  0  0  0
  190.5320  177.3430  146.6090 C   0  0  2  0  0  3  0  0  0  0  0  0
  191.6660  176.7680  147.3130 N   0  0  0  0  0  1  0  0  0  0  0  0
  189.2180  176.7470  147.1220 C   0  0  0  0  0  2  0  0  0  0  0  0
  188.6400  178.2980  148.8440 O   0  0  0  0  0  1  0  0  0  0  0  0
  188.3220  177.7680  147.7480 C   0  0  0  0  0  0  0  0  0  0  0  0
  187.1520  178.1530  147.1080 O   0  0  0  0  0  0  0  0  0  0  0  0
  1  3  1  0  0  0  0
  2  7  1  0  0  0  0
  3 10  1  0  0  0  0
  4  8  1  0  0  0  0
  5 11  1  0  0  0  0
  6  4  2  0  0  0  0
  7  5  2  0  0  0  0
  7  1  1  0  0  0  0
  8 14  1  0  0  0  0
  8 29  1  6  0  0  0
  9  5  1  0  0  0  0
 10  4  1  0  0  0  0
 11  3  2  0  0  0  0
 11  6  1  0  0  0  0
 13 16  1  0  0  0  0
 13 14  2  0  0  0  0
 14 12  1  0  0  0  0
 15 13  1  0  0  0  0
 17 18  2  0  0  0  0
 18 16  2  0  0  0  0
 19 25  2  0  0  0  0
 19 28  1  0  0  0  0
 20 26  2  0  0  0  0
 21 26  1  0  0  0  0
 21 24  1  0  0  0  0
 22 17  1  6  0  0  0
 22 27  1  0  0  0  0
 23 28  1  0  0  0  0
 24 27  1  0  0  0  0
 25 20  1  0  0  0  0
 26 22  1  0  0  0  0
 28 21  2  0  0  0  0
 29 30  1  0  0  0  0
 30 31  1  0  0  0  0
 31 33  1  0  0  0  0
 31 32  1  1  0  0  0
 33 35  1  0  0  0  0
 35 34  1  0  0  0  0
 36 35  2  0  0  0  0
M  END
>  <MODEL>
6

>  <REMARK>
 VINA RESULT:      -7.3      4.089      7.366
  Name = 
  8 active torsions:
  status: ('A' for Active; 'I' for Inactive)
    1  A    between atoms: C_7  and  C_19
    2  A    between atoms: C_9  and  C_16
    3  A    between atoms: C_14  and  C_21
    4  A    between atoms: C_14  and  C_24
    5  A    between atoms: C_15  and  C_26
    6  A    between atoms: C_21  and  C_32
    7  A    between atoms: C_24  and  C_25
    8  A    between atoms: C_25  and  C_26
                            x       y       z     vdW  Elec       q    Type
                         _______ _______ _______ _____ _____    ______ ____

>  <TORSDO>
F 8

$$$$
=
 OpenBabel10222420013D

 36 39  0  0  1  0  0  0  0  0999 V2000
  179.5940  180.6000  137.0310 S   0  0  0  0  0  0  0  0  0  0  0  0
  179.7410  183.3380  136.6360 N   0  0  0  0  0  1  0  0  0  0  0  0
  180.7880  179.8820  137.9710 C   0  0  0  0  0  0  0  0  0  0  0  0
  182.3610  178.8550  139.2440 C   0  0  0  0  0  0  0  0  0  0  0  0
  181.4260  182.1010  138.0010 C   0  0  0  0  0  0  0  0  0  0  0  0
  182.7010  180.2540  139.2110 N   0  0  0  0  0  0  0  0  0  0  0  0
  180.2760  182.1530  137.2120 C   0  0  0  0  0  0  0  0  0  0  0  0
  183.0970  177.9450  139.9030 C   0  0  2  0  0  3  0  0  0  0  0  0
  182.1910  183.1710  138.3290 F   0  0  0  0  0  0  0  0  0  0  0  0
  181.1110  178.5210  138.4470 C   0  0  0  0  0  2  0  0  0  0  0  0
  181.6750  180.7970  138.4060 C   0  0  0  0  0  0  0  0  0  0  0  0
  184.1070  178.6390  142.1110 C   0  0  0  0  0  1  0  0  0  0  0  0
  185.5150  178.4670  140.0510 C   0  0  0  0  0  0  0  0  0  0  0  0
  184.3080  178.3390  140.6600 C   0  0  0  0  0  0  0  0  0  0  0  0
  185.6360  178.2810  138.5730 C   0  0  0  0  0  1  0  0  0  0  0  0
  186.7870  178.8270  140.7230 C   0  0  0  0  0  3  0  0  0  0  0  0
  187.8630  177.5910  142.7570 C   0  0  0  0  0  3  0  0  0  0  0  0
  187.3210  178.2060  141.7410 C   0  0  0  0  0  0  0  0  0  0  0  0
  188.9650  176.8850  147.6940 C   0  0  0  0  0  3  0  0  0  0  0  0
  187.5960  178.0830  145.8840 C   0  0  0  0  0  3  0  0  0  0  0  0
  189.8240  177.2240  145.4730 C   0  0  0  0  0  0  0  0  0  0  0  0
  188.8210  178.3060  143.6490 C   0  0  1  0  0  3  0  0  0  0  0  0
  191.2370  176.0540  147.2810 C   0  0  0  0  0  1  0  0  0  0  0  0
  190.6970  177.1970  144.5280 N   0  0  0  0  0  2  0  0  0  0  0  0
  187.6510  177.5560  147.3070 C   0  0  0  0  0  3  0  0  0  0  0  0
  188.6220  177.8830  145.0590 C   0  0  0  0  0  0  0  0  0  0  0  0
  190.1500  177.8220  143.4230 O   0  0  0  0  0  0  0  0  0  0  0  0
  189.9820  176.7190  146.8370 C   0  0  0  0  0  0  0  0  0  0  0  0
  182.7420  176.4910  139.8350 C   0  0  0  0  0  2  0  0  0  0  0  0
  183.2210  175.8880  138.5240 C   0  0  0  0  0  2  0  0  0  0  0  0
  182.3180  174.7360  138.1110 C   0  0  2  0  0  3  0  0  0  0  0  0
  182.3680  174.5590  136.6690 N   0  0  0  0  0  1  0  0  0  0  0  0
  180.8750  174.9330  138.5830 C   0  0  0  0  0  2  0  0  0  0  0  0
  179.0050  174.3500  137.2150 O   0  0  0  0  0  0  0  0  0  0  0  0
  179.9260  173.9500  137.9740 C   0  0  0  0  0  0  0  0  0  0  0  0
  180.0740  172.5930  138.2250 O   0  0  0  0  0  1  0  0  0  0  0  0
  1  7  1  0  0  0  0
  1  3  1  0  0  0  0
  2  7  1  0  0  0  0
  3 11  2  0  0  0  0
  3 10  1  0  0  0  0
  4  8  1  0  0  0  0
  5  9  1  0  0  0  0
  5 11  1  0  0  0  0
  6  4  2  0  0  0  0
  7  5  2  0  0  0  0
  8 29  1  6  0  0  0
  8 14  1  0  0  0  0
 10  4  1  0  0  0  0
 11  6  1  0  0  0  0
 13 14  2  0  0  0  0
 13 16  1  0  0  0  0
 14 12  1  0  0  0  0
 15 13  1  0  0  0  0
 16 18  2  0  0  0  0
 18 17  2  0  0  0  0
 20 25  2  0  0  0  0
 21 28  1  0  0  0  0
 22 17  1  6  0  0  0
 22 26  1  0  0  0  0
 24 21  1  0  0  0  0
 25 19  1  0  0  0  0
 26 21  2  0  0  0  0
 26 20  1  0  0  0  0
 27 22  1  0  0  0  0
 27 24  1  0  0  0  0
 28 23  1  0  0  0  0
 28 19  2  0  0  0  0
 30 29  1  0  0  0  0
 31 32  1  6  0  0  0
 31 30  1  0  0  0  0
 31 33  1  0  0  0  0
 34 35  2  0  0  0  0
 35 36  1  0  0  0  0
 35 33  1  0  0  0  0
M  END
>  <MODEL>
7

>  <REMARK>
 VINA RESULT:      -7.2      4.862      9.114
  Name = 
  8 active torsions:
  status: ('A' for Active; 'I' for Inactive)
    1  A    between atoms: C_7  and  C_19
    2  A    between atoms: C_9  and  C_16
    3  A    between atoms: C_14  and  C_21
    4  A    between atoms: C_14  and  C_24
    5  A    between atoms: C_15  and  C_26
    6  A    between atoms: C_21  and  C_32
    7  A    between atoms: C_24  and  C_25
    8  A    between atoms: C_25  and  C_26
                            x       y       z     vdW  Elec       q    Type
                         _______ _______ _______ _____ _____    ______ ____

>  <TORSDO>
F 8

$$$$
=
 OpenBabel10222420013D

 36 39  0  0  1  0  0  0  0  0999 V2000
  181.4590  171.7780  136.2460 S   0  0  0  0  0  0  0  0  0  0  0  0
  183.5830  170.0190  135.9820 N   0  0  0  0  0  1  0  0  0  0  0  0
  181.7670  173.2740  136.9470 C   0  0  0  0  0  0  0  0  0  0  0  0
  182.1210  175.3170  137.8700 C   0  0  0  0  0  0  0  0  0  0  0  0
  183.8530  172.2830  136.9980 C   0  0  0  0  0  0  0  0  0  0  0  0
  183.3890  174.6320  137.8750 N   0  0  0  0  0  0  0  0  0  0  0  0
  183.0830  171.2820  136.4030 C   0  0  0  0  0  0  0  0  0  0  0  0
  181.9650  176.5570  138.3620 C   0  0  2  0  0  3  0  0  0  0  0  0
  185.1800  172.1920  137.2560 F   0  0  0  0  0  0  0  0  0  0  0  0
  180.9940  174.4890  137.2750 C   0  0  0  0  0  3  0  0  0  0  0  0
  183.0650  173.3890  137.2880 C   0  0  1  0  0  3  0  0  0  0  0  0
  183.1080  177.4810  140.4140 C   0  0  0  0  0  1  0  0  0  0  0  0
  184.0690  177.8470  138.1340 C   0  0  0  0  0  0  0  0  0  0  0  0
  183.1090  177.3080  138.9290 C   0  0  0  0  0  0  0  0  0  0  0  0
  183.9530  177.7550  136.6470 C   0  0  0  0  0  1  0  0  0  0  0  0
  185.2640  178.5880  138.6050 C   0  0  0  0  0  3  0  0  0  0  0  0
  187.7350  177.7450  138.5240 C   0  0  0  0  0  3  0  0  0  0  0  0
  186.4990  178.1610  138.5630 C   0  0  0  0  0  0  0  0  0  0  0  0
  188.5470  176.8750  143.4920 C   0  0  0  0  0  3  0  0  0  0  0  0
  187.4290  178.2610  141.6440 C   0  0  0  0  0  3  0  0  0  0  0  0
  189.5240  177.0920  141.3050 C   0  0  0  0  0  0  0  0  0  0  0  0
  188.7530  178.3120  139.4550 C   0  0  1  0  0  3  0  0  0  0  0  0
  190.6900  175.7280  143.1520 C   0  0  0  0  0  1  0  0  0  0  0  0
  190.4170  176.9440  140.3900 N   0  0  0  0  0  2  0  0  0  0  0  0
  187.3570  177.7280  143.0640 C   0  0  0  0  0  3  0  0  0  0  0  0
  188.4450  177.9190  140.8540 C   0  0  0  0  0  0  0  0  0  0  0  0
  190.0050  177.6430  139.2720 O   0  0  0  0  0  0  0  0  0  0  0  0
  189.5590  176.5660  142.6700 C   0  0  0  0  0  0  0  0  0  0  0  0
  180.6070  177.1890  138.4050 C   0  0  0  0  0  2  0  0  0  0  0  0
  180.6310  178.5490  137.7260 C   0  0  0  0  0  2  0  0  0  0  0  0
  179.8780  179.5710  138.5630 C   0  0  2  0  0  3  0  0  0  0  0  0
  179.3910  180.6460  137.7140 N   0  0  0  0  0  1  0  0  0  0  0  0
  180.7310  180.1270  139.7070 C   0  0  0  0  0  2  0  0  0  0  0  0
  179.9810  178.8730  141.5960 O   0  0  0  0  0  0  0  0  0  0  0  0
  180.0670  179.9990  141.0410 C   0  0  0  0  0  0  0  0  0  0  0  0
  179.5690  181.1260  141.6810 O   0  0  0  0  0  1  0  0  0  0  0  0
  1  7  1  0  0  0  0
  1  3  1  0  0  0  0
  2  7  1  0  0  0  0
  3 10  2  0  0  0  0
  4  6  2  0  0  0  0
  4  8  1  0  0  0  0
  5  9  1  0  0  0  0
  5 11  1  0  0  0  0
  7  5  2  0  0  0  0
  8 29  1  1  0  0  0
  8 14  1  0  0  0  0
 10  4  1  0  0  0  0
 11  3  1  6  0  0  0
 11  6  1  0  0  0  0
 13 16  1  0  0  0  0
 13 14  2  0  0  0  0
 14 12  1  0  0  0  0
 15 13  1  0  0  0  0
 17 18  2  0  0  0  0
 18 16  2  0  0  0  0
 20 25  2  0  0  0  0
 21 28  1  0  0  0  0
 22 17  1  6  0  0  0
 22 26  1  0  0  0  0
 24 21  1  0  0  0  0
 25 19  1  0  0  0  0
 26 21  2  0  0  0  0
 26 20  1  0  0  0  0
 27 22  1  0  0  0  0
 27 24  1  0  0  0  0
 28 23  1  0  0  0  0
 28 19  2  0  0  0  0
 30 29  1  0  0  0  0
 30 31  1  0  0  0  0
 31 32  1  6  0  0  0
 31 33  1  0  0  0  0
 33 35  1  0  0  0  0
 35 34  2  0  0  0  0
 35 36  1  0  0  0  0
M  END
>  <MODEL>
8

>  <REMARK>
 VINA RESULT:      -6.9      5.389      8.981
  Name = 
  8 active torsions:
  status: ('A' for Active; 'I' for Inactive)
    1  A    between atoms: C_7  and  C_19
    2  A    between atoms: C_9  and  C_16
    3  A    between atoms: C_14  and  C_21
    4  A    between atoms: C_14  and  C_24
    5  A    between atoms: C_15  and  C_26
    6  A    between atoms: C_21  and  C_32
    7  A    between atoms: C_24  and  C_25
    8  A    between atoms: C_25  and  C_26
                            x       y       z     vdW  Elec       q    Type
                         _______ _______ _______ _____ _____    ______ ____

>  <TORSDO>
F 8

$$$$
=
 OpenBabel10222420013D

 36 39  0  0  1  0  0  0  0  0999 V2000
  185.2970  178.9800  145.7940 S   0  0  0  0  0  0  0  0  0  0  0  0
  187.8300  177.8710  145.9650 N   0  0  0  0  0  1  0  0  0  0  0  0
  184.4570  178.7870  144.3510 C   0  0  0  0  0  0  0  0  0  0  0  0
  183.2630  178.5470  142.4350 C   0  0  0  0  0  0  0  0  0  0  0  0
  186.4360  177.6850  143.9030 C   0  0  0  0  0  0  0  0  0  0  0  0
  184.5250  177.8840  142.2250 N   0  0  0  0  0  0  0  0  0  0  0  0
  186.6480  178.1170  145.2130 C   0  0  0  0  0  0  0  0  0  0  0  0
  182.3110  178.6110  141.4900 C   0  0  2  0  0  3  0  0  0  0  0  0
  187.3230  176.9710  143.1670 F   0  0  0  0  0  0  0  0  0  0  0  0
  183.1360  179.1730  143.8140 C   0  0  0  0  0  2  0  0  0  0  0  0
  185.1840  178.0880  143.4590 C   0  0  0  0  0  0  0  0  0  0  0  0
  182.0250  176.5670  140.0350 C   0  0  0  0  0  1  0  0  0  0  0  0
  183.1230  178.6320  139.1480 C   0  0  0  0  0  0  0  0  0  0  0  0
  182.5020  177.9780  140.1640 C   0  0  0  0  0  0  0  0  0  0  0  0
  183.6970  179.9950  139.3700 C   0  0  0  0  0  1  0  0  0  0  0  0
  183.3370  178.0990  137.7810 C   0  0  0  0  0  3  0  0  0  0  0  0
  184.9800  176.1820  137.1110 C   0  0  0  0  0  3  0  0  0  0  0  0
  184.1620  177.1400  137.4510 C   0  0  0  0  0  0  0  0  0  0  0  0
  189.7180  176.6130  135.2510 C   0  0  0  0  0  3  0  0  0  0  0  0
  187.4670  177.6960  135.8390 C   0  0  0  0  0  3  0  0  0  0  0  0
  187.6690  175.3530  135.2560 C   0  0  0  0  0  0  0  0  0  0  0  0
  185.4860  176.0820  135.7110 C   0  0  1  0  0  3  0  0  0  0  0  0
  189.9070  174.2490  134.6220 C   0  0  0  0  0  1  0  0  0  0  0  0
  186.9130  174.3280  135.0750 N   0  0  0  0  0  2  0  0  0  0  0  0
  188.9690  177.8660  135.6950 C   0  0  0  0  0  3  0  0  0  0  0  0
  186.9100  176.5020  135.6490 C   0  0  0  0  0  0  0  0  0  0  0  0
  185.6100  174.7060  135.3360 O   0  0  0  0  0  0  0  0  0  0  0  0
  189.1160  175.4320  135.0530 C   0  0  0  0  0  0  0  0  0  0  0  0
  181.0520  179.3840  141.7340 C   0  0  0  0  0  2  0  0  0  0  0  0
  180.1930  179.4110  140.4800 C   0  0  0  0  0  2  0  0  0  0  0  0
  180.0350  180.8380  139.9780 C   0  0  2  0  0  3  0  0  0  0  0  0
  179.0780  181.5530  140.8060 N   0  0  0  0  0  1  0  0  0  0  0  0
  179.6250  180.8940  138.5040 C   0  0  0  0  0  2  0  0  0  0  0  0
  181.2630  182.5050  137.8540 O   0  0  0  0  0  1  0  0  0  0  0  0
  180.7180  181.3960  137.6160 C   0  0  0  0  0  0  0  0  0  0  0  0
  181.1510  180.6290  136.5430 O   0  0  0  0  0  0  0  0  0  0  0  0
  3  1  1  0  0  0  0
  4 10  1  0  0  0  0
  5  7  2  0  0  0  0
  6  4  2  0  0  0  0
  6 11  1  0  0  0  0
  7  1  1  0  0  0  0
  7  2  1  0  0  0  0
  8 29  1  6  0  0  0
  8  4  1  0  0  0  0
  9  5  1  0  0  0  0
 10  3  1  0  0  0  0
 11  5  1  0  0  0  0
 11  3  2  0  0  0  0
 12 14  1  0  0  0  0
 13 15  1  0  0  0  0
 13 14  2  0  0  0  0
 14  8  1  0  0  0  0
 16 13  1  0  0  0  0
 17 18  2  0  0  0  0
 18 16  2  0  0  0  0
 19 25  1  0  0  0  0
 21 26  2  0  0  0  0
 22 17  1  1  0  0  0
 23 28  1  0  0  0  0
 24 21  1  0  0  0  0
 24 27  1  0  0  0  0
 25 20  2  0  0  0  0
 26 22  1  0  0  0  0
 26 20  1  0  0  0  0
 27 22  1  0  0  0  0
 28 19  2  0  0  0  0
 28 21  1  0  0  0  0
 30 29  1  0  0  0  0
 31 30  1  0  0  0  0
 31 32  1  1  0  0  0
 33 31  1  0  0  0  0
 35 34  1  0  0  0  0
 35 33  1  0  0  0  0
 36 35  2  0  0  0  0
M  END
>  <MODEL>
9

>  <REMARK>
 VINA RESULT:      -6.7      4.445      7.623
  Name = 
  8 active torsions:
  status: ('A' for Active; 'I' for Inactive)
    1  A    between atoms: C_7  and  C_19
    2  A    between atoms: C_9  and  C_16
    3  A    between atoms: C_14  and  C_21
    4  A    between atoms: C_14  and  C_24
    5  A    between atoms: C_15  and  C_26
    6  A    between atoms: C_21  and  C_32
    7  A    between atoms: C_24  and  C_25
    8  A    between atoms: C_25  and  C_26
                            x       y       z     vdW  Elec       q    Type
                         _______ _______ _______ _____ _____    ______ ____

>  <TORSDO>
F 8

$$$$
