=
 OpenBabel10222420383D

 42 46  0  0  1  0  0  0  0  0999 V2000
  189.4860  176.8300  144.0180 C   0  0  1  0  0  3  0  0  0  0  0  0
  185.9970  178.4810  141.3970 O   0  0  0  0  0  0  0  0  0  0  0  0
  182.5850  178.7890  142.9610 C   0  0  0  0  0  0  0  0  0  0  0  0
  185.0730  178.5580  142.4550 C   0  0  0  0  0  0  0  0  0  0  0  0
  185.5590  178.5110  143.6730 C   0  0  0  0  0  3  0  0  0  0  0  0
  188.4110  177.4290  146.1120 C   0  0  0  0  0  0  0  0  0  0  0  0
  182.6690  178.9160  144.3930 N   0  0  0  0  0  2  0  0  0  0  0  0
  189.5000  177.1990  145.4420 N   0  0  0  0  0  0  0  0  0  0  0  0
  183.7270  178.6600  145.3270 C   0  0  0  0  0  3  0  0  0  0  0  0
  187.9970  177.4450  142.4370 C   0  0  0  0  0  2  0  0  0  0  0  0
  187.1530  177.3620  145.4710 N   0  0  0  0  0  2  0  0  0  0  0  0
  188.4200  177.9150  147.4990 C   0  0  0  0  0  3  0  0  0  0  0  0
  183.6410  178.6310  142.1470 C   0  0  0  0  0  3  0  0  0  0  0  0
  184.9970  178.4440  145.0090 C   0  0  0  0  0  0  0  0  0  0  0  0
  187.4240  178.5850  141.5760 C   0  0  0  0  0  2  0  0  0  0  0  0
  186.1150  178.6000  147.2220 C   0  0  0  0  0  3  0  0  0  0  0  0
  189.0600  177.9190  143.2280 O   0  0  0  0  0  0  0  0  0  0  0  0
  187.3260  178.4330  147.9980 N   0  0  0  0  0  0  0  0  0  0  0  0
  186.0330  178.0840  145.9880 C   0  0  0  0  0  0  0  0  0  0  0  0
  180.2170  178.4170  143.0910 F   0  0  0  0  0  0  0  0  0  0  0  0
  181.2750  178.8580  142.3740 N   0  0  0  0  0  0  0  0  0  0  0  0
  180.5110  178.0150  140.2140 C   0  0  0  0  0  2  0  0  0  0  0  0
  180.1130  180.3890  140.8540 C   0  0  0  0  0  2  0  0  0  0  0  0
  179.7560  179.6360  138.4720 C   0  0  0  0  0  0  0  0  0  0  0  0
  179.1870  179.8110  137.3630 O   0  0  0  0  0  0  0  0  0  0  0  0
  179.8040  180.6930  139.4570 N   0  0  0  0  0  0  0  0  0  0  0  0
  179.3870  182.0350  139.1730 C   0  0  0  0  0  3  0  0  0  0  0  0
  181.0730  179.2090  140.9720 C   0  0  1  0  0  3  0  0  0  0  0  0
  180.4460  178.3290  138.7250 C   0  0  0  0  0  2  0  0  0  0  0  0
  179.0510  182.3940  138.0130 O   0  0  0  0  0  0  0  0  0  0  0  0
  190.8920  176.4090  143.6100 C   0  0  0  0  0  2  0  0  0  0  0  0
  191.6480  177.5380  142.9280 C   0  0  0  0  0  2  0  0  0  0  0  0
  192.2110  177.0690  141.6010 C   0  0  0  0  0  2  0  0  0  0  0  0
  191.2480  177.4260  140.4850 C   0  0  0  0  0  2  0  0  0  0  0  0
  190.4510  176.3200  140.1750 O   0  0  0  0  0  0  0  0  0  0  0  0
  190.4040  176.6700  136.5830 C   0  0  0  0  0  3  0  0  0  0  0  0
  189.8150  176.6510  138.9750 C   0  0  2  0  0  3  0  0  0  0  0  0
  189.1480  178.5880  137.5190 C   0  0  0  0  0  0  0  0  0  0  0  0
  188.6770  179.7010  137.3400 O   0  0  0  0  0  0  0  0  0  0  0  0
  190.6590  176.2020  137.8110 C   0  0  0  0  0  3  0  0  0  0  0  0
  189.5530  178.1620  138.9110 C   0  0  0  0  0  2  0  0  0  0  0  0
  189.2810  177.6440  136.3520 C   0  0  0  0  0  2  0  0  0  0  0  0
  1 31  1  6  0  0  0
  1  8  1  0  0  0  0
  2 15  1  0  0  0  0
  2  4  1  0  0  0  0
  3  7  1  0  0  0  0
  4  5  2  0  0  0  0
  5 14  1  0  0  0  0
  6 12  1  0  0  0  0
  7  9  1  0  0  0  0
  8  6  2  0  0  0  0
 10 17  1  0  0  0  0
 11 19  1  0  0  0  0
 11  6  1  0  0  0  0
 12 18  2  0  0  0  0
 13  4  1  0  0  0  0
 13  3  2  0  0  0  0
 14  9  2  0  0  0  0
 14 19  1  0  0  0  0
 15 10  1  0  0  0  0
 16 18  1  0  0  0  0
 17  1  1  0  0  0  0
 19 16  2  0  0  0  0
 21  3  1  0  0  0  0
 21 20  1  0  0  0  0
 22 28  1  0  0  0  0
 23 28  1  0  0  0  0
 24 29  1  0  0  0  0
 24 26  1  0  0  0  0
 25 24  2  0  0  0  0
 26 23  1  0  0  0  0
 27 26  1  0  0  0  0
 28 21  1  1  0  0  0
 29 22  1  0  0  0  0
 30 27  2  0  0  0  0
 32 31  1  0  0  0  0
 33 32  1  0  0  0  0
 34 33  1  0  0  0  0
 35 34  1  0  0  0  0
 36 40  2  0  0  0  0
 37 35  1  1  0  0  0
 38 41  1  0  0  0  0
 39 38  2  0  0  0  0
 40 37  1  0  0  0  0
 41 37  1  0  0  0  0
 42 36  1  0  0  0  0
 42 38  1  0  0  0  0
M  END
>  <MODEL>
1

>  <REMARK>
 VINA RESULT:      -9.7      0.000      0.000
  Name = 
  8 active torsions:
  status: ('A' for Active; 'I' for Inactive)
    1  A    between atoms: C_2  and  C_20
    2  A    between atoms: C_4  and  O_33
    3  A    between atoms: C_5  and  N_27
    4  A    between atoms: C_12  and  O_33
    5  A    between atoms: C_12  and  C_37
    6  A    between atoms: C_20  and  C_24
    7  A    between atoms: C_24  and  C_37
    8  A    between atoms: N_27  and  C_34
                            x       y       z     vdW  Elec       q    Type
                         _______ _______ _______ _____ _____    ______ ____

>  <TORSDO>
F 8

$$$$
=
 OpenBabel10222420383D

 42 46  0  0  1  0  0  0  0  0999 V2000
  183.9320  178.5150  143.0190 C   0  0  1  0  0  3  0  0  0  0  0  0
  187.9390  178.3040  140.6370 O   0  0  0  0  0  0  0  0  0  0  0  0
  187.8300  177.0970  137.0710 C   0  0  0  0  0  0  0  0  0  0  0  0
  187.3340  177.9960  139.4040 C   0  0  0  0  0  0  0  0  0  0  0  0
  186.0450  178.2220  139.3020 C   0  0  0  0  0  3  0  0  0  0  0  0
  182.5620  178.6450  141.0180 C   0  0  0  0  0  0  0  0  0  0  0  0
  186.5330  177.3050  136.4820 N   0  0  0  0  0  0  0  0  0  0  0  0
  182.7220  178.9060  142.2800 N   0  0  0  0  0  0  0  0  0  0  0  0
  185.2480  177.5920  137.0480 C   0  0  0  0  0  3  0  0  0  0  0  0
  186.0400  178.3270  142.2340 C   0  0  0  0  0  2  0  0  0  0  0  0
  183.5840  177.9910  140.2910 N   0  0  0  0  0  2  0  0  0  0  0  0
  181.4140  179.1360  140.2440 C   0  0  0  0  0  3  0  0  0  0  0  0
  188.1480  177.4020  138.3400 C   0  0  0  0  0  2  0  0  0  0  0  0
  185.0260  177.9610  138.3040 C   0  0  0  0  0  0  0  0  0  0  0  0
  187.2830  179.0480  141.6830 C   0  0  0  0  0  2  0  0  0  0  0  0
  182.6540  178.6940  138.2130 C   0  0  0  0  0  3  0  0  0  0  0  0
  185.0460  179.2610  142.5770 O   0  0  0  0  0  0  0  0  0  0  0  0
  181.4760  179.1230  138.9370 N   0  0  0  0  0  0  0  0  0  0  0  0
  183.6840  178.1480  138.8750 C   0  0  0  0  0  0  0  0  0  0  0  0
  188.7520  176.7120  134.8880 F   0  0  0  0  0  0  0  0  0  0  0  0
  188.8520  176.5430  136.2250 N   0  0  0  0  0  0  0  0  0  0  0  0
  190.0730  174.4720  135.7960 C   0  0  0  0  0  2  0  0  0  0  0  0
  191.2030  176.3980  136.9010 C   0  0  0  0  0  2  0  0  0  0  0  0
  192.2960  174.1240  136.8770 C   0  0  0  0  0  0  0  0  0  0  0  0
  193.3490  173.4360  136.9370 O   0  0  0  0  0  0  0  0  0  0  0  0
  192.2840  175.5030  137.3120 N   0  0  0  0  0  0  0  0  0  0  0  0
  193.3870  176.1070  138.0000 C   0  0  0  0  0  3  0  0  0  0  0  0
  189.8840  175.6490  136.7430 C   0  0  1  0  0  3  0  0  0  0  0  0
  191.0350  173.4630  136.4090 C   0  0  0  0  0  2  0  0  0  0  0  0
  194.3930  175.4380  138.3570 O   0  0  0  0  0  0  0  0  0  0  0  0
  183.6970  178.7600  144.5040 C   0  0  0  0  0  2  0  0  0  0  0  0
  184.9460  179.2800  145.1990 C   0  0  0  0  0  2  0  0  0  0  0  0
  185.3200  178.3740  146.3560 C   0  0  0  0  0  2  0  0  0  0  0  0
  186.5110  177.5190  145.9680 C   0  0  0  0  0  2  0  0  0  0  0  0
  187.4460  177.5120  147.0070 O   0  0  0  0  0  0  0  0  0  0  0  0
  189.7140  177.2380  144.2130 C   0  0  0  0  0  3  0  0  0  0  0  0
  188.6800  177.7390  146.3920 C   0  0  2  0  0  3  0  0  0  0  0  0
  191.0510  176.9130  146.2720 C   0  0  0  0  0  0  0  0  0  0  0  0
  192.0900  176.5180  146.7770 O   0  0  0  0  0  0  0  0  0  0  0  0
  188.5930  177.3870  144.9310 C   0  0  0  0  0  3  0  0  0  0  0  0
  189.7800  176.9260  147.0880 C   0  0  0  0  0  2  0  0  0  0  0  0
  191.0640  177.4190  144.8520 C   0  0  0  0  0  2  0  0  0  0  0  0
  1 31  1  1  0  0  0
  2 15  1  0  0  0  0
  3 13  1  0  0  0  0
  4  2  1  0  0  0  0
  5  4  2  0  0  0  0
  6  8  2  0  0  0  0
  7  9  1  0  0  0  0
  7  3  2  0  0  0  0
  8  1  1  0  0  0  0
  9 14  2  0  0  0  0
 10 17  1  0  0  0  0
 11  6  1  0  0  0  0
 12  6  1  0  0  0  0
 13  4  1  0  0  0  0
 14 19  1  0  0  0  0
 14  5  1  0  0  0  0
 15 10  1  0  0  0  0
 16 19  2  0  0  0  0
 16 18  1  0  0  0  0
 17  1  1  0  0  0  0
 18 12  2  0  0  0  0
 19 11  1  0  0  0  0
 20 21  1  0  0  0  0
 21  3  1  0  0  0  0
 22 29  1  0  0  0  0
 22 28  1  0  0  0  0
 23 26  1  0  0  0  0
 24 25  2  0  0  0  0
 24 26  1  0  0  0  0
 26 27  1  0  0  0  0
 27 30  2  0  0  0  0
 28 21  1  6  0  0  0
 28 23  1  0  0  0  0
 29 24  1  0  0  0  0
 31 32  1  0  0  0  0
 32 33  1  0  0  0  0
 34 33  1  0  0  0  0
 34 35  1  0  0  0  0
 36 42  1  0  0  0  0
 36 40  2  0  0  0  0
 37 35  1  1  0  0  0
 37 41  1  0  0  0  0
 38 39  2  0  0  0  0
 38 41  1  0  0  0  0
 40 37  1  0  0  0  0
 42 38  1  0  0  0  0
M  END
>  <MODEL>
2

>  <REMARK>
 VINA RESULT:      -9.1      3.798      9.302
  Name = 
  8 active torsions:
  status: ('A' for Active; 'I' for Inactive)
    1  A    between atoms: C_2  and  C_20
    2  A    between atoms: C_4  and  O_33
    3  A    between atoms: C_5  and  N_27
    4  A    between atoms: C_12  and  O_33
    5  A    between atoms: C_12  and  C_37
    6  A    between atoms: C_20  and  C_24
    7  A    between atoms: C_24  and  C_37
    8  A    between atoms: N_27  and  C_34
                            x       y       z     vdW  Elec       q    Type
                         _______ _______ _______ _____ _____    ______ ____

>  <TORSDO>
F 8

$$$$
=
 OpenBabel10222420383D

 42 46  0  0  1  0  0  0  0  0999 V2000
  189.3370  177.5260  139.4710 C   0  0  1  0  0  3  0  0  0  0  0  0
  185.2950  179.4210  140.8270 O   0  0  0  0  0  0  0  0  0  0  0  0
  182.4380  179.4690  138.3730 C   0  0  0  0  0  0  0  0  0  0  0  0
  184.5820  179.0270  139.6790 C   0  0  0  0  0  0  0  0  0  0  0  0
  185.1220  178.0890  138.9370 C   0  0  0  0  0  3  0  0  0  0  0  0
  188.3070  176.1710  137.7390 C   0  0  0  0  0  0  0  0  0  0  0  0
  182.5680  178.4260  137.3900 N   0  0  0  0  0  0  0  0  0  0  0  0
  189.2750  176.3540  138.5860 N   0  0  0  0  0  0  0  0  0  0  0  0
  183.6710  177.5990  136.9960 C   0  0  0  0  0  3  0  0  0  0  0  0
  187.6190  178.6940  140.3550 C   0  0  0  0  0  2  0  0  0  0  0  0
  187.2410  177.0980  137.6650 N   0  0  0  0  0  2  0  0  0  0  0  0
  188.1720  174.9460  136.9380 C   0  0  0  0  0  3  0  0  0  0  0  0
  183.3260  179.7090  139.3510 C   0  0  0  0  0  2  0  0  0  0  0  0
  184.8150  177.4780  137.6590 C   0  0  0  0  0  0  0  0  0  0  0  0
  186.4360  178.7070  141.3400 C   0  0  0  0  0  2  0  0  0  0  0  0
  185.8580  175.5250  136.5300 C   0  0  0  0  0  3  0  0  0  0  0  0
  188.3110  177.4720  140.4390 O   0  0  0  0  0  0  0  0  0  0  0  0
  187.0250  174.6850  136.3650 N   0  0  0  0  0  0  0  0  0  0  0  0
  185.9620  176.6980  137.1700 C   0  0  0  0  0  0  0  0  0  0  0  0
  180.1390  179.8740  138.9370 F   0  0  0  0  0  0  0  0  0  0  0  0
  181.2590  180.2900  138.3050 N   0  0  0  0  0  0  0  0  0  0  0  0
  180.6060  181.0420  136.0750 C   0  0  0  0  0  2  0  0  0  0  0  0
  180.2930  182.5270  138.0510 C   0  0  0  0  0  2  0  0  0  0  0  0
  180.0660  183.4520  135.7140 C   0  0  0  0  0  0  0  0  0  0  0  0
  179.5870  184.3270  134.9460 O   0  0  0  0  0  0  0  0  0  0  0  0
  180.1010  183.6590  137.1450 N   0  0  0  0  0  0  0  0  0  0  0  0
  179.7790  184.9160  137.7530 C   0  0  0  0  0  3  0  0  0  0  0  0
  181.1770  181.4520  137.4260 C   0  0  1  0  0  3  0  0  0  0  0  0
  180.6640  182.2180  135.1090 C   0  0  0  0  0  2  0  0  0  0  0  0
  179.5450  185.9460  137.0660 O   0  0  0  0  0  0  0  0  0  0  0  0
  190.6980  177.5490  140.1560 C   0  0  0  0  0  2  0  0  0  0  0  0
  190.6680  176.8470  141.5040 C   0  0  0  0  0  2  0  0  0  0  0  0
  190.9670  177.8310  142.6170 C   0  0  0  0  0  2  0  0  0  0  0  0
  190.3930  177.3140  143.9220 C   0  0  0  0  0  2  0  0  0  0  0  0
  188.9980  177.2950  143.8510 O   0  0  0  0  0  0  0  0  0  0  0  0
  188.7720  177.2660  147.4530 C   0  0  0  0  0  3  0  0  0  0  0  0
  188.5610  177.8330  145.0650 C   0  0  2  0  0  3  0  0  0  0  0  0
  186.5700  178.0010  146.5900 C   0  0  0  0  0  0  0  0  0  0  0  0
  185.3830  178.1820  146.8100 O   0  0  0  0  0  0  0  0  0  0  0  0
  189.2460  177.1320  146.2080 C   0  0  0  0  0  3  0  0  0  0  0  0
  187.0360  177.7110  145.1830 C   0  0  0  0  0  2  0  0  0  0  0  0
  187.5580  178.1120  147.7240 C   0  0  0  0  0  2  0  0  0  0  0  0
  1 31  1  1  0  0  0
  1 17  1  0  0  0  0
  2 15  1  0  0  0  0
  3 13  1  0  0  0  0
  4  2  1  0  0  0  0
  5  4  2  0  0  0  0
  6  8  2  0  0  0  0
  7  3  2  0  0  0  0
  8  1  1  0  0  0  0
  9  7  1  0  0  0  0
  9 14  2  0  0  0  0
 10 17  1  0  0  0  0
 10 15  1  0  0  0  0
 11  6  1  0  0  0  0
 12  6  1  0  0  0  0
 13  4  1  0  0  0  0
 14  5  1  0  0  0  0
 16 19  2  0  0  0  0
 18 16  1  0  0  0  0
 18 12  2  0  0  0  0
 19 14  1  0  0  0  0
 19 11  1  0  0  0  0
 21  3  1  0  0  0  0
 21 20  1  0  0  0  0
 22 28  1  0  0  0  0
 24 26  1  0  0  0  0
 25 24  2  0  0  0  0
 26 27  1  0  0  0  0
 26 23  1  0  0  0  0
 28 23  1  0  0  0  0
 28 21  1  1  0  0  0
 29 24  1  0  0  0  0
 29 22  1  0  0  0  0
 30 27  2  0  0  0  0
 31 32  1  0  0  0  0
 32 33  1  0  0  0  0
 33 34  1  0  0  0  0
 35 34  1  0  0  0  0
 36 42  1  0  0  0  0
 37 35  1  6  0  0  0
 37 41  1  0  0  0  0
 37 40  1  0  0  0  0
 38 39  2  0  0  0  0
 38 42  1  0  0  0  0
 40 36  2  0  0  0  0
 41 38  1  0  0  0  0
M  END
>  <MODEL>
3

>  <REMARK>
 VINA RESULT:      -8.8      3.426      6.533
  Name = 
  8 active torsions:
  status: ('A' for Active; 'I' for Inactive)
    1  A    between atoms: C_2  and  C_20
    2  A    between atoms: C_4  and  O_33
    3  A    between atoms: C_5  and  N_27
    4  A    between atoms: C_12  and  O_33
    5  A    between atoms: C_12  and  C_37
    6  A    between atoms: C_20  and  C_24
    7  A    between atoms: C_24  and  C_37
    8  A    between atoms: N_27  and  C_34
                            x       y       z     vdW  Elec       q    Type
                         _______ _______ _______ _____ _____    ______ ____

>  <TORSDO>
F 8

$$$$
=
 OpenBabel10222420383D

 42 46  0  0  1  0  0  0  0  0999 V2000
  181.0180  178.1020  141.0950 C   0  0  1  0  0  3  0  0  0  0  0  0
  184.8440  179.3490  138.7330 O   0  0  0  0  0  0  0  0  0  0  0  0
  186.8060  176.6610  136.9710 C   0  0  0  0  0  0  0  0  0  0  0  0
  185.0560  178.0810  138.1610 C   0  0  0  0  0  0  0  0  0  0  0  0
  184.0470  177.2420  138.1880 C   0  0  0  0  0  3  0  0  0  0  0  0
  180.7060  176.0550  139.8260 C   0  0  0  0  0  0  0  0  0  0  0  0
  185.9800  175.5230  136.6580 N   0  0  0  0  0  0  0  0  0  0  0  0
  180.1980  177.0170  140.5360 N   0  0  0  0  0  0  0  0  0  0  0  0
  184.6920  175.1030  137.1270 C   0  0  0  0  0  3  0  0  0  0  0  0
  182.9070  178.9980  140.2430 C   0  0  0  0  0  2  0  0  0  0  0  0
  182.0900  176.0390  139.5340 N   0  0  0  0  0  2  0  0  0  0  0  0
  179.8810  175.0350  139.1640 C   0  0  0  0  0  3  0  0  0  0  0  0
  186.3800  177.7530  137.6260 C   0  0  0  0  0  2  0  0  0  0  0  0
  183.8520  175.8490  137.8350 C   0  0  0  0  0  0  0  0  0  0  0  0
  183.5470  179.8410  139.1250 C   0  0  0  0  0  2  0  0  0  0  0  0
  181.7680  174.4990  137.7460 C   0  0  0  0  0  3  0  0  0  0  0  0
  181.5130  178.9310  140.0660 O   0  0  0  0  0  0  0  0  0  0  0  0
  180.4110  174.3080  138.2140 N   0  0  0  0  0  0  0  0  0  0  0  0
  182.5840  175.3490  138.3860 C   0  0  0  0  0  0  0  0  0  0  0  0
  188.4260  176.6340  135.1990 F   0  0  0  0  0  0  0  0  0  0  0  0
  188.1720  176.6190  136.5270 N   0  0  0  0  0  0  0  0  0  0  0  0
  190.5950  176.7610  136.7930 C   0  0  0  0  0  2  0  0  0  0  0  0
  189.0860  177.1750  138.7320 C   0  0  0  0  0  2  0  0  0  0  0  0
  191.5640  176.8580  139.0920 C   0  0  0  0  0  0  0  0  0  0  0  0
  192.5810  177.0600  139.8050 O   0  0  0  0  0  0  0  0  0  0  0  0
  190.2330  177.0360  139.6290 N   0  0  0  0  0  0  0  0  0  0  0  0
  189.9840  177.2600  141.0220 C   0  0  0  0  0  3  0  0  0  0  0  0
  189.2770  176.3730  137.4480 C   0  0  1  0  0  3  0  0  0  0  0  0
  191.7590  176.3620  137.6910 C   0  0  0  0  0  2  0  0  0  0  0  0
  190.9080  177.2140  141.8770 O   0  0  0  0  0  0  0  0  0  0  0  0
  180.1610  178.9170  142.0550 C   0  0  0  0  0  2  0  0  0  0  0  0
  181.0020  179.6380  143.0960 C   0  0  0  0  0  2  0  0  0  0  0  0
  181.7630  178.6370  143.9420 C   0  0  0  0  0  2  0  0  0  0  0  0
  183.2200  179.0490  144.0300 C   0  0  0  0  0  2  0  0  0  0  0  0
  183.5860  179.2120  145.3700 O   0  0  0  0  0  0  0  0  0  0  0  0
  186.6240  177.6220  144.2450 C   0  0  0  0  0  3  0  0  0  0  0  0
  184.9730  179.0430  145.3950 C   0  0  2  0  0  3  0  0  0  0  0  0
  186.8460  177.9740  146.6860 C   0  0  0  0  0  0  0  0  0  0  0  0
  187.4290  177.6920  147.7210 O   0  0  0  0  0  0  0  0  0  0  0  0
  185.3990  178.1630  144.2500 C   0  0  0  0  0  3  0  0  0  0  0  0
  185.4120  178.4450  146.7380 C   0  0  0  0  0  2  0  0  0  0  0  0
  187.5830  177.8840  145.3740 C   0  0  0  0  0  2  0  0  0  0  0  0
  1 31  1  1  0  0  0
  2 15  1  0  0  0  0
  3 13  1  0  0  0  0
  4  5  2  0  0  0  0
  4  2  1  0  0  0  0
  6  8  2  0  0  0  0
  7  3  2  0  0  0  0
  7  9  1  0  0  0  0
  8  1  1  0  0  0  0
  9 14  2  0  0  0  0
 11  6  1  0  0  0  0
 12  6  1  0  0  0  0
 13  4  1  0  0  0  0
 14  5  1  0  0  0  0
 14 19  1  0  0  0  0
 15 10  1  0  0  0  0
 16 18  1  0  0  0  0
 16 19  2  0  0  0  0
 17 10  1  0  0  0  0
 17  1  1  0  0  0  0
 18 12  2  0  0  0  0
 19 11  1  0  0  0  0
 20 21  1  0  0  0  0
 21  3  1  0  0  0  0
 22 28  1  0  0  0  0
 22 29  1  0  0  0  0
 23 26  1  0  0  0  0
 24 26  1  0  0  0  0
 24 25  2  0  0  0  0
 26 27  1  0  0  0  0
 27 30  2  0  0  0  0
 28 21  1  6  0  0  0
 28 23  1  0  0  0  0
 29 24  1  0  0  0  0
 31 32  1  0  0  0  0
 32 33  1  0  0  0  0
 33 34  1  0  0  0  0
 34 35  1  0  0  0  0
 36 40  2  0  0  0  0
 36 42  1  0  0  0  0
 37 35  1  1  0  0  0
 37 41  1  0  0  0  0
 38 41  1  0  0  0  0
 38 39  2  0  0  0  0
 40 37  1  0  0  0  0
 42 38  1  0  0  0  0
M  END
>  <MODEL>
4

>  <REMARK>
 VINA RESULT:      -8.7      3.883      9.640
  Name = 
  8 active torsions:
  status: ('A' for Active; 'I' for Inactive)
    1  A    between atoms: C_2  and  C_20
    2  A    between atoms: C_4  and  O_33
    3  A    between atoms: C_5  and  N_27
    4  A    between atoms: C_12  and  O_33
    5  A    between atoms: C_12  and  C_37
    6  A    between atoms: C_20  and  C_24
    7  A    between atoms: C_24  and  C_37
    8  A    between atoms: N_27  and  C_34
                            x       y       z     vdW  Elec       q    Type
                         _______ _______ _______ _____ _____    ______ ____

>  <TORSDO>
F 8

$$$$
=
 OpenBabel10222420383D

 42 46  0  0  1  0  0  0  0  0999 V2000
  185.0230  178.7510  141.5720 C   0  0  1  0  0  3  0  0  0  0  0  0
  189.2800  178.0230  139.8070 O   0  0  0  0  0  0  0  0  0  0  0  0
  189.5870  175.8990  136.7110 C   0  0  0  0  0  0  0  0  0  0  0  0
  188.8230  177.3780  138.6420 C   0  0  0  0  0  0  0  0  0  0  0  0
  187.5560  177.5300  138.3370 C   0  0  0  0  0  3  0  0  0  0  0  0
  183.8970  178.2980  139.4680 C   0  0  0  0  0  0  0  0  0  0  0  0
  188.3680  175.9030  135.9450 N   0  0  0  0  0  0  0  0  0  0  0  0
  183.9090  178.8930  140.6220 N   0  0  0  0  0  0  0  0  0  0  0  0
  187.0260  176.2950  136.2620 C   0  0  0  0  0  3  0  0  0  0  0  0
  187.2080  178.4200  141.1120 C   0  0  0  0  0  2  0  0  0  0  0  0
  184.9950  177.5020  139.0660 N   0  0  0  0  0  2  0  0  0  0  0  0
  182.8480  178.5300  138.4650 C   0  0  0  0  0  3  0  0  0  0  0  0
  189.7550  176.5430  137.8780 C   0  0  0  0  0  2  0  0  0  0  0  0
  186.6600  176.9810  137.3380 C   0  0  0  0  0  0  0  0  0  0  0  0
  188.5090  179.0020  140.5300 C   0  0  0  0  0  2  0  0  0  0  0  0
  184.3160  177.5930  136.7840 C   0  0  0  0  0  3  0  0  0  0  0  0
  186.1830  179.3820  141.0740 O   0  0  0  0  0  0  0  0  0  0  0  0
  183.0630  178.1670  137.2260 N   0  0  0  0  0  0  0  0  0  0  0  0
  185.2610  177.2760  137.6810 C   0  0  0  0  0  0  0  0  0  0  0  0
  190.4510  174.1130  135.3590 F   0  0  0  0  0  0  0  0  0  0  0  0
  190.6990  175.1680  136.1680 N   0  0  0  0  0  0  0  0  0  0  0  0
  192.6980  174.1010  137.0770 C   0  0  0  0  0  2  0  0  0  0  0  0
  192.8980  175.9940  135.4700 C   0  0  0  0  0  2  0  0  0  0  0  0
  194.9160  175.2020  136.7610 C   0  0  0  0  0  0  0  0  0  0  0  0
  196.1680  175.1060  136.8460 O   0  0  0  0  0  0  0  0  0  0  0  0
  194.3030  176.1390  135.8460 N   0  0  0  0  0  0  0  0  0  0  0  0
  195.0560  177.1300  135.1340 C   0  0  0  0  0  3  0  0  0  0  0  0
  192.0700  175.4060  136.6080 C   0  0  1  0  0  3  0  0  0  0  0  0
  194.0710  174.3720  137.6790 C   0  0  0  0  0  2  0  0  0  0  0  0
  196.2850  177.3070  135.3430 O   0  0  0  0  0  0  0  0  0  0  0  0
  184.6170  179.3790  142.8990 C   0  0  0  0  0  2  0  0  0  0  0  0
  183.4700  178.6270  143.5560 C   0  0  0  0  0  2  0  0  0  0  0  0
  183.5400  178.7720  145.0630 C   0  0  0  0  0  2  0  0  0  0  0  0
  184.9740  179.0330  145.4830 C   0  0  0  0  0  2  0  0  0  0  0  0
  185.5350  177.8620  146.0030 O   0  0  0  0  0  0  0  0  0  0  0  0
  188.6090  176.9510  144.3450 C   0  0  0  0  0  3  0  0  0  0  0  0
  186.9110  177.9910  145.7950 C   0  0  2  0  0  3  0  0  0  0  0  0
  189.1550  177.3470  146.7280 C   0  0  0  0  0  0  0  0  0  0  0  0
  189.9480  177.1980  147.6440 O   0  0  0  0  0  0  0  0  0  0  0  0
  187.3160  177.2190  144.5680 C   0  0  0  0  0  3  0  0  0  0  0  0
  187.6830  177.5040  147.0290 C   0  0  0  0  0  2  0  0  0  0  0  0
  189.6650  177.4130  145.3110 C   0  0  0  0  0  2  0  0  0  0  0  0
  1 31  1  1  0  0  0
  2 15  1  0  0  0  0
  3 13  1  0  0  0  0
  4  2  1  0  0  0  0
  5  4  2  0  0  0  0
  6  8  2  0  0  0  0
  7  9  1  0  0  0  0
  7  3  2  0  0  0  0
  8  1  1  0  0  0  0
  9 14  2  0  0  0  0
 11  6  1  0  0  0  0
 12  6  1  0  0  0  0
 13  4  1  0  0  0  0
 14 19  1  0  0  0  0
 14  5  1  0  0  0  0
 15 10  1  0  0  0  0
 16 18  1  0  0  0  0
 16 19  2  0  0  0  0
 17 10  1  0  0  0  0
 17  1  1  0  0  0  0
 18 12  2  0  0  0  0
 19 11  1  0  0  0  0
 20 21  1  0  0  0  0
 21  3  1  0  0  0  0
 22 29  1  0  0  0  0
 23 26  1  0  0  0  0
 23 28  1  0  0  0  0
 24 25  2  0  0  0  0
 24 29  1  0  0  0  0
 26 24  1  0  0  0  0
 27 30  2  0  0  0  0
 27 26  1  0  0  0  0
 28 21  1  6  0  0  0
 28 22  1  0  0  0  0
 31 32  1  0  0  0  0
 32 33  1  0  0  0  0
 33 34  1  0  0  0  0
 34 35  1  0  0  0  0
 36 40  2  0  0  0  0
 36 42  1  0  0  0  0
 37 35  1  1  0  0  0
 37 41  1  0  0  0  0
 38 41  1  0  0  0  0
 38 39  2  0  0  0  0
 40 37  1  0  0  0  0
 42 38  1  0  0  0  0
M  END
>  <MODEL>
5

>  <REMARK>
 VINA RESULT:      -8.6      4.527     10.364
  Name = 
  8 active torsions:
  status: ('A' for Active; 'I' for Inactive)
    1  A    between atoms: C_2  and  C_20
    2  A    between atoms: C_4  and  O_33
    3  A    between atoms: C_5  and  N_27
    4  A    between atoms: C_12  and  O_33
    5  A    between atoms: C_12  and  C_37
    6  A    between atoms: C_20  and  C_24
    7  A    between atoms: C_24  and  C_37
    8  A    between atoms: N_27  and  C_34
                            x       y       z     vdW  Elec       q    Type
                         _______ _______ _______ _____ _____    ______ ____

>  <TORSDO>
F 8

$$$$
=
 OpenBabel10222420383D

 42 46  0  0  1  0  0  0  0  0999 V2000
  183.6860  178.7420  144.0060 C   0  0  1  0  0  3  0  0  0  0  0  0
  186.3830  178.5750  140.2030 O   0  0  0  0  0  0  0  0  0  0  0  0
  184.8010  177.5570  136.9400 C   0  0  0  0  0  0  0  0  0  0  0  0
  185.3210  178.3440  139.3080 C   0  0  0  0  0  0  0  0  0  0  0  0
  184.1110  178.6010  139.7440 C   0  0  0  0  0  3  0  0  0  0  0  0
  181.6330  179.0030  142.7360 C   0  0  0  0  0  0  0  0  0  0  0  0
  183.3850  177.8210  136.9340 N   0  0  0  0  0  0  0  0  0  0  0  0
  182.2980  179.1950  143.8350 N   0  0  0  0  0  0  0  0  0  0  0  0
  182.4490  178.1050  137.9820 C   0  0  0  0  0  3  0  0  0  0  0  0
  185.2910  178.5530  142.4300 C   0  0  0  0  0  2  0  0  0  0  0  0
  182.2490  178.3670  141.6330 N   0  0  0  0  0  2  0  0  0  0  0  0
  180.2900  179.5570  142.5130 C   0  0  0  0  0  3  0  0  0  0  0  0
  185.6140  177.7900  137.9830 C   0  0  0  0  0  2  0  0  0  0  0  0
  182.7670  178.4120  139.2330 C   0  0  0  0  0  0  0  0  0  0  0  0
  186.2340  179.2770  141.4520 C   0  0  0  0  0  2  0  0  0  0  0  0
  180.5890  179.1950  140.1380 C   0  0  0  0  0  3  0  0  0  0  0  0
  184.5560  179.4870  143.1820 O   0  0  0  0  0  0  0  0  0  0  0  0
  179.8200  179.6100  141.2930 N   0  0  0  0  0  0  0  0  0  0  0  0
  181.7760  178.5960  140.3050 C   0  0  0  0  0  0  0  0  0  0  0  0
  185.6660  177.8780  134.7230 F   0  0  0  0  0  0  0  0  0  0  0  0
  185.3730  177.0270  135.7320 N   0  0  0  0  0  0  0  0  0  0  0  0
  186.9250  175.1500  135.5650 C   0  0  0  0  0  2  0  0  0  0  0  0
  184.6460  174.8220  136.5150 C   0  0  0  0  0  2  0  0  0  0  0  0
  186.0720  172.8300  135.9090 C   0  0  0  0  0  0  0  0  0  0  0  0
  186.3480  171.6140  136.0790 O   0  0  0  0  0  0  0  0  0  0  0  0
  184.8130  173.3770  136.3660 N   0  0  0  0  0  0  0  0  0  0  0  0
  183.7460  172.5560  136.8570 C   0  0  0  0  0  3  0  0  0  0  0  0
  185.4700  175.5910  135.4880 C   0  0  1  0  0  3  0  0  0  0  0  0
  187.0460  173.6870  135.1590 C   0  0  0  0  0  2  0  0  0  0  0  0
  183.8050  171.2980  136.8230 O   0  0  0  0  0  0  0  0  0  0  0  0
  184.0790  178.9140  145.4680 C   0  0  0  0  0  2  0  0  0  0  0  0
  185.5620  179.2070  145.6270 C   0  0  0  0  0  2  0  0  0  0  0  0
  186.1200  178.4640  146.8250 C   0  0  0  0  0  2  0  0  0  0  0  0
  187.4380  177.8120  146.4520 C   0  0  0  0  0  2  0  0  0  0  0  0
  187.3890  177.3710  145.1260 O   0  0  0  0  0  0  0  0  0  0  0  0
  190.1390  176.0120  143.2230 C   0  0  0  0  0  3  0  0  0  0  0  0
  188.7140  177.3950  144.6820 C   0  0  2  0  0  3  0  0  0  0  0  0
  191.0720  176.8490  145.3590 C   0  0  0  0  0  0  0  0  0  0  0  0
  192.0030  176.8500  146.1490 O   0  0  0  0  0  0  0  0  0  0  0  0
  188.9030  176.3770  143.5880 C   0  0  0  0  0  3  0  0  0  0  0  0
  189.6720  177.1280  145.8510 C   0  0  0  0  0  2  0  0  0  0  0  0
  191.3440  176.6100  143.8950 C   0  0  0  0  0  2  0  0  0  0  0  0
  1 31  1  1  0  0  0
  2 15  1  0  0  0  0
  3 13  1  0  0  0  0
  4  5  2  0  0  0  0
  4  2  1  0  0  0  0
  6  8  2  0  0  0  0
  7  3  2  0  0  0  0
  7  9  1  0  0  0  0
  8  1  1  0  0  0  0
  9 14  2  0  0  0  0
 10 17  1  0  0  0  0
 11  6  1  0  0  0  0
 12  6  1  0  0  0  0
 13  4  1  0  0  0  0
 14  5  1  0  0  0  0
 14 19  1  0  0  0  0
 15 10  1  0  0  0  0
 16 19  2  0  0  0  0
 16 18  1  0  0  0  0
 17  1  1  0  0  0  0
 18 12  2  0  0  0  0
 19 11  1  0  0  0  0
 20 21  1  0  0  0  0
 21  3  1  0  0  0  0
 24 25  2  0  0  0  0
 24 26  1  0  0  0  0
 26 23  1  0  0  0  0
 26 27  1  0  0  0  0
 28 22  1  0  0  0  0
 28 21  1  1  0  0  0
 28 23  1  0  0  0  0
 29 22  1  0  0  0  0
 29 24  1  0  0  0  0
 30 27  2  0  0  0  0
 31 32  1  0  0  0  0
 32 33  1  0  0  0  0
 34 33  1  0  0  0  0
 35 34  1  0  0  0  0
 36 40  2  0  0  0  0
 36 42  1  0  0  0  0
 37 35  1  1  0  0  0
 37 41  1  0  0  0  0
 38 41  1  0  0  0  0
 38 39  2  0  0  0  0
 40 37  1  0  0  0  0
 42 38  1  0  0  0  0
M  END
>  <MODEL>
6

>  <REMARK>
 VINA RESULT:      -8.6      4.030      7.649
  Name = 
  8 active torsions:
  status: ('A' for Active; 'I' for Inactive)
    1  A    between atoms: C_2  and  C_20
    2  A    between atoms: C_4  and  O_33
    3  A    between atoms: C_5  and  N_27
    4  A    between atoms: C_12  and  O_33
    5  A    between atoms: C_12  and  C_37
    6  A    between atoms: C_20  and  C_24
    7  A    between atoms: C_24  and  C_37
    8  A    between atoms: N_27  and  C_34
                            x       y       z     vdW  Elec       q    Type
                         _______ _______ _______ _____ _____    ______ ____

>  <TORSDO>
F 8

$$$$
=
 OpenBabel10222420383D

 42 46  0  0  1  0  0  0  0  0999 V2000
  190.8680  177.5030  141.2750 C   0  0  1  0  0  3  0  0  0  0  0  0
  186.3700  178.4220  142.1090 O   0  0  0  0  0  0  0  0  0  0  0  0
  184.1510  179.2590  139.1830 C   0  0  0  0  0  0  0  0  0  0  0  0
  186.0010  178.4750  140.7510 C   0  0  0  0  0  0  0  0  0  0  0  0
  186.8380  177.9510  139.8870 C   0  0  0  0  0  3  0  0  0  0  0  0
  190.4800  176.8900  138.9570 C   0  0  0  0  0  0  0  0  0  0  0  0
  184.6640  178.7090  137.9560 N   0  0  0  0  0  0  0  0  0  0  0  0
  191.1960  176.7830  140.0360 N   0  0  0  0  0  0  0  0  0  0  0  0
  185.9480  178.1840  137.5920 C   0  0  0  0  0  3  0  0  0  0  0  0
  188.8290  178.1020  142.0370 C   0  0  0  0  0  2  0  0  0  0  0  0
  189.3180  177.6960  138.9520 N   0  0  0  0  0  2  0  0  0  0  0  0
  190.7290  176.0830  137.7550 C   0  0  0  0  0  3  0  0  0  0  0  0
  184.7520  179.1460  140.3790 C   0  0  0  0  0  2  0  0  0  0  0  0
  186.9240  177.8840  138.4410 C   0  0  0  0  0  0  0  0  0  0  0  0
  187.4750  177.6400  142.6040 C   0  0  0  0  0  2  0  0  0  0  0  0
  188.4970  176.6220  136.9900 C   0  0  0  0  0  3  0  0  0  0  0  0
  189.6790  176.9980  141.8430 O   0  0  0  0  0  0  0  0  0  0  0  0
  189.7950  175.9970  136.8430 N   0  0  0  0  0  0  0  0  0  0  0  0
  188.2630  177.4440  138.0230 C   0  0  0  0  0  0  0  0  0  0  0  0
  182.8930  181.2510  138.7190 F   0  0  0  0  0  0  0  0  0  0  0  0
  182.8960  179.9580  139.1130 N   0  0  0  0  0  0  0  0  0  0  0  0
  181.3600  178.0710  138.9120 C   0  0  0  0  0  2  0  0  0  0  0  0
  181.7760  179.1290  141.1290 C   0  0  0  0  0  2  0  0  0  0  0  0
  179.8640  177.5090  140.8310 C   0  0  0  0  0  0  0  0  0  0  0  0
  179.0640  176.6850  141.3440 O   0  0  0  0  0  0  0  0  0  0  0  0
  180.5940  178.4480  141.6540 N   0  0  0  0  0  0  0  0  0  0  0  0
  180.3210  178.6280  143.0490 C   0  0  0  0  0  3  0  0  0  0  0  0
  181.6590  179.3800  139.6280 C   0  0  1  0  0  3  0  0  0  0  0  0
  179.9950  177.5460  139.3380 C   0  0  0  0  0  2  0  0  0  0  0  0
  179.3560  178.0490  143.6170 O   0  0  0  0  0  0  0  0  0  0  0  0
  192.0230  177.3410  142.2550 C   0  0  0  0  0  2  0  0  0  0  0  0
  191.6820  177.8870  143.6310 C   0  0  0  0  0  2  0  0  0  0  0  0
  191.5230  176.7530  144.6240 C   0  0  0  0  0  2  0  0  0  0  0  0
  190.6040  177.1870  145.7500 C   0  0  0  0  0  2  0  0  0  0  0  0
  189.2780  176.9010  145.4160 O   0  0  0  0  0  0  0  0  0  0  0  0
  188.0130  178.2440  148.5180 C   0  0  0  0  0  3  0  0  0  0  0  0
  188.5110  177.8140  146.1440 C   0  0  2  0  0  3  0  0  0  0  0  0
  186.1630  178.3390  146.8750 C   0  0  0  0  0  0  0  0  0  0  0  0
  184.9640  178.4570  146.6750 O   0  0  0  0  0  0  0  0  0  0  0  0
  188.8290  177.6920  147.6100 C   0  0  0  0  0  3  0  0  0  0  0  0
  187.0160  177.5800  145.8860 C   0  0  0  0  0  2  0  0  0  0  0  0
  186.7790  178.9880  148.0880 C   0  0  0  0  0  2  0  0  0  0  0  0
  1 17  1  0  0  0  0
  1 31  1  1  0  0  0
  2 15  1  0  0  0  0
  3 13  1  0  0  0  0
  4  2  1  0  0  0  0
  5  4  2  0  0  0  0
  6  8  2  0  0  0  0
  7  3  2  0  0  0  0
  8  1  1  0  0  0  0
  9  7  1  0  0  0  0
  9 14  2  0  0  0  0
 10 15  1  0  0  0  0
 11  6  1  0  0  0  0
 12  6  1  0  0  0  0
 13  4  1  0  0  0  0
 14  5  1  0  0  0  0
 16 19  2  0  0  0  0
 17 10  1  0  0  0  0
 18 16  1  0  0  0  0
 18 12  2  0  0  0  0
 19 14  1  0  0  0  0
 19 11  1  0  0  0  0
 20 21  1  0  0  0  0
 21  3  1  0  0  0  0
 22 29  1  0  0  0  0
 22 28  1  0  0  0  0
 23 26  1  0  0  0  0
 24 25  2  0  0  0  0
 24 26  1  0  0  0  0
 26 27  1  0  0  0  0
 27 30  2  0  0  0  0
 28 21  1  6  0  0  0
 28 23  1  0  0  0  0
 29 24  1  0  0  0  0
 31 32  1  0  0  0  0
 32 33  1  0  0  0  0
 33 34  1  0  0  0  0
 35 34  1  0  0  0  0
 37 35  1  6  0  0  0
 37 40  1  0  0  0  0
 38 42  1  0  0  0  0
 39 38  2  0  0  0  0
 40 36  2  0  0  0  0
 41 37  1  0  0  0  0
 41 38  1  0  0  0  0
 42 36  1  0  0  0  0
M  END
>  <MODEL>
7

>  <REMARK>
 VINA RESULT:      -8.5      3.084      6.430
  Name = 
  8 active torsions:
  status: ('A' for Active; 'I' for Inactive)
    1  A    between atoms: C_2  and  C_20
    2  A    between atoms: C_4  and  O_33
    3  A    between atoms: C_5  and  N_27
    4  A    between atoms: C_12  and  O_33
    5  A    between atoms: C_12  and  C_37
    6  A    between atoms: C_20  and  C_24
    7  A    between atoms: C_24  and  C_37
    8  A    between atoms: N_27  and  C_34
                            x       y       z     vdW  Elec       q    Type
                         _______ _______ _______ _____ _____    ______ ____

>  <TORSDO>
F 8

$$$$
=
 OpenBabel10222420383D

 42 46  0  0  1  0  0  0  0  0999 V2000
  185.1440  179.0080  145.0850 C   0  0  1  0  0  3  0  0  0  0  0  0
  181.2470  179.0050  142.5200 O   0  0  0  0  0  0  0  0  0  0  0  0
  181.5310  179.7870  138.8460 C   0  0  0  0  0  0  0  0  0  0  0  0
  181.9090  179.1570  141.2870 C   0  0  0  0  0  0  0  0  0  0  0  0
  183.1960  178.9010  141.2690 C   0  0  0  0  0  3  0  0  0  0  0  0
  186.5940  178.6250  143.1750 C   0  0  0  0  0  0  0  0  0  0  0  0
  182.8470  179.4910  138.3430 N   0  0  0  0  0  0  0  0  0  0  0  0
  186.3750  178.5150  144.4500 N   0  0  0  0  0  0  0  0  0  0  0  0
  184.1010  179.2510  138.9950 C   0  0  0  0  0  3  0  0  0  0  0  0
  183.0750  179.1380  144.1910 C   0  0  0  0  0  2  0  0  0  0  0  0
  185.6180  179.2060  142.3330 N   0  0  0  0  0  2  0  0  0  0  0  0
  187.7640  178.0280  142.5150 C   0  0  0  0  0  3  0  0  0  0  0  0
  181.1530  179.6370  140.1260 C   0  0  0  0  0  2  0  0  0  0  0  0
  184.2620  179.0270  140.2940 C   0  0  0  0  0  0  0  0  0  0  0  0
  181.8420  178.3770  143.6720 C   0  0  0  0  0  2  0  0  0  0  0  0
  186.6200  178.2520  140.3940 C   0  0  0  0  0  3  0  0  0  0  0  0
  184.0350  178.2340  144.6830 O   0  0  0  0  0  0  0  0  0  0  0  0
  187.7570  177.8910  141.2140 N   0  0  0  0  0  0  0  0  0  0  0  0
  185.5740  178.8870  140.9410 C   0  0  0  0  0  0  0  0  0  0  0  0
  179.5770  179.4140  137.5020 F   0  0  0  0  0  0  0  0  0  0  0  0
  180.5580  180.2560  137.8980 N   0  0  0  0  0  0  0  0  0  0  0  0
  180.4330  181.3580  135.7230 C   0  0  0  0  0  2  0  0  0  0  0  0
  179.7300  182.5600  137.7890 C   0  0  0  0  0  2  0  0  0  0  0  0
  180.0490  183.8230  135.6270 C   0  0  0  0  0  0  0  0  0  0  0  0
  179.7750  184.8250  134.9180 O   0  0  0  0  0  0  0  0  0  0  0  0
  179.7730  183.8190  137.0460 N   0  0  0  0  0  0  0  0  0  0  0  0
  179.3580  184.9930  137.7570 C   0  0  0  0  0  3  0  0  0  0  0  0
  180.7020  181.5350  137.2100 C   0  0  1  0  0  3  0  0  0  0  0  0
  180.7330  182.6550  134.9830 C   0  0  0  0  0  2  0  0  0  0  0  0
  179.3090  186.1230  137.2010 O   0  0  0  0  0  0  0  0  0  0  0  0
  185.3110  178.9340  146.5970 C   0  0  0  0  0  2  0  0  0  0  0  0
  186.3490  177.9020  147.0050 C   0  0  0  0  0  2  0  0  0  0  0  0
  187.2460  178.4580  148.0930 C   0  0  0  0  0  2  0  0  0  0  0  0
  188.6640  177.9620  147.8880 C   0  0  0  0  0  2  0  0  0  0  0  0
  189.0270  178.1110  146.5460 O   0  0  0  0  0  0  0  0  0  0  0  0
  191.8950  175.9990  147.1310 C   0  0  0  0  0  3  0  0  0  0  0  0
  189.8200  176.9970  146.2550 C   0  0  2  0  0  3  0  0  0  0  0  0
  191.5790  176.1370  144.6790 C   0  0  0  0  0  0  0  0  0  0  0  0
  192.0540  175.9740  143.5650 O   0  0  0  0  0  0  0  0  0  0  0  0
  190.8470  176.8060  147.3400 C   0  0  0  0  0  3  0  0  0  0  0  0
  190.4940  177.1670  144.8860 C   0  0  0  0  0  2  0  0  0  0  0  0
  192.0590  175.2780  145.8210 C   0  0  0  0  0  2  0  0  0  0  0  0
  1 31  1  1  0  0  0
  2 15  1  0  0  0  0
  3 13  1  0  0  0  0
  4  2  1  0  0  0  0
  5  4  2  0  0  0  0
  6  8  2  0  0  0  0
  7  3  2  0  0  0  0
  7  9  1  0  0  0  0
  8  1  1  0  0  0  0
  9 14  2  0  0  0  0
 10 17  1  0  0  0  0
 11  6  1  0  0  0  0
 12  6  1  0  0  0  0
 13  4  1  0  0  0  0
 14 19  1  0  0  0  0
 14  5  1  0  0  0  0
 15 10  1  0  0  0  0
 16 19  2  0  0  0  0
 16 18  1  0  0  0  0
 17  1  1  0  0  0  0
 18 12  2  0  0  0  0
 19 11  1  0  0  0  0
 20 21  1  0  0  0  0
 21  3  1  0  0  0  0
 22 28  1  0  0  0  0
 24 26  1  0  0  0  0
 25 24  2  0  0  0  0
 26 27  1  0  0  0  0
 26 23  1  0  0  0  0
 28 23  1  0  0  0  0
 28 21  1  1  0  0  0
 29 24  1  0  0  0  0
 29 22  1  0  0  0  0
 30 27  2  0  0  0  0
 31 32  1  0  0  0  0
 32 33  1  0  0  0  0
 34 33  1  0  0  0  0
 35 34  1  0  0  0  0
 36 40  2  0  0  0  0
 37 35  1  1  0  0  0
 37 40  1  0  0  0  0
 38 41  1  0  0  0  0
 38 42  1  0  0  0  0
 39 38  2  0  0  0  0
 41 37  1  0  0  0  0
 42 36  1  0  0  0  0
M  END
>  <MODEL>
8

>  <REMARK>
 VINA RESULT:      -8.4      3.218      6.031
  Name = 
  8 active torsions:
  status: ('A' for Active; 'I' for Inactive)
    1  A    between atoms: C_2  and  C_20
    2  A    between atoms: C_4  and  O_33
    3  A    between atoms: C_5  and  N_27
    4  A    between atoms: C_12  and  O_33
    5  A    between atoms: C_12  and  C_37
    6  A    between atoms: C_20  and  C_24
    7  A    between atoms: C_24  and  C_37
    8  A    between atoms: N_27  and  C_34
                            x       y       z     vdW  Elec       q    Type
                         _______ _______ _______ _____ _____    ______ ____

>  <TORSDO>
F 8

$$$$
=
 OpenBabel10222420383D

 42 46  0  0  1  0  0  0  0  0999 V2000
  186.4460  178.2530  140.0300 C   0  0  1  0  0  3  0  0  0  0  0  0
  190.9790  177.1580  139.8890 O   0  0  0  0  0  0  0  0  0  0  0  0
  192.1570  174.7900  137.2080 C   0  0  0  0  0  0  0  0  0  0  0  0
  190.8980  176.4520  138.6740 C   0  0  0  0  0  0  0  0  0  0  0  0
  189.8270  176.6510  137.9420 C   0  0  0  0  0  3  0  0  0  0  0  0
  186.0740  177.7040  137.6940 C   0  0  0  0  0  0  0  0  0  0  0  0
  191.2780  174.8030  136.0670 N   0  0  0  0  0  0  0  0  0  0  0  0
  185.7380  178.3850  138.7480 N   0  0  0  0  0  0  0  0  0  0  0  0
  189.9430  175.2920  135.8800 C   0  0  0  0  0  3  0  0  0  0  0  0
  188.6230  177.7680  140.3730 C   0  0  0  0  0  2  0  0  0  0  0  0
  187.1780  176.8200  137.7390 N   0  0  0  0  0  2  0  0  0  0  0  0
  185.4530  177.9160  136.3800 C   0  0  0  0  0  3  0  0  0  0  0  0
  191.9660  175.5110  138.3240 C   0  0  0  0  0  2  0  0  0  0  0  0
  189.2870  176.0770  136.7240 C   0  0  0  0  0  0  0  0  0  0  0  0
  190.0860  178.2310  140.2480 C   0  0  0  0  0  2  0  0  0  0  0  0
  187.3290  176.7740  135.3620 C   0  0  0  0  0  3  0  0  0  0  0  0
  187.7510  178.7790  139.9320 O   0  0  0  0  0  0  0  0  0  0  0  0
  186.0490  177.4490  135.3120 N   0  0  0  0  0  0  0  0  0  0  0  0
  187.8820  176.4740  136.5460 C   0  0  0  0  0  0  0  0  0  0  0  0
  193.1680  172.6330  136.9070 F   0  0  0  0  0  0  0  0  0  0  0  0
  193.3260  173.9590  137.1230 N   0  0  0  0  0  0  0  0  0  0  0  0
  195.2480  173.6630  138.6010 C   0  0  0  0  0  2  0  0  0  0  0  0
  195.5740  174.3580  136.2310 C   0  0  0  0  0  2  0  0  0  0  0  0
  197.4830  174.5040  137.8750 C   0  0  0  0  0  0  0  0  0  0  0  0
  198.7240  174.5270  138.0810 O   0  0  0  0  0  0  0  0  0  0  0  0
  196.9450  174.7500  136.5550 N   0  0  0  0  0  0  0  0  0  0  0  0
  197.7510  175.2140  135.4650 C   0  0  0  0  0  3  0  0  0  0  0  0
  194.6580  174.4610  137.4460 C   0  0  1  0  0  3  0  0  0  0  0  0
  196.5670  174.2840  139.0400 C   0  0  0  0  0  2  0  0  0  0  0  0
  198.9600  175.5320  135.6210 O   0  0  0  0  0  0  0  0  0  0  0  0
  185.6610  179.0030  141.1000 C   0  0  0  0  0  2  0  0  0  0  0  0
  184.5820  178.1340  141.7260 C   0  0  0  0  0  2  0  0  0  0  0  0
  183.8820  178.8860  142.8410 C   0  0  0  0  0  2  0  0  0  0  0  0
  184.8960  179.3020  143.8890 C   0  0  0  0  0  2  0  0  0  0  0  0
  185.0550  178.2780  144.8270 O   0  0  0  0  0  0  0  0  0  0  0  0
  188.4550  177.1200  144.4720 C   0  0  0  0  0  3  0  0  0  0  0  0
  186.4090  178.3020  145.1700 C   0  0  2  0  0  3  0  0  0  0  0  0
  188.0640  177.5050  146.8870 C   0  0  0  0  0  0  0  0  0  0  0  0
  188.4270  177.3090  148.0360 O   0  0  0  0  0  0  0  0  0  0  0  0
  187.2000  177.4860  144.1820 C   0  0  0  0  0  3  0  0  0  0  0  0
  186.6060  177.7740  146.5980 C   0  0  0  0  0  2  0  0  0  0  0  0
  189.0860  177.5150  145.7790 C   0  0  0  0  0  2  0  0  0  0  0  0
  1 31  1  1  0  0  0
  2 15  1  0  0  0  0
  3 13  1  0  0  0  0
  4  2  1  0  0  0  0
  5  4  2  0  0  0  0
  6 11  1  0  0  0  0
  6  8  2  0  0  0  0
  7  3  2  0  0  0  0
  8  1  1  0  0  0  0
  9  7  1  0  0  0  0
  9 14  2  0  0  0  0
 12  6  1  0  0  0  0
 13  4  1  0  0  0  0
 14  5  1  0  0  0  0
 15 10  1  0  0  0  0
 16 19  2  0  0  0  0
 17  1  1  0  0  0  0
 17 10  1  0  0  0  0
 18 16  1  0  0  0  0
 18 12  2  0  0  0  0
 19 14  1  0  0  0  0
 19 11  1  0  0  0  0
 20 21  1  0  0  0  0
 21  3  1  0  0  0  0
 22 29  1  0  0  0  0
 23 26  1  0  0  0  0
 23 28  1  0  0  0  0
 24 25  2  0  0  0  0
 24 29  1  0  0  0  0
 26 24  1  0  0  0  0
 27 30  2  0  0  0  0
 27 26  1  0  0  0  0
 28 21  1  6  0  0  0
 28 22  1  0  0  0  0
 31 32  1  0  0  0  0
 32 33  1  0  0  0  0
 33 34  1  0  0  0  0
 34 35  1  0  0  0  0
 36 42  1  0  0  0  0
 37 35  1  6  0  0  0
 37 41  1  0  0  0  0
 38 39  2  0  0  0  0
 40 36  2  0  0  0  0
 40 37  1  0  0  0  0
 41 38  1  0  0  0  0
 42 38  1  0  0  0  0
M  END
>  <MODEL>
9

>  <REMARK>
 VINA RESULT:      -8.4      5.407     11.721
  Name = 
  8 active torsions:
  status: ('A' for Active; 'I' for Inactive)
    1  A    between atoms: C_2  and  C_20
    2  A    between atoms: C_4  and  O_33
    3  A    between atoms: C_5  and  N_27
    4  A    between atoms: C_12  and  O_33
    5  A    between atoms: C_12  and  C_37
    6  A    between atoms: C_20  and  C_24
    7  A    between atoms: C_24  and  C_37
    8  A    between atoms: N_27  and  C_34
                            x       y       z     vdW  Elec       q    Type
                         _______ _______ _______ _____ _____    ______ ____

>  <TORSDO>
F 8

$$$$
