=
 OpenBabel10222419293D

 42 48  0  0  1  0  0  0  0  0999 V2000
  188.1570  177.4950  145.3240 C   0  0  0  0  0  0  0  0  0  0  0  0
  189.4320  177.3020  144.7740 C   0  0  0  0  0  0  0  0  0  0  0  0
  189.1750  177.1280  147.5260 C   0  0  0  0  0  3  0  0  0  0  0  0
  191.2440  176.9940  143.3440 N   0  0  0  0  0  0  0  0  0  0  0  0
  189.8620  177.2860  143.4220 N   0  0  0  0  0  0  0  0  0  0  0  0
  190.4320  176.9340  146.9270 C   0  0  0  0  0  0  0  0  0  0  0  0
  190.5120  177.0310  145.5390 C   0  0  0  0  0  0  0  0  0  0  0  0
  191.6360  176.8410  144.6960 N   0  0  0  0  0  0  0  0  0  0  0  0
  191.6290  176.6280  147.7580 C   0  0  0  0  0  1  0  0  0  0  0  0
  188.0430  177.4050  146.7290 C   0  0  0  0  0  3  0  0  0  0  0  0
  186.9970  177.7780  144.4670 C   0  0  0  0  0  3  0  0  0  0  0  0
  185.8350  178.2250  144.9270 C   0  0  0  0  0  3  0  0  0  0  0  0
  184.7300  178.4890  143.9660 C   0  0  2  0  0  3  0  0  0  0  0  0
  185.0120  179.6500  143.2290 O   0  0  0  0  0  0  0  0  0  0  0  0
  180.3750  178.0750  141.3580 C   0  0  0  0  0  2  0  0  0  0  0  0
  182.3650  177.0570  140.0590 C   0  0  0  0  0  2  0  0  0  0  0  0
  185.8820  178.6960  141.1520 C   0  0  0  0  0  1  0  0  0  0  0  0
  183.4270  178.6990  144.7180 C   0  0  0  0  0  2  0  0  0  0  0  0
  182.2510  179.3470  142.5430 C   0  0  1  0  0  3  0  0  0  0  0  0
  183.2540  177.3980  141.2540 C   0  0  0  0  0  2  0  0  0  0  0  0
  182.2260  178.4710  143.8050 C   0  0  0  0  0  2  0  0  0  0  0  0
  183.3170  178.9060  141.5170 C   0  0  2  0  0  3  0  0  0  0  0  0
  180.8570  179.4140  141.9160 C   0  0  0  0  0  2  0  0  0  0  0  0
  181.0260  177.8100  140.0000 C   0  0  1  0  0  3  0  0  0  0  0  0
  184.7390  179.4130  141.8630 C   0  0  1  0  0  3  0  0  0  0  0  0
  180.0940  177.1770  139.0640 N   0  0  0  0  0  2  0  0  0  0  0  0
  180.7090  176.0110  138.4400 C   0  0  0  0  0  1  0  0  0  0  0  0
  189.5180  177.6070  141.0580 C   0  0  0  0  0  3  0  0  0  0  0  0
  189.0210  177.4730  142.2810 C   0  0  0  0  0  3  0  0  0  0  0  0
  188.6070  177.7950  139.8930 C   0  0  0  0  0  2  0  0  0  0  0  0
  191.6090  176.7880  137.8560 O   0  0  0  0  0  0  0  0  0  0  0  0
  189.0660  176.6180  137.4350 N   0  0  0  0  0  0  0  0  0  0  0  0
  189.2070  177.2430  138.6890 N   0  0  0  0  0  0  0  0  0  0  0  0
  190.3570  176.8620  137.9590 C   0  0  0  0  0  0  0  0  0  0  0  0
  186.4730  174.9770  136.7850 C   0  0  0  0  0  0  0  0  0  0  0  0
  186.7870  176.3600  136.7160 C   0  0  0  0  0  0  0  0  0  0  0  0
  185.8590  177.3580  136.9480 C   0  0  0  0  0  3  0  0  0  0  0  0
  188.2110  176.1330  136.3640 C   0  0  2  0  0  3  0  0  0  0  0  0
  188.1390  174.4060  136.3950 S   0  0  0  0  0  0  0  0  0  0  0  0
  185.2090  174.5090  137.0940 C   0  0  0  0  0  3  0  0  0  0  0  0
  184.5560  176.9010  137.2650 C   0  0  0  0  0  3  0  0  0  0  0  0
  184.2400  175.5110  137.3370 C   0  0  0  0  0  3  0  0  0  0  0  0
  1 10  1  0  0  0  0
  2  1  2  0  0  0  0
  2  7  1  0  0  0  0
  4  5  1  0  0  0  0
  4  8  2  0  0  0  0
  5  2  1  0  0  0  0
  6  3  1  0  0  0  0
  6  9  1  0  0  0  0
  7  6  2  0  0  0  0
  8  7  1  0  0  0  0
 10  3  2  0  0  0  0
 11 12  2  0  0  0  0
 11  1  1  0  0  0  0
 13 18  1  0  0  0  0
 13 12  1  1  0  0  0
 14 13  1  0  0  0  0
 15 23  1  0  0  0  0
 16 20  1  0  0  0  0
 19 23  1  6  0  0  0
 19 21  1  0  0  0  0
 21 18  1  0  0  0  0
 22 20  1  1  0  0  0
 22 25  1  0  0  0  0
 22 19  1  0  0  0  0
 24 26  1  6  0  0  0
 24 16  1  0  0  0  0
 24 15  1  0  0  0  0
 25 17  1  1  0  0  0
 25 14  1  0  0  0  0
 27 26  1  0  0  0  0
 28 29  2  0  0  0  0
 29  5  1  0  0  0  0
 30 28  1  0  0  0  0
 31 34  2  0  0  0  0
 32 34  1  0  0  0  0
 32 33  1  0  0  0  0
 33 30  1  0  0  0  0
 34 33  1  0  0  0  0
 35 40  1  0  0  0  0
 36 35  2  0  0  0  0
 36 37  1  0  0  0  0
 37 41  2  0  0  0  0
 38 39  1  0  0  0  0
 38 36  1  0  0  0  0
 38 32  1  1  0  0  0
 39 35  1  0  0  0  0
 40 42  2  0  0  0  0
 41 42  1  0  0  0  0
M  END
>  <MODEL>
1

>  <REMARK>
 VINA RESULT:      -9.9      0.000      0.000
  Name = 
  7 active torsions:
  status: ('A' for Active; 'I' for Inactive)
    1  A    between atoms: C_1  and  C_3
    2  A    between atoms: C_2  and  C_40
    3  A    between atoms: N_12  and  C_33
    4  A    between atoms: C_17  and  N_19
    5  A    between atoms: C_22  and  C_29
    6  A    between atoms: N_27  and  C_36
    7  A    between atoms: C_29  and  N_38
                            x       y       z     vdW  Elec       q    Type
                         _______ _______ _______ _____ _____    ______ ____

>  <TORSDO>
F 7

$$$$
=
 OpenBabel10222419293D

 42 48  0  0  1  0  0  0  0  0999 V2000
  187.6670  177.5990  144.3760 C   0  0  0  0  0  0  0  0  0  0  0  0
  186.6300  178.0620  145.2000 C   0  0  0  0  0  0  0  0  0  0  0  0
  188.9900  177.2760  146.4170 C   0  0  0  0  0  3  0  0  0  0  0  0
  184.6580  178.9710  146.0390 N   0  0  0  0  0  0  0  0  0  0  0  0
  185.3460  178.5670  144.8710 N   0  0  0  0  0  0  0  0  0  0  0  0
  187.9250  177.7550  147.2000 C   0  0  0  0  0  0  0  0  0  0  0  0
  186.7570  178.1390  146.5420 C   0  0  0  0  0  0  0  0  0  0  0  0
  185.5680  178.6870  147.0860 N   0  0  0  0  0  0  0  0  0  0  0  0
  188.0550  177.8520  148.6800 C   0  0  0  0  0  1  0  0  0  0  0  0
  188.8630  177.2000  145.0130 C   0  0  0  0  0  3  0  0  0  0  0  0
  187.5040  177.5360  142.9170 C   0  0  0  0  0  3  0  0  0  0  0  0
  188.2150  178.2650  142.0670 C   0  0  0  0  0  3  0  0  0  0  0  0
  187.9750  178.1130  140.6060 C   0  0  2  0  0  3  0  0  0  0  0  0
  188.8420  178.9580  139.8940 O   0  0  0  0  0  0  0  0  0  0  0  0
  186.0650  176.5680  136.1450 C   0  0  0  0  0  2  0  0  0  0  0  0
  188.2180  175.2750  136.7610 C   0  0  0  0  0  2  0  0  0  0  0  0
  190.5980  177.3890  139.2340 C   0  0  0  0  0  1  0  0  0  0  0  0
  186.5450  178.4990  140.2720 C   0  0  0  0  0  2  0  0  0  0  0  0
  187.0450  178.2770  137.7750 C   0  0  1  0  0  3  0  0  0  0  0  0
  188.2560  176.0620  138.0690 C   0  0  0  0  0  2  0  0  0  0  0  0
  186.1140  177.8980  138.9380 C   0  0  0  0  0  2  0  0  0  0  0  0
  188.4140  177.5670  137.8360 C   0  0  2  0  0  3  0  0  0  0  0  0
  186.3440  178.0420  136.4350 C   0  0  0  0  0  2  0  0  0  0  0  0
  187.3410  175.8820  135.6530 C   0  0  1  0  0  3  0  0  0  0  0  0
  189.4060  178.2430  138.8140 C   0  0  1  0  0  3  0  0  0  0  0  0
  187.0620  174.9100  134.5940 N   0  0  0  0  0  2  0  0  0  0  0  0
  186.7020  173.6180  135.1680 C   0  0  0  0  0  1  0  0  0  0  0  0
  183.5190  178.7290  143.3060 C   0  0  0  0  0  3  0  0  0  0  0  0
  184.8240  178.7130  143.5480 C   0  0  0  0  0  3  0  0  0  0  0  0
  183.0150  178.8890  141.9120 C   0  0  0  0  0  2  0  0  0  0  0  0
  179.4770  179.2170  143.1580 O   0  0  0  0  0  0  0  0  0  0  0  0
  180.5320  177.9060  141.1980 N   0  0  0  0  0  0  0  0  0  0  0  0
  181.6020  178.5560  141.8460 N   0  0  0  0  0  0  0  0  0  0  0  0
  180.2820  178.7160  142.3310 C   0  0  0  0  0  0  0  0  0  0  0  0
  180.7790  177.1590  138.1610 C   0  0  0  0  0  0  0  0  0  0  0  0
  181.2000  176.5150  139.3550 C   0  0  0  0  0  0  0  0  0  0  0  0
  182.3440  175.7440  139.4330 C   0  0  0  0  0  3  0  0  0  0  0  0
  180.0540  177.0100  140.1590 C   0  0  2  0  0  3  0  0  0  0  0  0
  179.3110  177.9170  138.8870 S   0  0  0  0  0  0  0  0  0  0  0  0
  181.4810  177.0730  136.9740 C   0  0  0  0  0  3  0  0  0  0  0  0
  183.0790  175.6400  138.2270 C   0  0  0  0  0  3  0  0  0  0  0  0
  182.6580  176.2890  137.0280 C   0  0  0  0  0  3  0  0  0  0  0  0
  1 10  2  0  0  0  0
  1  2  1  0  0  0  0
  2  7  2  0  0  0  0
  3  6  2  0  0  0  0
  4  8  2  0  0  0  0
  5  2  1  0  0  0  0
  5  4  1  0  0  0  0
  6  9  1  0  0  0  0
  7  8  1  0  0  0  0
  7  6  1  0  0  0  0
 10  3  1  0  0  0  0
 11  1  1  0  0  0  0
 12 11  2  0  0  0  0
 13 12  1  1  0  0  0
 14 13  1  0  0  0  0
 15 23  1  0  0  0  0
 16 20  1  0  0  0  0
 18 13  1  0  0  0  0
 19 23  1  6  0  0  0
 19 22  1  0  0  0  0
 19 21  1  0  0  0  0
 21 18  1  0  0  0  0
 22 20  1  1  0  0  0
 22 25  1  0  0  0  0
 24 26  1  6  0  0  0
 24 15  1  0  0  0  0
 24 16  1  0  0  0  0
 25 17  1  1  0  0  0
 25 14  1  0  0  0  0
 26 27  1  0  0  0  0
 28 29  2  0  0  0  0
 29  5  1  0  0  0  0
 30 28  1  0  0  0  0
 32 33  1  0  0  0  0
 32 34  1  0  0  0  0
 33 30  1  0  0  0  0
 33 34  1  0  0  0  0
 34 31  2  0  0  0  0
 35 39  1  0  0  0  0
 35 36  1  0  0  0  0
 36 37  2  0  0  0  0
 36 38  1  0  0  0  0
 38 32  1  1  0  0  0
 39 38  1  0  0  0  0
 40 42  1  0  0  0  0
 40 35  2  0  0  0  0
 41 37  1  0  0  0  0
 42 41  2  0  0  0  0
M  END
>  <MODEL>
2

>  <REMARK>
 VINA RESULT:      -9.9      2.911      6.409
  Name = 
  7 active torsions:
  status: ('A' for Active; 'I' for Inactive)
    1  A    between atoms: C_1  and  C_3
    2  A    between atoms: C_2  and  C_40
    3  A    between atoms: N_12  and  C_33
    4  A    between atoms: C_17  and  N_19
    5  A    between atoms: C_22  and  C_29
    6  A    between atoms: N_27  and  C_36
    7  A    between atoms: C_29  and  N_38
                            x       y       z     vdW  Elec       q    Type
                         _______ _______ _______ _____ _____    ______ ____

>  <TORSDO>
F 7

$$$$
=
 OpenBabel10222419293D

 42 48  0  0  1  0  0  0  0  0999 V2000
  185.3960  177.4370  137.4690 C   0  0  0  0  0  0  0  0  0  0  0  0
  185.1090  178.2360  138.5850 C   0  0  0  0  0  0  0  0  0  0  0  0
  183.0380  177.6760  136.8340 C   0  0  0  0  0  3  0  0  0  0  0  0
  185.1910  179.4100  140.5940 N   0  0  0  0  0  0  0  0  0  0  0  0
  185.9350  178.6500  139.6610 N   0  0  0  0  0  0  0  0  0  0  0  0
  182.7970  178.4670  137.9710 C   0  0  0  0  0  0  0  0  0  0  0  0
  183.8710  178.7220  138.8230 C   0  0  0  0  0  0  0  0  0  0  0  0
  183.8880  179.4460  140.0420 N   0  0  0  0  0  0  0  0  0  0  0  0
  181.4360  179.0020  138.2490 C   0  0  0  0  0  1  0  0  0  0  0  0
  184.3290  177.1610  136.5850 C   0  0  0  0  0  3  0  0  0  0  0  0
  186.7500  176.9140  137.2410 C   0  0  0  0  0  3  0  0  0  0  0  0
  187.0050  175.8200  136.5330 C   0  0  0  0  0  3  0  0  0  0  0  0
  188.4170  175.3860  136.3560 C   0  0  2  0  0  3  0  0  0  0  0  0
  188.7530  175.4160  134.9930 O   0  0  0  0  0  0  0  0  0  0  0  0
  193.1460  173.7630  137.3290 C   0  0  0  0  0  2  0  0  0  0  0  0
  193.0460  176.3380  137.1140 C   0  0  0  0  0  2  0  0  0  0  0  0
  189.9430  177.5470  134.8440 C   0  0  0  0  0  1  0  0  0  0  0  0
  188.5920  173.9660  136.8650 C   0  0  0  0  0  2  0  0  0  0  0  0
  190.9850  173.9160  135.9690 C   0  0  1  0  0  3  0  0  0  0  0  0
  191.5370  176.2110  136.9110 C   0  0  0  0  0  2  0  0  0  0  0  0
  190.0570  173.6700  137.1690 C   0  0  0  0  0  2  0  0  0  0  0  0
  191.1870  175.4130  135.6530 C   0  0  2  0  0  3  0  0  0  0  0  0
  192.3210  173.1970  136.1740 C   0  0  0  0  0  2  0  0  0  0  0  0
  193.8500  175.0470  136.8880 C   0  0  1  0  0  3  0  0  0  0  0  0
  190.0190  176.0240  134.8390 C   0  0  1  0  0  3  0  0  0  0  0  0
  195.1990  175.1480  137.4490 N   0  0  0  0  0  2  0  0  0  0  0  0
  195.4310  174.0830  138.4180 C   0  0  0  0  0  1  0  0  0  0  0  0
  187.9100  178.3680  141.0130 C   0  0  0  0  0  3  0  0  0  0  0  0
  187.3130  178.3070  139.8300 C   0  0  0  0  0  3  0  0  0  0  0  0
  189.3480  177.9970  141.1490 C   0  0  0  0  0  2  0  0  0  0  0  0
  191.5750  179.2090  143.9340 O   0  0  0  0  0  0  0  0  0  0  0  0
  189.5160  177.6480  143.8860 N   0  0  0  0  0  0  0  0  0  0  0  0
  189.7460  178.0230  142.5470 N   0  0  0  0  0  0  0  0  0  0  0  0
  190.5920  178.5120  143.5710 C   0  0  0  0  0  0  0  0  0  0  0  0
  187.6410  177.8570  146.3920 C   0  0  0  0  0  0  0  0  0  0  0  0
  187.4140  177.4870  145.0410 C   0  0  0  0  0  0  0  0  0  0  0  0
  186.2270  177.7380  144.3790 C   0  0  0  0  0  3  0  0  0  0  0  0
  188.7580  176.8830  144.8620 C   0  0  2  0  0  3  0  0  0  0  0  0
  189.3300  177.2240  146.4580 S   0  0  0  0  0  0  0  0  0  0  0  0
  186.6940  178.5030  147.1630 C   0  0  0  0  0  3  0  0  0  0  0  0
  185.2400  178.3980  145.1500 C   0  0  0  0  0  3  0  0  0  0  0  0
  185.4680  178.7720  146.5090 C   0  0  0  0  0  3  0  0  0  0  0  0
  1  2  1  0  0  0  0
  2  7  2  0  0  0  0
  2  5  1  0  0  0  0
  3  6  2  0  0  0  0
  5 29  1  0  0  0  0
  5  4  1  0  0  0  0
  6  9  1  0  0  0  0
  6  7  1  0  0  0  0
  7  8  1  0  0  0  0
  8  4  2  0  0  0  0
 10  3  1  0  0  0  0
 10  1  2  0  0  0  0
 11  1  1  0  0  0  0
 12 11  2  0  0  0  0
 13 12  1  6  0  0  0
 13 18  1  0  0  0  0
 14 13  1  0  0  0  0
 18 21  1  0  0  0  0
 19 23  1  1  0  0  0
 19 21  1  0  0  0  0
 20 16  1  0  0  0  0
 22 19  1  0  0  0  0
 22 20  1  1  0  0  0
 23 15  1  0  0  0  0
 24 16  1  0  0  0  0
 24 15  1  0  0  0  0
 24 26  1  1  0  0  0
 25 17  1  1  0  0  0
 25 14  1  0  0  0  0
 25 22  1  0  0  0  0
 26 27  1  0  0  0  0
 28 30  1  0  0  0  0
 29 28  2  0  0  0  0
 30 33  1  0  0  0  0
 33 34  1  0  0  0  0
 33 32  1  0  0  0  0
 34 32  1  0  0  0  0
 34 31  2  0  0  0  0
 35 39  1  0  0  0  0
 35 40  1  0  0  0  0
 36 35  2  0  0  0  0
 37 36  1  0  0  0  0
 37 41  2  0  0  0  0
 38 32  1  6  0  0  0
 38 36  1  0  0  0  0
 38 39  1  0  0  0  0
 41 42  1  0  0  0  0
 42 40  2  0  0  0  0
M  END
>  <MODEL>
3

>  <REMARK>
 VINA RESULT:      -9.6      3.325      9.817
  Name = 
  7 active torsions:
  status: ('A' for Active; 'I' for Inactive)
    1  A    between atoms: C_1  and  C_3
    2  A    between atoms: C_2  and  C_40
    3  A    between atoms: N_12  and  C_33
    4  A    between atoms: C_17  and  N_19
    5  A    between atoms: C_22  and  C_29
    6  A    between atoms: N_27  and  C_36
    7  A    between atoms: C_29  and  N_38
                            x       y       z     vdW  Elec       q    Type
                         _______ _______ _______ _____ _____    ______ ____

>  <TORSDO>
F 7

$$$$
=
 OpenBabel10222419293D

 42 48  0  0  1  0  0  0  0  0999 V2000
  186.7790  177.8850  144.0740 C   0  0  0  0  0  0  0  0  0  0  0  0
  188.1630  177.6560  144.0790 C   0  0  0  0  0  0  0  0  0  0  0  0
  186.8460  177.6530  146.5160 C   0  0  0  0  0  3  0  0  0  0  0  0
  190.3810  177.2570  143.4920 N   0  0  0  0  0  0  0  0  0  0  0  0
  189.0860  177.5550  143.0060 N   0  0  0  0  0  0  0  0  0  0  0  0
  188.2330  177.4210  146.4690 C   0  0  0  0  0  0  0  0  0  0  0  0
  188.8510  177.4310  145.2190 C   0  0  0  0  0  0  0  0  0  0  0  0
  190.2100  177.1880  144.8960 N   0  0  0  0  0  0  0  0  0  0  0  0
  189.0020  177.1650  147.7170 C   0  0  0  0  0  1  0  0  0  0  0  0
  186.1230  177.8820  145.3240 C   0  0  0  0  0  3  0  0  0  0  0  0
  186.0550  178.1160  142.8160 C   0  0  0  0  0  3  0  0  0  0  0  0
  184.7350  178.0300  142.7020 C   0  0  0  0  0  3  0  0  0  0  0  0
  184.1040  178.2950  141.3820 C   0  0  2  0  0  3  0  0  0  0  0  0
  184.7360  179.3880  140.7670 O   0  0  0  0  0  0  0  0  0  0  0  0
  181.0530  177.9680  137.3160 C   0  0  0  0  0  2  0  0  0  0  0  0
  183.3020  176.7540  136.9220 C   0  0  0  0  0  2  0  0  0  0  0  0
  186.2540  178.2520  139.2220 C   0  0  0  0  0  1  0  0  0  0  0  0
  182.6340  178.6290  141.5650 C   0  0  0  0  0  2  0  0  0  0  0  0
  182.4300  179.2020  139.0830 C   0  0  1  0  0  3  0  0  0  0  0  0
  183.6920  177.1190  138.3530 C   0  0  0  0  0  2  0  0  0  0  0  0
  181.8570  178.4120  140.2710 C   0  0  0  0  0  2  0  0  0  0  0  0
  183.7680  178.6340  138.5640 C   0  0  2  0  0  3  0  0  0  0  0  0
  181.3900  179.3090  137.9650 C   0  0  0  0  0  2  0  0  0  0  0  0
  182.1490  177.5780  136.3240 C   0  0  1  0  0  3  0  0  0  0  0  0
  184.9860  179.0790  139.4110 C   0  0  1  0  0  3  0  0  0  0  0  0
  181.5980  176.9410  135.1260 N   0  0  0  0  0  2  0  0  0  0  0  0
  182.0880  175.5720  135.0040 C   0  0  0  0  0  1  0  0  0  0  0  0
  189.6930  177.6160  140.6740 C   0  0  0  0  0  3  0  0  0  0  0  0
  188.7620  177.6730  141.6180 C   0  0  0  0  0  3  0  0  0  0  0  0
  189.3140  177.7380  139.2370 C   0  0  0  0  0  2  0  0  0  0  0  0
  192.7160  176.3900  138.3460 O   0  0  0  0  0  0  0  0  0  0  0  0
  190.3540  175.9680  137.3860 N   0  0  0  0  0  0  0  0  0  0  0  0
  190.1880  176.9160  138.4140 N   0  0  0  0  0  0  0  0  0  0  0  0
  191.4780  176.4170  138.1190 C   0  0  0  0  0  0  0  0  0  0  0  0
  188.6870  173.3900  136.7430 C   0  0  0  0  0  0  0  0  0  0  0  0
  188.3950  174.7770  136.6630 C   0  0  0  0  0  0  0  0  0  0  0  0
  187.1340  175.2970  136.8860 C   0  0  0  0  0  3  0  0  0  0  0  0
  189.7860  175.1640  136.3160 C   0  0  2  0  0  3  0  0  0  0  0  0
  190.4420  173.5650  136.3610 S   0  0  0  0  0  0  0  0  0  0  0  0
  187.7340  172.4380  137.0520 C   0  0  0  0  0  3  0  0  0  0  0  0
  186.1400  174.3400  137.2030 C   0  0  0  0  0  3  0  0  0  0  0  0
  186.4330  172.9450  137.2850 C   0  0  0  0  0  3  0  0  0  0  0  0
  1  2  2  0  0  0  0
  1 10  1  0  0  0  0
  2  7  1  0  0  0  0
  4  8  2  0  0  0  0
  5  4  1  0  0  0  0
  5  2  1  0  0  0  0
  6  3  1  0  0  0  0
  6  9  1  0  0  0  0
  7  6  2  0  0  0  0
  8  7  1  0  0  0  0
 10  3  2  0  0  0  0
 11  1  1  0  0  0  0
 12 11  2  0  0  0  0
 13 18  1  0  0  0  0
 13 12  1  1  0  0  0
 14 13  1  0  0  0  0
 15 23  1  0  0  0  0
 16 20  1  0  0  0  0
 19 23  1  6  0  0  0
 19 21  1  0  0  0  0
 21 18  1  0  0  0  0
 22 20  1  1  0  0  0
 22 19  1  0  0  0  0
 22 25  1  0  0  0  0
 24 26  1  6  0  0  0
 24 16  1  0  0  0  0
 24 15  1  0  0  0  0
 25 17  1  1  0  0  0
 25 14  1  0  0  0  0
 27 26  1  0  0  0  0
 28 29  2  0  0  0  0
 29  5  1  0  0  0  0
 30 28  1  0  0  0  0
 32 34  1  0  0  0  0
 32 33  1  0  0  0  0
 33 30  1  0  0  0  0
 34 31  2  0  0  0  0
 34 33  1  0  0  0  0
 35 40  1  0  0  0  0
 36 35  2  0  0  0  0
 36 37  1  0  0  0  0
 37 41  2  0  0  0  0
 38 39  1  0  0  0  0
 38 36  1  0  0  0  0
 38 32  1  1  0  0  0
 39 35  1  0  0  0  0
 40 42  2  0  0  0  0
 41 42  1  0  0  0  0
M  END
>  <MODEL>
4

>  <REMARK>
 VINA RESULT:      -9.4      1.760      2.588
  Name = 
  7 active torsions:
  status: ('A' for Active; 'I' for Inactive)
    1  A    between atoms: C_1  and  C_3
    2  A    between atoms: C_2  and  C_40
    3  A    between atoms: N_12  and  C_33
    4  A    between atoms: C_17  and  N_19
    5  A    between atoms: C_22  and  C_29
    6  A    between atoms: N_27  and  C_36
    7  A    between atoms: C_29  and  N_38
                            x       y       z     vdW  Elec       q    Type
                         _______ _______ _______ _____ _____    ______ ____

>  <TORSDO>
F 7

$$$$
=
 OpenBabel10222419293D

 42 48  0  0  1  0  0  0  0  0999 V2000
  185.6240  178.2590  144.8530 C   0  0  0  0  0  0  0  0  0  0  0  0
  187.0060  178.0250  144.8490 C   0  0  0  0  0  0  0  0  0  0  0  0
  185.7870  178.4960  147.2900 C   0  0  0  0  0  3  0  0  0  0  0  0
  189.2000  177.5050  144.2640 N   0  0  0  0  0  0  0  0  0  0  0  0
  187.8870  177.7150  143.7800 N   0  0  0  0  0  0  0  0  0  0  0  0
  187.1700  178.2480  147.2350 C   0  0  0  0  0  0  0  0  0  0  0  0
  187.7390  178.0160  145.9840 C   0  0  0  0  0  0  0  0  0  0  0  0
  189.0840  177.7050  145.6610 N   0  0  0  0  0  0  0  0  0  0  0  0
  187.9870  178.2290  148.4800 C   0  0  0  0  0  1  0  0  0  0  0  0
  185.0170  178.5000  146.1060 C   0  0  0  0  0  3  0  0  0  0  0  0
  184.8510  178.2520  143.6030 C   0  0  0  0  0  3  0  0  0  0  0  0
  183.6510  178.8070  143.4780 C   0  0  0  0  0  3  0  0  0  0  0  0
  182.9620  178.7510  142.1620 C   0  0  2  0  0  3  0  0  0  0  0  0
  181.7260  178.0990  142.3030 O   0  0  0  0  0  0  0  0  0  0  0  0
  181.9270  179.3130  137.2060 C   0  0  0  0  0  2  0  0  0  0  0  0
  180.8320  181.1760  138.6270 C   0  0  0  0  0  2  0  0  0  0  0  0
  180.1960  180.0020  142.4300 C   0  0  0  0  0  1  0  0  0  0  0  0
  183.8060  177.9750  141.1650 C   0  0  0  0  0  2  0  0  0  0  0  0
  181.9160  178.0810  139.4480 C   0  0  1  0  0  3  0  0  0  0  0  0
  181.4910  180.5540  139.8570 C   0  0  0  0  0  2  0  0  0  0  0  0
  183.4080  178.3130  139.7320 C   0  0  0  0  0  2  0  0  0  0  0  0
  181.0000  179.1270  140.1180 C   0  0  2  0  0  3  0  0  0  0  0  0
  181.6690  177.9970  137.9400 C   0  0  0  0  0  2  0  0  0  0  0  0
  180.7400  180.2580  137.3960 C   0  0  1  0  0  3  0  0  0  0  0  0
  180.7320  178.8300  141.6150 C   0  0  1  0  0  3  0  0  0  0  0  0
  180.4490  181.0180  136.1790 N   0  0  0  0  0  2  0  0  0  0  0  0
  180.7700  182.4280  136.3680 C   0  0  0  0  0  1  0  0  0  0  0  0
  187.8830  178.4430  141.4820 C   0  0  0  0  0  3  0  0  0  0  0  0
  187.5100  177.5690  142.4090 C   0  0  0  0  0  3  0  0  0  0  0  0
  187.4730  178.2530  140.0610 C   0  0  0  0  0  2  0  0  0  0  0  0
  190.8970  176.7020  139.8310 O   0  0  0  0  0  0  0  0  0  0  0  0
  188.8950  176.7860  138.1990 N   0  0  0  0  0  0  0  0  0  0  0  0
  188.4950  177.5150  139.3370 N   0  0  0  0  0  0  0  0  0  0  0  0
  189.7830  176.9300  139.2920 C   0  0  0  0  0  0  0  0  0  0  0  0
  186.9250  175.0590  136.4760 C   0  0  0  0  0  0  0  0  0  0  0  0
  187.1680  176.4550  136.5600 C   0  0  0  0  0  0  0  0  0  0  0  0
  186.1830  177.4060  136.3750 C   0  0  0  0  0  3  0  0  0  0  0  0
  188.6140  176.2980  136.8600 C   0  0  2  0  0  3  0  0  0  0  0  0
  188.6220  174.5680  136.8430 S   0  0  0  0  0  0  0  0  0  0  0  0
  185.6780  174.5290  136.2010 C   0  0  0  0  0  3  0  0  0  0  0  0
  184.8960  176.8860  136.0910 C   0  0  0  0  0  3  0  0  0  0  0  0
  184.6500  175.4830  136.0070 C   0  0  0  0  0  3  0  0  0  0  0  0
  1 10  1  0  0  0  0
  2  1  2  0  0  0  0
  2  7  1  0  0  0  0
  4  8  2  0  0  0  0
  5  4  1  0  0  0  0
  5  2  1  0  0  0  0
  6  3  1  0  0  0  0
  6  9  1  0  0  0  0
  7  6  2  0  0  0  0
  8  7  1  0  0  0  0
 10  3  2  0  0  0  0
 11  1  1  0  0  0  0
 12 11  2  0  0  0  0
 13 14  1  0  0  0  0
 13 12  1  1  0  0  0
 15 24  1  0  0  0  0
 15 23  1  0  0  0  0
 16 20  1  0  0  0  0
 18 13  1  0  0  0  0
 19 23  1  6  0  0  0
 19 21  1  0  0  0  0
 19 22  1  0  0  0  0
 21 18  1  0  0  0  0
 22 20  1  1  0  0  0
 22 25  1  0  0  0  0
 24 26  1  6  0  0  0
 24 16  1  0  0  0  0
 25 14  1  0  0  0  0
 25 17  1  1  0  0  0
 26 27  1  0  0  0  0
 28 29  2  0  0  0  0
 29  5  1  0  0  0  0
 30 28  1  0  0  0  0
 32 34  1  0  0  0  0
 32 33  1  0  0  0  0
 33 30  1  0  0  0  0
 34 33  1  0  0  0  0
 34 31  2  0  0  0  0
 35 36  1  0  0  0  0
 35 39  1  0  0  0  0
 36 38  1  0  0  0  0
 37 36  2  0  0  0  0
 38 32  1  1  0  0  0
 39 38  1  0  0  0  0
 40 35  2  0  0  0  0
 41 37  1  0  0  0  0
 42 41  2  0  0  0  0
 42 40  1  0  0  0  0
M  END
>  <MODEL>
5

>  <REMARK>
 VINA RESULT:      -9.3      2.047      3.117
  Name = 
  7 active torsions:
  status: ('A' for Active; 'I' for Inactive)
    1  A    between atoms: C_1  and  C_3
    2  A    between atoms: C_2  and  C_40
    3  A    between atoms: N_12  and  C_33
    4  A    between atoms: C_17  and  N_19
    5  A    between atoms: C_22  and  C_29
    6  A    between atoms: N_27  and  C_36
    7  A    between atoms: C_29  and  N_38
                            x       y       z     vdW  Elec       q    Type
                         _______ _______ _______ _____ _____    ______ ____

>  <TORSDO>
F 7

$$$$
=
 OpenBabel10222419293D

 42 48  0  0  1  0  0  0  0  0999 V2000
  183.5280  178.6960  141.8410 C   0  0  0  0  0  0  0  0  0  0  0  0
  183.9960  178.9790  140.5500 C   0  0  0  0  0  0  0  0  0  0  0  0
  181.2870  179.2890  141.0350 C   0  0  0  0  0  3  0  0  0  0  0  0
  185.3100  179.3770  138.6690 N   0  0  0  0  0  0  0  0  0  0  0  0
  185.3120  178.9580  140.0200 N   0  0  0  0  0  0  0  0  0  0  0  0
  181.8060  179.5680  139.7580 C   0  0  0  0  0  0  0  0  0  0  0  0
  183.1750  179.3980  139.5620 C   0  0  0  0  0  0  0  0  0  0  0  0
  183.9460  179.6470  138.3990 N   0  0  0  0  0  0  0  0  0  0  0  0
  180.9130  180.0370  138.6630 C   0  0  0  0  0  1  0  0  0  0  0  0
  182.1440  178.8560  142.0720 C   0  0  0  0  0  3  0  0  0  0  0  0
  184.4460  178.2520  142.8990 C   0  0  0  0  0  3  0  0  0  0  0  0
  185.0000  179.0730  143.7830 C   0  0  0  0  0  3  0  0  0  0  0  0
  185.9080  178.5140  144.8200 C   0  0  2  0  0  3  0  0  0  0  0  0
  185.7010  177.1290  144.9320 O   0  0  0  0  0  0  0  0  0  0  0  0
  189.4460  178.1260  148.4640 C   0  0  0  0  0  2  0  0  0  0  0  0
  190.4080  177.5510  146.1340 C   0  0  0  0  0  2  0  0  0  0  0  0
  187.5550  176.2620  143.5940 C   0  0  0  0  0  1  0  0  0  0  0  0
  185.6180  179.1550  146.1660 C   0  0  0  0  0  2  0  0  0  0  0  0
  187.2390  177.5440  147.3090 C   0  0  1  0  0  3  0  0  0  0  0  0
  189.0370  177.8770  145.5430 C   0  0  0  0  0  2  0  0  0  0  0  0
  186.8050  179.0050  147.1110 C   0  0  0  0  0  2  0  0  0  0  0  0
  187.9430  176.9460  146.0720 C   0  0  2  0  0  3  0  0  0  0  0  0
  188.0990  177.4110  148.5680 C   0  0  0  0  0  2  0  0  0  0  0  0
  190.4250  177.2810  147.6470 C   0  0  1  0  0  3  0  0  0  0  0  0
  186.9520  176.4740  144.9790 C   0  0  1  0  0  3  0  0  0  0  0  0
  191.7830  177.3450  148.1900 N   0  0  0  0  0  2  0  0  0  0  0  0
  192.4340  176.0430  148.0940 C   0  0  0  0  0  1  0  0  0  0  0  0
  187.6140  178.2510  140.1380 C   0  0  0  0  0  3  0  0  0  0  0  0
  186.4960  178.6230  140.7490 C   0  0  0  0  0  3  0  0  0  0  0  0
  188.8290  177.9150  140.9340 C   0  0  0  0  0  2  0  0  0  0  0  0
  192.5090  177.5030  140.2510 O   0  0  0  0  0  0  0  0  0  0  0  0
  190.4020  177.1050  138.8100 N   0  0  0  0  0  0  0  0  0  0  0  0
  189.9350  177.5840  140.0500 N   0  0  0  0  0  0  0  0  0  0  0  0
  191.3240  177.4240  139.8350 C   0  0  0  0  0  0  0  0  0  0  0  0
  188.1450  176.2000  136.8280 C   0  0  0  0  0  0  0  0  0  0  0  0
  188.9380  177.3740  136.9230 C   0  0  0  0  0  0  0  0  0  0  0  0
  188.4780  178.6270  136.5630 C   0  0  0  0  0  3  0  0  0  0  0  0
  190.1280  176.6630  137.4530 C   0  0  2  0  0  3  0  0  0  0  0  0
  189.4120  175.0890  137.4730 S   0  0  0  0  0  0  0  0  0  0  0  0
  186.8420  176.2090  136.3690 C   0  0  0  0  0  3  0  0  0  0  0  0
  187.1440  178.6600  136.0880 C   0  0  0  0  0  3  0  0  0  0  0  0
  186.3460  177.4810  135.9940 C   0  0  0  0  0  3  0  0  0  0  0  0
  1 10  1  0  0  0  0
  1 11  1  0  0  0  0
  2  1  2  0  0  0  0
  3 10  2  0  0  0  0
  4  5  1  0  0  0  0
  5  2  1  0  0  0  0
  5 29  1  0  0  0  0
  6  3  1  0  0  0  0
  7  6  2  0  0  0  0
  7  2  1  0  0  0  0
  8  4  2  0  0  0  0
  8  7  1  0  0  0  0
  9  6  1  0  0  0  0
 11 12  2  0  0  0  0
 13 12  1  6  0  0  0
 13 14  1  0  0  0  0
 13 18  1  0  0  0  0
 14 25  1  0  0  0  0
 15 23  1  0  0  0  0
 16 24  1  0  0  0  0
 18 21  1  0  0  0  0
 19 21  1  6  0  0  0
 19 23  1  0  0  0  0
 20 16  1  0  0  0  0
 22 20  1  6  0  0  0
 22 19  1  0  0  0  0
 24 26  1  1  0  0  0
 24 15  1  0  0  0  0
 25 17  1  6  0  0  0
 25 22  1  0  0  0  0
 27 26  1  0  0  0  0
 28 29  2  0  0  0  0
 28 30  1  0  0  0  0
 32 34  1  0  0  0  0
 32 33  1  0  0  0  0
 33 30  1  0  0  0  0
 34 33  1  0  0  0  0
 34 31  2  0  0  0  0
 35 36  1  0  0  0  0
 35 39  1  0  0  0  0
 36 38  1  0  0  0  0
 37 36  2  0  0  0  0
 38 39  1  0  0  0  0
 38 32  1  1  0  0  0
 40 35  2  0  0  0  0
 41 37  1  0  0  0  0
 42 41  2  0  0  0  0
 42 40  1  0  0  0  0
M  END
>  <MODEL>
6

>  <REMARK>
 VINA RESULT:      -9.2      1.953      7.181
  Name = 
  7 active torsions:
  status: ('A' for Active; 'I' for Inactive)
    1  A    between atoms: C_1  and  C_3
    2  A    between atoms: C_2  and  C_40
    3  A    between atoms: N_12  and  C_33
    4  A    between atoms: C_17  and  N_19
    5  A    between atoms: C_22  and  C_29
    6  A    between atoms: N_27  and  C_36
    7  A    between atoms: C_29  and  N_38
                            x       y       z     vdW  Elec       q    Type
                         _______ _______ _______ _____ _____    ______ ____

>  <TORSDO>
F 7

$$$$
=
 OpenBabel10222419293D

 42 48  0  0  1  0  0  0  0  0999 V2000
  184.3450  178.0520  138.9630 C   0  0  0  0  0  0  0  0  0  0  0  0
  184.2090  178.4800  140.2920 C   0  0  0  0  0  0  0  0  0  0  0  0
  181.8950  177.9480  138.8650 C   0  0  0  0  0  3  0  0  0  0  0  0
  184.5800  179.1210  142.4990 N   0  0  0  0  0  0  0  0  0  0  0  0
  185.1910  178.7810  141.2700 N   0  0  0  0  0  0  0  0  0  0  0  0
  181.8100  178.3720  140.2030 C   0  0  0  0  0  0  0  0  0  0  0  0
  183.0020  178.6280  140.8800 C   0  0  0  0  0  0  0  0  0  0  0  0
  183.1930  179.0220  142.2290 N   0  0  0  0  0  0  0  0  0  0  0  0
  180.4870  178.5320  140.8660 C   0  0  0  0  0  1  0  0  0  0  0  0
  183.1550  177.7870  138.2490 C   0  0  0  0  0  3  0  0  0  0  0  0
  185.6710  177.8900  138.3520 C   0  0  0  0  0  3  0  0  0  0  0  0
  185.9840  176.8970  137.5290 C   0  0  0  0  0  3  0  0  0  0  0  0
  187.3570  176.8360  136.9580 C   0  0  2  0  0  3  0  0  0  0  0  0
  187.7030  178.0880  136.4250 O   0  0  0  0  0  0  0  0  0  0  0  0
  191.9290  175.1250  135.5070 C   0  0  0  0  0  2  0  0  0  0  0  0
  192.0430  176.3350  137.7890 C   0  0  0  0  0  2  0  0  0  0  0  0
  189.0650  179.0150  138.2320 C   0  0  0  0  0  1  0  0  0  0  0  0
  187.4110  175.8050  135.8440 C   0  0  0  0  0  2  0  0  0  0  0  0
  189.7970  176.5180  135.2700 C   0  0  1  0  0  3  0  0  0  0  0  0
  190.5310  176.5290  137.7040 C   0  0  0  0  0  2  0  0  0  0  0  0
  188.8450  175.3540  135.5850 C   0  0  0  0  0  2  0  0  0  0  0  0
  190.1240  177.3880  136.5030 C   0  0  2  0  0  3  0  0  0  0  0  0
  191.0680  175.9970  134.5940 C   0  0  0  0  0  2  0  0  0  0  0  0
  192.7400  176.0060  136.4580 C   0  0  1  0  0  3  0  0  0  0  0  0
  189.0150  178.4200  136.8280 C   0  0  1  0  0  3  0  0  0  0  0  0
  194.0890  175.4790  136.6730 N   0  0  0  0  0  2  0  0  0  0  0  0
  194.0530  174.3390  137.5820 C   0  0  0  0  0  1  0  0  0  0  0  0
  187.4110  178.2040  142.0110 C   0  0  0  0  0  3  0  0  0  0  0  0
  186.6060  178.6970  141.0790 C   0  0  0  0  0  3  0  0  0  0  0  0
  188.8810  178.1290  141.7710 C   0  0  0  0  0  2  0  0  0  0  0  0
  191.7980  178.9760  143.9980 O   0  0  0  0  0  0  0  0  0  0  0  0
  189.6470  177.5940  144.3730 N   0  0  0  0  0  0  0  0  0  0  0  0
  189.5940  178.0330  143.0350 N   0  0  0  0  0  0  0  0  0  0  0  0
  190.6960  178.3860  143.8490 C   0  0  0  0  0  0  0  0  0  0  0  0
  188.2860  177.8080  147.1900 C   0  0  0  0  0  0  0  0  0  0  0  0
  187.7970  177.4630  145.9030 C   0  0  0  0  0  0  0  0  0  0  0  0
  186.5130  177.7510  145.4800 C   0  0  0  0  0  3  0  0  0  0  0  0
  189.0690  176.8320  145.4670 C   0  0  2  0  0  3  0  0  0  0  0  0
  189.9400  177.1360  146.9290 S   0  0  0  0  0  0  0  0  0  0  0  0
  187.5170  178.4640  148.1330 C   0  0  0  0  0  3  0  0  0  0  0  0
  185.7070  178.4220  146.4310 C   0  0  0  0  0  3  0  0  0  0  0  0
  186.1970  178.7710  147.7250 C   0  0  0  0  0  3  0  0  0  0  0  0
  1  2  1  0  0  0  0
  2  7  2  0  0  0  0
  2  5  1  0  0  0  0
  3  6  2  0  0  0  0
  5  4  1  0  0  0  0
  6  9  1  0  0  0  0
  6  7  1  0  0  0  0
  7  8  1  0  0  0  0
  8  4  2  0  0  0  0
 10  3  1  0  0  0  0
 10  1  2  0  0  0  0
 11  1  1  0  0  0  0
 12 11  2  0  0  0  0
 13 12  1  6  0  0  0
 14 25  1  0  0  0  0
 14 13  1  0  0  0  0
 15 24  1  0  0  0  0
 18 13  1  0  0  0  0
 19 23  1  1  0  0  0
 19 21  1  0  0  0  0
 19 22  1  0  0  0  0
 20 16  1  0  0  0  0
 21 18  1  0  0  0  0
 22 25  1  0  0  0  0
 22 20  1  1  0  0  0
 23 15  1  0  0  0  0
 24 26  1  1  0  0  0
 24 16  1  0  0  0  0
 25 17  1  1  0  0  0
 26 27  1  0  0  0  0
 29  5  1  0  0  0  0
 29 28  2  0  0  0  0
 30 28  1  0  0  0  0
 30 33  1  0  0  0  0
 33 34  1  0  0  0  0
 33 32  1  0  0  0  0
 34 31  2  0  0  0  0
 34 32  1  0  0  0  0
 35 40  1  0  0  0  0
 36 35  2  0  0  0  0
 37 36  1  0  0  0  0
 37 41  2  0  0  0  0
 38 32  1  6  0  0  0
 38 36  1  0  0  0  0
 38 39  1  0  0  0  0
 39 35  1  0  0  0  0
 41 42  1  0  0  0  0
 42 40  2  0  0  0  0
M  END
>  <MODEL>
7

>  <REMARK>
 VINA RESULT:      -9.2      3.113      9.274
  Name = 
  7 active torsions:
  status: ('A' for Active; 'I' for Inactive)
    1  A    between atoms: C_1  and  C_3
    2  A    between atoms: C_2  and  C_40
    3  A    between atoms: N_12  and  C_33
    4  A    between atoms: C_17  and  N_19
    5  A    between atoms: C_22  and  C_29
    6  A    between atoms: N_27  and  C_36
    7  A    between atoms: C_29  and  N_38
                            x       y       z     vdW  Elec       q    Type
                         _______ _______ _______ _____ _____    ______ ____

>  <TORSDO>
F 7

$$$$
=
 OpenBabel10222419293D

 42 48  0  0  1  0  0  0  0  0999 V2000
  189.5400  174.8370  136.9100 C   0  0  0  0  0  0  0  0  0  0  0  0
  190.8140  175.1870  137.3770 C   0  0  0  0  0  0  0  0  0  0  0  0
  190.6380  173.1220  135.5410 C   0  0  0  0  0  3  0  0  0  0  0  0
  192.6290  176.2250  138.4040 N   0  0  0  0  0  0  0  0  0  0  0  0
  191.2210  176.2130  138.2700 N   0  0  0  0  0  0  0  0  0  0  0  0
  191.8950  173.5150  136.0330 C   0  0  0  0  0  0  0  0  0  0  0  0
  191.9340  174.5590  136.9550 C   0  0  0  0  0  0  0  0  0  0  0  0
  193.0600  175.1670  137.5660 N   0  0  0  0  0  0  0  0  0  0  0  0
  193.1370  172.8360  135.5710 C   0  0  0  0  0  1  0  0  0  0  0  0
  189.4670  173.7800  135.9750 C   0  0  0  0  0  3  0  0  0  0  0  0
  188.3400  175.5440  137.3790 C   0  0  0  0  0  3  0  0  0  0  0  0
  187.4730  176.1380  136.5670 C   0  0  0  0  0  3  0  0  0  0  0  0
  186.2850  176.8170  137.1500 C   0  0  2  0  0  3  0  0  0  0  0  0
  185.5140  177.3840  136.1220 O   0  0  0  0  0  0  0  0  0  0  0  0
  182.8880  178.6240  140.4870 C   0  0  0  0  0  2  0  0  0  0  0  0
  182.1310  176.3650  139.4830 C   0  0  0  0  0  2  0  0  0  0  0  0
  183.7620  175.6980  135.8580 C   0  0  0  0  0  1  0  0  0  0  0  0
  186.7280  177.9270  138.0870 C   0  0  0  0  0  2  0  0  0  0  0  0
  184.3060  178.6950  138.3600 C   0  0  1  0  0  3  0  0  0  0  0  0
  183.4450  176.3290  138.7040 C   0  0  0  0  0  2  0  0  0  0  0  0
  185.6150  178.2980  139.0610 C   0  0  0  0  0  2  0  0  0  0  0  0
  183.5690  177.4980  137.7230 C   0  0  2  0  0  3  0  0  0  0  0  0
  183.4020  179.4690  139.3220 C   0  0  0  0  0  2  0  0  0  0  0  0
  181.7250  177.7460  140.0230 C   0  0  1  0  0  3  0  0  0  0  0  0
  184.1500  177.0890  136.3460 C   0  0  1  0  0  3  0  0  0  0  0  0
  180.6830  177.6380  141.0460 N   0  0  0  0  0  2  0  0  0  0  0  0
  180.0780  178.9410  141.2990 C   0  0  0  0  0  1  0  0  0  0  0  0
  190.0750  177.0850  140.2030 C   0  0  0  0  0  3  0  0  0  0  0  0
  190.3510  177.1520  138.9070 C   0  0  0  0  0  3  0  0  0  0  0  0
  189.1670  178.0870  140.8310 C   0  0  0  0  0  2  0  0  0  0  0  0
  191.0390  179.2050  143.9020 O   0  0  0  0  0  0  0  0  0  0  0  0
  188.9170  177.7680  143.5650 N   0  0  0  0  0  0  0  0  0  0  0  0
  189.3600  178.1090  142.2720 N   0  0  0  0  0  0  0  0  0  0  0  0
  190.0780  178.5620  143.4040 C   0  0  0  0  0  0  0  0  0  0  0  0
  186.6080  178.1260  145.6570 C   0  0  0  0  0  0  0  0  0  0  0  0
  186.6340  177.6740  144.3110 C   0  0  0  0  0  0  0  0  0  0  0  0
  185.5950  177.8820  143.4240 C   0  0  0  0  0  3  0  0  0  0  0  0
  187.9820  177.0620  144.4260 C   0  0  2  0  0  3  0  0  0  0  0  0
  188.2470  177.5010  146.0770 S   0  0  0  0  0  0  0  0  0  0  0  0
  185.5390  178.8160  146.1960 C   0  0  0  0  0  3  0  0  0  0  0  0
  184.4880  178.5870  143.9550 C   0  0  0  0  0  3  0  0  0  0  0  0
  184.4610  179.0430  145.3070 C   0  0  0  0  0  3  0  0  0  0  0  0
  1  2  1  0  0  0  0
  1 11  1  0  0  0  0
  2  5  1  0  0  0  0
  3 10  1  0  0  0  0
  3  6  2  0  0  0  0
  5  4  1  0  0  0  0
  5 29  1  0  0  0  0
  6  7  1  0  0  0  0
  7  2  2  0  0  0  0
  7  8  1  0  0  0  0
  8  4  2  0  0  0  0
  9  6  1  0  0  0  0
 10  1  2  0  0  0  0
 12 11  2  0  0  0  0
 13 12  1  6  0  0  0
 13 18  1  0  0  0  0
 14 25  1  0  0  0  0
 14 13  1  0  0  0  0
 16 24  1  0  0  0  0
 18 21  1  0  0  0  0
 19 21  1  1  0  0  0
 19 23  1  0  0  0  0
 20 16  1  0  0  0  0
 22 19  1  0  0  0  0
 22 20  1  1  0  0  0
 23 15  1  0  0  0  0
 24 15  1  0  0  0  0
 24 26  1  1  0  0  0
 25 17  1  1  0  0  0
 25 22  1  0  0  0  0
 26 27  1  0  0  0  0
 28 30  1  0  0  0  0
 29 28  2  0  0  0  0
 30 33  1  0  0  0  0
 33 34  1  0  0  0  0
 33 32  1  0  0  0  0
 34 32  1  0  0  0  0
 34 31  2  0  0  0  0
 35 39  1  0  0  0  0
 35 40  1  0  0  0  0
 36 38  1  0  0  0  0
 36 35  2  0  0  0  0
 37 41  2  0  0  0  0
 37 36  1  0  0  0  0
 38 32  1  6  0  0  0
 38 39  1  0  0  0  0
 41 42  1  0  0  0  0
 42 40  2  0  0  0  0
M  END
>  <MODEL>
8

>  <REMARK>
 VINA RESULT:      -9.2      2.908      7.158
  Name = 
  7 active torsions:
  status: ('A' for Active; 'I' for Inactive)
    1  A    between atoms: C_1  and  C_3
    2  A    between atoms: C_2  and  C_40
    3  A    between atoms: N_12  and  C_33
    4  A    between atoms: C_17  and  N_19
    5  A    between atoms: C_22  and  C_29
    6  A    between atoms: N_27  and  C_36
    7  A    between atoms: C_29  and  N_38
                            x       y       z     vdW  Elec       q    Type
                         _______ _______ _______ _____ _____    ______ ____

>  <TORSDO>
F 7

$$$$
=
 OpenBabel10222419293D

 42 48  0  0  1  0  0  0  0  0999 V2000
  188.0620  177.6070  143.8040 C   0  0  0  0  0  0  0  0  0  0  0  0
  189.3470  177.5090  143.2510 C   0  0  0  0  0  0  0  0  0  0  0  0
  189.0890  177.1500  145.9850 C   0  0  0  0  0  3  0  0  0  0  0  0
  191.1760  177.3770  141.8160 N   0  0  0  0  0  0  0  0  0  0  0  0
  189.7810  177.5980  141.9040 N   0  0  0  0  0  0  0  0  0  0  0  0
  190.3570  177.0530  145.3830 C   0  0  0  0  0  0  0  0  0  0  0  0
  190.4360  177.2410  144.0040 C   0  0  0  0  0  0  0  0  0  0  0  0
  191.5710  177.1580  143.1580 N   0  0  0  0  0  0  0  0  0  0  0  0
  191.5640  176.7520  146.2010 C   0  0  0  0  0  1  0  0  0  0  0  0
  187.9480  177.4230  145.2000 C   0  0  0  0  0  3  0  0  0  0  0  0
  186.8940  177.8890  142.9590 C   0  0  0  0  0  3  0  0  0  0  0  0
  185.6790  178.1250  143.4400 C   0  0  0  0  0  3  0  0  0  0  0  0
  184.5690  178.4110  142.4920 C   0  0  2  0  0  3  0  0  0  0  0  0
  184.9330  179.4670  141.6410 O   0  0  0  0  0  0  0  0  0  0  0  0
  180.0970  178.2000  140.0630 C   0  0  0  0  0  2  0  0  0  0  0  0
  181.9280  176.8760  138.8060 C   0  0  0  0  0  2  0  0  0  0  0  0
  185.6260  178.2480  139.6380 C   0  0  0  0  0  1  0  0  0  0  0  0
  183.3220  178.8160  143.2580 C   0  0  0  0  0  2  0  0  0  0  0  0
  182.1310  179.3800  141.0680 C   0  0  1  0  0  3  0  0  0  0  0  0
  182.8910  177.2330  139.9380 C   0  0  0  0  0  2  0  0  0  0  0  0
  182.0700  178.6280  142.4070 C   0  0  0  0  0  2  0  0  0  0  0  0
  183.1090  178.7440  140.0570 C   0  0  2  0  0  3  0  0  0  0  0  0
  180.7270  179.5290  140.4790 C   0  0  0  0  0  2  0  0  0  0  0  0
  180.6660  177.7500  138.7170 C   0  0  1  0  0  3  0  0  0  0  0  0
  184.5860  179.1370  140.3130 C   0  0  1  0  0  3  0  0  0  0  0  0
  179.6430  177.1310  137.8720 N   0  0  0  0  0  2  0  0  0  0  0  0
  179.8010  175.6820  137.8560 C   0  0  0  0  0  1  0  0  0  0  0  0
  189.4300  178.0230  139.5570 C   0  0  0  0  0  3  0  0  0  0  0  0
  188.9360  177.8170  140.7720 C   0  0  0  0  0  3  0  0  0  0  0  0
  188.5150  178.2420  138.4010 C   0  0  0  0  0  2  0  0  0  0  0  0
  186.1600  175.9120  136.6110 O   0  0  0  0  0  0  0  0  0  0  0  0
  188.6600  175.7370  137.2410 N   0  0  0  0  0  0  0  0  0  0  0  0
  188.2220  176.9790  137.7420 N   0  0  0  0  0  0  0  0  0  0  0  0
  187.3140  176.1370  137.0580 C   0  0  0  0  0  0  0  0  0  0  0  0
  191.5030  175.2110  136.0260 C   0  0  0  0  0  0  0  0  0  0  0  0
  191.0330  175.3730  137.3560 C   0  0  0  0  0  0  0  0  0  0  0  0
  191.7860  175.9550  138.3580 C   0  0  0  0  0  3  0  0  0  0  0  0
  189.7130  174.7490  137.0840 C   0  0  2  0  0  3  0  0  0  0  0  0
  189.9940  174.4400  135.4060 S   0  0  0  0  0  0  0  0  0  0  0  0
  192.7570  175.6250  135.6180 C   0  0  0  0  0  3  0  0  0  0  0  0
  193.0760  176.3860  137.9620 C   0  0  0  0  0  3  0  0  0  0  0  0
  193.5490  176.2250  136.6250 C   0  0  0  0  0  3  0  0  0  0  0  0
  1 10  1  0  0  0  0
  2  1  2  0  0  0  0
  2  7  1  0  0  0  0
  4  5  1  0  0  0  0
  4  8  2  0  0  0  0
  5  2  1  0  0  0  0
  6  3  1  0  0  0  0
  6  9  1  0  0  0  0
  7  6  2  0  0  0  0
  8  7  1  0  0  0  0
 10  3  2  0  0  0  0
 11 12  2  0  0  0  0
 11  1  1  0  0  0  0
 13 18  1  0  0  0  0
 13 12  1  1  0  0  0
 14 13  1  0  0  0  0
 15 23  1  0  0  0  0
 16 20  1  0  0  0  0
 19 23  1  6  0  0  0
 19 21  1  0  0  0  0
 21 18  1  0  0  0  0
 22 20  1  1  0  0  0
 22 25  1  0  0  0  0
 22 19  1  0  0  0  0
 24 26  1  1  0  0  0
 24 16  1  0  0  0  0
 24 15  1  0  0  0  0
 25 17  1  1  0  0  0
 25 14  1  0  0  0  0
 27 26  1  0  0  0  0
 28 29  2  0  0  0  0
 29  5  1  0  0  0  0
 30 28  1  0  0  0  0
 31 34  2  0  0  0  0
 32 33  1  0  0  0  0
 33 30  1  0  0  0  0
 34 32  1  0  0  0  0
 34 33  1  0  0  0  0
 35 36  1  0  0  0  0
 36 37  2  0  0  0  0
 38 32  1  6  0  0  0
 38 36  1  0  0  0  0
 39 35  1  0  0  0  0
 39 38  1  0  0  0  0
 40 35  2  0  0  0  0
 40 42  1  0  0  0  0
 41 37  1  0  0  0  0
 42 41  2  0  0  0  0
M  END
>  <MODEL>
9

>  <REMARK>
 VINA RESULT:      -9.2      1.793      3.188
  Name = 
  7 active torsions:
  status: ('A' for Active; 'I' for Inactive)
    1  A    between atoms: C_1  and  C_3
    2  A    between atoms: C_2  and  C_40
    3  A    between atoms: N_12  and  C_33
    4  A    between atoms: C_17  and  N_19
    5  A    between atoms: C_22  and  C_29
    6  A    between atoms: N_27  and  C_36
    7  A    between atoms: C_29  and  N_38
                            x       y       z     vdW  Elec       q    Type
                         _______ _______ _______ _____ _____    ______ ____

>  <TORSDO>
F 7

$$$$
