=
 OpenBabel10222419373D

 39 43  0  0  1  0  0  0  0  0999 V2000
  187.6190  178.2490  140.5580 C   0  0  0  0  0  3  0  0  0  0  0  0
  185.6160  178.4240  144.4280 O   0  0  0  0  0  0  0  0  0  0  0  0
  186.8380  178.1260  144.3460 C   0  0  0  0  0  0  0  0  0  0  0  0
  188.9820  177.5140  145.5070 C   0  0  0  0  0  0  0  0  0  0  0  0
  189.5530  177.6730  141.8120 C   0  0  0  0  0  0  0  0  0  0  0  0
  191.6570  177.1150  142.7830 C   0  0  0  0  0  3  0  0  0  0  0  0
  187.5270  178.0640  143.0270 C   0  0  0  0  0  0  0  0  0  0  0  0
  189.0530  177.2940  147.9260 C   0  0  0  0  0  3  0  0  0  0  0  0
  187.6950  177.6140  147.9990 C   0  0  0  0  0  3  0  0  0  0  0  0
  189.6930  177.2440  146.6860 C   0  0  0  0  0  3  0  0  0  0  0  0
  187.6070  177.8370  145.5820 C   0  0  0  0  0  0  0  0  0  0  0  0
  186.8860  178.3310  141.7690 C   0  0  0  0  0  0  0  0  0  0  0  0
  188.9710  177.9060  140.6140 C   0  0  0  0  0  0  0  0  0  0  0  0
  191.0370  177.1540  144.0550 C   0  0  0  0  0  3  0  0  0  0  0  0
  189.6530  177.4630  144.1880 C   0  0  0  0  0  0  0  0  0  0  0  0
  186.9760  177.8840  146.8330 C   0  0  0  0  0  3  0  0  0  0  0  0
  191.2010  177.4240  140.3210 O   0  0  0  0  0  0  0  0  0  0  0  0
  190.8620  177.3870  141.6680 C   0  0  0  0  0  0  0  0  0  0  0  0
  190.0280  177.7550  139.5430 C   0  0  1  0  0  3  0  0  0  0  0  0
  188.8990  177.7330  143.0250 C   0  0  0  0  0  0  0  0  0  0  0  0
  189.6910  176.6060  138.5860 C   0  0  1  0  0  3  0  0  0  0  0  0
  189.0680  177.1260  137.3000 C   0  0  0  0  0  1  0  0  0  0  0  0
  190.9210  175.7580  138.2670 C   0  0  0  0  0  2  0  0  0  0  0  0
  191.5950  176.2470  137.0730 N   0  0  0  0  0  2  0  0  0  0  0  0
  192.8220  176.6690  137.4590 O   0  0  0  0  0  0  0  0  0  0  0  0
  194.8000  174.6140  137.0720 C   0  0  0  0  0  1  0  0  0  0  0  0
  193.1270  175.5090  135.1200 O   0  0  0  0  0  0  0  0  0  0  0  0
  194.9980  177.1830  135.8410 O   0  0  0  0  0  1  0  0  0  0  0  0
  193.8930  175.9990  136.3280 P   0  0  1  0  0  0  0  0  0  0  0  0
  185.4360  178.6690  141.6700 C   0  0  0  0  0  2  0  0  0  0  0  0
  185.2040  179.5050  140.5020 N   0  0  0  0  0  2  0  0  0  0  0  0
  184.2250  178.8730  139.7250 N   0  0  0  0  0  2  0  0  0  0  0  0
  183.0390  179.5700  139.3400 C   0  0  0  0  0  3  0  0  0  0  0  0
  181.8420  179.2230  139.8090 C   0  0  0  0  0  3  0  0  0  0  0  0
  181.6380  178.0850  140.7560 C   0  0  0  0  0  2  0  0  0  0  0  0
  180.5010  178.3900  141.7140 C   0  0  0  0  0  2  0  0  0  0  0  0
  180.9400  179.4020  142.7130 C   0  0  0  0  0  0  0  0  0  0  0  0
  180.2950  180.4730  142.8490 O   0  0  0  0  0  0  0  0  0  0  0  0
  182.0810  179.1790  143.4720 O   0  0  0  0  0  1  0  0  0  0  0  0
  1 13  2  0  0  0  0
  1 12  1  0  0  0  0
  3  2  2  0  0  0  0
  3 11  1  0  0  0  0
  4 11  2  0  0  0  0
  4 10  1  0  0  0  0
  5 20  1  0  0  0  0
  6 14  2  0  0  0  0
  7  3  1  0  0  0  0
  8  9  1  0  0  0  0
 10  8  2  0  0  0  0
 11 16  1  0  0  0  0
 12  7  2  0  0  0  0
 13  5  1  0  0  0  0
 14 15  1  0  0  0  0
 15  4  1  0  0  0  0
 16  9  2  0  0  0  0
 17 18  1  0  0  0  0
 18  5  2  0  0  0  0
 18  6  1  0  0  0  0
 19 21  1  6  0  0  0
 19 17  1  0  0  0  0
 19 13  1  0  0  0  0
 20  7  1  0  0  0  0
 20 15  2  0  0  0  0
 21 22  1  6  0  0  0
 23 21  1  0  0  0  0
 24 25  1  0  0  0  0
 24 23  1  0  0  0  0
 27 29  2  0  0  0  0
 28 29  1  0  0  0  0
 29 26  1  1  0  0  0
 29 25  1  0  0  0  0
 30 12  1  0  0  0  0
 31 30  1  0  0  0  0
 32 31  1  0  0  0  0
 33 32  1  0  0  0  0
 33 34  2  0  0  0  0
 34 35  1  0  0  0  0
 35 36  1  0  0  0  0
 36 37  1  0  0  0  0
 37 38  2  0  0  0  0
 37 39  1  0  0  0  0
M  END
>  <MODEL>
1

>  <REMARK>
 VINA RESULT:      -9.0      0.000      0.000
  Name = 
  12 active torsions:
  status: ('A' for Active; 'I' for Inactive)
    1  A    between atoms: C_1  and  N_32
    2  A    between atoms: N_2  and  C_28
    3  A    between atoms: N_2  and  O_35
    4  A    between atoms: C_4  and  C_25
    5  A    between atoms: C_4  and  N_30
    6  A    between atoms: C_8  and  C_34
    7  A    between atoms: C_17  and  C_28
    8  A    between atoms: C_17  and  C_38
    9  A    between atoms: P_20  and  O_35
   10  A    between atoms: C_22  and  C_31
   11  A    between atoms: C_22  and  C_34
   12  A    between atoms: N_30  and  N_32
                            x       y       z     vdW  Elec       q    Type
                         _______ _______ _______ _____ _____    ______ ____

>  <TORSDO>
F 12

$$$$
=
 OpenBabel10222419373D

 39 43  0  0  1  0  0  0  0  0999 V2000
  187.6080  178.2700  140.5370 C   0  0  0  0  0  3  0  0  0  0  0  0
  185.6050  178.3750  144.4090 O   0  0  0  0  0  0  0  0  0  0  0  0
  186.8280  178.0820  144.3220 C   0  0  0  0  0  0  0  0  0  0  0  0
  188.9730  177.4570  145.4730 C   0  0  0  0  0  0  0  0  0  0  0  0
  189.5440  177.6790  141.7810 C   0  0  0  0  0  0  0  0  0  0  0  0
  191.6490  177.1110  142.7430 C   0  0  0  0  0  3  0  0  0  0  0  0
  187.5160  178.0440  143.0020 C   0  0  0  0  0  0  0  0  0  0  0  0
  189.0450  177.1970  147.8880 C   0  0  0  0  0  3  0  0  0  0  0  0
  187.6860  177.5120  147.9660 C   0  0  0  0  0  3  0  0  0  0  0  0
  189.6850  177.1700  146.6470 C   0  0  0  0  0  3  0  0  0  0  0  0
  187.5970  177.7750  145.5530 C   0  0  0  0  0  0  0  0  0  0  0  0
  186.8750  178.3290  141.7480 C   0  0  0  0  0  0  0  0  0  0  0  0
  188.9610  177.9300  140.5870 C   0  0  0  0  0  0  0  0  0  0  0  0
  191.0290  177.1270  144.0150 C   0  0  0  0  0  3  0  0  0  0  0  0
  189.6440  177.4300  144.1530 C   0  0  0  0  0  0  0  0  0  0  0  0
  186.9660  177.7990  146.8050 C   0  0  0  0  0  3  0  0  0  0  0  0
  191.1930  177.4600  140.2860 O   0  0  0  0  0  0  0  0  0  0  0  0
  190.8530  177.3990  141.6320 C   0  0  0  0  0  0  0  0  0  0  0  0
  190.0180  177.8000  139.5130 C   0  0  1  0  0  3  0  0  0  0  0  0
  188.8900  177.7170  142.9950 C   0  0  0  0  0  0  0  0  0  0  0  0
  189.6840  176.6660  138.5380 C   0  0  1  0  0  3  0  0  0  0  0  0
  189.0950  177.2080  137.2450 C   0  0  0  0  0  1  0  0  0  0  0  0
  190.9090  175.8040  138.2340 C   0  0  0  0  0  2  0  0  0  0  0  0
  191.6810  176.3660  137.1360 N   0  0  0  0  0  2  0  0  0  0  0  0
  192.9490  176.5210  137.5860 O   0  0  0  0  0  0  0  0  0  0  0  0
  193.0270  174.7880  135.2880 C   0  0  0  0  0  1  0  0  0  0  0  0
  195.2390  175.7660  136.5390 O   0  0  0  0  0  0  0  0  0  0  0  0
  193.9130  173.9510  137.8710 O   0  0  0  0  0  1  0  0  0  0  0  0
  193.8360  175.2860  136.8350 P   0  0  1  0  0  0  0  0  0  0  0  0
  185.4240  178.6650  141.6550 C   0  0  0  0  0  2  0  0  0  0  0  0
  185.1780  179.4560  140.4590 N   0  0  0  0  0  2  0  0  0  0  0  0
  183.8630  179.1950  140.0510 N   0  0  0  0  0  2  0  0  0  0  0  0
  183.3600  177.8590  140.0270 C   0  0  0  0  0  3  0  0  0  0  0  0
  183.3760  177.1260  138.9160 C   0  0  0  0  0  3  0  0  0  0  0  0
  183.9030  177.6340  137.6140 C   0  0  0  0  0  2  0  0  0  0  0  0
  185.3660  177.2600  137.4520 C   0  0  0  0  0  2  0  0  0  0  0  0
  185.5770  176.6090  136.1310 C   0  0  0  0  0  0  0  0  0  0  0  0
  186.0540  175.4460  136.0730 O   0  0  0  0  0  1  0  0  0  0  0  0
  185.2770  177.2940  134.9620 O   0  0  0  0  0  0  0  0  0  0  0  0
  1 13  2  0  0  0  0
  1 12  1  0  0  0  0
  3  2  2  0  0  0  0
  3 11  1  0  0  0  0
  4 11  2  0  0  0  0
  4 10  1  0  0  0  0
  5 20  1  0  0  0  0
  6 14  2  0  0  0  0
  7  3  1  0  0  0  0
  8  9  1  0  0  0  0
 10  8  2  0  0  0  0
 11 16  1  0  0  0  0
 12  7  2  0  0  0  0
 13  5  1  0  0  0  0
 14 15  1  0  0  0  0
 15  4  1  0  0  0  0
 16  9  2  0  0  0  0
 17 18  1  0  0  0  0
 18  5  2  0  0  0  0
 18  6  1  0  0  0  0
 19 21  1  6  0  0  0
 19 17  1  0  0  0  0
 19 13  1  0  0  0  0
 20  7  1  0  0  0  0
 20 15  2  0  0  0  0
 21 22  1  6  0  0  0
 23 21  1  0  0  0  0
 24 25  1  0  0  0  0
 24 23  1  0  0  0  0
 27 29  2  0  0  0  0
 29 26  1  6  0  0  0
 29 25  1  0  0  0  0
 29 28  1  0  0  0  0
 30 12  1  0  0  0  0
 31 30  1  0  0  0  0
 32 31  1  0  0  0  0
 33 32  1  0  0  0  0
 34 33  2  0  0  0  0
 35 34  1  0  0  0  0
 36 35  1  0  0  0  0
 37 36  1  0  0  0  0
 38 37  1  0  0  0  0
 39 37  2  0  0  0  0
M  END
>  <MODEL>
2

>  <REMARK>
 VINA RESULT:      -8.8      2.123      3.049
  Name = 
  12 active torsions:
  status: ('A' for Active; 'I' for Inactive)
    1  A    between atoms: C_1  and  N_32
    2  A    between atoms: N_2  and  C_28
    3  A    between atoms: N_2  and  O_35
    4  A    between atoms: C_4  and  C_25
    5  A    between atoms: C_4  and  N_30
    6  A    between atoms: C_8  and  C_34
    7  A    between atoms: C_17  and  C_28
    8  A    between atoms: C_17  and  C_38
    9  A    between atoms: P_20  and  O_35
   10  A    between atoms: C_22  and  C_31
   11  A    between atoms: C_22  and  C_34
   12  A    between atoms: N_30  and  N_32
                            x       y       z     vdW  Elec       q    Type
                         _______ _______ _______ _____ _____    ______ ____

>  <TORSDO>
F 12

$$$$
=
 OpenBabel10222419373D

 39 43  0  0  1  0  0  0  0  0999 V2000
  187.6030  178.2790  140.5740 C   0  0  0  0  0  3  0  0  0  0  0  0
  185.5970  178.4150  144.4440 O   0  0  0  0  0  0  0  0  0  0  0  0
  186.8220  178.1280  144.3600 C   0  0  0  0  0  0  0  0  0  0  0  0
  188.9690  177.5270  145.5190 C   0  0  0  0  0  0  0  0  0  0  0  0
  189.5410  177.7120  141.8260 C   0  0  0  0  0  0  0  0  0  0  0  0
  191.6490  177.1650  142.7940 C   0  0  0  0  0  3  0  0  0  0  0  0
  187.5110  178.0790  143.0410 C   0  0  0  0  0  0  0  0  0  0  0  0
  189.0410  177.2940  147.9370 C   0  0  0  0  0  3  0  0  0  0  0  0
  187.6810  177.6020  148.0110 C   0  0  0  0  0  3  0  0  0  0  0  0
  189.6820  177.2560  146.6970 C   0  0  0  0  0  3  0  0  0  0  0  0
  187.5920  177.8380  145.5950 C   0  0  0  0  0  0  0  0  0  0  0  0
  186.8690  178.3470  141.7840 C   0  0  0  0  0  0  0  0  0  0  0  0
  188.9580  177.9460  140.6280 C   0  0  0  0  0  0  0  0  0  0  0  0
  191.0280  177.1920  144.0670 C   0  0  0  0  0  3  0  0  0  0  0  0
  189.6410  177.4890  144.2000 C   0  0  0  0  0  0  0  0  0  0  0  0
  186.9600  177.8730  146.8460 C   0  0  0  0  0  3  0  0  0  0  0  0
  191.1920  177.4850  140.3340 O   0  0  0  0  0  0  0  0  0  0  0  0
  190.8520  177.4370  141.6800 C   0  0  0  0  0  0  0  0  0  0  0  0
  190.0160  177.8100  139.5570 C   0  0  1  0  0  3  0  0  0  0  0  0
  188.8860  177.7600  143.0380 C   0  0  0  0  0  0  0  0  0  0  0  0
  189.6890  176.6640  138.5940 C   0  0  1  0  0  3  0  0  0  0  0  0
  188.9920  177.1780  137.3430 C   0  0  0  0  0  1  0  0  0  0  0  0
  190.9400  175.8760  138.2090 C   0  0  0  0  0  2  0  0  0  0  0  0
  190.6030  174.5090  137.8400 N   0  0  0  0  0  2  0  0  0  0  0  0
  191.7670  173.8790  137.5570 O   0  0  0  0  0  0  0  0  0  0  0  0
  192.3970  172.0420  135.4320 C   0  0  0  0  0  1  0  0  0  0  0  0
  190.3570  173.8420  135.3390 O   0  0  0  0  0  1  0  0  0  0  0  0
  192.7560  174.8640  135.1750 O   0  0  0  0  0  0  0  0  0  0  0  0
  191.7630  173.6850  135.8720 P   0  0  1  0  0  0  0  0  0  0  0  0
  185.4160  178.6750  141.6870 C   0  0  0  0  0  2  0  0  0  0  0  0
  185.1680  179.4580  140.4860 N   0  0  0  0  0  2  0  0  0  0  0  0
  184.1420  178.8200  139.7770 N   0  0  0  0  0  2  0  0  0  0  0  0
  182.9710  179.5370  139.3860 C   0  0  0  0  0  3  0  0  0  0  0  0
  181.7570  179.1620  139.7850 C   0  0  0  0  0  3  0  0  0  0  0  0
  181.5180  177.9700  140.6530 C   0  0  0  0  0  2  0  0  0  0  0  0
  180.4710  178.2840  141.7080 C   0  0  0  0  0  2  0  0  0  0  0  0
  180.9920  179.3160  142.6430 C   0  0  0  0  0  0  0  0  0  0  0  0
  182.0530  179.1050  143.2860 O   0  0  0  0  0  1  0  0  0  0  0  0
  180.2930  180.5000  142.8320 O   0  0  0  0  0  0  0  0  0  0  0  0
  1 13  2  0  0  0  0
  1 12  1  0  0  0  0
  3  2  2  0  0  0  0
  3 11  1  0  0  0  0
  4 11  2  0  0  0  0
  4 10  1  0  0  0  0
  5 20  1  0  0  0  0
  6 14  2  0  0  0  0
  7  3  1  0  0  0  0
  8  9  1  0  0  0  0
 10  8  2  0  0  0  0
 11 16  1  0  0  0  0
 12  7  2  0  0  0  0
 13  5  1  0  0  0  0
 14 15  1  0  0  0  0
 15  4  1  0  0  0  0
 16  9  2  0  0  0  0
 17 18  1  0  0  0  0
 18  5  2  0  0  0  0
 18  6  1  0  0  0  0
 19 21  1  6  0  0  0
 19 17  1  0  0  0  0
 19 13  1  0  0  0  0
 20  7  1  0  0  0  0
 20 15  2  0  0  0  0
 21 22  1  6  0  0  0
 23 21  1  0  0  0  0
 24 23  1  0  0  0  0
 25 24  1  0  0  0  0
 27 29  1  0  0  0  0
 28 29  2  0  0  0  0
 29 26  1  6  0  0  0
 29 25  1  0  0  0  0
 30 12  1  0  0  0  0
 31 30  1  0  0  0  0
 32 31  1  0  0  0  0
 33 32  1  0  0  0  0
 33 34  2  0  0  0  0
 34 35  1  0  0  0  0
 35 36  1  0  0  0  0
 36 37  1  0  0  0  0
 37 39  2  0  0  0  0
 37 38  1  0  0  0  0
M  END
>  <MODEL>
3

>  <REMARK>
 VINA RESULT:      -8.8      1.132      1.346
  Name = 
  12 active torsions:
  status: ('A' for Active; 'I' for Inactive)
    1  A    between atoms: C_1  and  N_32
    2  A    between atoms: N_2  and  C_28
    3  A    between atoms: N_2  and  O_35
    4  A    between atoms: C_4  and  C_25
    5  A    between atoms: C_4  and  N_30
    6  A    between atoms: C_8  and  C_34
    7  A    between atoms: C_17  and  C_28
    8  A    between atoms: C_17  and  C_38
    9  A    between atoms: P_20  and  O_35
   10  A    between atoms: C_22  and  C_31
   11  A    between atoms: C_22  and  C_34
   12  A    between atoms: N_30  and  N_32
                            x       y       z     vdW  Elec       q    Type
                         _______ _______ _______ _____ _____    ______ ____

>  <TORSDO>
F 12

$$$$
=
 OpenBabel10222419373D

 39 43  0  0  1  0  0  0  0  0999 V2000
  187.6860  178.2600  140.4880 C   0  0  0  0  0  3  0  0  0  0  0  0
  185.6040  178.4150  144.3170 O   0  0  0  0  0  0  0  0  0  0  0  0
  186.8280  178.1190  144.2580 C   0  0  0  0  0  0  0  0  0  0  0  0
  188.9490  177.5070  145.4610 C   0  0  0  0  0  0  0  0  0  0  0  0
  189.5960  177.6820  141.7800 C   0  0  0  0  0  0  0  0  0  0  0  0
  191.6800  177.1240  142.7910 C   0  0  0  0  0  3  0  0  0  0  0  0
  187.5440  178.0640  142.9540 C   0  0  0  0  0  0  0  0  0  0  0  0
  188.9700  177.2780  147.8800 C   0  0  0  0  0  3  0  0  0  0  0  0
  187.6110  177.5950  147.9270 C   0  0  0  0  0  3  0  0  0  0  0  0
  189.6360  177.2340  146.6540 C   0  0  0  0  0  3  0  0  0  0  0  0
  187.5720  177.8270  145.5090 C   0  0  0  0  0  0  0  0  0  0  0  0
  186.9290  178.3350  141.6840 C   0  0  0  0  0  0  0  0  0  0  0  0
  189.0380  177.9190  140.5700 C   0  0  0  0  0  0  0  0  0  0  0  0
  191.0340  177.1570  144.0510 C   0  0  0  0  0  3  0  0  0  0  0  0
  189.6470  177.4630  144.1560 C   0  0  0  0  0  0  0  0  0  0  0  0
  186.9150  177.8680  146.7470 C   0  0  0  0  0  3  0  0  0  0  0  0
  191.2750  177.4420  140.3210 O   0  0  0  0  0  0  0  0  0  0  0  0
  190.9080  177.3990  141.6610 C   0  0  0  0  0  0  0  0  0  0  0  0
  190.1170  177.7740  139.5210 C   0  0  1  0  0  3  0  0  0  0  0  0
  188.9170  177.7360  142.9790 C   0  0  0  0  0  0  0  0  0  0  0  0
  189.8020  176.6280  138.5530 C   0  0  1  0  0  3  0  0  0  0  0  0
  188.9640  177.1140  137.3800 C   0  0  0  0  0  1  0  0  0  0  0  0
  191.0740  175.9540  138.0430 C   0  0  0  0  0  2  0  0  0  0  0  0
  190.9030  174.5110  137.9590 N   0  0  0  0  0  2  0  0  0  0  0  0
  191.4600  174.1160  136.7910 O   0  0  0  0  0  0  0  0  0  0  0  0
  190.5650  172.1580  134.8800 C   0  0  0  0  0  1  0  0  0  0  0  0
  188.9330  173.4070  136.6660 O   0  0  0  0  0  1  0  0  0  0  0  0
  189.8170  174.9090  134.7200 O   0  0  0  0  0  0  0  0  0  0  0  0
  190.1530  173.6610  135.8110 P   0  0  1  0  0  0  0  0  0  0  0  0
  185.4810  178.6710  141.5560 C   0  0  0  0  0  2  0  0  0  0  0  0
  185.2470  179.3760  140.3050 N   0  0  0  0  0  2  0  0  0  0  0  0
  183.8890  179.2310  139.9930 N   0  0  0  0  0  2  0  0  0  0  0  0
  183.2750  177.9420  139.9960 C   0  0  0  0  0  3  0  0  0  0  0  0
  183.2820  177.1620  138.9170 C   0  0  0  0  0  3  0  0  0  0  0  0
  183.9130  177.5670  137.6250 C   0  0  0  0  0  2  0  0  0  0  0  0
  185.3550  177.0930  137.5680 C   0  0  0  0  0  2  0  0  0  0  0  0
  185.4520  175.8710  136.7270 C   0  0  0  0  0  0  0  0  0  0  0  0
  185.5140  174.7370  137.2690 O   0  0  0  0  0  1  0  0  0  0  0  0
  185.5050  175.9810  135.3440 O   0  0  0  0  0  0  0  0  0  0  0  0
  1 13  2  0  0  0  0
  1 12  1  0  0  0  0
  3  2  2  0  0  0  0
  3 11  1  0  0  0  0
  4 11  2  0  0  0  0
  4 10  1  0  0  0  0
  5 20  1  0  0  0  0
  6 14  2  0  0  0  0
  7 20  1  0  0  0  0
  7  3  1  0  0  0  0
  8  9  1  0  0  0  0
 10  8  2  0  0  0  0
 11 16  1  0  0  0  0
 12  7  2  0  0  0  0
 13  5  1  0  0  0  0
 14 15  1  0  0  0  0
 15  4  1  0  0  0  0
 16  9  2  0  0  0  0
 17 18  1  0  0  0  0
 18  5  2  0  0  0  0
 18  6  1  0  0  0  0
 19 21  1  6  0  0  0
 19 17  1  0  0  0  0
 19 13  1  0  0  0  0
 20 15  2  0  0  0  0
 21 22  1  6  0  0  0
 23 21  1  0  0  0  0
 24 23  1  0  0  0  0
 25 24  1  0  0  0  0
 28 29  2  0  0  0  0
 29 26  1  6  0  0  0
 29 27  1  0  0  0  0
 29 25  1  0  0  0  0
 30 12  1  0  0  0  0
 31 30  1  0  0  0  0
 32 33  1  0  0  0  0
 32 31  1  0  0  0  0
 34 33  2  0  0  0  0
 35 34  1  0  0  0  0
 36 35  1  0  0  0  0
 37 38  1  0  0  0  0
 37 36  1  0  0  0  0
 39 37  2  0  0  0  0
M  END
>  <MODEL>
4

>  <REMARK>
 VINA RESULT:      -8.6      2.509      3.343
  Name = 
  12 active torsions:
  status: ('A' for Active; 'I' for Inactive)
    1  A    between atoms: C_1  and  N_32
    2  A    between atoms: N_2  and  C_28
    3  A    between atoms: N_2  and  O_35
    4  A    between atoms: C_4  and  C_25
    5  A    between atoms: C_4  and  N_30
    6  A    between atoms: C_8  and  C_34
    7  A    between atoms: C_17  and  C_28
    8  A    between atoms: C_17  and  C_38
    9  A    between atoms: P_20  and  O_35
   10  A    between atoms: C_22  and  C_31
   11  A    between atoms: C_22  and  C_34
   12  A    between atoms: N_30  and  N_32
                            x       y       z     vdW  Elec       q    Type
                         _______ _______ _______ _____ _____    ______ ____

>  <TORSDO>
F 12

$$$$
=
 OpenBabel10222419373D

 39 43  0  0  1  0  0  0  0  0999 V2000
  187.7680  178.2440  140.4160 C   0  0  0  0  0  3  0  0  0  0  0  0
  185.5610  178.5000  144.1690 O   0  0  0  0  0  0  0  0  0  0  0  0
  186.7770  178.1640  144.1560 C   0  0  0  0  0  0  0  0  0  0  0  0
  188.8330  177.4940  145.4350 C   0  0  0  0  0  0  0  0  0  0  0  0
  189.6120  177.6170  141.7770 C   0  0  0  0  0  0  0  0  0  0  0  0
  191.6410  177.0000  142.8640 C   0  0  0  0  0  3  0  0  0  0  0  0
  187.5340  178.0750  142.8770 C   0  0  0  0  0  0  0  0  0  0  0  0
  188.7640  177.2850  147.8550 C   0  0  0  0  0  3  0  0  0  0  0  0
  187.4150  177.6460  147.8530 C   0  0  0  0  0  3  0  0  0  0  0  0
  189.4700  177.2090  146.6530 C   0  0  0  0  0  3  0  0  0  0  0  0
  187.4670  177.8590  145.4330 C   0  0  0  0  0  0  0  0  0  0  0  0
  186.9730  178.3540  141.5840 C   0  0  0  0  0  0  0  0  0  0  0  0
  189.1040  177.8610  140.5480 C   0  0  0  0  0  0  0  0  0  0  0  0
  190.9530  177.0650  144.1010 C   0  0  0  0  0  3  0  0  0  0  0  0
  189.5740  177.4160  144.1560 C   0  0  0  0  0  0  0  0  0  0  0  0
  186.7700  177.9320  146.6480 C   0  0  0  0  0  3  0  0  0  0  0  0
  191.3310  177.3100  140.3800 O   0  0  0  0  0  0  0  0  0  0  0  0
  190.9170  177.2910  141.7060 C   0  0  0  0  0  0  0  0  0  0  0  0
  190.2130  177.6720  139.5370 C   0  0  1  0  0  3  0  0  0  0  0  0
  188.8940  177.7030  142.9520 C   0  0  0  0  0  0  0  0  0  0  0  0
  189.8940  176.5290  138.5680 C   0  0  1  0  0  3  0  0  0  0  0  0
  189.2560  177.0530  137.2900 C   0  0  0  0  0  1  0  0  0  0  0  0
  191.1390  175.7100  138.2320 C   0  0  0  0  0  2  0  0  0  0  0  0
  191.7790  176.2050  137.0220 N   0  0  0  0  0  2  0  0  0  0  0  0
  192.3570  175.1390  136.4190 O   0  0  0  0  0  0  0  0  0  0  0  0
  194.9010  174.7280  135.1370 C   0  0  0  0  0  1  0  0  0  0  0  0
  194.3110  176.8740  136.7050 O   0  0  0  0  0  0  0  0  0  0  0  0
  194.5750  174.6050  137.9720 O   0  0  0  0  0  1  0  0  0  0  0  0
  194.0260  175.3950  136.5800 P   0  0  1  0  0  0  0  0  0  0  0  0
  185.5410  178.7360  141.4040 C   0  0  0  0  0  2  0  0  0  0  0  0
  185.3530  179.3390  140.0940 N   0  0  0  0  0  2  0  0  0  0  0  0
  183.9960  179.6640  139.9760 N   0  0  0  0  0  2  0  0  0  0  0  0
  183.1260  178.8760  139.1630 C   0  0  0  0  0  3  0  0  0  0  0  0
  182.1360  179.4250  138.4630 C   0  0  0  0  0  3  0  0  0  0  0  0
  181.8460  180.8910  138.4750 C   0  0  0  0  0  2  0  0  0  0  0  0
  180.5840  181.1880  137.6850 C   0  0  0  0  0  2  0  0  0  0  0  0
  180.7810  182.4110  136.8610 C   0  0  0  0  0  0  0  0  0  0  0  0
  180.9980  183.5170  137.4190 O   0  0  0  0  0  1  0  0  0  0  0  0
  180.6940  182.3380  135.4780 O   0  0  0  0  0  0  0  0  0  0  0  0
  1 13  2  0  0  0  0
  1 12  1  0  0  0  0
  3  2  2  0  0  0  0
  3 11  1  0  0  0  0
  4 10  1  0  0  0  0
  5 20  1  0  0  0  0
  6 14  2  0  0  0  0
  7 20  1  0  0  0  0
  7  3  1  0  0  0  0
  9  8  1  0  0  0  0
 10  8  2  0  0  0  0
 11  4  2  0  0  0  0
 11 16  1  0  0  0  0
 12  7  2  0  0  0  0
 13  5  1  0  0  0  0
 14 15  1  0  0  0  0
 15  4  1  0  0  0  0
 16  9  2  0  0  0  0
 17 18  1  0  0  0  0
 18  5  2  0  0  0  0
 18  6  1  0  0  0  0
 19 21  1  6  0  0  0
 19 17  1  0  0  0  0
 19 13  1  0  0  0  0
 20 15  2  0  0  0  0
 21 22  1  6  0  0  0
 23 21  1  0  0  0  0
 24 23  1  0  0  0  0
 25 29  1  0  0  0  0
 25 24  1  0  0  0  0
 29 26  1  6  0  0  0
 29 27  2  0  0  0  0
 29 28  1  0  0  0  0
 30 12  1  0  0  0  0
 31 30  1  0  0  0  0
 32 31  1  0  0  0  0
 33 32  1  0  0  0  0
 34 35  1  0  0  0  0
 34 33  2  0  0  0  0
 36 35  1  0  0  0  0
 37 38  1  0  0  0  0
 37 36  1  0  0  0  0
 39 37  2  0  0  0  0
M  END
>  <MODEL>
5

>  <REMARK>
 VINA RESULT:      -8.5      1.962      2.402
  Name = 
  12 active torsions:
  status: ('A' for Active; 'I' for Inactive)
    1  A    between atoms: C_1  and  N_32
    2  A    between atoms: N_2  and  C_28
    3  A    between atoms: N_2  and  O_35
    4  A    between atoms: C_4  and  C_25
    5  A    between atoms: C_4  and  N_30
    6  A    between atoms: C_8  and  C_34
    7  A    between atoms: C_17  and  C_28
    8  A    between atoms: C_17  and  C_38
    9  A    between atoms: P_20  and  O_35
   10  A    between atoms: C_22  and  C_31
   11  A    between atoms: C_22  and  C_34
   12  A    between atoms: N_30  and  N_32
                            x       y       z     vdW  Elec       q    Type
                         _______ _______ _______ _____ _____    ______ ____

>  <TORSDO>
F 12

$$$$
=
 OpenBabel10222419373D

 39 43  0  0  1  0  0  0  0  0999 V2000
  186.8140  178.4700  140.8500 C   0  0  0  0  0  3  0  0  0  0  0  0
  186.6730  177.9230  145.1740 O   0  0  0  0  0  0  0  0  0  0  0  0
  187.7440  177.7420  144.5340 C   0  0  0  0  0  0  0  0  0  0  0  0
  190.1860  177.1480  144.5600 C   0  0  0  0  0  0  0  0  0  0  0  0
  189.1070  177.8820  141.0530 C   0  0  0  0  0  0  0  0  0  0  0  0
  191.4300  177.3650  140.9350 C   0  0  0  0  0  3  0  0  0  0  0  0
  187.7970  177.9260  143.0570 C   0  0  0  0  0  0  0  0  0  0  0  0
  191.2960  176.5920  146.6490 C   0  0  0  0  0  3  0  0  0  0  0  0
  190.0990  176.7850  147.3420 C   0  0  0  0  0  3  0  0  0  0  0  0
  191.3400  176.7720  145.2650 C   0  0  0  0  0  3  0  0  0  0  0  0
  188.9740  177.3430  145.2630 C   0  0  0  0  0  0  0  0  0  0  0  0
  186.6740  178.3170  142.2510 C   0  0  0  0  0  0  0  0  0  0  0  0
  188.0620  178.2350  140.2700 C   0  0  0  0  0  0  0  0  0  0  0  0
  191.4190  177.1710  142.3380 C   0  0  0  0  0  3  0  0  0  0  0  0
  190.2230  177.3420  143.0930 C   0  0  0  0  0  0  0  0  0  0  0  0
  188.9430  177.1590  146.6520 C   0  0  0  0  0  3  0  0  0  0  0  0
  189.9540  177.9850  138.9850 O   0  0  0  0  0  0  0  0  0  0  0  0
  190.2290  177.7280  140.3230 C   0  0  0  0  0  0  0  0  0  0  0  0
  188.5560  178.3260  138.8440 C   0  0  1  0  0  3  0  0  0  0  0  0
  189.0390  177.7130  142.4200 C   0  0  0  0  0  0  0  0  0  0  0  0
  187.8540  177.3020  137.9450 C   0  0  1  0  0  3  0  0  0  0  0  0
  186.8530  177.9770  137.0190 C   0  0  0  0  0  1  0  0  0  0  0  0
  188.8560  176.4880  137.1280 C   0  0  0  0  0  2  0  0  0  0  0  0
  188.1870  175.4220  136.3960 N   0  0  0  0  0  2  0  0  0  0  0  0
  189.0840  174.9320  135.5080 O   0  0  0  0  0  0  0  0  0  0  0  0
  190.4900  172.5000  134.8800 C   0  0  0  0  0  1  0  0  0  0  0  0
  190.3180  173.5620  137.3810 O   0  0  0  0  0  1  0  0  0  0  0  0
  188.1050  172.5300  136.4520 O   0  0  0  0  0  0  0  0  0  0  0  0
  189.5120  173.4060  136.1120 P   0  0  1  0  0  0  0  0  0  0  0  0
  185.3180  178.5450  142.8330 C   0  0  0  0  0  2  0  0  0  0  0  0
  184.2990  178.0820  141.9040 N   0  0  0  0  0  2  0  0  0  0  0  0
  183.0710  178.5910  142.3450 N   0  0  0  0  0  2  0  0  0  0  0  0
  182.9150  179.0580  143.6850 C   0  0  0  0  0  3  0  0  0  0  0  0
  181.7860  178.8680  144.3650 C   0  0  0  0  0  3  0  0  0  0  0  0
  180.5980  178.1700  143.7880 C   0  0  0  0  0  2  0  0  0  0  0  0
  179.4060  179.1100  143.7350 C   0  0  0  0  0  2  0  0  0  0  0  0
  179.3330  179.7580  142.3980 C   0  0  0  0  0  0  0  0  0  0  0  0
  178.9350  179.1010  141.4010 O   0  0  0  0  0  0  0  0  0  0  0  0
  179.7340  181.0780  142.2420 O   0  0  0  0  0  1  0  0  0  0  0  0
  1 12  1  0  0  0  0
  3  2  2  0  0  0  0
  3 11  1  0  0  0  0
  4 11  2  0  0  0  0
  4 10  1  0  0  0  0
  5 20  1  0  0  0  0
  6 14  2  0  0  0  0
  7  3  1  0  0  0  0
  8  9  1  0  0  0  0
 10  8  2  0  0  0  0
 11 16  1  0  0  0  0
 12 30  1  0  0  0  0
 12  7  2  0  0  0  0
 13  1  2  0  0  0  0
 13  5  1  0  0  0  0
 14 15  1  0  0  0  0
 15  4  1  0  0  0  0
 16  9  2  0  0  0  0
 17 18  1  0  0  0  0
 18  6  1  0  0  0  0
 18  5  2  0  0  0  0
 19 21  1  6  0  0  0
 19 17  1  0  0  0  0
 19 13  1  0  0  0  0
 20  7  1  0  0  0  0
 20 15  2  0  0  0  0
 21 22  1  6  0  0  0
 23 21  1  0  0  0  0
 24 23  1  0  0  0  0
 25 29  1  0  0  0  0
 25 24  1  0  0  0  0
 29 26  1  6  0  0  0
 29 28  2  0  0  0  0
 29 27  1  0  0  0  0
 31 32  1  0  0  0  0
 31 30  1  0  0  0  0
 32 33  1  0  0  0  0
 33 34  2  0  0  0  0
 35 34  1  0  0  0  0
 36 35  1  0  0  0  0
 37 36  1  0  0  0  0
 38 37  2  0  0  0  0
 39 37  1  0  0  0  0
M  END
>  <MODEL>
6

>  <REMARK>
 VINA RESULT:      -8.4      2.456      2.914
  Name = 
  12 active torsions:
  status: ('A' for Active; 'I' for Inactive)
    1  A    between atoms: C_1  and  N_32
    2  A    between atoms: N_2  and  C_28
    3  A    between atoms: N_2  and  O_35
    4  A    between atoms: C_4  and  C_25
    5  A    between atoms: C_4  and  N_30
    6  A    between atoms: C_8  and  C_34
    7  A    between atoms: C_17  and  C_28
    8  A    between atoms: C_17  and  C_38
    9  A    between atoms: P_20  and  O_35
   10  A    between atoms: C_22  and  C_31
   11  A    between atoms: C_22  and  C_34
   12  A    between atoms: N_30  and  N_32
                            x       y       z     vdW  Elec       q    Type
                         _______ _______ _______ _____ _____    ______ ____

>  <TORSDO>
F 12

$$$$
=
 OpenBabel10222419373D

 39 43  0  0  1  0  0  0  0  0999 V2000
  183.2740  178.7050  144.4780 C   0  0  0  0  0  3  0  0  0  0  0  0
  187.5180  177.7040  144.5620 O   0  0  0  0  0  0  0  0  0  0  0  0
  186.9370  177.9680  143.4740 C   0  0  0  0  0  0  0  0  0  0  0  0
  187.0750  178.2500  140.9810 C   0  0  0  0  0  0  0  0  0  0  0  0
  183.5790  178.9230  142.1320 C   0  0  0  0  0  0  0  0  0  0  0  0
  183.5720  179.2520  139.7720 C   0  0  0  0  0  3  0  0  0  0  0  0
  185.4880  178.3100  143.4400 C   0  0  0  0  0  0  0  0  0  0  0  0
  189.1780  177.8980  139.8160 C   0  0  0  0  0  3  0  0  0  0  0  0
  189.8040  177.5960  141.0270 C   0  0  0  0  0  3  0  0  0  0  0  0
  187.8210  178.2240  139.7920 C   0  0  0  0  0  3  0  0  0  0  0  0
  187.7100  177.9440  142.2070 C   0  0  0  0  0  0  0  0  0  0  0  0
  184.6460  178.3710  144.6020 C   0  0  0  0  0  0  0  0  0  0  0  0
  182.7610  178.9740  143.2080 C   0  0  0  0  0  0  0  0  0  0  0  0
  184.9490  178.9230  139.7610 C   0  0  0  0  0  3  0  0  0  0  0  0
  185.6350  178.5950  140.9650 C   0  0  0  0  0  0  0  0  0  0  0  0
  189.0730  177.6190  142.2170 C   0  0  0  0  0  3  0  0  0  0  0  0
  181.5880  179.5230  141.3070 O   0  0  0  0  0  0  0  0  0  0  0  0
  182.9150  179.2400  141.0030 C   0  0  0  0  0  0  0  0  0  0  0  0
  181.3830  179.3750  142.7310 C   0  0  1  0  0  3  0  0  0  0  0  0
  184.9190  178.6030  142.1820 C   0  0  0  0  0  0  0  0  0  0  0  0
  180.3570  178.2700  143.0020 C   0  0  1  0  0  3  0  0  0  0  0  0
  179.6800  178.4670  144.3500 C   0  0  0  0  0  1  0  0  0  0  0  0
  179.3060  178.1920  141.8950 C   0  0  0  0  0  2  0  0  0  0  0  0
  179.2640  176.8600  141.3100 N   0  0  0  0  0  2  0  0  0  0  0  0
  179.5600  176.9990  139.9960 O   0  0  0  0  0  0  0  0  0  0  0  0
  182.1120  175.7850  139.4500 C   0  0  0  0  0  1  0  0  0  0  0  0
  180.0120  174.4780  140.5860 O   0  0  0  0  0  1  0  0  0  0  0  0
  179.7340  175.0470  138.0520 O   0  0  0  0  0  0  0  0  0  0  0  0
  180.3170  175.5450  139.5600 P   0  0  1  0  0  0  0  0  0  0  0  0
  185.1530  178.0590  145.9710 C   0  0  0  0  0  2  0  0  0  0  0  0
  185.5670  179.2860  146.6330 N   0  0  0  0  0  2  0  0  0  0  0  0
  186.7740  179.0170  147.2930 N   0  0  0  0  0  2  0  0  0  0  0  0
  186.9670  177.7800  147.9810 C   0  0  0  0  0  3  0  0  0  0  0  0
  188.1810  177.2600  148.1540 C   0  0  0  0  0  3  0  0  0  0  0  0
  189.4250  177.9090  147.6410 C   0  0  0  0  0  2  0  0  0  0  0  0
  189.9800  177.1330  146.4600 C   0  0  0  0  0  2  0  0  0  0  0  0
  191.3640  176.6790  146.7600 C   0  0  0  0  0  0  0  0  0  0  0  0
  192.0530  176.1270  145.8640 O   0  0  0  0  0  0  0  0  0  0  0  0
  191.8870  176.8380  148.0360 O   0  0  0  0  0  1  0  0  0  0  0  0
  1 12  1  0  0  0  0
  3  2  2  0  0  0  0
  4 11  1  0  0  0  0
  5 20  1  0  0  0  0
  5 13  1  0  0  0  0
  6 18  1  0  0  0  0
  7  3  1  0  0  0  0
  7 12  2  0  0  0  0
  8  9  2  0  0  0  0
  9 16  1  0  0  0  0
 10  8  1  0  0  0  0
 10  4  2  0  0  0  0
 11 16  2  0  0  0  0
 11  3  1  0  0  0  0
 12 30  1  0  0  0  0
 13  1  2  0  0  0  0
 14  6  2  0  0  0  0
 14 15  1  0  0  0  0
 15  4  1  0  0  0  0
 15 20  2  0  0  0  0
 17 19  1  0  0  0  0
 18 17  1  0  0  0  0
 18  5  2  0  0  0  0
 19 21  1  6  0  0  0
 19 13  1  0  0  0  0
 20  7  1  0  0  0  0
 21 22  1  1  0  0  0
 23 21  1  0  0  0  0
 24 23  1  0  0  0  0
 25 24  1  0  0  0  0
 28 29  2  0  0  0  0
 29 26  1  6  0  0  0
 29 25  1  0  0  0  0
 29 27  1  0  0  0  0
 30 31  1  0  0  0  0
 31 32  1  0  0  0  0
 32 33  1  0  0  0  0
 33 34  2  0  0  0  0
 35 34  1  0  0  0  0
 36 37  1  0  0  0  0
 36 35  1  0  0  0  0
 37 39  1  0  0  0  0
 38 37  2  0  0  0  0
M  END
>  <MODEL>
7

>  <REMARK>
 VINA RESULT:      -8.3      4.685      9.259
  Name = 
  12 active torsions:
  status: ('A' for Active; 'I' for Inactive)
    1  A    between atoms: C_1  and  N_32
    2  A    between atoms: N_2  and  C_28
    3  A    between atoms: N_2  and  O_35
    4  A    between atoms: C_4  and  C_25
    5  A    between atoms: C_4  and  N_30
    6  A    between atoms: C_8  and  C_34
    7  A    between atoms: C_17  and  C_28
    8  A    between atoms: C_17  and  C_38
    9  A    between atoms: P_20  and  O_35
   10  A    between atoms: C_22  and  C_31
   11  A    between atoms: C_22  and  C_34
   12  A    between atoms: N_30  and  N_32
                            x       y       z     vdW  Elec       q    Type
                         _______ _______ _______ _____ _____    ______ ____

>  <TORSDO>
F 12

$$$$
=
 OpenBabel10222419373D

 39 43  0  0  1  0  0  0  0  0999 V2000
  188.0800  178.4670  142.3350 C   0  0  0  0  0  3  0  0  0  0  0  0
  191.4620  176.7740  140.1640 O   0  0  0  0  0  0  0  0  0  0  0  0
  190.3810  177.0400  139.5720 C   0  0  0  0  0  0  0  0  0  0  0  0
  189.0590  177.0840  137.4340 C   0  0  0  0  0  0  0  0  0  0  0  0
  186.9730  178.4330  140.2330 C   0  0  0  0  0  0  0  0  0  0  0  0
  185.6160  178.5570  138.2780 C   0  0  0  0  0  3  0  0  0  0  0  0
  189.2230  177.6170  140.3080 C   0  0  0  0  0  0  0  0  0  0  0  0
  190.0430  176.2840  135.3610 C   0  0  0  0  0  3  0  0  0  0  0  0
  191.2290  175.9840  136.0350 C   0  0  0  0  0  3  0  0  0  0  0  0
  188.9630  176.8310  136.0580 C   0  0  0  0  0  3  0  0  0  0  0  0
  190.2610  176.7790  138.1160 C   0  0  0  0  0  0  0  0  0  0  0  0
  189.2290  177.9180  141.7130 C   0  0  0  0  0  0  0  0  0  0  0  0
  186.9470  178.7110  141.5560 C   0  0  0  0  0  0  0  0  0  0  0  0
  186.6910  178.0000  137.5430 C   0  0  0  0  0  3  0  0  0  0  0  0
  187.9200  177.6640  138.1810 C   0  0  0  0  0  0  0  0  0  0  0  0
  191.3370  176.2300  137.4050 C   0  0  0  0  0  3  0  0  0  0  0  0
  184.9380  179.2880  140.5960 O   0  0  0  0  0  0  0  0  0  0  0  0
  185.8060  178.7610  139.6460 C   0  0  0  0  0  0  0  0  0  0  0  0
  185.5930  179.2970  141.8850 C   0  0  1  0  0  3  0  0  0  0  0  0
  188.0550  177.8960  139.5670 C   0  0  0  0  0  0  0  0  0  0  0  0
  184.8260  178.4090  142.8700 C   0  0  1  0  0  3  0  0  0  0  0  0
  185.0560  178.8530  144.3070 C   0  0  0  0  0  1  0  0  0  0  0  0
  183.3300  178.3870  142.5630 C   0  0  0  0  0  2  0  0  0  0  0  0
  182.5920  179.2140  143.5070 N   0  0  0  0  0  2  0  0  0  0  0  0
  181.6700  178.4150  144.0930 O   0  0  0  0  0  0  0  0  0  0  0  0
  179.8410  177.8480  141.9440 C   0  0  0  0  0  1  0  0  0  0  0  0
  179.0770  178.7050  144.4130 O   0  0  0  0  0  1  0  0  0  0  0  0
  180.2740  180.4930  142.9320 O   0  0  0  0  0  0  0  0  0  0  0  0
  180.1900  178.8710  143.4030 P   0  0  1  0  0  0  0  0  0  0  0  0
  190.4110  177.6410  142.5820 C   0  0  0  0  0  2  0  0  0  0  0  0
  190.7370  178.8250  143.3620 N   0  0  0  0  0  2  0  0  0  0  0  0
  191.3380  178.3880  144.5500 N   0  0  0  0  0  2  0  0  0  0  0  0
  191.4420  176.9950  144.8440 C   0  0  0  0  0  3  0  0  0  0  0  0
  190.8870  176.4680  145.9330 C   0  0  0  0  0  3  0  0  0  0  0  0
  190.1280  177.2780  146.9330 C   0  0  0  0  0  2  0  0  0  0  0  0
  188.6790  177.4250  146.5040 C   0  0  0  0  0  2  0  0  0  0  0  0
  187.8600  177.9000  147.6510 C   0  0  0  0  0  0  0  0  0  0  0  0
  188.3460  177.9090  148.8110 O   0  0  0  0  0  1  0  0  0  0  0  0
  186.5480  178.3050  147.4480 O   0  0  0  0  0  0  0  0  0  0  0  0
  3  2  2  0  0  0  0
  3  7  1  0  0  0  0
  4 11  1  0  0  0  0
  4 15  1  0  0  0  0
  5 13  1  0  0  0  0
  6 18  2  0  0  0  0
  7 12  2  0  0  0  0
  8  9  2  0  0  0  0
  8 10  1  0  0  0  0
  9 16  1  0  0  0  0
 10  4  2  0  0  0  0
 11  3  1  0  0  0  0
 12  1  1  0  0  0  0
 12 30  1  0  0  0  0
 13 19  1  0  0  0  0
 13  1  2  0  0  0  0
 14 15  2  0  0  0  0
 14  6  1  0  0  0  0
 15 20  1  0  0  0  0
 16 11  2  0  0  0  0
 17 19  1  0  0  0  0
 18  5  1  0  0  0  0
 18 17  1  0  0  0  0
 19 21  1  1  0  0  0
 20  5  2  0  0  0  0
 20  7  1  0  0  0  0
 21 22  1  1  0  0  0
 23 21  1  0  0  0  0
 23 24  1  0  0  0  0
 24 25  1  0  0  0  0
 28 29  2  0  0  0  0
 29 26  1  6  0  0  0
 29 25  1  0  0  0  0
 29 27  1  0  0  0  0
 30 31  1  0  0  0  0
 31 32  1  0  0  0  0
 32 33  1  0  0  0  0
 33 34  2  0  0  0  0
 34 35  1  0  0  0  0
 36 35  1  0  0  0  0
 36 37  1  0  0  0  0
 37 38  1  0  0  0  0
 39 37  2  0  0  0  0
M  END
>  <MODEL>
8

>  <REMARK>
 VINA RESULT:      -8.2      3.494      9.395
  Name = 
  12 active torsions:
  status: ('A' for Active; 'I' for Inactive)
    1  A    between atoms: C_1  and  N_32
    2  A    between atoms: N_2  and  C_28
    3  A    between atoms: N_2  and  O_35
    4  A    between atoms: C_4  and  C_25
    5  A    between atoms: C_4  and  N_30
    6  A    between atoms: C_8  and  C_34
    7  A    between atoms: C_17  and  C_28
    8  A    between atoms: C_17  and  C_38
    9  A    between atoms: P_20  and  O_35
   10  A    between atoms: C_22  and  C_31
   11  A    between atoms: C_22  and  C_34
   12  A    between atoms: N_30  and  N_32
                            x       y       z     vdW  Elec       q    Type
                         _______ _______ _______ _____ _____    ______ ____

>  <TORSDO>
F 12

$$$$
=
 OpenBabel10222419373D

 39 43  0  0  1  0  0  0  0  0999 V2000
  187.0060  178.4480  140.3640 C   0  0  0  0  0  3  0  0  0  0  0  0
  182.7450  178.9320  139.5700 O   0  0  0  0  0  0  0  0  0  0  0  0
  183.1700  178.7830  140.7470 C   0  0  0  0  0  0  0  0  0  0  0  0
  182.6720  178.6280  143.2060 C   0  0  0  0  0  0  0  0  0  0  0  0
  186.3590  178.3150  142.6460 C   0  0  0  0  0  0  0  0  0  0  0  0
  186.0340  178.1780  145.0030 C   0  0  0  0  0  3  0  0  0  0  0  0
  184.6240  178.6170  141.0240 C   0  0  0  0  0  0  0  0  0  0  0  0
  180.3840  178.7770  144.0110 C   0  0  0  0  0  3  0  0  0  0  0  0
  179.9280  178.9280  142.7000 C   0  0  0  0  0  3  0  0  0  0  0  0
  181.7500  178.6280  144.2630 C   0  0  0  0  0  3  0  0  0  0  0  0
  182.2090  178.7800  141.8780 C   0  0  0  0  0  0  0  0  0  0  0  0
  185.6430  178.6120  140.0110 C   0  0  0  0  0  0  0  0  0  0  0  0
  187.3360  178.2920  141.7120 C   0  0  0  0  0  0  0  0  0  0  0  0
  184.6430  178.3250  144.7820 C   0  0  0  0  0  3  0  0  0  0  0  0
  184.1220  178.4700  143.4640 C   0  0  0  0  0  0  0  0  0  0  0  0
  180.8360  178.9300  141.6390 C   0  0  0  0  0  3  0  0  0  0  0  0
  188.2540  178.0620  143.8090 O   0  0  0  0  0  0  0  0  0  0  0  0
  186.8710  178.1800  143.8850 C   0  0  0  0  0  0  0  0  0  0  0  0
  188.6600  178.1220  142.4220 C   0  0  1  0  0  3  0  0  0  0  0  0
  185.0160  178.4680  142.3720 C   0  0  0  0  0  0  0  0  0  0  0  0
  189.3440  176.8120  142.0180 C   0  0  1  0  0  3  0  0  0  0  0  0
  190.5580  177.0730  141.1400 C   0  0  0  0  0  1  0  0  0  0  0  0
  189.7490  175.9870  143.2380 C   0  0  0  0  0  2  0  0  0  0  0  0
  191.1480  176.2040  143.5740 N   0  0  0  0  0  2  0  0  0  0  0  0
  191.3810  175.5490  144.7350 O   0  0  0  0  0  0  0  0  0  0  0  0
  189.6730  176.8100  146.6800 C   0  0  0  0  0  1  0  0  0  0  0  0
  192.3520  176.4510  147.0050 O   0  0  0  0  0  1  0  0  0  0  0  0
  191.6730  178.2480  145.2350 O   0  0  0  0  0  0  0  0  0  0  0  0
  191.3270  176.7470  145.9350 P   0  0  1  0  0  0  0  0  0  0  0  0
  185.3230  178.7440  138.5590 C   0  0  0  0  0  2  0  0  0  0  0  0
  185.3450  177.4330  137.9290 N   0  0  0  0  0  2  0  0  0  0  0  0
  186.5980  177.2850  137.3200 N   0  0  0  0  0  2  0  0  0  0  0  0
  187.2470  178.4010  136.7100 C   0  0  0  0  0  3  0  0  0  0  0  0
  188.5510  178.6220  136.8660 C   0  0  0  0  0  3  0  0  0  0  0  0
  189.4320  177.7410  137.6900 C   0  0  0  0  0  2  0  0  0  0  0  0
  190.1600  176.7440  136.8070 C   0  0  0  0  0  2  0  0  0  0  0  0
  191.2290  176.0650  137.5870 C   0  0  0  0  0  0  0  0  0  0  0  0
  190.9430  175.0990  138.3390 O   0  0  0  0  0  1  0  0  0  0  0  0
  192.5390  176.5170  137.5090 O   0  0  0  0  0  0  0  0  0  0  0  0
  1 13  1  0  0  0  0
  2  3  2  0  0  0  0
  3  7  1  0  0  0  0
  3 11  1  0  0  0  0
  4 15  1  0  0  0  0
  4 10  1  0  0  0  0
  5 18  1  0  0  0  0
  7 20  2  0  0  0  0
  8 10  2  0  0  0  0
  9  8  1  0  0  0  0
 11  4  2  0  0  0  0
 12  1  2  0  0  0  0
 12  7  1  0  0  0  0
 13 19  1  0  0  0  0
 13  5  2  0  0  0  0
 14  6  1  0  0  0  0
 15 14  2  0  0  0  0
 16 11  1  0  0  0  0
 16  9  2  0  0  0  0
 17 18  1  0  0  0  0
 18  6  2  0  0  0  0
 19 21  1  6  0  0  0
 19 17  1  0  0  0  0
 20  5  1  0  0  0  0
 20 15  1  0  0  0  0
 21 22  1  1  0  0  0
 21 23  1  0  0  0  0
 23 24  1  0  0  0  0
 24 25  1  0  0  0  0
 25 29  1  0  0  0  0
 28 29  2  0  0  0  0
 29 26  1  1  0  0  0
 29 27  1  0  0  0  0
 30 12  1  0  0  0  0
 31 30  1  0  0  0  0
 32 31  1  0  0  0  0
 33 34  2  0  0  0  0
 33 32  1  0  0  0  0
 34 35  1  0  0  0  0
 36 37  1  0  0  0  0
 36 35  1  0  0  0  0
 37 38  1  0  0  0  0
 39 37  2  0  0  0  0
M  END
>  <MODEL>
9

>  <REMARK>
 VINA RESULT:      -8.2      2.970      7.278
  Name = 
  12 active torsions:
  status: ('A' for Active; 'I' for Inactive)
    1  A    between atoms: C_1  and  N_32
    2  A    between atoms: N_2  and  C_28
    3  A    between atoms: N_2  and  O_35
    4  A    between atoms: C_4  and  C_25
    5  A    between atoms: C_4  and  N_30
    6  A    between atoms: C_8  and  C_34
    7  A    between atoms: C_17  and  C_28
    8  A    between atoms: C_17  and  C_38
    9  A    between atoms: P_20  and  O_35
   10  A    between atoms: C_22  and  C_31
   11  A    between atoms: C_22  and  C_34
   12  A    between atoms: N_30  and  N_32
                            x       y       z     vdW  Elec       q    Type
                         _______ _______ _______ _____ _____    ______ ____

>  <TORSDO>
F 12

$$$$
