=
 OpenBabel10222420293D

 63 64  0  0  1  0  0  0  0  0999 V2000
  186.6500  177.0810  137.9220 C   0  0  2  0  0  3  0  0  0  0  0  0
  187.4040  177.4760  136.7370 N   0  0  0  0  0  2  0  0  0  0  0  0
  187.6800  176.5640  135.6730 C   0  0  0  0  0  0  0  0  0  0  0  0
  187.3980  175.1700  135.8270 N   0  0  0  0  0  2  0  0  0  0  0  0
  188.1830  176.9990  134.6050 O   0  0  0  0  0  0  0  0  0  0  0  0
  187.6870  174.1910  134.7930 C   0  0  2  0  0  3  0  0  0  0  0  0
  186.7890  171.8230  134.6020 N   0  0  0  0  0  2  0  0  0  0  0  0
  186.5480  173.2260  134.6790 C   0  0  0  0  0  0  0  0  0  0  0  0
  185.3380  173.6710  134.6050 N   0  0  0  0  0  1  0  0  0  0  0  0
  188.9260  173.5000  135.1210 N   0  0  0  0  0  2  0  0  0  0  0  0
  191.1550  173.5590  135.7920 C   0  0  0  0  0  3  0  0  0  0  0  0
  190.0420  174.1870  135.6110 N   0  0  0  0  0  0  0  0  0  0  0  0
  193.1830  174.9410  135.2730 N   0  0  0  0  0  2  0  0  0  0  0  0
  192.3570  174.2680  136.2300 C   0  0  0  0  0  0  0  0  0  0  0  0
  192.6910  174.2240  137.4410 O   0  0  0  0  0  0  0  0  0  0  0  0
  196.8440  175.1840  135.8980 N   0  0  0  0  0  0  0  0  0  0  0  0
  194.7000  176.7880  134.7640 C   0  0  0  0  0  2  0  0  0  0  0  0
  194.4390  175.5700  135.6480 C   0  0  2  0  0  3  0  0  0  0  0  0
  196.0900  177.3610  135.0440 C   0  0  0  0  0  2  0  0  0  0  0  0
  195.5800  174.5700  135.4740 C   0  0  0  0  0  2  0  0  0  0  0  0
  197.1380  176.2520  134.9310 C   0  0  0  0  0  2  0  0  0  0  0  0
  197.9110  174.1720  135.8290 C   0  0  1  0  0  3  0  0  0  0  0  0
  199.1690  174.7500  135.1750 C   0  0  0  0  0  1  0  0  0  0  0  0
  198.0020  174.6510  138.3010 C   0  0  0  0  0  1  0  0  0  0  0  0
  198.2510  173.6100  137.2240 C   0  0  1  0  0  3  0  0  0  0  0  0
  197.5190  172.4480  137.5000 O   0  0  0  0  0  0  0  0  0  0  0  0
  197.6890  171.6350  136.3760 C   0  0  0  0  0  2  0  0  0  0  0  0
  196.9060  170.4870  136.5050 O   0  0  0  0  0  1  0  0  0  0  0  0
  186.0080  179.4840  137.9660 O   0  0  0  0  0  1  0  0  0  0  0  0
  184.5840  177.8830  138.9970 C   0  0  0  0  0  3  0  0  0  0  0  0
  185.6930  178.1720  138.3100 C   0  0  0  0  0  0  0  0  0  0  0  0
  182.5100  179.1770  138.8000 C   0  0  0  0  0  0  0  0  0  0  0  0
  183.6130  178.8700  139.5160 C   0  0  0  0  0  0  0  0  0  0  0  0
  179.7390  179.6950  141.0900 C   0  0  0  0  0  3  0  0  0  0  0  0
  180.6500  179.9470  140.1930 C   0  0  0  0  0  0  0  0  0  0  0  0
  180.0650  179.8230  142.5350 C   0  0  0  0  0  1  0  0  0  0  0  0
  181.5670  180.2020  139.2970 C   0  0  0  0  0  3  0  0  0  0  0  0
  183.8320  179.4520  140.8110 N   0  0  0  0  0  2  0  0  0  0  0  0
  183.5570  178.7570  142.0310 C   0  0  0  0  0  0  0  0  0  0  0  0
  183.1920  177.5500  142.0110 O   0  0  0  0  0  0  0  0  0  0  0  0
  183.7750  179.4560  143.3330 C   0  0  1  0  0  3  0  0  0  0  0  0
  182.9380  178.8090  144.4240 C   0  0  0  0  0  1  0  0  0  0  0  0
  185.2550  179.4380  143.6910 C   0  0  0  0  0  2  0  0  0  0  0  0
  185.5620  178.2950  144.6430 C   0  0  0  0  0  1  0  0  0  0  0  0
  182.2590  178.5360  137.4600 C   0  0  0  0  0  2  0  0  0  0  0  0
  181.3570  179.4190  136.6160 C   0  0  0  0  0  2  0  0  0  0  0  0
  180.7880  178.6320  135.5380 N   0  0  0  0  0  1  0  0  0  0  0  0
  187.5710  176.7830  139.0110 N   0  0  0  0  0  2  0  0  0  0  0  0
  189.5780  177.8640  141.5370 N   0  0  0  0  0  0  0  0  0  0  0  0
  191.8020  176.9410  138.8770 F   0  0  0  0  0  0  0  0  0  0  0  0
  190.5980  176.9950  140.9390 C   0  0  0  0  0  2  0  0  0  0  0  0
  189.6820  178.0110  138.7710 C   0  0  0  0  0  2  0  0  0  0  0  0
  190.5230  176.9050  139.4040 C   0  0  1  0  0  3  0  0  0  0  0  0
  188.3450  178.1520  140.8450 C   0  0  0  0  0  0  0  0  0  0  0  0
  188.2710  178.0160  139.3590 C   0  0  2  0  0  3  0  0  0  0  0  0
  187.3040  178.4330  141.4920 O   0  0  0  0  0  0  0  0  0  0  0  0
  189.4400  177.4840  144.0010 C   0  0  0  0  0  0  0  0  0  0  0  0
  188.7420  176.4440  143.8660 O   0  0  0  0  0  0  0  0  0  0  0  0
  189.7820  178.2820  142.8620 N   0  0  0  0  0  2  0  0  0  0  0  0
  189.8280  177.9220  145.3750 C   0  0  1  0  0  3  0  0  0  0  0  0
  188.9430  177.2910  146.4410 C   0  0  0  0  0  1  0  0  0  0  0  0
  191.3170  177.7070  145.6540 C   0  0  0  0  0  2  0  0  0  0  0  0
  191.6420  176.2830  146.0760 C   0  0  0  0  0  1  0  0  0  0  0  0
  1  2  1  6  0  0  0
  1 31  1  0  0  0  0
  1 48  1  0  0  0  0
  3  4  1  0  0  0  0
  3  2  1  0  0  0  0
  5  3  2  0  0  0  0
  6  8  1  1  0  0  0
  6 10  1  0  0  0  0
  6  4  1  0  0  0  0
  7  8  2  0  0  0  0
  9  8  1  0  0  0  0
 10 12  1  0  0  0  0
 11 14  1  0  0  0  0
 12 11  2  0  0  0  0
 13 14  1  0  0  0  0
 14 15  2  0  0  0  0
 17 19  1  0  0  0  0
 17 18  1  0  0  0  0
 18 13  1  6  0  0  0
 20 18  1  0  0  0  0
 20 16  1  0  0  0  0
 21 19  1  0  0  0  0
 21 16  1  0  0  0  0
 22 23  1  1  0  0  0
 22 16  1  0  0  0  0
 22 25  1  0  0  0  0
 25 26  1  0  0  0  0
 25 24  1  1  0  0  0
 27 28  1  0  0  0  0
 27 26  1  0  0  0  0
 29 31  1  0  0  0  0
 30 33  1  0  0  0  0
 31 30  2  0  0  0  0
 32 37  1  0  0  0  0
 32 33  2  0  0  0  0
 33 38  1  0  0  0  0
 34 36  1  0  0  0  0
 35 34  2  0  0  0  0
 37 35  2  0  0  0  0
 38 39  1  0  0  0  0
 39 41  1  0  0  0  0
 40 39  2  0  0  0  0
 41 43  1  0  0  0  0
 41 42  1  1  0  0  0
 43 44  1  0  0  0  0
 45 32  1  0  0  0  0
 46 45  1  0  0  0  0
 47 46  1  0  0  0  0
 49 59  1  0  0  0  0
 51 49  1  0  0  0  0
 52 55  1  0  0  0  0
 52 53  1  0  0  0  0
 53 50  1  6  0  0  0
 53 51  1  0  0  0  0
 54 56  2  0  0  0  0
 54 49  1  0  0  0  0
 55 48  1  1  0  0  0
 55 54  1  0  0  0  0
 57 60  1  0  0  0  0
 58 57  2  0  0  0  0
 59 57  1  0  0  0  0
 60 62  1  0  0  0  0
 60 61  1  1  0  0  0
 62 63  1  0  0  0  0
M  END
>  <MODEL>
1

>  <REMARK>
 VINA RESULT:      -5.9      0.000      0.000
  Name = 
  24 active torsions:
  status: ('A' for Active; 'I' for Inactive)
    1  A    between atoms: N_2  and  C_57
    2  A    between atoms: C_4  and  O_42
    3  A    between atoms: C_5  and  C_32
    4  A    between atoms: C_6  and  N_20
    5  A    between atoms: C_6  and  C_30
    6  A    between atoms: N_7  and  N_58
    7  A    between atoms: N_8  and  C_38
    8  A    between atoms: C_9  and  C_32
    9  A    between atoms: C_9  and  C_63
   10  A    between atoms: C_10  and  C_34
   11  A    between atoms: C_10  and  C_47
   12  A    between atoms: C_11  and  C_18
   13  A    between atoms: C_13  and  C_16
   14  A    between atoms: C_15  and  C_23
   15  A    between atoms: C_18  and  N_31
   16  A    between atoms: C_18  and  N_40
   17  A    between atoms: C_23  and  C_43
   18  A    between atoms: N_25  and  C_60
   19  A    between atoms: C_30  and  O_42
   20  A    between atoms: C_36  and  N_37
   21  A    between atoms: N_37  and  C_57
   22  A    between atoms: N_40  and  N_46
   23  A    between atoms: C_44  and  C_60
   24  A    between atoms: C_57  and  C_61
                            x       y       z     vdW  Elec       q    Type
                         _______ _______ _______ _____ _____    ______ ____

>  <TORSDO>
F 24

$$$$
=
 OpenBabel10222420293D

 63 64  0  0  1  0  0  0  0  0999 V2000
  185.1180  178.1770  138.6070 C   0  0  2  0  0  3  0  0  0  0  0  0
  185.9140  179.0390  137.7390 N   0  0  0  0  0  2  0  0  0  0  0  0
  186.8540  178.5120  136.8010 C   0  0  0  0  0  0  0  0  0  0  0  0
  187.1940  177.1220  136.8240 N   0  0  0  0  0  2  0  0  0  0  0  0
  187.3850  179.2850  135.9630 O   0  0  0  0  0  0  0  0  0  0  0  0
  188.1660  176.5370  135.9170 C   0  0  2  0  0  3  0  0  0  0  0  0
  187.6670  174.3270  137.0650 N   0  0  0  0  0  1  0  0  0  0  0  0
  187.9920  175.0510  135.8800 C   0  0  0  0  0  0  0  0  0  0  0  0
  188.1790  174.4120  134.7740 N   0  0  0  0  0  2  0  0  0  0  0  0
  189.5080  176.8950  136.3570 N   0  0  0  0  0  2  0  0  0  0  0  0
  190.0120  176.4980  138.5960 C   0  0  0  0  0  3  0  0  0  0  0  0
  189.7580  177.3470  137.6570 N   0  0  0  0  0  0  0  0  0  0  0  0
  189.4070  176.8060  141.0110 N   0  0  0  0  0  2  0  0  0  0  0  0
  190.3520  176.9490  139.9450 C   0  0  0  0  0  0  0  0  0  0  0  0
  191.4540  177.5230  140.1420 O   0  0  0  0  0  0  0  0  0  0  0  0
  190.6440  176.8050  144.5200 N   0  0  0  0  0  0  0  0  0  0  0  0
  190.4860  178.6140  142.2510 C   0  0  0  0  0  2  0  0  0  0  0  0
  189.6610  177.3330  142.3420 C   0  0  2  0  0  3  0  0  0  0  0  0
  190.8910  179.0880  143.6470 C   0  0  0  0  0  2  0  0  0  0  0  0
  190.4290  176.2980  143.1600 C   0  0  0  0  0  2  0  0  0  0  0  0
  191.5670  177.9420  144.4050 C   0  0  0  0  0  2  0  0  0  0  0  0
  191.2850  175.7500  145.3250 C   0  0  1  0  0  3  0  0  0  0  0  0
  192.3480  175.0120  144.5080 C   0  0  0  0  0  1  0  0  0  0  0  0
  190.8520  176.5110  147.6880 C   0  0  0  0  0  1  0  0  0  0  0  0
  191.9090  176.3200  146.6140 C   0  0  1  0  0  3  0  0  0  0  0  0
  192.9370  175.4970  147.0920 O   0  0  0  0  0  0  0  0  0  0  0  0
  192.8770  175.6110  148.4830 C   0  0  0  0  0  2  0  0  0  0  0  0
  193.9290  176.4120  148.9340 O   0  0  0  0  0  1  0  0  0  0  0  0
  182.9480  178.5830  137.4610 O   0  0  0  0  0  1  0  0  0  0  0  0
  183.7760  176.3590  137.6270 C   0  0  0  0  0  3  0  0  0  0  0  0
  183.9170  177.6680  137.8630 C   0  0  0  0  0  0  0  0  0  0  0  0
  182.7670  174.6550  136.1800 C   0  0  0  0  0  0  0  0  0  0  0  0
  182.6030  175.7230  136.9900 C   0  0  0  0  0  0  0  0  0  0  0  0
  180.7770  171.6230  135.9890 C   0  0  0  0  0  3  0  0  0  0  0  0
  181.1890  172.8350  135.7450 C   0  0  0  0  0  0  0  0  0  0  0  0
  179.8050  171.3760  137.0870 C   0  0  0  0  0  1  0  0  0  0  0  0
  181.5980  174.0530  135.5040 C   0  0  0  0  0  3  0  0  0  0  0  0
  181.2890  176.2220  137.2870 N   0  0  0  0  0  2  0  0  0  0  0  0
  180.6370  175.9930  138.5410 C   0  0  0  0  0  0  0  0  0  0  0  0
  181.2450  175.4110  139.4800 O   0  0  0  0  0  0  0  0  0  0  0  0
  179.2530  176.5130  138.7480 C   0  0  1  0  0  3  0  0  0  0  0  0
  178.9810  176.7100  140.2310 C   0  0  0  0  0  1  0  0  0  0  0  0
  179.0650  177.8120  137.9770 C   0  0  0  0  0  2  0  0  0  0  0  0
  179.1450  179.0060  138.9120 C   0  0  0  0  0  1  0  0  0  0  0  0
  184.1410  174.1060  135.9000 C   0  0  0  0  0  2  0  0  0  0  0  0
  184.1400  173.3260  134.5960 C   0  0  0  0  0  2  0  0  0  0  0  0
  185.0220  172.1810  134.7210 N   0  0  0  0  0  1  0  0  0  0  0  0
  184.7200  178.9170  139.7980 N   0  0  0  0  0  2  0  0  0  0  0  0
  184.5740  179.1420  143.1890 N   0  0  0  0  0  0  0  0  0  0  0  0
  181.2240  178.4070  142.1350 F   0  0  0  0  0  0  0  0  0  0  0  0
  183.1670  179.5050  142.9860 C   0  0  0  0  0  2  0  0  0  0  0  0
  183.2890  177.5900  141.2860 C   0  0  0  0  0  2  0  0  0  0  0  0
  182.5040  178.8000  141.7880 C   0  0  1  0  0  3  0  0  0  0  0  0
  185.3760  178.6300  142.1050 C   0  0  0  0  0  0  0  0  0  0  0  0
  184.7190  177.9890  140.9250 C   0  0  2  0  0  3  0  0  0  0  0  0
  186.6230  178.7960  142.1020 O   0  0  0  0  0  0  0  0  0  0  0  0
  185.6880  178.4570  145.3170 C   0  0  0  0  0  0  0  0  0  0  0  0
  185.4840  177.2320  145.1040 O   0  0  0  0  0  0  0  0  0  0  0  0
  185.1470  179.4480  144.4340 N   0  0  0  0  0  2  0  0  0  0  0  0
  186.4240  178.8640  146.5510 C   0  0  1  0  0  3  0  0  0  0  0  0
  185.5040  178.9300  147.7620 C   0  0  0  0  0  1  0  0  0  0  0  0
  187.6580  177.9970  146.8040 C   0  0  0  0  0  2  0  0  0  0  0  0
  188.3630  178.3340  148.1080 C   0  0  0  0  0  1  0  0  0  0  0  0
  1  2  1  6  0  0  0
  1 48  1  0  0  0  0
  3  4  1  0  0  0  0
  3  2  1  0  0  0  0
  5  3  2  0  0  0  0
  6  8  1  1  0  0  0
  6 10  1  0  0  0  0
  6  4  1  0  0  0  0
  8  7  1  0  0  0  0
  9  8  2  0  0  0  0
 10 12  1  0  0  0  0
 11 14  1  0  0  0  0
 12 11  2  0  0  0  0
 14 15  2  0  0  0  0
 14 13  1  0  0  0  0
 16 22  1  0  0  0  0
 17 18  1  0  0  0  0
 17 19  1  0  0  0  0
 18 13  1  6  0  0  0
 18 20  1  0  0  0  0
 19 21  1  0  0  0  0
 20 16  1  0  0  0  0
 21 16  1  0  0  0  0
 22 23  1  6  0  0  0
 22 25  1  0  0  0  0
 25 26  1  0  0  0  0
 25 24  1  1  0  0  0
 26 27  1  0  0  0  0
 27 28  1  0  0  0  0
 29 31  1  0  0  0  0
 30 31  2  0  0  0  0
 31  1  1  0  0  0  0
 32 33  2  0  0  0  0
 33 38  1  0  0  0  0
 33 30  1  0  0  0  0
 34 36  1  0  0  0  0
 35 34  2  0  0  0  0
 37 35  2  0  0  0  0
 37 32  1  0  0  0  0
 38 39  1  0  0  0  0
 39 41  1  0  0  0  0
 39 40  2  0  0  0  0
 41 42  1  1  0  0  0
 43 41  1  0  0  0  0
 43 44  1  0  0  0  0
 45 32  1  0  0  0  0
 46 47  1  0  0  0  0
 46 45  1  0  0  0  0
 49 59  1  0  0  0  0
 51 49  1  0  0  0  0
 52 53  1  0  0  0  0
 53 50  1  1  0  0  0
 53 51  1  0  0  0  0
 54 49  1  0  0  0  0
 55 48  1  6  0  0  0
 55 52  1  0  0  0  0
 55 54  1  0  0  0  0
 56 54  2  0  0  0  0
 57 60  1  0  0  0  0
 58 57  2  0  0  0  0
 59 57  1  0  0  0  0
 60 62  1  0  0  0  0
 60 61  1  1  0  0  0
 62 63  1  0  0  0  0
M  END
>  <MODEL>
2

>  <REMARK>
 VINA RESULT:      -4.8      4.387      7.084
  Name = 
  24 active torsions:
  status: ('A' for Active; 'I' for Inactive)
    1  A    between atoms: N_2  and  C_57
    2  A    between atoms: C_4  and  O_42
    3  A    between atoms: C_5  and  C_32
    4  A    between atoms: C_6  and  N_20
    5  A    between atoms: C_6  and  C_30
    6  A    between atoms: N_7  and  N_58
    7  A    between atoms: N_8  and  C_38
    8  A    between atoms: C_9  and  C_32
    9  A    between atoms: C_9  and  C_63
   10  A    between atoms: C_10  and  C_34
   11  A    between atoms: C_10  and  C_47
   12  A    between atoms: C_11  and  C_18
   13  A    between atoms: C_13  and  C_16
   14  A    between atoms: C_15  and  C_23
   15  A    between atoms: C_18  and  N_31
   16  A    between atoms: C_18  and  N_40
   17  A    between atoms: C_23  and  C_43
   18  A    between atoms: N_25  and  C_60
   19  A    between atoms: C_30  and  O_42
   20  A    between atoms: C_36  and  N_37
   21  A    between atoms: N_37  and  C_57
   22  A    between atoms: N_40  and  N_46
   23  A    between atoms: C_44  and  C_60
   24  A    between atoms: C_57  and  C_61
                            x       y       z     vdW  Elec       q    Type
                         _______ _______ _______ _____ _____    ______ ____

>  <TORSDO>
F 24

$$$$
=
 OpenBabel10222420293D

 63 64  0  0  1  0  0  0  0  0999 V2000
  191.1810  175.9900  138.4720 C   0  0  2  0  0  3  0  0  0  0  0  0
  190.3590  174.8940  137.9670 N   0  0  0  0  0  2  0  0  0  0  0  0
  189.1670  175.1240  137.2140 C   0  0  0  0  0  0  0  0  0  0  0  0
  188.6280  176.4450  137.1020 N   0  0  0  0  0  2  0  0  0  0  0  0
  188.5920  174.1520  136.6600 O   0  0  0  0  0  0  0  0  0  0  0  0
  187.4020  176.7340  136.3770 C   0  0  2  0  0  3  0  0  0  0  0  0
  189.0500  177.6870  134.6950 N   0  0  0  0  0  1  0  0  0  0  0  0
  187.7120  177.5710  135.1750 C   0  0  0  0  0  0  0  0  0  0  0  0
  186.7660  178.2300  134.5940 N   0  0  0  0  0  2  0  0  0  0  0  0
  186.4720  177.4180  137.2640 N   0  0  0  0  0  2  0  0  0  0  0  0
  184.2040  177.8870  137.5130 C   0  0  0  0  0  3  0  0  0  0  0  0
  185.1410  177.0070  137.3920 N   0  0  0  0  0  0  0  0  0  0  0  0
  182.3670  176.5100  138.5250 N   0  0  0  0  0  2  0  0  0  0  0  0
  182.7990  177.4860  137.5700 C   0  0  0  0  0  0  0  0  0  0  0  0
  181.9900  177.9560  136.7300 O   0  0  0  0  0  0  0  0  0  0  0  0
  179.4890  174.3590  137.5580 N   0  0  0  0  0  0  0  0  0  0  0  0
  180.6470  175.5270  139.9550 C   0  0  0  0  0  2  0  0  0  0  0  0
  181.0040  176.0060  138.5490 C   0  0  2  0  0  3  0  0  0  0  0  0
  179.2750  174.8530  139.9550 C   0  0  0  0  0  2  0  0  0  0  0  0
  180.8760  174.8390  137.5740 C   0  0  0  0  0  2  0  0  0  0  0  0
  179.2340  173.7660  138.8780 C   0  0  0  0  0  2  0  0  0  0  0  0
  179.3610  173.3110  136.5310 C   0  0  1  0  0  3  0  0  0  0  0  0
  179.6580  173.8730  135.1390 C   0  0  0  0  0  1  0  0  0  0  0  0
  179.5930  170.8020  136.4830 C   0  0  0  0  0  1  0  0  0  0  0  0
  180.2830  172.1120  136.8250 C   0  0  1  0  0  3  0  0  0  0  0  0
  181.4930  172.2130  136.1280 O   0  0  0  0  0  0  0  0  0  0  0  0
  182.4170  171.4990  136.8950 C   0  0  0  0  0  2  0  0  0  0  0  0
  183.0700  170.5620  136.0910 O   0  0  0  0  0  1  0  0  0  0  0  0
  193.3870  176.9890  137.9020 O   0  0  0  0  0  1  0  0  0  0  0  0
  193.0440  174.6590  137.5620 C   0  0  0  0  0  3  0  0  0  0  0  0
  192.5890  175.8500  137.9670 C   0  0  0  0  0  0  0  0  0  0  0  0
  194.4760  173.6750  135.8320 C   0  0  0  0  0  0  0  0  0  0  0  0
  194.3710  174.4070  136.9620 C   0  0  0  0  0  0  0  0  0  0  0  0
  197.2720  171.3670  136.0500 C   0  0  0  0  0  3  0  0  0  0  0  0
  196.5420  172.3740  135.6590 C   0  0  0  0  0  0  0  0  0  0  0  0
  197.1090  170.0370  135.4040 C   0  0  0  0  0  1  0  0  0  0  0  0
  195.8090  173.3810  135.2630 C   0  0  0  0  0  3  0  0  0  0  0  0
  195.5350  174.9930  137.5660 N   0  0  0  0  0  2  0  0  0  0  0  0
  196.2140  174.4000  138.6780 C   0  0  0  0  0  0  0  0  0  0  0  0
  195.8610  173.2710  139.1150 O   0  0  0  0  0  0  0  0  0  0  0  0
  197.3920  175.1010  139.2710 C   0  0  1  0  0  3  0  0  0  0  0  0
  197.2250  175.2310  140.7760 C   0  0  0  0  0  1  0  0  0  0  0  0
  198.6720  174.3540  138.9210 C   0  0  0  0  0  2  0  0  0  0  0  0
  198.9340  174.4130  137.4260 C   0  0  0  0  0  1  0  0  0  0  0  0
  193.2520  173.0930  135.1750 C   0  0  0  0  0  2  0  0  0  0  0  0
  193.2320  171.5840  135.3440 C   0  0  0  0  0  2  0  0  0  0  0  0
  191.9070  171.0840  135.0300 N   0  0  0  0  0  1  0  0  0  0  0  0
  191.1460  175.9950  139.9290 N   0  0  0  0  0  2  0  0  0  0  0  0
  189.3560  177.9160  142.0920 N   0  0  0  0  0  0  0  0  0  0  0  0
  192.3100  176.9550  143.8870 F   0  0  0  0  0  0  0  0  0  0  0  0
  190.0500  177.1670  143.1450 C   0  0  0  0  0  2  0  0  0  0  0  0
  192.0580  177.5460  141.5980 C   0  0  0  0  0  2  0  0  0  0  0  0
  191.4940  176.7700  142.7850 C   0  0  1  0  0  3  0  0  0  0  0  0
  189.7660  177.8160  140.7120 C   0  0  0  0  0  0  0  0  0  0  0  0
  191.1560  177.3850  140.3740 C   0  0  2  0  0  3  0  0  0  0  0  0
  188.9360  178.0060  139.7870 O   0  0  0  0  0  0  0  0  0  0  0  0
  186.9760  177.9650  142.8470 C   0  0  0  0  0  0  0  0  0  0  0  0
  186.8310  176.7240  142.6830 O   0  0  0  0  0  0  0  0  0  0  0  0
  188.1920  178.6130  142.4550 N   0  0  0  0  0  2  0  0  0  0  0  0
  185.8290  178.7640  143.3720 C   0  0  1  0  0  3  0  0  0  0  0  0
  185.7150  180.1140  142.6770 C   0  0  0  0  0  1  0  0  0  0  0  0
  184.5150  177.9820  143.3430 C   0  0  0  0  0  2  0  0  0  0  0  0
  183.7470  178.1590  142.0430 C   0  0  0  0  0  1  0  0  0  0  0  0
  1  2  1  1  0  0  0
  1 48  1  0  0  0  0
  3  2  1  0  0  0  0
  4  3  1  0  0  0  0
  5  3  2  0  0  0  0
  6  8  1  6  0  0  0
  6  4  1  0  0  0  0
  6 10  1  0  0  0  0
  7  8  1  0  0  0  0
  9  8  2  0  0  0  0
 10 12  1  0  0  0  0
 11 14  1  0  0  0  0
 12 11  2  0  0  0  0
 14 13  1  0  0  0  0
 15 14  2  0  0  0  0
 16 20  1  0  0  0  0
 16 21  1  0  0  0  0
 17 19  1  0  0  0  0
 18 13  1  1  0  0  0
 18 17  1  0  0  0  0
 20 18  1  0  0  0  0
 21 19  1  0  0  0  0
 22 23  1  6  0  0  0
 22 25  1  0  0  0  0
 22 16  1  0  0  0  0
 25 24  1  6  0  0  0
 26 25  1  0  0  0  0
 26 27  1  0  0  0  0
 28 27  1  0  0  0  0
 29 31  1  0  0  0  0
 30 31  2  0  0  0  0
 31  1  1  0  0  0  0
 32 33  2  0  0  0  0
 33 30  1  0  0  0  0
 33 38  1  0  0  0  0
 35 34  2  0  0  0  0
 36 34  1  0  0  0  0
 37 35  2  0  0  0  0
 37 32  1  0  0  0  0
 38 39  1  0  0  0  0
 39 40  2  0  0  0  0
 39 41  1  0  0  0  0
 41 42  1  1  0  0  0
 43 41  1  0  0  0  0
 44 43  1  0  0  0  0
 45 46  1  0  0  0  0
 45 32  1  0  0  0  0
 47 46  1  0  0  0  0
 49 59  1  0  0  0  0
 49 51  1  0  0  0  0
 52 53  1  0  0  0  0
 53 51  1  0  0  0  0
 53 50  1  1  0  0  0
 54 49  1  0  0  0  0
 55 48  1  1  0  0  0
 55 54  1  0  0  0  0
 55 52  1  0  0  0  0
 56 54  2  0  0  0  0
 57 60  1  0  0  0  0
 58 57  2  0  0  0  0
 59 57  1  0  0  0  0
 60 61  1  6  0  0  0
 62 60  1  0  0  0  0
 63 62  1  0  0  0  0
M  END
>  <MODEL>
3

>  <REMARK>
 VINA RESULT:      -4.7      3.330     11.682
  Name = 
  24 active torsions:
  status: ('A' for Active; 'I' for Inactive)
    1  A    between atoms: N_2  and  C_57
    2  A    between atoms: C_4  and  O_42
    3  A    between atoms: C_5  and  C_32
    4  A    between atoms: C_6  and  N_20
    5  A    between atoms: C_6  and  C_30
    6  A    between atoms: N_7  and  N_58
    7  A    between atoms: N_8  and  C_38
    8  A    between atoms: C_9  and  C_32
    9  A    between atoms: C_9  and  C_63
   10  A    between atoms: C_10  and  C_34
   11  A    between atoms: C_10  and  C_47
   12  A    between atoms: C_11  and  C_18
   13  A    between atoms: C_13  and  C_16
   14  A    between atoms: C_15  and  C_23
   15  A    between atoms: C_18  and  N_31
   16  A    between atoms: C_18  and  N_40
   17  A    between atoms: C_23  and  C_43
   18  A    between atoms: N_25  and  C_60
   19  A    between atoms: C_30  and  O_42
   20  A    between atoms: C_36  and  N_37
   21  A    between atoms: N_37  and  C_57
   22  A    between atoms: N_40  and  N_46
   23  A    between atoms: C_44  and  C_60
   24  A    between atoms: C_57  and  C_61
                            x       y       z     vdW  Elec       q    Type
                         _______ _______ _______ _____ _____    ______ ____

>  <TORSDO>
F 24

$$$$
=
 OpenBabel10222420293D

 63 64  0  0  1  0  0  0  0  0999 V2000
  191.1880  176.1560  138.5800 C   0  0  2  0  0  3  0  0  0  0  0  0
  190.2680  175.1750  138.0100 N   0  0  0  0  0  2  0  0  0  0  0  0
  189.0540  175.5590  137.3640 C   0  0  0  0  0  0  0  0  0  0  0  0
  188.5970  176.9130  137.4320 N   0  0  0  0  0  2  0  0  0  0  0  0
  188.3870  174.6920  136.7430 O   0  0  0  0  0  0  0  0  0  0  0  0
  187.3550  177.3550  136.8220 C   0  0  2  0  0  3  0  0  0  0  0  0
  186.5550  178.2750  134.5940 N   0  0  0  0  0  2  0  0  0  0  0  0
  187.6270  177.8850  135.4480 C   0  0  0  0  0  0  0  0  0  0  0  0
  188.8420  177.9480  135.0170 N   0  0  0  0  0  1  0  0  0  0  0  0
  186.7440  178.3750  137.6640 N   0  0  0  0  0  2  0  0  0  0  0  0
  184.5060  177.7430  137.7810 C   0  0  0  0  0  3  0  0  0  0  0  0
  185.3800  178.6730  137.5860 N   0  0  0  0  0  0  0  0  0  0  0  0
  182.3800  178.2320  136.5430 N   0  0  0  0  0  2  0  0  0  0  0  0
  183.0750  178.0440  137.7810 C   0  0  0  0  0  0  0  0  0  0  0  0
  182.4800  178.2040  138.8770 O   0  0  0  0  0  0  0  0  0  0  0  0
  179.4620  180.5260  136.8090 N   0  0  0  0  0  0  0  0  0  0  0  0
  180.4050  178.3640  135.1100 C   0  0  0  0  0  2  0  0  0  0  0  0
  180.9840  178.6340  136.4970 C   0  0  2  0  0  3  0  0  0  0  0  0
  178.9870  178.9270  135.0050 C   0  0  0  0  0  2  0  0  0  0  0  0
  180.8740  180.1250  136.8050 C   0  0  0  0  0  2  0  0  0  0  0  0
  178.9840  180.3990  135.4250 C   0  0  0  0  0  2  0  0  0  0  0  0
  179.3690  181.9380  137.2170 C   0  0  1  0  0  3  0  0  0  0  0  0
  179.6780  182.0950  138.7090 C   0  0  0  0  0  1  0  0  0  0  0  0
  179.8330  182.9260  134.9460 C   0  0  0  0  0  1  0  0  0  0  0  0
  180.3100  182.8330  136.3860 C   0  0  1  0  0  3  0  0  0  0  0  0
  180.4200  184.1140  136.9400 O   0  0  0  0  0  0  0  0  0  0  0  0
  179.1040  184.5280  137.1650 C   0  0  0  0  0  2  0  0  0  0  0  0
  179.0900  185.5520  138.1130 O   0  0  0  0  0  1  0  0  0  0  0  0
  193.3160  177.1160  137.7220 O   0  0  0  0  0  1  0  0  0  0  0  0
  193.0130  174.7560  137.6980 C   0  0  0  0  0  3  0  0  0  0  0  0
  192.5570  175.9790  137.9880 C   0  0  0  0  0  0  0  0  0  0  0  0
  194.3110  173.9480  135.7810 C   0  0  0  0  0  0  0  0  0  0  0  0
  194.2980  174.4550  137.0320 C   0  0  0  0  0  0  0  0  0  0  0  0
  197.1550  171.7020  136.0220 C   0  0  0  0  0  3  0  0  0  0  0  0
  196.3770  172.6510  135.5820 C   0  0  0  0  0  0  0  0  0  0  0  0
  196.9610  170.3050  135.5490 C   0  0  0  0  0  1  0  0  0  0  0  0
  195.5960  173.6000  135.1370 C   0  0  0  0  0  3  0  0  0  0  0  0
  195.5260  174.7590  137.7130 N   0  0  0  0  0  2  0  0  0  0  0  0
  196.0070  173.9950  138.8240 C   0  0  0  0  0  0  0  0  0  0  0  0
  195.4010  172.9520  139.1930 O   0  0  0  0  0  0  0  0  0  0  0  0
  197.2730  174.4090  139.4990 C   0  0  1  0  0  3  0  0  0  0  0  0
  198.3080  174.8250  138.4670 C   0  0  0  0  0  1  0  0  0  0  0  0
  196.9930  175.5350  140.4850 C   0  0  0  0  0  2  0  0  0  0  0  0
  197.8550  175.3870  141.7260 C   0  0  0  0  0  1  0  0  0  0  0  0
  193.0240  173.6670  135.0510 C   0  0  0  0  0  2  0  0  0  0  0  0
  192.9830  172.2190  134.5950 C   0  0  0  0  0  2  0  0  0  0  0  0
  192.2240  171.4350  135.5510 N   0  0  0  0  0  1  0  0  0  0  0  0
  191.2220  176.0090  140.0290 N   0  0  0  0  0  2  0  0  0  0  0  0
  188.9330  176.8160  142.4140 N   0  0  0  0  0  0  0  0  0  0  0  0
  192.1220  177.0070  144.0460 F   0  0  0  0  0  0  0  0  0  0  0  0
  189.9340  176.3310  143.3700 C   0  0  0  0  0  2  0  0  0  0  0  0
  191.5150  177.6420  141.8370 C   0  0  0  0  0  2  0  0  0  0  0  0
  191.3900  176.6000  142.9450 C   0  0  1  0  0  3  0  0  0  0  0  0
  189.2660  177.0190  141.0240 C   0  0  0  0  0  0  0  0  0  0  0  0
  190.6880  177.2330  140.6180 C   0  0  2  0  0  3  0  0  0  0  0  0
  188.3780  176.9300  140.1380 O   0  0  0  0  0  0  0  0  0  0  0  0
  186.8370  178.1350  142.7380 C   0  0  0  0  0  0  0  0  0  0  0  0
  187.3870  179.2150  142.3920 O   0  0  0  0  0  0  0  0  0  0  0  0
  187.6100  176.9350  142.8680 N   0  0  0  0  0  2  0  0  0  0  0  0
  185.3880  178.1440  143.0970 C   0  0  1  0  0  3  0  0  0  0  0  0
  185.0250  179.3490  143.9540 C   0  0  0  0  0  1  0  0  0  0  0  0
  184.4850  178.0090  141.8700 C   0  0  0  0  0  2  0  0  0  0  0  0
  183.0790  178.5390  142.1060 C   0  0  0  0  0  1  0  0  0  0  0  0
  1 31  1  6  0  0  0
  1 48  1  0  0  0  0
  2  1  1  0  0  0  0
  3  4  1  0  0  0  0
  3  2  1  0  0  0  0
  5  3  2  0  0  0  0
  6  8  1  6  0  0  0
  6  4  1  0  0  0  0
  6 10  1  0  0  0  0
  7  8  2  0  0  0  0
  9  8  1  0  0  0  0
 12 10  1  0  0  0  0
 12 11  2  0  0  0  0
 13 14  1  0  0  0  0
 14 11  1  0  0  0  0
 14 15  2  0  0  0  0
 16 22  1  0  0  0  0
 17 18  1  0  0  0  0
 18 13  1  6  0  0  0
 18 20  1  0  0  0  0
 19 17  1  0  0  0  0
 19 21  1  0  0  0  0
 20 16  1  0  0  0  0
 21 16  1  0  0  0  0
 22 23  1  1  0  0  0
 25 24  1  6  0  0  0
 25 26  1  0  0  0  0
 25 22  1  0  0  0  0
 26 27  1  0  0  0  0
 27 28  1  0  0  0  0
 29 31  1  0  0  0  0
 30 31  2  0  0  0  0
 32 33  2  0  0  0  0
 33 30  1  0  0  0  0
 33 38  1  0  0  0  0
 35 34  2  0  0  0  0
 36 34  1  0  0  0  0
 37 35  2  0  0  0  0
 37 32  1  0  0  0  0
 38 39  1  0  0  0  0
 39 40  2  0  0  0  0
 39 41  1  0  0  0  0
 41 42  1  6  0  0  0
 41 43  1  0  0  0  0
 43 44  1  0  0  0  0
 45 32  1  0  0  0  0
 46 45  1  0  0  0  0
 46 47  1  0  0  0  0
 49 59  1  0  0  0  0
 49 51  1  0  0  0  0
 52 53  1  0  0  0  0
 53 51  1  0  0  0  0
 53 50  1  1  0  0  0
 54 49  1  0  0  0  0
 55 48  1  1  0  0  0
 55 54  1  0  0  0  0
 55 52  1  0  0  0  0
 56 54  2  0  0  0  0
 57 59  1  0  0  0  0
 57 60  1  0  0  0  0
 58 57  2  0  0  0  0
 60 61  1  6  0  0  0
 62 63  1  0  0  0  0
 62 60  1  0  0  0  0
M  END
>  <MODEL>
4

>  <REMARK>
 VINA RESULT:      -4.6      2.740     12.329
  Name = 
  24 active torsions:
  status: ('A' for Active; 'I' for Inactive)
    1  A    between atoms: N_2  and  C_57
    2  A    between atoms: C_4  and  O_42
    3  A    between atoms: C_5  and  C_32
    4  A    between atoms: C_6  and  N_20
    5  A    between atoms: C_6  and  C_30
    6  A    between atoms: N_7  and  N_58
    7  A    between atoms: N_8  and  C_38
    8  A    between atoms: C_9  and  C_32
    9  A    between atoms: C_9  and  C_63
   10  A    between atoms: C_10  and  C_34
   11  A    between atoms: C_10  and  C_47
   12  A    between atoms: C_11  and  C_18
   13  A    between atoms: C_13  and  C_16
   14  A    between atoms: C_15  and  C_23
   15  A    between atoms: C_18  and  N_31
   16  A    between atoms: C_18  and  N_40
   17  A    between atoms: C_23  and  C_43
   18  A    between atoms: N_25  and  C_60
   19  A    between atoms: C_30  and  O_42
   20  A    between atoms: C_36  and  N_37
   21  A    between atoms: N_37  and  C_57
   22  A    between atoms: N_40  and  N_46
   23  A    between atoms: C_44  and  C_60
   24  A    between atoms: C_57  and  C_61
                            x       y       z     vdW  Elec       q    Type
                         _______ _______ _______ _____ _____    ______ ____

>  <TORSDO>
F 24

$$$$
=
 OpenBabel10222420293D

 63 64  0  0  1  0  0  0  0  0999 V2000
  183.6830  178.6510  140.9630 C   0  0  2  0  0  3  0  0  0  0  0  0
  183.0360  179.5350  141.9270 N   0  0  0  0  0  2  0  0  0  0  0  0
  181.7360  179.2630  142.4520 C   0  0  0  0  0  0  0  0  0  0  0  0
  180.9370  178.2150  141.8950 N   0  0  0  0  0  2  0  0  0  0  0  0
  181.2980  179.9610  143.4030 O   0  0  0  0  0  0  0  0  0  0  0  0
  179.5960  177.9130  142.3670 C   0  0  2  0  0  3  0  0  0  0  0  0
  178.9530  178.9340  144.6020 N   0  0  0  0  0  1  0  0  0  0  0  0
  179.5810  177.8880  143.8640 C   0  0  0  0  0  0  0  0  0  0  0  0
  180.1810  176.9340  144.4930 N   0  0  0  0  0  2  0  0  0  0  0  0
  179.1720  176.6320  141.8180 N   0  0  0  0  0  2  0  0  0  0  0  0
  179.0560  175.1490  140.0270 C   0  0  0  0  0  3  0  0  0  0  0  0
  179.5840  176.2030  140.5520 N   0  0  0  0  0  0  0  0  0  0  0  0
  179.8870  173.3930  138.4400 N   0  0  0  0  0  2  0  0  0  0  0  0
  179.4120  174.7230  138.6740 C   0  0  0  0  0  0  0  0  0  0  0  0
  179.3630  175.5570  137.7340 O   0  0  0  0  0  0  0  0  0  0  0  0
  182.3220  172.7900  135.6920 N   0  0  0  0  0  0  0  0  0  0  0  0
  180.0450  171.4760  136.9330 C   0  0  0  0  0  2  0  0  0  0  0  0
  180.3500  172.9590  137.1330 C   0  0  2  0  0  3  0  0  0  0  0  0
  180.6670  170.9740  135.6300 C   0  0  0  0  0  2  0  0  0  0  0  0
  181.8570  173.1800  137.0280 C   0  0  0  0  0  2  0  0  0  0  0  0
  182.1550  171.3330  135.5960 C   0  0  0  0  0  2  0  0  0  0  0  0
  183.7530  173.1150  135.5720 C   0  0  1  0  0  3  0  0  0  0  0  0
  184.0120  174.5790  135.9350 C   0  0  0  0  0  1  0  0  0  0  0  0
  185.7450  171.5730  135.6400 C   0  0  0  0  0  1  0  0  0  0  0  0
  184.6200  172.1920  136.4510 C   0  0  1  0  0  3  0  0  0  0  0  0
  185.1450  172.8790  137.5530 O   0  0  0  0  0  0  0  0  0  0  0  0
  186.5310  172.8400  137.3810 C   0  0  0  0  0  2  0  0  0  0  0  0
  187.0320  174.1410  137.3080 O   0  0  0  0  0  1  0  0  0  0  0  0
  185.6360  179.0020  142.4630 O   0  0  0  0  0  1  0  0  0  0  0  0
  186.0020  178.2500  140.2360 C   0  0  0  0  0  3  0  0  0  0  0  0
  185.1640  178.6150  141.2120 C   0  0  0  0  0  0  0  0  0  0  0  0
  188.2240  177.9590  139.2400 C   0  0  0  0  0  0  0  0  0  0  0  0
  187.4780  178.2610  140.3240 C   0  0  0  0  0  0  0  0  0  0  0  0
  191.1250  175.8980  138.5170 C   0  0  0  0  0  3  0  0  0  0  0  0
  190.4120  176.9060  138.9320 C   0  0  0  0  0  0  0  0  0  0  0  0
  191.5910  175.8490  137.1050 C   0  0  0  0  0  1  0  0  0  0  0  0
  189.6980  177.9210  139.3440 C   0  0  0  0  0  3  0  0  0  0  0  0
  188.1020  178.6480  141.5580 N   0  0  0  0  0  2  0  0  0  0  0  0
  188.5190  177.7000  142.5480 C   0  0  0  0  0  0  0  0  0  0  0  0
  188.4340  176.4630  142.3230 O   0  0  0  0  0  0  0  0  0  0  0  0
  189.1210  178.1950  143.8220 C   0  0  1  0  0  3  0  0  0  0  0  0
  189.0860  177.1030  144.8790 C   0  0  0  0  0  1  0  0  0  0  0  0
  190.5450  178.6730  143.5720 C   0  0  0  0  0  2  0  0  0  0  0  0
  191.4470  177.5060  143.2100 C   0  0  0  0  0  1  0  0  0  0  0  0
  187.5700  177.5920  137.9330 C   0  0  0  0  0  2  0  0  0  0  0  0
  188.1770  178.3960  136.7970 C   0  0  0  0  0  2  0  0  0  0  0  0
  188.5610  179.7070  137.2870 N   0  0  0  0  0  1  0  0  0  0  0  0
  183.3920  179.1070  139.6090 N   0  0  0  0  0  2  0  0  0  0  0  0
  180.9690  180.1310  137.4510 N   0  0  0  0  0  0  0  0  0  0  0  0
  182.5110  177.2960  135.8820 F   0  0  0  0  0  0  0  0  0  0  0  0
  181.8010  179.5140  136.4120 C   0  0  0  0  0  2  0  0  0  0  0  0
  182.0130  177.6680  138.1780 C   0  0  0  0  0  2  0  0  0  0  0  0
  182.5570  178.2570  136.8780 C   0  0  1  0  0  3  0  0  0  0  0  0
  181.2470  179.9190  138.8510 C   0  0  0  0  0  0  0  0  0  0  0  0
  182.0230  178.7180  139.2880 C   0  0  2  0  0  3  0  0  0  0  0  0
  180.9170  180.7830  139.7030 O   0  0  0  0  0  0  0  0  0  0  0  0
  180.2090  182.4620  136.9770 C   0  0  0  0  0  0  0  0  0  0  0  0
  181.2380  182.9710  137.4980 O   0  0  0  0  0  0  0  0  0  0  0  0
  179.9900  181.0470  137.0360 N   0  0  0  0  0  2  0  0  0  0  0  0
  179.1810  183.3620  136.3770 C   0  0  1  0  0  3  0  0  0  0  0  0
  178.9310  184.5910  137.2410 C   0  0  0  0  0  1  0  0  0  0  0  0
  179.5020  183.7260  134.9270 C   0  0  0  0  0  2  0  0  0  0  0  0
  180.7310  184.6110  134.7950 C   0  0  0  0  0  1  0  0  0  0  0  0
  1 48  1  6  0  0  0
  1 31  1  0  0  0  0
  1  2  1  0  0  0  0
  2  3  1  0  0  0  0
  3  5  2  0  0  0  0
  4  6  1  0  0  0  0
  4  3  1  0  0  0  0
  6 10  1  6  0  0  0
  6  8  1  0  0  0  0
  8  9  2  0  0  0  0
  8  7  1  0  0  0  0
 11 12  2  0  0  0  0
 12 10  1  0  0  0  0
 13 14  1  0  0  0  0
 14 11  1  0  0  0  0
 15 14  2  0  0  0  0
 16 20  1  0  0  0  0
 17 18  1  0  0  0  0
 18 13  1  1  0  0  0
 19 17  1  0  0  0  0
 20 18  1  0  0  0  0
 21 19  1  0  0  0  0
 21 16  1  0  0  0  0
 22 16  1  0  0  0  0
 22 23  1  1  0  0  0
 22 25  1  0  0  0  0
 25 24  1  6  0  0  0
 25 26  1  0  0  0  0
 27 26  1  0  0  0  0
 28 27  1  0  0  0  0
 30 33  1  0  0  0  0
 30 31  2  0  0  0  0
 31 29  1  0  0  0  0
 32 37  1  0  0  0  0
 32 33  2  0  0  0  0
 33 38  1  0  0  0  0
 34 35  2  0  0  0  0
 35 37  2  0  0  0  0
 36 34  1  0  0  0  0
 38 39  1  0  0  0  0
 39 41  1  0  0  0  0
 40 39  2  0  0  0  0
 41 42  1  1  0  0  0
 43 41  1  0  0  0  0
 44 43  1  0  0  0  0
 45 32  1  0  0  0  0
 46 47  1  0  0  0  0
 46 45  1  0  0  0  0
 49 54  1  0  0  0  0
 51 53  1  0  0  0  0
 51 49  1  0  0  0  0
 52 55  1  0  0  0  0
 53 50  1  6  0  0  0
 53 52  1  0  0  0  0
 54 55  1  0  0  0  0
 54 56  2  0  0  0  0
 55 48  1  6  0  0  0
 57 59  1  0  0  0  0
 57 58  2  0  0  0  0
 59 49  1  0  0  0  0
 60 57  1  0  0  0  0
 60 61  1  1  0  0  0
 62 60  1  0  0  0  0
 63 62  1  0  0  0  0
M  END
>  <MODEL>
5

>  <REMARK>
 VINA RESULT:      -4.2      4.335     11.006
  Name = 
  24 active torsions:
  status: ('A' for Active; 'I' for Inactive)
    1  A    between atoms: N_2  and  C_57
    2  A    between atoms: C_4  and  O_42
    3  A    between atoms: C_5  and  C_32
    4  A    between atoms: C_6  and  N_20
    5  A    between atoms: C_6  and  C_30
    6  A    between atoms: N_7  and  N_58
    7  A    between atoms: N_8  and  C_38
    8  A    between atoms: C_9  and  C_32
    9  A    between atoms: C_9  and  C_63
   10  A    between atoms: C_10  and  C_34
   11  A    between atoms: C_10  and  C_47
   12  A    between atoms: C_11  and  C_18
   13  A    between atoms: C_13  and  C_16
   14  A    between atoms: C_15  and  C_23
   15  A    between atoms: C_18  and  N_31
   16  A    between atoms: C_18  and  N_40
   17  A    between atoms: C_23  and  C_43
   18  A    between atoms: N_25  and  C_60
   19  A    between atoms: C_30  and  O_42
   20  A    between atoms: C_36  and  N_37
   21  A    between atoms: N_37  and  C_57
   22  A    between atoms: N_40  and  N_46
   23  A    between atoms: C_44  and  C_60
   24  A    between atoms: C_57  and  C_61
                            x       y       z     vdW  Elec       q    Type
                         _______ _______ _______ _____ _____    ______ ____

>  <TORSDO>
F 24

$$$$
=
 OpenBabel10222420293D

 63 64  0  0  1  0  0  0  0  0999 V2000
  185.5250  178.9300  138.9980 C   0  0  2  0  0  3  0  0  0  0  0  0
  185.7080  178.1240  140.2010 N   0  0  0  0  0  2  0  0  0  0  0  0
  184.7130  178.0490  141.2230 C   0  0  0  0  0  0  0  0  0  0  0  0
  183.5840  178.9260  141.1960 N   0  0  0  0  0  2  0  0  0  0  0  0
  184.8470  177.2100  142.1510 O   0  0  0  0  0  0  0  0  0  0  0  0
  182.5570  178.9180  142.2260 C   0  0  2  0  0  3  0  0  0  0  0  0
  180.7080  180.5430  141.6010 N   0  0  0  0  0  1  0  0  0  0  0  0
  181.2240  179.2140  141.6120 C   0  0  0  0  0  0  0  0  0  0  0  0
  180.5160  178.2500  141.1260 N   0  0  0  0  0  2  0  0  0  0  0  0
  182.8940  179.9030  143.2440 N   0  0  0  0  0  2  0  0  0  0  0  0
  183.6820  178.7160  145.0870 C   0  0  0  0  0  3  0  0  0  0  0  0
  183.8680  179.6510  144.2160 N   0  0  0  0  0  0  0  0  0  0  0  0
  186.0120  177.9570  145.6240 N   0  0  0  0  0  2  0  0  0  0  0  0
  184.7170  178.3820  146.0640 C   0  0  0  0  0  0  0  0  0  0  0  0
  184.4360  178.4050  147.2900 O   0  0  0  0  0  0  0  0  0  0  0  0
  189.4350  177.0940  146.8000 N   0  0  0  0  0  0  0  0  0  0  0  0
  187.0410  178.4120  147.7940 C   0  0  0  0  0  2  0  0  0  0  0  0
  187.0360  177.5160  146.5560 C   0  0  2  0  0  3  0  0  0  0  0  0
  188.2160  178.0550  148.7050 C   0  0  0  0  0  2  0  0  0  0  0  0
  188.4030  177.5860  145.8800 C   0  0  0  0  0  2  0  0  0  0  0  0
  189.5170  178.0660  147.9000 C   0  0  0  0  0  2  0  0  0  0  0  0
  190.7270  177.0630  146.0940 C   0  0  1  0  0  3  0  0  0  0  0  0
  191.4840  175.7690  146.4000 C   0  0  0  0  0  1  0  0  0  0  0  0
  191.1260  178.5410  144.0920 C   0  0  0  0  0  1  0  0  0  0  0  0
  190.5450  177.2220  144.5710 C   0  0  1  0  0  3  0  0  0  0  0  0
  191.1290  176.1580  143.8730 O   0  0  0  0  0  0  0  0  0  0  0  0
  190.8770  176.4250  142.5250 C   0  0  0  0  0  2  0  0  0  0  0  0
  190.0200  175.4520  142.0060 O   0  0  0  0  0  1  0  0  0  0  0  0
  183.4070  180.2080  138.7390 O   0  0  0  0  0  1  0  0  0  0  0  0
  183.4250  177.8790  138.2540 C   0  0  0  0  0  3  0  0  0  0  0  0
  184.0690  178.9880  138.6350 C   0  0  0  0  0  0  0  0  0  0  0  0
  181.3770  176.5770  137.9060 C   0  0  0  0  0  0  0  0  0  0  0  0
  181.9790  177.7840  137.9600 C   0  0  0  0  0  0  0  0  0  0  0  0
  179.0940  176.0890  135.1240 C   0  0  0  0  0  3  0  0  0  0  0  0
  179.5180  176.2880  136.3400 C   0  0  0  0  0  0  0  0  0  0  0  0
  178.9310  174.7010  134.6120 C   0  0  0  0  0  1  0  0  0  0  0  0
  179.9420  176.4820  137.5610 C   0  0  0  0  0  3  0  0  0  0  0  0
  181.2200  178.9910  137.7880 N   0  0  0  0  0  2  0  0  0  0  0  0
  180.8040  179.4700  136.5040 C   0  0  0  0  0  0  0  0  0  0  0  0
  181.0160  178.7850  135.4670 O   0  0  0  0  0  0  0  0  0  0  0  0
  180.0530  180.7580  136.4150 C   0  0  1  0  0  3  0  0  0  0  0  0
  180.5000  181.7050  137.5170 C   0  0  0  0  0  1  0  0  0  0  0  0
  180.2510  181.3810  135.0390 C   0  0  0  0  0  2  0  0  0  0  0  0
  181.1350  182.6130  135.1310 C   0  0  0  0  0  1  0  0  0  0  0  0
  182.1650  175.3130  138.1260 C   0  0  0  0  0  2  0  0  0  0  0  0
  181.6900  174.2250  137.1780 C   0  0  0  0  0  2  0  0  0  0  0  0
  182.1760  174.5100  135.8400 N   0  0  0  0  0  1  0  0  0  0  0  0
  186.3130  178.3680  137.9090 N   0  0  0  0  0  2  0  0  0  0  0  0
  188.2790  175.9120  136.6130 N   0  0  0  0  0  0  0  0  0  0  0  0
  190.5290  178.1630  138.2710 F   0  0  0  0  0  0  0  0  0  0  0  0
  189.3390  176.9270  136.6090 C   0  0  0  0  0  2  0  0  0  0  0  0
  188.3540  177.4510  138.9170 C   0  0  0  0  0  2  0  0  0  0  0  0
  189.2570  177.9230  137.7800 C   0  0  1  0  0  3  0  0  0  0  0  0
  187.0270  176.1440  137.2920 C   0  0  0  0  0  0  0  0  0  0  0  0
  186.9490  177.1480  138.3960 C   0  0  2  0  0  3  0  0  0  0  0  0
  185.9780  175.5700  136.9040 O   0  0  0  0  0  0  0  0  0  0  0  0
  188.9550  173.5260  136.3210 C   0  0  0  0  0  0  0  0  0  0  0  0
  189.4330  173.4520  137.4850 O   0  0  0  0  0  0  0  0  0  0  0  0
  188.4700  174.7750  135.8120 N   0  0  0  0  0  2  0  0  0  0  0  0
  188.9840  172.3140  135.4490 C   0  0  1  0  0  3  0  0  0  0  0  0
  190.3980  171.7790  135.2710 C   0  0  0  0  0  1  0  0  0  0  0  0
  188.0090  171.2350  135.9220 C   0  0  0  0  0  2  0  0  0  0  0  0
  186.7020  171.8060  136.4500 C   0  0  0  0  0  1  0  0  0  0  0  0
  1 48  1  6  0  0  0
  1  2  1  0  0  0  0
  2  3  1  0  0  0  0
  3  5  2  0  0  0  0
  4  3  1  0  0  0  0
  6  4  1  6  0  0  0
  6 10  1  0  0  0  0
  7  8  1  0  0  0  0
  8  6  1  0  0  0  0
  9  8  2  0  0  0  0
 10 12  1  0  0  0  0
 11 14  1  0  0  0  0
 12 11  2  0  0  0  0
 13 14  1  0  0  0  0
 14 15  2  0  0  0  0
 16 21  1  0  0  0  0
 17 19  1  0  0  0  0
 18 13  1  6  0  0  0
 18 17  1  0  0  0  0
 20 18  1  0  0  0  0
 20 16  1  0  0  0  0
 21 19  1  0  0  0  0
 22 23  1  6  0  0  0
 22 16  1  0  0  0  0
 25 24  1  6  0  0  0
 25 22  1  0  0  0  0
 26 25  1  0  0  0  0
 27 26  1  0  0  0  0
 28 27  1  0  0  0  0
 30 31  2  0  0  0  0
 31 29  1  0  0  0  0
 31  1  1  0  0  0  0
 32 33  2  0  0  0  0
 32 45  1  0  0  0  0
 33 30  1  0  0  0  0
 34 35  2  0  0  0  0
 35 37  2  0  0  0  0
 36 34  1  0  0  0  0
 37 32  1  0  0  0  0
 38 33  1  0  0  0  0
 39 38  1  0  0  0  0
 40 39  2  0  0  0  0
 41 39  1  0  0  0  0
 41 42  1  1  0  0  0
 43 44  1  0  0  0  0
 43 41  1  0  0  0  0
 46 45  1  0  0  0  0
 47 46  1  0  0  0  0
 49 54  1  0  0  0  0
 51 49  1  0  0  0  0
 51 53  1  0  0  0  0
 53 50  1  1  0  0  0
 53 52  1  0  0  0  0
 54 55  1  0  0  0  0
 55 48  1  6  0  0  0
 55 52  1  0  0  0  0
 56 54  2  0  0  0  0
 57 58  2  0  0  0  0
 59 57  1  0  0  0  0
 59 49  1  0  0  0  0
 60 61  1  1  0  0  0
 60 62  1  0  0  0  0
 60 57  1  0  0  0  0
 62 63  1  0  0  0  0
M  END
>  <MODEL>
6

>  <REMARK>
 VINA RESULT:      -3.6      3.963      9.222
  Name = 
  24 active torsions:
  status: ('A' for Active; 'I' for Inactive)
    1  A    between atoms: N_2  and  C_57
    2  A    between atoms: C_4  and  O_42
    3  A    between atoms: C_5  and  C_32
    4  A    between atoms: C_6  and  N_20
    5  A    between atoms: C_6  and  C_30
    6  A    between atoms: N_7  and  N_58
    7  A    between atoms: N_8  and  C_38
    8  A    between atoms: C_9  and  C_32
    9  A    between atoms: C_9  and  C_63
   10  A    between atoms: C_10  and  C_34
   11  A    between atoms: C_10  and  C_47
   12  A    between atoms: C_11  and  C_18
   13  A    between atoms: C_13  and  C_16
   14  A    between atoms: C_15  and  C_23
   15  A    between atoms: C_18  and  N_31
   16  A    between atoms: C_18  and  N_40
   17  A    between atoms: C_23  and  C_43
   18  A    between atoms: N_25  and  C_60
   19  A    between atoms: C_30  and  O_42
   20  A    between atoms: C_36  and  N_37
   21  A    between atoms: N_37  and  C_57
   22  A    between atoms: N_40  and  N_46
   23  A    between atoms: C_44  and  C_60
   24  A    between atoms: C_57  and  C_61
                            x       y       z     vdW  Elec       q    Type
                         _______ _______ _______ _____ _____    ______ ____

>  <TORSDO>
F 24

$$$$
=
 OpenBabel10222420293D

 63 64  0  0  1  0  0  0  0  0999 V2000
  186.8860  176.9520  136.6480 C   0  0  2  0  0  3  0  0  0  0  0  0
  187.8920  177.5110  135.7510 N   0  0  0  0  0  2  0  0  0  0  0  0
  189.2870  177.2510  135.9170 C   0  0  0  0  0  0  0  0  0  0  0  0
  189.7620  176.5940  137.0960 N   0  0  0  0  0  2  0  0  0  0  0  0
  190.0910  177.6160  135.0210 O   0  0  0  0  0  0  0  0  0  0  0  0
  191.1720  176.3320  137.3350 C   0  0  2  0  0  3  0  0  0  0  0  0
  192.6670  174.3630  137.9150 N   0  0  0  0  0  1  0  0  0  0  0  0
  191.3830  174.8670  137.5540 C   0  0  0  0  0  0  0  0  0  0  0  0
  190.4030  174.0460  137.3720 N   0  0  0  0  0  2  0  0  0  0  0  0
  191.6120  177.1030  138.4890 N   0  0  0  0  0  2  0  0  0  0  0  0
  191.6850  177.3540  140.8030 C   0  0  0  0  0  3  0  0  0  0  0  0
  191.0790  176.8870  139.7640 N   0  0  0  0  0  0  0  0  0  0  0  0
  189.9650  176.3700  142.3420 N   0  0  0  0  0  2  0  0  0  0  0  0
  191.1090  177.2080  142.1390 C   0  0  0  0  0  0  0  0  0  0  0  0
  191.5840  177.8780  143.0920 O   0  0  0  0  0  0  0  0  0  0  0  0
  189.4880  176.8520  146.0000 N   0  0  0  0  0  0  0  0  0  0  0  0
  187.9190  176.9320  143.5540 C   0  0  0  0  0  2  0  0  0  0  0  0
  189.2970  176.2770  143.6290 C   0  0  2  0  0  3  0  0  0  0  0  0
  187.2750  176.9780  144.9400 C   0  0  0  0  0  2  0  0  0  0  0  0
  190.1340  176.9870  144.6900 C   0  0  0  0  0  2  0  0  0  0  0  0
  188.2400  177.6250  145.9370 C   0  0  0  0  0  2  0  0  0  0  0  0
  190.3640  177.4450  147.0260 C   0  0  1  0  0  3  0  0  0  0  0  0
  189.5390  178.0270  148.1760 C   0  0  0  0  0  1  0  0  0  0  0  0
  191.9590  175.5840  146.4400 C   0  0  0  0  0  1  0  0  0  0  0  0
  191.3780  176.4180  147.5690 C   0  0  1  0  0  3  0  0  0  0  0  0
  192.4070  177.0440  148.2830 O   0  0  0  0  0  0  0  0  0  0  0  0
  193.0950  176.0050  148.9150 C   0  0  0  0  0  2  0  0  0  0  0  0
  193.5950  176.4500  150.1410 O   0  0  0  0  0  1  0  0  0  0  0  0
  186.8530  175.1900  134.8920 O   0  0  0  0  0  1  0  0  0  0  0  0
  185.7340  174.7960  136.9540 C   0  0  0  0  0  3  0  0  0  0  0  0
  186.4750  175.5880  136.1720 C   0  0  0  0  0  0  0  0  0  0  0  0
  183.9900  173.0740  137.0440 C   0  0  0  0  0  0  0  0  0  0  0  0
  185.1890  173.4770  136.5700 C   0  0  0  0  0  0  0  0  0  0  0  0
  180.9250  171.2220  136.4460 C   0  0  0  0  0  3  0  0  0  0  0  0
  182.1960  171.4770  136.5750 C   0  0  0  0  0  0  0  0  0  0  0  0
  180.2590  171.4120  135.1290 C   0  0  0  0  0  1  0  0  0  0  0  0
  183.4720  171.7330  136.7000 C   0  0  0  0  0  3  0  0  0  0  0  0
  185.9250  172.6570  135.6480 N   0  0  0  0  0  2  0  0  0  0  0  0
  187.1590  172.0180  135.9930 C   0  0  0  0  0  0  0  0  0  0  0  0
  187.6030  172.0790  137.1710 O   0  0  0  0  0  0  0  0  0  0  0  0
  187.8800  171.2190  134.9570 C   0  0  1  0  0  3  0  0  0  0  0  0
  189.3810  171.2940  135.1840 C   0  0  0  0  0  1  0  0  0  0  0  0
  187.3900  169.7770  134.9810 C   0  0  0  0  0  2  0  0  0  0  0  0
  185.8820  169.7260  135.1460 C   0  0  0  0  0  1  0  0  0  0  0  0
  183.1990  173.9500  137.9800 C   0  0  0  0  0  2  0  0  0  0  0  0
  182.2790  174.8650  137.1910 C   0  0  0  0  0  2  0  0  0  0  0  0
  180.9010  174.5800  137.5440 N   0  0  0  0  0  1  0  0  0  0  0  0
  185.7400  177.8480  136.7170 N   0  0  0  0  0  2  0  0  0  0  0  0
  185.1640  178.8090  139.9300 N   0  0  0  0  0  0  0  0  0  0  0  0
  188.4190  177.3000  139.9520 F   0  0  0  0  0  0  0  0  0  0  0  0
  186.0960  177.7350  140.2920 C   0  0  0  0  0  2  0  0  0  0  0  0
  187.4080  178.6890  138.3080 C   0  0  0  0  0  2  0  0  0  0  0  0
  187.2320  177.5210  139.2760 C   0  0  1  0  0  3  0  0  0  0  0  0
  185.0100  179.2310  138.5590 C   0  0  0  0  0  0  0  0  0  0  0  0
  186.1010  178.9770  137.5690 C   0  0  2  0  0  3  0  0  0  0  0  0
  183.9270  179.7360  138.1660 O   0  0  0  0  0  0  0  0  0  0  0  0
  183.1490  178.6250  141.3930 C   0  0  0  0  0  0  0  0  0  0  0  0
  182.6960  177.6380  140.7540 O   0  0  0  0  0  0  0  0  0  0  0  0
  184.3260  179.3060  140.9410 N   0  0  0  0  0  2  0  0  0  0  0  0
  182.3920  179.1290  142.5780 C   0  0  1  0  0  3  0  0  0  0  0  0
  181.1300  178.3170  142.8300 C   0  0  0  0  0  1  0  0  0  0  0  0
  183.2720  179.2390  143.8250 C   0  0  0  0  0  2  0  0  0  0  0  0
  184.4260  178.2500  143.8260 C   0  0  0  0  0  1  0  0  0  0  0  0
  1  2  1  6  0  0  0
  1 48  1  0  0  0  0
  2  3  1  0  0  0  0
  3  4  1  0  0  0  0
  5  3  2  0  0  0  0
  6  4  1  1  0  0  0
  6  8  1  0  0  0  0
  6 10  1  0  0  0  0
  8  7  1  0  0  0  0
  9  8  2  0  0  0  0
 10 12  1  0  0  0  0
 11 14  1  0  0  0  0
 12 11  2  0  0  0  0
 14 13  1  0  0  0  0
 14 15  2  0  0  0  0
 16 22  1  0  0  0  0
 17 18  1  0  0  0  0
 17 19  1  0  0  0  0
 18 13  1  6  0  0  0
 18 20  1  0  0  0  0
 19 21  1  0  0  0  0
 20 16  1  0  0  0  0
 21 16  1  0  0  0  0
 22 25  1  0  0  0  0
 22 23  1  1  0  0  0
 25 24  1  6  0  0  0
 25 26  1  0  0  0  0
 26 27  1  0  0  0  0
 27 28  1  0  0  0  0
 29 31  1  0  0  0  0
 31  1  1  0  0  0  0
 31 30  2  0  0  0  0
 32 45  1  0  0  0  0
 33 30  1  0  0  0  0
 33 32  2  0  0  0  0
 34 35  2  0  0  0  0
 35 37  2  0  0  0  0
 36 34  1  0  0  0  0
 37 32  1  0  0  0  0
 38 39  1  0  0  0  0
 38 33  1  0  0  0  0
 39 40  2  0  0  0  0
 41 43  1  0  0  0  0
 41 42  1  1  0  0  0
 41 39  1  0  0  0  0
 43 44  1  0  0  0  0
 46 47  1  0  0  0  0
 46 45  1  0  0  0  0
 49 51  1  0  0  0  0
 49 59  1  0  0  0  0
 52 53  1  0  0  0  0
 53 50  1  1  0  0  0
 53 51  1  0  0  0  0
 54 49  1  0  0  0  0
 55 48  1  1  0  0  0
 55 52  1  0  0  0  0
 55 54  1  0  0  0  0
 56 54  2  0  0  0  0
 57 60  1  0  0  0  0
 58 57  2  0  0  0  0
 59 57  1  0  0  0  0
 60 61  1  1  0  0  0
 60 62  1  0  0  0  0
 62 63  1  0  0  0  0
M  END
>  <MODEL>
7

>  <REMARK>
 VINA RESULT:      -3.3      3.667      8.598
  Name = 
  24 active torsions:
  status: ('A' for Active; 'I' for Inactive)
    1  A    between atoms: N_2  and  C_57
    2  A    between atoms: C_4  and  O_42
    3  A    between atoms: C_5  and  C_32
    4  A    between atoms: C_6  and  N_20
    5  A    between atoms: C_6  and  C_30
    6  A    between atoms: N_7  and  N_58
    7  A    between atoms: N_8  and  C_38
    8  A    between atoms: C_9  and  C_32
    9  A    between atoms: C_9  and  C_63
   10  A    between atoms: C_10  and  C_34
   11  A    between atoms: C_10  and  C_47
   12  A    between atoms: C_11  and  C_18
   13  A    between atoms: C_13  and  C_16
   14  A    between atoms: C_15  and  C_23
   15  A    between atoms: C_18  and  N_31
   16  A    between atoms: C_18  and  N_40
   17  A    between atoms: C_23  and  C_43
   18  A    between atoms: N_25  and  C_60
   19  A    between atoms: C_30  and  O_42
   20  A    between atoms: C_36  and  N_37
   21  A    between atoms: N_37  and  C_57
   22  A    between atoms: N_40  and  N_46
   23  A    between atoms: C_44  and  C_60
   24  A    between atoms: C_57  and  C_61
                            x       y       z     vdW  Elec       q    Type
                         _______ _______ _______ _____ _____    ______ ____

>  <TORSDO>
F 24

$$$$
=
 OpenBabel10222420293D

 63 64  0  0  1  0  0  0  0  0999 V2000
  185.5680  178.8560  139.0750 C   0  0  2  0  0  3  0  0  0  0  0  0
  185.8750  178.3310  140.4020 N   0  0  0  0  0  2  0  0  0  0  0  0
  184.9290  178.3720  141.4720 C   0  0  0  0  0  0  0  0  0  0  0  0
  183.7150  179.1150  141.3340 N   0  0  0  0  0  2  0  0  0  0  0  0
  185.1820  177.7560  142.5400 O   0  0  0  0  0  0  0  0  0  0  0  0
  182.7310  179.2180  142.3990 C   0  0  2  0  0  3  0  0  0  0  0  0
  181.0100  179.1750  140.5320 N   0  0  0  0  0  2  0  0  0  0  0  0
  181.4080  179.6210  141.8270 C   0  0  0  0  0  0  0  0  0  0  0  0
  180.6380  180.4140  142.4940 N   0  0  0  0  0  1  0  0  0  0  0  0
  183.1930  180.1880  143.3820 N   0  0  0  0  0  2  0  0  0  0  0  0
  183.9520  178.8370  145.1200 C   0  0  0  0  0  3  0  0  0  0  0  0
  184.1450  179.8560  144.3520 N   0  0  0  0  0  0  0  0  0  0  0  0
  186.2660  178.0190  145.6420 N   0  0  0  0  0  2  0  0  0  0  0  0
  184.9670  178.4230  146.0890 C   0  0  0  0  0  0  0  0  0  0  0  0
  184.6640  178.3610  147.3080 O   0  0  0  0  0  0  0  0  0  0  0  0
  189.6620  177.0570  146.8180 N   0  0  0  0  0  0  0  0  0  0  0  0
  187.2490  178.2960  147.8620 C   0  0  0  0  0  2  0  0  0  0  0  0
  187.2700  177.5020  146.5570 C   0  0  2  0  0  3  0  0  0  0  0  0
  188.4030  177.8640  148.7670 C   0  0  0  0  0  2  0  0  0  0  0  0
  188.6500  177.6240  145.9180 C   0  0  0  0  0  2  0  0  0  0  0  0
  189.7210  177.9370  147.9930 C   0  0  0  0  0  2  0  0  0  0  0  0
  190.9690  177.0800  146.1390 C   0  0  1  0  0  3  0  0  0  0  0  0
  191.8200  175.8770  146.5530 C   0  0  0  0  0  1  0  0  0  0  0  0
  191.2410  178.4600  144.0480 C   0  0  0  0  0  1  0  0  0  0  0  0
  190.8120  177.1140  144.6060 C   0  0  1  0  0  3  0  0  0  0  0  0
  191.5410  176.0860  143.9940 O   0  0  0  0  0  0  0  0  0  0  0  0
  191.2310  176.1790  142.6350 C   0  0  0  0  0  2  0  0  0  0  0  0
  189.8600  176.3910  142.4790 O   0  0  0  0  0  1  0  0  0  0  0  0
  183.3350  179.9510  139.1290 O   0  0  0  0  0  1  0  0  0  0  0  0
  183.5050  177.6970  138.3880 C   0  0  0  0  0  3  0  0  0  0  0  0
  184.0850  178.8150  138.8380 C   0  0  0  0  0  0  0  0  0  0  0  0
  181.5080  176.2740  138.3690 C   0  0  0  0  0  0  0  0  0  0  0  0
  182.0520  177.4990  138.2010 C   0  0  0  0  0  0  0  0  0  0  0  0
  179.0760  175.5470  135.7720 C   0  0  0  0  0  3  0  0  0  0  0  0
  179.5690  175.8100  136.9490 C   0  0  0  0  0  0  0  0  0  0  0  0
  178.9780  174.1370  135.3060 C   0  0  0  0  0  1  0  0  0  0  0  0
  180.0630  176.0680  138.1310 C   0  0  0  0  0  3  0  0  0  0  0  0
  181.2250  178.6320  137.8940 N   0  0  0  0  0  2  0  0  0  0  0  0
  180.7730  178.9270  136.5680 C   0  0  0  0  0  0  0  0  0  0  0  0
  181.0140  178.1310  135.6200 O   0  0  0  0  0  0  0  0  0  0  0  0
  179.9520  180.1510  136.3330 C   0  0  1  0  0  3  0  0  0  0  0  0
  179.8950  180.9970  137.5940 C   0  0  0  0  0  1  0  0  0  0  0  0
  180.5220  180.9430  135.1640 C   0  0  0  0  0  2  0  0  0  0  0  0
  181.0160  182.3020  135.6280 C   0  0  0  0  0  1  0  0  0  0  0  0
  182.3690  175.0920  138.7310 C   0  0  0  0  0  2  0  0  0  0  0  0
  182.7600  174.3240  137.4800 C   0  0  0  0  0  2  0  0  0  0  0  0
  184.1280  173.8590  137.6110 N   0  0  0  0  0  1  0  0  0  0  0  0
  186.2790  178.0810  138.0670 N   0  0  0  0  0  2  0  0  0  0  0  0
  189.2090  176.4740  137.4250 N   0  0  0  0  0  0  0  0  0  0  0  0
  188.6590  178.6230  134.6050 F   0  0  0  0  0  0  0  0  0  0  0  0
  188.8900  176.7070  136.0120 C   0  0  0  0  0  2  0  0  0  0  0  0
  188.2310  179.0160  136.9100 C   0  0  0  0  0  2  0  0  0  0  0  0
  188.1490  178.0310  135.7470 C   0  0  1  0  0  3  0  0  0  0  0  0
  188.4560  177.1170  138.4750 C   0  0  0  0  0  0  0  0  0  0  0  0
  187.7030  178.3760  138.1940 C   0  0  2  0  0  3  0  0  0  0  0  0
  188.3570  176.5780  139.6070 O   0  0  0  0  0  0  0  0  0  0  0  0
  191.4730  175.4660  137.1160 C   0  0  0  0  0  0  0  0  0  0  0  0
  191.7390  176.2080  136.1320 O   0  0  0  0  0  0  0  0  0  0  0  0
  190.1730  175.4950  137.7170 N   0  0  0  0  0  2  0  0  0  0  0  0
  192.5030  174.4940  137.5880 C   0  0  1  0  0  3  0  0  0  0  0  0
  192.5500  173.2500  136.7110 C   0  0  0  0  0  1  0  0  0  0  0  0
  193.8780  175.1400  137.7560 C   0  0  0  0  0  2  0  0  0  0  0  0
  194.9930  174.3470  137.0920 C   0  0  0  0  0  1  0  0  0  0  0  0
  1 48  1  6  0  0  0
  1  2  1  0  0  0  0
  2  3  1  0  0  0  0
  3  5  2  0  0  0  0
  4  3  1  0  0  0  0
  6  4  1  6  0  0  0
  6 10  1  0  0  0  0
  7  8  2  0  0  0  0
  8  6  1  0  0  0  0
  8  9  1  0  0  0  0
 10 12  1  0  0  0  0
 11 14  1  0  0  0  0
 12 11  2  0  0  0  0
 13 14  1  0  0  0  0
 14 15  2  0  0  0  0
 16 21  1  0  0  0  0
 17 19  1  0  0  0  0
 18 13  1  6  0  0  0
 18 17  1  0  0  0  0
 20 18  1  0  0  0  0
 20 16  1  0  0  0  0
 21 19  1  0  0  0  0
 22 23  1  6  0  0  0
 22 16  1  0  0  0  0
 25 24  1  6  0  0  0
 25 22  1  0  0  0  0
 26 25  1  0  0  0  0
 27 26  1  0  0  0  0
 28 27  1  0  0  0  0
 30 31  2  0  0  0  0
 31  1  1  0  0  0  0
 31 29  1  0  0  0  0
 32 45  1  0  0  0  0
 33 32  2  0  0  0  0
 33 30  1  0  0  0  0
 34 35  2  0  0  0  0
 35 37  2  0  0  0  0
 36 34  1  0  0  0  0
 37 32  1  0  0  0  0
 38 33  1  0  0  0  0
 39 38  1  0  0  0  0
 40 39  2  0  0  0  0
 41 39  1  0  0  0  0
 41 42  1  1  0  0  0
 43 44  1  0  0  0  0
 43 41  1  0  0  0  0
 46 47  1  0  0  0  0
 46 45  1  0  0  0  0
 49 59  1  0  0  0  0
 49 54  1  0  0  0  0
 51 49  1  0  0  0  0
 52 55  1  0  0  0  0
 53 50  1  6  0  0  0
 53 51  1  0  0  0  0
 53 52  1  0  0  0  0
 54 56  2  0  0  0  0
 55 48  1  6  0  0  0
 55 54  1  0  0  0  0
 57 60  1  0  0  0  0
 57 59  1  0  0  0  0
 58 57  2  0  0  0  0
 60 61  1  6  0  0  0
 60 62  1  0  0  0  0
 63 62  1  0  0  0  0
M  END
>  <MODEL>
8

>  <REMARK>
 VINA RESULT:      -2.9      2.986      9.025
  Name = 
  24 active torsions:
  status: ('A' for Active; 'I' for Inactive)
    1  A    between atoms: N_2  and  C_57
    2  A    between atoms: C_4  and  O_42
    3  A    between atoms: C_5  and  C_32
    4  A    between atoms: C_6  and  N_20
    5  A    between atoms: C_6  and  C_30
    6  A    between atoms: N_7  and  N_58
    7  A    between atoms: N_8  and  C_38
    8  A    between atoms: C_9  and  C_32
    9  A    between atoms: C_9  and  C_63
   10  A    between atoms: C_10  and  C_34
   11  A    between atoms: C_10  and  C_47
   12  A    between atoms: C_11  and  C_18
   13  A    between atoms: C_13  and  C_16
   14  A    between atoms: C_15  and  C_23
   15  A    between atoms: C_18  and  N_31
   16  A    between atoms: C_18  and  N_40
   17  A    between atoms: C_23  and  C_43
   18  A    between atoms: N_25  and  C_60
   19  A    between atoms: C_30  and  O_42
   20  A    between atoms: C_36  and  N_37
   21  A    between atoms: N_37  and  C_57
   22  A    between atoms: N_40  and  N_46
   23  A    between atoms: C_44  and  C_60
   24  A    between atoms: C_57  and  C_61
                            x       y       z     vdW  Elec       q    Type
                         _______ _______ _______ _____ _____    ______ ____

>  <TORSDO>
F 24

$$$$
