=
 OpenBabel10222415533D

 29 31  0  0  1  0  0  0  0  0999 V2000
  182.8870  178.1510  141.3800 O   0  0  0  0  0  1  0  0  0  0  0  0
  184.2590  178.0280  141.6170 C   0  0  2  0  0  3  0  0  0  0  0  0
  187.0260  177.9230  145.8320 C   0  0  0  0  0  0  0  0  0  0  0  0
  183.7430  179.0660  145.2510 C   0  0  0  0  0  3  0  0  0  0  0  0
  185.3800  178.8220  147.0320 O   0  0  0  0  0  0  0  0  0  0  0  0
  186.6130  178.3560  147.0750 C   0  0  0  0  0  0  0  0  0  0  0  0
  187.4510  178.2790  148.1850 C   0  0  0  0  0  3  0  0  0  0  0  0
  184.5430  178.2740  143.0680 C   0  0  0  0  0  0  0  0  0  0  0  0
  188.7400  177.7460  147.9940 C   0  0  0  0  0  3  0  0  0  0  0  0
  183.5330  178.8440  143.8770 C   0  0  0  0  0  3  0  0  0  0  0  0
  184.9780  178.7030  145.7810 C   0  0  0  0  0  0  0  0  0  0  0  0
  185.7850  177.9100  143.6320 C   0  0  0  0  0  3  0  0  0  0  0  0
  185.9640  178.1490  144.9930 C   0  0  0  0  0  0  0  0  0  0  0  0
  188.2950  177.3950  145.6100 C   0  0  0  0  0  3  0  0  0  0  0  0
  189.1580  177.3060  146.7180 C   0  0  0  0  0  3  0  0  0  0  0  0
  185.0670  178.9750  140.7120 C   0  0  2  0  0  3  0  0  0  0  0  0
  184.0930  180.4510  139.0310 N   0  0  0  0  0  1  0  0  0  0  0  0
  184.4800  179.0780  139.3080 C   0  0  0  0  0  2  0  0  0  0  0  0
  186.5520  178.5920  140.6460 C   0  0  0  0  0  2  0  0  0  0  0  0
  187.0160  178.2140  139.2420 C   0  0  0  0  0  2  0  0  0  0  0  0
  188.4080  178.5870  139.0530 N   0  0  0  0  0  2  0  0  0  0  0  0
  189.0940  178.2510  140.2300 N   0  0  0  0  0  2  0  0  0  0  0  0
  189.9730  177.1240  140.3190 C   0  0  0  0  0  0  0  0  0  0  0  0
  190.6670  176.5000  138.9630 S   0  0  0  0  0  0  0  0  0  0  0  0
  190.2530  176.5770  141.6170 N   0  0  0  0  0  2  0  0  0  0  0  0
  191.4530  176.1550  143.7160 C   0  0  0  0  0  1  0  0  0  0  0  0
  191.1090  177.1710  142.6400 C   0  0  2  0  0  3  0  0  0  0  0  0
  191.5090  178.9410  143.9080 C   0  0  0  0  0  1  0  0  0  0  0  0
  190.4950  178.2920  143.2030 O   0  0  0  0  0  0  0  0  0  0  0  0
  2  1  1  1  0  0  0
  2  8  1  0  0  0  0
  3  6  1  0  0  0  0
  4 11  1  0  0  0  0
  5  6  1  0  0  0  0
  6  7  2  0  0  0  0
  8 12  2  0  0  0  0
  8 10  1  0  0  0  0
  9  7  1  0  0  0  0
 10  4  2  0  0  0  0
 11  5  1  0  0  0  0
 12 13  1  0  0  0  0
 13 11  2  0  0  0  0
 13  3  1  0  0  0  0
 14  3  2  0  0  0  0
 14 15  1  0  0  0  0
 15  9  2  0  0  0  0
 16 18  1  6  0  0  0
 16  2  1  0  0  0  0
 17 18  1  0  0  0  0
 19 16  1  0  0  0  0
 20 19  1  0  0  0  0
 21 20  1  0  0  0  0
 21 22  1  0  0  0  0
 22 23  1  0  0  0  0
 23 25  1  0  0  0  0
 24 23  2  0  0  0  0
 25 27  1  0  0  0  0
 27 29  1  0  0  0  0
 27 26  1  1  0  0  0
 29 28  1  0  0  0  0
M  END
>  <MODEL>
1

>  <REMARK>
 VINA RESULT:      -8.7      0.000      0.000
  Name = 
  11 active torsions:
  status: ('A' for Active; 'I' for Inactive)
    1  A    between atoms: C_4  and  N_12
    2  A    between atoms: C_4  and  N_13
    3  A    between atoms: C_10  and  C_14
    4  A    between atoms: C_10  and  C_29
    5  A    between atoms: N_12  and  N_20
    6  A    between atoms: N_13  and  C_22
    7  A    between atoms: C_19  and  C_23
    8  A    between atoms: C_19  and  C_29
    9  A    between atoms: N_20  and  C_23
   10  A    between atoms: C_22  and  O_27
   11  A    between atoms: C_28  and  C_29
                            x       y       z     vdW  Elec       q    Type
                         _______ _______ _______ _____ _____    ______ ____

>  <TORSDO>
F 11

$$$$
=
 OpenBabel10222415533D

 29 31  0  0  1  0  0  0  0  0999 V2000
  190.7620  176.2190  147.2680 O   0  0  0  0  0  1  0  0  0  0  0  0
  190.4790  177.3520  146.5000 C   0  0  2  0  0  3  0  0  0  0  0  0
  185.8060  178.2940  144.8560 C   0  0  0  0  0  0  0  0  0  0  0  0
  187.1710  178.3690  148.1040 C   0  0  0  0  0  3  0  0  0  0  0  0
  185.0850  178.7480  146.9140 O   0  0  0  0  0  0  0  0  0  0  0  0
  184.7370  178.6690  145.6440 C   0  0  0  0  0  0  0  0  0  0  0  0
  183.4810  178.9160  145.0940 C   0  0  0  0  0  3  0  0  0  0  0  0
  189.0290  177.7060  146.6410 C   0  0  0  0  0  0  0  0  0  0  0  0
  183.3370  178.7630  143.7010 C   0  0  0  0  0  3  0  0  0  0  0  0
  188.5180  178.0030  147.9260 C   0  0  0  0  0  3  0  0  0  0  0  0
  186.3640  178.4290  146.9710 C   0  0  0  0  0  0  0  0  0  0  0  0
  188.1900  177.7790  145.5080 C   0  0  0  0  0  3  0  0  0  0  0  0
  186.8610  178.1370  145.7190 C   0  0  0  0  0  0  0  0  0  0  0  0
  185.6940  178.1310  143.4780 C   0  0  0  0  0  3  0  0  0  0  0  0
  184.4350  178.3750  142.9010 C   0  0  0  0  0  3  0  0  0  0  0  0
  190.8690  177.1360  145.0270 C   0  0  2  0  0  3  0  0  0  0  0  0
  191.5080  175.1700  143.7300 N   0  0  0  0  0  1  0  0  0  0  0  0
  191.8840  176.0110  144.8530 C   0  0  0  0  0  2  0  0  0  0  0  0
  191.3780  178.4240  144.3640 C   0  0  0  0  0  2  0  0  0  0  0  0
  190.8490  178.6220  142.9460 C   0  0  0  0  0  2  0  0  0  0  0  0
  189.7530  177.7040  142.6830 N   0  0  0  0  0  2  0  0  0  0  0  0
  188.9950  178.2480  141.6350 N   0  0  0  0  0  2  0  0  0  0  0  0
  189.2700  177.9740  140.2570 C   0  0  0  0  0  0  0  0  0  0  0  0
  190.3030  176.7630  139.8390 S   0  0  0  0  0  0  0  0  0  0  0  0
  188.6020  178.7600  139.2580 N   0  0  0  0  0  2  0  0  0  0  0  0
  189.1380  178.5900  136.8690 C   0  0  0  0  0  1  0  0  0  0  0  0
  188.1260  178.2880  137.9600 C   0  0  2  0  0  3  0  0  0  0  0  0
  185.9450  177.9150  138.0520 C   0  0  0  0  0  1  0  0  0  0  0  0
  186.8890  178.8620  137.6540 O   0  0  0  0  0  0  0  0  0  0  0  0
  2  8  1  0  0  0  0
  2  1  1  1  0  0  0
  3  6  1  0  0  0  0
  3 13  1  0  0  0  0
  5 11  1  0  0  0  0
  6  5  1  0  0  0  0
  7  6  2  0  0  0  0
  8 10  2  0  0  0  0
  9  7  1  0  0  0  0
 10  4  1  0  0  0  0
 11  4  2  0  0  0  0
 12 13  2  0  0  0  0
 12  8  1  0  0  0  0
 13 11  1  0  0  0  0
 14  3  2  0  0  0  0
 15 14  1  0  0  0  0
 15  9  2  0  0  0  0
 16 19  1  1  0  0  0
 16  2  1  0  0  0  0
 17 18  1  0  0  0  0
 18 16  1  0  0  0  0
 20 19  1  0  0  0  0
 21 20  1  0  0  0  0
 22 21  1  0  0  0  0
 23 22  1  0  0  0  0
 24 23  2  0  0  0  0
 25 23  1  0  0  0  0
 27 26  1  6  0  0  0
 27 25  1  0  0  0  0
 29 27  1  0  0  0  0
 29 28  1  0  0  0  0
M  END
>  <MODEL>
2

>  <REMARK>
 VINA RESULT:      -8.3      1.940      5.755
  Name = 
  11 active torsions:
  status: ('A' for Active; 'I' for Inactive)
    1  A    between atoms: C_4  and  N_12
    2  A    between atoms: C_4  and  N_13
    3  A    between atoms: C_10  and  C_14
    4  A    between atoms: C_10  and  C_29
    5  A    between atoms: N_12  and  N_20
    6  A    between atoms: N_13  and  C_22
    7  A    between atoms: C_19  and  C_23
    8  A    between atoms: C_19  and  C_29
    9  A    between atoms: N_20  and  C_23
   10  A    between atoms: C_22  and  O_27
   11  A    between atoms: C_28  and  C_29
                            x       y       z     vdW  Elec       q    Type
                         _______ _______ _______ _____ _____    ______ ____

>  <TORSDO>
F 11

$$$$
=
 OpenBabel10222415533D

 29 31  0  0  1  0  0  0  0  0999 V2000
  182.5390  177.8940  141.0090 O   0  0  0  0  0  1  0  0  0  0  0  0
  183.9200  177.9870  141.2030 C   0  0  2  0  0  3  0  0  0  0  0  0
  186.6820  177.9870  145.4220 C   0  0  0  0  0  0  0  0  0  0  0  0
  183.4170  179.1550  144.7990 C   0  0  0  0  0  3  0  0  0  0  0  0
  185.0490  178.9490  146.5890 O   0  0  0  0  0  0  0  0  0  0  0  0
  186.2750  178.4680  146.6490 C   0  0  0  0  0  0  0  0  0  0  0  0
  187.1110  178.4170  147.7630 C   0  0  0  0  0  3  0  0  0  0  0  0
  184.2060  178.2780  142.6460 C   0  0  0  0  0  0  0  0  0  0  0  0
  188.3930  177.8590  147.5910 C   0  0  0  0  0  3  0  0  0  0  0  0
  183.2040  178.8900  143.4340 C   0  0  0  0  0  3  0  0  0  0  0  0
  184.6460  178.7930  145.3430 C   0  0  0  0  0  0  0  0  0  0  0  0
  185.4430  177.9170  143.2230 C   0  0  0  0  0  3  0  0  0  0  0  0
  185.6240  178.1990  144.5750 C   0  0  0  0  0  0  0  0  0  0  0  0
  187.9440  177.4340  145.2200 C   0  0  0  0  0  3  0  0  0  0  0  0
  188.8050  177.3710  146.3310 C   0  0  0  0  0  3  0  0  0  0  0  0
  184.5410  179.0470  140.2760 C   0  0  2  0  0  3  0  0  0  0  0  0
  183.7530  180.8670  138.8540 N   0  0  0  0  0  1  0  0  0  0  0  0
  183.6020  179.4510  139.1440 C   0  0  0  0  0  2  0  0  0  0  0  0
  185.9000  178.6050  139.7140 C   0  0  0  0  0  2  0  0  0  0  0  0
  185.8400  178.1940  138.2460 C   0  0  0  0  0  2  0  0  0  0  0  0
  187.0820  178.5390  137.5740 N   0  0  0  0  0  2  0  0  0  0  0  0
  188.0720  178.6580  138.5620 N   0  0  0  0  0  2  0  0  0  0  0  0
  189.2990  177.9210  138.5220 C   0  0  0  0  0  0  0  0  0  0  0  0
  189.7990  177.2110  137.1240 S   0  0  0  0  0  0  0  0  0  0  0  0
  190.0880  177.8440  139.7200 N   0  0  0  0  0  2  0  0  0  0  0  0
  188.7330  177.6240  141.7540 C   0  0  0  0  0  1  0  0  0  0  0  0
  189.8140  177.0060  140.8840 C   0  0  2  0  0  3  0  0  0  0  0  0
  190.5560  176.1720  142.7970 C   0  0  0  0  0  1  0  0  0  0  0  0
  190.9800  176.8010  141.6250 O   0  0  0  0  0  0  0  0  0  0  0  0
  2  1  1  1  0  0  0
  2  8  1  0  0  0  0
  3  6  1  0  0  0  0
  4 11  1  0  0  0  0
  5  6  1  0  0  0  0
  6  7  2  0  0  0  0
  8 12  2  0  0  0  0
  8 10  1  0  0  0  0
  9  7  1  0  0  0  0
 10  4  2  0  0  0  0
 11  5  1  0  0  0  0
 12 13  1  0  0  0  0
 13 11  2  0  0  0  0
 13  3  1  0  0  0  0
 14  3  2  0  0  0  0
 14 15  1  0  0  0  0
 15  9  2  0  0  0  0
 16 18  1  6  0  0  0
 16  2  1  0  0  0  0
 17 18  1  0  0  0  0
 19 16  1  0  0  0  0
 20 19  1  0  0  0  0
 21 20  1  0  0  0  0
 21 22  1  0  0  0  0
 23 22  1  0  0  0  0
 23 25  1  0  0  0  0
 24 23  2  0  0  0  0
 25 27  1  0  0  0  0
 27 29  1  0  0  0  0
 27 26  1  1  0  0  0
 29 28  1  0  0  0  0
M  END
>  <MODEL>
3

>  <REMARK>
 VINA RESULT:      -8.2      1.158      1.497
  Name = 
  11 active torsions:
  status: ('A' for Active; 'I' for Inactive)
    1  A    between atoms: C_4  and  N_12
    2  A    between atoms: C_4  and  N_13
    3  A    between atoms: C_10  and  C_14
    4  A    between atoms: C_10  and  C_29
    5  A    between atoms: N_12  and  N_20
    6  A    between atoms: N_13  and  C_22
    7  A    between atoms: C_19  and  C_23
    8  A    between atoms: C_19  and  C_29
    9  A    between atoms: N_20  and  C_23
   10  A    between atoms: C_22  and  O_27
   11  A    between atoms: C_28  and  C_29
                            x       y       z     vdW  Elec       q    Type
                         _______ _______ _______ _____ _____    ______ ____

>  <TORSDO>
F 11

$$$$
=
 OpenBabel10222415533D

 29 31  0  0  1  0  0  0  0  0999 V2000
  189.7440  176.2170  147.2870 O   0  0  0  0  0  1  0  0  0  0  0  0
  189.6490  177.4190  146.5790 C   0  0  2  0  0  3  0  0  0  0  0  0
  185.3480  178.2980  144.0990 C   0  0  0  0  0  0  0  0  0  0  0  0
  186.1570  178.6360  147.5120 C   0  0  0  0  0  3  0  0  0  0  0  0
  184.3110  178.9470  145.9600 O   0  0  0  0  0  0  0  0  0  0  0  0
  184.1760  178.7620  144.6610 C   0  0  0  0  0  0  0  0  0  0  0  0
  183.0380  178.9820  143.8880 C   0  0  0  0  0  3  0  0  0  0  0  0
  188.2090  177.8110  146.4440 C   0  0  0  0  0  0  0  0  0  0  0  0
  183.1230  178.7090  142.5090 C   0  0  0  0  0  3  0  0  0  0  0  0
  187.5020  178.2300  147.5950 C   0  0  0  0  0  3  0  0  0  0  0  0
  185.5520  178.6100  146.2590 C   0  0  0  0  0  0  0  0  0  0  0  0
  187.5730  177.7980  145.1840 C   0  0  0  0  0  3  0  0  0  0  0  0
  186.2400  178.1990  145.1370 C   0  0  0  0  0  0  0  0  0  0  0  0
  185.4610  178.0150  142.7400 C   0  0  0  0  0  3  0  0  0  0  0  0
  184.3240  178.2310  141.9400 C   0  0  0  0  0  3  0  0  0  0  0  0
  190.3390  177.3110  145.2080 C   0  0  2  0  0  3  0  0  0  0  0  0
  191.6620  175.5350  144.1820 N   0  0  0  0  0  1  0  0  0  0  0  0
  191.6290  176.5000  145.2680 C   0  0  0  0  0  2  0  0  0  0  0  0
  190.5990  178.6860  144.5760 C   0  0  0  0  0  2  0  0  0  0  0  0
  190.8490  178.6210  143.0720 C   0  0  0  0  0  2  0  0  0  0  0  0
  189.7810  177.8870  142.4140 N   0  0  0  0  0  2  0  0  0  0  0  0
  190.3130  177.3450  141.2340 N   0  0  0  0  0  2  0  0  0  0  0  0
  189.7230  177.5660  139.9470 C   0  0  0  0  0  0  0  0  0  0  0  0
  188.2010  178.1780  139.8220 S   0  0  0  0  0  0  0  0  0  0  0  0
  190.5040  177.2680  138.7790 N   0  0  0  0  0  2  0  0  0  0  0  0
  192.3960  176.3280  137.5290 C   0  0  0  0  0  1  0  0  0  0  0  0
  191.3100  176.0700  138.5600 C   0  0  2  0  0  3  0  0  0  0  0  0
  189.8970  175.4300  136.9800 C   0  0  0  0  0  1  0  0  0  0  0  0
  190.5020  175.0020  138.1630 O   0  0  0  0  0  0  0  0  0  0  0  0
  2  1  1  6  0  0  0
  3  6  1  0  0  0  0
  3 13  1  0  0  0  0
  4 10  1  0  0  0  0
  5 11  1  0  0  0  0
  6  5  1  0  0  0  0
  7  6  2  0  0  0  0
  8  2  1  0  0  0  0
  8 10  2  0  0  0  0
  9  7  1  0  0  0  0
 11  4  2  0  0  0  0
 12  8  1  0  0  0  0
 13 12  2  0  0  0  0
 13 11  1  0  0  0  0
 14  3  2  0  0  0  0
 15  9  2  0  0  0  0
 15 14  1  0  0  0  0
 16 19  1  1  0  0  0
 16 18  1  0  0  0  0
 16  2  1  0  0  0  0
 17 18  1  0  0  0  0
 20 19  1  0  0  0  0
 21 20  1  0  0  0  0
 22 21  1  0  0  0  0
 23 22  1  0  0  0  0
 24 23  2  0  0  0  0
 25 23  1  0  0  0  0
 27 26  1  6  0  0  0
 27 25  1  0  0  0  0
 28 29  1  0  0  0  0
 29 27  1  0  0  0  0
M  END
>  <MODEL>
4

>  <REMARK>
 VINA RESULT:      -8.1      2.324      5.578
  Name = 
  11 active torsions:
  status: ('A' for Active; 'I' for Inactive)
    1  A    between atoms: C_4  and  N_12
    2  A    between atoms: C_4  and  N_13
    3  A    between atoms: C_10  and  C_14
    4  A    between atoms: C_10  and  C_29
    5  A    between atoms: N_12  and  N_20
    6  A    between atoms: N_13  and  C_22
    7  A    between atoms: C_19  and  C_23
    8  A    between atoms: C_19  and  C_29
    9  A    between atoms: N_20  and  C_23
   10  A    between atoms: C_22  and  O_27
   11  A    between atoms: C_28  and  C_29
                            x       y       z     vdW  Elec       q    Type
                         _______ _______ _______ _____ _____    ______ ____

>  <TORSDO>
F 11

$$$$
=
 OpenBabel10222415533D

 29 31  0  0  1  0  0  0  0  0999 V2000
  190.1890  175.2470  142.8930 O   0  0  0  0  0  1  0  0  0  0  0  0
  190.5790  176.3090  143.7140 C   0  0  2  0  0  3  0  0  0  0  0  0
  185.8780  178.0670  144.2000 C   0  0  0  0  0  0  0  0  0  0  0  0
  188.4050  177.5380  146.5970 C   0  0  0  0  0  3  0  0  0  0  0  0
  186.1190  178.3410  146.3960 O   0  0  0  0  0  0  0  0  0  0  0  0
  185.2900  178.4750  145.3790 C   0  0  0  0  0  0  0  0  0  0  0  0
  183.9820  178.9550  145.4110 C   0  0  0  0  0  3  0  0  0  0  0  0
  189.3890  176.8310  144.4610 C   0  0  0  0  0  0  0  0  0  0  0  0
  183.2760  179.0050  144.1940 C   0  0  0  0  0  3  0  0  0  0  0  0
  189.4870  177.0230  145.8590 C   0  0  0  0  0  3  0  0  0  0  0  0
  187.2400  177.8510  145.9030 C   0  0  0  0  0  0  0  0  0  0  0  0
  188.1970  177.1610  143.7800 C   0  0  0  0  0  3  0  0  0  0  0  0
  187.1430  177.6620  144.5400 C   0  0  0  0  0  0  0  0  0  0  0  0
  185.2050  178.1010  142.9820 C   0  0  0  0  0  3  0  0  0  0  0  0
  183.8830  178.5830  142.9890 C   0  0  0  0  0  3  0  0  0  0  0  0
  191.2670  177.4180  142.8980 C   0  0  2  0  0  3  0  0  0  0  0  0
  192.0390  179.2260  144.3440 N   0  0  0  0  0  1  0  0  0  0  0  0
  190.9750  178.8100  143.4470 C   0  0  0  0  0  2  0  0  0  0  0  0
  190.9170  177.3450  141.4050 C   0  0  0  0  0  2  0  0  0  0  0  0
  192.1380  177.4450  140.4940 C   0  0  0  0  0  2  0  0  0  0  0  0
  191.8350  176.8940  139.1830 N   0  0  0  0  0  2  0  0  0  0  0  0
  190.6400  176.1680  139.3010 N   0  0  0  0  0  2  0  0  0  0  0  0
  189.7210  176.0060  138.2140 C   0  0  0  0  0  0  0  0  0  0  0  0
  190.0860  175.0110  136.9560 S   0  0  0  0  0  0  0  0  0  0  0  0
  188.4710  176.7100  138.2680 N   0  0  0  0  0  2  0  0  0  0  0  0
  189.1320  178.7100  137.0080 C   0  0  0  0  0  1  0  0  0  0  0  0
  188.2830  178.1530  138.1370 C   0  0  2  0  0  3  0  0  0  0  0  0
  187.6010  178.3680  140.2330 C   0  0  0  0  0  1  0  0  0  0  0  0
  188.5840  178.7970  139.3400 O   0  0  0  0  0  0  0  0  0  0  0  0
  2  1  1  6  0  0  0
  2  8  1  0  0  0  0
  3 13  1  0  0  0  0
  3  6  1  0  0  0  0
  6  7  2  0  0  0  0
  6  5  1  0  0  0  0
  8 10  1  0  0  0  0
  9  7  1  0  0  0  0
 10  4  2  0  0  0  0
 11  5  1  0  0  0  0
 11  4  1  0  0  0  0
 12  8  2  0  0  0  0
 12 13  1  0  0  0  0
 13 11  2  0  0  0  0
 14 15  1  0  0  0  0
 14  3  2  0  0  0  0
 15  9  2  0  0  0  0
 16 19  1  6  0  0  0
 16 18  1  0  0  0  0
 16  2  1  0  0  0  0
 18 17  1  0  0  0  0
 20 19  1  0  0  0  0
 21 22  1  0  0  0  0
 21 20  1  0  0  0  0
 23 25  1  0  0  0  0
 23 22  1  0  0  0  0
 24 23  2  0  0  0  0
 27 26  1  6  0  0  0
 27 25  1  0  0  0  0
 27 29  1  0  0  0  0
 29 28  1  0  0  0  0
M  END
>  <MODEL>
5

>  <REMARK>
 VINA RESULT:      -8.1      2.201      5.213
  Name = 
  11 active torsions:
  status: ('A' for Active; 'I' for Inactive)
    1  A    between atoms: C_4  and  N_12
    2  A    between atoms: C_4  and  N_13
    3  A    between atoms: C_10  and  C_14
    4  A    between atoms: C_10  and  C_29
    5  A    between atoms: N_12  and  N_20
    6  A    between atoms: N_13  and  C_22
    7  A    between atoms: C_19  and  C_23
    8  A    between atoms: C_19  and  C_29
    9  A    between atoms: N_20  and  C_23
   10  A    between atoms: C_22  and  O_27
   11  A    between atoms: C_28  and  C_29
                            x       y       z     vdW  Elec       q    Type
                         _______ _______ _______ _____ _____    ______ ____

>  <TORSDO>
F 11

$$$$
=
 OpenBabel10222415533D

 29 31  0  0  1  0  0  0  0  0999 V2000
  189.8940  176.3640  147.3480 O   0  0  0  0  0  1  0  0  0  0  0  0
  189.7490  177.4960  146.5410 C   0  0  2  0  0  3  0  0  0  0  0  0
  185.3670  178.3450  144.1950 C   0  0  0  0  0  0  0  0  0  0  0  0
  186.2660  178.6460  147.5890 C   0  0  0  0  0  3  0  0  0  0  0  0
  184.3730  178.9510  146.0940 O   0  0  0  0  0  0  0  0  0  0  0  0
  184.2050  178.7820  144.7960 C   0  0  0  0  0  0  0  0  0  0  0  0
  183.0420  178.9960  144.0590 C   0  0  0  0  0  3  0  0  0  0  0  0
  188.2990  177.8680  146.4530 C   0  0  0  0  0  0  0  0  0  0  0  0
  183.0920  178.7440  142.6750 C   0  0  0  0  0  3  0  0  0  0  0  0
  187.6190  178.2600  147.6290 C   0  0  0  0  0  3  0  0  0  0  0  0
  185.6260  178.6290  146.3530 C   0  0  0  0  0  0  0  0  0  0  0  0
  187.6280  177.8640  145.2110 C   0  0  0  0  0  3  0  0  0  0  0  0
  186.2890  178.2450  145.2060 C   0  0  0  0  0  0  0  0  0  0  0  0
  185.4460  178.0830  142.8300 C   0  0  0  0  0  3  0  0  0  0  0  0
  184.2840  178.2930  142.0650 C   0  0  0  0  0  3  0  0  0  0  0  0
  190.3630  177.2690  145.1490 C   0  0  2  0  0  3  0  0  0  0  0  0
  191.7130  175.5140  144.1230 N   0  0  0  0  0  1  0  0  0  0  0  0
  191.6650  176.4770  145.2100 C   0  0  0  0  0  2  0  0  0  0  0  0
  190.5700  178.5820  144.3820 C   0  0  0  0  0  2  0  0  0  0  0  0
  190.8610  178.3750  142.8980 C   0  0  0  0  0  2  0  0  0  0  0  0
  189.6440  178.0110  142.1910 N   0  0  0  0  0  2  0  0  0  0  0  0
  189.9560  176.9300  141.3530 N   0  0  0  0  0  2  0  0  0  0  0  0
  189.7550  176.9660  139.9350 C   0  0  0  0  0  0  0  0  0  0  0  0
  191.0330  176.8260  138.9080 S   0  0  0  0  0  0  0  0  0  0  0  0
  188.4130  177.0980  139.4400 N   0  0  0  0  0  2  0  0  0  0  0  0
  187.2920  177.8320  137.3840 C   0  0  0  0  0  1  0  0  0  0  0  0
  187.8620  178.2490  138.7280 C   0  0  2  0  0  3  0  0  0  0  0  0
  189.0670  179.2850  137.1860 C   0  0  0  0  0  1  0  0  0  0  0  0
  188.8380  179.2350  138.5620 O   0  0  0  0  0  0  0  0  0  0  0  0
  2  1  1  1  0  0  0
  3  6  1  0  0  0  0
  3 13  1  0  0  0  0
  4 10  1  0  0  0  0
  5 11  1  0  0  0  0
  6  5  1  0  0  0  0
  7  6  2  0  0  0  0
  8  2  1  0  0  0  0
  8 10  2  0  0  0  0
  9  7  1  0  0  0  0
 11  4  2  0  0  0  0
 12  8  1  0  0  0  0
 13 12  2  0  0  0  0
 13 11  1  0  0  0  0
 14  3  2  0  0  0  0
 15  9  2  0  0  0  0
 15 14  1  0  0  0  0
 16 19  1  1  0  0  0
 16 18  1  0  0  0  0
 16  2  1  0  0  0  0
 17 18  1  0  0  0  0
 20 19  1  0  0  0  0
 21 20  1  0  0  0  0
 22 21  1  0  0  0  0
 23 22  1  0  0  0  0
 24 23  2  0  0  0  0
 25 23  1  0  0  0  0
 27 26  1  6  0  0  0
 27 25  1  0  0  0  0
 28 29  1  0  0  0  0
 29 27  1  0  0  0  0
M  END
>  <MODEL>
6

>  <REMARK>
 VINA RESULT:      -8.0      1.989      5.559
  Name = 
  11 active torsions:
  status: ('A' for Active; 'I' for Inactive)
    1  A    between atoms: C_4  and  N_12
    2  A    between atoms: C_4  and  N_13
    3  A    between atoms: C_10  and  C_14
    4  A    between atoms: C_10  and  C_29
    5  A    between atoms: N_12  and  N_20
    6  A    between atoms: N_13  and  C_22
    7  A    between atoms: C_19  and  C_23
    8  A    between atoms: C_19  and  C_29
    9  A    between atoms: N_20  and  C_23
   10  A    between atoms: C_22  and  O_27
   11  A    between atoms: C_28  and  C_29
                            x       y       z     vdW  Elec       q    Type
                         _______ _______ _______ _____ _____    ______ ____

>  <TORSDO>
F 11

$$$$
=
 OpenBabel10222415533D

 29 31  0  0  1  0  0  0  0  0999 V2000
  183.7220  178.9540  146.1750 O   0  0  0  0  0  1  0  0  0  0  0  0
  184.4210  178.3140  145.1470 C   0  0  2  0  0  3  0  0  0  0  0  0
  189.2130  176.8690  144.5320 C   0  0  0  0  0  0  0  0  0  0  0  0
  187.5520  178.2350  147.3230 C   0  0  0  0  0  3  0  0  0  0  0  0
  189.7340  177.4200  146.6250 O   0  0  0  0  0  0  0  0  0  0  0  0
  190.1990  176.9240  145.4950 C   0  0  0  0  0  0  0  0  0  0  0  0
  191.4970  176.4930  145.2300 C   0  0  0  0  0  3  0  0  0  0  0  0
  185.8460  178.1070  145.5620 C   0  0  0  0  0  0  0  0  0  0  0  0
  191.7710  176.0010  143.9390 C   0  0  0  0  0  3  0  0  0  0  0  0
  186.2330  178.4400  146.8810 C   0  0  0  0  0  3  0  0  0  0  0  0
  188.4600  177.6920  146.4180 C   0  0  0  0  0  0  0  0  0  0  0  0
  186.7850  177.5530  144.6650 C   0  0  0  0  0  3  0  0  0  0  0  0
  188.0840  177.3680  145.1320 C   0  0  0  0  0  0  0  0  0  0  0  0
  189.4530  176.3920  143.2460 C   0  0  0  0  0  3  0  0  0  0  0  0
  190.7570  175.9500  142.9560 C   0  0  0  0  0  3  0  0  0  0  0  0
  184.3220  179.1070  143.8320 C   0  0  2  0  0  3  0  0  0  0  0  0
  181.9600  178.8960  143.2560 N   0  0  0  0  0  1  0  0  0  0  0  0
  182.9870  179.8290  143.6880 C   0  0  0  0  0  2  0  0  0  0  0  0
  184.5930  178.2300  142.6010 C   0  0  0  0  0  2  0  0  0  0  0  0
  185.0450  179.0270  141.3800 C   0  0  0  0  0  2  0  0  0  0  0  0
  184.4230  178.5010  140.1760 N   0  0  0  0  0  2  0  0  0  0  0  0
  185.0840  179.0750  139.0800 N   0  0  0  0  0  2  0  0  0  0  0  0
  185.8260  178.3010  138.1300 C   0  0  0  0  0  0  0  0  0  0  0  0
  185.0880  177.1070  137.2710 S   0  0  0  0  0  0  0  0  0  0  0  0
  187.2130  178.6130  137.9310 N   0  0  0  0  0  2  0  0  0  0  0  0
  188.4200  178.3210  140.0480 C   0  0  0  0  0  1  0  0  0  0  0  0
  188.3490  177.9580  138.5750 C   0  0  2  0  0  3  0  0  0  0  0  0
  190.1520  177.0750  137.6410 C   0  0  0  0  0  1  0  0  0  0  0  0
  189.5400  178.2960  137.9290 O   0  0  0  0  0  0  0  0  0  0  0  0
  2  8  1  0  0  0  0
  2  1  1  1  0  0  0
  3 13  1  0  0  0  0
  3  6  1  0  0  0  0
  6  5  1  0  0  0  0
  7  6  2  0  0  0  0
  8 10  2  0  0  0  0
  9  7  1  0  0  0  0
 10  4  1  0  0  0  0
 11  5  1  0  0  0  0
 11  4  2  0  0  0  0
 12 13  2  0  0  0  0
 12  8  1  0  0  0  0
 13 11  1  0  0  0  0
 14  3  2  0  0  0  0
 15 14  1  0  0  0  0
 15  9  2  0  0  0  0
 16 19  1  6  0  0  0
 16  2  1  0  0  0  0
 17 18  1  0  0  0  0
 18 16  1  0  0  0  0
 20 19  1  0  0  0  0
 21 20  1  0  0  0  0
 22 21  1  0  0  0  0
 23 22  1  0  0  0  0
 24 23  2  0  0  0  0
 25 23  1  0  0  0  0
 25 27  1  0  0  0  0
 27 26  1  1  0  0  0
 28 29  1  0  0  0  0
 29 27  1  0  0  0  0
M  END
>  <MODEL>
7

>  <REMARK>
 VINA RESULT:      -7.8      2.288      4.357
  Name = 
  11 active torsions:
  status: ('A' for Active; 'I' for Inactive)
    1  A    between atoms: C_4  and  N_12
    2  A    between atoms: C_4  and  N_13
    3  A    between atoms: C_10  and  C_14
    4  A    between atoms: C_10  and  C_29
    5  A    between atoms: N_12  and  N_20
    6  A    between atoms: N_13  and  C_22
    7  A    between atoms: C_19  and  C_23
    8  A    between atoms: C_19  and  C_29
    9  A    between atoms: N_20  and  C_23
   10  A    between atoms: C_22  and  O_27
   11  A    between atoms: C_28  and  C_29
                            x       y       z     vdW  Elec       q    Type
                         _______ _______ _______ _____ _____    ______ ____

>  <TORSDO>
F 11

$$$$
=
 OpenBabel10222415533D

 29 31  0  0  1  0  0  0  0  0999 V2000
  185.4640  179.3890  147.0650 O   0  0  0  0  0  1  0  0  0  0  0  0
  186.0300  179.0780  145.8250 C   0  0  2  0  0  3  0  0  0  0  0  0
  184.1500  178.7720  141.1550 C   0  0  0  0  0  0  0  0  0  0  0  0
  182.5480  178.7950  144.2940 C   0  0  0  0  0  3  0  0  0  0  0  0
  182.0590  178.6850  141.9150 O   0  0  0  0  0  0  0  0  0  0  0  0
  182.8120  178.6860  140.8320 C   0  0  0  0  0  0  0  0  0  0  0  0
  182.3890  178.6130  139.5060 C   0  0  0  0  0  3  0  0  0  0  0  0
  184.9460  178.9480  144.7970 C   0  0  0  0  0  0  0  0  0  0  0  0
  183.3780  178.6250  138.5040 C   0  0  0  0  0  3  0  0  0  0  0  0
  183.5990  178.8880  145.2240 C   0  0  0  0  0  3  0  0  0  0  0  0
  182.8810  178.7670  142.9430 C   0  0  0  0  0  0  0  0  0  0  0  0
  185.2570  178.9230  143.4200 C   0  0  0  0  0  3  0  0  0  0  0  0
  184.1940  178.8240  142.5260 C   0  0  0  0  0  0  0  0  0  0  0  0
  185.1510  178.7820  140.1880 C   0  0  0  0  0  3  0  0  0  0  0  0
  184.7470  178.7100  138.8420 C   0  0  0  0  0  3  0  0  0  0  0  0
  186.8870  177.8040  145.9090 C   0  0  2  0  0  3  0  0  0  0  0  0
  188.8330  177.8150  147.3810 N   0  0  0  0  0  1  0  0  0  0  0  0
  187.4070  177.5450  147.3200 C   0  0  0  0  0  2  0  0  0  0  0  0
  188.0470  177.8140  144.9040 C   0  0  0  0  0  2  0  0  0  0  0  0
  188.1320  176.5410  144.0670 C   0  0  0  0  0  2  0  0  0  0  0  0
  187.9750  176.8530  142.6560 N   0  0  0  0  0  2  0  0  0  0  0  0
  188.9130  177.8480  142.3420 N   0  0  0  0  0  2  0  0  0  0  0  0
  190.1090  177.5780  141.5990 C   0  0  0  0  0  0  0  0  0  0  0  0
  191.5260  177.2820  142.3820 S   0  0  0  0  0  0  0  0  0  0  0  0
  190.0280  177.5450  140.1660 N   0  0  0  0  0  2  0  0  0  0  0  0
  188.7240  176.7790  138.2330 C   0  0  0  0  0  1  0  0  0  0  0  0
  188.8360  177.7920  139.3600 C   0  0  2  0  0  3  0  0  0  0  0  0
  189.0070  178.9360  137.4720 C   0  0  0  0  0  1  0  0  0  0  0  0
  188.8500  179.0920  138.8500 O   0  0  0  0  0  0  0  0  0  0  0  0
  2 16  1  0  0  0  0
  2  1  1  1  0  0  0
  3 13  1  0  0  0  0
  4 10  1  0  0  0  0
  5 11  1  0  0  0  0
  6  3  1  0  0  0  0
  6  5  1  0  0  0  0
  7  6  2  0  0  0  0
  8 10  2  0  0  0  0
  8  2  1  0  0  0  0
  9 15  2  0  0  0  0
  9  7  1  0  0  0  0
 11  4  2  0  0  0  0
 12  8  1  0  0  0  0
 13 11  1  0  0  0  0
 13 12  2  0  0  0  0
 14  3  2  0  0  0  0
 15 14  1  0  0  0  0
 16 19  1  6  0  0  0
 16 18  1  0  0  0  0
 18 17  1  0  0  0  0
 20 19  1  0  0  0  0
 21 20  1  0  0  0  0
 22 21  1  0  0  0  0
 23 22  1  0  0  0  0
 23 24  2  0  0  0  0
 25 23  1  0  0  0  0
 27 26  1  6  0  0  0
 27 25  1  0  0  0  0
 28 29  1  0  0  0  0
 29 27  1  0  0  0  0
M  END
>  <MODEL>
8

>  <REMARK>
 VINA RESULT:      -7.7      2.127      5.807
  Name = 
  11 active torsions:
  status: ('A' for Active; 'I' for Inactive)
    1  A    between atoms: C_4  and  N_12
    2  A    between atoms: C_4  and  N_13
    3  A    between atoms: C_10  and  C_14
    4  A    between atoms: C_10  and  C_29
    5  A    between atoms: N_12  and  N_20
    6  A    between atoms: N_13  and  C_22
    7  A    between atoms: C_19  and  C_23
    8  A    between atoms: C_19  and  C_29
    9  A    between atoms: N_20  and  C_23
   10  A    between atoms: C_22  and  O_27
   11  A    between atoms: C_28  and  C_29
                            x       y       z     vdW  Elec       q    Type
                         _______ _______ _______ _____ _____    ______ ____

>  <TORSDO>
F 11

$$$$
=
 OpenBabel10222415533D

 29 31  0  0  1  0  0  0  0  0999 V2000
  183.7220  179.9040  143.7770 O   0  0  0  0  0  1  0  0  0  0  0  0
  184.2130  178.5950  143.7390 C   0  0  2  0  0  3  0  0  0  0  0  0
  188.7560  177.4390  145.5960 C   0  0  0  0  0  0  0  0  0  0  0  0
  185.7880  178.4390  147.2090 C   0  0  0  0  0  3  0  0  0  0  0  0
  188.0840  177.7980  147.6880 O   0  0  0  0  0  0  0  0  0  0  0  0
  189.1030  177.4410  146.9310 C   0  0  0  0  0  0  0  0  0  0  0  0
  190.3880  177.0980  147.3480 C   0  0  0  0  0  3  0  0  0  0  0  0
  185.2390  178.4120  144.8160 C   0  0  0  0  0  0  0  0  0  0  0  0
  191.3250  176.7520  146.3560 C   0  0  0  0  0  3  0  0  0  0  0  0
  184.8660  178.6280  146.1630 C   0  0  0  0  0  3  0  0  0  0  0  0
  187.0750  178.0320  146.8700 C   0  0  0  0  0  0  0  0  0  0  0  0
  186.5500  177.9950  144.4990 C   0  0  0  0  0  3  0  0  0  0  0  0
  187.4400  177.8230  145.5570 C   0  0  0  0  0  0  0  0  0  0  0  0
  189.6610  177.1060  144.5910 C   0  0  0  0  0  3  0  0  0  0  0  0
  190.9640  176.7550  144.9890 C   0  0  0  0  0  3  0  0  0  0  0  0
  184.7810  178.2560  142.3490 C   0  0  2  0  0  3  0  0  0  0  0  0
  186.8700  178.8280  141.2260 N   0  0  0  0  0  1  0  0  0  0  0  0
  185.6470  179.3780  141.7860 C   0  0  0  0  0  2  0  0  0  0  0  0
  183.6820  177.8730  141.3480 C   0  0  0  0  0  2  0  0  0  0  0  0
  183.4280  178.9450  140.2910 C   0  0  0  0  0  2  0  0  0  0  0  0
  182.6360  178.4000  139.2010 N   0  0  0  0  0  2  0  0  0  0  0  0
  183.4080  178.5030  138.0330 N   0  0  0  0  0  2  0  0  0  0  0  0
  184.5610  177.6860  137.7930 C   0  0  0  0  0  0  0  0  0  0  0  0
  184.3900  176.1530  137.2210 S   0  0  0  0  0  0  0  0  0  0  0  0
  185.8590  178.2500  138.0370 N   0  0  0  0  0  2  0  0  0  0  0  0
  188.0050  177.0650  137.9190 C   0  0  0  0  0  1  0  0  0  0  0  0
  187.0600  178.0360  137.2340 C   0  0  2  0  0  3  0  0  0  0  0  0
  189.0550  178.9960  137.2180 C   0  0  0  0  0  1  0  0  0  0  0  0
  187.7040  179.2510  136.9830 O   0  0  0  0  0  0  0  0  0  0  0  0
  2  1  1  6  0  0  0
  2  8  1  0  0  0  0
  3  6  1  0  0  0  0
  6  7  2  0  0  0  0
  6  5  1  0  0  0  0
  8 10  1  0  0  0  0
  9  7  1  0  0  0  0
 10  4  2  0  0  0  0
 11  4  1  0  0  0  0
 11  5  1  0  0  0  0
 12  8  2  0  0  0  0
 12 13  1  0  0  0  0
 13  3  1  0  0  0  0
 13 11  2  0  0  0  0
 14 15  1  0  0  0  0
 14  3  2  0  0  0  0
 15  9  2  0  0  0  0
 16 19  1  6  0  0  0
 16  2  1  0  0  0  0
 17 18  1  0  0  0  0
 18 16  1  0  0  0  0
 20 19  1  0  0  0  0
 21 20  1  0  0  0  0
 22 21  1  0  0  0  0
 23 22  1  0  0  0  0
 23 25  1  0  0  0  0
 24 23  2  0  0  0  0
 27 26  1  1  0  0  0
 27 25  1  0  0  0  0
 29 28  1  0  0  0  0
 29 27  1  0  0  0  0
M  END
>  <MODEL>
9

>  <REMARK>
 VINA RESULT:      -7.5      2.435      4.225
  Name = 
  11 active torsions:
  status: ('A' for Active; 'I' for Inactive)
    1  A    between atoms: C_4  and  N_12
    2  A    between atoms: C_4  and  N_13
    3  A    between atoms: C_10  and  C_14
    4  A    between atoms: C_10  and  C_29
    5  A    between atoms: N_12  and  N_20
    6  A    between atoms: N_13  and  C_22
    7  A    between atoms: C_19  and  C_23
    8  A    between atoms: C_19  and  C_29
    9  A    between atoms: N_20  and  C_23
   10  A    between atoms: C_22  and  O_27
   11  A    between atoms: C_28  and  C_29
                            x       y       z     vdW  Elec       q    Type
                         _______ _______ _______ _____ _____    ______ ____

>  <TORSDO>
F 11

$$$$
