=
 OpenBabel10222420213D

 27 28  0  0  1  0  0  0  0  0999 V2000
  187.6850  178.2970  141.0440 C   0  0  0  0  0  0  0  0  0  0  0  0
  189.8530  177.6600  140.7050 C   0  0  0  0  0  0  0  0  0  0  0  0
  188.8390  178.5930  140.1300 C   0  0  1  0  0  3  0  0  0  0  0  0
  189.3010  176.9890  141.7070 C   0  0  0  0  0  0  0  0  0  0  0  0
  187.9580  177.3910  141.9270 N   0  0  0  0  0  0  0  0  0  0  0  0
  185.6220  178.9740  139.7850 N   0  0  0  0  0  2  0  0  0  0  0  0
  186.3820  178.9770  140.9930 C   0  0  0  0  0  0  0  0  0  0  0  0
  185.9390  179.5660  142.0160 O   0  0  0  0  0  0  0  0  0  0  0  0
  184.3790  179.6120  139.7130 N   0  0  0  0  0  2  0  0  0  0  0  0
  184.2090  180.5580  138.9180 O   0  0  0  0  0  1  0  0  0  0  0  0
  187.9940  177.1250  138.4230 O   0  0  0  0  0  1  0  0  0  0  0  0
  188.8180  179.1330  137.6940 O   0  0  0  0  0  0  0  0  0  0  0  0
  188.5190  178.2340  138.7090 C   0  0  0  0  0  0  0  0  0  0  0  0
  191.2780  177.5480  140.2590 C   0  0  0  0  0  2  0  0  0  0  0  0
  191.4120  176.5500  139.1610 C   0  0  0  0  0  0  0  0  0  0  0  0
  190.6350  175.5620  139.1100 O   0  0  0  0  0  0  0  0  0  0  0  0
  192.4370  176.6980  138.1850 N   0  0  0  0  0  1  0  0  0  0  0  0
  190.0100  176.0180  142.5930 C   0  0  0  0  0  2  0  0  0  0  0  0
  190.7700  177.1430  145.9510 C   0  0  0  0  0  3  0  0  0  0  0  0
  190.0400  176.5200  143.9570 N   0  0  0  0  0  0  0  0  0  0  0  0
  188.5040  177.5530  146.9460 N   0  0  0  0  0  0  0  0  0  0  0  0
  191.1520  176.7100  144.6920 C   0  0  0  0  0  3  0  0  0  0  0  0
  188.9590  176.7910  144.6630 N   0  0  0  0  0  0  0  0  0  0  0  0
  189.0360  178.0520  148.2040 C   0  0  0  0  0  1  0  0  0  0  0  0
  189.3850  177.1750  145.8780 C   0  0  0  0  0  0  0  0  0  0  0  0
  186.4650  178.8630  147.2360 C   0  0  0  0  0  1  0  0  0  0  0  0
  187.0600  177.5490  146.7630 C   0  0  0  0  0  2  0  0  0  0  0  0
  1  5  2  0  0  0  0
  2  4  2  0  0  0  0
  3 13  1  6  0  0  0
  3  2  1  0  0  0  0
  3  1  1  0  0  0  0
  4  5  1  0  0  0  0
  4 18  1  0  0  0  0
  6  7  1  0  0  0  0
  7  1  1  0  0  0  0
  7  8  2  0  0  0  0
  9  6  1  0  0  0  0
 10  9  1  0  0  0  0
 11 13  1  0  0  0  0
 12 13  2  0  0  0  0
 14  2  1  0  0  0  0
 15 14  1  0  0  0  0
 16 15  2  0  0  0  0
 17 15  1  0  0  0  0
 18 20  1  0  0  0  0
 20 23  1  0  0  0  0
 20 22  1  0  0  0  0
 21 24  1  0  0  0  0
 22 19  2  0  0  0  0
 23 25  2  0  0  0  0
 25 19  1  0  0  0  0
 25 21  1  0  0  0  0
 27 21  1  0  0  0  0
 27 26  1  0  0  0  0
M  END
>  <MODEL>
1

>  <REMARK>
 VINA RESULT:      -7.8      0.000      0.000
  Name = 
  8 active torsions:
  status: ('A' for Active; 'I' for Inactive)
    1  A    between atoms: N_1  and  N_13
    2  A    between atoms: C_2  and  C_3
    3  A    between atoms: C_4  and  C_8
    4  A    between atoms: C_8  and  C_9
    5  A    between atoms: N_11  and  C_19
    6  A    between atoms: N_14  and  C_22
    7  A    between atoms: C_17  and  C_26
    8  A    between atoms: C_19  and  C_21
                            x       y       z     vdW  Elec       q    Type
                         _______ _______ _______ _____ _____    ______ ____

>  <TORSDO>
F 8

$$$$
=
 OpenBabel10222420213D

 27 28  0  0  1  0  0  0  0  0999 V2000
  188.6990  177.6960  142.1390 C   0  0  0  0  0  0  0  0  0  0  0  0
  189.2480  177.9570  144.3420 C   0  0  0  0  0  0  0  0  0  0  0  0
  189.8940  178.0040  142.9960 C   0  0  1  0  0  3  0  0  0  0  0  0
  187.9670  177.6480  144.1940 C   0  0  0  0  0  0  0  0  0  0  0  0
  187.6220  177.4970  142.8260 N   0  0  0  0  0  0  0  0  0  0  0  0
  188.0530  178.6820  139.9230 N   0  0  0  0  0  2  0  0  0  0  0  0
  188.7130  177.6580  140.6690 C   0  0  0  0  0  0  0  0  0  0  0  0
  189.3040  176.7210  140.0690 O   0  0  0  0  0  0  0  0  0  0  0  0
  188.0550  178.6680  138.5240 N   0  0  0  0  0  2  0  0  0  0  0  0
  186.9760  178.6760  137.8990 O   0  0  0  0  0  1  0  0  0  0  0  0
  192.1460  177.2520  142.6160 O   0  0  0  0  0  0  0  0  0  0  0  0
  190.5990  175.6110  143.0110 O   0  0  0  0  0  1  0  0  0  0  0  0
  190.9500  176.9460  142.8660 C   0  0  0  0  0  0  0  0  0  0  0  0
  189.9270  178.2690  145.6390 C   0  0  0  0  0  2  0  0  0  0  0  0
  190.3550  177.0190  146.3270 C   0  0  0  0  0  0  0  0  0  0  0  0
  189.5620  176.4250  147.1020 O   0  0  0  0  0  0  0  0  0  0  0  0
  191.6690  176.5120  146.1300 N   0  0  0  0  0  1  0  0  0  0  0  0
  186.9590  177.5830  145.2950 C   0  0  0  0  0  2  0  0  0  0  0  0
  183.6880  179.0670  144.8250 C   0  0  0  0  0  3  0  0  0  0  0  0
  185.6880  178.1170  144.8360 N   0  0  0  0  0  0  0  0  0  0  0  0
  183.1820  178.5870  142.4150 N   0  0  0  0  0  0  0  0  0  0  0  0
  184.7930  178.7650  145.6050 C   0  0  0  0  0  3  0  0  0  0  0  0
  185.2300  177.9670  143.6080 N   0  0  0  0  0  0  0  0  0  0  0  0
  181.9210  179.3120  142.4320 C   0  0  0  0  0  1  0  0  0  0  0  0
  184.0160  178.5430  143.5820 C   0  0  0  0  0  0  0  0  0  0  0  0
  184.4520  179.0020  140.3730 C   0  0  0  0  0  1  0  0  0  0  0  0
  183.6220  178.0020  141.1570 C   0  0  0  0  0  2  0  0  0  0  0  0
  1  5  2  0  0  0  0
  1  3  1  0  0  0  0
  2 14  1  0  0  0  0
  3 13  1  1  0  0  0
  3  2  1  0  0  0  0
  4  2  2  0  0  0  0
  4 18  1  0  0  0  0
  5  4  1  0  0  0  0
  6  7  1  0  0  0  0
  7  1  1  0  0  0  0
  8  7  2  0  0  0  0
  9  6  1  0  0  0  0
 10  9  1  0  0  0  0
 11 13  2  0  0  0  0
 13 12  1  0  0  0  0
 14 15  1  0  0  0  0
 15 16  2  0  0  0  0
 17 15  1  0  0  0  0
 19 22  2  0  0  0  0
 20 18  1  0  0  0  0
 20 22  1  0  0  0  0
 21 24  1  0  0  0  0
 21 25  1  0  0  0  0
 23 20  1  0  0  0  0
 25 23  2  0  0  0  0
 25 19  1  0  0  0  0
 26 27  1  0  0  0  0
 27 21  1  0  0  0  0
M  END
>  <MODEL>
2

>  <REMARK>
 VINA RESULT:      -7.4      2.913      5.582
  Name = 
  8 active torsions:
  status: ('A' for Active; 'I' for Inactive)
    1  A    between atoms: N_1  and  N_13
    2  A    between atoms: C_2  and  C_3
    3  A    between atoms: C_4  and  C_8
    4  A    between atoms: C_8  and  C_9
    5  A    between atoms: N_11  and  C_19
    6  A    between atoms: N_14  and  C_22
    7  A    between atoms: C_17  and  C_26
    8  A    between atoms: C_19  and  C_21
                            x       y       z     vdW  Elec       q    Type
                         _______ _______ _______ _____ _____    ______ ____

>  <TORSDO>
F 8

$$$$
=
 OpenBabel10222420213D

 27 28  0  0  1  0  0  0  0  0999 V2000
  189.0220  177.8390  140.3400 C   0  0  0  0  0  0  0  0  0  0  0  0
  190.3730  177.0910  142.0240 C   0  0  0  0  0  0  0  0  0  0  0  0
  190.4820  177.7240  140.6760 C   0  0  1  0  0  3  0  0  0  0  0  0
  189.0920  176.8900  142.3040 C   0  0  0  0  0  0  0  0  0  0  0  0
  188.2510  177.3650  141.2640 N   0  0  0  0  0  0  0  0  0  0  0  0
  187.1650  178.1600  138.6820 N   0  0  0  0  0  2  0  0  0  0  0  0
  188.4930  178.4580  139.1160 C   0  0  0  0  0  0  0  0  0  0  0  0
  189.2130  179.2480  138.4470 O   0  0  0  0  0  0  0  0  0  0  0  0
  186.6390  178.7390  137.5220 N   0  0  0  0  0  2  0  0  0  0  0  0
  186.7640  178.1600  136.4240 O   0  0  0  0  0  1  0  0  0  0  0  0
  190.6130  175.8360  139.1920 O   0  0  0  0  0  0  0  0  0  0  0  0
  192.5250  177.0780  139.3990 O   0  0  0  0  0  1  0  0  0  0  0  0
  191.1970  176.8240  139.7120 C   0  0  0  0  0  0  0  0  0  0  0  0
  191.5230  176.7880  142.9330 C   0  0  0  0  0  2  0  0  0  0  0  0
  191.5500  177.7340  144.0850 C   0  0  0  0  0  0  0  0  0  0  0  0
  191.6370  177.2920  145.2590 O   0  0  0  0  0  0  0  0  0  0  0  0
  191.4500  179.1350  143.8590 N   0  0  0  0  0  1  0  0  0  0  0  0
  188.5610  176.3530  143.5920 C   0  0  0  0  0  2  0  0  0  0  0  0
  185.9820  178.2340  145.3040 C   0  0  0  0  0  3  0  0  0  0  0  0
  187.4160  177.1370  144.0240 N   0  0  0  0  0  0  0  0  0  0  0  0
  184.2860  178.6530  143.5040 N   0  0  0  0  0  0  0  0  0  0  0  0
  187.2010  177.5750  145.2780 C   0  0  0  0  0  3  0  0  0  0  0  0
  186.4090  177.4600  143.2350 N   0  0  0  0  0  0  0  0  0  0  0  0
  183.4270  179.4540  144.3610 C   0  0  0  0  0  1  0  0  0  0  0  0
  185.5290  178.1310  143.9970 C   0  0  0  0  0  0  0  0  0  0  0  0
  182.4080  178.6830  141.9450 C   0  0  0  0  0  1  0  0  0  0  0  0
  183.9050  178.4860  142.1090 C   0  0  0  0  0  2  0  0  0  0  0  0
  1  3  1  0  0  0  0
  1  5  2  0  0  0  0
  2  4  2  0  0  0  0
  2 14  1  0  0  0  0
  3 13  1  6  0  0  0
  3  2  1  0  0  0  0
  4 18  1  0  0  0  0
  5  4  1  0  0  0  0
  6  7  1  0  0  0  0
  7  1  1  0  0  0  0
  8  7  2  0  0  0  0
  9  6  1  0  0  0  0
 10  9  1  0  0  0  0
 11 13  2  0  0  0  0
 12 13  1  0  0  0  0
 14 15  1  0  0  0  0
 15 16  2  0  0  0  0
 17 15  1  0  0  0  0
 18 20  1  0  0  0  0
 20 22  1  0  0  0  0
 21 25  1  0  0  0  0
 21 24  1  0  0  0  0
 22 19  2  0  0  0  0
 23 25  2  0  0  0  0
 23 20  1  0  0  0  0
 25 19  1  0  0  0  0
 26 27  1  0  0  0  0
 27 21  1  0  0  0  0
M  END
>  <MODEL>
3

>  <REMARK>
 VINA RESULT:      -7.4      2.487      4.151
  Name = 
  8 active torsions:
  status: ('A' for Active; 'I' for Inactive)
    1  A    between atoms: N_1  and  N_13
    2  A    between atoms: C_2  and  C_3
    3  A    between atoms: C_4  and  C_8
    4  A    between atoms: C_8  and  C_9
    5  A    between atoms: N_11  and  C_19
    6  A    between atoms: N_14  and  C_22
    7  A    between atoms: C_17  and  C_26
    8  A    between atoms: C_19  and  C_21
                            x       y       z     vdW  Elec       q    Type
                         _______ _______ _______ _____ _____    ______ ____

>  <TORSDO>
F 8

$$$$
=
 OpenBabel10222420213D

 27 28  0  0  1  0  0  0  0  0999 V2000
  185.7340  178.2210  142.8270 C   0  0  0  0  0  0  0  0  0  0  0  0
  186.2680  177.7540  144.9990 C   0  0  0  0  0  0  0  0  0  0  0  0
  185.0620  177.9950  144.1510 C   0  0  1  0  0  3  0  0  0  0  0  0
  187.3540  177.8710  144.2470 C   0  0  0  0  0  0  0  0  0  0  0  0
  187.0240  178.1490  142.8950 N   0  0  0  0  0  0  0  0  0  0  0  0
  185.5560  179.3840  140.6100 N   0  0  0  0  0  2  0  0  0  0  0  0
  185.0260  178.4590  141.5610 C   0  0  0  0  0  0  0  0  0  0  0  0
  183.9500  177.8500  141.3160 O   0  0  0  0  0  0  0  0  0  0  0  0
  184.9020  179.6260  139.3970 N   0  0  0  0  0  2  0  0  0  0  0  0
  185.2680  179.0340  138.3620 O   0  0  0  0  0  1  0  0  0  0  0  0
  184.6420  180.3630  144.1900 O   0  0  0  0  0  0  0  0  0  0  0  0
  183.2680  179.0830  145.5020 O   0  0  0  0  0  1  0  0  0  0  0  0
  184.3180  179.2170  144.6040 C   0  0  0  0  0  0  0  0  0  0  0  0
  186.2450  177.3820  146.4490 C   0  0  0  0  0  2  0  0  0  0  0  0
  186.6090  178.5490  147.3020 C   0  0  0  0  0  0  0  0  0  0  0  0
  185.8910  179.5810  147.2950 O   0  0  0  0  0  0  0  0  0  0  0  0
  187.7850  178.5070  148.1020 N   0  0  0  0  0  1  0  0  0  0  0  0
  188.7540  177.6220  144.7040 C   0  0  0  0  0  2  0  0  0  0  0  0
  191.4270  177.1330  142.3090 C   0  0  0  0  0  3  0  0  0  0  0  0
  189.6190  177.4030  143.5570 N   0  0  0  0  0  0  0  0  0  0  0  0
  190.2290  177.1260  140.1050 N   0  0  0  0  0  0  0  0  0  0  0  0
  190.9570  177.2710  143.6050 C   0  0  0  0  0  3  0  0  0  0  0  0
  189.1890  177.3720  142.3100 N   0  0  0  0  0  0  0  0  0  0  0  0
  191.4320  176.8460  139.3380 C   0  0  0  0  0  1  0  0  0  0  0  0
  190.2760  177.2050  141.5370 C   0  0  0  0  0  0  0  0  0  0  0  0
  188.7900  178.6020  138.7990 C   0  0  0  0  0  1  0  0  0  0  0  0
  188.9630  177.2160  139.3910 C   0  0  0  0  0  2  0  0  0  0  0  0
  1  5  2  0  0  0  0
  1  3  1  0  0  0  0
  2 14  1  0  0  0  0
  3 13  1  1  0  0  0
  3  2  1  0  0  0  0
  4 18  1  0  0  0  0
  4  2  2  0  0  0  0
  5  4  1  0  0  0  0
  6  7  1  0  0  0  0
  7  1  1  0  0  0  0
  8  7  2  0  0  0  0
  9  6  1  0  0  0  0
 10  9  1  0  0  0  0
 11 13  2  0  0  0  0
 13 12  1  0  0  0  0
 14 15  1  0  0  0  0
 15 17  1  0  0  0  0
 16 15  2  0  0  0  0
 19 22  2  0  0  0  0
 20 22  1  0  0  0  0
 20 18  1  0  0  0  0
 21 25  1  0  0  0  0
 23 20  1  0  0  0  0
 24 21  1  0  0  0  0
 25 19  1  0  0  0  0
 25 23  2  0  0  0  0
 26 27  1  0  0  0  0
 27 21  1  0  0  0  0
M  END
>  <MODEL>
4

>  <REMARK>
 VINA RESULT:      -7.3      2.226      6.099
  Name = 
  8 active torsions:
  status: ('A' for Active; 'I' for Inactive)
    1  A    between atoms: N_1  and  N_13
    2  A    between atoms: C_2  and  C_3
    3  A    between atoms: C_4  and  C_8
    4  A    between atoms: C_8  and  C_9
    5  A    between atoms: N_11  and  C_19
    6  A    between atoms: N_14  and  C_22
    7  A    between atoms: C_17  and  C_26
    8  A    between atoms: C_19  and  C_21
                            x       y       z     vdW  Elec       q    Type
                         _______ _______ _______ _____ _____    ______ ____

>  <TORSDO>
F 8

$$$$
=
 OpenBabel10222420213D

 27 28  0  0  1  0  0  0  0  0999 V2000
  187.2790  178.0000  142.5180 C   0  0  0  0  0  0  0  0  0  0  0  0
  189.1360  176.6680  142.5430 C   0  0  0  0  0  0  0  0  0  0  0  0
  187.9850  177.0310  143.4240 C   0  0  1  0  0  3  0  0  0  0  0  0
  189.0460  177.3550  141.4120 C   0  0  0  0  0  0  0  0  0  0  0  0
  187.8880  178.1740  141.3900 N   0  0  0  0  0  0  0  0  0  0  0  0
  185.2190  178.2100  143.9360 N   0  0  0  0  0  2  0  0  0  0  0  0
  186.0070  178.6660  142.8360 C   0  0  0  0  0  0  0  0  0  0  0  0
  185.6120  179.6360  142.1350 O   0  0  0  0  0  0  0  0  0  0  0  0
  184.0060  178.8290  144.2590 N   0  0  0  0  0  2  0  0  0  0  0  0
  183.6910  178.9960  145.4540 O   0  0  0  0  0  1  0  0  0  0  0  0
  187.9180  177.4430  145.7920 O   0  0  0  0  0  1  0  0  0  0  0  0
  189.4910  178.6220  144.6170 O   0  0  0  0  0  0  0  0  0  0  0  0
  188.4560  177.6990  144.6810 C   0  0  0  0  0  0  0  0  0  0  0  0
  190.1840  175.6490  142.8650 C   0  0  0  0  0  2  0  0  0  0  0  0
  191.3530  176.2840  143.5360 C   0  0  0  0  0  0  0  0  0  0  0  0
  192.0610  177.1150  142.9120 O   0  0  0  0  0  0  0  0  0  0  0  0
  191.6850  175.9310  144.8740 N   0  0  0  0  0  1  0  0  0  0  0  0
  189.9600  177.2150  140.2390 C   0  0  0  0  0  2  0  0  0  0  0  0
  188.4800  178.6340  137.2540 C   0  0  0  0  0  3  0  0  0  0  0  0
  189.2480  177.5320  139.0130 N   0  0  0  0  0  0  0  0  0  0  0  0
  186.8740  176.8570  136.5080 N   0  0  0  0  0  0  0  0  0  0  0  0
  189.3530  178.6870  138.3290 C   0  0  0  0  0  3  0  0  0  0  0  0
  188.3530  176.7380  138.4580 N   0  0  0  0  0  0  0  0  0  0  0  0
  186.4780  177.5770  135.3090 C   0  0  0  0  0  1  0  0  0  0  0  0
  187.8790  177.3910  137.3840 C   0  0  0  0  0  0  0  0  0  0  0  0
  184.7980  175.6330  136.8960 C   0  0  0  0  0  1  0  0  0  0  0  0
  186.3050  175.5370  136.7390 C   0  0  0  0  0  2  0  0  0  0  0  0
  1  7  1  0  0  0  0
  1  3  1  0  0  0  0
  2 14  1  0  0  0  0
  2  3  1  0  0  0  0
  3 13  1  1  0  0  0
  4  2  2  0  0  0  0
  5  4  1  0  0  0  0
  5  1  2  0  0  0  0
  6  9  1  0  0  0  0
  7  6  1  0  0  0  0
  8  7  2  0  0  0  0
  9 10  1  0  0  0  0
 12 13  2  0  0  0  0
 13 11  1  0  0  0  0
 14 15  1  0  0  0  0
 15 17  1  0  0  0  0
 16 15  2  0  0  0  0
 18  4  1  0  0  0  0
 19 25  1  0  0  0  0
 19 22  2  0  0  0  0
 20 18  1  0  0  0  0
 21 27  1  0  0  0  0
 21 25  1  0  0  0  0
 22 20  1  0  0  0  0
 23 20  1  0  0  0  0
 24 21  1  0  0  0  0
 25 23  2  0  0  0  0
 27 26  1  0  0  0  0
M  END
>  <MODEL>
5

>  <REMARK>
 VINA RESULT:      -7.0      2.957      6.479
  Name = 
  8 active torsions:
  status: ('A' for Active; 'I' for Inactive)
    1  A    between atoms: N_1  and  N_13
    2  A    between atoms: C_2  and  C_3
    3  A    between atoms: C_4  and  C_8
    4  A    between atoms: C_8  and  C_9
    5  A    between atoms: N_11  and  C_19
    6  A    between atoms: N_14  and  C_22
    7  A    between atoms: C_17  and  C_26
    8  A    between atoms: C_19  and  C_21
                            x       y       z     vdW  Elec       q    Type
                         _______ _______ _______ _____ _____    ______ ____

>  <TORSDO>
F 8

$$$$
=
 OpenBabel10222420213D

 27 28  0  0  1  0  0  0  0  0999 V2000
  189.1580  177.2870  144.5260 C   0  0  0  0  0  0  0  0  0  0  0  0
  189.4600  176.9380  142.2880 C   0  0  0  0  0  0  0  0  0  0  0  0
  189.8610  176.3380  143.5960 C   0  0  1  0  0  3  0  0  0  0  0  0
  188.7180  178.0130  142.5160 C   0  0  0  0  0  0  0  0  0  0  0  0
  188.5200  178.2250  143.9050 N   0  0  0  0  0  0  0  0  0  0  0  0
  187.9660  177.4980  146.7250 N   0  0  0  0  0  2  0  0  0  0  0  0
  189.1450  177.1630  145.9910 C   0  0  0  0  0  0  0  0  0  0  0  0
  190.1750  176.7660  146.5990 O   0  0  0  0  0  0  0  0  0  0  0  0
  187.9290  177.3860  148.1190 N   0  0  0  0  0  2  0  0  0  0  0  0
  188.3340  178.3260  148.8310 O   0  0  0  0  0  1  0  0  0  0  0  0
  191.9660  177.4880  143.7590 O   0  0  0  0  0  0  0  0  0  0  0  0
  192.0540  175.2100  143.9670 O   0  0  0  0  0  1  0  0  0  0  0  0
  191.3490  176.3900  143.7810 C   0  0  0  0  0  0  0  0  0  0  0  0
  189.7940  176.3770  140.9410 C   0  0  0  0  0  2  0  0  0  0  0  0
  190.6670  177.3130  140.1780 C   0  0  0  0  0  0  0  0  0  0  0  0
  191.8000  177.6230  140.6260 O   0  0  0  0  0  0  0  0  0  0  0  0
  190.2070  177.8780  138.9560 N   0  0  0  0  0  1  0  0  0  0  0  0
  188.0550  178.8460  141.4680 C   0  0  0  0  0  2  0  0  0  0  0  0
  184.5970  178.2540  142.3680 C   0  0  0  0  0  3  0  0  0  0  0  0
  186.6110  178.7340  141.5850 N   0  0  0  0  0  0  0  0  0  0  0  0
  183.3420  178.9430  140.3080 N   0  0  0  0  0  0  0  0  0  0  0  0
  185.9520  178.2530  142.6560 C   0  0  0  0  0  3  0  0  0  0  0  0
  185.7710  179.0370  140.6140 N   0  0  0  0  0  0  0  0  0  0  0  0
  182.0360  178.7080  140.9030 C   0  0  0  0  0  1  0  0  0  0  0  0
  184.5400  178.7550  141.0750 C   0  0  0  0  0  0  0  0  0  0  0  0
  182.2390  180.4290  138.7160 C   0  0  0  0  0  1  0  0  0  0  0  0
  183.3950  179.4750  138.9540 C   0  0  0  0  0  2  0  0  0  0  0  0
  1  7  1  0  0  0  0
  2  4  2  0  0  0  0
  2  3  1  0  0  0  0
  3 13  1  1  0  0  0
  3  1  1  0  0  0  0
  4  5  1  0  0  0  0
  5  1  2  0  0  0  0
  6  9  1  0  0  0  0
  7  8  2  0  0  0  0
  7  6  1  0  0  0  0
  9 10  1  0  0  0  0
 11 13  2  0  0  0  0
 13 12  1  0  0  0  0
 14  2  1  0  0  0  0
 15 16  2  0  0  0  0
 15 14  1  0  0  0  0
 17 15  1  0  0  0  0
 18 20  1  0  0  0  0
 18  4  1  0  0  0  0
 19 22  2  0  0  0  0
 20 22  1  0  0  0  0
 21 24  1  0  0  0  0
 21 25  1  0  0  0  0
 23 25  2  0  0  0  0
 23 20  1  0  0  0  0
 25 19  1  0  0  0  0
 26 27  1  0  0  0  0
 27 21  1  0  0  0  0
M  END
>  <MODEL>
6

>  <REMARK>
 VINA RESULT:      -6.7      3.088      6.402
  Name = 
  8 active torsions:
  status: ('A' for Active; 'I' for Inactive)
    1  A    between atoms: N_1  and  N_13
    2  A    between atoms: C_2  and  C_3
    3  A    between atoms: C_4  and  C_8
    4  A    between atoms: C_8  and  C_9
    5  A    between atoms: N_11  and  C_19
    6  A    between atoms: N_14  and  C_22
    7  A    between atoms: C_17  and  C_26
    8  A    between atoms: C_19  and  C_21
                            x       y       z     vdW  Elec       q    Type
                         _______ _______ _______ _____ _____    ______ ____

>  <TORSDO>
F 8

$$$$
=
 OpenBabel10222420213D

 27 28  0  0  1  0  0  0  0  0999 V2000
  186.9570  178.0510  143.1680 C   0  0  0  0  0  0  0  0  0  0  0  0
  188.8710  177.2140  142.2420 C   0  0  0  0  0  0  0  0  0  0  0  0
  188.0450  177.0600  143.4760 C   0  0  1  0  0  3  0  0  0  0  0  0
  188.3210  178.1380  141.4670 C   0  0  0  0  0  0  0  0  0  0  0  0
  187.1260  178.6510  142.0350 N   0  0  0  0  0  0  0  0  0  0  0  0
  185.9730  178.8210  145.3450 N   0  0  0  0  0  2  0  0  0  0  0  0
  185.7910  178.3040  144.0260 C   0  0  0  0  0  0  0  0  0  0  0  0
  184.6300  178.0610  143.5980 O   0  0  0  0  0  0  0  0  0  0  0  0
  184.8770  179.0720  146.1780 N   0  0  0  0  0  2  0  0  0  0  0  0
  184.5550  178.2420  147.0520 O   0  0  0  0  0  1  0  0  0  0  0  0
  188.7960  176.7480  145.7390 O   0  0  0  0  0  1  0  0  0  0  0  0
  189.5600  178.6310  144.6840 O   0  0  0  0  0  0  0  0  0  0  0  0
  188.8190  177.4580  144.6980 C   0  0  0  0  0  0  0  0  0  0  0  0
  190.0890  176.4080  141.9100 C   0  0  0  0  0  2  0  0  0  0  0  0
  191.3020  177.2730  141.8740 C   0  0  0  0  0  0  0  0  0  0  0  0
  191.7190  177.8170  142.9280 O   0  0  0  0  0  0  0  0  0  0  0  0
  191.9740  177.5060  140.6420 N   0  0  0  0  0  1  0  0  0  0  0  0
  188.8000  178.5250  140.1060 C   0  0  0  0  0  2  0  0  0  0  0  0
  187.0890  177.0370  137.2810 C   0  0  0  0  0  3  0  0  0  0  0  0
  187.8820  178.0270  139.0950 N   0  0  0  0  0  0  0  0  0  0  0  0
  184.7240  177.8260  137.5620 N   0  0  0  0  0  0  0  0  0  0  0  0
  188.2240  177.2580  138.0450 C   0  0  0  0  0  3  0  0  0  0  0  0
  186.5990  178.3300  139.0570 N   0  0  0  0  0  0  0  0  0  0  0  0
  184.2320  177.0740  136.4200 C   0  0  0  0  0  1  0  0  0  0  0  0
  186.1000  177.7320  137.9620 C   0  0  0  0  0  0  0  0  0  0  0  0
  182.9120  177.6530  139.1880 C   0  0  0  0  0  1  0  0  0  0  0  0
  183.7660  178.5870  138.3500 C   0  0  0  0  0  2  0  0  0  0  0  0
  1  3  1  0  0  0  0
  1  7  1  0  0  0  0
  2  3  1  0  0  0  0
  3 13  1  1  0  0  0
  4  5  1  0  0  0  0
  4  2  2  0  0  0  0
  5  1  2  0  0  0  0
  6  9  1  0  0  0  0
  7  6  1  0  0  0  0
  8  7  2  0  0  0  0
  9 10  1  0  0  0  0
 12 13  2  0  0  0  0
 13 11  1  0  0  0  0
 14  2  1  0  0  0  0
 15 14  1  0  0  0  0
 15 16  2  0  0  0  0
 17 15  1  0  0  0  0
 18  4  1  0  0  0  0
 19 25  1  0  0  0  0
 19 22  2  0  0  0  0
 20 18  1  0  0  0  0
 21 25  1  0  0  0  0
 21 27  1  0  0  0  0
 22 20  1  0  0  0  0
 23 20  1  0  0  0  0
 24 21  1  0  0  0  0
 25 23  2  0  0  0  0
 27 26  1  0  0  0  0
M  END
>  <MODEL>
7

>  <REMARK>
 VINA RESULT:      -6.7      3.067      6.374
  Name = 
  8 active torsions:
  status: ('A' for Active; 'I' for Inactive)
    1  A    between atoms: N_1  and  N_13
    2  A    between atoms: C_2  and  C_3
    3  A    between atoms: C_4  and  C_8
    4  A    between atoms: C_8  and  C_9
    5  A    between atoms: N_11  and  C_19
    6  A    between atoms: N_14  and  C_22
    7  A    between atoms: C_17  and  C_26
    8  A    between atoms: C_19  and  C_21
                            x       y       z     vdW  Elec       q    Type
                         _______ _______ _______ _____ _____    ______ ____

>  <TORSDO>
F 8

$$$$
=
 OpenBabel10222420213D

 27 28  0  0  1  0  0  0  0  0999 V2000
  185.5770  178.5760  141.6840 C   0  0  0  0  0  0  0  0  0  0  0  0
  186.7460  177.6630  143.4220 C   0  0  0  0  0  0  0  0  0  0  0  0
  185.3320  177.8930  143.0000 C   0  0  1  0  0  3  0  0  0  0  0  0
  187.5580  178.1680  142.5040 C   0  0  0  0  0  0  0  0  0  0  0  0
  186.8340  178.7250  141.4180 N   0  0  0  0  0  0  0  0  0  0  0  0
  183.1730  178.5800  140.9620 N   0  0  0  0  0  2  0  0  0  0  0  0
  184.5210  179.0040  140.7550 C   0  0  0  0  0  0  0  0  0  0  0  0
  184.8060  179.7430  139.7750 O   0  0  0  0  0  0  0  0  0  0  0  0
  182.1500  178.9770  140.0940 N   0  0  0  0  0  2  0  0  0  0  0  0
  181.0760  179.4120  140.5540 O   0  0  0  0  0  1  0  0  0  0  0  0
  184.9420  180.0110  144.0700 O   0  0  0  0  0  0  0  0  0  0  0  0
  183.6020  178.2850  144.7540 O   0  0  0  0  0  1  0  0  0  0  0  0
  184.6200  178.7970  143.9620 C   0  0  0  0  0  0  0  0  0  0  0  0
  187.1710  176.9270  144.6550 C   0  0  0  0  0  2  0  0  0  0  0  0
  187.5710  177.8790  145.7290 C   0  0  0  0  0  0  0  0  0  0  0  0
  188.7720  178.2350  145.8380 O   0  0  0  0  0  0  0  0  0  0  0  0
  186.6000  178.3630  146.6490 N   0  0  0  0  0  1  0  0  0  0  0  0
  189.0480  178.0690  142.5170 C   0  0  0  0  0  2  0  0  0  0  0  0
  190.8540  176.8140  139.6380 C   0  0  0  0  0  3  0  0  0  0  0  0
  189.5250  177.5810  141.2330 N   0  0  0  0  0  0  0  0  0  0  0  0
  189.1630  176.9610  137.7910 N   0  0  0  0  0  0  0  0  0  0  0  0
  190.7700  177.1360  140.9830 C   0  0  0  0  0  3  0  0  0  0  0  0
  188.7960  177.5800  140.1330 N   0  0  0  0  0  0  0  0  0  0  0  0
  190.0420  176.3570  136.8030 C   0  0  0  0  0  1  0  0  0  0  0  0
  189.5880  177.1120  139.1540 C   0  0  0  0  0  0  0  0  0  0  0  0
  187.7840  178.6870  136.7530 C   0  0  0  0  0  1  0  0  0  0  0  0
  187.8080  177.3080  137.3870 C   0  0  0  0  0  2  0  0  0  0  0  0
  1  3  1  0  0  0  0
  2 14  1  0  0  0  0
  3  2  1  0  0  0  0
  3 13  1  1  0  0  0
  4 18  1  0  0  0  0
  4  2  2  0  0  0  0
  5  1  2  0  0  0  0
  5  4  1  0  0  0  0
  7  6  1  0  0  0  0
  7  1  1  0  0  0  0
  8  7  2  0  0  0  0
  9 10  1  0  0  0  0
  9  6  1  0  0  0  0
 13 11  2  0  0  0  0
 13 12  1  0  0  0  0
 14 15  1  0  0  0  0
 15 16  2  0  0  0  0
 15 17  1  0  0  0  0
 19 22  2  0  0  0  0
 20 18  1  0  0  0  0
 21 25  1  0  0  0  0
 22 20  1  0  0  0  0
 23 20  1  0  0  0  0
 24 21  1  0  0  0  0
 25 19  1  0  0  0  0
 25 23  2  0  0  0  0
 26 27  1  0  0  0  0
 27 21  1  0  0  0  0
M  END
>  <MODEL>
8

>  <REMARK>
 VINA RESULT:      -6.6      2.754      6.302
  Name = 
  8 active torsions:
  status: ('A' for Active; 'I' for Inactive)
    1  A    between atoms: N_1  and  N_13
    2  A    between atoms: C_2  and  C_3
    3  A    between atoms: C_4  and  C_8
    4  A    between atoms: C_8  and  C_9
    5  A    between atoms: N_11  and  C_19
    6  A    between atoms: N_14  and  C_22
    7  A    between atoms: C_17  and  C_26
    8  A    between atoms: C_19  and  C_21
                            x       y       z     vdW  Elec       q    Type
                         _______ _______ _______ _____ _____    ______ ____

>  <TORSDO>
F 8

$$$$
=
 OpenBabel10222420213D

 27 28  0  0  1  0  0  0  0  0999 V2000
  188.7870  177.1250  141.9030 C   0  0  0  0  0  0  0  0  0  0  0  0
  190.4000  177.2820  140.2930 C   0  0  0  0  0  0  0  0  0  0  0  0
  190.1830  176.6440  141.6250 C   0  0  1  0  0  3  0  0  0  0  0  0
  189.3230  177.9860  139.9710 C   0  0  0  0  0  0  0  0  0  0  0  0
  188.3160  177.8810  140.9650 N   0  0  0  0  0  0  0  0  0  0  0  0
  187.3160  177.7720  143.8310 N   0  0  0  0  0  2  0  0  0  0  0  0
  187.9980  176.7610  143.0890 C   0  0  0  0  0  0  0  0  0  0  0  0
  187.9270  175.5560  143.4530 O   0  0  0  0  0  0  0  0  0  0  0  0
  186.5570  177.4490  144.9610 N   0  0  0  0  0  2  0  0  0  0  0  0
  187.0490  177.5750  146.1000 O   0  0  0  0  0  1  0  0  0  0  0  0
  191.8860  176.3820  143.3030 O   0  0  0  0  0  1  0  0  0  0  0  0
  191.2420  178.5350  142.8600 O   0  0  0  0  0  0  0  0  0  0  0  0
  191.1560  177.1670  142.6400 C   0  0  0  0  0  0  0  0  0  0  0  0
  191.6140  177.1020  139.4350 C   0  0  0  0  0  2  0  0  0  0  0  0
  191.3490  176.1300  138.3370 C   0  0  0  0  0  0  0  0  0  0  0  0
  190.6800  175.0910  138.5660 O   0  0  0  0  0  0  0  0  0  0  0  0
  191.8760  176.3640  137.0370 N   0  0  0  0  0  1  0  0  0  0  0  0
  189.1140  178.7060  138.6790 C   0  0  0  0  0  2  0  0  0  0  0  0
  186.8330  177.0160  136.4290 C   0  0  0  0  0  3  0  0  0  0  0  0
  188.0010  178.1140  137.9550 N   0  0  0  0  0  0  0  0  0  0  0  0
  184.5740  177.6480  137.3200 N   0  0  0  0  0  0  0  0  0  0  0  0
  188.1090  177.3390  136.8610 C   0  0  0  0  0  3  0  0  0  0  0  0
  186.7340  178.3270  138.2560 N   0  0  0  0  0  0  0  0  0  0  0  0
  183.8550  176.8290  136.3580 C   0  0  0  0  0  1  0  0  0  0  0  0
  186.0100  177.6630  137.3410 C   0  0  0  0  0  0  0  0  0  0  0  0
  183.3040  177.4060  139.3900 C   0  0  0  0  0  1  0  0  0  0  0  0
  183.8040  178.3660  138.3260 C   0  0  0  0  0  2  0  0  0  0  0  0
  1  7  1  0  0  0  0
  2  3  1  0  0  0  0
  3  1  1  0  0  0  0
  3 13  1  1  0  0  0
  4  2  2  0  0  0  0
  4  5  1  0  0  0  0
  5  1  2  0  0  0  0
  6  9  1  0  0  0  0
  7  8  2  0  0  0  0
  7  6  1  0  0  0  0
  9 10  1  0  0  0  0
 13 12  2  0  0  0  0
 13 11  1  0  0  0  0
 14  2  1  0  0  0  0
 15 16  2  0  0  0  0
 15 14  1  0  0  0  0
 17 15  1  0  0  0  0
 18  4  1  0  0  0  0
 19 22  2  0  0  0  0
 19 25  1  0  0  0  0
 20 23  1  0  0  0  0
 20 18  1  0  0  0  0
 21 25  1  0  0  0  0
 21 27  1  0  0  0  0
 22 20  1  0  0  0  0
 24 21  1  0  0  0  0
 25 23  2  0  0  0  0
 27 26  1  0  0  0  0
M  END
>  <MODEL>
9

>  <REMARK>
 VINA RESULT:      -6.6      3.119      6.343
  Name = 
  8 active torsions:
  status: ('A' for Active; 'I' for Inactive)
    1  A    between atoms: N_1  and  N_13
    2  A    between atoms: C_2  and  C_3
    3  A    between atoms: C_4  and  C_8
    4  A    between atoms: C_8  and  C_9
    5  A    between atoms: N_11  and  C_19
    6  A    between atoms: N_14  and  C_22
    7  A    between atoms: C_17  and  C_26
    8  A    between atoms: C_19  and  C_21
                            x       y       z     vdW  Elec       q    Type
                         _______ _______ _______ _____ _____    ______ ____

>  <TORSDO>
F 8

$$$$
