=
 OpenBabel10222418563D

 43 46  0  0  1  0  0  0  0  0999 V2000
  185.6590  178.2890  138.0660 C   0  0  0  0  0  2  0  0  0  0  0  0
  184.1120  178.5650  139.9990 C   0  0  0  0  0  0  0  0  0  0  0  0
  184.6990  179.0690  141.0860 C   0  0  0  0  0  3  0  0  0  0  0  0
  183.2270  177.8030  138.0170 C   0  0  2  0  0  3  0  0  0  0  0  0
  182.7660  177.3700  139.6730 S   0  0  0  0  0  0  0  0  0  0  0  0
  184.2740  178.7530  138.4990 C   0  0  2  0  0  3  0  0  0  0  0  0
  184.3190  179.3370  144.8100 C   0  0  1  0  0  3  0  0  0  0  0  0
  182.8660  179.1090  144.4080 C   0  0  0  0  0  3  0  0  0  0  0  0
  186.4150  178.2240  143.7200 C   0  0  0  0  0  2  0  0  0  0  0  0
  182.8420  178.7860  142.9200 C   0  0  0  0  0  3  0  0  0  0  0  0
  184.2840  178.6570  142.4630 C   0  0  2  0  0  0  0  0  0  0  0  0
  184.6730  178.4990  146.0340 C   0  0  0  0  0  1  0  0  0  0  0  0
  185.1940  179.1130  143.5660 C   0  0  2  0  0  0  0  0  0  0  0  0
  185.1420  177.6270  143.1600 C   0  0  2  0  0  3  0  0  0  0  0  0
  181.2440  179.1680  136.8580 C   0  0  0  0  0  0  0  0  0  0  0  0
  182.1370  178.5510  137.3820 C   0  0  0  0  0  0  0  0  0  0  0  0
  179.9160  179.3920  134.9550 O   0  0  0  0  0  1  0  0  0  0  0  0
  180.1630  179.9200  136.2210 C   0  0  2  0  0  3  0  0  0  0  0  0
  180.5630  181.3820  136.1040 C   0  0  0  0  0  2  0  0  0  0  0  0
  180.7480  182.0110  137.4770 C   0  0  0  0  0  2  0  0  0  0  0  0
  180.9660  183.5070  137.3460 C   0  0  0  0  0  2  0  0  0  0  0  0
  180.9470  183.8950  135.8840 C   0  0  0  0  0  1  0  0  0  0  0  0
  185.8290  176.0330  137.2980 O   0  0  0  0  0  1  0  0  0  0  0  0
  185.5710  177.3410  136.8820 C   0  0  2  0  0  3  0  0  0  0  0  0
  186.5930  177.7560  135.8360 C   0  0  0  0  0  2  0  0  0  0  0  0
  187.8780  176.9500  135.9780 C   0  0  1  0  0  3  0  0  0  0  0  0
  188.1030  176.1800  134.8360 O   0  0  0  0  0  1  0  0  0  0  0  0
  189.0750  177.8560  136.2650 C   0  0  0  0  0  2  0  0  0  0  0  0
  189.3370  178.0270  137.7320 C   0  0  0  0  0  0  0  0  0  0  0  0
  189.0830  179.1360  138.2730 O   0  0  0  0  0  0  0  0  0  0  0  0
  189.9080  176.9220  138.5240 C   0  0  0  0  0  0  0  0  0  0  0  0
  190.8580  175.7980  137.7920 S   0  0  0  0  0  0  0  0  0  0  0  0
  189.7780  176.9530  139.9530 N   0  0  0  0  0  2  0  0  0  0  0  0
  192.3550  177.4710  140.4580 S   0  0  0  0  0  0  0  0  0  0  0  0
  190.7750  177.3510  140.9020 C   0  0  0  0  0  0  0  0  0  0  0  0
  189.6510  178.3830  142.7570 O   0  0  0  0  0  1  0  0  0  0  0  0
  190.4140  177.2820  142.3580 C   0  0  2  0  0  3  0  0  0  0  0  0
  191.7610  175.7490  143.6040 O   0  0  0  0  0  1  0  0  0  0  0  0
  191.6410  177.0920  143.2500 C   0  0  2  0  0  3  0  0  0  0  0  0
  191.5820  177.9580  144.5050 C   0  0  0  0  0  2  0  0  0  0  0  0
  189.9520  176.9390  145.9120 O   0  0  0  0  0  0  0  0  0  0  0  0
  191.1720  177.1400  145.6800 C   0  0  0  0  0  0  0  0  0  0  0  0
  192.1370  176.5750  146.5030 O   0  0  0  0  0  1  0  0  0  0  0  0
  2  3  2  0  0  0  0
  4 16  1  1  0  0  0
  4  6  1  0  0  0  0
  4  5  1  0  0  0  0
  5  2  1  0  0  0  0
  6  1  1  6  0  0  0
  6  2  1  0  0  0  0
  7 12  1  1  0  0  0
  8  7  1  0  0  0  0
 10  8  2  0  0  0  0
 11  3  1  6  0  0  0
 11 10  1  0  0  0  0
 11 14  1  0  0  0  0
 11 13  1  0  0  0  0
 13  9  1  6  0  0  0
 13  7  1  0  0  0  0
 14 13  1  0  0  0  0
 14  9  1  6  0  0  0
 15 16  3  0  0  0  0
 18 17  1  6  0  0  0
 18 15  1  0  0  0  0
 19 18  1  0  0  0  0
 19 20  1  0  0  0  0
 21 20  1  0  0  0  0
 22 21  1  0  0  0  0
 24 23  1  1  0  0  0
 24  1  1  0  0  0  0
 25 26  1  0  0  0  0
 25 24  1  0  0  0  0
 26 27  1  6  0  0  0
 26 28  1  0  0  0  0
 28 29  1  0  0  0  0
 29 30  2  0  0  0  0
 29 31  1  0  0  0  0
 31 33  1  0  0  0  0
 32 31  2  0  0  0  0
 33 35  1  0  0  0  0
 34 35  2  0  0  0  0
 35 37  1  0  0  0  0
 37 36  1  1  0  0  0
 37 39  1  0  0  0  0
 39 38  1  1  0  0  0
 39 40  1  0  0  0  0
 40 42  1  0  0  0  0
 42 41  2  0  0  0  0
 42 43  1  0  0  0  0
M  END
>  <MODEL>
1

>  <REMARK>
 VINA RESULT:      -7.1      0.000      0.000
  Name = 
  19 active torsions:
  status: ('A' for Active; 'I' for Inactive)
    1  A    between atoms: N_1  and  C_3
    2  A    between atoms: N_1  and  C_39
    3  A    between atoms: C_3  and  C_22
    4  A    between atoms: C_6  and  C_35
    5  A    between atoms: C_6  and  C_37
    6  A    between atoms: C_7  and  C_30
    7  A    between atoms: C_8  and  C_26
    8  A    between atoms: C_10  and  C_32
    9  A    between atoms: C_13  and  C_16
   10  A    between atoms: C_13  and  C_22
   11  A    between atoms: C_15  and  C_36
   12  A    between atoms: C_16  and  C_17
   13  A    between atoms: C_17  and  C_37
   14  A    between atoms: C_18  and  C_19
   15  A    between atoms: C_19  and  C_43
   16  A    between atoms: C_20  and  C_26
   17  A    between atoms: C_20  and  C_30
   18  A    between atoms: C_39  and  C_40
   19  A    between atoms: C_40  and  C_43
                            x       y       z     vdW  Elec       q    Type
                         _______ _______ _______ _____ _____    ______ ____

>  <TORSDO>
F 19

$$$$
=
 OpenBabel10222418563D

 43 46  0  0  1  0  0  0  0  0999 V2000
  188.7280  178.3180  139.3890 C   0  0  0  0  0  2  0  0  0  0  0  0
  189.2240  176.5540  137.7000 C   0  0  0  0  0  0  0  0  0  0  0  0
  190.1540  175.6830  138.0950 C   0  0  0  0  0  3  0  0  0  0  0  0
  187.5660  178.0710  137.2110 C   0  0  2  0  0  3  0  0  0  0  0  0
  188.7190  177.2990  136.1080 S   0  0  0  0  0  0  0  0  0  0  0  0
  188.1210  177.3410  138.3890 C   0  0  2  0  0  3  0  0  0  0  0  0
  193.1480  173.7240  136.9620 C   0  0  1  0  0  3  0  0  0  0  0  0
  192.0530  173.0200  136.1690 C   0  0  0  0  0  3  0  0  0  0  0  0
  193.2900  176.2830  137.4620 C   0  0  0  0  0  2  0  0  0  0  0  0
  190.7640  173.8100  136.3590 C   0  0  0  0  0  3  0  0  0  0  0  0
  191.1170  175.0710  137.1260 C   0  0  2  0  0  0  0  0  0  0  0  0
  194.3750  173.9600  136.0860 C   0  0  0  0  0  1  0  0  0  0  0  0
  192.5340  174.9760  137.6100 C   0  0  2  0  0  0  0  0  0  0  0  0
  192.1500  175.9880  136.5130 C   0  0  2  0  0  3  0  0  0  0  0  0
  185.1000  177.1890  136.6840 C   0  0  0  0  0  0  0  0  0  0  0  0
  186.2120  177.5890  136.9230 C   0  0  0  0  0  0  0  0  0  0  0  0
  182.8740  177.1470  137.3760 O   0  0  0  0  0  1  0  0  0  0  0  0
  183.7530  176.7010  136.3890 C   0  0  2  0  0  3  0  0  0  0  0  0
  183.7610  175.1810  136.3500 C   0  0  0  0  0  2  0  0  0  0  0  0
  184.1740  174.6000  137.6930 C   0  0  0  0  0  2  0  0  0  0  0  0
  184.6920  173.1840  137.5190 C   0  0  0  0  0  2  0  0  0  0  0  0
  186.2020  173.2070  137.4240 C   0  0  0  0  0  1  0  0  0  0  0  0
  187.2080  178.3170  141.2320 O   0  0  0  0  0  1  0  0  0  0  0  0
  188.4640  177.8700  140.8160 C   0  0  2  0  0  3  0  0  0  0  0  0
  189.5380  178.4460  141.7250 C   0  0  0  0  0  2  0  0  0  0  0  0
  190.6390  177.4260  141.9860 C   0  0  1  0  0  3  0  0  0  0  0  0
  191.4780  177.3160  140.8760 O   0  0  0  0  0  1  0  0  0  0  0  0
  191.4400  177.7780  143.2380 C   0  0  0  0  0  2  0  0  0  0  0  0
  191.4100  176.6930  144.2720 C   0  0  0  0  0  0  0  0  0  0  0  0
  191.8050  175.5380  143.9580 O   0  0  0  0  0  0  0  0  0  0  0  0
  190.9030  176.9650  145.6300 C   0  0  0  0  0  0  0  0  0  0  0  0
  191.6690  176.3200  146.9330 S   0  0  0  0  0  0  0  0  0  0  0  0
  189.8640  177.9410  145.7990 N   0  0  0  0  0  2  0  0  0  0  0  0
  188.5430  177.6880  148.1140 S   0  0  0  0  0  0  0  0  0  0  0  0
  188.6110  177.7600  146.4710 C   0  0  0  0  0  0  0  0  0  0  0  0
  187.8600  176.8020  144.4000 O   0  0  0  0  0  1  0  0  0  0  0  0
  187.4520  177.2640  145.6550 C   0  0  2  0  0  3  0  0  0  0  0  0
  185.5380  178.2640  146.6810 O   0  0  0  0  0  1  0  0  0  0  0  0
  186.3380  178.3050  145.5390 C   0  0  2  0  0  3  0  0  0  0  0  0
  185.4810  178.0970  144.2950 C   0  0  0  0  0  2  0  0  0  0  0  0
  184.5640  180.2840  144.0660 O   0  0  0  0  0  0  0  0  0  0  0  0
  184.3470  179.0630  144.2790 C   0  0  0  0  0  0  0  0  0  0  0  0
  183.0490  178.6120  144.4690 O   0  0  0  0  0  1  0  0  0  0  0  0
  1 24  1  0  0  0  0
  2  3  2  0  0  0  0
  2  6  1  0  0  0  0
  4 16  1  6  0  0  0
  4  6  1  0  0  0  0
  5  4  1  0  0  0  0
  5  2  1  0  0  0  0
  6  1  1  1  0  0  0
  7 12  1  6  0  0  0
  7 13  1  0  0  0  0
  8 10  2  0  0  0  0
  8  7  1  0  0  0  0
 10 11  1  0  0  0  0
 11 13  1  0  0  0  0
 11  3  1  1  0  0  0
 13  9  1  1  0  0  0
 14 11  1  0  0  0  0
 14  9  1  1  0  0  0
 14 13  1  0  0  0  0
 15 16  3  0  0  0  0
 18 15  1  0  0  0  0
 18 17  1  1  0  0  0
 19 18  1  0  0  0  0
 19 20  1  0  0  0  0
 21 20  1  0  0  0  0
 22 21  1  0  0  0  0
 24 23  1  1  0  0  0
 24 25  1  0  0  0  0
 25 26  1  0  0  0  0
 26 27  1  6  0  0  0
 26 28  1  0  0  0  0
 28 29  1  0  0  0  0
 29 31  1  0  0  0  0
 30 29  2  0  0  0  0
 31 33  1  0  0  0  0
 31 32  2  0  0  0  0
 33 35  1  0  0  0  0
 35 34  2  0  0  0  0
 37 36  1  6  0  0  0
 37 35  1  0  0  0  0
 39 37  1  0  0  0  0
 39 38  1  1  0  0  0
 40 39  1  0  0  0  0
 41 42  2  0  0  0  0
 42 40  1  0  0  0  0
 42 43  1  0  0  0  0
M  END
>  <MODEL>
2

>  <REMARK>
 VINA RESULT:      -6.9      3.521      7.905
  Name = 
  19 active torsions:
  status: ('A' for Active; 'I' for Inactive)
    1  A    between atoms: N_1  and  C_3
    2  A    between atoms: N_1  and  C_39
    3  A    between atoms: C_3  and  C_22
    4  A    between atoms: C_6  and  C_35
    5  A    between atoms: C_6  and  C_37
    6  A    between atoms: C_7  and  C_30
    7  A    between atoms: C_8  and  C_26
    8  A    between atoms: C_10  and  C_32
    9  A    between atoms: C_13  and  C_16
   10  A    between atoms: C_13  and  C_22
   11  A    between atoms: C_15  and  C_36
   12  A    between atoms: C_16  and  C_17
   13  A    between atoms: C_17  and  C_37
   14  A    between atoms: C_18  and  C_19
   15  A    between atoms: C_19  and  C_43
   16  A    between atoms: C_20  and  C_26
   17  A    between atoms: C_20  and  C_30
   18  A    between atoms: C_39  and  C_40
   19  A    between atoms: C_40  and  C_43
                            x       y       z     vdW  Elec       q    Type
                         _______ _______ _______ _____ _____    ______ ____

>  <TORSDO>
F 19

$$$$
=
 OpenBabel10222418563D

 43 46  0  0  1  0  0  0  0  0999 V2000
  188.9910  178.6410  139.1570 C   0  0  0  0  0  2  0  0  0  0  0  0
  189.2650  176.6180  137.7280 C   0  0  0  0  0  0  0  0  0  0  0  0
  190.3190  175.8690  138.0600 C   0  0  0  0  0  3  0  0  0  0  0  0
  187.4350  177.9580  137.3500 C   0  0  2  0  0  3  0  0  0  0  0  0
  188.3960  177.0410  136.1760 S   0  0  0  0  0  0  0  0  0  0  0  0
  188.2680  177.4760  138.4900 C   0  0  2  0  0  3  0  0  0  0  0  0
  193.0070  173.6210  136.7160 C   0  0  1  0  0  3  0  0  0  0  0  0
  191.7750  172.9550  136.1130 C   0  0  0  0  0  3  0  0  0  0  0  0
  193.3840  176.1880  137.0130 C   0  0  0  0  0  2  0  0  0  0  0  0
  190.5770  173.8510  136.4000 C   0  0  0  0  0  3  0  0  0  0  0  0
  191.1090  175.1270  137.0270 C   0  0  2  0  0  0  0  0  0  0  0  0
  194.1270  173.7080  135.6840 C   0  0  0  0  0  1  0  0  0  0  0  0
  192.5650  174.9530  137.3430 C   0  0  2  0  0  0  0  0  0  0  0  0
  192.1160  175.9220  136.2310 C   0  0  2  0  0  3  0  0  0  0  0  0
  184.9830  176.9080  137.5140 C   0  0  0  0  0  0  0  0  0  0  0  0
  186.0900  177.3810  137.4420 C   0  0  0  0  0  0  0  0  0  0  0  0
  183.0050  176.8130  138.7450 O   0  0  0  0  0  1  0  0  0  0  0  0
  183.6390  176.3370  137.5980 C   0  0  2  0  0  3  0  0  0  0  0  0
  183.7340  174.8210  137.6480 C   0  0  0  0  0  2  0  0  0  0  0  0
  184.4540  174.2760  136.4240 C   0  0  0  0  0  2  0  0  0  0  0  0
  185.3530  173.1180  136.8140 C   0  0  0  0  0  2  0  0  0  0  0  0
  186.7000  173.6500  137.2540 C   0  0  0  0  0  1  0  0  0  0  0  0
  189.9560  177.8970  141.2120 O   0  0  0  0  0  1  0  0  0  0  0  0
  188.8590  178.5700  140.6690 C   0  0  2  0  0  3  0  0  0  0  0  0
  187.5800  177.8290  141.0220 C   0  0  0  0  0  2  0  0  0  0  0  0
  186.6400  178.7160  141.8280 C   0  0  1  0  0  3  0  0  0  0  0  0
  185.7790  179.4180  140.9810 O   0  0  0  0  0  1  0  0  0  0  0  0
  185.8490  177.9040  142.8530 C   0  0  0  0  0  2  0  0  0  0  0  0
  185.5530  178.6750  144.1050 C   0  0  0  0  0  0  0  0  0  0  0  0
  184.9120  179.7570  144.0190 O   0  0  0  0  0  0  0  0  0  0  0  0
  186.0290  178.1890  145.4130 C   0  0  0  0  0  0  0  0  0  0  0  0
  185.1280  178.4600  146.7610 S   0  0  0  0  0  0  0  0  0  0  0  0
  187.1740  177.3260  145.4580 N   0  0  0  0  0  2  0  0  0  0  0  0
  188.1780  177.4580  147.9360 S   0  0  0  0  0  0  0  0  0  0  0  0
  188.3280  177.4660  146.2970 C   0  0  0  0  0  0  0  0  0  0  0  0
  189.3500  178.4970  144.3840 O   0  0  0  0  0  1  0  0  0  0  0  0
  189.5850  177.9910  145.6670 C   0  0  2  0  0  3  0  0  0  0  0  0
  191.5940  177.2260  146.7140 O   0  0  0  0  0  1  0  0  0  0  0  0
  190.7100  176.9560  145.6690 C   0  0  2  0  0  3  0  0  0  0  0  0
  191.4660  176.9230  144.3440 C   0  0  0  0  0  2  0  0  0  0  0  0
  192.2990  174.6970  144.1810 O   0  0  0  0  0  1  0  0  0  0  0  0
  191.4600  175.5450  143.7790 C   0  0  0  0  0  0  0  0  0  0  0  0
  190.5120  175.1870  142.8310 O   0  0  0  0  0  0  0  0  0  0  0  0
  1 24  1  0  0  0  0
  2  3  2  0  0  0  0
  2  6  1  0  0  0  0
  4 16  1  1  0  0  0
  4  6  1  0  0  0  0
  5  4  1  0  0  0  0
  5  2  1  0  0  0  0
  6  1  1  6  0  0  0
  7 12  1  6  0  0  0
  7 13  1  0  0  0  0
  8 10  2  0  0  0  0
  8  7  1  0  0  0  0
 10 11  1  0  0  0  0
 11 13  1  0  0  0  0
 11  3  1  1  0  0  0
 13  9  1  1  0  0  0
 14  9  1  1  0  0  0
 14 11  1  0  0  0  0
 14 13  1  0  0  0  0
 15 18  1  0  0  0  0
 16 15  3  0  0  0  0
 18 19  1  0  0  0  0
 18 17  1  1  0  0  0
 20 21  1  0  0  0  0
 20 19  1  0  0  0  0
 21 22  1  0  0  0  0
 24 25  1  0  0  0  0
 24 23  1  1  0  0  0
 25 26  1  0  0  0  0
 26 27  1  6  0  0  0
 26 28  1  0  0  0  0
 28 29  1  0  0  0  0
 29 31  1  0  0  0  0
 30 29  2  0  0  0  0
 31 33  1  0  0  0  0
 31 32  2  0  0  0  0
 33 35  1  0  0  0  0
 35 34  2  0  0  0  0
 37 36  1  6  0  0  0
 37 39  1  0  0  0  0
 37 35  1  0  0  0  0
 39 38  1  1  0  0  0
 40 39  1  0  0  0  0
 42 41  1  0  0  0  0
 42 40  1  0  0  0  0
 43 42  2  0  0  0  0
M  END
>  <MODEL>
3

>  <REMARK>
 VINA RESULT:      -6.9      3.596      7.652
  Name = 
  19 active torsions:
  status: ('A' for Active; 'I' for Inactive)
    1  A    between atoms: N_1  and  C_3
    2  A    between atoms: N_1  and  C_39
    3  A    between atoms: C_3  and  C_22
    4  A    between atoms: C_6  and  C_35
    5  A    between atoms: C_6  and  C_37
    6  A    between atoms: C_7  and  C_30
    7  A    between atoms: C_8  and  C_26
    8  A    between atoms: C_10  and  C_32
    9  A    between atoms: C_13  and  C_16
   10  A    between atoms: C_13  and  C_22
   11  A    between atoms: C_15  and  C_36
   12  A    between atoms: C_16  and  C_17
   13  A    between atoms: C_17  and  C_37
   14  A    between atoms: C_18  and  C_19
   15  A    between atoms: C_19  and  C_43
   16  A    between atoms: C_20  and  C_26
   17  A    between atoms: C_20  and  C_30
   18  A    between atoms: C_39  and  C_40
   19  A    between atoms: C_40  and  C_43
                            x       y       z     vdW  Elec       q    Type
                         _______ _______ _______ _____ _____    ______ ____

>  <TORSDO>
F 19

$$$$
=
 OpenBabel10222418563D

 43 46  0  0  1  0  0  0  0  0999 V2000
  188.6340  177.4670  139.7700 C   0  0  0  0  0  2  0  0  0  0  0  0
  190.2330  176.9380  141.6060 C   0  0  0  0  0  0  0  0  0  0  0  0
  189.6380  176.6100  142.7540 C   0  0  0  0  0  3  0  0  0  0  0  0
  191.1030  177.4230  139.5330 C   0  0  2  0  0  3  0  0  0  0  0  0
  191.7700  177.8080  141.1290 S   0  0  0  0  0  0  0  0  0  0  0  0
  189.9210  176.7360  140.1320 C   0  0  2  0  0  3  0  0  0  0  0  0
  190.2030  176.4340  146.4600 C   0  0  1  0  0  3  0  0  0  0  0  0
  191.6370  176.2840  145.9640 C   0  0  0  0  0  3  0  0  0  0  0  0
  188.3620  177.9680  145.4230 C   0  0  0  0  0  2  0  0  0  0  0  0
  191.6330  176.5220  144.4590 C   0  0  0  0  0  3  0  0  0  0  0  0
  190.2350  176.9740  144.0780 C   0  0  2  0  0  0  0  0  0  0  0  0
  190.1450  177.3890  147.6480 C   0  0  0  0  0  1  0  0  0  0  0  0
  189.3220  176.8040  145.2560 C   0  0  2  0  0  0  0  0  0  0  0  0
  189.6980  178.2120  144.7560 C   0  0  2  0  0  3  0  0  0  0  0  0
  192.6640  175.6270  138.3180 C   0  0  0  0  0  0  0  0  0  0  0  0
  191.9610  176.4400  138.8650 C   0  0  0  0  0  0  0  0  0  0  0  0
  194.8360  175.0890  137.6610 O   0  0  0  0  0  1  0  0  0  0  0  0
  193.5160  174.6380  137.6580 C   0  0  2  0  0  3  0  0  0  0  0  0
  193.0410  174.4320  136.2280 C   0  0  0  0  0  2  0  0  0  0  0  0
  192.2410  173.1460  136.0960 C   0  0  0  0  0  2  0  0  0  0  0  0
  190.8180  173.4500  135.6670 C   0  0  0  0  0  2  0  0  0  0  0  0
  189.9260  173.5190  136.8870 C   0  0  0  0  0  1  0  0  0  0  0  0
  187.6200  178.6890  137.9850 O   0  0  0  0  0  1  0  0  0  0  0  0
  188.5230  177.6610  138.2670 C   0  0  2  0  0  3  0  0  0  0  0  0
  188.0390  176.3680  137.6330 C   0  0  0  0  0  2  0  0  0  0  0  0
  187.3600  176.6360  136.2960 C   0  0  1  0  0  3  0  0  0  0  0  0
  188.3080  176.7440  135.2770 O   0  0  0  0  0  1  0  0  0  0  0  0
  186.3310  175.5540  135.9660 C   0  0  0  0  0  2  0  0  0  0  0  0
  185.1360  175.5930  136.8700 C   0  0  0  0  0  0  0  0  0  0  0  0
  184.8490  174.5700  137.5480 O   0  0  0  0  0  0  0  0  0  0  0  0
  184.2920  176.8000  136.9440 C   0  0  0  0  0  0  0  0  0  0  0  0
  183.1820  177.0950  135.7690 S   0  0  0  0  0  0  0  0  0  0  0  0
  184.3250  177.5980  138.1370 N   0  0  0  0  0  2  0  0  0  0  0  0
  182.4380  176.2230  139.4470 S   0  0  0  0  0  0  0  0  0  0  0  0
  183.4240  177.5260  139.2490 C   0  0  0  0  0  0  0  0  0  0  0  0
  182.8730  179.8600  139.1130 O   0  0  0  0  0  1  0  0  0  0  0  0
  183.1310  178.8000  139.9880 C   0  0  2  0  0  3  0  0  0  0  0  0
  185.4180  179.4170  140.3140 O   0  0  0  0  0  1  0  0  0  0  0  0
  184.2290  179.1510  140.9930 C   0  0  2  0  0  3  0  0  0  0  0  0
  184.4500  178.0430  142.0170 C   0  0  0  0  0  2  0  0  0  0  0  0
  184.9240  178.3600  144.3300 O   0  0  0  0  0  1  0  0  0  0  0  0
  184.1100  178.5260  143.3850 C   0  0  0  0  0  0  0  0  0  0  0  0
  182.9100  179.1840  143.6100 O   0  0  0  0  0  0  0  0  0  0  0  0
  2  3  2  0  0  0  0
  4 16  1  6  0  0  0
  4  6  1  0  0  0  0
  4  5  1  0  0  0  0
  5  2  1  0  0  0  0
  6  1  1  6  0  0  0
  6  2  1  0  0  0  0
  7 12  1  1  0  0  0
  8  7  1  0  0  0  0
 10  8  2  0  0  0  0
 11  3  1  6  0  0  0
 11 10  1  0  0  0  0
 11 14  1  0  0  0  0
 11 13  1  0  0  0  0
 13  9  1  6  0  0  0
 13  7  1  0  0  0  0
 14 13  1  0  0  0  0
 14  9  1  6  0  0  0
 15 16  3  0  0  0  0
 18 17  1  6  0  0  0
 18 15  1  0  0  0  0
 19 18  1  0  0  0  0
 20 19  1  0  0  0  0
 21 20  1  0  0  0  0
 21 22  1  0  0  0  0
 24 23  1  1  0  0  0
 24  1  1  0  0  0  0
 25 24  1  0  0  0  0
 26 27  1  6  0  0  0
 26 25  1  0  0  0  0
 28 26  1  0  0  0  0
 28 29  1  0  0  0  0
 29 31  1  0  0  0  0
 29 30  2  0  0  0  0
 31 33  1  0  0  0  0
 32 31  2  0  0  0  0
 33 35  1  0  0  0  0
 35 34  2  0  0  0  0
 35 37  1  0  0  0  0
 37 36  1  6  0  0  0
 37 39  1  0  0  0  0
 39 38  1  6  0  0  0
 39 40  1  0  0  0  0
 40 42  1  0  0  0  0
 42 43  2  0  0  0  0
 42 41  1  0  0  0  0
M  END
>  <MODEL>
4

>  <REMARK>
 VINA RESULT:      -6.7      3.321      8.389
  Name = 
  19 active torsions:
  status: ('A' for Active; 'I' for Inactive)
    1  A    between atoms: N_1  and  C_3
    2  A    between atoms: N_1  and  C_39
    3  A    between atoms: C_3  and  C_22
    4  A    between atoms: C_6  and  C_35
    5  A    between atoms: C_6  and  C_37
    6  A    between atoms: C_7  and  C_30
    7  A    between atoms: C_8  and  C_26
    8  A    between atoms: C_10  and  C_32
    9  A    between atoms: C_13  and  C_16
   10  A    between atoms: C_13  and  C_22
   11  A    between atoms: C_15  and  C_36
   12  A    between atoms: C_16  and  C_17
   13  A    between atoms: C_17  and  C_37
   14  A    between atoms: C_18  and  C_19
   15  A    between atoms: C_19  and  C_43
   16  A    between atoms: C_20  and  C_26
   17  A    between atoms: C_20  and  C_30
   18  A    between atoms: C_39  and  C_40
   19  A    between atoms: C_40  and  C_43
                            x       y       z     vdW  Elec       q    Type
                         _______ _______ _______ _____ _____    ______ ____

>  <TORSDO>
F 19

$$$$
=
 OpenBabel10222418563D

 43 46  0  0  1  0  0  0  0  0999 V2000
  188.7720  177.4370  139.7430 C   0  0  0  0  0  2  0  0  0  0  0  0
  190.3540  176.9110  141.5940 C   0  0  0  0  0  0  0  0  0  0  0  0
  189.7490  176.5620  142.7310 C   0  0  0  0  0  3  0  0  0  0  0  0
  191.2440  177.4300  139.5380 C   0  0  2  0  0  3  0  0  0  0  0  0
  191.8850  177.8070  141.1470 S   0  0  0  0  0  0  0  0  0  0  0  0
  190.0640  176.7200  140.1140 C   0  0  2  0  0  3  0  0  0  0  0  0
  190.2140  176.4050  146.4520 C   0  0  1  0  0  3  0  0  0  0  0  0
  191.6540  176.2060  145.9930 C   0  0  0  0  0  3  0  0  0  0  0  0
  188.4500  177.9860  145.3540 C   0  0  0  0  0  2  0  0  0  0  0  0
  191.6960  176.4290  144.4870 C   0  0  0  0  0  3  0  0  0  0  0  0
  190.3230  176.9200  144.0660 C   0  0  2  0  0  0  0  0  0  0  0  0
  190.1570  177.3730  147.6290 C   0  0  0  0  0  1  0  0  0  0  0  0
  189.3760  176.7910  145.2220 C   0  0  2  0  0  0  0  0  0  0  0  0
  189.8090  178.1820  144.7190 C   0  0  2  0  0  3  0  0  0  0  0  0
  192.8460  175.6690  138.3250 C   0  0  0  0  0  0  0  0  0  0  0  0
  192.1240  176.4660  138.8710 C   0  0  0  0  0  0  0  0  0  0  0  0
  195.0480  175.0950  137.8180 O   0  0  0  0  0  1  0  0  0  0  0  0
  193.7200  174.6990  137.6660 C   0  0  2  0  0  3  0  0  0  0  0  0
  193.3680  174.6200  136.1890 C   0  0  0  0  0  2  0  0  0  0  0  0
  193.0220  173.1960  135.7830 C   0  0  0  0  0  2  0  0  0  0  0  0
  194.2440  172.3040  135.8930 C   0  0  0  0  0  2  0  0  0  0  0  0
  193.8290  170.9330  136.3800 C   0  0  0  0  0  1  0  0  0  0  0  0
  188.5550  179.0530  137.9970 O   0  0  0  0  0  1  0  0  0  0  0  0
  188.6980  177.6860  138.2460 C   0  0  2  0  0  3  0  0  0  0  0  0
  187.5070  176.9350  137.6750 C   0  0  0  0  0  2  0  0  0  0  0  0
  186.5350  177.8890  136.9930 C   0  0  1  0  0  3  0  0  0  0  0  0
  186.7330  177.8880  135.6110 O   0  0  0  0  0  1  0  0  0  0  0  0
  185.0850  177.5460  137.3320 C   0  0  0  0  0  2  0  0  0  0  0  0
  184.4950  178.4610  138.3640 C   0  0  0  0  0  0  0  0  0  0  0  0
  185.2680  179.0990  139.1280 O   0  0  0  0  0  0  0  0  0  0  0  0
  183.0330  178.5930  138.5000 C   0  0  0  0  0  0  0  0  0  0  0  0
  182.0420  177.5380  137.7200 S   0  0  0  0  0  0  0  0  0  0  0  0
  182.5060  179.5210  139.4590 N   0  0  0  0  0  2  0  0  0  0  0  0
  180.0710  180.3390  140.2120 S   0  0  0  0  0  0  0  0  0  0  0  0
  181.3680  179.3310  140.3100 C   0  0  0  0  0  0  0  0  0  0  0  0
  180.4020  178.4500  142.3240 O   0  0  0  0  0  1  0  0  0  0  0  0
  181.5450  178.4590  141.5190 C   0  0  2  0  0  3  0  0  0  0  0  0
  183.8210  177.9270  142.0200 O   0  0  0  0  0  1  0  0  0  0  0  0
  182.7960  178.8240  142.3180 C   0  0  2  0  0  3  0  0  0  0  0  0
  182.5370  178.8380  143.8210 C   0  0  0  0  0  2  0  0  0  0  0  0
  183.9220  178.9870  145.7530 O   0  0  0  0  0  1  0  0  0  0  0  0
  183.7450  179.3140  144.5510 C   0  0  0  0  0  0  0  0  0  0  0  0
  184.6880  180.0940  143.8980 O   0  0  0  0  0  0  0  0  0  0  0  0
  2  3  2  0  0  0  0
  4 16  1  6  0  0  0
  4  6  1  0  0  0  0
  4  5  1  0  0  0  0
  5  2  1  0  0  0  0
  6  1  1  6  0  0  0
  6  2  1  0  0  0  0
  7 12  1  1  0  0  0
  8  7  1  0  0  0  0
 10  8  2  0  0  0  0
 11  3  1  6  0  0  0
 11 10  1  0  0  0  0
 11 14  1  0  0  0  0
 11 13  1  0  0  0  0
 13  9  1  6  0  0  0
 13  7  1  0  0  0  0
 14 13  1  0  0  0  0
 14  9  1  6  0  0  0
 15 16  3  0  0  0  0
 18 17  1  6  0  0  0
 18 15  1  0  0  0  0
 19 18  1  0  0  0  0
 20 21  1  0  0  0  0
 20 19  1  0  0  0  0
 21 22  1  0  0  0  0
 24 23  1  1  0  0  0
 24  1  1  0  0  0  0
 25 24  1  0  0  0  0
 26 27  1  6  0  0  0
 26 28  1  0  0  0  0
 26 25  1  0  0  0  0
 28 29  1  0  0  0  0
 29 31  1  0  0  0  0
 29 30  2  0  0  0  0
 31 33  1  0  0  0  0
 32 31  2  0  0  0  0
 33 35  1  0  0  0  0
 34 35  2  0  0  0  0
 35 37  1  0  0  0  0
 37 39  1  0  0  0  0
 37 36  1  1  0  0  0
 39 38  1  1  0  0  0
 39 40  1  0  0  0  0
 40 42  1  0  0  0  0
 42 41  1  0  0  0  0
 43 42  2  0  0  0  0
M  END
>  <MODEL>
5

>  <REMARK>
 VINA RESULT:      -6.7      3.565      9.101
  Name = 
  19 active torsions:
  status: ('A' for Active; 'I' for Inactive)
    1  A    between atoms: N_1  and  C_3
    2  A    between atoms: N_1  and  C_39
    3  A    between atoms: C_3  and  C_22
    4  A    between atoms: C_6  and  C_35
    5  A    between atoms: C_6  and  C_37
    6  A    between atoms: C_7  and  C_30
    7  A    between atoms: C_8  and  C_26
    8  A    between atoms: C_10  and  C_32
    9  A    between atoms: C_13  and  C_16
   10  A    between atoms: C_13  and  C_22
   11  A    between atoms: C_15  and  C_36
   12  A    between atoms: C_16  and  C_17
   13  A    between atoms: C_17  and  C_37
   14  A    between atoms: C_18  and  C_19
   15  A    between atoms: C_19  and  C_43
   16  A    between atoms: C_20  and  C_26
   17  A    between atoms: C_20  and  C_30
   18  A    between atoms: C_39  and  C_40
   19  A    between atoms: C_40  and  C_43
                            x       y       z     vdW  Elec       q    Type
                         _______ _______ _______ _____ _____    ______ ____

>  <TORSDO>
F 19

$$$$
=
 OpenBabel10222418563D

 43 46  0  0  1  0  0  0  0  0999 V2000
  188.7140  178.6560  139.1580 C   0  0  0  0  0  2  0  0  0  0  0  0
  189.0440  176.6350  137.7380 C   0  0  0  0  0  0  0  0  0  0  0  0
  190.1050  175.9050  138.0860 C   0  0  0  0  0  3  0  0  0  0  0  0
  187.1980  177.9450  137.3280 C   0  0  2  0  0  3  0  0  0  0  0  0
  188.1920  177.0420  136.1710 S   0  0  0  0  0  0  0  0  0  0  0  0
  188.0220  177.4780  138.4830 C   0  0  2  0  0  3  0  0  0  0  0  0
  192.8390  173.6850  136.7900 C   0  0  1  0  0  3  0  0  0  0  0  0
  191.6260  173.0130  136.1560 C   0  0  0  0  0  3  0  0  0  0  0  0
  193.1900  176.2530  137.1090 C   0  0  0  0  0  2  0  0  0  0  0  0
  190.4150  173.8980  136.4220 C   0  0  0  0  0  3  0  0  0  0  0  0
  190.9230  175.1750  137.0680 C   0  0  2  0  0  0  0  0  0  0  0  0
  193.9800  173.7860  135.7830 C   0  0  0  0  0  1  0  0  0  0  0  0
  192.3730  175.0100  137.4140 C   0  0  2  0  0  0  0  0  0  0  0  0
  191.9410  175.9820  136.2980 C   0  0  2  0  0  3  0  0  0  0  0  0
  184.7630  176.8510  137.4570 C   0  0  0  0  0  0  0  0  0  0  0  0
  185.8620  177.3460  137.4010 C   0  0  0  0  0  0  0  0  0  0  0  0
  183.0110  175.9220  136.2310 O   0  0  0  0  0  1  0  0  0  0  0  0
  183.4310  176.2510  137.5200 C   0  0  2  0  0  3  0  0  0  0  0  0
  182.4580  177.2370  138.1460 C   0  0  0  0  0  2  0  0  0  0  0  0
  183.0440  178.6410  138.1750 C   0  0  0  0  0  2  0  0  0  0  0  0
  182.2180  179.5380  139.0780 C   0  0  0  0  0  2  0  0  0  0  0  0
  180.9910  180.0140  138.3330 C   0  0  0  0  0  1  0  0  0  0  0  0
  189.7200  177.8270  141.1610 O   0  0  0  0  0  1  0  0  0  0  0  0
  188.6260  178.5440  140.6710 C   0  0  2  0  0  3  0  0  0  0  0  0
  187.3380  177.8290  141.0430 C   0  0  0  0  0  2  0  0  0  0  0  0
  186.2790  178.8180  141.5130 C   0  0  1  0  0  3  0  0  0  0  0  0
  185.6220  179.3890  140.4210 O   0  0  0  0  0  1  0  0  0  0  0  0
  185.2800  178.1570  142.4620 C   0  0  0  0  0  2  0  0  0  0  0  0
  185.1620  178.8730  143.7740 C   0  0  0  0  0  0  0  0  0  0  0  0
  184.6440  180.0210  143.7990 O   0  0  0  0  0  0  0  0  0  0  0  0
  185.6690  178.2540  145.0120 C   0  0  0  0  0  0  0  0  0  0  0  0
  184.9410  178.5850  146.4480 S   0  0  0  0  0  0  0  0  0  0  0  0
  186.6690  177.2280  144.9170 N   0  0  0  0  0  2  0  0  0  0  0  0
  188.2940  177.6940  146.9930 S   0  0  0  0  0  0  0  0  0  0  0  0
  188.0080  177.2770  145.4260 C   0  0  0  0  0  0  0  0  0  0  0  0
  189.2160  176.1290  143.6980 O   0  0  0  0  0  1  0  0  0  0  0  0
  189.1280  177.3180  144.4290 C   0  0  2  0  0  3  0  0  0  0  0  0
  190.9960  178.8110  144.4470 O   0  0  0  0  0  1  0  0  0  0  0  0
  190.4650  177.6840  145.0740 C   0  0  2  0  0  3  0  0  0  0  0  0
  191.4680  176.5360  145.0170 C   0  0  0  0  0  2  0  0  0  0  0  0
  191.7610  177.0130  147.3320 O   0  0  0  0  0  1  0  0  0  0  0  0
  191.9650  176.2130  146.3830 C   0  0  0  0  0  0  0  0  0  0  0  0
  192.6270  175.0150  146.6150 O   0  0  0  0  0  0  0  0  0  0  0  0
  1 24  1  0  0  0  0
  2  3  2  0  0  0  0
  2  6  1  0  0  0  0
  4 16  1  1  0  0  0
  4  6  1  0  0  0  0
  5  4  1  0  0  0  0
  5  2  1  0  0  0  0
  6  1  1  6  0  0  0
  7 12  1  6  0  0  0
  7 13  1  0  0  0  0
  8 10  2  0  0  0  0
  8  7  1  0  0  0  0
 10 11  1  0  0  0  0
 11 13  1  0  0  0  0
 11  3  1  1  0  0  0
 13  9  1  1  0  0  0
 14 11  1  0  0  0  0
 14  9  1  1  0  0  0
 14 13  1  0  0  0  0
 15 18  1  0  0  0  0
 16 15  3  0  0  0  0
 18 17  1  6  0  0  0
 18 19  1  0  0  0  0
 19 20  1  0  0  0  0
 20 21  1  0  0  0  0
 22 21  1  0  0  0  0
 24 25  1  0  0  0  0
 24 23  1  6  0  0  0
 25 26  1  0  0  0  0
 26 27  1  6  0  0  0
 26 28  1  0  0  0  0
 28 29  1  0  0  0  0
 29 30  2  0  0  0  0
 29 31  1  0  0  0  0
 31 32  2  0  0  0  0
 33 31  1  0  0  0  0
 33 35  1  0  0  0  0
 35 34  2  0  0  0  0
 37 36  1  1  0  0  0
 37 39  1  0  0  0  0
 37 35  1  0  0  0  0
 39 38  1  6  0  0  0
 40 39  1  0  0  0  0
 40 42  1  0  0  0  0
 42 43  2  0  0  0  0
 42 41  1  0  0  0  0
M  END
>  <MODEL>
6

>  <REMARK>
 VINA RESULT:      -6.7      3.136      6.941
  Name = 
  19 active torsions:
  status: ('A' for Active; 'I' for Inactive)
    1  A    between atoms: N_1  and  C_3
    2  A    between atoms: N_1  and  C_39
    3  A    between atoms: C_3  and  C_22
    4  A    between atoms: C_6  and  C_35
    5  A    between atoms: C_6  and  C_37
    6  A    between atoms: C_7  and  C_30
    7  A    between atoms: C_8  and  C_26
    8  A    between atoms: C_10  and  C_32
    9  A    between atoms: C_13  and  C_16
   10  A    between atoms: C_13  and  C_22
   11  A    between atoms: C_15  and  C_36
   12  A    between atoms: C_16  and  C_17
   13  A    between atoms: C_17  and  C_37
   14  A    between atoms: C_18  and  C_19
   15  A    between atoms: C_19  and  C_43
   16  A    between atoms: C_20  and  C_26
   17  A    between atoms: C_20  and  C_30
   18  A    between atoms: C_39  and  C_40
   19  A    between atoms: C_40  and  C_43
                            x       y       z     vdW  Elec       q    Type
                         _______ _______ _______ _____ _____    ______ ____

>  <TORSDO>
F 19

$$$$
=
 OpenBabel10222418563D

 43 46  0  0  1  0  0  0  0  0999 V2000
  185.8600  178.1870  136.8330 C   0  0  0  0  0  2  0  0  0  0  0  0
  184.6070  176.1120  137.4130 C   0  0  0  0  0  0  0  0  0  0  0  0
  185.1210  175.0080  136.8680 C   0  0  0  0  0  3  0  0  0  0  0  0
  183.9060  178.0880  138.3590 C   0  0  2  0  0  3  0  0  0  0  0  0
  182.9290  176.7040  137.8400 S   0  0  0  0  0  0  0  0  0  0  0  0
  185.1750  177.4140  137.9540 C   0  0  2  0  0  3  0  0  0  0  0  0
  183.4550  171.6510  137.0600 C   0  0  1  0  0  3  0  0  0  0  0  0
  182.2370  172.5420  136.8430 C   0  0  0  0  0  3  0  0  0  0  0  0
  185.8060  171.9570  135.9650 C   0  0  0  0  0  2  0  0  0  0  0  0
  182.7390  173.9500  136.5510 C   0  0  0  0  0  3  0  0  0  0  0  0
  184.2500  173.8720  136.4290 C   0  0  2  0  0  0  0  0  0  0  0  0
  183.3600  170.3970  136.1970 C   0  0  0  0  0  1  0  0  0  0  0  0
  184.7120  172.5120  136.8600 C   0  0  2  0  0  0  0  0  0  0  0  0
  184.8140  172.9400  135.3820 C   0  0  2  0  0  3  0  0  0  0  0  0
  183.8080  178.3010  141.0210 C   0  0  0  0  0  0  0  0  0  0  0  0
  183.8540  178.2070  139.8200 C   0  0  0  0  0  0  0  0  0  0  0  0
  182.5260  178.9720  142.8480 O   0  0  0  0  0  1  0  0  0  0  0  0
  183.7480  178.4130  142.4780 C   0  0  2  0  0  3  0  0  0  0  0  0
  184.8900  179.2890  142.9670 C   0  0  0  0  0  2  0  0  0  0  0  0
  186.0120  178.4490  143.5570 C   0  0  0  0  0  2  0  0  0  0  0  0
  185.5940  177.8790  144.9000 C   0  0  0  0  0  2  0  0  0  0  0  0
  185.3500  179.0110  145.8750 C   0  0  0  0  0  1  0  0  0  0  0  0
  187.6680  179.7480  136.8350 O   0  0  0  0  0  1  0  0  0  0  0  0
  187.3240  178.4330  137.1560 C   0  0  2  0  0  3  0  0  0  0  0  0
  188.1790  177.4690  136.3500 C   0  0  0  0  0  2  0  0  0  0  0  0
  189.0560  176.6220  137.2630 C   0  0  1  0  0  3  0  0  0  0  0  0
  189.8040  175.7090  136.5160 O   0  0  0  0  0  1  0  0  0  0  0  0
  189.9690  177.4920  138.1250 C   0  0  0  0  0  2  0  0  0  0  0  0
  190.3240  176.8470  139.4310 C   0  0  0  0  0  0  0  0  0  0  0  0
  190.9000  175.7260  139.4230 O   0  0  0  0  0  0  0  0  0  0  0  0
  189.9830  177.5020  140.7070 C   0  0  0  0  0  0  0  0  0  0  0  0
  188.5150  178.2190  140.8900 S   0  0  0  0  0  0  0  0  0  0  0  0
  190.8630  177.3390  141.8290 N   0  0  0  0  0  2  0  0  0  0  0  0
  191.3220  179.2300  143.6670 S   0  0  0  0  0  0  0  0  0  0  0  0
  190.6550  177.8110  143.1660 C   0  0  0  0  0  0  0  0  0  0  0  0
  188.8680  176.3740  143.8780 O   0  0  0  0  0  1  0  0  0  0  0  0
  190.1560  176.8240  144.1810 C   0  0  2  0  0  3  0  0  0  0  0  0
  190.7980  176.3960  146.4440 O   0  0  0  0  0  1  0  0  0  0  0  0
  190.2440  177.3660  145.6080 C   0  0  2  0  0  3  0  0  0  0  0  0
  188.8850  177.8020  146.1450 C   0  0  0  0  0  2  0  0  0  0  0  0
  189.3100  178.4880  148.3860 O   0  0  0  0  0  1  0  0  0  0  0  0
  188.8260  177.6140  147.6210 C   0  0  0  0  0  0  0  0  0  0  0  0
  188.2100  176.4900  148.1530 O   0  0  0  0  0  0  0  0  0  0  0  0
  1 24  1  0  0  0  0
  2  5  1  0  0  0  0
  2  6  1  0  0  0  0
  3  2  2  0  0  0  0
  4 16  1  1  0  0  0
  5  4  1  0  0  0  0
  6  1  1  6  0  0  0
  6  4  1  0  0  0  0
  7 12  1  6  0  0  0
  8  7  1  0  0  0  0
 10  8  2  0  0  0  0
 11 10  1  0  0  0  0
 11 13  1  0  0  0  0
 11  3  1  1  0  0  0
 13  9  1  1  0  0  0
 13  7  1  0  0  0  0
 14  9  1  1  0  0  0
 14 11  1  0  0  0  0
 14 13  1  0  0  0  0
 15 18  1  0  0  0  0
 16 15  3  0  0  0  0
 18 17  1  6  0  0  0
 18 19  1  0  0  0  0
 19 20  1  0  0  0  0
 20 21  1  0  0  0  0
 21 22  1  0  0  0  0
 24 23  1  6  0  0  0
 25 24  1  0  0  0  0
 25 26  1  0  0  0  0
 26 27  1  6  0  0  0
 26 28  1  0  0  0  0
 28 29  1  0  0  0  0
 29 31  1  0  0  0  0
 30 29  2  0  0  0  0
 31 32  2  0  0  0  0
 31 33  1  0  0  0  0
 33 35  1  0  0  0  0
 35 34  2  0  0  0  0
 35 37  1  0  0  0  0
 37 36  1  6  0  0  0
 37 39  1  0  0  0  0
 39 40  1  0  0  0  0
 39 38  1  1  0  0  0
 40 42  1  0  0  0  0
 42 43  2  0  0  0  0
 42 41  1  0  0  0  0
M  END
>  <MODEL>
7

>  <REMARK>
 VINA RESULT:      -6.5      3.093      6.056
  Name = 
  19 active torsions:
  status: ('A' for Active; 'I' for Inactive)
    1  A    between atoms: N_1  and  C_3
    2  A    between atoms: N_1  and  C_39
    3  A    between atoms: C_3  and  C_22
    4  A    between atoms: C_6  and  C_35
    5  A    between atoms: C_6  and  C_37
    6  A    between atoms: C_7  and  C_30
    7  A    between atoms: C_8  and  C_26
    8  A    between atoms: C_10  and  C_32
    9  A    between atoms: C_13  and  C_16
   10  A    between atoms: C_13  and  C_22
   11  A    between atoms: C_15  and  C_36
   12  A    between atoms: C_16  and  C_17
   13  A    between atoms: C_17  and  C_37
   14  A    between atoms: C_18  and  C_19
   15  A    between atoms: C_19  and  C_43
   16  A    between atoms: C_20  and  C_26
   17  A    between atoms: C_20  and  C_30
   18  A    between atoms: C_39  and  C_40
   19  A    between atoms: C_40  and  C_43
                            x       y       z     vdW  Elec       q    Type
                         _______ _______ _______ _____ _____    ______ ____

>  <TORSDO>
F 19

$$$$
=
 OpenBabel10222418563D

 43 46  0  0  1  0  0  0  0  0999 V2000
  185.3680  179.1260  141.7190 C   0  0  0  0  0  2  0  0  0  0  0  0
  185.0380  178.3560  139.3720 C   0  0  0  0  0  0  0  0  0  0  0  0
  186.0930  177.7140  138.8680 C   0  0  0  0  0  3  0  0  0  0  0  0
  183.2710  179.3900  140.4200 C   0  0  2  0  0  3  0  0  0  0  0  0
  183.7410  179.4650  138.7130 S   0  0  0  0  0  0  0  0  0  0  0  0
  184.3970  178.4670  140.7470 C   0  0  2  0  0  3  0  0  0  0  0  0
  187.9270  176.9150  135.6930 C   0  0  1  0  0  3  0  0  0  0  0  0
  186.4880  176.7540  135.2180 C   0  0  0  0  0  3  0  0  0  0  0  0
  188.8070  178.7110  137.3720 C   0  0  0  0  0  2  0  0  0  0  0  0
  185.5740  177.2280  136.3410 C   0  0  0  0  0  3  0  0  0  0  0  0
  186.4590  177.8240  137.4210 C   0  0  2  0  0  0  0  0  0  0  0  0
  188.7510  177.6710  134.6550 C   0  0  0  0  0  1  0  0  0  0  0  0
  187.8950  177.5280  137.1020 C   0  0  2  0  0  0  0  0  0  0  0  0
  187.3570  178.9710  137.0240 C   0  0  2  0  0  3  0  0  0  0  0  0
  180.9470  178.0930  140.6590 C   0  0  0  0  0  0  0  0  0  0  0  0
  181.9950  178.6790  140.5490 C   0  0  0  0  0  0  0  0  0  0  0  0
  179.3950  177.1970  142.1510 O   0  0  0  0  0  1  0  0  0  0  0  0
  179.6770  177.3810  140.7970 C   0  0  2  0  0  3  0  0  0  0  0  0
  179.7710  176.0340  140.0990 C   0  0  0  0  0  2  0  0  0  0  0  0
  179.2290  176.1140  138.6800 C   0  0  0  0  0  2  0  0  0  0  0  0
  179.0190  174.7210  138.1170 C   0  0  0  0  0  2  0  0  0  0  0  0
  180.3260  173.9590  138.1530 C   0  0  0  0  0  1  0  0  0  0  0  0
  185.3380  180.5090  143.6670 O   0  0  0  0  0  1  0  0  0  0  0  0
  184.6830  179.4480  143.0370 C   0  0  2  0  0  3  0  0  0  0  0  0
  184.7210  178.2200  143.9310 C   0  0  0  0  0  2  0  0  0  0  0  0
  185.2350  178.5720  145.3210 C   0  0  1  0  0  3  0  0  0  0  0  0
  184.1770  178.9250  146.1610 O   0  0  0  0  0  1  0  0  0  0  0  0
  186.0450  177.4250  145.9230 C   0  0  0  0  0  2  0  0  0  0  0  0
  187.2750  177.8950  146.6420 C   0  0  0  0  0  0  0  0  0  0  0  0
  187.1470  178.5000  147.7400 O   0  0  0  0  0  0  0  0  0  0  0  0
  188.6120  177.6760  146.0600 C   0  0  0  0  0  0  0  0  0  0  0  0
  189.7950  176.9850  146.9690 S   0  0  0  0  0  0  0  0  0  0  0  0
  188.8020  177.8960  144.6550 N   0  0  0  0  0  2  0  0  0  0  0  0
  191.3880  178.2660  144.0720 S   0  0  0  0  0  0  0  0  0  0  0  0
  189.9370  177.5170  143.8670 C   0  0  0  0  0  0  0  0  0  0  0  0
  190.4590  175.5550  142.5830 O   0  0  0  0  0  1  0  0  0  0  0  0
  189.6820  176.7170  142.6230 C   0  0  2  0  0  3  0  0  0  0  0  0
  188.7130  178.3370  141.1550 O   0  0  0  0  0  1  0  0  0  0  0  0
  189.8490  177.5520  141.3530 C   0  0  2  0  0  3  0  0  0  0  0  0
  190.1050  176.6870  140.1230 C   0  0  0  0  0  2  0  0  0  0  0  0
  192.3420  177.4900  140.2750 O   0  0  0  0  0  1  0  0  0  0  0  0
  191.4470  176.9830  139.5500 C   0  0  0  0  0  0  0  0  0  0  0  0
  191.7210  176.6740  138.2250 O   0  0  0  0  0  0  0  0  0  0  0  0
  1 24  1  0  0  0  0
  2  6  1  0  0  0  0
  3  2  2  0  0  0  0
  4 16  1  6  0  0  0
  4  6  1  0  0  0  0
  5  2  1  0  0  0  0
  5  4  1  0  0  0  0
  6  1  1  1  0  0  0
  7 12  1  6  0  0  0
  7 13  1  0  0  0  0
  8  7  1  0  0  0  0
  8 10  2  0  0  0  0
 10 11  1  0  0  0  0
 11  3  1  1  0  0  0
 13  9  1  1  0  0  0
 13 11  1  0  0  0  0
 14 13  1  0  0  0  0
 14  9  1  1  0  0  0
 14 11  1  0  0  0  0
 15 18  1  0  0  0  0
 16 15  3  0  0  0  0
 18 17  1  1  0  0  0
 19 18  1  0  0  0  0
 20 19  1  0  0  0  0
 21 22  1  0  0  0  0
 21 20  1  0  0  0  0
 24 23  1  1  0  0  0
 24 25  1  0  0  0  0
 25 26  1  0  0  0  0
 26 28  1  0  0  0  0
 26 27  1  1  0  0  0
 28 29  1  0  0  0  0
 29 30  2  0  0  0  0
 31 29  1  0  0  0  0
 31 32  2  0  0  0  0
 33 31  1  0  0  0  0
 35 34  2  0  0  0  0
 35 33  1  0  0  0  0
 37 36  1  6  0  0  0
 37 35  1  0  0  0  0
 39 38  1  6  0  0  0
 39 37  1  0  0  0  0
 40 39  1  0  0  0  0
 42 40  1  0  0  0  0
 42 41  1  0  0  0  0
 43 42  2  0  0  0  0
M  END
>  <MODEL>
8

>  <REMARK>
 VINA RESULT:      -6.5      3.308      6.993
  Name = 
  19 active torsions:
  status: ('A' for Active; 'I' for Inactive)
    1  A    between atoms: N_1  and  C_3
    2  A    between atoms: N_1  and  C_39
    3  A    between atoms: C_3  and  C_22
    4  A    between atoms: C_6  and  C_35
    5  A    between atoms: C_6  and  C_37
    6  A    between atoms: C_7  and  C_30
    7  A    between atoms: C_8  and  C_26
    8  A    between atoms: C_10  and  C_32
    9  A    between atoms: C_13  and  C_16
   10  A    between atoms: C_13  and  C_22
   11  A    between atoms: C_15  and  C_36
   12  A    between atoms: C_16  and  C_17
   13  A    between atoms: C_17  and  C_37
   14  A    between atoms: C_18  and  C_19
   15  A    between atoms: C_19  and  C_43
   16  A    between atoms: C_20  and  C_26
   17  A    between atoms: C_20  and  C_30
   18  A    between atoms: C_39  and  C_40
   19  A    between atoms: C_40  and  C_43
                            x       y       z     vdW  Elec       q    Type
                         _______ _______ _______ _____ _____    ______ ____

>  <TORSDO>
F 19

$$$$
=
 OpenBabel10222418563D

 43 46  0  0  1  0  0  0  0  0999 V2000
  185.5280  178.6680  138.1220 C   0  0  0  0  0  2  0  0  0  0  0  0
  186.6100  176.5720  137.3180 C   0  0  0  0  0  0  0  0  0  0  0  0
  187.7540  176.2870  137.9430 C   0  0  0  0  0  3  0  0  0  0  0  0
  184.5760  177.1450  136.4110 C   0  0  2  0  0  3  0  0  0  0  0  0
  185.9490  176.3430  135.6280 S   0  0  0  0  0  0  0  0  0  0  0  0
  185.2920  177.2170  137.7180 C   0  0  2  0  0  3  0  0  0  0  0  0
  191.0130  174.4640  137.5780 C   0  0  1  0  0  3  0  0  0  0  0  0
  190.1010  173.5450  136.7730 C   0  0  0  0  0  3  0  0  0  0  0  0
  190.8990  177.0720  137.6530 C   0  0  0  0  0  2  0  0  0  0  0  0
  188.7470  174.2300  136.6490 C   0  0  0  0  0  3  0  0  0  0  0  0
  188.8920  175.6240  137.2330 C   0  0  2  0  0  0  0  0  0  0  0  0
  192.3380  174.6730  136.8500 C   0  0  0  0  0  1  0  0  0  0  0  0
  190.2230  175.7390  137.9150 C   0  0  2  0  0  0  0  0  0  0  0  0
  189.9380  176.5250  136.6200 C   0  0  2  0  0  3  0  0  0  0  0  0
  182.5290  175.4380  136.5950 C   0  0  0  0  0  0  0  0  0  0  0  0
  183.4520  176.2080  136.5140 C   0  0  0  0  0  0  0  0  0  0  0  0
  181.0960  174.2860  138.0290 O   0  0  0  0  0  1  0  0  0  0  0  0
  181.4070  174.5030  136.6880 C   0  0  2  0  0  3  0  0  0  0  0  0
  181.7840  173.1890  136.0220 C   0  0  0  0  0  2  0  0  0  0  0  0
  183.1570  172.7190  136.4770 C   0  0  0  0  0  2  0  0  0  0  0  0
  183.1100  171.2540  136.8680 C   0  0  0  0  0  2  0  0  0  0  0  0
  184.1320  170.4820  136.0620 C   0  0  0  0  0  1  0  0  0  0  0  0
  184.1370  180.4080  138.9850 O   0  0  0  0  0  1  0  0  0  0  0  0
  184.5570  179.0950  139.2090 C   0  0  2  0  0  3  0  0  0  0  0  0
  185.2500  179.0040  140.5590 C   0  0  0  0  0  2  0  0  0  0  0  0
  184.2590  178.6560  141.6610 C   0  0  1  0  0  3  0  0  0  0  0  0
  183.1900  177.9200  141.1450 O   0  0  0  0  0  1  0  0  0  0  0  0
  184.9360  177.9000  142.8030 C   0  0  0  0  0  2  0  0  0  0  0  0
  184.9320  178.6670  144.0920 C   0  0  0  0  0  0  0  0  0  0  0  0
  184.1700  179.6640  144.2070 O   0  0  0  0  0  0  0  0  0  0  0  0
  185.8260  178.2770  145.1980 C   0  0  0  0  0  0  0  0  0  0  0  0
  185.6770  179.0050  146.6640 S   0  0  0  0  0  0  0  0  0  0  0  0
  186.6830  177.1390  145.0290 N   0  0  0  0  0  2  0  0  0  0  0  0
  189.2520  177.7870  145.4120 S   0  0  0  0  0  0  0  0  0  0  0  0
  188.0260  177.1350  144.5280 C   0  0  0  0  0  0  0  0  0  0  0  0
  188.6800  175.5870  142.8120 O   0  0  0  0  0  1  0  0  0  0  0  0
  188.2190  176.8830  143.0610 C   0  0  2  0  0  3  0  0  0  0  0  0
  188.3210  178.9270  141.8240 O   0  0  0  0  0  1  0  0  0  0  0  0
  189.1120  177.9370  142.4050 C   0  0  2  0  0  3  0  0  0  0  0  0
  190.0430  177.3330  141.3580 C   0  0  0  0  0  2  0  0  0  0  0  0
  192.3810  177.3770  140.9060 O   0  0  0  0  0  0  0  0  0  0  0  0
  191.4650  177.5250  141.7560 C   0  0  0  0  0  0  0  0  0  0  0  0
  191.7780  177.8970  143.0560 O   0  0  0  0  0  1  0  0  0  0  0  0
  1 24  1  0  0  0  0
  2  6  1  0  0  0  0
  2  3  2  0  0  0  0
  4 16  1  1  0  0  0
  4  6  1  0  0  0  0
  5  4  1  0  0  0  0
  5  2  1  0  0  0  0
  6  1  1  6  0  0  0
  7 12  1  6  0  0  0
  7 13  1  0  0  0  0
  8  7  1  0  0  0  0
 10  8  2  0  0  0  0
 10 11  1  0  0  0  0
 11 13  1  0  0  0  0
 11  3  1  1  0  0  0
 13  9  1  1  0  0  0
 14 11  1  0  0  0  0
 14  9  1  1  0  0  0
 14 13  1  0  0  0  0
 15 18  1  0  0  0  0
 16 15  3  0  0  0  0
 18 17  1  1  0  0  0
 19 20  1  0  0  0  0
 19 18  1  0  0  0  0
 20 21  1  0  0  0  0
 22 21  1  0  0  0  0
 24 23  1  6  0  0  0
 24 25  1  0  0  0  0
 25 26  1  0  0  0  0
 26 27  1  6  0  0  0
 26 28  1  0  0  0  0
 28 29  1  0  0  0  0
 29 30  2  0  0  0  0
 29 31  1  0  0  0  0
 31 32  2  0  0  0  0
 33 31  1  0  0  0  0
 35 33  1  0  0  0  0
 35 34  2  0  0  0  0
 37 36  1  1  0  0  0
 37 35  1  0  0  0  0
 39 38  1  6  0  0  0
 39 37  1  0  0  0  0
 40 42  1  0  0  0  0
 40 39  1  0  0  0  0
 41 42  2  0  0  0  0
 42 43  1  0  0  0  0
M  END
>  <MODEL>
9

>  <REMARK>
 VINA RESULT:      -6.4      3.588      7.138
  Name = 
  19 active torsions:
  status: ('A' for Active; 'I' for Inactive)
    1  A    between atoms: N_1  and  C_3
    2  A    between atoms: N_1  and  C_39
    3  A    between atoms: C_3  and  C_22
    4  A    between atoms: C_6  and  C_35
    5  A    between atoms: C_6  and  C_37
    6  A    between atoms: C_7  and  C_30
    7  A    between atoms: C_8  and  C_26
    8  A    between atoms: C_10  and  C_32
    9  A    between atoms: C_13  and  C_16
   10  A    between atoms: C_13  and  C_22
   11  A    between atoms: C_15  and  C_36
   12  A    between atoms: C_16  and  C_17
   13  A    between atoms: C_17  and  C_37
   14  A    between atoms: C_18  and  C_19
   15  A    between atoms: C_19  and  C_43
   16  A    between atoms: C_20  and  C_26
   17  A    between atoms: C_20  and  C_30
   18  A    between atoms: C_39  and  C_40
   19  A    between atoms: C_40  and  C_43
                            x       y       z     vdW  Elec       q    Type
                         _______ _______ _______ _____ _____    ______ ____

>  <TORSDO>
F 19

$$$$
