=
 OpenBabel10222420403D

 42 47  0  0  1  0  0  0  0  0999 V2000
  183.2780  178.0590  137.8640 C   0  0  2  0  0  3  0  0  0  0  0  0
  181.8610  177.6460  137.9960 C   0  0  1  0  0  3  0  0  0  0  0  0
  182.4310  175.4230  137.1310 C   0  0  0  0  0  0  0  0  0  0  0  0
  181.5980  176.2230  137.7210 N   0  0  0  0  0  0  0  0  0  0  0  0
  184.3010  176.9620  137.5760 C   0  0  1  0  0  3  0  0  0  0  0  0
  182.7050  177.7820  139.1940 N   0  0  0  0  0  0  0  0  0  0  0  0
  183.7360  175.8740  136.7970 N   0  0  0  0  0  2  0  0  0  0  0  0
  181.9550  173.7280  136.8050 S   0  0  0  0  0  0  0  0  0  0  0  0
  183.6190  173.2470  136.2530 C   0  0  0  0  0  2  0  0  0  0  0  0
  185.6980  172.9470  137.5690 C   0  0  0  0  0  1  0  0  0  0  0  0
  184.3020  172.4120  137.3190 C   0  0  0  0  0  2  0  0  0  0  0  0
  182.3670  179.0630  139.8150 C   0  0  0  0  0  2  0  0  0  0  0  0
  181.0940  178.5680  141.9710 C   0  0  0  0  0  1  0  0  0  0  0  0
  182.4180  178.9980  141.3490 C   0  0  1  0  0  3  0  0  0  0  0  0
  183.8140  177.9600  141.9160 S   0  0  0  0  0  0  0  0  0  0  0  0
  185.0930  178.6120  145.2810 C   0  0  0  0  0  0  0  0  0  0  0  0
  183.8340  179.2410  145.3240 N   0  0  0  0  0  0  0  0  0  0  0  0
  183.4490  179.6640  144.0330 N   0  0  0  0  0  0  0  0  0  0  0  0
  185.5230  178.5160  143.9990 C   0  0  0  0  0  0  0  0  0  0  0  0
  187.5040  177.3730  144.7290 C   0  0  0  0  0  3  0  0  0  0  0  0
  186.7380  177.9070  143.6760 C   0  0  0  0  0  3  0  0  0  0  0  0
  184.5060  179.1610  143.1220 C   0  0  1  0  0  3  0  0  0  0  0  0
  185.8060  178.0660  146.3480 C   0  0  0  0  0  3  0  0  0  0  0  0
  187.0340  177.4420  146.0600 C   0  0  0  0  0  3  0  0  0  0  0  0
  185.5340  177.5360  136.9130 C   0  0  0  0  0  2  0  0  0  0  0  0
  186.4780  178.0100  138.0060 C   0  0  0  0  0  2  0  0  0  0  0  0
  189.0510  179.2120  137.5140 C   0  0  0  0  0  1  0  0  0  0  0  0
  188.8530  177.9830  138.4110 C   0  0  2  0  0  3  0  0  0  0  0  0
  190.1430  177.1370  138.4200 C   0  0  2  0  0  3  0  0  0  0  0  0
  187.8800  176.5740  136.7250 C   0  0  0  0  0  2  0  0  0  0  0  0
  189.8820  175.6780  138.0380 C   0  0  0  0  0  2  0  0  0  0  0  0
  189.0490  175.5790  136.7510 C   0  0  0  0  0  2  0  0  0  0  0  0
  187.6750  177.1740  138.0430 N   0  0  0  0  0  0  0  0  0  0  0  0
  190.7950  177.1990  139.7620 C   0  0  0  0  0  0  0  0  0  0  0  0
  189.9800  177.2420  140.9430 N   0  0  0  0  0  2  0  0  0  0  0  0
  192.0510  177.2100  139.8360 O   0  0  0  0  0  0  0  0  0  0  0  0
  190.4710  178.5710  142.9260 C   0  0  0  0  0  3  0  0  0  0  0  0
  190.4310  177.3200  142.3000 C   0  0  0  0  0  0  0  0  0  0  0  0
  191.3310  177.5530  144.9470 C   0  0  0  0  0  3  0  0  0  0  0  0
  190.9160  178.6900  144.2450 C   0  0  0  0  0  3  0  0  0  0  0  0
  191.3030  176.3030  144.3280 C   0  0  0  0  0  3  0  0  0  0  0  0
  190.8600  176.1840  143.0060 C   0  0  0  0  0  3  0  0  0  0  0  0
  1  2  1  0  0  0  0
  1  6  1  1  0  0  0
  2  4  1  6  0  0  0
  2  6  1  0  0  0  0
  3  4  2  0  0  0  0
  5 25  1  6  0  0  0
  5  1  1  0  0  0  0
  6 12  1  0  0  0  0
  7  3  1  0  0  0  0
  7  5  1  0  0  0  0
  8  3  1  0  0  0  0
  9  8  1  0  0  0  0
  9 11  1  0  0  0  0
 11 10  1  0  0  0  0
 12 14  1  0  0  0  0
 14 15  1  0  0  0  0
 14 13  1  6  0  0  0
 16 17  1  0  0  0  0
 16 23  1  0  0  0  0
 18 17  2  0  0  0  0
 19 16  2  0  0  0  0
 20 24  1  0  0  0  0
 21 19  1  0  0  0  0
 21 20  2  0  0  0  0
 22 15  1  6  0  0  0
 22 19  1  0  0  0  0
 22 18  1  0  0  0  0
 24 23  2  0  0  0  0
 25 26  1  0  0  0  0
 26 33  1  0  0  0  0
 28 27  1  6  0  0  0
 28 29  1  0  0  0  0
 29 34  1  1  0  0  0
 30 32  1  0  0  0  0
 30 33  1  0  0  0  0
 31 29  1  0  0  0  0
 32 31  1  0  0  0  0
 33 28  1  0  0  0  0
 34 36  2  0  0  0  0
 34 35  1  0  0  0  0
 35 38  1  0  0  0  0
 37 40  1  0  0  0  0
 38 37  2  0  0  0  0
 38 42  1  0  0  0  0
 40 39  2  0  0  0  0
 41 39  1  0  0  0  0
 42 41  2  0  0  0  0
M  END
>  <MODEL>
1

>  <REMARK>
 VINA RESULT:      -8.3      0.000      0.000
  Name = 
  12 active torsions:
  status: ('A' for Active; 'I' for Inactive)
    1  A    between atoms: C_7  and  C_8
    2  A    between atoms: N_11  and  C_19
    3  A    between atoms: C_12  and  C_29
    4  A    between atoms: S_15  and  C_29
    5  A    between atoms: S_15  and  C_32
    6  A    between atoms: C_18  and  C_26
    7  A    between atoms: C_18  and  N_35
    8  A    between atoms: S_22  and  C_26
    9  A    between atoms: S_22  and  C_31
   10  A    between atoms: N_30  and  C_40
   11  A    between atoms: C_34  and  C_39
   12  A    between atoms: C_39  and  C_40
                            x       y       z     vdW  Elec       q    Type
                         _______ _______ _______ _____ _____    ______ ____

>  <TORSDO>
F 12

$$$$
=
 OpenBabel10222420403D

 42 47  0  0  1  0  0  0  0  0999 V2000
  188.9200  178.5620  140.2390 C   0  0  2  0  0  3  0  0  0  0  0  0
  188.2510  178.7500  141.5480 C   0  0  1  0  0  3  0  0  0  0  0  0
  186.0630  178.5710  140.4520 C   0  0  0  0  0  0  0  0  0  0  0  0
  186.7870  178.5860  141.5280 N   0  0  0  0  0  0  0  0  0  0  0  0
  188.0480  178.1190  139.0660 C   0  0  1  0  0  3  0  0  0  0  0  0
  188.9060  177.4710  141.2300 N   0  0  0  0  0  0  0  0  0  0  0  0
  186.6860  178.6120  139.1760 N   0  0  0  0  0  2  0  0  0  0  0  0
  184.2830  178.4270  140.5800 S   0  0  0  0  0  0  0  0  0  0  0  0
  184.2740  178.7170  142.3750 C   0  0  0  0  0  2  0  0  0  0  0  0
  182.8290  178.8390  144.3850 C   0  0  0  0  0  1  0  0  0  0  0  0
  182.8490  178.8780  142.8690 C   0  0  0  0  0  2  0  0  0  0  0  0
  190.1980  177.4680  141.9160 C   0  0  0  0  0  2  0  0  0  0  0  0
  191.0580  175.5530  143.3690 C   0  0  0  0  0  1  0  0  0  0  0  0
  190.1320  176.7620  143.2790 C   0  0  1  0  0  3  0  0  0  0  0  0
  190.4140  177.9470  144.6450 S   0  0  0  0  0  0  0  0  0  0  0  0
  188.0040  177.9490  147.3970 C   0  0  0  0  0  0  0  0  0  0  0  0
  189.2240  177.8020  148.0830 N   0  0  0  0  0  0  0  0  0  0  0  0
  190.1780  177.1630  147.2620 N   0  0  0  0  0  0  0  0  0  0  0  0
  188.1310  177.5150  146.1190 C   0  0  0  0  0  0  0  0  0  0  0  0
  185.8530  178.1190  145.6650 C   0  0  0  0  0  3  0  0  0  0  0  0
  187.0700  177.5740  145.2140 C   0  0  0  0  0  3  0  0  0  0  0  0
  189.5200  177.0030  145.9430 C   0  0  1  0  0  3  0  0  0  0  0  0
  186.8270  178.5270  147.8720 C   0  0  0  0  0  3  0  0  0  0  0  0
  185.7360  178.6050  146.9870 C   0  0  0  0  0  3  0  0  0  0  0  0
  188.6760  178.5150  137.7480 C   0  0  0  0  0  2  0  0  0  0  0  0
  188.2220  177.5190  136.6930 C   0  0  0  0  0  2  0  0  0  0  0  0
  190.0890  176.6280  134.6860 C   0  0  0  0  0  1  0  0  0  0  0  0
  190.2030  176.2520  136.1700 C   0  0  2  0  0  3  0  0  0  0  0  0
  190.9320  174.8990  136.3040 C   0  0  2  0  0  3  0  0  0  0  0  0
  188.0630  175.1700  136.3370 C   0  0  0  0  0  2  0  0  0  0  0  0
  190.1280  173.8850  137.1220 C   0  0  0  0  0  2  0  0  0  0  0  0
  188.6780  173.7930  136.6240 C   0  0  0  0  0  2  0  0  0  0  0  0
  188.9040  176.2400  136.8710 N   0  0  0  0  0  0  0  0  0  0  0  0
  192.2770  175.0950  136.9240 C   0  0  0  0  0  0  0  0  0  0  0  0
  193.3720  174.2630  136.5130 N   0  0  0  0  0  2  0  0  0  0  0  0
  192.4280  175.9890  137.7960 O   0  0  0  0  0  0  0  0  0  0  0  0
  195.7170  174.8440  136.1980 C   0  0  0  0  0  3  0  0  0  0  0  0
  194.7160  174.2990  137.0080 C   0  0  0  0  0  0  0  0  0  0  0  0
  197.3750  174.3750  137.8990 C   0  0  0  0  0  3  0  0  0  0  0  0
  197.0430  174.8860  136.6390 C   0  0  0  0  0  3  0  0  0  0  0  0
  196.3830  173.8210  138.7100 C   0  0  0  0  0  3  0  0  0  0  0  0
  195.0570  173.7770  138.2660 C   0  0  0  0  0  3  0  0  0  0  0  0
  1  6  1  1  0  0  0
  1  2  1  0  0  0  0
  2  4  1  6  0  0  0
  3  8  1  0  0  0  0
  3  4  2  0  0  0  0
  5 25  1  6  0  0  0
  5  7  1  0  0  0  0
  5  1  1  0  0  0  0
  6  2  1  0  0  0  0
  6 12  1  0  0  0  0
  7  3  1  0  0  0  0
  8  9  1  0  0  0  0
  9 11  1  0  0  0  0
 11 10  1  0  0  0  0
 12 14  1  0  0  0  0
 14 13  1  6  0  0  0
 14 15  1  0  0  0  0
 16 23  1  0  0  0  0
 16 17  1  0  0  0  0
 18 17  2  0  0  0  0
 19 16  2  0  0  0  0
 20 24  1  0  0  0  0
 21 20  2  0  0  0  0
 21 19  1  0  0  0  0
 22 15  1  6  0  0  0
 22 19  1  0  0  0  0
 22 18  1  0  0  0  0
 24 23  2  0  0  0  0
 26 33  1  0  0  0  0
 26 25  1  0  0  0  0
 28 27  1  6  0  0  0
 28 29  1  0  0  0  0
 28 33  1  0  0  0  0
 29 34  1  1  0  0  0
 29 31  1  0  0  0  0
 30 32  1  0  0  0  0
 30 33  1  0  0  0  0
 32 31  1  0  0  0  0
 34 36  2  0  0  0  0
 35 34  1  0  0  0  0
 35 38  1  0  0  0  0
 37 40  2  0  0  0  0
 37 38  1  0  0  0  0
 38 42  2  0  0  0  0
 39 41  2  0  0  0  0
 40 39  1  0  0  0  0
 42 41  1  0  0  0  0
M  END
>  <MODEL>
2

>  <REMARK>
 VINA RESULT:      -8.1      3.515      6.152
  Name = 
  12 active torsions:
  status: ('A' for Active; 'I' for Inactive)
    1  A    between atoms: C_7  and  C_8
    2  A    between atoms: N_11  and  C_19
    3  A    between atoms: C_12  and  C_29
    4  A    between atoms: S_15  and  C_29
    5  A    between atoms: S_15  and  C_32
    6  A    between atoms: C_18  and  C_26
    7  A    between atoms: C_18  and  N_35
    8  A    between atoms: S_22  and  C_26
    9  A    between atoms: S_22  and  C_31
   10  A    between atoms: N_30  and  C_40
   11  A    between atoms: C_34  and  C_39
   12  A    between atoms: C_39  and  C_40
                            x       y       z     vdW  Elec       q    Type
                         _______ _______ _______ _____ _____    ______ ____

>  <TORSDO>
F 12

$$$$
=
 OpenBabel10222420403D

 42 47  0  0  1  0  0  0  0  0999 V2000
  185.0690  175.7460  136.5050 C   0  0  2  0  0  3  0  0  0  0  0  0
  183.6300  175.5480  136.2090 C   0  0  1  0  0  3  0  0  0  0  0  0
  183.8980  173.1320  136.5380 C   0  0  0  0  0  0  0  0  0  0  0  0
  183.1370  174.1730  136.4060 N   0  0  0  0  0  0  0  0  0  0  0  0
  185.8350  174.5550  137.0760 C   0  0  1  0  0  3  0  0  0  0  0  0
  184.0470  176.1240  137.4980 N   0  0  0  0  0  0  0  0  0  0  0  0
  185.3090  173.2850  136.6050 N   0  0  0  0  0  2  0  0  0  0  0  0
  183.1620  171.5090  136.7090 S   0  0  0  0  0  0  0  0  0  0  0  0
  181.4710  172.1230  136.4390 C   0  0  0  0  0  2  0  0  0  0  0  0
  179.8030  173.2170  137.9110 C   0  0  0  0  0  1  0  0  0  0  0  0
  180.6560  171.9790  137.7100 C   0  0  0  0  0  2  0  0  0  0  0  0
  183.8440  177.5700  137.4080 C   0  0  0  0  0  2  0  0  0  0  0  0
  182.0430  176.9280  139.0990 C   0  0  0  0  0  1  0  0  0  0  0  0
  182.6770  178.0500  138.2840 C   0  0  1  0  0  3  0  0  0  0  0  0
  183.1820  179.4620  139.3330 S   0  0  0  0  0  0  0  0  0  0  0  0
  184.8090  179.2700  142.6040 C   0  0  0  0  0  0  0  0  0  0  0  0
  185.9090  179.4520  141.7450 N   0  0  0  0  0  0  0  0  0  0  0  0
  185.6240  178.9370  140.4620 N   0  0  0  0  0  0  0  0  0  0  0  0
  183.7660  178.7350  141.9210 C   0  0  0  0  0  0  0  0  0  0  0  0
  182.4080  178.8070  143.8980 C   0  0  0  0  0  3  0  0  0  0  0  0
  182.5400  178.4770  142.5370 C   0  0  0  0  0  3  0  0  0  0  0  0
  184.2070  178.5020  140.5170 C   0  0  1  0  0  3  0  0  0  0  0  0
  184.7070  179.6430  143.9440 C   0  0  0  0  0  3  0  0  0  0  0  0
  183.4840  179.3990  144.5970 C   0  0  0  0  0  3  0  0  0  0  0  0
  187.3160  174.6810  136.7930 C   0  0  0  0  0  2  0  0  0  0  0  0
  187.7260  176.1190  137.0630 C   0  0  0  0  0  2  0  0  0  0  0  0
  188.5040  178.5530  138.3960 C   0  0  0  0  0  1  0  0  0  0  0  0
  188.9230  177.1580  138.8780 C   0  0  2  0  0  3  0  0  0  0  0  0
  190.2590  177.2550  139.6430 C   0  0  2  0  0  3  0  0  0  0  0  0
  190.0660  176.5120  136.8640 C   0  0  0  0  0  2  0  0  0  0  0  0
  191.3200  176.3040  139.0820 C   0  0  0  0  0  2  0  0  0  0  0  0
  191.4340  176.4350  137.5560 C   0  0  0  0  0  2  0  0  0  0  0  0
  188.9910  176.1610  137.7920 N   0  0  0  0  0  0  0  0  0  0  0  0
  190.0470  176.9760  141.0940 C   0  0  0  0  0  0  0  0  0  0  0  0
  189.1660  177.8170  141.8540 N   0  0  0  0  0  2  0  0  0  0  0  0
  190.6440  176.0060  141.6280 O   0  0  0  0  0  0  0  0  0  0  0  0
  187.5850  177.2740  143.6260 C   0  0  0  0  0  3  0  0  0  0  0  0
  188.8600  177.7080  143.2490 C   0  0  0  0  0  0  0  0  0  0  0  0
  188.1790  177.4990  145.9630 C   0  0  0  0  0  3  0  0  0  0  0  0
  187.2430  177.1660  144.9780 C   0  0  0  0  0  3  0  0  0  0  0  0
  189.4500  177.9430  145.5950 C   0  0  0  0  0  3  0  0  0  0  0  0
  189.7910  178.0530  144.2420 C   0  0  0  0  0  3  0  0  0  0  0  0
  1  5  1  0  0  0  0
  1  6  1  1  0  0  0
  2  4  1  1  0  0  0
  2  1  1  0  0  0  0
  2  6  1  0  0  0  0
  3  7  1  0  0  0  0
  3  8  1  0  0  0  0
  4  3  2  0  0  0  0
  5 25  1  6  0  0  0
  7  5  1  0  0  0  0
  9  8  1  0  0  0  0
  9 11  1  0  0  0  0
 11 10  1  0  0  0  0
 12  6  1  0  0  0  0
 12 14  1  0  0  0  0
 14 13  1  1  0  0  0
 14 15  1  0  0  0  0
 16 23  1  0  0  0  0
 17 16  1  0  0  0  0
 18 22  1  0  0  0  0
 18 17  2  0  0  0  0
 19 21  1  0  0  0  0
 19 16  2  0  0  0  0
 20 24  1  0  0  0  0
 21 20  2  0  0  0  0
 22 15  1  6  0  0  0
 22 19  1  0  0  0  0
 23 24  2  0  0  0  0
 25 26  1  0  0  0  0
 26 33  1  0  0  0  0
 28 27  1  6  0  0  0
 28 29  1  0  0  0  0
 29 34  1  1  0  0  0
 30 32  1  0  0  0  0
 30 33  1  0  0  0  0
 31 29  1  0  0  0  0
 32 31  1  0  0  0  0
 33 28  1  0  0  0  0
 34 36  2  0  0  0  0
 34 35  1  0  0  0  0
 35 38  1  0  0  0  0
 37 40  1  0  0  0  0
 38 37  2  0  0  0  0
 38 42  1  0  0  0  0
 40 39  2  0  0  0  0
 41 39  1  0  0  0  0
 42 41  2  0  0  0  0
M  END
>  <MODEL>
3

>  <REMARK>
 VINA RESULT:      -8.0      1.882      3.102
  Name = 
  12 active torsions:
  status: ('A' for Active; 'I' for Inactive)
    1  A    between atoms: C_7  and  C_8
    2  A    between atoms: N_11  and  C_19
    3  A    between atoms: C_12  and  C_29
    4  A    between atoms: S_15  and  C_29
    5  A    between atoms: S_15  and  C_32
    6  A    between atoms: C_18  and  C_26
    7  A    between atoms: C_18  and  N_35
    8  A    between atoms: S_22  and  C_26
    9  A    between atoms: S_22  and  C_31
   10  A    between atoms: N_30  and  C_40
   11  A    between atoms: C_34  and  C_39
   12  A    between atoms: C_39  and  C_40
                            x       y       z     vdW  Elec       q    Type
                         _______ _______ _______ _____ _____    ______ ____

>  <TORSDO>
F 12

$$$$
=
 OpenBabel10222420403D

 42 47  0  0  1  0  0  0  0  0999 V2000
  188.5760  177.3570  138.7270 C   0  0  2  0  0  3  0  0  0  0  0  0
  189.5860  176.3440  139.1110 C   0  0  1  0  0  3  0  0  0  0  0  0
  190.3770  176.2580  136.7910 C   0  0  0  0  0  0  0  0  0  0  0  0
  190.5370  175.9770  138.0460 N   0  0  0  0  0  0  0  0  0  0  0  0
  188.7020  177.9780  137.3370 C   0  0  1  0  0  3  0  0  0  0  0  0
  189.7730  177.7530  139.4910 N   0  0  0  0  0  0  0  0  0  0  0  0
  189.2790  177.0570  136.3740 N   0  0  0  0  0  2  0  0  0  0  0  0
  191.5850  175.6960  135.5940 S   0  0  0  0  0  0  0  0  0  0  0  0
  192.1020  174.2800  136.6110 C   0  0  0  0  0  2  0  0  0  0  0  0
  194.1080  175.0430  137.8530 C   0  0  0  0  0  1  0  0  0  0  0  0
  193.6160  174.2150  136.6820 C   0  0  0  0  0  2  0  0  0  0  0  0
  189.3900  177.8720  140.8980 C   0  0  0  0  0  2  0  0  0  0  0  0
  191.8960  177.4840  141.1900 C   0  0  0  0  0  1  0  0  0  0  0  0
  190.5200  177.4470  141.8480 C   0  0  1  0  0  3  0  0  0  0  0  0
  190.4730  178.4140  143.4000 S   0  0  0  0  0  0  0  0  0  0  0  0
  189.4930  177.2540  146.7280 C   0  0  0  0  0  0  0  0  0  0  0  0
  190.8680  176.9500  146.7100 N   0  0  0  0  0  0  0  0  0  0  0  0
  191.3050  176.7190  145.3880 N   0  0  0  0  0  0  0  0  0  0  0  0
  189.0140  177.3250  145.4610 C   0  0  0  0  0  0  0  0  0  0  0  0
  186.8380  177.8980  146.2960 C   0  0  0  0  0  3  0  0  0  0  0  0
  187.6790  177.6370  145.1980 C   0  0  0  0  0  3  0  0  0  0  0  0
  190.1310  177.0060  144.5280 C   0  0  1  0  0  3  0  0  0  0  0  0
  188.7010  177.5390  147.8400 C   0  0  0  0  0  3  0  0  0  0  0  0
  187.3500  177.8600  147.6120 C   0  0  0  0  0  3  0  0  0  0  0  0
  187.3690  178.5140  136.8630 C   0  0  0  0  0  2  0  0  0  0  0  0
  186.6510  177.3990  136.1200 C   0  0  0  0  0  2  0  0  0  0  0  0
  185.3170  175.0130  137.0340 C   0  0  0  0  0  1  0  0  0  0  0  0
  184.8580  176.4300  137.4050 C   0  0  2  0  0  3  0  0  0  0  0  0
  183.3420  176.4230  137.6890 C   0  0  2  0  0  3  0  0  0  0  0  0
  184.4850  177.1880  135.1550 C   0  0  0  0  0  2  0  0  0  0  0  0
  182.5900  177.4600  136.8500 C   0  0  0  0  0  2  0  0  0  0  0  0
  182.9730  177.3590  135.3660 C   0  0  0  0  0  2  0  0  0  0  0  0
  185.2170  177.4440  136.3950 N   0  0  0  0  0  0  0  0  0  0  0  0
  183.0850  176.6650  139.1400 C   0  0  0  0  0  0  0  0  0  0  0  0
  183.6280  177.8360  139.7690 N   0  0  0  0  0  2  0  0  0  0  0  0
  182.3930  175.8380  139.7880 O   0  0  0  0  0  0  0  0  0  0  0  0
  184.6130  178.1060  141.9810 C   0  0  0  0  0  3  0  0  0  0  0  0
  183.4980  178.2160  141.1430 C   0  0  0  0  0  0  0  0  0  0  0  0
  183.3080  178.9150  143.8540 C   0  0  0  0  0  3  0  0  0  0  0  0
  184.5230  178.4560  143.3310 C   0  0  0  0  0  3  0  0  0  0  0  0
  182.1890  179.0190  143.0270 C   0  0  0  0  0  3  0  0  0  0  0  0
  182.2790  178.6660  141.6760 C   0  0  0  0  0  3  0  0  0  0  0  0
  1  2  1  0  0  0  0
  1  6  1  1  0  0  0
  2  4  1  6  0  0  0
  2  6  1  0  0  0  0
  3  4  2  0  0  0  0
  5 25  1  6  0  0  0
  5  1  1  0  0  0  0
  6 12  1  0  0  0  0
  7  3  1  0  0  0  0
  7  5  1  0  0  0  0
  8  9  1  0  0  0  0
  8  3  1  0  0  0  0
  9 11  1  0  0  0  0
 11 10  1  0  0  0  0
 12 14  1  0  0  0  0
 14 13  1  6  0  0  0
 14 15  1  0  0  0  0
 16 23  1  0  0  0  0
 17 16  1  0  0  0  0
 18 17  2  0  0  0  0
 19 16  2  0  0  0  0
 20 24  1  0  0  0  0
 21 19  1  0  0  0  0
 21 20  2  0  0  0  0
 22 15  1  6  0  0  0
 22 18  1  0  0  0  0
 22 19  1  0  0  0  0
 24 23  2  0  0  0  0
 26 33  1  0  0  0  0
 26 25  1  0  0  0  0
 28 27  1  6  0  0  0
 28 29  1  0  0  0  0
 29 34  1  1  0  0  0
 30 32  1  0  0  0  0
 30 33  1  0  0  0  0
 31 29  1  0  0  0  0
 32 31  1  0  0  0  0
 33 28  1  0  0  0  0
 34 35  1  0  0  0  0
 34 36  2  0  0  0  0
 35 38  1  0  0  0  0
 37 40  1  0  0  0  0
 38 42  1  0  0  0  0
 38 37  2  0  0  0  0
 40 39  2  0  0  0  0
 41 39  1  0  0  0  0
 42 41  2  0  0  0  0
M  END
>  <MODEL>
4

>  <REMARK>
 VINA RESULT:      -7.9      3.215      6.871
  Name = 
  12 active torsions:
  status: ('A' for Active; 'I' for Inactive)
    1  A    between atoms: C_7  and  C_8
    2  A    between atoms: N_11  and  C_19
    3  A    between atoms: C_12  and  C_29
    4  A    between atoms: S_15  and  C_29
    5  A    between atoms: S_15  and  C_32
    6  A    between atoms: C_18  and  C_26
    7  A    between atoms: C_18  and  N_35
    8  A    between atoms: S_22  and  C_26
    9  A    between atoms: S_22  and  C_31
   10  A    between atoms: N_30  and  C_40
   11  A    between atoms: C_34  and  C_39
   12  A    between atoms: C_39  and  C_40
                            x       y       z     vdW  Elec       q    Type
                         _______ _______ _______ _____ _____    ______ ____

>  <TORSDO>
F 12

$$$$
=
 OpenBabel10222420403D

 42 47  0  0  1  0  0  0  0  0999 V2000
  189.3790  177.9150  139.5520 C   0  0  2  0  0  3  0  0  0  0  0  0
  189.6430  177.8720  138.0950 C   0  0  1  0  0  3  0  0  0  0  0  0
  191.7580  176.7030  138.5140 C   0  0  0  0  0  0  0  0  0  0  0  0
  190.8280  177.0910  137.6990 N   0  0  0  0  0  0  0  0  0  0  0  0
  190.2810  177.0710  140.4500 C   0  0  1  0  0  3  0  0  0  0  0  0
  188.6300  176.9850  138.6890 N   0  0  0  0  0  0  0  0  0  0  0  0
  191.6230  176.9330  139.9090 N   0  0  0  0  0  2  0  0  0  0  0  0
  193.1770  175.8120  137.8840 S   0  0  0  0  0  0  0  0  0  0  0  0
  192.2860  175.1970  136.4240 C   0  0  0  0  0  2  0  0  0  0  0  0
  190.3660  173.6560  136.7140 C   0  0  0  0  0  1  0  0  0  0  0  0
  191.8770  173.7510  136.6340 C   0  0  0  0  0  2  0  0  0  0  0  0
  187.3220  177.5800  138.4130 C   0  0  0  0  0  2  0  0  0  0  0  0
  186.8540  175.5160  136.9860 C   0  0  0  0  0  1  0  0  0  0  0  0
  186.6890  177.0260  137.1280 C   0  0  1  0  0  3  0  0  0  0  0  0
  184.9400  177.5430  136.9810 S   0  0  0  0  0  0  0  0  0  0  0  0
  182.8070  179.0980  139.5130 C   0  0  0  0  0  0  0  0  0  0  0  0
  183.6310  180.1730  139.1310 N   0  0  0  0  0  0  0  0  0  0  0  0
  184.8800  179.6990  138.6730 N   0  0  0  0  0  0  0  0  0  0  0  0
  183.4210  177.9190  139.2420 C   0  0  0  0  0  0  0  0  0  0  0  0
  181.5060  176.7150  140.0440 C   0  0  0  0  0  3  0  0  0  0  0  0
  182.8050  176.6940  139.5030 C   0  0  0  0  0  3  0  0  0  0  0  0
  184.7670  178.2210  138.6790 C   0  0  1  0  0  3  0  0  0  0  0  0
  181.5080  179.1610  140.0170 C   0  0  0  0  0  3  0  0  0  0  0  0
  180.8550  177.9450  140.2900 C   0  0  0  0  0  3  0  0  0  0  0  0
  190.3050  177.6210  141.8600 C   0  0  0  0  0  2  0  0  0  0  0  0
  191.1060  176.6620  142.7260 C   0  0  0  0  0  2  0  0  0  0  0  0
  190.6070  179.1590  144.0770 C   0  0  0  0  0  1  0  0  0  0  0  0
  189.8120  177.8760  144.3560 C   0  0  2  0  0  3  0  0  0  0  0  0
  189.2730  177.9060  145.8010 C   0  0  2  0  0  3  0  0  0  0  0  0
  191.6900  176.5370  145.0300 C   0  0  0  0  0  2  0  0  0  0  0  0
  189.6730  176.6600  146.5950 C   0  0  0  0  0  2  0  0  0  0  0  0
  191.1770  176.3770  146.4690 C   0  0  0  0  0  2  0  0  0  0  0  0
  190.5780  176.6430  144.0870 N   0  0  0  0  0  0  0  0  0  0  0  0
  187.7870  178.0490  145.7980 C   0  0  0  0  0  0  0  0  0  0  0  0
  187.0990  178.2590  144.5560 N   0  0  0  0  0  2  0  0  0  0  0  0
  187.1600  177.9800  146.8870 O   0  0  0  0  0  0  0  0  0  0  0  0
  185.1530  178.2450  143.0900 C   0  0  0  0  0  3  0  0  0  0  0  0
  185.6900  178.4320  144.3680 C   0  0  0  0  0  0  0  0  0  0  0  0
  182.9430  178.7830  143.9190 C   0  0  0  0  0  3  0  0  0  0  0  0
  183.7850  178.4160  142.8630 C   0  0  0  0  0  3  0  0  0  0  0  0
  183.4720  178.9810  145.1950 C   0  0  0  0  0  3  0  0  0  0  0  0
  184.8420  178.8120  145.4210 C   0  0  0  0  0  3  0  0  0  0  0  0
  1  6  1  6  0  0  0
  1  5  1  0  0  0  0
  2  4  1  1  0  0  0
  2  6  1  0  0  0  0
  2  1  1  0  0  0  0
  3  7  1  0  0  0  0
  4  3  2  0  0  0  0
  5 25  1  1  0  0  0
  7  5  1  0  0  0  0
  8  3  1  0  0  0  0
  9 11  1  0  0  0  0
  9  8  1  0  0  0  0
 11 10  1  0  0  0  0
 12  6  1  0  0  0  0
 14 13  1  1  0  0  0
 14 12  1  0  0  0  0
 15 14  1  0  0  0  0
 16 23  1  0  0  0  0
 17 16  1  0  0  0  0
 18 22  1  0  0  0  0
 18 17  2  0  0  0  0
 19 21  1  0  0  0  0
 19 16  2  0  0  0  0
 20 24  1  0  0  0  0
 21 20  2  0  0  0  0
 22 15  1  6  0  0  0
 22 19  1  0  0  0  0
 23 24  2  0  0  0  0
 25 26  1  0  0  0  0
 26 33  1  0  0  0  0
 28 27  1  1  0  0  0
 28 29  1  0  0  0  0
 29 34  1  6  0  0  0
 29 31  1  0  0  0  0
 30 32  1  0  0  0  0
 32 31  1  0  0  0  0
 33 28  1  0  0  0  0
 33 30  1  0  0  0  0
 34 36  2  0  0  0  0
 35 34  1  0  0  0  0
 37 38  1  0  0  0  0
 38 35  1  0  0  0  0
 38 42  2  0  0  0  0
 39 41  2  0  0  0  0
 40 37  2  0  0  0  0
 40 39  1  0  0  0  0
 41 42  1  0  0  0  0
M  END
>  <MODEL>
5

>  <REMARK>
 VINA RESULT:      -7.8      2.846      7.307
  Name = 
  12 active torsions:
  status: ('A' for Active; 'I' for Inactive)
    1  A    between atoms: C_7  and  C_8
    2  A    between atoms: N_11  and  C_19
    3  A    between atoms: C_12  and  C_29
    4  A    between atoms: S_15  and  C_29
    5  A    between atoms: S_15  and  C_32
    6  A    between atoms: C_18  and  C_26
    7  A    between atoms: C_18  and  N_35
    8  A    between atoms: S_22  and  C_26
    9  A    between atoms: S_22  and  C_31
   10  A    between atoms: N_30  and  C_40
   11  A    between atoms: C_34  and  C_39
   12  A    between atoms: C_39  and  C_40
                            x       y       z     vdW  Elec       q    Type
                         _______ _______ _______ _____ _____    ______ ____

>  <TORSDO>
F 12

$$$$
=
 OpenBabel10222420403D

 42 47  0  0  1  0  0  0  0  0999 V2000
  184.9870  176.9340  137.3150 C   0  0  2  0  0  3  0  0  0  0  0  0
  183.6490  177.5410  137.1200 C   0  0  1  0  0  3  0  0  0  0  0  0
  182.7810  175.3750  136.3630 C   0  0  0  0  0  0  0  0  0  0  0  0
  182.5800  176.5910  136.7680 N   0  0  0  0  0  0  0  0  0  0  0  0
  185.0810  175.4120  137.2410 C   0  0  1  0  0  3  0  0  0  0  0  0
  184.1440  177.2630  138.4780 N   0  0  0  0  0  0  0  0  0  0  0  0
  184.0970  174.8430  136.3360 N   0  0  0  0  0  2  0  0  0  0  0  0
  181.3860  174.3480  135.9080 S   0  0  0  0  0  0  0  0  0  0  0  0
  181.0830  173.8050  137.6170 C   0  0  0  0  0  2  0  0  0  0  0  0
  180.4080  175.1070  139.6150 C   0  0  0  0  0  1  0  0  0  0  0  0
  179.9780  174.6360  138.2400 C   0  0  0  0  0  2  0  0  0  0  0  0
  184.6140  178.5330  139.0320 C   0  0  0  0  0  2  0  0  0  0  0  0
  182.2920  179.2660  139.7970 C   0  0  0  0  0  1  0  0  0  0  0  0
  183.7430  179.0180  140.2000 C   0  0  1  0  0  3  0  0  0  0  0  0
  183.8750  177.8880  141.6330 S   0  0  0  0  0  0  0  0  0  0  0  0
  185.1020  178.6170  145.0010 C   0  0  0  0  0  0  0  0  0  0  0  0
  183.8370  179.2350  145.0150 N   0  0  0  0  0  0  0  0  0  0  0  0
  183.4660  179.6280  143.7110 N   0  0  0  0  0  0  0  0  0  0  0  0
  185.5510  178.5000  143.7260 C   0  0  0  0  0  0  0  0  0  0  0  0
  187.5320  177.3920  144.5050 C   0  0  0  0  0  3  0  0  0  0  0  0
  186.7750  177.8970  143.4310 C   0  0  0  0  0  3  0  0  0  0  0  0
  184.5390  179.1180  142.8240 C   0  0  1  0  0  3  0  0  0  0  0  0
  185.8060  178.0990  146.0870 C   0  0  0  0  0  3  0  0  0  0  0  0
  187.0440  177.4820  145.8280 C   0  0  0  0  0  3  0  0  0  0  0  0
  186.4840  174.9750  136.8810 C   0  0  0  0  0  2  0  0  0  0  0  0
  187.2960  176.2190  136.5580 C   0  0  0  0  0  2  0  0  0  0  0  0
  188.6010  178.6900  137.2620 C   0  0  0  0  0  1  0  0  0  0  0  0
  188.7760  177.3890  138.0560 C   0  0  2  0  0  3  0  0  0  0  0  0
  190.1500  177.3930  138.7570 C   0  0  2  0  0  3  0  0  0  0  0  0
  189.6510  176.0820  136.2390 C   0  0  0  0  0  2  0  0  0  0  0  0
  190.9750  176.1470  138.4250 C   0  0  0  0  0  2  0  0  0  0  0  0
  191.0200  175.8960  136.9100 C   0  0  0  0  0  2  0  0  0  0  0  0
  188.5880  176.1750  137.2380 N   0  0  0  0  0  0  0  0  0  0  0  0
  189.9780  177.5050  140.2360 C   0  0  0  0  0  0  0  0  0  0  0  0
  191.1230  177.3870  141.0920 N   0  0  0  0  0  2  0  0  0  0  0  0
  188.8280  177.7040  140.7080 O   0  0  0  0  0  0  0  0  0  0  0  0
  191.2920  176.2650  143.2480 C   0  0  0  0  0  3  0  0  0  0  0  0
  191.1420  177.4510  142.5230 C   0  0  0  0  0  0  0  0  0  0  0  0
  191.1580  177.4980  145.3280 C   0  0  0  0  0  3  0  0  0  0  0  0
  191.3030  176.2840  144.6460 C   0  0  0  0  0  3  0  0  0  0  0  0
  190.9990  178.6850  144.6120 C   0  0  0  0  0  3  0  0  0  0  0  0
  190.9850  178.6640  143.2130 C   0  0  0  0  0  3  0  0  0  0  0  0
  1  6  1  1  0  0  0
  2  4  1  6  0  0  0
  2  1  1  0  0  0  0
  2  6  1  0  0  0  0
  3  4  2  0  0  0  0
  5 25  1  6  0  0  0
  5  1  1  0  0  0  0
  6 12  1  0  0  0  0
  7  3  1  0  0  0  0
  7  5  1  0  0  0  0
  8  3  1  0  0  0  0
  8  9  1  0  0  0  0
  9 11  1  0  0  0  0
 11 10  1  0  0  0  0
 12 14  1  0  0  0  0
 14 13  1  6  0  0  0
 14 15  1  0  0  0  0
 16 17  1  0  0  0  0
 16 23  1  0  0  0  0
 18 17  2  0  0  0  0
 19 16  2  0  0  0  0
 20 24  1  0  0  0  0
 21 19  1  0  0  0  0
 21 20  2  0  0  0  0
 22 15  1  6  0  0  0
 22 18  1  0  0  0  0
 22 19  1  0  0  0  0
 24 23  2  0  0  0  0
 26 25  1  0  0  0  0
 26 33  1  0  0  0  0
 28 27  1  6  0  0  0
 28 29  1  0  0  0  0
 29 34  1  1  0  0  0
 30 32  1  0  0  0  0
 30 33  1  0  0  0  0
 31 29  1  0  0  0  0
 32 31  1  0  0  0  0
 33 28  1  0  0  0  0
 34 36  2  0  0  0  0
 34 35  1  0  0  0  0
 35 38  1  0  0  0  0
 37 40  1  0  0  0  0
 38 42  1  0  0  0  0
 38 37  2  0  0  0  0
 40 39  2  0  0  0  0
 41 39  1  0  0  0  0
 42 41  2  0  0  0  0
M  END
>  <MODEL>
6

>  <REMARK>
 VINA RESULT:      -7.7      1.302      2.021
  Name = 
  12 active torsions:
  status: ('A' for Active; 'I' for Inactive)
    1  A    between atoms: C_7  and  C_8
    2  A    between atoms: N_11  and  C_19
    3  A    between atoms: C_12  and  C_29
    4  A    between atoms: S_15  and  C_29
    5  A    between atoms: S_15  and  C_32
    6  A    between atoms: C_18  and  C_26
    7  A    between atoms: C_18  and  N_35
    8  A    between atoms: S_22  and  C_26
    9  A    between atoms: S_22  and  C_31
   10  A    between atoms: N_30  and  C_40
   11  A    between atoms: C_34  and  C_39
   12  A    between atoms: C_39  and  C_40
                            x       y       z     vdW  Elec       q    Type
                         _______ _______ _______ _____ _____    ______ ____

>  <TORSDO>
F 12

$$$$
=
 OpenBabel10222420403D

 42 47  0  0  1  0  0  0  0  0999 V2000
  184.3760  178.3960  139.5560 C   0  0  2  0  0  3  0  0  0  0  0  0
  183.3390  179.2370  140.1980 C   0  0  1  0  0  3  0  0  0  0  0  0
  181.9590  179.0710  138.1770 C   0  0  0  0  0  0  0  0  0  0  0  0
  182.0900  179.3810  139.4300 N   0  0  0  0  0  0  0  0  0  0  0  0
  183.9990  177.6960  138.2530 C   0  0  1  0  0  3  0  0  0  0  0  0
  183.5170  177.8370  140.6150 N   0  0  0  0  0  0  0  0  0  0  0  0
  183.0310  178.4550  137.4800 N   0  0  0  0  0  2  0  0  0  0  0  0
  180.3960  179.3570  137.3510 S   0  0  0  0  0  0  0  0  0  0  0  0
  179.9810  180.7930  138.3860 C   0  0  0  0  0  2  0  0  0  0  0  0
  180.7810  182.0870  136.4300 C   0  0  0  0  0  1  0  0  0  0  0  0
  179.7250  182.0070  137.5140 C   0  0  0  0  0  2  0  0  0  0  0  0
  184.2740  177.8550  141.8670 C   0  0  0  0  0  2  0  0  0  0  0  0
  182.6590  178.7310  143.6390 C   0  0  0  0  0  1  0  0  0  0  0  0
  183.8770  179.0310  142.7720 C   0  0  1  0  0  3  0  0  0  0  0  0
  185.3030  179.6060  143.7640 S   0  0  0  0  0  0  0  0  0  0  0  0
  187.6750  177.5990  145.6950 C   0  0  0  0  0  0  0  0  0  0  0  0
  187.9360  177.1690  144.3800 N   0  0  0  0  0  0  0  0  0  0  0  0
  186.7840  177.3070  143.5770 N   0  0  0  0  0  0  0  0  0  0  0  0
  186.4180  178.1030  145.7800 C   0  0  0  0  0  0  0  0  0  0  0  0
  186.7640  178.6250  148.0970 C   0  0  0  0  0  3  0  0  0  0  0  0
  185.9150  178.6230  146.9740 C   0  0  0  0  0  3  0  0  0  0  0  0
  185.7760  177.9660  144.4420 C   0  0  1  0  0  3  0  0  0  0  0  0
  188.5570  177.6150  146.7740 C   0  0  0  0  0  3  0  0  0  0  0  0
  188.0850  178.1330  147.9950 C   0  0  0  0  0  3  0  0  0  0  0  0
  185.2330  177.3760  137.4360 C   0  0  0  0  0  2  0  0  0  0  0  0
  186.4200  178.0660  138.0880 C   0  0  0  0  0  2  0  0  0  0  0  0
  188.9960  179.1930  137.4540 C   0  0  0  0  0  1  0  0  0  0  0  0
  188.8120  177.9700  138.3620 C   0  0  2  0  0  3  0  0  0  0  0  0
  190.0750  177.0870  138.3020 C   0  0  2  0  0  3  0  0  0  0  0  0
  187.7080  176.5900  136.7340 C   0  0  0  0  0  2  0  0  0  0  0  0
  189.7520  175.6360  137.9370 C   0  0  0  0  0  2  0  0  0  0  0  0
  188.8480  175.5620  136.6970 C   0  0  0  0  0  2  0  0  0  0  0  0
  187.5930  177.1950  138.0600 N   0  0  0  0  0  0  0  0  0  0  0  0
  190.8020  177.1310  139.6060 C   0  0  0  0  0  0  0  0  0  0  0  0
  190.0540  177.1840  140.8300 N   0  0  0  0  0  2  0  0  0  0  0  0
  192.0600  177.1170  139.6100 O   0  0  0  0  0  0  0  0  0  0  0  0
  190.8660  176.0510  142.8280 C   0  0  0  0  0  3  0  0  0  0  0  0
  190.5810  177.2470  142.1600 C   0  0  0  0  0  0  0  0  0  0  0  0
  191.5870  177.2910  144.7790 C   0  0  0  0  0  3  0  0  0  0  0  0
  191.3690  176.0690  144.1320 C   0  0  0  0  0  3  0  0  0  0  0  0
  191.2960  178.4890  144.1230 C   0  0  0  0  0  3  0  0  0  0  0  0
  190.7900  178.4690  142.8190 C   0  0  0  0  0  3  0  0  0  0  0  0
  1  2  1  0  0  0  0
  1  6  1  1  0  0  0
  2  4  1  6  0  0  0
  2  6  1  0  0  0  0
  3  4  2  0  0  0  0
  5 25  1  6  0  0  0
  5  1  1  0  0  0  0
  6 12  1  0  0  0  0
  7  3  1  0  0  0  0
  7  5  1  0  0  0  0
  8  3  1  0  0  0  0
  8  9  1  0  0  0  0
 10 11  1  0  0  0  0
 11  9  1  0  0  0  0
 12 14  1  0  0  0  0
 14 13  1  1  0  0  0
 14 15  1  0  0  0  0
 16 19  2  0  0  0  0
 16 23  1  0  0  0  0
 17 16  1  0  0  0  0
 18 17  2  0  0  0  0
 18 22  1  0  0  0  0
 19 21  1  0  0  0  0
 21 20  2  0  0  0  0
 22 15  1  6  0  0  0
 22 19  1  0  0  0  0
 23 24  2  0  0  0  0
 24 20  1  0  0  0  0
 25 26  1  0  0  0  0
 28 27  1  6  0  0  0
 29 28  1  0  0  0  0
 29 34  1  1  0  0  0
 30 33  1  0  0  0  0
 31 29  1  0  0  0  0
 32 30  1  0  0  0  0
 32 31  1  0  0  0  0
 33 26  1  0  0  0  0
 33 28  1  0  0  0  0
 34 36  2  0  0  0  0
 34 35  1  0  0  0  0
 35 38  1  0  0  0  0
 37 40  1  0  0  0  0
 38 42  1  0  0  0  0
 38 37  2  0  0  0  0
 40 39  2  0  0  0  0
 41 39  1  0  0  0  0
 42 41  2  0  0  0  0
M  END
>  <MODEL>
7

>  <REMARK>
 VINA RESULT:      -7.7      2.093      3.553
  Name = 
  12 active torsions:
  status: ('A' for Active; 'I' for Inactive)
    1  A    between atoms: C_7  and  C_8
    2  A    between atoms: N_11  and  C_19
    3  A    between atoms: C_12  and  C_29
    4  A    between atoms: S_15  and  C_29
    5  A    between atoms: S_15  and  C_32
    6  A    between atoms: C_18  and  C_26
    7  A    between atoms: C_18  and  N_35
    8  A    between atoms: S_22  and  C_26
    9  A    between atoms: S_22  and  C_31
   10  A    between atoms: N_30  and  C_40
   11  A    between atoms: C_34  and  C_39
   12  A    between atoms: C_39  and  C_40
                            x       y       z     vdW  Elec       q    Type
                         _______ _______ _______ _____ _____    ______ ____

>  <TORSDO>
F 12

$$$$
=
 OpenBabel10222420403D

 42 47  0  0  1  0  0  0  0  0999 V2000
  188.1710  178.0040  136.9660 C   0  0  2  0  0  3  0  0  0  0  0  0
  189.5020  178.1630  137.5960 C   0  0  1  0  0  3  0  0  0  0  0  0
  188.4480  178.1870  139.8110 C   0  0  0  0  0  0  0  0  0  0  0  0
  189.5070  178.0960  139.0680 N   0  0  0  0  0  0  0  0  0  0  0  0
  186.9960  177.6830  137.8870 C   0  0  1  0  0  3  0  0  0  0  0  0
  189.1020  176.8640  137.0330 N   0  0  0  0  0  0  0  0  0  0  0  0
  187.1620  178.2560  139.2110 N   0  0  0  0  0  2  0  0  0  0  0  0
  188.6080  178.1520  141.5940 S   0  0  0  0  0  0  0  0  0  0  0  0
  190.2060  177.2850  141.5470 C   0  0  0  0  0  2  0  0  0  0  0  0
  188.8680  176.0030  143.1940 C   0  0  0  0  0  1  0  0  0  0  0  0
  190.2600  176.2340  142.6390 C   0  0  0  0  0  2  0  0  0  0  0  0
  189.7580  176.7390  135.7310 C   0  0  0  0  0  2  0  0  0  0  0  0
  191.8000  175.6570  134.6480 C   0  0  0  0  0  1  0  0  0  0  0  0
  190.6590  175.4990  135.6480 C   0  0  1  0  0  3  0  0  0  0  0  0
  191.2610  175.0130  137.3070 S   0  0  0  0  0  0  0  0  0  0  0  0
  194.7540  174.3450  138.1680 C   0  0  0  0  0  0  0  0  0  0  0  0
  194.5620  175.6290  138.7130 N   0  0  0  0  0  0  0  0  0  0  0  0
  193.5670  176.3270  137.9960 N   0  0  0  0  0  0  0  0  0  0  0  0
  193.8610  174.1230  137.1710 C   0  0  0  0  0  0  0  0  0  0  0  0
  194.7290  171.9080  136.8590 C   0  0  0  0  0  3  0  0  0  0  0  0
  193.8190  172.9120  136.4780 C   0  0  0  0  0  3  0  0  0  0  0  0
  193.0400  175.3560  137.0050 C   0  0  1  0  0  3  0  0  0  0  0  0
  195.6470  173.3640  138.5970 C   0  0  0  0  0  3  0  0  0  0  0  0
  195.6330  172.1290  137.9220 C   0  0  0  0  0  3  0  0  0  0  0  0
  185.6860  178.1080  137.2590 C   0  0  0  0  0  2  0  0  0  0  0  0
  184.5730  177.2920  137.8960 C   0  0  0  0  0  2  0  0  0  0  0  0
  182.4540  176.1190  139.4590 C   0  0  0  0  0  1  0  0  0  0  0  0
  183.1010  177.4700  139.7950 C   0  0  2  0  0  3  0  0  0  0  0  0
  182.0880  178.3520  140.5540 C   0  0  2  0  0  3  0  0  0  0  0  0
  182.5590  178.5500  137.7170 C   0  0  0  0  0  2  0  0  0  0  0  0
  181.8990  179.7190  139.8930 C   0  0  0  0  0  2  0  0  0  0  0  0
  181.6350  179.5770  138.3860 C   0  0  0  0  0  2  0  0  0  0  0  0
  183.6480  178.1650  138.6140 N   0  0  0  0  0  0  0  0  0  0  0  0
  182.5190  178.5320  141.9730 C   0  0  0  0  0  0  0  0  0  0  0  0
  183.8830  178.2700  142.3360 N   0  0  0  0  0  2  0  0  0  0  0  0
  181.6780  178.9140  142.8270 O   0  0  0  0  0  0  0  0  0  0  0  0
  185.7560  177.8800  143.8440 C   0  0  0  0  0  3  0  0  0  0  0  0
  184.4630  178.3730  143.6410 C   0  0  0  0  0  0  0  0  0  0  0  0
  185.6530  178.5150  146.1780 C   0  0  0  0  0  3  0  0  0  0  0  0
  186.3530  177.9510  145.1060 C   0  0  0  0  0  3  0  0  0  0  0  0
  184.3580  179.0010  145.9870 C   0  0  0  0  0  3  0  0  0  0  0  0
  183.7610  178.9270  144.7240 C   0  0  0  0  0  3  0  0  0  0  0  0
  1  6  1  6  0  0  0
  1  2  1  0  0  0  0
  1  5  1  0  0  0  0
  2  4  1  1  0  0  0
  3  8  1  0  0  0  0
  4  3  2  0  0  0  0
  5 25  1  6  0  0  0
  5  7  1  0  0  0  0
  6  2  1  0  0  0  0
  7  3  1  0  0  0  0
  9  8  1  0  0  0  0
  9 11  1  0  0  0  0
 11 10  1  0  0  0  0
 12  6  1  0  0  0  0
 14 13  1  6  0  0  0
 14 12  1  0  0  0  0
 14 15  1  0  0  0  0
 16 23  1  0  0  0  0
 16 17  1  0  0  0  0
 18 17  2  0  0  0  0
 19 16  2  0  0  0  0
 20 24  1  0  0  0  0
 21 20  2  0  0  0  0
 21 19  1  0  0  0  0
 22 19  1  0  0  0  0
 22 15  1  1  0  0  0
 22 18  1  0  0  0  0
 24 23  2  0  0  0  0
 25 26  1  0  0  0  0
 26 33  1  0  0  0  0
 28 27  1  6  0  0  0
 28 29  1  0  0  0  0
 29 34  1  1  0  0  0
 30 32  1  0  0  0  0
 30 33  1  0  0  0  0
 31 29  1  0  0  0  0
 32 31  1  0  0  0  0
 33 28  1  0  0  0  0
 34 35  1  0  0  0  0
 34 36  2  0  0  0  0
 35 38  1  0  0  0  0
 37 40  1  0  0  0  0
 38 37  2  0  0  0  0
 38 42  1  0  0  0  0
 40 39  2  0  0  0  0
 41 39  1  0  0  0  0
 42 41  2  0  0  0  0
M  END
>  <MODEL>
8

>  <REMARK>
 VINA RESULT:      -7.4      3.624      8.791
  Name = 
  12 active torsions:
  status: ('A' for Active; 'I' for Inactive)
    1  A    between atoms: C_7  and  C_8
    2  A    between atoms: N_11  and  C_19
    3  A    between atoms: C_12  and  C_29
    4  A    between atoms: S_15  and  C_29
    5  A    between atoms: S_15  and  C_32
    6  A    between atoms: C_18  and  C_26
    7  A    between atoms: C_18  and  N_35
    8  A    between atoms: S_22  and  C_26
    9  A    between atoms: S_22  and  C_31
   10  A    between atoms: N_30  and  C_40
   11  A    between atoms: C_34  and  C_39
   12  A    between atoms: C_39  and  C_40
                            x       y       z     vdW  Elec       q    Type
                         _______ _______ _______ _____ _____    ______ ____

>  <TORSDO>
F 12

$$$$
=
 OpenBabel10222420403D

 42 47  0  0  1  0  0  0  0  0999 V2000
  184.4360  178.6880  139.4190 C   0  0  2  0  0  3  0  0  0  0  0  0
  183.2870  179.3880  140.0400 C   0  0  1  0  0  3  0  0  0  0  0  0
  181.7560  178.2060  138.5320 C   0  0  0  0  0  0  0  0  0  0  0  0
  181.9610  178.9340  139.5850 N   0  0  0  0  0  0  0  0  0  0  0  0
  184.1210  177.5240  138.4820 C   0  0  1  0  0  3  0  0  0  0  0  0
  183.9700  178.3030  140.7640 N   0  0  0  0  0  0  0  0  0  0  0  0
  182.8560  177.7020  137.7890 N   0  0  0  0  0  2  0  0  0  0  0  0
  180.0820  177.7790  138.0600 S   0  0  0  0  0  0  0  0  0  0  0  0
  180.3830  175.9900  138.1800 C   0  0  0  0  0  2  0  0  0  0  0  0
  179.5130  174.0730  139.4900 C   0  0  0  0  0  1  0  0  0  0  0  0
  179.1300  175.2820  138.6580 C   0  0  0  0  0  2  0  0  0  0  0  0
  184.8550  178.9320  141.7450 C   0  0  0  0  0  2  0  0  0  0  0  0
  187.4040  178.9470  141.8830 C   0  0  0  0  0  1  0  0  0  0  0  0
  186.1310  178.1130  141.9880 C   0  0  1  0  0  3  0  0  0  0  0  0
  186.0340  177.2020  143.5730 S   0  0  0  0  0  0  0  0  0  0  0  0
  186.4940  178.4870  146.9670 C   0  0  0  0  0  0  0  0  0  0  0  0
  185.2090  178.9660  146.6490 N   0  0  0  0  0  0  0  0  0  0  0  0
  185.0800  179.1460  145.2540 N   0  0  0  0  0  0  0  0  0  0  0  0
  187.1990  178.2530  145.8330 C   0  0  0  0  0  0  0  0  0  0  0  0
  189.0600  177.4670  147.1280 C   0  0  0  0  0  3  0  0  0  0  0  0
  188.5000  177.7470  145.8680 C   0  0  0  0  0  3  0  0  0  0  0  0
  186.3470  178.6390  144.6730 C   0  0  1  0  0  3  0  0  0  0  0  0
  187.0000  178.1900  148.2320 C   0  0  0  0  0  3  0  0  0  0  0  0
  188.3080  177.6770  148.3070 C   0  0  0  0  0  3  0  0  0  0  0  0
  185.2580  177.2920  137.5100 C   0  0  0  0  0  2  0  0  0  0  0  0
  186.4800  178.0310  138.0310 C   0  0  0  0  0  2  0  0  0  0  0  0
  189.0560  179.1780  137.4340 C   0  0  0  0  0  1  0  0  0  0  0  0
  188.8710  177.9350  138.3140 C   0  0  2  0  0  3  0  0  0  0  0  0
  190.1360  177.0560  138.2390 C   0  0  2  0  0  3  0  0  0  0  0  0
  187.7780  176.5890  136.6490 C   0  0  0  0  0  2  0  0  0  0  0  0
  189.8190  175.6130  137.8400 C   0  0  0  0  0  2  0  0  0  0  0  0
  188.9200  175.5650  136.5950 C   0  0  0  0  0  2  0  0  0  0  0  0
  187.6550  177.1640  137.9890 N   0  0  0  0  0  0  0  0  0  0  0  0
  190.8570  177.0710  139.5470 C   0  0  0  0  0  0  0  0  0  0  0  0
  190.1050  177.0190  140.7690 N   0  0  0  0  0  2  0  0  0  0  0  0
  192.1140  177.1280  139.5570 O   0  0  0  0  0  0  0  0  0  0  0  0
  191.0790  178.2550  142.6290 C   0  0  0  0  0  3  0  0  0  0  0  0
  190.6240  177.0410  142.1030 C   0  0  0  0  0  0  0  0  0  0  0  0
  191.6820  177.1540  144.7000 C   0  0  0  0  0  3  0  0  0  0  0  0
  191.6040  178.3160  143.9230 C   0  0  0  0  0  3  0  0  0  0  0  0
  191.2390  175.9370  144.1790 C   0  0  0  0  0  3  0  0  0  0  0  0
  190.7160  175.8760  142.8830 C   0  0  0  0  0  3  0  0  0  0  0  0
  1  2  1  0  0  0  0
  1  6  1  1  0  0  0
  2  4  1  6  0  0  0
  2  6  1  0  0  0  0
  3  4  2  0  0  0  0
  5 25  1  6  0  0  0
  5  1  1  0  0  0  0
  6 12  1  0  0  0  0
  7  5  1  0  0  0  0
  7  3  1  0  0  0  0
  8  9  1  0  0  0  0
  8  3  1  0  0  0  0
  9 11  1  0  0  0  0
 11 10  1  0  0  0  0
 12 14  1  0  0  0  0
 14 13  1  1  0  0  0
 14 15  1  0  0  0  0
 16 23  1  0  0  0  0
 17 16  1  0  0  0  0
 18 17  2  0  0  0  0
 19 21  1  0  0  0  0
 19 16  2  0  0  0  0
 20 24  1  0  0  0  0
 21 20  2  0  0  0  0
 22 15  1  6  0  0  0
 22 18  1  0  0  0  0
 22 19  1  0  0  0  0
 23 24  2  0  0  0  0
 25 26  1  0  0  0  0
 28 27  1  6  0  0  0
 29 28  1  0  0  0  0
 29 34  1  1  0  0  0
 30 33  1  0  0  0  0
 31 29  1  0  0  0  0
 32 30  1  0  0  0  0
 32 31  1  0  0  0  0
 33 26  1  0  0  0  0
 33 28  1  0  0  0  0
 34 36  2  0  0  0  0
 34 35  1  0  0  0  0
 35 38  1  0  0  0  0
 37 40  1  0  0  0  0
 38 37  2  0  0  0  0
 38 42  1  0  0  0  0
 40 39  2  0  0  0  0
 41 39  1  0  0  0  0
 42 41  2  0  0  0  0
M  END
>  <MODEL>
9

>  <REMARK>
 VINA RESULT:      -7.4      1.860      2.662
  Name = 
  12 active torsions:
  status: ('A' for Active; 'I' for Inactive)
    1  A    between atoms: C_7  and  C_8
    2  A    between atoms: N_11  and  C_19
    3  A    between atoms: C_12  and  C_29
    4  A    between atoms: S_15  and  C_29
    5  A    between atoms: S_15  and  C_32
    6  A    between atoms: C_18  and  C_26
    7  A    between atoms: C_18  and  N_35
    8  A    between atoms: S_22  and  C_26
    9  A    between atoms: S_22  and  C_31
   10  A    between atoms: N_30  and  C_40
   11  A    between atoms: C_34  and  C_39
   12  A    between atoms: C_39  and  C_40
                            x       y       z     vdW  Elec       q    Type
                         _______ _______ _______ _____ _____    ______ ____

>  <TORSDO>
F 12

$$$$
