=
 OpenBabel10222418183D

 34 37  0  0  1  0  0  0  0  0999 V2000
  183.8050  177.0020  138.1840 C   0  0  0  0  0  0  0  0  0  0  0  0
  183.4860  175.9630  135.8960 C   0  0  1  0  0  3  0  0  0  0  0  0
  180.3840  175.4310  137.5800 C   0  0  0  0  0  0  0  0  0  0  0  0
  179.6290  174.7290  139.8930 C   0  0  2  0  0  3  0  0  0  0  0  0
  182.3910  176.5830  138.5550 C   0  0  1  0  0  3  0  0  0  0  0  0
  179.5180  173.1490  137.9180 C   0  0  0  0  0  1  0  0  0  0  0  0
  180.0510  177.2450  139.9620 C   0  0  2  0  0  3  0  0  0  0  0  0
  181.8700  175.3250  137.8300 C   0  0  2  0  0  3  0  0  0  0  0  0
  179.4120  174.5980  138.3720 C   0  0  2  0  0  3  0  0  0  0  0  0
  185.5930  179.5710  141.6460 O   0  0  0  0  0  0  0  0  0  0  0  0
  178.9310  173.7280  140.5730 O   0  0  0  0  0  1  0  0  0  0  0  0
  179.9570  176.2110  136.7440 O   0  0  0  0  0  0  0  0  0  0  0  0
  182.1740  176.3680  140.0570 C   0  0  0  0  0  2  0  0  0  0  0  0
  179.1750  176.0840  140.4400 C   0  0  0  0  0  2  0  0  0  0  0  0
  185.8480  178.2320  138.6260 C   0  0  0  0  0  0  0  0  0  0  0  0
  184.6110  177.8010  139.0140 C   0  0  0  0  0  0  0  0  0  0  0  0
  184.3140  176.7170  136.8890 C   0  0  0  0  0  0  0  0  0  0  0  0
  185.4540  178.9690  140.5500 C   0  0  0  0  0  0  0  0  0  0  0  0
  186.4100  178.9780  139.5890 N   0  0  0  0  0  2  0  0  0  0  0  0
  181.2950  177.3140  140.6250 O   0  0  0  0  0  0  0  0  0  0  0  0
  185.5930  177.1720  136.5020 C   0  0  0  0  0  3  0  0  0  0  0  0
  184.3360  178.2670  140.2440 N   0  0  0  0  0  2  0  0  0  0  0  0
  182.7130  174.8610  136.6210 C   0  0  1  0  0  3  0  0  0  0  0  0
  186.3810  177.9350  137.3770 C   0  0  0  0  0  3  0  0  0  0  0  0
  181.3060  174.1650  134.8090 O   0  0  0  0  0  0  0  0  0  0  0  0
  183.2350  171.9520  136.9910 C   0  0  0  0  0  1  0  0  0  0  0  0
  182.3580  172.4320  135.9360 N   0  0  0  0  0  2  0  0  0  0  0  0
  182.0900  173.8200  135.7320 C   0  0  0  0  0  0  0  0  0  0  0  0
  182.6000  176.8850  135.1680 C   0  0  0  0  0  0  0  0  0  0  0  0
  181.9050  177.6110  134.5950 N   0  0  0  0  0  0  0  0  0  0  0  0
  179.3080  178.5750  140.0730 C   0  0  0  0  0  2  0  0  0  0  0  0
  180.2310  179.7440  140.3980 C   0  0  0  0  0  2  0  0  0  0  0  0
  180.0600  180.5240  142.6360 O   0  0  0  0  0  1  0  0  0  0  0  0
  179.5510  180.7070  141.3520 C   0  0  0  0  0  2  0  0  0  0  0  0
  1  5  1  0  0  0  0
  1 16  1  0  0  0  0
  2 29  1  1  0  0  0
  2 23  1  0  0  0  0
  2 17  1  0  0  0  0
  3  9  1  0  0  0  0
  4 14  1  0  0  0  0
  4 11  1  1  0  0  0
  5 13  1  1  0  0  0
  7 31  1  1  0  0  0
  7 14  1  0  0  0  0
  7 20  1  0  0  0  0
  8  3  1  6  0  0  0
  8  5  1  0  0  0  0
  9  6  1  6  0  0  0
  9  4  1  0  0  0  0
 12  3  2  0  0  0  0
 13 20  1  0  0  0  0
 15 16  2  0  0  0  0
 15 19  1  0  0  0  0
 16 22  1  0  0  0  0
 17  1  2  0  0  0  0
 18 10  2  0  0  0  0
 19 18  1  0  0  0  0
 21 17  1  0  0  0  0
 21 24  2  0  0  0  0
 22 18  1  0  0  0  0
 23 28  1  6  0  0  0
 23  8  1  0  0  0  0
 24 15  1  0  0  0  0
 25 28  2  0  0  0  0
 27 26  1  0  0  0  0
 28 27  1  0  0  0  0
 30 29  3  0  0  0  0
 31 32  1  0  0  0  0
 32 34  1  0  0  0  0
 34 33  1  0  0  0  0
M  END
>  <MODEL>
1

>  <REMARK>
 VINA RESULT:      -5.0      0.000      0.000
  Name = 
  5 active torsions:
  status: ('A' for Active; 'I' for Inactive)
    1  A    between atoms: C_2  and  C_8
    2  A    between atoms: C_9  and  C_11
    3  A    between atoms: C_9  and  C_29
    4  A    between atoms: C_16  and  C_32
    5  A    between atoms: C_29  and  C_33
                            x       y       z     vdW  Elec       q    Type
                         _______ _______ _______ _____ _____    ______ ____

>  <TORSDO>
F 5

$$$$
=
 OpenBabel10222418183D

 34 37  0  0  1  0  0  0  0  0999 V2000
  185.5040  177.9160  139.3930 C   0  0  0  0  0  0  0  0  0  0  0  0
  187.4280  177.5680  137.7830 C   0  0  1  0  0  3  0  0  0  0  0  0
  184.4940  176.9340  135.8500 C   0  0  0  0  0  0  0  0  0  0  0  0
  182.2930  175.7210  136.1670 C   0  0  2  0  0  3  0  0  0  0  0  0
  184.5290  177.5640  138.2810 C   0  0  1  0  0  3  0  0  0  0  0  0
  184.1600  174.7500  134.7600 C   0  0  0  0  0  1  0  0  0  0  0  0
  182.0140  178.0680  137.1320 C   0  0  2  0  0  3  0  0  0  0  0  0
  185.0810  176.6090  137.2030 C   0  0  2  0  0  3  0  0  0  0  0  0
  183.4720  176.0270  135.2200 C   0  0  2  0  0  3  0  0  0  0  0  0
  183.1010  179.2590  143.1620 O   0  0  0  0  0  0  0  0  0  0  0  0
  181.5370  174.6550  135.6760 O   0  0  0  0  0  1  0  0  0  0  0  0
  184.8310  177.9510  135.2640 O   0  0  0  0  0  0  0  0  0  0  0  0
  183.2000  176.9790  138.7720 C   0  0  0  0  0  2  0  0  0  0  0  0
  181.3620  176.9210  136.3560 C   0  0  0  0  0  2  0  0  0  0  0  0
  185.9870  178.7590  141.6150 C   0  0  0  0  0  0  0  0  0  0  0  0
  185.0920  178.3730  140.6580 C   0  0  0  0  0  0  0  0  0  0  0  0
  186.9000  177.9360  139.1340 C   0  0  0  0  0  0  0  0  0  0  0  0
  184.0480  178.9910  142.3780 C   0  0  0  0  0  0  0  0  0  0  0  0
  185.3480  179.1560  142.7250 N   0  0  0  0  0  2  0  0  0  0  0  0
  182.1000  177.8250  138.5190 O   0  0  0  0  0  0  0  0  0  0  0  0
  187.8120  178.3400  140.1330 C   0  0  0  0  0  3  0  0  0  0  0  0
  183.8410  178.5190  141.1240 N   0  0  0  0  0  2  0  0  0  0  0  0
  186.6120  176.4000  137.2270 C   0  0  1  0  0  3  0  0  0  0  0  0
  187.3600  178.7540  141.3960 C   0  0  0  0  0  3  0  0  0  0  0  0
  187.6140  176.3810  135.0490 O   0  0  0  0  0  0  0  0  0  0  0  0
  186.8470  173.4340  137.0760 C   0  0  0  0  0  1  0  0  0  0  0  0
  187.3080  174.2830  135.9890 N   0  0  0  0  0  2  0  0  0  0  0  0
  187.2110  175.7070  136.0330 C   0  0  0  0  0  0  0  0  0  0  0  0
  187.4090  178.7400  136.8930 C   0  0  0  0  0  0  0  0  0  0  0  0
  187.3940  179.6610  136.1930 N   0  0  0  0  0  0  0  0  0  0  0  0
  181.2990  179.3900  136.8600 C   0  0  0  0  0  2  0  0  0  0  0  0
  180.9050  180.1230  138.1370 C   0  0  0  0  0  2  0  0  0  0  0  0
  183.0170  180.9830  138.8090 O   0  0  0  0  0  1  0  0  0  0  0  0
  181.7640  181.3580  138.3260 C   0  0  0  0  0  2  0  0  0  0  0  0
  1 16  1  0  0  0  0
  2 29  1  6  0  0  0
  2 17  1  0  0  0  0
  4 11  1  6  0  0  0
  4 14  1  0  0  0  0
  5 13  1  1  0  0  0
  5  1  1  0  0  0  0
  7 31  1  1  0  0  0
  7 20  1  0  0  0  0
  8  3  1  6  0  0  0
  8 23  1  0  0  0  0
  8  5  1  0  0  0  0
  9  6  1  1  0  0  0
  9  3  1  0  0  0  0
  9  4  1  0  0  0  0
 12  3  2  0  0  0  0
 14  7  1  0  0  0  0
 15 19  1  0  0  0  0
 16 22  1  0  0  0  0
 16 15  2  0  0  0  0
 17  1  2  0  0  0  0
 17 21  1  0  0  0  0
 18 19  1  0  0  0  0
 18 10  2  0  0  0  0
 20 13  1  0  0  0  0
 21 24  2  0  0  0  0
 22 18  1  0  0  0  0
 23 28  1  6  0  0  0
 23  2  1  0  0  0  0
 24 15  1  0  0  0  0
 25 28  2  0  0  0  0
 27 28  1  0  0  0  0
 27 26  1  0  0  0  0
 30 29  3  0  0  0  0
 31 32  1  0  0  0  0
 32 34  1  0  0  0  0
 34 33  1  0  0  0  0
M  END
>  <MODEL>
2

>  <REMARK>
 VINA RESULT:      -4.5      2.891      4.219
  Name = 
  5 active torsions:
  status: ('A' for Active; 'I' for Inactive)
    1  A    between atoms: C_2  and  C_8
    2  A    between atoms: C_9  and  C_11
    3  A    between atoms: C_9  and  C_29
    4  A    between atoms: C_16  and  C_32
    5  A    between atoms: C_29  and  C_33
                            x       y       z     vdW  Elec       q    Type
                         _______ _______ _______ _____ _____    ______ ____

>  <TORSDO>
F 5

$$$$
=
 OpenBabel10222418183D

 34 37  0  0  1  0  0  0  0  0999 V2000
  183.2120  178.2840  140.9210 C   0  0  0  0  0  0  0  0  0  0  0  0
  180.7000  178.5960  140.8400 C   0  0  1  0  0  3  0  0  0  0  0  0
  181.5690  177.3520  137.6090 C   0  0  0  0  0  0  0  0  0  0  0  0
  183.3950  177.7530  135.8990 C   0  0  2  0  0  3  0  0  0  0  0  0
  183.1840  177.8020  139.4790 C   0  0  1  0  0  3  0  0  0  0  0  0
  181.0510  178.6560  135.5840 C   0  0  0  0  0  1  0  0  0  0  0  0
  184.2860  176.0500  137.5790 C   0  0  2  0  0  3  0  0  0  0  0  0
  182.0360  178.3720  138.6200 C   0  0  2  0  0  3  0  0  0  0  0  0
  181.8900  177.5190  136.1480 C   0  0  2  0  0  3  0  0  0  0  0  0
  187.5430  177.8270  142.5990 O   0  0  0  0  0  0  0  0  0  0  0  0
  183.6090  178.2020  134.5950 O   0  0  0  0  0  1  0  0  0  0  0  0
  180.9430  176.3700  137.9730 O   0  0  0  0  0  0  0  0  0  0  0  0
  184.4890  178.0400  138.7120 C   0  0  0  0  0  2  0  0  0  0  0  0
  184.2310  176.4900  136.1140 C   0  0  0  0  0  2  0  0  0  0  0  0
  184.3570  178.6240  143.0320 C   0  0  0  0  0  0  0  0  0  0  0  0
  184.3730  178.2610  141.7150 C   0  0  0  0  0  0  0  0  0  0  0  0
  182.0030  178.6430  141.5740 C   0  0  0  0  0  0  0  0  0  0  0  0
  186.3110  178.0660  142.5130 C   0  0  0  0  0  0  0  0  0  0  0  0
  185.5820  178.5110  143.5660 N   0  0  0  0  0  2  0  0  0  0  0  0
  185.1490  176.8420  138.3670 O   0  0  0  0  0  0  0  0  0  0  0  0
  182.0030  179.0130  142.9360 C   0  0  0  0  0  3  0  0  0  0  0  0
  185.6160  177.8940  141.3630 N   0  0  0  0  0  2  0  0  0  0  0  0
  180.9130  179.0850  139.4070 C   0  0  1  0  0  3  0  0  0  0  0  0
  183.1920  179.0130  143.6830 C   0  0  0  0  0  3  0  0  0  0  0  0
  178.9350  178.4700  138.2010 O   0  0  0  0  0  0  0  0  0  0  0  0
  180.0740  181.8870  138.8380 C   0  0  0  0  0  1  0  0  0  0  0  0
  179.2830  180.7560  138.3820 N   0  0  0  0  0  2  0  0  0  0  0  0
  179.6580  179.4020  138.6410 C   0  0  0  0  0  0  0  0  0  0  0  0
  180.1350  177.2380  140.8920 C   0  0  0  0  0  0  0  0  0  0  0  0
  179.6900  176.1710  140.9320 N   0  0  0  0  0  0  0  0  0  0  0  0
  184.6550  174.5730  137.6950 C   0  0  0  0  0  2  0  0  0  0  0  0
  183.6240  173.6520  137.0530 C   0  0  0  0  0  2  0  0  0  0  0  0
  183.4770  171.2820  137.1480 O   0  0  0  0  0  1  0  0  0  0  0  0
  184.2590  172.3310  136.6660 C   0  0  0  0  0  2  0  0  0  0  0  0
  1 17  2  0  0  0  0
  1 16  1  0  0  0  0
  2 29  1  6  0  0  0
  2 17  1  0  0  0  0
  3 12  2  0  0  0  0
  4 11  1  6  0  0  0
  4 14  1  0  0  0  0
  4  9  1  0  0  0  0
  5 13  1  6  0  0  0
  5  1  1  0  0  0  0
  7 31  1  6  0  0  0
  7 20  1  0  0  0  0
  8  3  1  1  0  0  0
  8 23  1  0  0  0  0
  8  5  1  0  0  0  0
  9  6  1  1  0  0  0
  9  3  1  0  0  0  0
 14  7  1  0  0  0  0
 15 19  1  0  0  0  0
 15 24  1  0  0  0  0
 16 15  2  0  0  0  0
 17 21  1  0  0  0  0
 18 10  2  0  0  0  0
 18 19  1  0  0  0  0
 20 13  1  0  0  0  0
 21 24  2  0  0  0  0
 22 16  1  0  0  0  0
 22 18  1  0  0  0  0
 23 28  1  6  0  0  0
 23  2  1  0  0  0  0
 25 28  2  0  0  0  0
 27 28  1  0  0  0  0
 27 26  1  0  0  0  0
 29 30  3  0  0  0  0
 32 31  1  0  0  0  0
 34 32  1  0  0  0  0
 34 33  1  0  0  0  0
M  END
>  <MODEL>
3

>  <REMARK>
 VINA RESULT:      -4.3      2.733      6.160
  Name = 
  5 active torsions:
  status: ('A' for Active; 'I' for Inactive)
    1  A    between atoms: C_2  and  C_8
    2  A    between atoms: C_9  and  C_11
    3  A    between atoms: C_9  and  C_29
    4  A    between atoms: C_16  and  C_32
    5  A    between atoms: C_29  and  C_33
                            x       y       z     vdW  Elec       q    Type
                         _______ _______ _______ _____ _____    ______ ____

>  <TORSDO>
F 5

$$$$
=
 OpenBabel10222418183D

 34 37  0  0  1  0  0  0  0  0999 V2000
  181.4220  174.5770  137.1960 C   0  0  0  0  0  0  0  0  0  0  0  0
  179.4130  176.1150  137.3120 C   0  0  1  0  0  3  0  0  0  0  0  0
  182.2370  178.2780  137.6150 C   0  0  0  0  0  0  0  0  0  0  0  0
  184.4530  178.2700  138.8400 C   0  0  2  0  0  3  0  0  0  0  0  0
  182.3350  175.7810  137.3640 C   0  0  1  0  0  3  0  0  0  0  0  0
  182.5130  179.7060  139.6040 C   0  0  0  0  0  1  0  0  0  0  0  0
  184.7810  176.9740  136.6660 C   0  0  2  0  0  3  0  0  0  0  0  0
  181.7250  176.9610  138.1490 C   0  0  2  0  0  3  0  0  0  0  0  0
  183.2240  179.0940  138.4050 C   0  0  2  0  0  3  0  0  0  0  0  0
  184.0270  170.7830  136.4200 O   0  0  0  0  0  0  0  0  0  0  0  0
  185.1830  178.9590  139.8120 O   0  0  0  0  0  1  0  0  0  0  0  0
  181.8670  178.6830  136.5240 O   0  0  0  0  0  0  0  0  0  0  0  0
  183.6890  175.4580  138.0040 C   0  0  0  0  0  2  0  0  0  0  0  0
  185.3920  177.9500  137.6750 C   0  0  0  0  0  2  0  0  0  0  0  0
  181.0600  172.2300  136.7060 C   0  0  0  0  0  0  0  0  0  0  0  0
  181.9020  173.2820  136.9330 C   0  0  0  0  0  0  0  0  0  0  0  0
  180.0130  174.7550  137.1500 C   0  0  0  0  0  0  0  0  0  0  0  0
  183.0390  171.5460  136.5740 C   0  0  0  0  0  0  0  0  0  0  0  0
  181.7590  171.1080  136.4770 N   0  0  0  0  0  2  0  0  0  0  0  0
  184.7730  175.6380  137.1190 O   0  0  0  0  0  0  0  0  0  0  0  0
  179.1570  173.6570  136.9120 C   0  0  0  0  0  3  0  0  0  0  0  0
  183.1760  172.8660  136.8480 N   0  0  0  0  0  2  0  0  0  0  0  0
  180.1980  176.8870  138.3740 C   0  0  1  0  0  3  0  0  0  0  0  0
  179.6770  172.3720  136.6920 C   0  0  0  0  0  3  0  0  0  0  0  0
  179.1630  179.0280  138.0740 O   0  0  0  0  0  0  0  0  0  0  0  0
  179.7640  177.3740  141.2800 C   0  0  0  0  0  1  0  0  0  0  0  0
  179.3430  178.3440  140.2830 N   0  0  0  0  0  2  0  0  0  0  0  0
  179.5360  178.1380  138.8830 C   0  0  0  0  0  0  0  0  0  0  0  0
  179.3810  176.8150  136.0190 C   0  0  0  0  0  0  0  0  0  0  0  0
  179.3550  177.3650  135.0010 N   0  0  0  0  0  0  0  0  0  0  0  0
  185.4790  177.0790  135.3110 C   0  0  0  0  0  2  0  0  0  0  0  0
  186.7780  177.8740  135.3740 C   0  0  0  0  0  2  0  0  0  0  0  0
  188.2070  176.1580  136.1890 O   0  0  0  0  0  1  0  0  0  0  0  0
  187.9650  176.9750  135.0860 C   0  0  0  0  0  2  0  0  0  0  0  0
  1  5  1  0  0  0  0
  2 29  1  6  0  0  0
  2 23  1  0  0  0  0
  3  9  1  0  0  0  0
  4 11  1  1  0  0  0
  5 13  1  1  0  0  0
  5  8  1  0  0  0  0
  7 31  1  6  0  0  0
  7 20  1  0  0  0  0
  7 14  1  0  0  0  0
  8  3  1  6  0  0  0
  8 23  1  0  0  0  0
  9  4  1  0  0  0  0
  9  6  1  1  0  0  0
 10 18  2  0  0  0  0
 12  3  2  0  0  0  0
 14  4  1  0  0  0  0
 15 16  1  0  0  0  0
 16  1  2  0  0  0  0
 17  1  1  0  0  0  0
 17  2  1  0  0  0  0
 18 22  1  0  0  0  0
 19 18  1  0  0  0  0
 19 15  1  0  0  0  0
 20 13  1  0  0  0  0
 21 17  2  0  0  0  0
 22 16  1  0  0  0  0
 23 28  1  6  0  0  0
 24 15  2  0  0  0  0
 24 21  1  0  0  0  0
 25 28  2  0  0  0  0
 27 26  1  0  0  0  0
 28 27  1  0  0  0  0
 30 29  3  0  0  0  0
 31 32  1  0  0  0  0
 34 32  1  0  0  0  0
 34 33  1  0  0  0  0
M  END
>  <MODEL>
4

>  <REMARK>
 VINA RESULT:      -4.3      2.727      6.749
  Name = 
  5 active torsions:
  status: ('A' for Active; 'I' for Inactive)
    1  A    between atoms: C_2  and  C_8
    2  A    between atoms: C_9  and  C_11
    3  A    between atoms: C_9  and  C_29
    4  A    between atoms: C_16  and  C_32
    5  A    between atoms: C_29  and  C_33
                            x       y       z     vdW  Elec       q    Type
                         _______ _______ _______ _____ _____    ______ ____

>  <TORSDO>
F 5

$$$$
=
 OpenBabel10222418183D

 34 37  0  0  1  0  0  0  0  0999 V2000
  185.8680  177.7400  139.0830 C   0  0  0  0  0  0  0  0  0  0  0  0
  187.2950  176.9380  137.1510 C   0  0  1  0  0  3  0  0  0  0  0  0
  183.9320  176.6230  135.9950 C   0  0  0  0  0  0  0  0  0  0  0  0
  181.7190  175.8210  136.9300 C   0  0  2  0  0  3  0  0  0  0  0  0
  184.6200  177.4540  138.2620 C   0  0  1  0  0  3  0  0  0  0  0  0
  183.0520  174.4340  135.2840 C   0  0  0  0  0  1  0  0  0  0  0  0
  182.0030  178.2590  137.6320 C   0  0  2  0  0  3  0  0  0  0  0  0
  184.7670  176.3280  137.2180 C   0  0  2  0  0  3  0  0  0  0  0  0
  182.6740  175.8430  135.7190 C   0  0  2  0  0  3  0  0  0  0  0  0
  184.6220  179.7910  143.0870 O   0  0  0  0  0  0  0  0  0  0  0  0
  180.7280  174.8530  136.7510 O   0  0  0  0  0  1  0  0  0  0  0  0
  184.2600  177.5140  135.2270 O   0  0  0  0  0  0  0  0  0  0  0  0
  183.3750  177.1410  139.0990 C   0  0  0  0  0  2  0  0  0  0  0  0
  181.0340  177.1690  137.1660 C   0  0  0  0  0  2  0  0  0  0  0  0
  186.9690  178.6880  141.0250 C   0  0  0  0  0  0  0  0  0  0  0  0
  185.8310  178.3700  140.3400 C   0  0  0  0  0  0  0  0  0  0  0  0
  187.1540  177.5070  138.5270 C   0  0  0  0  0  0  0  0  0  0  0  0
  185.3130  179.3020  142.1550 C   0  0  0  0  0  0  0  0  0  0  0  0
  186.6680  179.2830  142.1890 N   0  0  0  0  0  2  0  0  0  0  0  0
  182.3750  178.1300  138.9870 O   0  0  0  0  0  0  0  0  0  0  0  0
  188.3210  177.8450  139.2460 C   0  0  0  0  0  3  0  0  0  0  0  0
  184.7560  178.7600  141.0450 N   0  0  0  0  0  2  0  0  0  0  0  0
  186.2170  175.8740  136.9350 C   0  0  1  0  0  3  0  0  0  0  0  0
  188.2380  178.4380  140.5160 C   0  0  0  0  0  3  0  0  0  0  0  0
  186.6180  175.4970  134.6010 O   0  0  0  0  0  0  0  0  0  0  0  0
  186.1160  172.9040  137.1320 C   0  0  0  0  0  1  0  0  0  0  0  0
  186.3620  173.5670  135.8620 N   0  0  0  0  0  2  0  0  0  0  0  0
  186.4180  174.9880  135.7360 C   0  0  0  0  0  0  0  0  0  0  0  0
  187.2320  178.0120  136.1470 C   0  0  0  0  0  0  0  0  0  0  0  0
  187.1840  178.8560  135.3570 N   0  0  0  0  0  0  0  0  0  0  0  0
  181.4350  179.6500  137.3590 C   0  0  0  0  0  2  0  0  0  0  0  0
  181.8960  180.6870  138.3770 C   0  0  0  0  0  2  0  0  0  0  0  0
  180.4380  180.5570  140.2510 O   0  0  0  0  0  1  0  0  0  0  0  0
  180.7040  181.2910  139.0960 C   0  0  0  0  0  2  0  0  0  0  0  0
  1 16  1  0  0  0  0
  2 29  1  6  0  0  0
  2 17  1  0  0  0  0
  4 11  1  6  0  0  0
  4 14  1  0  0  0  0
  5  1  1  0  0  0  0
  5 13  1  1  0  0  0
  7 31  1  1  0  0  0
  7 20  1  0  0  0  0
  8  3  1  6  0  0  0
  8  5  1  0  0  0  0
  9  6  1  1  0  0  0
  9  3  1  0  0  0  0
  9  4  1  0  0  0  0
 12  3  2  0  0  0  0
 14  7  1  0  0  0  0
 15 19  1  0  0  0  0
 16 15  2  0  0  0  0
 16 22  1  0  0  0  0
 17  1  2  0  0  0  0
 17 21  1  0  0  0  0
 18 19  1  0  0  0  0
 18 10  2  0  0  0  0
 20 13  1  0  0  0  0
 21 24  2  0  0  0  0
 22 18  1  0  0  0  0
 23 28  1  6  0  0  0
 23  2  1  0  0  0  0
 23  8  1  0  0  0  0
 24 15  1  0  0  0  0
 25 28  2  0  0  0  0
 27 26  1  0  0  0  0
 28 27  1  0  0  0  0
 30 29  3  0  0  0  0
 31 32  1  0  0  0  0
 32 34  1  0  0  0  0
 34 33  1  0  0  0  0
M  END
>  <MODEL>
5

>  <REMARK>
 VINA RESULT:      -4.2      2.448      3.540
  Name = 
  5 active torsions:
  status: ('A' for Active; 'I' for Inactive)
    1  A    between atoms: C_2  and  C_8
    2  A    between atoms: C_9  and  C_11
    3  A    between atoms: C_9  and  C_29
    4  A    between atoms: C_16  and  C_32
    5  A    between atoms: C_29  and  C_33
                            x       y       z     vdW  Elec       q    Type
                         _______ _______ _______ _____ _____    ______ ____

>  <TORSDO>
F 5

$$$$
=
 OpenBabel10222418183D

 34 37  0  0  1  0  0  0  0  0999 V2000
  187.7150  176.7790  137.4390 C   0  0  0  0  0  0  0  0  0  0  0  0
  188.5200  174.9790  135.8500 C   0  0  1  0  0  3  0  0  0  0  0  0
  191.1870  175.3940  138.1870 C   0  0  0  0  0  0  0  0  0  0  0  0
  192.3720  177.3230  139.3220 C   0  0  2  0  0  3  0  0  0  0  0  0
  189.0280  176.6770  138.1980 C   0  0  1  0  0  3  0  0  0  0  0  0
  193.4370  176.0400  137.4180 C   0  0  0  0  0  1  0  0  0  0  0  0
  190.2940  176.7870  140.7040 C   0  0  2  0  0  3  0  0  0  0  0  0
  190.2380  176.2240  137.3540 C   0  0  2  0  0  3  0  0  0  0  0  0
  192.5130  175.9540  138.6240 C   0  0  2  0  0  3  0  0  0  0  0  0
  184.8720  179.7120  139.6980 O   0  0  0  0  0  0  0  0  0  0  0  0
  193.6180  177.9440  139.4350 O   0  0  0  0  0  1  0  0  0  0  0  0
  190.8750  174.2640  138.5290 O   0  0  0  0  0  0  0  0  0  0  0  0
  189.4350  177.9630  138.9250 C   0  0  0  0  0  2  0  0  0  0  0  0
  191.7640  177.2120  140.7220 C   0  0  0  0  0  2  0  0  0  0  0  0
  185.4400  177.5900  137.2180 C   0  0  0  0  0  0  0  0  0  0  0  0
  186.6390  177.5750  137.8720 C   0  0  0  0  0  0  0  0  0  0  0  0
  187.4720  175.9380  136.3200 C   0  0  0  0  0  0  0  0  0  0  0  0
  185.3230  178.8860  138.8620 C   0  0  0  0  0  0  0  0  0  0  0  0
  184.5810  178.4210  137.8270 N   0  0  0  0  0  2  0  0  0  0  0  0
  189.4180  177.8290  140.3290 O   0  0  0  0  0  0  0  0  0  0  0  0
  186.2260  175.9640  135.6570 C   0  0  0  0  0  3  0  0  0  0  0  0
  186.5840  178.3960  138.9330 N   0  0  0  0  0  2  0  0  0  0  0  0
  189.8940  175.6410  135.9650 C   0  0  1  0  0  3  0  0  0  0  0  0
  185.1920  176.8020  136.1000 C   0  0  0  0  0  3  0  0  0  0  0  0
  191.0510  173.6810  135.2120 O   0  0  0  0  0  0  0  0  0  0  0  0
  192.0780  177.1380  134.6010 C   0  0  0  0  0  1  0  0  0  0  0  0
  192.0450  175.6850  134.5970 N   0  0  0  0  0  2  0  0  0  0  0  0
  191.0100  174.9390  135.2400 C   0  0  0  0  0  0  0  0  0  0  0  0
  188.4370  173.7220  136.6090 C   0  0  0  0  0  0  0  0  0  0  0  0
  188.3740  172.7330  137.2060 N   0  0  0  0  0  0  0  0  0  0  0  0
  189.8780  176.1920  142.0480 C   0  0  0  0  0  2  0  0  0  0  0  0
  190.8270  176.5690  143.1800 C   0  0  0  0  0  2  0  0  0  0  0  0
  191.2550  178.5960  144.3440 O   0  0  0  0  0  1  0  0  0  0  0  0
  190.2440  177.6980  144.0080 C   0  0  0  0  0  2  0  0  0  0  0  0
  1 16  1  0  0  0  0
  1  5  1  0  0  0  0
  2 23  1  0  0  0  0
  2 17  1  0  0  0  0
  2 29  1  1  0  0  0
  3 12  2  0  0  0  0
  3  9  1  0  0  0  0
  4 11  1  1  0  0  0
  4 14  1  0  0  0  0
  5 13  1  6  0  0  0
  7 14  1  0  0  0  0
  7 31  1  1  0  0  0
  8  3  1  1  0  0  0
  8  5  1  0  0  0  0
  9  6  1  6  0  0  0
  9  4  1  0  0  0  0
 13 20  1  0  0  0  0
 15 19  1  0  0  0  0
 15 16  2  0  0  0  0
 16 22  1  0  0  0  0
 17  1  2  0  0  0  0
 18 22  1  0  0  0  0
 18 10  2  0  0  0  0
 19 18  1  0  0  0  0
 20  7  1  0  0  0  0
 21 24  2  0  0  0  0
 21 17  1  0  0  0  0
 23 28  1  1  0  0  0
 23  8  1  0  0  0  0
 24 15  1  0  0  0  0
 25 28  2  0  0  0  0
 27 26  1  0  0  0  0
 27 28  1  0  0  0  0
 29 30  3  0  0  0  0
 31 32  1  0  0  0  0
 32 34  1  0  0  0  0
 34 33  1  0  0  0  0
M  END
>  <MODEL>
6

>  <REMARK>
 VINA RESULT:      -4.2      5.234      8.902
  Name = 
  5 active torsions:
  status: ('A' for Active; 'I' for Inactive)
    1  A    between atoms: C_2  and  C_8
    2  A    between atoms: C_9  and  C_11
    3  A    between atoms: C_9  and  C_29
    4  A    between atoms: C_16  and  C_32
    5  A    between atoms: C_29  and  C_33
                            x       y       z     vdW  Elec       q    Type
                         _______ _______ _______ _____ _____    ______ ____

>  <TORSDO>
F 5

$$$$
=
 OpenBabel10222418183D

 34 37  0  0  1  0  0  0  0  0999 V2000
  183.7240  177.8380  139.8380 C   0  0  0  0  0  0  0  0  0  0  0  0
  182.9580  176.5180  137.8170 C   0  0  1  0  0  3  0  0  0  0  0  0
  186.4590  177.0050  137.3160 C   0  0  0  0  0  0  0  0  0  0  0  0
  188.1240  178.8930  137.5900 C   0  0  2  0  0  3  0  0  0  0  0  0
  185.1370  177.8490  139.2770 C   0  0  1  0  0  3  0  0  0  0  0  0
  187.2860  178.1750  135.3110 C   0  0  0  0  0  1  0  0  0  0  0  0
  187.8840  177.7550  139.8620 C   0  0  2  0  0  3  0  0  0  0  0  0
  185.2320  177.7770  137.7390 C   0  0  2  0  0  3  0  0  0  0  0  0
  187.6430  177.7150  136.7170 C   0  0  2  0  0  3  0  0  0  0  0  0
  183.7540  179.7660  144.0890 O   0  0  0  0  0  0  0  0  0  0  0  0
  189.0070  179.7020  136.8710 O   0  0  0  0  0  1  0  0  0  0  0  0
  186.5070  175.7950  137.4750 O   0  0  0  0  0  0  0  0  0  0  0  0
  185.9840  179.0430  139.7310 C   0  0  0  0  0  2  0  0  0  0  0  0
  188.8300  178.4320  138.8670 C   0  0  0  0  0  2  0  0  0  0  0  0
  182.1390  178.2440  141.6280 C   0  0  0  0  0  0  0  0  0  0  0  0
  183.4010  178.3360  141.1130 C   0  0  0  0  0  0  0  0  0  0  0  0
  182.6850  177.1730  139.1340 C   0  0  0  0  0  0  0  0  0  0  0  0
  183.3710  179.1930  143.0350 C   0  0  0  0  0  0  0  0  0  0  0  0
  182.0910  178.7860  142.8540 N   0  0  0  0  0  2  0  0  0  0  0  0
  187.0630  178.6670  140.5590 O   0  0  0  0  0  0  0  0  0  0  0  0
  181.3870  177.0840  139.6820 C   0  0  0  0  0  3  0  0  0  0  0  0
  184.2090  178.9370  142.0020 N   0  0  0  0  0  2  0  0  0  0  0  0
  183.9240  177.3900  137.0130 C   0  0  1  0  0  3  0  0  0  0  0  0
  181.0980  177.6290  140.9430 C   0  0  0  0  0  3  0  0  0  0  0  0
  184.9650  176.2730  135.1650 O   0  0  0  0  0  0  0  0  0  0  0  0
  182.0700  178.5000  134.9620 C   0  0  0  0  0  1  0  0  0  0  0  0
  183.1430  177.5910  134.5950 N   0  0  0  0  0  2  0  0  0  0  0  0
  184.0460  177.0410  135.5550 C   0  0  0  0  0  0  0  0  0  0  0  0
  183.4710  175.1550  138.0220 C   0  0  0  0  0  0  0  0  0  0  0  0
  183.8740  174.0830  138.1850 N   0  0  0  0  0  0  0  0  0  0  0  0
  188.6570  176.8710  140.8380 C   0  0  0  0  0  2  0  0  0  0  0  0
  188.4160  177.2470  142.2960 C   0  0  0  0  0  2  0  0  0  0  0  0
  190.0330  175.5490  142.6800 O   0  0  0  0  0  1  0  0  0  0  0  0
  188.8900  176.1390  143.2150 C   0  0  0  0  0  2  0  0  0  0  0  0
  1 16  1  0  0  0  0
  2 29  1  1  0  0  0
  2 17  1  0  0  0  0
  3 12  2  0  0  0  0
  4 11  1  6  0  0  0
  4 14  1  0  0  0  0
  5 13  1  6  0  0  0
  5  1  1  0  0  0  0
  7 20  1  0  0  0  0
  7 31  1  1  0  0  0
  8  3  1  1  0  0  0
  8  5  1  0  0  0  0
  9  6  1  6  0  0  0
  9  3  1  0  0  0  0
  9  4  1  0  0  0  0
 13 20  1  0  0  0  0
 14  7  1  0  0  0  0
 15 19  1  0  0  0  0
 16 15  2  0  0  0  0
 16 22  1  0  0  0  0
 17 21  1  0  0  0  0
 17  1  2  0  0  0  0
 18 10  2  0  0  0  0
 19 18  1  0  0  0  0
 21 24  2  0  0  0  0
 22 18  1  0  0  0  0
 23 28  1  6  0  0  0
 23  8  1  0  0  0  0
 23  2  1  0  0  0  0
 24 15  1  0  0  0  0
 25 28  2  0  0  0  0
 27 26  1  0  0  0  0
 27 28  1  0  0  0  0
 29 30  3  0  0  0  0
 31 32  1  0  0  0  0
 32 34  1  0  0  0  0
 33 34  1  0  0  0  0
M  END
>  <MODEL>
7

>  <REMARK>
 VINA RESULT:      -4.1      2.989      6.589
  Name = 
  5 active torsions:
  status: ('A' for Active; 'I' for Inactive)
    1  A    between atoms: C_2  and  C_8
    2  A    between atoms: C_9  and  C_11
    3  A    between atoms: C_9  and  C_29
    4  A    between atoms: C_16  and  C_32
    5  A    between atoms: C_29  and  C_33
                            x       y       z     vdW  Elec       q    Type
                         _______ _______ _______ _____ _____    ______ ____

>  <TORSDO>
F 5

$$$$
=
 OpenBabel10222418183D

 34 37  0  0  1  0  0  0  0  0999 V2000
  185.7220  177.6720  138.9750 C   0  0  0  0  0  0  0  0  0  0  0  0
  186.8980  176.6290  136.9880 C   0  0  1  0  0  3  0  0  0  0  0  0
  183.4340  176.5810  136.1270 C   0  0  0  0  0  0  0  0  0  0  0  0
  181.2440  176.0520  137.2850 C   0  0  2  0  0  3  0  0  0  0  0  0
  184.3880  177.4650  138.2750 C   0  0  1  0  0  3  0  0  0  0  0  0
  182.2970  174.4530  135.6280 C   0  0  0  0  0  1  0  0  0  0  0  0
  181.8130  178.4850  137.8070 C   0  0  2  0  0  3  0  0  0  0  0  0
  184.3400  176.2740  137.2960 C   0  0  2  0  0  3  0  0  0  0  0  0
  182.0910  175.9140  136.0020 C   0  0  2  0  0  3  0  0  0  0  0  0
  185.0200  180.0530  142.9270 O   0  0  0  0  0  0  0  0  0  0  0  0
  180.1560  175.1770  137.2470 O   0  0  0  0  0  1  0  0  0  0  0  0
  183.7770  177.3920  135.2810 O   0  0  0  0  0  0  0  0  0  0  0  0
  183.1960  177.3210  139.2270 C   0  0  0  0  0  2  0  0  0  0  0  0
  180.7110  177.4710  137.4890 C   0  0  0  0  0  2  0  0  0  0  0  0
  187.0690  178.6130  140.7580 C   0  0  0  0  0  0  0  0  0  0  0  0
  185.8520  178.3710  140.1880 C   0  0  0  0  0  0  0  0  0  0  0  0
  186.9290  177.2840  138.3330 C   0  0  0  0  0  0  0  0  0  0  0  0
  185.5800  179.4480  141.9760 C   0  0  0  0  0  0  0  0  0  0  0  0
  186.9260  179.2980  141.9030 N   0  0  0  0  0  2  0  0  0  0  0  0
  182.2860  178.3950  139.1340 O   0  0  0  0  0  0  0  0  0  0  0  0
  188.1790  177.5450  138.9340 C   0  0  0  0  0  3  0  0  0  0  0  0
  184.8830  178.9020  140.9510 N   0  0  0  0  0  2  0  0  0  0  0  0
  185.7120  175.6660  136.9260 C   0  0  1  0  0  3  0  0  0  0  0  0
  188.2620  178.2130  140.1660 C   0  0  0  0  0  3  0  0  0  0  0  0
  185.8980  175.1210  134.5990 O   0  0  0  0  0  0  0  0  0  0  0  0
  185.2970  172.7410  137.3120 C   0  0  0  0  0  1  0  0  0  0  0  0
  185.5220  173.3020  135.9900 N   0  0  0  0  0  2  0  0  0  0  0  0
  185.7260  174.6990  135.7740 C   0  0  0  0  0  0  0  0  0  0  0  0
  186.8500  177.6470  135.9270 C   0  0  0  0  0  0  0  0  0  0  0  0
  186.8130  178.4470  135.0920 N   0  0  0  0  0  0  0  0  0  0  0  0
  181.3550  179.9080  137.4930 C   0  0  0  0  0  2  0  0  0  0  0  0
  180.8320  180.0620  136.0700 C   0  0  0  0  0  2  0  0  0  0  0  0
  180.0930  182.1160  137.0100 O   0  0  0  0  0  1  0  0  0  0  0  0
  180.4270  181.4990  135.8060 C   0  0  0  0  0  2  0  0  0  0  0  0
  1 16  1  0  0  0  0
  2 29  1  6  0  0  0
  2 17  1  0  0  0  0
  4 11  1  6  0  0  0
  4 14  1  0  0  0  0
  5  1  1  0  0  0  0
  5 13  1  1  0  0  0
  7 31  1  1  0  0  0
  7 20  1  0  0  0  0
  8  3  1  6  0  0  0
  8  5  1  0  0  0  0
  9  6  1  1  0  0  0
  9  3  1  0  0  0  0
  9  4  1  0  0  0  0
 12  3  2  0  0  0  0
 14  7  1  0  0  0  0
 15 19  1  0  0  0  0
 16 15  2  0  0  0  0
 16 22  1  0  0  0  0
 17 21  1  0  0  0  0
 17  1  2  0  0  0  0
 18 10  2  0  0  0  0
 19 18  1  0  0  0  0
 20 13  1  0  0  0  0
 21 24  2  0  0  0  0
 22 18  1  0  0  0  0
 23 28  1  6  0  0  0
 23  2  1  0  0  0  0
 23  8  1  0  0  0  0
 24 15  1  0  0  0  0
 25 28  2  0  0  0  0
 27 26  1  0  0  0  0
 28 27  1  0  0  0  0
 30 29  3  0  0  0  0
 32 31  1  0  0  0  0
 34 32  1  0  0  0  0
 34 33  1  0  0  0  0
M  END
>  <MODEL>
8

>  <REMARK>
 VINA RESULT:      -3.9      2.559      3.445
  Name = 
  5 active torsions:
  status: ('A' for Active; 'I' for Inactive)
    1  A    between atoms: C_2  and  C_8
    2  A    between atoms: C_9  and  C_11
    3  A    between atoms: C_9  and  C_29
    4  A    between atoms: C_16  and  C_32
    5  A    between atoms: C_29  and  C_33
                            x       y       z     vdW  Elec       q    Type
                         _______ _______ _______ _____ _____    ______ ____

>  <TORSDO>
F 5

$$$$
=
 OpenBabel10222418183D

 34 37  0  0  1  0  0  0  0  0999 V2000
  186.8860  174.7890  136.2670 C   0  0  0  0  0  0  0  0  0  0  0  0
  185.3380  176.7940  136.2890 C   0  0  1  0  0  3  0  0  0  0  0  0
  188.2370  177.8590  138.0800 C   0  0  0  0  0  0  0  0  0  0  0  0
  189.7980  176.8900  139.8220 C   0  0  2  0  0  3  0  0  0  0  0  0
  187.9020  175.5830  137.0730 C   0  0  1  0  0  3  0  0  0  0  0  0
  188.0550  178.6280  140.4140 C   0  0  0  0  0  1  0  0  0  0  0  0
  190.6240  176.1030  137.5390 C   0  0  2  0  0  3  0  0  0  0  0  0
  187.3050  176.6740  137.9860 C   0  0  2  0  0  3  0  0  0  0  0  0
  189.0120  178.1270  139.3410 C   0  0  2  0  0  3  0  0  0  0  0  0
  188.7500  170.6740  135.0940 O   0  0  0  0  0  0  0  0  0  0  0  0
  190.2470  177.0760  141.1320 O   0  0  0  0  0  1  0  0  0  0  0  0
  188.3840  178.6010  137.1210 O   0  0  0  0  0  0  0  0  0  0  0  0
  188.8300  174.7220  137.9370 C   0  0  0  0  0  2  0  0  0  0  0  0
  191.0100  176.5810  138.9410 C   0  0  0  0  0  2  0  0  0  0  0  0
  186.2520  172.8460  134.9610 C   0  0  0  0  0  0  0  0  0  0  0  0
  187.1500  173.5080  135.7490 C   0  0  0  0  0  0  0  0  0  0  0  0
  185.6620  175.3930  135.8750 C   0  0  0  0  0  0  0  0  0  0  0  0
  187.9540  171.6440  135.1940 C   0  0  0  0  0  0  0  0  0  0  0  0
  186.7380  171.6520  134.5940 N   0  0  0  0  0  2  0  0  0  0  0  0
  190.1740  174.7650  137.5120 O   0  0  0  0  0  0  0  0  0  0  0  0
  184.7450  174.6960  135.0580 C   0  0  0  0  0  3  0  0  0  0  0  0
  188.2520  172.7570  135.9070 N   0  0  0  0  0  2  0  0  0  0  0  0
  185.8220  177.0180  137.7220 C   0  0  1  0  0  3  0  0  0  0  0  0
  185.0320  173.4030  134.5940 C   0  0  0  0  0  3  0  0  0  0  0  0
  185.8680  179.3630  138.2200 O   0  0  0  0  0  0  0  0  0  0  0  0
  183.4480  176.9480  139.5200 C   0  0  0  0  0  1  0  0  0  0  0  0
  184.1540  178.1900  139.2520 N   0  0  0  0  0  2  0  0  0  0  0  0
  185.2930  178.2560  138.3940 C   0  0  0  0  0  0  0  0  0  0  0  0
  185.9270  177.7530  135.3410 C   0  0  0  0  0  0  0  0  0  0  0  0
  186.3920  178.5060  134.5950 N   0  0  0  0  0  0  0  0  0  0  0  0
  191.7740  176.3040  136.5550 C   0  0  0  0  0  2  0  0  0  0  0  0
  192.7720  175.1510  136.5670 C   0  0  0  0  0  2  0  0  0  0  0  0
  194.3210  175.5800  138.3180 O   0  0  0  0  0  1  0  0  0  0  0  0
  194.1560  175.6520  136.9360 C   0  0  0  0  0  2  0  0  0  0  0  0
  1  5  1  0  0  0  0
  2 29  1  6  0  0  0
  2 23  1  0  0  0  0
  3  9  1  0  0  0  0
  4 11  1  1  0  0  0
  5 13  1  1  0  0  0
  5  8  1  0  0  0  0
  7 31  1  6  0  0  0
  7 14  1  0  0  0  0
  8  3  1  6  0  0  0
  9  4  1  0  0  0  0
  9  6  1  1  0  0  0
 10 18  2  0  0  0  0
 12  3  2  0  0  0  0
 14  4  1  0  0  0  0
 15 16  1  0  0  0  0
 16 22  1  0  0  0  0
 16  1  2  0  0  0  0
 17  1  1  0  0  0  0
 17  2  1  0  0  0  0
 18 22  1  0  0  0  0
 19 15  1  0  0  0  0
 19 18  1  0  0  0  0
 20  7  1  0  0  0  0
 20 13  1  0  0  0  0
 21 17  2  0  0  0  0
 23  8  1  0  0  0  0
 23 28  1  6  0  0  0
 24 15  2  0  0  0  0
 24 21  1  0  0  0  0
 25 28  2  0  0  0  0
 27 26  1  0  0  0  0
 28 27  1  0  0  0  0
 30 29  3  0  0  0  0
 31 32  1  0  0  0  0
 32 34  1  0  0  0  0
 34 33  1  0  0  0  0
M  END
>  <MODEL>
9

>  <REMARK>
 VINA RESULT:      -3.7      4.629      8.882
  Name = 
  5 active torsions:
  status: ('A' for Active; 'I' for Inactive)
    1  A    between atoms: C_2  and  C_8
    2  A    between atoms: C_9  and  C_11
    3  A    between atoms: C_9  and  C_29
    4  A    between atoms: C_16  and  C_32
    5  A    between atoms: C_29  and  C_33
                            x       y       z     vdW  Elec       q    Type
                         _______ _______ _______ _____ _____    ______ ____

>  <TORSDO>
F 5

$$$$
