=
 OpenBabel10222420263D

 31 33  0  0  0  0  0  0  0  0999 V2000
  190.1240  176.8040  140.2640 C   0  0  0  0  0  3  0  0  0  0  0  0
  189.0300  178.1190  141.9920 N   0  0  0  0  0  0  0  0  0  0  0  0
  188.0680  178.7440  141.3720 C   0  0  0  0  0  3  0  0  0  0  0  0
  188.2770  177.8640  139.0550 C   0  0  0  0  0  0  0  0  0  0  0  0
  189.7590  177.7760  139.1990 C   0  0  0  0  0  2  0  0  0  0  0  0
  187.5190  178.3960  140.0370 C   0  0  0  0  0  0  0  0  0  0  0  0
  189.7780  176.9780  141.5400 C   0  0  0  0  0  0  0  0  0  0  0  0
  187.7270  179.6530  136.8300 O   0  0  0  0  0  0  0  0  0  0  0  0
  187.7230  177.5120  137.7800 N   0  0  0  0  0  2  0  0  0  0  0  0
  187.5720  178.4130  136.6770 C   0  0  0  0  0  0  0  0  0  0  0  0
  187.1820  177.8810  135.3460 C   0  0  0  0  0  1  0  0  0  0  0  0
  190.3030  176.0170  142.5520 C   0  0  0  0  0  2  0  0  0  0  0  0
  191.1980  176.6980  143.4810 N   0  0  0  0  0  2  0  0  0  0  0  0
  189.5300  177.5160  146.7340 C   0  0  0  0  0  3  0  0  0  0  0  0
  189.7600  177.4110  145.3590 C   0  0  0  0  0  3  0  0  0  0  0  0
  192.6190  175.9460  148.0910 N   0  0  0  0  0  1  0  0  0  0  0  0
  190.4780  177.0310  147.6390 C   0  0  0  0  0  3  0  0  0  0  0  0
  190.9410  176.8220  144.8830 C   0  0  0  0  0  0  0  0  0  0  0  0
  191.8840  176.3360  145.7940 C   0  0  0  0  0  3  0  0  0  0  0  0
  191.6550  176.4410  147.1700 C   0  0  0  0  0  0  0  0  0  0  0  0
  186.1590  178.7480  139.7570 N   0  0  0  0  0  2  0  0  0  0  0  0
  185.3090  179.2950  140.7300 N   0  0  0  0  0  2  0  0  0  0  0  0
  184.3370  178.2720  141.0910 C   0  0  0  0  0  2  0  0  0  0  0  0
  183.6900  178.6190  142.3930 C   0  0  0  0  0  0  0  0  0  0  0  0
  182.5150  179.0730  142.3850 O   0  0  0  0  0  0  0  0  0  0  0  0
  185.6800  177.8560  143.6930 C   0  0  0  0  0  3  0  0  0  0  0  0
  186.3710  177.7060  144.8990 C   0  0  0  0  0  3  0  0  0  0  0  0
  183.8520  178.9150  144.8730 C   0  0  0  0  0  3  0  0  0  0  0  0
  184.4140  178.4630  143.6700 C   0  0  0  0  0  0  0  0  0  0  0  0
  185.8020  178.1600  146.0920 C   0  0  0  0  0  3  0  0  0  0  0  0
  184.5430  178.7650  146.0790 C   0  0  0  0  0  3  0  0  0  0  0  0
  1  7  2  0  0  0  0
  3  2  2  0  0  0  0
  4  5  1  0  0  0  0
  4  6  2  0  0  0  0
  5  1  1  0  0  0  0
  6  3  1  0  0  0  0
  7  2  1  0  0  0  0
  7 12  1  0  0  0  0
  9  4  1  0  0  0  0
 10  8  2  0  0  0  0
 10  9  1  0  0  0  0
 11 10  1  0  0  0  0
 12 13  1  0  0  0  0
 13 18  1  0  0  0  0
 14 17  1  0  0  0  0
 15 14  2  0  0  0  0
 18 15  1  0  0  0  0
 18 19  2  0  0  0  0
 19 20  1  0  0  0  0
 20 17  2  0  0  0  0
 20 16  1  0  0  0  0
 21  6  1  0  0  0  0
 21 22  1  0  0  0  0
 22 23  1  0  0  0  0
 23 24  1  0  0  0  0
 24 29  1  0  0  0  0
 25 24  2  0  0  0  0
 26 27  1  0  0  0  0
 27 30  2  0  0  0  0
 28 31  2  0  0  0  0
 29 26  2  0  0  0  0
 29 28  1  0  0  0  0
 31 30  1  0  0  0  0
M  END
>  <MODEL>
1

>  <REMARK>
 VINA RESULT:      -9.6      0.000      0.000
  Name = 
  9 active torsions:
  status: ('A' for Active; 'I' for Inactive)
    1  A    between atoms: C_3  and  N_24
    2  A    between atoms: C_3  and  C_27
    3  A    between atoms: C_11  and  C_12
    4  A    between atoms: C_11  and  C_29
    5  A    between atoms: C_12  and  N_17
    6  A    between atoms: C_14  and  N_22
    7  A    between atoms: C_15  and  N_24
    8  A    between atoms: N_17  and  N_25
    9  A    between atoms: C_21  and  N_25
                            x       y       z     vdW  Elec       q    Type
                         _______ _______ _______ _____ _____    ______ ____

>  <TORSDO>
F 9

$$$$
=
 OpenBabel10222420263D

 31 33  0  0  0  0  0  0  0  0999 V2000
  190.2090  176.8180  140.1010 C   0  0  0  0  0  3  0  0  0  0  0  0
  189.0530  178.1540  141.7710 N   0  0  0  0  0  0  0  0  0  0  0  0
  188.0560  178.6960  141.1280 C   0  0  0  0  0  3  0  0  0  0  0  0
  188.3020  177.7180  138.8540 C   0  0  0  0  0  0  0  0  0  0  0  0
  189.7880  177.7170  138.9920 C   0  0  0  0  0  2  0  0  0  0  0  0
  187.5210  178.2550  139.8150 C   0  0  0  0  0  0  0  0  0  0  0  0
  189.8600  177.0350  141.3690 C   0  0  0  0  0  0  0  0  0  0  0  0
  187.5780  179.3730  136.5770 O   0  0  0  0  0  0  0  0  0  0  0  0
  187.7630  177.2760  137.6010 N   0  0  0  0  0  2  0  0  0  0  0  0
  187.5250  178.1200  136.4700 C   0  0  0  0  0  0  0  0  0  0  0  0
  187.1620  177.5100  135.1650 C   0  0  0  0  0  1  0  0  0  0  0  0
  190.4400  176.1540  142.4220 C   0  0  0  0  0  2  0  0  0  0  0  0
  191.1130  176.9540  143.4390 N   0  0  0  0  0  2  0  0  0  0  0  0
  191.3000  176.5380  147.1570 C   0  0  0  0  0  3  0  0  0  0  0  0
  191.6700  176.5380  145.8090 C   0  0  0  0  0  3  0  0  0  0  0  0
  187.7920  177.7600  146.9260 N   0  0  0  0  0  1  0  0  0  0  0  0
  190.0130  176.9420  147.5260 C   0  0  0  0  0  3  0  0  0  0  0  0
  190.7560  176.9400  144.8240 C   0  0  0  0  0  0  0  0  0  0  0  0
  189.4720  177.3470  145.2010 C   0  0  0  0  0  3  0  0  0  0  0  0
  189.1000  177.3470  146.5500 C   0  0  0  0  0  0  0  0  0  0  0  0
  186.1420  178.5190  139.5280 N   0  0  0  0  0  2  0  0  0  0  0  0
  185.4250  179.5430  140.1650 N   0  0  0  0  0  2  0  0  0  0  0  0
  184.0090  179.2200  140.0580 C   0  0  0  0  0  2  0  0  0  0  0  0
  183.6430  178.1880  141.0750 C   0  0  0  0  0  0  0  0  0  0  0  0
  183.0770  177.1300  140.6900 O   0  0  0  0  0  0  0  0  0  0  0  0
  182.8860  178.8620  143.3560 C   0  0  0  0  0  3  0  0  0  0  0  0
  183.1310  179.0680  144.7170 C   0  0  0  0  0  3  0  0  0  0  0  0
  185.1800  178.1570  143.0500 C   0  0  0  0  0  3  0  0  0  0  0  0
  183.9080  178.4040  142.5110 C   0  0  0  0  0  0  0  0  0  0  0  0
  184.4010  178.8200  145.2440 C   0  0  0  0  0  3  0  0  0  0  0  0
  185.4260  178.3640  144.4110 C   0  0  0  0  0  3  0  0  0  0  0  0
  1  7  2  0  0  0  0
  3  2  2  0  0  0  0
  4  5  1  0  0  0  0
  4  6  2  0  0  0  0
  5  1  1  0  0  0  0
  6  3  1  0  0  0  0
  7  2  1  0  0  0  0
  7 12  1  0  0  0  0
  9  4  1  0  0  0  0
 10  8  2  0  0  0  0
 10  9  1  0  0  0  0
 11 10  1  0  0  0  0
 12 13  1  0  0  0  0
 13 18  1  0  0  0  0
 14 17  1  0  0  0  0
 15 14  2  0  0  0  0
 18 19  2  0  0  0  0
 18 15  1  0  0  0  0
 19 20  1  0  0  0  0
 20 16  1  0  0  0  0
 20 17  2  0  0  0  0
 21  6  1  0  0  0  0
 21 22  1  0  0  0  0
 23 22  1  0  0  0  0
 23 24  1  0  0  0  0
 24 29  1  0  0  0  0
 25 24  2  0  0  0  0
 26 27  1  0  0  0  0
 27 30  2  0  0  0  0
 28 31  2  0  0  0  0
 29 28  1  0  0  0  0
 29 26  2  0  0  0  0
 31 30  1  0  0  0  0
M  END
>  <MODEL>
2

>  <REMARK>
 VINA RESULT:      -9.0      1.170      1.796
  Name = 
  9 active torsions:
  status: ('A' for Active; 'I' for Inactive)
    1  A    between atoms: C_3  and  N_24
    2  A    between atoms: C_3  and  C_27
    3  A    between atoms: C_11  and  C_12
    4  A    between atoms: C_11  and  C_29
    5  A    between atoms: C_12  and  N_17
    6  A    between atoms: C_14  and  N_22
    7  A    between atoms: C_15  and  N_24
    8  A    between atoms: N_17  and  N_25
    9  A    between atoms: C_21  and  N_25
                            x       y       z     vdW  Elec       q    Type
                         _______ _______ _______ _____ _____    ______ ____

>  <TORSDO>
F 9

$$$$
=
 OpenBabel10222420263D

 31 33  0  0  0  0  0  0  0  0999 V2000
  188.0430  178.1730  139.9640 C   0  0  0  0  0  3  0  0  0  0  0  0
  187.8180  177.3450  142.2390 N   0  0  0  0  0  0  0  0  0  0  0  0
  188.9390  176.7210  142.4750 C   0  0  0  0  0  3  0  0  0  0  0  0
  190.2110  177.1100  140.3730 C   0  0  0  0  0  0  0  0  0  0  0  0
  188.9510  177.0600  139.5760 C   0  0  0  0  0  2  0  0  0  0  0  0
  190.1980  176.8640  141.7000 C   0  0  0  0  0  0  0  0  0  0  0  0
  187.5360  178.2880  141.1910 C   0  0  0  0  0  0  0  0  0  0  0  0
  191.4030  175.2170  138.5160 O   0  0  0  0  0  0  0  0  0  0  0  0
  191.4370  177.2680  139.6460 N   0  0  0  0  0  2  0  0  0  0  0  0
  191.9270  176.3530  138.6600 C   0  0  0  0  0  0  0  0  0  0  0  0
  193.0980  176.7310  137.8290 C   0  0  0  0  0  1  0  0  0  0  0  0
  186.5330  179.3610  141.4450 C   0  0  0  0  0  2  0  0  0  0  0  0
  185.1800  178.8420  141.2790 N   0  0  0  0  0  2  0  0  0  0  0  0
  181.8770  178.8280  143.0460 C   0  0  0  0  0  3  0  0  0  0  0  0
  182.8220  178.8210  142.0170 C   0  0  0  0  0  3  0  0  0  0  0  0
  184.0900  178.9330  146.0370 N   0  0  0  0  0  1  0  0  0  0  0  0
  182.2980  178.8660  144.3790 C   0  0  0  0  0  3  0  0  0  0  0  0
  184.1930  178.8540  142.3150 C   0  0  0  0  0  0  0  0  0  0  0  0
  184.6070  178.8890  143.6500 C   0  0  0  0  0  3  0  0  0  0  0  0
  183.6620  178.8960  144.6810 C   0  0  0  0  0  0  0  0  0  0  0  0
  191.4360  176.6170  142.3770 N   0  0  0  0  0  2  0  0  0  0  0  0
  191.4890  176.1260  143.6910 N   0  0  0  0  0  2  0  0  0  0  0  0
  191.5260  177.2740  144.5880 C   0  0  0  0  0  2  0  0  0  0  0  0
  191.1480  176.8540  145.9710 C   0  0  0  0  0  0  0  0  0  0  0  0
  191.9280  176.0990  146.6100 O   0  0  0  0  0  0  0  0  0  0  0  0
  189.8190  177.6280  147.9380 C   0  0  0  0  0  3  0  0  0  0  0  0
  188.6150  178.0370  148.5180 C   0  0  0  0  0  3  0  0  0  0  0  0
  188.7010  177.3590  145.8090 C   0  0  0  0  0  3  0  0  0  0  0  0
  189.8730  177.2850  146.5780 C   0  0  0  0  0  0  0  0  0  0  0  0
  187.4540  178.1070  147.7430 C   0  0  0  0  0  3  0  0  0  0  0  0
  187.4980  177.7690  146.3880 C   0  0  0  0  0  3  0  0  0  0  0  0
  1  7  2  0  0  0  0
  2  3  2  0  0  0  0
  4  6  2  0  0  0  0
  5  1  1  0  0  0  0
  5  4  1  0  0  0  0
  6 21  1  0  0  0  0
  6  3  1  0  0  0  0
  7 12  1  0  0  0  0
  7  2  1  0  0  0  0
  8 10  2  0  0  0  0
  9  4  1  0  0  0  0
 10  9  1  0  0  0  0
 11 10  1  0  0  0  0
 13 12  1  0  0  0  0
 13 18  1  0  0  0  0
 14 17  1  0  0  0  0
 15 18  1  0  0  0  0
 15 14  2  0  0  0  0
 17 20  2  0  0  0  0
 18 19  2  0  0  0  0
 19 20  1  0  0  0  0
 20 16  1  0  0  0  0
 21 22  1  0  0  0  0
 22 23  1  0  0  0  0
 23 24  1  0  0  0  0
 24 29  1  0  0  0  0
 24 25  2  0  0  0  0
 26 27  1  0  0  0  0
 28 31  2  0  0  0  0
 28 29  1  0  0  0  0
 29 26  2  0  0  0  0
 30 27  2  0  0  0  0
 31 30  1  0  0  0  0
M  END
>  <MODEL>
3

>  <REMARK>
 VINA RESULT:      -8.9      2.836      6.268
  Name = 
  9 active torsions:
  status: ('A' for Active; 'I' for Inactive)
    1  A    between atoms: C_3  and  N_24
    2  A    between atoms: C_3  and  C_27
    3  A    between atoms: C_11  and  C_12
    4  A    between atoms: C_11  and  C_29
    5  A    between atoms: C_12  and  N_17
    6  A    between atoms: C_14  and  N_22
    7  A    between atoms: C_15  and  N_24
    8  A    between atoms: N_17  and  N_25
    9  A    between atoms: C_21  and  N_25
                            x       y       z     vdW  Elec       q    Type
                         _______ _______ _______ _____ _____    ______ ____

>  <TORSDO>
F 9

$$$$
=
 OpenBabel10222420263D

 31 33  0  0  1  0  0  0  0  0999 V2000
  190.3280  176.9370  141.1490 C   0  0  0  0  0  3  0  0  0  0  0  0
  188.5910  178.3660  142.0710 N   0  0  0  0  0  0  0  0  0  0  0  0
  187.8820  178.7320  141.0390 C   0  0  0  0  0  3  0  0  0  0  0  0
  188.9830  177.4980  139.1810 C   0  0  1  0  0  3  0  0  0  0  0  0
  190.3130  177.6460  139.8410 C   0  0  0  0  0  2  0  0  0  0  0  0
  187.8850  178.0810  139.7040 C   0  0  0  0  0  0  0  0  0  0  0  0
  189.5290  177.2800  142.1590 C   0  0  0  0  0  0  0  0  0  0  0  0
  189.2200  178.7680  136.5770 O   0  0  0  0  0  0  0  0  0  0  0  0
  188.9590  176.8540  137.9000 N   0  0  0  0  0  2  0  0  0  0  0  0
  189.1890  177.5120  136.6490 C   0  0  0  0  0  0  0  0  0  0  0  0
  189.3460  176.7020  135.4140 C   0  0  0  0  0  1  0  0  0  0  0  0
  189.7120  176.5960  143.4710 C   0  0  0  0  0  2  0  0  0  0  0  0
  188.4390  176.5020  144.1760 N   0  0  0  0  0  2  0  0  0  0  0  0
  188.9350  177.7230  147.6830 C   0  0  0  0  0  3  0  0  0  0  0  0
  189.1950  177.1360  146.4410 C   0  0  0  0  0  3  0  0  0  0  0  0
  185.3980  178.7900  147.2330 N   0  0  0  0  0  1  0  0  0  0  0  0
  187.6750  178.2700  147.9450 C   0  0  0  0  0  3  0  0  0  0  0  0
  188.1960  177.0920  145.4560 C   0  0  0  0  0  0  0  0  0  0  0  0
  186.9390  177.6450  145.7250 C   0  0  0  0  0  3  0  0  0  0  0  0
  186.6780  178.2320  146.9670 C   0  0  0  0  0  0  0  0  0  0  0  0
  186.7000  178.1830  138.9050 N   0  0  0  0  0  0  0  0  0  0  0  0
  185.6210  179.0070  139.2610 N   0  0  0  0  0  2  0  0  0  0  0  0
  184.4570  178.1520  139.4480 C   0  0  0  0  0  2  0  0  0  0  0  0
  183.3790  178.9040  140.1600 C   0  0  0  0  0  0  0  0  0  0  0  0
  182.5840  179.6100  139.4830 O   0  0  0  0  0  0  0  0  0  0  0  0
  181.9930  178.9320  142.2350 C   0  0  0  0  0  3  0  0  0  0  0  0
  181.8700  178.8840  143.6270 C   0  0  0  0  0  3  0  0  0  0  0  0
  184.3950  178.7260  142.4410 C   0  0  0  0  0  3  0  0  0  0  0  0
  183.2570  178.8530  141.6300 C   0  0  0  0  0  0  0  0  0  0  0  0
  183.0100  178.7580  144.4250 C   0  0  0  0  0  3  0  0  0  0  0  0
  184.2730  178.6780  143.8320 C   0  0  0  0  0  3  0  0  0  0  0  0
  1  7  2  0  0  0  0
  2  7  1  0  0  0  0
  3  2  2  0  0  0  0
  4  9  1  6  0  0  0
  4  6  1  0  0  0  0
  4  5  1  0  0  0  0
  5  1  1  0  0  0  0
  6  3  1  0  0  0  0
  7 12  1  0  0  0  0
  8 10  2  0  0  0  0
 10  9  1  0  0  0  0
 11 10  1  0  0  0  0
 12 13  1  0  0  0  0
 13 18  1  0  0  0  0
 14 17  1  0  0  0  0
 15 14  2  0  0  0  0
 18 19  2  0  0  0  0
 18 15  1  0  0  0  0
 19 20  1  0  0  0  0
 20 16  1  0  0  0  0
 20 17  2  0  0  0  0
 21 22  1  0  0  0  0
 21  6  2  0  0  0  0
 22 23  1  0  0  0  0
 23 24  1  0  0  0  0
 24 29  1  0  0  0  0
 25 24  2  0  0  0  0
 26 27  1  0  0  0  0
 27 30  2  0  0  0  0
 28 31  2  0  0  0  0
 29 26  2  0  0  0  0
 29 28  1  0  0  0  0
 31 30  1  0  0  0  0
M  END
>  <MODEL>
4

>  <REMARK>
 VINA RESULT:      -8.5      1.879      2.849
  Name = 
  9 active torsions:
  status: ('A' for Active; 'I' for Inactive)
    1  A    between atoms: C_3  and  N_24
    2  A    between atoms: C_3  and  C_27
    3  A    between atoms: C_11  and  C_12
    4  A    between atoms: C_11  and  C_29
    5  A    between atoms: C_12  and  N_17
    6  A    between atoms: C_14  and  N_22
    7  A    between atoms: C_15  and  N_24
    8  A    between atoms: N_17  and  N_25
    9  A    between atoms: C_21  and  N_25
                            x       y       z     vdW  Elec       q    Type
                         _______ _______ _______ _____ _____    ______ ____

>  <TORSDO>
F 9

$$$$
=
 OpenBabel10222420263D

 31 33  0  0  0  0  0  0  0  0999 V2000
  190.9280  176.5700  139.8310 C   0  0  0  0  0  3  0  0  0  0  0  0
  189.2380  178.0370  140.7820 N   0  0  0  0  0  0  0  0  0  0  0  0
  188.4070  178.2610  139.8030 C   0  0  0  0  0  3  0  0  0  0  0  0
  189.3540  176.8620  137.9770 C   0  0  0  0  0  0  0  0  0  0  0  0
  190.7400  177.1260  138.4640 C   0  0  0  0  0  2  0  0  0  0  0  0
  188.2940  177.4650  138.5540 C   0  0  0  0  0  0  0  0  0  0  0  0
  190.2280  176.9990  140.8810 C   0  0  0  0  0  0  0  0  0  0  0  0
  190.0130  174.0500  137.6470 O   0  0  0  0  0  0  0  0  0  0  0  0
  189.2210  176.0780  136.7840 N   0  0  0  0  0  2  0  0  0  0  0  0
  189.4570  174.6680  136.7010 C   0  0  0  0  0  0  0  0  0  0  0  0
  189.0840  173.9350  135.4650 C   0  0  0  0  0  1  0  0  0  0  0  0
  190.5820  176.4720  142.2300 C   0  0  0  0  0  2  0  0  0  0  0  0
  190.5810  177.5510  143.2120 N   0  0  0  0  0  2  0  0  0  0  0  0
  188.7170  177.3380  146.4540 C   0  0  0  0  0  3  0  0  0  0  0  0
  188.9840  177.5340  145.0960 C   0  0  0  0  0  3  0  0  0  0  0  0
  192.0950  176.4090  147.7110 N   0  0  0  0  0  1  0  0  0  0  0  0
  189.7490  176.9660  147.3200 C   0  0  0  0  0  3  0  0  0  0  0  0
  190.2840  177.3610  144.5980 C   0  0  0  0  0  0  0  0  0  0  0  0
  191.3110  176.9860  145.4700 C   0  0  0  0  0  3  0  0  0  0  0  0
  191.0450  176.7890  146.8290 C   0  0  0  0  0  0  0  0  0  0  0  0
  187.0260  177.4380  137.8860 N   0  0  0  0  0  2  0  0  0  0  0  0
  186.1530  178.5360  137.8880 N   0  0  0  0  0  2  0  0  0  0  0  0
  184.9360  178.1290  138.5770 C   0  0  0  0  0  2  0  0  0  0  0  0
  184.5150  179.1890  139.5430 C   0  0  0  0  0  0  0  0  0  0  0  0
  184.2050  180.3260  139.0980 O   0  0  0  0  0  0  0  0  0  0  0  0
  183.2660  178.8860  141.6830 C   0  0  0  0  0  3  0  0  0  0  0  0
  183.2340  178.6410  143.0580 C   0  0  0  0  0  3  0  0  0  0  0  0
  185.6800  178.7240  141.7090 C   0  0  0  0  0  3  0  0  0  0  0  0
  184.4890  178.9300  140.9960 C   0  0  0  0  0  0  0  0  0  0  0  0
  184.4260  178.4380  143.7600 C   0  0  0  0  0  3  0  0  0  0  0  0
  185.6490  178.4790  143.0850 C   0  0  0  0  0  3  0  0  0  0  0  0
  1  7  2  0  0  0  0
  2  7  1  0  0  0  0
  3  2  2  0  0  0  0
  4  5  1  0  0  0  0
  4  6  2  0  0  0  0
  5  1  1  0  0  0  0
  6  3  1  0  0  0  0
  7 12  1  0  0  0  0
  9  4  1  0  0  0  0
 10  9  1  0  0  0  0
 10  8  2  0  0  0  0
 11 10  1  0  0  0  0
 12 13  1  0  0  0  0
 13 18  1  0  0  0  0
 14 17  1  0  0  0  0
 15 14  2  0  0  0  0
 18 15  1  0  0  0  0
 18 19  2  0  0  0  0
 19 20  1  0  0  0  0
 20 17  2  0  0  0  0
 20 16  1  0  0  0  0
 21 22  1  0  0  0  0
 21  6  1  0  0  0  0
 22 23  1  0  0  0  0
 23 24  1  0  0  0  0
 24 29  1  0  0  0  0
 25 24  2  0  0  0  0
 26 27  1  0  0  0  0
 27 30  2  0  0  0  0
 28 31  2  0  0  0  0
 29 26  2  0  0  0  0
 29 28  1  0  0  0  0
 31 30  1  0  0  0  0
M  END
>  <MODEL>
5

>  <REMARK>
 VINA RESULT:      -8.4      2.021      2.606
  Name = 
  9 active torsions:
  status: ('A' for Active; 'I' for Inactive)
    1  A    between atoms: C_3  and  N_24
    2  A    between atoms: C_3  and  C_27
    3  A    between atoms: C_11  and  C_12
    4  A    between atoms: C_11  and  C_29
    5  A    between atoms: C_12  and  N_17
    6  A    between atoms: C_14  and  N_22
    7  A    between atoms: C_15  and  N_24
    8  A    between atoms: N_17  and  N_25
    9  A    between atoms: C_21  and  N_25
                            x       y       z     vdW  Elec       q    Type
                         _______ _______ _______ _____ _____    ______ ____

>  <TORSDO>
F 9

$$$$
=
 OpenBabel10222420263D

 31 33  0  0  0  0  0  0  0  0999 V2000
  190.1000  176.8040  140.3830 C   0  0  0  0  0  3  0  0  0  0  0  0
  188.8610  178.0350  142.0750 N   0  0  0  0  0  0  0  0  0  0  0  0
  187.9140  178.6410  141.4150 C   0  0  0  0  0  3  0  0  0  0  0  0
  188.2870  177.8280  139.0940 C   0  0  0  0  0  0  0  0  0  0  0  0
  189.7610  177.7890  139.3210 C   0  0  0  0  0  2  0  0  0  0  0  0
  187.4560  178.3080  140.0420 C   0  0  0  0  0  0  0  0  0  0  0  0
  189.6760  176.9330  141.6400 C   0  0  0  0  0  0  0  0  0  0  0  0
  187.8990  179.6380  136.8520 O   0  0  0  0  0  0  0  0  0  0  0  0
  187.8200  177.4900  137.7810 N   0  0  0  0  0  2  0  0  0  0  0  0
  187.7500  178.4000  136.6780 C   0  0  0  0  0  0  0  0  0  0  0  0
  187.4490  177.8810  135.3190 C   0  0  0  0  0  1  0  0  0  0  0  0
  190.1770  175.9660  142.6580 C   0  0  0  0  0  2  0  0  0  0  0  0
  191.0320  176.6450  143.6250 N   0  0  0  0  0  2  0  0  0  0  0  0
  189.0820  177.3460  146.7460 C   0  0  0  0  0  3  0  0  0  0  0  0
  189.3940  177.1890  145.3930 C   0  0  0  0  0  3  0  0  0  0  0  0
  192.3550  176.5390  148.3230 N   0  0  0  0  0  1  0  0  0  0  0  0
  190.0650  177.1320  147.7170 C   0  0  0  0  0  3  0  0  0  0  0  0
  190.6900  176.8180  145.0030 C   0  0  0  0  0  0  0  0  0  0  0  0
  191.6670  176.6010  145.9810 C   0  0  0  0  0  3  0  0  0  0  0  0
  191.3560  176.7590  147.3350 C   0  0  0  0  0  0  0  0  0  0  0  0
  186.1010  178.6180  139.6920 N   0  0  0  0  0  2  0  0  0  0  0  0
  185.3020  179.4720  140.4680 N   0  0  0  0  0  2  0  0  0  0  0  0
  183.9550  178.9170  140.4860 C   0  0  0  0  0  2  0  0  0  0  0  0
  183.5530  178.5970  141.8890 C   0  0  0  0  0  0  0  0  0  0  0  0
  184.4460  178.2730  142.7170 O   0  0  0  0  0  0  0  0  0  0  0  0
  181.1190  178.6430  141.3350 C   0  0  0  0  0  3  0  0  0  0  0  0
  179.7760  178.6720  141.7200 C   0  0  0  0  0  3  0  0  0  0  0  0
  181.7860  178.6410  143.6620 C   0  0  0  0  0  3  0  0  0  0  0  0
  182.1360  178.6280  142.3030 C   0  0  0  0  0  0  0  0  0  0  0  0
  179.4380  178.6870  143.0760 C   0  0  0  0  0  3  0  0  0  0  0  0
  180.4430  178.6700  144.0470 C   0  0  0  0  0  3  0  0  0  0  0  0
  1  7  2  0  0  0  0
  3  2  2  0  0  0  0
  4  5  1  0  0  0  0
  4  6  2  0  0  0  0
  5  1  1  0  0  0  0
  6  3  1  0  0  0  0
  7  2  1  0  0  0  0
  7 12  1  0  0  0  0
  9  4  1  0  0  0  0
 10  8  2  0  0  0  0
 10  9  1  0  0  0  0
 11 10  1  0  0  0  0
 12 13  1  0  0  0  0
 13 18  1  0  0  0  0
 14 17  1  0  0  0  0
 15 14  2  0  0  0  0
 18 15  1  0  0  0  0
 18 19  2  0  0  0  0
 19 20  1  0  0  0  0
 20 17  2  0  0  0  0
 20 16  1  0  0  0  0
 21  6  1  0  0  0  0
 21 22  1  0  0  0  0
 22 23  1  0  0  0  0
 23 24  1  0  0  0  0
 24 29  1  0  0  0  0
 24 25  2  0  0  0  0
 26 27  2  0  0  0  0
 26 29  1  0  0  0  0
 27 30  1  0  0  0  0
 28 31  1  0  0  0  0
 29 28  2  0  0  0  0
 30 31  2  0  0  0  0
M  END
>  <MODEL>
6

>  <REMARK>
 VINA RESULT:      -8.3      1.500      2.362
  Name = 
  9 active torsions:
  status: ('A' for Active; 'I' for Inactive)
    1  A    between atoms: C_3  and  N_24
    2  A    between atoms: C_3  and  C_27
    3  A    between atoms: C_11  and  C_12
    4  A    between atoms: C_11  and  C_29
    5  A    between atoms: C_12  and  N_17
    6  A    between atoms: C_14  and  N_22
    7  A    between atoms: C_15  and  N_24
    8  A    between atoms: N_17  and  N_25
    9  A    between atoms: C_21  and  N_25
                            x       y       z     vdW  Elec       q    Type
                         _______ _______ _______ _____ _____    ______ ____

>  <TORSDO>
F 9

$$$$
=
 OpenBabel10222420263D

 31 33  0  0  0  0  0  0  0  0999 V2000
  191.7360  176.5460  142.7970 C   0  0  0  0  0  3  0  0  0  0  0  0
  189.3140  176.5760  142.5830 N   0  0  0  0  0  0  0  0  0  0  0  0
  188.8740  176.5210  143.8090 C   0  0  0  0  0  3  0  0  0  0  0  0
  190.9830  176.5450  145.1270 C   0  0  0  0  0  0  0  0  0  0  0  0
  191.6830  175.7670  144.0640 C   0  0  0  0  0  2  0  0  0  0  0  0
  189.6630  176.8090  145.0340 C   0  0  0  0  0  0  0  0  0  0  0  0
  190.6390  176.9100  142.1340 C   0  0  0  0  0  0  0  0  0  0  0  0
  191.2920  174.8770  147.4890 O   0  0  0  0  0  0  0  0  0  0  0  0
  191.7330  176.8520  146.3110 N   0  0  0  0  0  2  0  0  0  0  0  0
  191.9440  175.9500  147.4020 C   0  0  0  0  0  0  0  0  0  0  0  0
  192.9100  176.3100  148.4720 C   0  0  0  0  0  1  0  0  0  0  0  0
  190.8000  177.5720  140.8080 C   0  0  0  0  0  2  0  0  0  0  0  0
  190.1590  176.7810  139.7640 N   0  0  0  0  0  2  0  0  0  0  0  0
  188.8980  178.0450  136.4710 C   0  0  0  0  0  3  0  0  0  0  0  0
  189.7510  177.5050  137.4370 C   0  0  0  0  0  3  0  0  0  0  0  0
  185.8250  178.6300  138.4860 N   0  0  0  0  0  1  0  0  0  0  0  0
  187.5970  178.4190  136.8190 C   0  0  0  0  0  3  0  0  0  0  0  0
  189.3070  177.3370  138.7580 C   0  0  0  0  0  0  0  0  0  0  0  0
  188.0030  177.7100  139.0990 C   0  0  0  0  0  3  0  0  0  0  0  0
  187.1490  178.2510  138.1320 C   0  0  0  0  0  0  0  0  0  0  0  0
  188.9610  177.2800  146.1910 N   0  0  0  0  0  2  0  0  0  0  0  0
  187.9610  178.2610  146.1150 N   0  0  0  0  0  2  0  0  0  0  0  0
  186.6760  177.5770  146.0730 C   0  0  0  0  0  2  0  0  0  0  0  0
  185.5730  178.5720  145.9020 C   0  0  0  0  0  0  0  0  0  0  0  0
  185.3330  179.3780  146.8400 O   0  0  0  0  0  0  0  0  0  0  0  0
  185.3220  178.2450  143.4400 C   0  0  0  0  0  3  0  0  0  0  0  0
  184.5520  178.2700  142.2740 C   0  0  0  0  0  3  0  0  0  0  0  0
  183.4040  178.9780  144.7210 C   0  0  0  0  0  3  0  0  0  0  0  0
  184.7550  178.5990  144.6740 C   0  0  0  0  0  0  0  0  0  0  0  0
  183.2080  178.6490  142.3310 C   0  0  0  0  0  3  0  0  0  0  0  0
  182.6340  179.0030  143.5540 C   0  0  0  0  0  3  0  0  0  0  0  0
  1  5  1  0  0  0  0
  2  3  2  0  0  0  0
  3  6  1  0  0  0  0
  4  9  1  0  0  0  0
  5  4  1  0  0  0  0
  6  4  2  0  0  0  0
  6 21  1  0  0  0  0
  7  2  1  0  0  0  0
  7  1  2  0  0  0  0
  9 10  1  0  0  0  0
 10  8  2  0  0  0  0
 10 11  1  0  0  0  0
 12  7  1  0  0  0  0
 13 12  1  0  0  0  0
 14 17  2  0  0  0  0
 14 15  1  0  0  0  0
 15 18  2  0  0  0  0
 17 20  1  0  0  0  0
 18 19  1  0  0  0  0
 18 13  1  0  0  0  0
 20 16  1  0  0  0  0
 20 19  2  0  0  0  0
 22 21  1  0  0  0  0
 23 22  1  0  0  0  0
 24 23  1  0  0  0  0
 24 25  2  0  0  0  0
 26 29  1  0  0  0  0
 27 30  1  0  0  0  0
 27 26  2  0  0  0  0
 29 28  2  0  0  0  0
 29 24  1  0  0  0  0
 30 31  2  0  0  0  0
 31 28  1  0  0  0  0
M  END
>  <MODEL>
7

>  <REMARK>
 VINA RESULT:      -8.2      2.705      7.176
  Name = 
  9 active torsions:
  status: ('A' for Active; 'I' for Inactive)
    1  A    between atoms: C_3  and  N_24
    2  A    between atoms: C_3  and  C_27
    3  A    between atoms: C_11  and  C_12
    4  A    between atoms: C_11  and  C_29
    5  A    between atoms: C_12  and  N_17
    6  A    between atoms: C_14  and  N_22
    7  A    between atoms: C_15  and  N_24
    8  A    between atoms: N_17  and  N_25
    9  A    between atoms: C_21  and  N_25
                            x       y       z     vdW  Elec       q    Type
                         _______ _______ _______ _____ _____    ______ ____

>  <TORSDO>
F 9

$$$$
=
 OpenBabel10222420263D

 31 33  0  0  0  0  0  0  0  0999 V2000
  183.7940  178.6420  138.6420 C   0  0  0  0  0  3  0  0  0  0  0  0
  185.6690  179.0590  140.1320 N   0  0  0  0  0  0  0  0  0  0  0  0
  185.1360  179.1350  141.3200 C   0  0  0  0  0  3  0  0  0  0  0  0
  182.7380  178.6710  140.8510 C   0  0  0  0  0  0  0  0  0  0  0  0
  182.8400  179.3580  139.5310 C   0  0  0  0  0  2  0  0  0  0  0  0
  183.7840  178.6540  141.7020 C   0  0  0  0  0  0  0  0  0  0  0  0
  185.0880  178.5130  138.9360 C   0  0  0  0  0  0  0  0  0  0  0  0
  180.6130  180.1600  142.1620 O   0  0  0  0  0  0  0  0  0  0  0  0
  181.4460  178.1790  141.2320 N   0  0  0  0  0  2  0  0  0  0  0  0
  180.3930  178.9810  141.7770 C   0  0  0  0  0  0  0  0  0  0  0  0
  179.0350  178.3990  141.9340 C   0  0  0  0  0  1  0  0  0  0  0  0
  185.9870  177.8940  137.9200 C   0  0  0  0  0  2  0  0  0  0  0  0
  187.3180  178.4840  137.9940 N   0  0  0  0  0  2  0  0  0  0  0  0
  190.2700  177.5300  140.0950 C   0  0  0  0  0  3  0  0  0  0  0  0
  189.1530  178.2300  139.6290 C   0  0  0  0  0  3  0  0  0  0  0  0
  190.4680  174.7750  137.6000 N   0  0  0  0  0  1  0  0  0  0  0  0
  190.7060  176.3860  139.4210 C   0  0  0  0  0  3  0  0  0  0  0  0
  188.4680  177.7890  138.4870 C   0  0  0  0  0  0  0  0  0  0  0  0
  188.9070  176.6410  137.8200 C   0  0  0  0  0  3  0  0  0  0  0  0
  190.0250  175.9410  138.2850 C   0  0  0  0  0  0  0  0  0  0  0  0
  183.5700  178.2640  143.0650 N   0  0  0  0  0  2  0  0  0  0  0  0
  183.3540  179.1990  144.0890 N   0  0  0  0  0  2  0  0  0  0  0  0
  184.6580  179.6630  144.5420 C   0  0  0  0  0  2  0  0  0  0  0  0
  185.1410  178.8090  145.6700 C   0  0  0  0  0  0  0  0  0  0  0  0
  184.3760  178.6120  146.6520 O   0  0  0  0  0  0  0  0  0  0  0  0
  187.2230  178.1060  146.8540 C   0  0  0  0  0  3  0  0  0  0  0  0
  188.5070  177.5550  146.8500 C   0  0  0  0  0  3  0  0  0  0  0  0
  187.0770  177.7840  144.4600 C   0  0  0  0  0  3  0  0  0  0  0  0
  186.4960  178.2260  145.6590 C   0  0  0  0  0  0  0  0  0  0  0  0
  189.0770  177.1190  145.6510 C   0  0  0  0  0  3  0  0  0  0  0  0
  188.3620  177.2330  144.4560 C   0  0  0  0  0  3  0  0  0  0  0  0
  1  7  2  0  0  0  0
  1  5  1  0  0  0  0
  2  3  2  0  0  0  0
  3  6  1  0  0  0  0
  4  9  1  0  0  0  0
  4  6  2  0  0  0  0
  5  4  1  0  0  0  0
  6 21  1  0  0  0  0
  7  2  1  0  0  0  0
  9 10  1  0  0  0  0
 10 11  1  0  0  0  0
 10  8  2  0  0  0  0
 12 13  1  0  0  0  0
 12  7  1  0  0  0  0
 13 18  1  0  0  0  0
 15 14  1  0  0  0  0
 16 20  1  0  0  0  0
 17 14  2  0  0  0  0
 18 15  2  0  0  0  0
 19 20  2  0  0  0  0
 19 18  1  0  0  0  0
 20 17  1  0  0  0  0
 21 22  1  0  0  0  0
 22 23  1  0  0  0  0
 23 24  1  0  0  0  0
 24 25  2  0  0  0  0
 27 26  1  0  0  0  0
 28 29  1  0  0  0  0
 29 24  1  0  0  0  0
 29 26  2  0  0  0  0
 30 27  2  0  0  0  0
 31 28  2  0  0  0  0
 31 30  1  0  0  0  0
M  END
>  <MODEL>
8

>  <REMARK>
 VINA RESULT:      -8.1      3.230      6.308
  Name = 
  9 active torsions:
  status: ('A' for Active; 'I' for Inactive)
    1  A    between atoms: C_3  and  N_24
    2  A    between atoms: C_3  and  C_27
    3  A    between atoms: C_11  and  C_12
    4  A    between atoms: C_11  and  C_29
    5  A    between atoms: C_12  and  N_17
    6  A    between atoms: C_14  and  N_22
    7  A    between atoms: C_15  and  N_24
    8  A    between atoms: N_17  and  N_25
    9  A    between atoms: C_21  and  N_25
                            x       y       z     vdW  Elec       q    Type
                         _______ _______ _______ _____ _____    ______ ____

>  <TORSDO>
F 9

$$$$
=
 OpenBabel10222420263D

 31 33  0  0  0  0  0  0  0  0999 V2000
  189.8550  177.3310  137.0130 C   0  0  0  0  0  3  0  0  0  0  0  0
  191.1880  176.7970  138.9750 N   0  0  0  0  0  0  0  0  0  0  0  0
  190.5240  177.3090  139.9740 C   0  0  0  0  0  3  0  0  0  0  0  0
  188.5040  178.2260  138.8500 C   0  0  0  0  0  0  0  0  0  0  0  0
  189.3060  178.5650  137.6380 C   0  0  0  0  0  2  0  0  0  0  0  0
  189.0990  177.7270  139.9530 C   0  0  0  0  0  0  0  0  0  0  0  0
  190.7160  176.5320  137.6440 C   0  0  0  0  0  0  0  0  0  0  0  0
  186.3720  177.0300  137.2760 O   0  0  0  0  0  0  0  0  0  0  0  0
  187.1200  178.6020  138.8420 N   0  0  0  0  0  2  0  0  0  0  0  0
  186.0880  177.9100  138.1310 C   0  0  0  0  0  0  0  0  0  0  0  0
  184.6670  178.2700  138.3690 C   0  0  0  0  0  1  0  0  0  0  0  0
  191.3090  175.3940  136.8860 C   0  0  0  0  0  2  0  0  0  0  0  0
  192.5450  175.8090  136.2320 N   0  0  0  0  0  2  0  0  0  0  0  0
  196.0920  174.6890  135.7890 C   0  0  0  0  0  3  0  0  0  0  0  0
  194.8610  175.3020  135.5380 C   0  0  0  0  0  3  0  0  0  0  0  0
  195.4340  173.1060  139.0920 N   0  0  0  0  0  1  0  0  0  0  0  0
  196.2810  173.9610  136.9670 C   0  0  0  0  0  3  0  0  0  0  0  0
  193.8120  175.1870  136.4630 C   0  0  0  0  0  0  0  0  0  0  0  0
  194.0100  174.4590  137.6410 C   0  0  0  0  0  3  0  0  0  0  0  0
  195.2410  173.8460  137.8930 C   0  0  0  0  0  0  0  0  0  0  0  0
  188.3720  177.6990  141.1870 N   0  0  0  0  0  2  0  0  0  0  0  0
  189.0120  177.6540  142.4350 N   0  0  0  0  0  2  0  0  0  0  0  0
  188.3640  176.6150  143.2250 C   0  0  0  0  0  2  0  0  0  0  0  0
  188.0360  177.1370  144.5860 C   0  0  0  0  0  0  0  0  0  0  0  0
  188.9010  177.0410  145.4970 O   0  0  0  0  0  0  0  0  0  0  0  0
  186.3320  177.9790  146.2040 C   0  0  0  0  0  3  0  0  0  0  0  0
  185.0840  178.5410  146.4860 C   0  0  0  0  0  3  0  0  0  0  0  0
  185.8300  178.0540  143.8380 C   0  0  0  0  0  3  0  0  0  0  0  0
  186.7160  177.7310  144.8770 C   0  0  0  0  0  0  0  0  0  0  0  0
  184.2080  178.8590  145.4440 C   0  0  0  0  0  3  0  0  0  0  0  0
  184.5820  178.6160  144.1200 C   0  0  0  0  0  3  0  0  0  0  0  0
  1  5  1  0  0  0  0
  1  7  2  0  0  0  0
  2  3  2  0  0  0  0
  4  6  2  0  0  0  0
  5  4  1  0  0  0  0
  6  3  1  0  0  0  0
  6 21  1  0  0  0  0
  7  2  1  0  0  0  0
  8 10  2  0  0  0  0
  9  4  1  0  0  0  0
 10 11  1  0  0  0  0
 10  9  1  0  0  0  0
 12  7  1  0  0  0  0
 13 18  1  0  0  0  0
 13 12  1  0  0  0  0
 14 17  1  0  0  0  0
 15 14  2  0  0  0  0
 15 18  1  0  0  0  0
 17 20  2  0  0  0  0
 18 19  2  0  0  0  0
 19 20  1  0  0  0  0
 20 16  1  0  0  0  0
 21 22  1  0  0  0  0
 22 23  1  0  0  0  0
 23 24  1  0  0  0  0
 24 29  1  0  0  0  0
 24 25  2  0  0  0  0
 26 27  1  0  0  0  0
 28 31  2  0  0  0  0
 28 29  1  0  0  0  0
 29 26  2  0  0  0  0
 30 27  2  0  0  0  0
 31 30  1  0  0  0  0
M  END
>  <MODEL>
9

>  <REMARK>
 VINA RESULT:      -7.7      3.896      6.108
  Name = 
  9 active torsions:
  status: ('A' for Active; 'I' for Inactive)
    1  A    between atoms: C_3  and  N_24
    2  A    between atoms: C_3  and  C_27
    3  A    between atoms: C_11  and  C_12
    4  A    between atoms: C_11  and  C_29
    5  A    between atoms: C_12  and  N_17
    6  A    between atoms: C_14  and  N_22
    7  A    between atoms: C_15  and  N_24
    8  A    between atoms: N_17  and  N_25
    9  A    between atoms: C_21  and  N_25
                            x       y       z     vdW  Elec       q    Type
                         _______ _______ _______ _____ _____    ______ ____

>  <TORSDO>
F 9

$$$$
