=
 OpenBabel10222421213D

 39 41  0  0  1  0  0  0  0  0999 V2000
  188.5220  175.4360  143.1380 O   0  0  0  0  0  0  0  0  0  0  0  0
  188.8090  176.5750  143.6050 C   0  0  0  0  0  0  0  0  0  0  0  0
  189.6170  177.1130  146.5740 C   0  0  0  0  0  3  0  0  0  0  0  0
  187.4580  178.0220  146.8400 C   0  0  0  0  0  0  0  0  0  0  0  0
  186.6210  177.5920  144.2320 C   0  0  0  0  0  3  0  0  0  0  0  0
  188.0610  178.1830  148.1790 C   0  0  0  0  0  3  0  0  0  0  0  0
  186.1730  178.4160  146.4740 C   0  0  0  0  0  3  0  0  0  0  0  0
  185.7490  178.2000  145.1560 C   0  0  0  0  0  0  0  0  0  0  0  0
  187.9190  177.1980  144.6090 C   0  0  0  0  0  0  0  0  0  0  0  0
  188.3140  177.4310  145.9410 C   0  0  0  0  0  0  0  0  0  0  0  0
  189.4550  177.5610  148.0310 C   0  0  0  0  0  2  0  0  0  0  0  0
  183.6850  179.1370  145.8530 O   0  0  0  0  0  1  0  0  0  0  0  0
  184.3730  178.6200  144.7530 C   0  0  1  0  0  3  0  0  0  0  0  0
  184.4300  179.6440  143.6280 C   0  0  0  0  0  2  0  0  0  0  0  0
  183.7340  177.9190  142.1400 O   0  0  0  0  0  0  0  0  0  0  0  0
  184.4200  178.9650  142.3010 C   0  0  0  0  0  0  0  0  0  0  0  0
  185.1360  179.5240  141.2400 O   0  0  0  0  0  0  0  0  0  0  0  0
  185.0470  179.0250  139.9130 C   0  0  0  0  0  2  0  0  0  0  0  0
  183.7260  179.4350  139.2870 C   0  0  0  0  0  2  0  0  0  0  0  0
  183.2890  177.0380  138.8640 C   0  0  0  0  0  1  0  0  0  0  0  0
  183.3270  178.4160  138.2400 C   0  0  0  0  0  2  0  0  0  0  0  0
  189.9510  177.2440  143.1540 O   0  0  0  0  0  0  0  0  0  0  0  0
  190.1230  177.6250  141.7950 C   0  0  0  0  0  2  0  0  0  0  0  0
  188.8300  178.2050  141.2470 C   0  0  0  0  0  2  0  0  0  0  0  0
  188.6150  177.7430  139.8170 C   0  0  0  0  0  2  0  0  0  0  0  0
  188.7790  178.8650  138.8950 N   0  0  0  0  0  2  0  0  0  0  0  0
  189.1770  178.3900  137.5640 C   0  0  1  0  0  3  0  0  0  0  0  0
  189.4590  176.8910  137.5590 C   0  0  2  0  0  3  0  0  0  0  0  0
  192.3860  176.9160  139.2840 O   0  0  0  0  0  0  0  0  0  0  0  0
  190.9330  176.6690  137.4890 N   0  0  0  0  0  0  0  0  0  0  0  0
  189.9880  176.5020  136.3440 C   0  0  1  0  0  3  0  0  0  0  0  0
  192.2360  176.6400  138.0650 C   0  0  0  0  0  0  0  0  0  0  0  0
  194.3200  175.5660  137.7260 O   0  0  0  0  0  0  0  0  0  0  0  0
  193.4010  176.2860  137.2530 C   0  0  0  0  0  3  0  0  0  0  0  0
  189.7470  175.0210  136.1150 C   0  0  0  0  0  2  0  0  0  0  0  0
  187.5420  174.8800  134.9660 C   0  0  0  0  0  1  0  0  0  0  0  0
  189.0460  174.8000  134.7870 C   0  0  0  0  0  2  0  0  0  0  0  0
  186.8160  178.1220  136.7900 C   0  0  0  0  0  1  0  0  0  0  0  0
  188.1560  178.7640  136.4920 C   0  0  0  0  0  2  0  0  0  0  0  0
  1  2  2  0  0  0  0
  2  9  1  0  0  0  0
  3 11  1  0  0  0  0
  4  6  2  0  0  0  0
  5  9  2  0  0  0  0
  5  8  1  0  0  0  0
  7  4  1  0  0  0  0
  8  7  2  0  0  0  0
  9 10  1  0  0  0  0
 10  3  2  0  0  0  0
 10  4  1  0  0  0  0
 11  6  1  0  0  0  0
 13  8  1  0  0  0  0
 13 12  1  1  0  0  0
 14 13  1  0  0  0  0
 15 16  2  0  0  0  0
 16 14  1  0  0  0  0
 17 16  1  0  0  0  0
 18 17  1  0  0  0  0
 19 18  1  0  0  0  0
 21 20  1  0  0  0  0
 21 19  1  0  0  0  0
 22  2  1  0  0  0  0
 23 22  1  0  0  0  0
 24 23  1  0  0  0  0
 25 24  1  0  0  0  0
 26 25  1  0  0  0  0
 27 39  1  6  0  0  0
 27 26  1  0  0  0  0
 28 27  1  6  0  0  0
 30 28  1  0  0  0  0
 30 32  1  0  0  0  0
 31 35  1  1  0  0  0
 31 30  1  0  0  0  0
 31 28  1  0  0  0  0
 32 29  2  0  0  0  0
 34 33  2  0  0  0  0
 34 32  1  0  0  0  0
 37 36  1  0  0  0  0
 37 35  1  0  0  0  0
 39 38  1  0  0  0  0
M  END
>  <MODEL>
1

>  <REMARK>
 VINA RESULT:      -7.6      0.000      0.000
  Name = 
  19 active torsions:
  status: ('A' for Active; 'I' for Inactive)
    1  A    between atoms: C_1  and  C_24
    2  A    between atoms: C_4  and  C_30
    3  A    between atoms: C_4  and  C_37
    4  A    between atoms: C_5  and  C_15
    5  A    between atoms: C_5  and  C_36
    6  A    between atoms: C_8  and  O_14
    7  A    between atoms: C_8  and  C_28
    8  A    between atoms: O_10  and  C_36
    9  A    between atoms: O_10  and  C_38
   10  A    between atoms: O_14  and  C_37
   11  A    between atoms: C_15  and  N_23
   12  A    between atoms: C_21  and  C_30
   13  A    between atoms: C_22  and  C_31
   14  A    between atoms: N_23  and  C_24
   15  A    between atoms: C_24  and  C_35
   16  A    between atoms: C_25  and  C_39
   17  A    between atoms: C_26  and  C_38
   18  A    between atoms: C_28  and  C_32
   19  A    between atoms: C_29  and  C_31
                            x       y       z     vdW  Elec       q    Type
                         _______ _______ _______ _____ _____    ______ ____

>  <TORSDO>
F 19

$$$$
=
 OpenBabel10222421213D

 39 41  0  0  1  0  0  0  0  0999 V2000
  188.0560  176.3290  142.4550 O   0  0  0  0  0  0  0  0  0  0  0  0
  187.7670  177.5110  142.7960 C   0  0  0  0  0  0  0  0  0  0  0  0
  184.8880  178.3310  143.6910 C   0  0  0  0  0  3  0  0  0  0  0  0
  185.7520  178.4000  145.8830 C   0  0  0  0  0  0  0  0  0  0  0  0
  188.3460  177.6850  145.2140 C   0  0  0  0  0  3  0  0  0  0  0  0
  184.3320  178.7620  146.0670 C   0  0  0  0  0  3  0  0  0  0  0  0
  186.7010  178.2940  146.8970 C   0  0  0  0  0  3  0  0  0  0  0  0
  188.0120  177.9320  146.5600 C   0  0  0  0  0  0  0  0  0  0  0  0
  187.3800  177.7920  144.1950 C   0  0  0  0  0  0  0  0  0  0  0  0
  186.0710  178.1570  144.5690 C   0  0  0  0  0  0  0  0  0  0  0  0
  183.7640  178.7580  144.6420 C   0  0  0  0  0  2  0  0  0  0  0  0
  188.4270  177.8770  148.8950 O   0  0  0  0  0  1  0  0  0  0  0  0
  189.0380  177.8150  147.6400 C   0  0  1  0  0  3  0  0  0  0  0  0
  189.8290  176.5220  147.4940 C   0  0  0  0  0  2  0  0  0  0  0  0
  191.8820  177.2040  148.4900 O   0  0  0  0  0  0  0  0  0  0  0  0
  191.2920  176.8060  147.4500 C   0  0  0  0  0  0  0  0  0  0  0  0
  191.9970  176.5810  146.2650 O   0  0  0  0  0  0  0  0  0  0  0  0
  191.6780  177.2450  145.0500 C   0  0  0  0  0  2  0  0  0  0  0  0
  191.5010  176.2340  143.9310 C   0  0  0  0  0  2  0  0  0  0  0  0
  191.2540  178.4400  142.8420 C   0  0  0  0  0  1  0  0  0  0  0  0
  191.4470  176.9580  142.6030 C   0  0  0  0  0  2  0  0  0  0  0  0
  187.7970  178.5370  141.8460 O   0  0  0  0  0  0  0  0  0  0  0  0
  187.7450  178.2800  140.4490 C   0  0  0  0  0  2  0  0  0  0  0  0
  189.1390  178.3530  139.8500 C   0  0  0  0  0  2  0  0  0  0  0  0
  189.0570  178.6910  138.3720 C   0  0  0  0  0  2  0  0  0  0  0  0
  189.6240  177.6060  137.5750 N   0  0  0  0  0  2  0  0  0  0  0  0
  188.5910  176.9760  136.7430 C   0  0  1  0  0  3  0  0  0  0  0  0
  188.2900  175.5520  137.1960 C   0  0  2  0  0  3  0  0  0  0  0  0
  191.4440  174.6020  138.0310 O   0  0  0  0  0  0  0  0  0  0  0  0
  189.4440  174.6720  136.8510 N   0  0  0  0  0  0  0  0  0  0  0  0
  188.1500  174.7160  136.1060 C   0  0  1  0  0  3  0  0  0  0  0  0
  190.7620  174.1740  137.0630 C   0  0  0  0  0  0  0  0  0  0  0  0
  191.3110  173.3240  134.9200 O   0  0  0  0  0  0  0  0  0  0  0  0
  191.3280  173.1630  136.1690 C   0  0  0  0  0  3  0  0  0  0  0  0
  187.3240  173.4980  136.4790 C   0  0  0  0  0  2  0  0  0  0  0  0
  185.5400  174.3750  134.9780 C   0  0  0  0  0  1  0  0  0  0  0  0
  186.3560  173.1550  135.3610 C   0  0  0  0  0  2  0  0  0  0  0  0
  186.9360  178.0820  135.2330 C   0  0  0  0  0  1  0  0  0  0  0  0
  187.3180  177.8160  136.6760 C   0  0  0  0  0  2  0  0  0  0  0  0
  1  2  2  0  0  0  0
  2  9  1  0  0  0  0
  3 10  2  0  0  0  0
  3 11  1  0  0  0  0
  4  6  2  0  0  0  0
  4  7  1  0  0  0  0
  5  8  1  0  0  0  0
  8  7  2  0  0  0  0
  8 13  1  0  0  0  0
  9 10  1  0  0  0  0
  9  5  2  0  0  0  0
 10  4  1  0  0  0  0
 11  6  1  0  0  0  0
 13 12  1  1  0  0  0
 14 13  1  0  0  0  0
 16 14  1  0  0  0  0
 16 15  2  0  0  0  0
 17 16  1  0  0  0  0
 18 17  1  0  0  0  0
 19 18  1  0  0  0  0
 21 20  1  0  0  0  0
 21 19  1  0  0  0  0
 22  2  1  0  0  0  0
 23 22  1  0  0  0  0
 24 23  1  0  0  0  0
 25 24  1  0  0  0  0
 26 25  1  0  0  0  0
 27 39  1  1  0  0  0
 27 26  1  0  0  0  0
 28 27  1  6  0  0  0
 30 32  1  0  0  0  0
 30 28  1  0  0  0  0
 31 35  1  1  0  0  0
 31 30  1  0  0  0  0
 31 28  1  0  0  0  0
 32 29  2  0  0  0  0
 33 34  2  0  0  0  0
 34 32  1  0  0  0  0
 36 37  1  0  0  0  0
 37 35  1  0  0  0  0
 38 39  1  0  0  0  0
M  END
>  <MODEL>
2

>  <REMARK>
 VINA RESULT:      -7.4      2.318      4.984
  Name = 
  19 active torsions:
  status: ('A' for Active; 'I' for Inactive)
    1  A    between atoms: C_1  and  C_24
    2  A    between atoms: C_4  and  C_30
    3  A    between atoms: C_4  and  C_37
    4  A    between atoms: C_5  and  C_15
    5  A    between atoms: C_5  and  C_36
    6  A    between atoms: C_8  and  O_14
    7  A    between atoms: C_8  and  C_28
    8  A    between atoms: O_10  and  C_36
    9  A    between atoms: O_10  and  C_38
   10  A    between atoms: O_14  and  C_37
   11  A    between atoms: C_15  and  N_23
   12  A    between atoms: C_21  and  C_30
   13  A    between atoms: C_22  and  C_31
   14  A    between atoms: N_23  and  C_24
   15  A    between atoms: C_24  and  C_35
   16  A    between atoms: C_25  and  C_39
   17  A    between atoms: C_26  and  C_38
   18  A    between atoms: C_28  and  C_32
   19  A    between atoms: C_29  and  C_31
                            x       y       z     vdW  Elec       q    Type
                         _______ _______ _______ _____ _____    ______ ____

>  <TORSDO>
F 19

$$$$
=
 OpenBabel10222421213D

 39 41  0  0  1  0  0  0  0  0999 V2000
  189.3250  175.6320  143.0560 O   0  0  0  0  0  0  0  0  0  0  0  0
  188.9550  176.8350  143.1610 C   0  0  0  0  0  0  0  0  0  0  0  0
  190.0880  177.0320  146.0660 C   0  0  0  0  0  3  0  0  0  0  0  0
  187.9310  177.7410  146.6990 C   0  0  0  0  0  0  0  0  0  0  0  0
  186.8070  177.6020  144.1680 C   0  0  0  0  0  3  0  0  0  0  0  0
  188.6830  177.7660  147.9710 C   0  0  0  0  0  3  0  0  0  0  0  0
  186.5910  178.0880  146.5400 C   0  0  0  0  0  3  0  0  0  0  0  0
  186.0230  178.0190  145.2610 C   0  0  0  0  0  0  0  0  0  0  0  0
  188.1610  177.2550  144.3370 C   0  0  0  0  0  0  0  0  0  0  0  0
  188.7020  177.3370  145.6350 C   0  0  0  0  0  0  0  0  0  0  0  0
  190.0810  177.2700  147.5810 C   0  0  0  0  0  2  0  0  0  0  0  0
  184.1060  179.0320  146.2230 O   0  0  0  0  0  1  0  0  0  0  0  0
  184.5870  178.3900  145.0790 C   0  0  1  0  0  3  0  0  0  0  0  0
  184.4100  179.2760  143.8540 C   0  0  0  0  0  2  0  0  0  0  0  0
  182.0520  179.0400  143.6140 O   0  0  0  0  0  0  0  0  0  0  0  0
  183.1900  178.8810  143.0940 C   0  0  0  0  0  0  0  0  0  0  0  0
  183.3230  178.3830  141.7950 O   0  0  0  0  0  0  0  0  0  0  0  0
  182.4250  178.7300  140.7500 C   0  0  0  0  0  2  0  0  0  0  0  0
  181.6130  177.5160  140.3340 C   0  0  0  0  0  2  0  0  0  0  0  0
  182.2390  176.4400  138.1980 C   0  0  0  0  0  1  0  0  0  0  0  0
  182.5260  176.4990  139.6830 C   0  0  0  0  0  2  0  0  0  0  0  0
  189.2810  177.7540  142.1590 O   0  0  0  0  0  0  0  0  0  0  0  0
  190.2950  177.4990  141.1950 C   0  0  0  0  0  2  0  0  0  0  0  0
  189.7100  177.5550  139.7930 C   0  0  0  0  0  2  0  0  0  0  0  0
  190.6860  176.9580  138.7960 C   0  0  0  0  0  2  0  0  0  0  0  0
  190.0500  176.8210  137.4880 N   0  0  0  0  0  2  0  0  0  0  0  0
  189.3130  175.5540  137.3980 C   0  0  1  0  0  3  0  0  0  0  0  0
  188.0660  175.6850  136.5320 C   0  0  2  0  0  3  0  0  0  0  0  0
  187.4140  178.9760  137.0660 O   0  0  0  0  0  0  0  0  0  0  0  0
  187.1360  176.6720  137.1540 N   0  0  0  0  0  0  0  0  0  0  0  0
  186.9600  175.1890  137.1940 C   0  0  1  0  0  3  0  0  0  0  0  0
  186.7290  178.0000  137.4690 C   0  0  0  0  0  0  0  0  0  0  0  0
  185.4870  179.1390  139.1360 O   0  0  0  0  0  0  0  0  0  0  0  0
  185.5160  178.2410  138.2530 C   0  0  0  0  0  3  0  0  0  0  0  0
  185.8850  174.7920  136.2000 C   0  0  0  0  0  2  0  0  0  0  0  0
  185.1830  172.9290  137.6980 C   0  0  0  0  0  1  0  0  0  0  0  0
  184.7150  174.1440  136.9200 C   0  0  0  0  0  2  0  0  0  0  0  0
  189.3510  173.2410  136.4530 C   0  0  0  0  0  1  0  0  0  0  0  0
  190.2000  174.4070  136.9220 C   0  0  0  0  0  2  0  0  0  0  0  0
  1  2  2  0  0  0  0
  2  9  1  0  0  0  0
  3 11  1  0  0  0  0
  4  6  2  0  0  0  0
  5  9  2  0  0  0  0
  5  8  1  0  0  0  0
  7  4  1  0  0  0  0
  8  7  2  0  0  0  0
  9 10  1  0  0  0  0
 10  3  2  0  0  0  0
 10  4  1  0  0  0  0
 11  6  1  0  0  0  0
 13  8  1  0  0  0  0
 13 12  1  1  0  0  0
 14 13  1  0  0  0  0
 16 15  2  0  0  0  0
 16 14  1  0  0  0  0
 17 16  1  0  0  0  0
 18 17  1  0  0  0  0
 19 18  1  0  0  0  0
 20 21  1  0  0  0  0
 21 19  1  0  0  0  0
 22  2  1  0  0  0  0
 23 22  1  0  0  0  0
 24 23  1  0  0  0  0
 25 24  1  0  0  0  0
 26 25  1  0  0  0  0
 27 39  1  6  0  0  0
 27 26  1  0  0  0  0
 28 30  1  0  0  0  0
 28 31  1  0  0  0  0
 28 27  1  1  0  0  0
 29 32  2  0  0  0  0
 30 31  1  0  0  0  0
 30 32  1  0  0  0  0
 31 35  1  6  0  0  0
 32 34  1  0  0  0  0
 34 33  2  0  0  0  0
 35 37  1  0  0  0  0
 37 36  1  0  0  0  0
 38 39  1  0  0  0  0
M  END
>  <MODEL>
3

>  <REMARK>
 VINA RESULT:      -7.3      1.935      3.345
  Name = 
  19 active torsions:
  status: ('A' for Active; 'I' for Inactive)
    1  A    between atoms: C_1  and  C_24
    2  A    between atoms: C_4  and  C_30
    3  A    between atoms: C_4  and  C_37
    4  A    between atoms: C_5  and  C_15
    5  A    between atoms: C_5  and  C_36
    6  A    between atoms: C_8  and  O_14
    7  A    between atoms: C_8  and  C_28
    8  A    between atoms: O_10  and  C_36
    9  A    between atoms: O_10  and  C_38
   10  A    between atoms: O_14  and  C_37
   11  A    between atoms: C_15  and  N_23
   12  A    between atoms: C_21  and  C_30
   13  A    between atoms: C_22  and  C_31
   14  A    between atoms: N_23  and  C_24
   15  A    between atoms: C_24  and  C_35
   16  A    between atoms: C_25  and  C_39
   17  A    between atoms: C_26  and  C_38
   18  A    between atoms: C_28  and  C_32
   19  A    between atoms: C_29  and  C_31
                            x       y       z     vdW  Elec       q    Type
                         _______ _______ _______ _____ _____    ______ ____

>  <TORSDO>
F 19

$$$$
=
 OpenBabel10222421213D

 39 41  0  0  1  0  0  0  0  0999 V2000
  190.1300  175.3480  142.8510 O   0  0  0  0  0  0  0  0  0  0  0  0
  189.7390  176.5480  142.8010 C   0  0  0  0  0  0  0  0  0  0  0  0
  190.2060  176.8670  145.8740 C   0  0  0  0  0  3  0  0  0  0  0  0
  187.9720  177.6100  145.9840 C   0  0  0  0  0  0  0  0  0  0  0  0
  187.4320  177.3640  143.2750 C   0  0  0  0  0  3  0  0  0  0  0  0
  188.4240  177.6880  147.3880 C   0  0  0  0  0  3  0  0  0  0  0  0
  186.7040  177.9530  145.5180 C   0  0  0  0  0  3  0  0  0  0  0  0
  186.4310  177.8300  144.1500 C   0  0  0  0  0  0  0  0  0  0  0  0
  188.7110  177.0200  143.7540 C   0  0  0  0  0  0  0  0  0  0  0  0
  188.9530  177.1580  145.1350 C   0  0  0  0  0  0  0  0  0  0  0  0
  189.8670  177.1720  147.3380 C   0  0  0  0  0  2  0  0  0  0  0  0
  184.2490  178.5810  144.6990 O   0  0  0  0  0  1  0  0  0  0  0  0
  185.0750  178.1960  143.6400 C   0  0  1  0  0  3  0  0  0  0  0  0
  185.1710  179.3090  142.6050 C   0  0  0  0  0  2  0  0  0  0  0  0
  183.8820  177.8190  141.2660 O   0  0  0  0  0  0  0  0  0  0  0  0
  184.5700  178.8750  141.3120 C   0  0  0  0  0  0  0  0  0  0  0  0
  184.7400  179.6700  140.1760 O   0  0  0  0  0  0  0  0  0  0  0  0
  184.0980  179.3830  138.9420 C   0  0  0  0  0  2  0  0  0  0  0  0
  182.7560  180.0920  138.8720 C   0  0  0  0  0  2  0  0  0  0  0  0
  182.4140  178.0040  137.5930 C   0  0  0  0  0  1  0  0  0  0  0  0
  181.8670  179.3870  137.8710 C   0  0  0  0  0  2  0  0  0  0  0  0
  190.2660  177.4130  141.8360 O   0  0  0  0  0  0  0  0  0  0  0  0
  190.1350  177.1660  140.4420 C   0  0  0  0  0  2  0  0  0  0  0  0
  191.5060  177.0950  139.7920 C   0  0  0  0  0  2  0  0  0  0  0  0
  191.4110  176.4000  138.4460 C   0  0  0  0  0  2  0  0  0  0  0  0
  190.2480  175.5160  138.4160 N   0  0  0  0  0  2  0  0  0  0  0  0
  190.2800  174.6550  137.2280 C   0  0  1  0  0  3  0  0  0  0  0  0
  188.9740  174.7250  136.4430 C   0  0  2  0  0  3  0  0  0  0  0  0
  189.3580  177.8170  135.0870 O   0  0  0  0  0  0  0  0  0  0  0  0
  188.4840  176.1340  136.4290 N   0  0  0  0  0  0  0  0  0  0  0  0
  187.9220  175.0420  137.2790 C   0  0  1  0  0  3  0  0  0  0  0  0
  188.5220  177.4810  135.9670 C   0  0  0  0  0  0  0  0  0  0  0  0
  187.3310  178.5210  137.7320 O   0  0  0  0  0  0  0  0  0  0  0  0
  187.5920  178.4780  136.5010 C   0  0  0  0  0  3  0  0  0  0  0  0
  186.6110  174.5730  136.6770 C   0  0  0  0  0  2  0  0  0  0  0  0
  185.0430  173.0090  137.8180 C   0  0  0  0  0  1  0  0  0  0  0  0
  186.3470  173.1250  137.0510 C   0  0  0  0  0  2  0  0  0  0  0  0
  192.2330  173.6800  136.0120 C   0  0  0  0  0  1  0  0  0  0  0  0
  191.4800  174.9550  136.3330 C   0  0  0  0  0  2  0  0  0  0  0  0
  2  1  2  0  0  0  0
  2  9  1  0  0  0  0
  3 11  1  0  0  0  0
  4  6  2  0  0  0  0
  5  9  2  0  0  0  0
  5  8  1  0  0  0  0
  7  4  1  0  0  0  0
  8  7  2  0  0  0  0
  9 10  1  0  0  0  0
 10  3  2  0  0  0  0
 10  4  1  0  0  0  0
 11  6  1  0  0  0  0
 13  8  1  0  0  0  0
 13 12  1  1  0  0  0
 14 13  1  0  0  0  0
 15 16  2  0  0  0  0
 16 14  1  0  0  0  0
 17 16  1  0  0  0  0
 18 17  1  0  0  0  0
 19 18  1  0  0  0  0
 20 21  1  0  0  0  0
 21 19  1  0  0  0  0
 22  2  1  0  0  0  0
 23 22  1  0  0  0  0
 24 23  1  0  0  0  0
 25 24  1  0  0  0  0
 26 25  1  0  0  0  0
 27 39  1  6  0  0  0
 27 26  1  0  0  0  0
 28 27  1  1  0  0  0
 28 31  1  0  0  0  0
 29 32  2  0  0  0  0
 30 28  1  0  0  0  0
 30 31  1  0  0  0  0
 31 35  1  6  0  0  0
 32 30  1  0  0  0  0
 32 34  1  0  0  0  0
 34 33  2  0  0  0  0
 35 37  1  0  0  0  0
 37 36  1  0  0  0  0
 38 39  1  0  0  0  0
M  END
>  <MODEL>
4

>  <REMARK>
 VINA RESULT:      -7.3      1.900      3.086
  Name = 
  19 active torsions:
  status: ('A' for Active; 'I' for Inactive)
    1  A    between atoms: C_1  and  C_24
    2  A    between atoms: C_4  and  C_30
    3  A    between atoms: C_4  and  C_37
    4  A    between atoms: C_5  and  C_15
    5  A    between atoms: C_5  and  C_36
    6  A    between atoms: C_8  and  O_14
    7  A    between atoms: C_8  and  C_28
    8  A    between atoms: O_10  and  C_36
    9  A    between atoms: O_10  and  C_38
   10  A    between atoms: O_14  and  C_37
   11  A    between atoms: C_15  and  N_23
   12  A    between atoms: C_21  and  C_30
   13  A    between atoms: C_22  and  C_31
   14  A    between atoms: N_23  and  C_24
   15  A    between atoms: C_24  and  C_35
   16  A    between atoms: C_25  and  C_39
   17  A    between atoms: C_26  and  C_38
   18  A    between atoms: C_28  and  C_32
   19  A    between atoms: C_29  and  C_31
                            x       y       z     vdW  Elec       q    Type
                         _______ _______ _______ _____ _____    ______ ____

>  <TORSDO>
F 19

$$$$
=
 OpenBabel10222421213D

 39 41  0  0  1  0  0  0  0  0999 V2000
  188.1800  176.3640  142.3510 O   0  0  0  0  0  0  0  0  0  0  0  0
  187.7660  177.5130  142.6770 C   0  0  0  0  0  0  0  0  0  0  0  0
  184.8800  178.3680  143.5170 C   0  0  0  0  0  3  0  0  0  0  0  0
  185.6860  178.3670  145.7320 C   0  0  0  0  0  0  0  0  0  0  0  0
  188.2830  177.6170  145.1140 C   0  0  0  0  0  3  0  0  0  0  0  0
  184.2690  178.7530  145.8870 C   0  0  0  0  0  3  0  0  0  0  0  0
  186.6060  178.2180  146.7670 C   0  0  0  0  0  3  0  0  0  0  0  0
  187.9190  177.8390  146.4560 C   0  0  0  0  0  0  0  0  0  0  0  0
  187.3470  177.7680  144.0730 C   0  0  0  0  0  0  0  0  0  0  0  0
  186.0360  178.1490  144.4200 C   0  0  0  0  0  0  0  0  0  0  0  0
  183.7390  178.7930  144.4480 C   0  0  0  0  0  2  0  0  0  0  0  0
  188.2660  177.6890  148.7970 O   0  0  0  0  0  1  0  0  0  0  0  0
  188.9130  177.6750  147.5590 C   0  0  1  0  0  3  0  0  0  0  0  0
  189.7060  176.3880  147.3840 C   0  0  0  0  0  2  0  0  0  0  0  0
  191.7560  177.3330  148.1420 O   0  0  0  0  0  0  0  0  0  0  0  0
  191.1600  176.6830  147.2410 C   0  0  0  0  0  0  0  0  0  0  0  0
  191.8520  176.1950  146.1300 O   0  0  0  0  0  0  0  0  0  0  0  0
  191.5310  176.5830  144.8010 C   0  0  0  0  0  2  0  0  0  0  0  0
  191.8250  178.0590  144.6020 C   0  0  0  0  0  2  0  0  0  0  0  0
  191.5250  177.5190  142.2080 C   0  0  0  0  0  1  0  0  0  0  0  0
  191.2130  178.5220  143.2970 C   0  0  0  0  0  2  0  0  0  0  0  0
  187.6890  178.5240  141.7150 O   0  0  0  0  0  0  0  0  0  0  0  0
  187.4440  178.2500  140.3420 C   0  0  0  0  0  2  0  0  0  0  0  0
  188.7380  178.3410  139.5510 C   0  0  0  0  0  2  0  0  0  0  0  0
  188.4750  178.0520  138.0830 C   0  0  0  0  0  2  0  0  0  0  0  0
  187.9350  176.7040  137.9240 N   0  0  0  0  0  2  0  0  0  0  0  0
  186.9320  176.6690  136.8530 C   0  0  1  0  0  3  0  0  0  0  0  0
  185.5620  176.2500  137.3750 C   0  0  2  0  0  3  0  0  0  0  0  0
  186.2140  172.9640  137.9420 O   0  0  0  0  0  0  0  0  0  0  0  0
  185.2820  174.8470  136.9500 N   0  0  0  0  0  0  0  0  0  0  0  0
  184.6800  176.0640  136.3280 C   0  0  1  0  0  3  0  0  0  0  0  0
  185.4560  173.4370  137.0550 C   0  0  0  0  0  0  0  0  0  0  0  0
  185.1460  172.3830  134.9550 O   0  0  0  0  0  0  0  0  0  0  0  0
  184.7550  172.5310  136.1430 C   0  0  0  0  0  3  0  0  0  0  0  0
  183.2500  176.2100  136.8120 C   0  0  0  0  0  2  0  0  0  0  0  0
  181.9990  177.9250  135.5090 C   0  0  0  0  0  1  0  0  0  0  0  0
  182.8200  177.6650  136.7570 C   0  0  0  0  0  2  0  0  0  0  0  0
  187.2870  177.8030  134.6550 C   0  0  0  0  0  1  0  0  0  0  0  0
  186.8540  177.9920  136.0950 C   0  0  0  0  0  2  0  0  0  0  0  0
  1  2  2  0  0  0  0
  2  9  1  0  0  0  0
  3 10  2  0  0  0  0
  3 11  1  0  0  0  0
  4  6  2  0  0  0  0
  4  7  1  0  0  0  0
  5  8  1  0  0  0  0
  8  7  2  0  0  0  0
  8 13  1  0  0  0  0
  9 10  1  0  0  0  0
  9  5  2  0  0  0  0
 10  4  1  0  0  0  0
 11  6  1  0  0  0  0
 13 12  1  1  0  0  0
 14 13  1  0  0  0  0
 16 14  1  0  0  0  0
 16 15  2  0  0  0  0
 17 16  1  0  0  0  0
 18 17  1  0  0  0  0
 19 18  1  0  0  0  0
 20 21  1  0  0  0  0
 21 19  1  0  0  0  0
 22  2  1  0  0  0  0
 23 22  1  0  0  0  0
 24 23  1  0  0  0  0
 25 24  1  0  0  0  0
 26 25  1  0  0  0  0
 27 39  1  1  0  0  0
 27 26  1  0  0  0  0
 28 27  1  6  0  0  0
 30 32  1  0  0  0  0
 30 28  1  0  0  0  0
 31 35  1  1  0  0  0
 31 30  1  0  0  0  0
 31 28  1  0  0  0  0
 32 29  2  0  0  0  0
 33 34  2  0  0  0  0
 34 32  1  0  0  0  0
 36 37  1  0  0  0  0
 37 35  1  0  0  0  0
 38 39  1  0  0  0  0
M  END
>  <MODEL>
5

>  <REMARK>
 VINA RESULT:      -7.2      2.992      5.990
  Name = 
  19 active torsions:
  status: ('A' for Active; 'I' for Inactive)
    1  A    between atoms: C_1  and  C_24
    2  A    between atoms: C_4  and  C_30
    3  A    between atoms: C_4  and  C_37
    4  A    between atoms: C_5  and  C_15
    5  A    between atoms: C_5  and  C_36
    6  A    between atoms: C_8  and  O_14
    7  A    between atoms: C_8  and  C_28
    8  A    between atoms: O_10  and  C_36
    9  A    between atoms: O_10  and  C_38
   10  A    between atoms: O_14  and  C_37
   11  A    between atoms: C_15  and  N_23
   12  A    between atoms: C_21  and  C_30
   13  A    between atoms: C_22  and  C_31
   14  A    between atoms: N_23  and  C_24
   15  A    between atoms: C_24  and  C_35
   16  A    between atoms: C_25  and  C_39
   17  A    between atoms: C_26  and  C_38
   18  A    between atoms: C_28  and  C_32
   19  A    between atoms: C_29  and  C_31
                            x       y       z     vdW  Elec       q    Type
                         _______ _______ _______ _____ _____    ______ ____

>  <TORSDO>
F 19

$$$$
=
 OpenBabel10222421213D

 39 41  0  0  1  0  0  0  0  0999 V2000
  188.6140  175.5110  143.1360 O   0  0  0  0  0  0  0  0  0  0  0  0
  188.8180  176.6210  143.7050 C   0  0  0  0  0  0  0  0  0  0  0  0
  188.9370  177.3120  146.7500 C   0  0  0  0  0  3  0  0  0  0  0  0
  186.7630  178.1850  146.4830 C   0  0  0  0  0  0  0  0  0  0  0  0
  186.5340  177.6180  143.7780 C   0  0  0  0  0  3  0  0  0  0  0  0
  187.0500  178.4200  147.9130 C   0  0  0  0  0  3  0  0  0  0  0  0
  185.5880  178.5340  145.8210 C   0  0  0  0  0  3  0  0  0  0  0  0
  185.4720  178.2490  144.4540 C   0  0  0  0  0  0  0  0  0  0  0  0
  187.7200  177.2690  144.4540 C   0  0  0  0  0  0  0  0  0  0  0  0
  187.8050  177.5720  145.8280 C   0  0  0  0  0  0  0  0  0  0  0  0
  188.4480  177.8230  148.1100 C   0  0  0  0  0  2  0  0  0  0  0  0
  183.6410  179.7500  144.3200 O   0  0  0  0  0  1  0  0  0  0  0  0
  184.2160  178.6200  143.7340 C   0  0  1  0  0  3  0  0  0  0  0  0
  184.4930  178.8660  142.2580 C   0  0  0  0  0  2  0  0  0  0  0  0
  182.2650  178.9720  141.4240 O   0  0  0  0  0  0  0  0  0  0  0  0
  183.3680  178.3600  141.4220 C   0  0  0  0  0  0  0  0  0  0  0  0
  183.5650  177.2390  140.6130 O   0  0  0  0  0  0  0  0  0  0  0  0
  183.1150  177.1830  139.2660 C   0  0  0  0  0  2  0  0  0  0  0  0
  184.2120  177.6510  138.3270 C   0  0  0  0  0  2  0  0  0  0  0  0
  182.2640  177.6050  136.8050 C   0  0  0  0  0  1  0  0  0  0  0  0
  183.7670  177.4530  136.8940 C   0  0  0  0  0  2  0  0  0  0  0  0
  190.0710  177.2330  143.6070 O   0  0  0  0  0  0  0  0  0  0  0  0
  191.1420  176.6580  142.8700 C   0  0  0  0  0  2  0  0  0  0  0  0
  191.7500  177.6920  141.9370 C   0  0  0  0  0  2  0  0  0  0  0  0
  191.6350  177.2280  140.4960 C   0  0  0  0  0  2  0  0  0  0  0  0
  190.4290  176.4230  140.3210 N   0  0  0  0  0  2  0  0  0  0  0  0
  189.4460  177.1320  139.4930 C   0  0  1  0  0  3  0  0  0  0  0  0
  189.0790  176.3370  138.2440 C   0  0  2  0  0  3  0  0  0  0  0  0
  191.9600  174.5690  137.8980 O   0  0  0  0  0  0  0  0  0  0  0  0
  190.3030  176.1260  137.4190 N   0  0  0  0  0  0  0  0  0  0  0  0
  189.2270  177.1150  137.1130 C   0  0  1  0  0  3  0  0  0  0  0  0
  191.5430  175.4810  137.1380 C   0  0  0  0  0  0  0  0  0  0  0  0
  193.5800  176.0210  136.0540 O   0  0  0  0  0  0  0  0  0  0  0  0
  192.3330  175.8670  135.9670 C   0  0  0  0  0  3  0  0  0  0  0  0
  188.3650  176.5750  135.9870 C   0  0  0  0  0  2  0  0  0  0  0  0
  187.4190  178.8280  136.4710 C   0  0  0  0  0  1  0  0  0  0  0  0
  187.2980  177.5870  135.6080 C   0  0  0  0  0  2  0  0  0  0  0  0
  188.3520  178.9210  140.8520 C   0  0  0  0  0  1  0  0  0  0  0  0
  188.2010  177.5230  140.2860 C   0  0  0  0  0  2  0  0  0  0  0  0
  1  2  2  0  0  0  0
  2  9  1  0  0  0  0
  3 11  1  0  0  0  0
  4  6  2  0  0  0  0
  5  9  2  0  0  0  0
  5  8  1  0  0  0  0
  6 11  1  0  0  0  0
  7  4  1  0  0  0  0
  8  7  2  0  0  0  0
  9 10  1  0  0  0  0
 10  4  1  0  0  0  0
 10  3  2  0  0  0  0
 13 12  1  1  0  0  0
 13  8  1  0  0  0  0
 14 13  1  0  0  0  0
 16 15  2  0  0  0  0
 16 14  1  0  0  0  0
 17 16  1  0  0  0  0
 18 17  1  0  0  0  0
 19 18  1  0  0  0  0
 20 21  1  0  0  0  0
 21 19  1  0  0  0  0
 22  2  1  0  0  0  0
 23 22  1  0  0  0  0
 24 23  1  0  0  0  0
 25 24  1  0  0  0  0
 26 25  1  0  0  0  0
 27 39  1  1  0  0  0
 27 26  1  0  0  0  0
 28 27  1  1  0  0  0
 30 28  1  0  0  0  0
 31 35  1  6  0  0  0
 31 30  1  0  0  0  0
 31 28  1  0  0  0  0
 32 30  1  0  0  0  0
 32 29  2  0  0  0  0
 34 33  2  0  0  0  0
 34 32  1  0  0  0  0
 37 35  1  0  0  0  0
 37 36  1  0  0  0  0
 39 38  1  0  0  0  0
M  END
>  <MODEL>
6

>  <REMARK>
 VINA RESULT:      -7.2      1.455      2.111
  Name = 
  19 active torsions:
  status: ('A' for Active; 'I' for Inactive)
    1  A    between atoms: C_1  and  C_24
    2  A    between atoms: C_4  and  C_30
    3  A    between atoms: C_4  and  C_37
    4  A    between atoms: C_5  and  C_15
    5  A    between atoms: C_5  and  C_36
    6  A    between atoms: C_8  and  O_14
    7  A    between atoms: C_8  and  C_28
    8  A    between atoms: O_10  and  C_36
    9  A    between atoms: O_10  and  C_38
   10  A    between atoms: O_14  and  C_37
   11  A    between atoms: C_15  and  N_23
   12  A    between atoms: C_21  and  C_30
   13  A    between atoms: C_22  and  C_31
   14  A    between atoms: N_23  and  C_24
   15  A    between atoms: C_24  and  C_35
   16  A    between atoms: C_25  and  C_39
   17  A    between atoms: C_26  and  C_38
   18  A    between atoms: C_28  and  C_32
   19  A    between atoms: C_29  and  C_31
                            x       y       z     vdW  Elec       q    Type
                         _______ _______ _______ _____ _____    ______ ____

>  <TORSDO>
F 19

$$$$
=
 OpenBabel10222421213D

 39 41  0  0  1  0  0  0  0  0999 V2000
  190.0620  175.4190  142.8440 O   0  0  0  0  0  0  0  0  0  0  0  0
  189.2720  176.3950  142.9830 C   0  0  0  0  0  0  0  0  0  0  0  0
  191.2060  176.3590  145.4370 C   0  0  0  0  0  3  0  0  0  0  0  0
  189.4110  177.2550  146.6750 C   0  0  0  0  0  0  0  0  0  0  0  0
  187.5990  177.3310  144.5770 C   0  0  0  0  0  3  0  0  0  0  0  0
  190.4940  177.1530  147.6740 C   0  0  0  0  0  3  0  0  0  0  0  0
  188.1270  177.7400  146.9140 C   0  0  0  0  0  3  0  0  0  0  0  0
  187.2110  177.7800  145.8550 C   0  0  0  0  0  0  0  0  0  0  0  0
  188.8990  176.8440  144.3430 C   0  0  0  0  0  0  0  0  0  0  0  0
  189.7960  176.8190  145.4290 C   0  0  0  0  0  0  0  0  0  0  0  0
  191.6600  176.5360  146.8910 C   0  0  0  0  0  2  0  0  0  0  0  0
  185.7880  178.9970  147.3100 O   0  0  0  0  0  1  0  0  0  0  0  0
  185.8320  178.3000  146.1000 C   0  0  1  0  0  3  0  0  0  0  0  0
  185.3790  179.1910  144.9530 C   0  0  0  0  0  2  0  0  0  0  0  0
  183.0660  179.0430  145.4990 O   0  0  0  0  0  0  0  0  0  0  0  0
  183.9530  178.9210  144.6110 C   0  0  0  0  0  0  0  0  0  0  0  0
  183.6150  178.5820  143.2990 O   0  0  0  0  0  0  0  0  0  0  0  0
  184.4900  178.8130  142.2030 C   0  0  0  0  0  2  0  0  0  0  0  0
  183.8440  178.3460  140.9110 C   0  0  0  0  0  2  0  0  0  0  0  0
  183.6440  179.6790  138.8380 C   0  0  0  0  0  1  0  0  0  0  0  0
  184.6010  178.9220  139.7330 C   0  0  0  0  0  2  0  0  0  0  0  0
  188.7430  177.0300  141.8550 O   0  0  0  0  0  0  0  0  0  0  0  0
  189.5670  177.5850  140.8390 C   0  0  0  0  0  2  0  0  0  0  0  0
  188.7880  178.6120  140.0350 C   0  0  0  0  0  2  0  0  0  0  0  0
  188.9120  178.3180  138.5510 C   0  0  0  0  0  2  0  0  0  0  0  0
  187.5990  178.0170  137.9850 N   0  0  0  0  0  2  0  0  0  0  0  0
  187.7340  177.2660  136.7300 C   0  0  1  0  0  3  0  0  0  0  0  0
  187.6180  175.7620  136.9550 C   0  0  2  0  0  3  0  0  0  0  0  0
  190.6720  175.2140  138.3380 O   0  0  0  0  0  0  0  0  0  0  0  0
  188.9570  175.1330  136.7720 N   0  0  0  0  0  0  0  0  0  0  0  0
  187.8450  175.0770  135.7780 C   0  0  1  0  0  3  0  0  0  0  0  0
  190.2790  174.8240  137.2080 C   0  0  0  0  0  0  0  0  0  0  0  0
  192.1640  173.4340  136.8450 O   0  0  0  0  0  0  0  0  0  0  0  0
  191.1820  174.0510  136.3530 C   0  0  0  0  0  3  0  0  0  0  0  0
  187.2000  173.7050  135.8350 C   0  0  0  0  0  2  0  0  0  0  0  0
  185.5850  172.9730  137.5840 C   0  0  0  0  0  1  0  0  0  0  0  0
  185.7710  173.8140  136.3350 C   0  0  0  0  0  2  0  0  0  0  0  0
  185.3220  177.5550  136.1420 C   0  0  0  0  0  1  0  0  0  0  0  0
  186.7490  177.7450  135.6660 C   0  0  0  0  0  2  0  0  0  0  0  0
  1  2  2  0  0  0  0
  2  9  1  0  0  0  0
  3 11  1  0  0  0  0
  4  7  1  0  0  0  0
  4  6  2  0  0  0  0
  5  8  1  0  0  0  0
  8 13  1  0  0  0  0
  8  7  2  0  0  0  0
  9  5  2  0  0  0  0
  9 10  1  0  0  0  0
 10  3  2  0  0  0  0
 10  4  1  0  0  0  0
 11  6  1  0  0  0  0
 13 12  1  1  0  0  0
 14 13  1  0  0  0  0
 16 14  1  0  0  0  0
 16 15  2  0  0  0  0
 17 16  1  0  0  0  0
 18 17  1  0  0  0  0
 19 18  1  0  0  0  0
 20 21  1  0  0  0  0
 21 19  1  0  0  0  0
 22  2  1  0  0  0  0
 23 22  1  0  0  0  0
 24 23  1  0  0  0  0
 25 24  1  0  0  0  0
 26 25  1  0  0  0  0
 27 39  1  6  0  0  0
 27 26  1  0  0  0  0
 28 27  1  6  0  0  0
 30 28  1  0  0  0  0
 30 32  1  0  0  0  0
 31 35  1  1  0  0  0
 31 30  1  0  0  0  0
 31 28  1  0  0  0  0
 32 29  2  0  0  0  0
 34 33  2  0  0  0  0
 34 32  1  0  0  0  0
 35 37  1  0  0  0  0
 37 36  1  0  0  0  0
 39 38  1  0  0  0  0
M  END
>  <MODEL>
7

>  <REMARK>
 VINA RESULT:      -7.0      1.621      2.328
  Name = 
  19 active torsions:
  status: ('A' for Active; 'I' for Inactive)
    1  A    between atoms: C_1  and  C_24
    2  A    between atoms: C_4  and  C_30
    3  A    between atoms: C_4  and  C_37
    4  A    between atoms: C_5  and  C_15
    5  A    between atoms: C_5  and  C_36
    6  A    between atoms: C_8  and  O_14
    7  A    between atoms: C_8  and  C_28
    8  A    between atoms: O_10  and  C_36
    9  A    between atoms: O_10  and  C_38
   10  A    between atoms: O_14  and  C_37
   11  A    between atoms: C_15  and  N_23
   12  A    between atoms: C_21  and  C_30
   13  A    between atoms: C_22  and  C_31
   14  A    between atoms: N_23  and  C_24
   15  A    between atoms: C_24  and  C_35
   16  A    between atoms: C_25  and  C_39
   17  A    between atoms: C_26  and  C_38
   18  A    between atoms: C_28  and  C_32
   19  A    between atoms: C_29  and  C_31
                            x       y       z     vdW  Elec       q    Type
                         _______ _______ _______ _____ _____    ______ ____

>  <TORSDO>
F 19

$$$$
=
 OpenBabel10222421213D

 39 41  0  0  1  0  0  0  0  0999 V2000
  183.6690  179.8480  143.8930 O   0  0  0  0  0  0  0  0  0  0  0  0
  184.1890  178.8300  143.3560 C   0  0  0  0  0  0  0  0  0  0  0  0
  185.1200  178.6240  146.3310 C   0  0  0  0  0  3  0  0  0  0  0  0
  187.1880  177.8830  145.4750 C   0  0  0  0  0  0  0  0  0  0  0  0
  186.4830  178.0300  142.7970 C   0  0  0  0  0  3  0  0  0  0  0  0
  187.3980  177.8570  146.9370 C   0  0  0  0  0  3  0  0  0  0  0  0
  188.1290  177.5220  144.5130 C   0  0  0  0  0  3  0  0  0  0  0  0
  187.7730  177.5950  143.1590 C   0  0  0  0  0  0  0  0  0  0  0  0
  185.5380  178.3920  143.7760 C   0  0  0  0  0  0  0  0  0  0  0  0
  185.9270  178.3050  145.1280 C   0  0  0  0  0  0  0  0  0  0  0  0
  186.0710  178.3720  147.5080 C   0  0  0  0  0  2  0  0  0  0  0  0
  188.2790  177.4960  140.8450 O   0  0  0  0  0  1  0  0  0  0  0  0
  188.7730  177.2080  142.1190 C   0  0  1  0  0  3  0  0  0  0  0  0
  190.0980  177.9220  142.3530 C   0  0  0  0  0  2  0  0  0  0  0  0
  192.3030  177.1330  141.9200 O   0  0  0  0  0  0  0  0  0  0  0  0
  191.2040  176.9350  142.5080 C   0  0  0  0  0  0  0  0  0  0  0  0
  191.0230  175.8280  143.3390 O   0  0  0  0  0  0  0  0  0  0  0  0
  191.7660  175.6450  144.5370 C   0  0  0  0  0  2  0  0  0  0  0  0
  191.6170  176.8600  145.4360 C   0  0  0  0  0  2  0  0  0  0  0  0
  192.0560  176.0030  147.7130 C   0  0  0  0  0  1  0  0  0  0  0  0
  190.9800  176.4420  146.7440 C   0  0  0  0  0  2  0  0  0  0  0  0
  183.4960  178.1400  142.3560 O   0  0  0  0  0  0  0  0  0  0  0  0
  183.3640  178.6470  141.0350 C   0  0  0  0  0  2  0  0  0  0  0  0
  183.1700  177.5040  140.0530 C   0  0  0  0  0  2  0  0  0  0  0  0
  182.8810  178.0500  138.6660 C   0  0  0  0  0  2  0  0  0  0  0  0
  182.5350  176.9590  137.7570 N   0  0  0  0  0  2  0  0  0  0  0  0
  183.5330  176.8370  136.6880 C   0  0  1  0  0  3  0  0  0  0  0  0
  184.7690  176.0740  137.1530 C   0  0  2  0  0  3  0  0  0  0  0  0
  186.3940  178.6280  138.6980 O   0  0  0  0  0  0  0  0  0  0  0  0
  185.9510  176.9840  137.1160 N   0  0  0  0  0  0  0  0  0  0  0  0
  185.6630  175.9180  136.1120 C   0  0  1  0  0  3  0  0  0  0  0  0
  186.7420  178.0500  137.6350 C   0  0  0  0  0  0  0  0  0  0  0  0
  188.5030  179.5790  137.2150 O   0  0  0  0  0  0  0  0  0  0  0  0
  187.9630  178.4740  136.9470 C   0  0  0  0  0  3  0  0  0  0  0  0
  186.5740  174.7340  136.3740 C   0  0  0  0  0  2  0  0  0  0  0  0
  185.4120  172.8960  137.5890 C   0  0  0  0  0  1  0  0  0  0  0  0
  185.8050  173.4330  136.2260 C   0  0  0  0  0  2  0  0  0  0  0  0
  181.9070  175.1720  135.7760 C   0  0  0  0  0  1  0  0  0  0  0  0
  182.9460  176.2190  135.4220 C   0  0  0  0  0  2  0  0  0  0  0  0
  2  9  1  0  0  0  0
  2  1  2  0  0  0  0
  3 11  1  0  0  0  0
  4  6  2  0  0  0  0
  5  8  1  0  0  0  0
  5  9  2  0  0  0  0
  6 11  1  0  0  0  0
  7  4  1  0  0  0  0
  8  7  2  0  0  0  0
  9 10  1  0  0  0  0
 10  4  1  0  0  0  0
 10  3  2  0  0  0  0
 13 12  1  6  0  0  0
 13 14  1  0  0  0  0
 13  8  1  0  0  0  0
 14 16  1  0  0  0  0
 15 16  2  0  0  0  0
 16 17  1  0  0  0  0
 17 18  1  0  0  0  0
 18 19  1  0  0  0  0
 19 21  1  0  0  0  0
 21 20  1  0  0  0  0
 22  2  1  0  0  0  0
 23 22  1  0  0  0  0
 24 23  1  0  0  0  0
 25 24  1  0  0  0  0
 26 25  1  0  0  0  0
 27 39  1  6  0  0  0
 27 26  1  0  0  0  0
 28 27  1  6  0  0  0
 30 28  1  0  0  0  0
 30 32  1  0  0  0  0
 31 35  1  1  0  0  0
 31 30  1  0  0  0  0
 31 28  1  0  0  0  0
 32 29  2  0  0  0  0
 34 33  2  0  0  0  0
 34 32  1  0  0  0  0
 37 35  1  0  0  0  0
 37 36  1  0  0  0  0
 39 38  1  0  0  0  0
M  END
>  <MODEL>
8

>  <REMARK>
 VINA RESULT:      -6.9      2.453      6.158
  Name = 
  19 active torsions:
  status: ('A' for Active; 'I' for Inactive)
    1  A    between atoms: C_1  and  C_24
    2  A    between atoms: C_4  and  C_30
    3  A    between atoms: C_4  and  C_37
    4  A    between atoms: C_5  and  C_15
    5  A    between atoms: C_5  and  C_36
    6  A    between atoms: C_8  and  O_14
    7  A    between atoms: C_8  and  C_28
    8  A    between atoms: O_10  and  C_36
    9  A    between atoms: O_10  and  C_38
   10  A    between atoms: O_14  and  C_37
   11  A    between atoms: C_15  and  N_23
   12  A    between atoms: C_21  and  C_30
   13  A    between atoms: C_22  and  C_31
   14  A    between atoms: N_23  and  C_24
   15  A    between atoms: C_24  and  C_35
   16  A    between atoms: C_25  and  C_39
   17  A    between atoms: C_26  and  C_38
   18  A    between atoms: C_28  and  C_32
   19  A    between atoms: C_29  and  C_31
                            x       y       z     vdW  Elec       q    Type
                         _______ _______ _______ _____ _____    ______ ____

>  <TORSDO>
F 19

$$$$
=
 OpenBabel10222421213D

 39 41  0  0  1  0  0  0  0  0999 V2000
  183.6340  178.5570  141.4020 O   0  0  0  0  0  0  0  0  0  0  0  0
  184.8910  178.6850  141.4060 C   0  0  0  0  0  0  0  0  0  0  0  0
  183.8870  179.0400  144.3430 C   0  0  0  0  0  3  0  0  0  0  0  0
  185.9260  178.0560  145.0000 C   0  0  0  0  0  0  0  0  0  0  0  0
  186.9300  177.6930  142.4410 C   0  0  0  0  0  3  0  0  0  0  0  0
  185.2450  178.3150  146.2850 C   0  0  0  0  0  3  0  0  0  0  0  0
  187.1800  177.4700  144.8480 C   0  0  0  0  0  3  0  0  0  0  0  0
  187.6880  177.2840  143.5550 C   0  0  0  0  0  0  0  0  0  0  0  0
  185.6620  178.2830  142.6020 C   0  0  0  0  0  0  0  0  0  0  0  0
  185.1800  178.4530  143.9150 C   0  0  0  0  0  0  0  0  0  0  0  0
  183.9310  178.9900  145.8750 C   0  0  0  0  0  2  0  0  0  0  0  0
  189.2590  176.3670  142.0330 O   0  0  0  0  0  1  0  0  0  0  0  0
  189.0320  176.6550  143.3810 C   0  0  1  0  0  3  0  0  0  0  0  0
  190.1270  177.5620  143.9260 C   0  0  0  0  0  2  0  0  0  0  0  0
  191.6820  175.7670  144.1020 O   0  0  0  0  0  0  0  0  0  0  0  0
  191.1500  176.7650  144.6610 C   0  0  0  0  0  0  0  0  0  0  0  0
  191.5380  177.1620  145.9420 O   0  0  0  0  0  0  0  0  0  0  0  0
  190.5990  177.5390  146.9400 C   0  0  0  0  0  2  0  0  0  0  0  0
  189.7530  176.3440  147.3410 C   0  0  0  0  0  2  0  0  0  0  0  0
  188.5550  178.2560  148.3520 C   0  0  0  0  0  1  0  0  0  0  0  0
  188.4210  176.8260  147.8750 C   0  0  0  0  0  2  0  0  0  0  0  0
  185.5390  179.2230  140.2890 O   0  0  0  0  0  0  0  0  0  0  0  0
  185.0780  179.0010  138.9630 C   0  0  0  0  0  2  0  0  0  0  0  0
  185.8710  177.8780  138.3150 C   0  0  0  0  0  2  0  0  0  0  0  0
  186.4540  178.3440  136.9930 C   0  0  0  0  0  2  0  0  0  0  0  0
  187.8430  178.7580  137.1730 N   0  0  0  0  0  2  0  0  0  0  0  0
  188.6710  177.6260  137.6080 C   0  0  1  0  0  3  0  0  0  0  0  0
  189.2850  176.8870  136.4240 C   0  0  2  0  0  3  0  0  0  0  0  0
  186.9480  174.4450  136.0780 O   0  0  0  0  0  0  0  0  0  0  0  0
  188.9990  175.4290  136.5530 N   0  0  0  0  0  0  0  0  0  0  0  0
  190.3160  176.0700  136.8440 C   0  0  1  0  0  3  0  0  0  0  0  0
  188.1360  174.2980  136.4670 C   0  0  0  0  0  0  0  0  0  0  0  0
  187.9340  171.9390  136.5690 O   0  0  0  0  0  0  0  0  0  0  0  0
  188.6220  172.9630  136.8220 C   0  0  0  0  0  3  0  0  0  0  0  0
  191.2660  175.7880  135.6960 C   0  0  0  0  0  2  0  0  0  0  0  0
  193.3360  176.0010  137.0650 C   0  0  0  0  0  1  0  0  0  0  0  0
  192.5060  175.0720  136.2010 C   0  0  0  0  0  2  0  0  0  0  0  0
  189.0980  178.6270  139.8570 C   0  0  0  0  0  1  0  0  0  0  0  0
  189.7400  178.0490  138.6120 C   0  0  0  0  0  2  0  0  0  0  0  0
  1  2  2  0  0  0  0
  2  9  1  0  0  0  0
  3 11  1  0  0  0  0
  4  6  2  0  0  0  0
  5  9  2  0  0  0  0
  5  8  1  0  0  0  0
  7  4  1  0  0  0  0
  8  7  2  0  0  0  0
  9 10  1  0  0  0  0
 10  3  2  0  0  0  0
 10  4  1  0  0  0  0
 11  6  1  0  0  0  0
 13 12  1  6  0  0  0
 13  8  1  0  0  0  0
 13 14  1  0  0  0  0
 14 16  1  0  0  0  0
 15 16  2  0  0  0  0
 16 17  1  0  0  0  0
 17 18  1  0  0  0  0
 18 19  1  0  0  0  0
 19 21  1  0  0  0  0
 21 20  1  0  0  0  0
 22  2  1  0  0  0  0
 23 22  1  0  0  0  0
 24 23  1  0  0  0  0
 25 26  1  0  0  0  0
 25 24  1  0  0  0  0
 26 27  1  0  0  0  0
 27 39  1  1  0  0  0
 28 30  1  0  0  0  0
 28 31  1  0  0  0  0
 28 27  1  1  0  0  0
 29 32  2  0  0  0  0
 30 31  1  0  0  0  0
 31 35  1  6  0  0  0
 32 30  1  0  0  0  0
 32 34  1  0  0  0  0
 33 34  2  0  0  0  0
 35 37  1  0  0  0  0
 37 36  1  0  0  0  0
 39 38  1  0  0  0  0
M  END
>  <MODEL>
9

>  <REMARK>
 VINA RESULT:      -6.8      2.144      5.760
  Name = 
  19 active torsions:
  status: ('A' for Active; 'I' for Inactive)
    1  A    between atoms: C_1  and  C_24
    2  A    between atoms: C_4  and  C_30
    3  A    between atoms: C_4  and  C_37
    4  A    between atoms: C_5  and  C_15
    5  A    between atoms: C_5  and  C_36
    6  A    between atoms: C_8  and  O_14
    7  A    between atoms: C_8  and  C_28
    8  A    between atoms: O_10  and  C_36
    9  A    between atoms: O_10  and  C_38
   10  A    between atoms: O_14  and  C_37
   11  A    between atoms: C_15  and  N_23
   12  A    between atoms: C_21  and  C_30
   13  A    between atoms: C_22  and  C_31
   14  A    between atoms: N_23  and  C_24
   15  A    between atoms: C_24  and  C_35
   16  A    between atoms: C_25  and  C_39
   17  A    between atoms: C_26  and  C_38
   18  A    between atoms: C_28  and  C_32
   19  A    between atoms: C_29  and  C_31
                            x       y       z     vdW  Elec       q    Type
                         _______ _______ _______ _____ _____    ______ ____

>  <TORSDO>
F 19

$$$$
