=
 OpenBabel10222419323D

 26 29  0  0  1  0  0  0  0  0999 V2000
  186.8520  178.3540  139.7160 O   0  0  0  0  0  0  0  0  0  0  0  0
  190.8620  176.5720  138.1190 N   0  0  0  0  0  1  0  0  0  0  0  0
  186.4770  178.4630  142.1600 C   0  0  0  0  0  0  0  0  0  0  0  0
  184.6040  178.5380  140.5810 C   0  0  0  0  0  0  0  0  0  0  0  0
  190.4470  177.2650  140.8170 S   0  0  0  0  0  0  0  0  0  0  0  0
  185.9860  178.4710  140.8200 C   0  0  0  0  0  0  0  0  0  0  0  0
  188.9510  177.8240  138.7210 N   0  0  0  0  0  2  0  0  0  0  0  0
  190.0730  177.2830  139.0630 C   0  0  2  0  0  3  0  0  0  0  0  0
  188.6710  177.5470  141.0450 C   0  0  1  0  0  3  0  0  0  0  0  0
  188.2680  178.5400  142.4930 S   0  0  0  0  0  0  0  0  0  0  0  0
  185.5540  178.4560  143.2370 C   0  0  0  0  0  0  0  0  0  0  0  0
  188.2630  178.3820  139.8640 C   0  0  2  0  0  3  0  0  0  0  0  0
  184.1830  178.5330  142.9650 C   0  0  0  0  0  3  0  0  0  0  0  0
  183.7120  178.5790  141.6570 C   0  0  0  0  0  3  0  0  0  0  0  0
  186.6580  178.2300  147.3470 C   0  0  0  0  0  3  0  0  0  0  0  0
  185.7430  179.1400  146.9190 N   0  0  0  0  0  0  0  0  0  0  0  0
  185.3880  179.2300  145.6090 C   0  0  0  0  0  3  0  0  0  0  0  0
  185.9720  178.3850  144.6550 C   0  0  0  0  0  0  0  0  0  0  0  0
  186.9040  177.4330  145.0890 C   0  0  0  0  0  3  0  0  0  0  0  0
  187.2550  177.3560  146.4380 C   0  0  0  0  0  3  0  0  0  0  0  0
  184.0900  178.5670  139.1700 C   0  0  2  0  0  3  0  0  0  0  0  0
  183.3200  179.8210  138.8920 C   0  0  0  0  0  0  0  0  0  0  0  0
  183.9250  180.9210  138.8280 O   0  0  0  0  0  1  0  0  0  0  0  0
  181.9400  179.7820  138.7310 O   0  0  0  0  0  0  0  0  0  0  0  0
  183.2800  177.3180  138.8420 C   0  0  0  0  0  2  0  0  0  0  0  0
  183.9730  176.5230  137.8430 N   0  0  0  0  0  1  0  0  0  0  0  0
  1 12  1  0  0  0  0
  1  6  1  0  0  0  0
  3 10  1  0  0  0  0
  3 11  1  0  0  0  0
  4  6  1  0  0  0  0
  4 14  2  0  0  0  0
  6  3  2  0  0  0  0
  7  8  1  0  0  0  0
  8  2  1  1  0  0  0
  8  5  1  0  0  0  0
  9  5  1  6  0  0  0
  9 10  1  0  0  0  0
 11 18  1  0  0  0  0
 12  7  1  6  0  0  0
 12  9  1  0  0  0  0
 13 11  2  0  0  0  0
 14 13  1  0  0  0  0
 16 15  1  0  0  0  0
 17 16  2  0  0  0  0
 18 19  2  0  0  0  0
 18 17  1  0  0  0  0
 19 20  1  0  0  0  0
 20 15  2  0  0  0  0
 21 25  1  1  0  0  0
 21  4  1  0  0  0  0
 22 21  1  0  0  0  0
 23 22  1  0  0  0  0
 24 22  2  0  0  0  0
 26 25  1  0  0  0  0
M  END
>  <MODEL>
1

>  <REMARK>
 VINA RESULT:      -7.8      0.000      0.000
  Name = 
  4 active torsions:
  status: ('A' for Active; 'I' for Inactive)
    1  A    between atoms: C_1  and  C_22
    2  A    between atoms: C_8  and  C_23
    3  A    between atoms: C_9  and  C_22
    4  A    between atoms: C_13  and  C_22
                            x       y       z     vdW  Elec       q    Type
                         _______ _______ _______ _____ _____    ______ ____

>  <TORSDO>
F 4

$$$$
=
 OpenBabel10222419323D

 26 29  0  0  1  0  0  0  0  0999 V2000
  186.7910  178.5240  141.5150 O   0  0  0  0  0  0  0  0  0  0  0  0
  188.2380  177.4800  137.1990 N   0  0  0  0  0  1  0  0  0  0  0  0
  188.2030  177.8800  143.4420 C   0  0  0  0  0  0  0  0  0  0  0  0
  185.8120  178.3420  143.7160 C   0  0  0  0  0  0  0  0  0  0  0  0
  189.9000  177.3140  139.4670 S   0  0  0  0  0  0  0  0  0  0  0  0
  186.9460  178.2670  142.8900 C   0  0  0  0  0  0  0  0  0  0  0  0
  187.5140  178.4090  139.2470 N   0  0  0  0  0  2  0  0  0  0  0  0
  188.4460  177.8410  138.5580 C   0  0  2  0  0  3  0  0  0  0  0  0
  188.8430  177.4370  140.9340 C   0  0  1  0  0  3  0  0  0  0  0  0
  189.7180  177.9320  142.4280 S   0  0  0  0  0  0  0  0  0  0  0  0
  188.2760  177.5100  144.8100 C   0  0  0  0  0  0  0  0  0  0  0  0
  187.9010  178.5690  140.6320 C   0  0  2  0  0  3  0  0  0  0  0  0
  187.1300  177.6050  145.6070 C   0  0  0  0  0  3  0  0  0  0  0  0
  185.9160  178.0200  145.0720 C   0  0  0  0  0  3  0  0  0  0  0  0
  191.9230  176.2140  146.5950 C   0  0  0  0  0  3  0  0  0  0  0  0
  191.7310  176.1220  145.2520 N   0  0  0  0  0  0  0  0  0  0  0  0
  190.5690  176.5230  144.6700 C   0  0  0  0  0  3  0  0  0  0  0  0
  189.5240  177.0360  145.4500 C   0  0  0  0  0  0  0  0  0  0  0  0
  189.7180  177.1490  146.8320 C   0  0  0  0  0  3  0  0  0  0  0  0
  190.9170  176.7340  147.4120 C   0  0  0  0  0  3  0  0  0  0  0  0
  184.4930  178.7700  143.1370 C   0  0  2  0  0  3  0  0  0  0  0  0
  183.4380  178.8700  144.1940 C   0  0  0  0  0  0  0  0  0  0  0  0
  182.2530  178.5460  143.9230 O   0  0  0  0  0  0  0  0  0  0  0  0
  183.7510  179.3430  145.4630 O   0  0  0  0  0  1  0  0  0  0  0  0
  184.0650  177.8650  141.9880 C   0  0  0  0  0  2  0  0  0  0  0  0
  183.5670  178.6650  140.8820 N   0  0  0  0  0  1  0  0  0  0  0  0
  1  6  1  0  0  0  0
  3 11  1  0  0  0  0
  4 14  2  0  0  0  0
  6  3  2  0  0  0  0
  6  4  1  0  0  0  0
  8  2  1  1  0  0  0
  8  7  1  0  0  0  0
  8  5  1  0  0  0  0
  9  5  1  6  0  0  0
  9 10  1  0  0  0  0
 10  3  1  0  0  0  0
 11 18  1  0  0  0  0
 11 13  2  0  0  0  0
 12  7  1  6  0  0  0
 12  9  1  0  0  0  0
 12  1  1  0  0  0  0
 14 13  1  0  0  0  0
 15 20  1  0  0  0  0
 16 15  2  0  0  0  0
 17 16  1  0  0  0  0
 17 18  2  0  0  0  0
 18 19  1  0  0  0  0
 19 20  2  0  0  0  0
 21 25  1  6  0  0  0
 21  4  1  0  0  0  0
 21 22  1  0  0  0  0
 22 24  1  0  0  0  0
 23 22  2  0  0  0  0
 26 25  1  0  0  0  0
M  END
>  <MODEL>
2

>  <REMARK>
 VINA RESULT:      -7.7      2.952      3.911
  Name = 
  4 active torsions:
  status: ('A' for Active; 'I' for Inactive)
    1  A    between atoms: C_1  and  C_22
    2  A    between atoms: C_8  and  C_23
    3  A    between atoms: C_9  and  C_22
    4  A    between atoms: C_13  and  C_22
                            x       y       z     vdW  Elec       q    Type
                         _______ _______ _______ _____ _____    ______ ____

>  <TORSDO>
F 4

$$$$
=
 OpenBabel10222419323D

 26 29  0  0  1  0  0  0  0  0999 V2000
  190.7550  176.9200  144.5330 O   0  0  0  0  0  0  0  0  0  0  0  0
  192.6130  177.5030  140.2880 N   0  0  0  0  0  1  0  0  0  0  0  0
  188.3690  177.4740  144.8840 C   0  0  0  0  0  0  0  0  0  0  0  0
  189.9380  177.3620  146.7630 C   0  0  0  0  0  0  0  0  0  0  0  0
  189.8410  177.5700  140.7820 S   0  0  0  0  0  0  0  0  0  0  0  0
  189.6810  177.2320  145.3880 C   0  0  0  0  0  0  0  0  0  0  0  0
  191.7850  176.8030  142.3870 N   0  0  0  0  0  2  0  0  0  0  0  0
  191.5500  177.1960  141.1800 C   0  0  2  0  0  3  0  0  0  0  0  0
  189.6050  177.6790  142.5760 C   0  0  1  0  0  3  0  0  0  0  0  0
  187.9740  177.1550  143.1320 S   0  0  0  0  0  0  0  0  0  0  0  0
  187.3530  177.9100  145.7730 C   0  0  0  0  0  0  0  0  0  0  0  0
  190.5620  176.6720  143.1490 C   0  0  2  0  0  3  0  0  0  0  0  0
  187.6400  178.0190  147.1390 C   0  0  0  0  0  3  0  0  0  0  0  0
  188.9110  177.7450  147.6300 C   0  0  0  0  0  3  0  0  0  0  0  0
  183.4150  178.9680  144.5330 C   0  0  0  0  0  3  0  0  0  0  0  0
  183.7580  178.9730  145.8490 N   0  0  0  0  0  0  0  0  0  0  0  0
  185.0080  178.6280  146.2600 C   0  0  0  0  0  3  0  0  0  0  0  0
  185.9820  178.2440  145.3280 C   0  0  0  0  0  0  0  0  0  0  0  0
  185.6430  178.2530  143.9690 C   0  0  0  0  0  3  0  0  0  0  0  0
  184.3560  178.6100  143.5660 C   0  0  0  0  0  3  0  0  0  0  0  0
  191.3160  177.0870  147.2950 C   0  0  2  0  0  3  0  0  0  0  0  0
  191.6470  175.6290  147.2300 C   0  0  0  0  0  0  0  0  0  0  0  0
  190.8840  174.7920  147.7760 O   0  0  0  0  0  1  0  0  0  0  0  0
  192.8050  175.1940  146.5950 O   0  0  0  0  0  0  0  0  0  0  0  0
  191.4970  177.6500  148.6990 C   0  0  0  0  0  2  0  0  0  0  0  0
  192.8050  177.2870  149.2180 N   0  0  0  0  0  1  0  0  0  0  0  0
  1  6  1  0  0  0  0
  3  6  2  0  0  0  0
  3 11  1  0  0  0  0
  4 21  1  0  0  0  0
  4 14  2  0  0  0  0
  5  8  1  0  0  0  0
  6  4  1  0  0  0  0
  8  2  1  1  0  0  0
  8  7  1  0  0  0  0
  9  5  1  6  0  0  0
  9 10  1  0  0  0  0
  9 12  1  0  0  0  0
 10  3  1  0  0  0  0
 11 13  2  0  0  0  0
 12  7  1  6  0  0  0
 12  1  1  0  0  0  0
 13 14  1  0  0  0  0
 15 16  1  0  0  0  0
 16 17  2  0  0  0  0
 18 11  1  0  0  0  0
 18 17  1  0  0  0  0
 19 18  2  0  0  0  0
 20 19  1  0  0  0  0
 20 15  2  0  0  0  0
 21 25  1  1  0  0  0
 22 21  1  0  0  0  0
 22 23  1  0  0  0  0
 24 22  2  0  0  0  0
 25 26  1  0  0  0  0
M  END
>  <MODEL>
3

>  <REMARK>
 VINA RESULT:      -7.5      4.291      7.302
  Name = 
  4 active torsions:
  status: ('A' for Active; 'I' for Inactive)
    1  A    between atoms: C_1  and  C_22
    2  A    between atoms: C_8  and  C_23
    3  A    between atoms: C_9  and  C_22
    4  A    between atoms: C_13  and  C_22
                            x       y       z     vdW  Elec       q    Type
                         _______ _______ _______ _____ _____    ______ ____

>  <TORSDO>
F 4

$$$$
=
 OpenBabel10222419323D

 26 29  0  0  1  0  0  0  0  0999 V2000
  187.0420  178.5690  140.4910 O   0  0  0  0  0  0  0  0  0  0  0  0
  190.0030  177.0760  137.2040 N   0  0  0  0  0  1  0  0  0  0  0  0
  187.5670  178.1270  142.8690 C   0  0  0  0  0  0  0  0  0  0  0  0
  185.2790  178.6200  142.1430 C   0  0  0  0  0  0  0  0  0  0  0  0
  190.6470  177.1450  139.9450 S   0  0  0  0  0  0  0  0  0  0  0  0
  186.6400  178.4570  141.8360 C   0  0  0  0  0  0  0  0  0  0  0  0
  188.5810  178.2160  138.7080 N   0  0  0  0  0  2  0  0  0  0  0  0
  189.6830  177.5770  138.4950 C   0  0  2  0  0  3  0  0  0  0  0  0
  189.1090  177.4220  140.8640 C   0  0  1  0  0  3  0  0  0  0  0  0
  189.3570  178.0690  142.5270 S   0  0  0  0  0  0  0  0  0  0  0  0
  187.0880  177.9010  144.1850 C   0  0  0  0  0  0  0  0  0  0  0  0
  188.4080  178.5190  140.1110 C   0  0  2  0  0  3  0  0  0  0  0  0
  185.7280  178.0820  144.4590 C   0  0  0  0  0  3  0  0  0  0  0  0
  184.8340  178.4420  143.4560 C   0  0  0  0  0  3  0  0  0  0  0  0
  189.6920  176.8020  147.3760 C   0  0  0  0  0  3  0  0  0  0  0  0
  190.1010  176.7250  146.0810 N   0  0  0  0  0  0  0  0  0  0  0  0
  189.2780  177.0630  145.0530 C   0  0  0  0  0  3  0  0  0  0  0  0
  187.9680  177.4940  145.3030 C   0  0  0  0  0  0  0  0  0  0  0  0
  187.5420  177.5930  146.6340 C   0  0  0  0  0  3  0  0  0  0  0  0
  188.4020  177.2420  147.6760 C   0  0  0  0  0  3  0  0  0  0  0  0
  184.3070  178.9880  141.0570 C   0  0  2  0  0  3  0  0  0  0  0  0
  183.0980  178.1060  141.0810 C   0  0  0  0  0  0  0  0  0  0  0  0
  183.1300  176.9900  140.5010 O   0  0  0  0  0  0  0  0  0  0  0  0
  181.9330  178.5200  141.7170 O   0  0  0  0  0  1  0  0  0  0  0  0
  184.9750  179.0020  139.6880 C   0  0  0  0  0  2  0  0  0  0  0  0
  184.4710  180.1120  138.8980 N   0  0  0  0  0  1  0  0  0  0  0  0
  1  6  1  0  0  0  0
  3 11  1  0  0  0  0
  4 14  2  0  0  0  0
  6  4  1  0  0  0  0
  6  3  2  0  0  0  0
  8  2  1  1  0  0  0
  8  7  1  0  0  0  0
  8  5  1  0  0  0  0
  9  5  1  6  0  0  0
  9 10  1  0  0  0  0
 10  3  1  0  0  0  0
 11 13  2  0  0  0  0
 11 18  1  0  0  0  0
 12  7  1  6  0  0  0
 12  1  1  0  0  0  0
 12  9  1  0  0  0  0
 14 13  1  0  0  0  0
 15 20  1  0  0  0  0
 16 15  2  0  0  0  0
 17 18  2  0  0  0  0
 17 16  1  0  0  0  0
 18 19  1  0  0  0  0
 19 20  2  0  0  0  0
 21 25  1  6  0  0  0
 21 22  1  0  0  0  0
 21  4  1  0  0  0  0
 22 24  1  0  0  0  0
 23 22  2  0  0  0  0
 26 25  1  0  0  0  0
M  END
>  <MODEL>
4

>  <REMARK>
 VINA RESULT:      -7.2      1.914      2.437
  Name = 
  4 active torsions:
  status: ('A' for Active; 'I' for Inactive)
    1  A    between atoms: C_1  and  C_22
    2  A    between atoms: C_8  and  C_23
    3  A    between atoms: C_9  and  C_22
    4  A    between atoms: C_13  and  C_22
                            x       y       z     vdW  Elec       q    Type
                         _______ _______ _______ _____ _____    ______ ____

>  <TORSDO>
F 4

$$$$
=
 OpenBabel10222419323D

 26 29  0  0  1  0  0  0  0  0999 V2000
  187.6120  177.5570  143.7810 O   0  0  0  0  0  0  0  0  0  0  0  0
  189.3460  177.8790  148.1050 N   0  0  0  0  0  1  0  0  0  0  0  0
  189.1670  177.2050  141.8880 C   0  0  0  0  0  0  0  0  0  0  0  0
  186.9210  178.1200  141.5360 C   0  0  0  0  0  0  0  0  0  0  0  0
  190.8490  176.9720  145.9020 S   0  0  0  0  0  0  0  0  0  0  0  0
  187.8990  177.6060  142.4030 C   0  0  0  0  0  0  0  0  0  0  0  0
  188.2530  177.3860  146.0690 N   0  0  0  0  0  2  0  0  0  0  0  0
  189.3360  177.3860  146.7720 C   0  0  2  0  0  3  0  0  0  0  0  0
  189.9160  177.3670  144.4000 C   0  0  1  0  0  3  0  0  0  0  0  0
  190.3900  176.3860  142.9650 S   0  0  0  0  0  0  0  0  0  0  0  0
  189.4480  177.3940  140.5100 C   0  0  0  0  0  0  0  0  0  0  0  0
  188.5030  176.9600  144.7100 C   0  0  2  0  0  3  0  0  0  0  0  0
  188.4480  177.8990  139.6710 C   0  0  0  0  0  3  0  0  0  0  0  0
  187.2000  178.2530  140.1720 C   0  0  0  0  0  3  0  0  0  0  0  0
  193.1890  176.5010  138.6750 C   0  0  0  0  0  3  0  0  0  0  0  0
  192.0200  176.0940  138.1120 N   0  0  0  0  0  0  0  0  0  0  0  0
  190.8190  176.3640  138.6910 C   0  0  0  0  0  3  0  0  0  0  0  0
  190.7570  177.0660  139.9030 C   0  0  0  0  0  0  0  0  0  0  0  0
  191.9550  177.5030  140.4820 C   0  0  0  0  0  3  0  0  0  0  0  0
  193.1770  177.2170  139.8720 C   0  0  0  0  0  3  0  0  0  0  0  0
  185.5780  178.5230  142.0770 C   0  0  2  0  0  3  0  0  0  0  0  0
  184.5620  178.6450  140.9850 C   0  0  0  0  0  0  0  0  0  0  0  0
  183.7220  177.7250  140.8110 O   0  0  0  0  0  1  0  0  0  0  0  0
  184.5550  179.7530  140.1450 O   0  0  0  0  0  0  0  0  0  0  0  0
  185.6700  179.7930  142.9140 C   0  0  0  0  0  2  0  0  0  0  0  0
  184.6960  179.7510  143.9920 N   0  0  0  0  0  1  0  0  0  0  0  0
  3  6  1  0  0  0  0
  3 10  1  0  0  0  0
  4 21  1  0  0  0  0
  4  6  2  0  0  0  0
  5  8  1  0  0  0  0
  6  1  1  0  0  0  0
  7  8  1  0  0  0  0
  8  2  1  6  0  0  0
  9 10  1  6  0  0  0
  9 12  1  0  0  0  0
  9  5  1  0  0  0  0
 11  3  2  0  0  0  0
 12  1  1  6  0  0  0
 12  7  1  0  0  0  0
 13 14  2  0  0  0  0
 13 11  1  0  0  0  0
 14  4  1  0  0  0  0
 15 20  1  0  0  0  0
 16 15  2  0  0  0  0
 16 17  1  0  0  0  0
 17 18  2  0  0  0  0
 18 19  1  0  0  0  0
 18 11  1  0  0  0  0
 20 19  2  0  0  0  0
 21 25  1  6  0  0  0
 22 21  1  0  0  0  0
 23 22  1  0  0  0  0
 24 22  2  0  0  0  0
 25 26  1  0  0  0  0
M  END
>  <MODEL>
5

>  <REMARK>
 VINA RESULT:      -7.0      2.518      6.272
  Name = 
  4 active torsions:
  status: ('A' for Active; 'I' for Inactive)
    1  A    between atoms: C_1  and  C_22
    2  A    between atoms: C_8  and  C_23
    3  A    between atoms: C_9  and  C_22
    4  A    between atoms: C_13  and  C_22
                            x       y       z     vdW  Elec       q    Type
                         _______ _______ _______ _____ _____    ______ ____

>  <TORSDO>
F 4

$$$$
=
 OpenBabel10222419323D

 26 29  0  0  1  0  0  0  0  0999 V2000
  187.5120  177.4850  144.4690 O   0  0  0  0  0  0  0  0  0  0  0  0
  191.4900  177.1010  146.8850 N   0  0  0  0  0  1  0  0  0  0  0  0
  187.6220  177.7530  142.0110 C   0  0  0  0  0  0  0  0  0  0  0  0
  185.6310  178.4190  143.2760 C   0  0  0  0  0  0  0  0  0  0  0  0
  191.3620  176.8910  144.0790 S   0  0  0  0  0  0  0  0  0  0  0  0
  186.9210  177.8650  143.2490 C   0  0  0  0  0  0  0  0  0  0  0  0
  189.3870  176.9150  145.8240 N   0  0  0  0  0  2  0  0  0  0  0  0
  190.6760  176.9070  145.7360 C   0  0  2  0  0  3  0  0  0  0  0  0
  189.7250  177.4720  143.5590 C   0  0  1  0  0  3  0  0  0  0  0  0
  189.2270  176.8920  141.9280 S   0  0  0  0  0  0  0  0  0  0  0  0
  187.0300  178.2680  140.8300 C   0  0  0  0  0  0  0  0  0  0  0  0
  188.7670  176.8260  144.5200 C   0  0  2  0  0  3  0  0  0  0  0  0
  185.7380  178.8050  140.8890 C   0  0  0  0  0  3  0  0  0  0  0  0
  185.0440  178.8760  142.0920 C   0  0  0  0  0  3  0  0  0  0  0  0
  189.0600  178.1550  137.0840 C   0  0  0  0  0  3  0  0  0  0  0  0
  189.6960  178.5730  138.2110 N   0  0  0  0  0  0  0  0  0  0  0  0
  189.0580  178.6240  139.4110 C   0  0  0  0  0  3  0  0  0  0  0  0
  187.7100  178.2530  139.5160 C   0  0  0  0  0  0  0  0  0  0  0  0
  187.0510  177.8050  138.3630 C   0  0  0  0  0  3  0  0  0  0  0  0
  187.7230  177.7590  137.1410 C   0  0  0  0  0  3  0  0  0  0  0  0
  184.8860  178.5160  144.5770 C   0  0  2  0  0  3  0  0  0  0  0  0
  183.5150  179.0850  144.3820 C   0  0  0  0  0  0  0  0  0  0  0  0
  183.3670  180.3290  144.2680 O   0  0  0  0  0  0  0  0  0  0  0  0
  182.4010  178.2530  144.3520 O   0  0  0  0  0  1  0  0  0  0  0  0
  185.6800  179.2910  145.6210 C   0  0  0  0  0  2  0  0  0  0  0  0
  185.2640  178.8980  146.9570 N   0  0  0  0  0  1  0  0  0  0  0  0
  3  6  1  0  0  0  0
  4 21  1  0  0  0  0
  5  8  1  0  0  0  0
  6  4  2  0  0  0  0
  6  1  1  0  0  0  0
  8  7  1  0  0  0  0
  8  2  1  6  0  0  0
  9 10  1  6  0  0  0
  9  5  1  0  0  0  0
  9 12  1  0  0  0  0
 10  3  1  0  0  0  0
 11 13  1  0  0  0  0
 11  3  2  0  0  0  0
 12  1  1  1  0  0  0
 12  7  1  0  0  0  0
 13 14  2  0  0  0  0
 14  4  1  0  0  0  0
 15 20  2  0  0  0  0
 15 16  1  0  0  0  0
 16 17  2  0  0  0  0
 17 18  1  0  0  0  0
 18 11  1  0  0  0  0
 19 18  2  0  0  0  0
 20 19  1  0  0  0  0
 21 25  1  1  0  0  0
 22 21  1  0  0  0  0
 23 22  2  0  0  0  0
 24 22  1  0  0  0  0
 25 26  1  0  0  0  0
M  END
>  <MODEL>
6

>  <REMARK>
 VINA RESULT:      -7.0      2.874      6.099
  Name = 
  4 active torsions:
  status: ('A' for Active; 'I' for Inactive)
    1  A    between atoms: C_1  and  C_22
    2  A    between atoms: C_8  and  C_23
    3  A    between atoms: C_9  and  C_22
    4  A    between atoms: C_13  and  C_22
                            x       y       z     vdW  Elec       q    Type
                         _______ _______ _______ _____ _____    ______ ____

>  <TORSDO>
F 4

$$$$
=
 OpenBabel10222419323D

 26 29  0  0  1  0  0  0  0  0999 V2000
  188.5360  177.8920  140.5000 O   0  0  0  0  0  0  0  0  0  0  0  0
  184.5560  179.8770  139.0780 N   0  0  0  0  0  1  0  0  0  0  0  0
  188.9220  177.5810  142.9250 C   0  0  0  0  0  0  0  0  0  0  0  0
  190.7840  177.5930  141.3310 C   0  0  0  0  0  0  0  0  0  0  0  0
  184.9710  178.9630  141.7100 S   0  0  0  0  0  0  0  0  0  0  0  0
  189.4050  177.6690  141.5850 C   0  0  0  0  0  0  0  0  0  0  0  0
  186.4430  178.5420  139.5660 N   0  0  0  0  0  2  0  0  0  0  0  0
  185.3350  179.0770  139.9570 C   0  0  2  0  0  3  0  0  0  0  0  0
  186.7420  178.6280  141.9020 C   0  0  1  0  0  3  0  0  0  0  0  0
  187.1320  177.5140  143.2640 S   0  0  0  0  0  0  0  0  0  0  0  0
  189.8510  177.4840  143.9920 C   0  0  0  0  0  0  0  0  0  0  0  0
  187.1260  177.8800  140.6550 C   0  0  2  0  0  3  0  0  0  0  0  0
  191.2190  177.4000  143.7040 C   0  0  0  0  0  3  0  0  0  0  0  0
  191.6810  177.4480  142.3940 C   0  0  0  0  0  3  0  0  0  0  0  0
  188.7510  177.4580  148.1090 C   0  0  0  0  0  3  0  0  0  0  0  0
  190.0010  177.0930  147.7180 N   0  0  0  0  0  0  0  0  0  0  0  0
  190.3630  177.0870  146.4070 C   0  0  0  0  0  3  0  0  0  0  0  0
  189.4430  177.4500  145.4140 C   0  0  0  0  0  0  0  0  0  0  0  0
  188.1580  177.8440  145.8090 C   0  0  0  0  0  3  0  0  0  0  0  0
  187.8050  177.8440  147.1590 C   0  0  0  0  0  3  0  0  0  0  0  0
  191.2900  177.6660  139.9180 C   0  0  2  0  0  3  0  0  0  0  0  0
  190.5140  176.7630  139.0110 C   0  0  0  0  0  0  0  0  0  0  0  0
  190.5550  175.5180  139.1870 O   0  0  0  0  0  1  0  0  0  0  0  0
  189.7680  177.2870  137.9610 O   0  0  0  0  0  0  0  0  0  0  0  0
  192.7880  177.3960  139.8450 C   0  0  0  0  0  2  0  0  0  0  0  0
  193.1800  177.1280  138.4710 N   0  0  0  0  0  1  0  0  0  0  0  0
  1 12  1  0  0  0  0
  1  6  1  0  0  0  0
  3 10  1  0  0  0  0
  3 11  1  0  0  0  0
  4  6  1  0  0  0  0
  4 14  2  0  0  0  0
  6  3  2  0  0  0  0
  7  8  1  0  0  0  0
  8  2  1  1  0  0  0
  8  5  1  0  0  0  0
  9  5  1  6  0  0  0
  9 10  1  0  0  0  0
 11 18  1  0  0  0  0
 12  7  1  6  0  0  0
 12  9  1  0  0  0  0
 13 11  2  0  0  0  0
 14 13  1  0  0  0  0
 16 15  1  0  0  0  0
 17 16  2  0  0  0  0
 18 19  2  0  0  0  0
 18 17  1  0  0  0  0
 19 20  1  0  0  0  0
 20 15  2  0  0  0  0
 21 25  1  1  0  0  0
 21  4  1  0  0  0  0
 22 23  1  0  0  0  0
 22 21  1  0  0  0  0
 24 22  2  0  0  0  0
 26 25  1  0  0  0  0
M  END
>  <MODEL>
7

>  <REMARK>
 VINA RESULT:      -6.9      2.890      5.678
  Name = 
  4 active torsions:
  status: ('A' for Active; 'I' for Inactive)
    1  A    between atoms: C_1  and  C_22
    2  A    between atoms: C_8  and  C_23
    3  A    between atoms: C_9  and  C_22
    4  A    between atoms: C_13  and  C_22
                            x       y       z     vdW  Elec       q    Type
                         _______ _______ _______ _____ _____    ______ ____

>  <TORSDO>
F 4

$$$$
=
 OpenBabel10222419323D

 26 29  0  0  1  0  0  0  0  0999 V2000
  189.8570  176.9940  143.3510 O   0  0  0  0  0  0  0  0  0  0  0  0
  193.2820  177.5040  140.2180 N   0  0  0  0  0  1  0  0  0  0  0  0
  187.5540  177.6550  142.7280 C   0  0  0  0  0  0  0  0  0  0  0  0
  188.2330  177.4670  145.0760 C   0  0  0  0  0  0  0  0  0  0  0  0
  190.5500  177.6950  139.5620 S   0  0  0  0  0  0  0  0  0  0  0  0
  188.5440  177.3520  143.7110 C   0  0  0  0  0  0  0  0  0  0  0  0
  191.6540  176.8360  141.7950 N   0  0  0  0  0  2  0  0  0  0  0  0
  191.9390  177.2440  140.6030 C   0  0  2  0  0  3  0  0  0  0  0  0
  189.6190  177.8100  141.1130 C   0  0  1  0  0  3  0  0  0  0  0  0
  187.8820  177.3590  140.9590 S   0  0  0  0  0  0  0  0  0  0  0  0
  186.2860  178.1330  143.1460 C   0  0  0  0  0  0  0  0  0  0  0  0
  190.2250  176.7580  142.0010 C   0  0  2  0  0  3  0  0  0  0  0  0
  186.0050  178.2260  144.5140 C   0  0  0  0  0  3  0  0  0  0  0  0
  186.9610  177.8930  145.4670 C   0  0  0  0  0  3  0  0  0  0  0  0
  183.2670  179.2130  140.3370 C   0  0  0  0  0  3  0  0  0  0  0  0
  184.5820  179.4430  140.0730 N   0  0  0  0  0  0  0  0  0  0  0  0
  185.5550  179.1130  140.9650 C   0  0  0  0  0  3  0  0  0  0  0  0
  185.2230  178.5300  142.1960 C   0  0  0  0  0  0  0  0  0  0  0  0
  183.8730  178.2740  142.4690 C   0  0  0  0  0  3  0  0  0  0  0  0
  182.8890  178.6200  141.5420 C   0  0  0  0  0  3  0  0  0  0  0  0
  189.2700  177.1280  146.1090 C   0  0  2  0  0  3  0  0  0  0  0  0
  188.7700  177.3930  147.4950 C   0  0  0  0  0  0  0  0  0  0  0  0
  188.1200  176.5050  148.1040 O   0  0  0  0  0  0  0  0  0  0  0  0
  188.9940  178.6230  148.1040 O   0  0  0  0  0  1  0  0  0  0  0  0
  190.5890  177.8390  145.8340 C   0  0  0  0  0  2  0  0  0  0  0  0
  191.6900  177.0930  146.4190 N   0  0  0  0  0  1  0  0  0  0  0  0
  1  6  1  0  0  0  0
  3 11  2  0  0  0  0
  3  6  1  0  0  0  0
  4 14  1  0  0  0  0
  4 21  1  0  0  0  0
  5  8  1  0  0  0  0
  6  4  2  0  0  0  0
  8  2  1  1  0  0  0
  8  7  1  0  0  0  0
  9  5  1  6  0  0  0
  9 12  1  0  0  0  0
 10  9  1  0  0  0  0
 10  3  1  0  0  0  0
 11 13  1  0  0  0  0
 12  7  1  1  0  0  0
 12  1  1  0  0  0  0
 13 14  2  0  0  0  0
 15 20  1  0  0  0  0
 16 15  2  0  0  0  0
 16 17  1  0  0  0  0
 17 18  2  0  0  0  0
 18 19  1  0  0  0  0
 18 11  1  0  0  0  0
 20 19  2  0  0  0  0
 21 25  1  6  0  0  0
 21 22  1  0  0  0  0
 22 23  2  0  0  0  0
 22 24  1  0  0  0  0
 25 26  1  0  0  0  0
M  END
>  <MODEL>
8

>  <REMARK>
 VINA RESULT:      -6.8      3.443      6.342
  Name = 
  4 active torsions:
  status: ('A' for Active; 'I' for Inactive)
    1  A    between atoms: C_1  and  C_22
    2  A    between atoms: C_8  and  C_23
    3  A    between atoms: C_9  and  C_22
    4  A    between atoms: C_13  and  C_22
                            x       y       z     vdW  Elec       q    Type
                         _______ _______ _______ _____ _____    ______ ____

>  <TORSDO>
F 4

$$$$
=
 OpenBabel10222419323D

 26 29  0  0  1  0  0  0  0  0999 V2000
  186.1370  178.7070  139.0170 O   0  0  0  0  0  0  0  0  0  0  0  0
  190.0310  177.2410  136.8970 N   0  0  0  0  0  1  0  0  0  0  0  0
  185.9880  178.5670  141.4840 C   0  0  0  0  0  0  0  0  0  0  0  0
  183.9750  178.7220  140.0950 C   0  0  0  0  0  0  0  0  0  0  0  0
  189.8490  177.6560  139.6770 S   0  0  0  0  0  0  0  0  0  0  0  0
  185.3750  178.6850  140.2010 C   0  0  0  0  0  0  0  0  0  0  0  0
  188.1490  178.3560  137.7900 N   0  0  0  0  0  2  0  0  0  0  0  0
  189.3130  177.8280  137.9740 C   0  0  2  0  0  3  0  0  0  0  0  0
  188.0950  177.8460  140.0910 C   0  0  1  0  0  3  0  0  0  0  0  0
  187.8000  178.6800  141.6610 S   0  0  0  0  0  0  0  0  0  0  0  0
  185.1700  178.4210  142.6330 C   0  0  0  0  0  0  0  0  0  0  0  0
  187.5540  178.7750  139.0400 C   0  0  2  0  0  3  0  0  0  0  0  0
  183.7780  178.4720  142.4940 C   0  0  0  0  0  3  0  0  0  0  0  0
  183.1870  178.6260  141.2450 C   0  0  0  0  0  3  0  0  0  0  0  0
  186.8510  177.8890  146.5140 C   0  0  0  0  0  3  0  0  0  0  0  0
  187.2240  177.0930  145.4760 N   0  0  0  0  0  0  0  0  0  0  0  0
  186.6890  177.2450  144.2340 C   0  0  0  0  0  3  0  0  0  0  0  0
  185.7200  178.2300  143.9940 C   0  0  0  0  0  0  0  0  0  0  0  0
  185.3420  179.0650  145.0530 C   0  0  0  0  0  3  0  0  0  0  0  0
  185.9030  178.8940  146.3190 C   0  0  0  0  0  3  0  0  0  0  0  0
  183.3310  178.8670  138.7450 C   0  0  2  0  0  3  0  0  0  0  0  0
  182.4560  180.0790  138.6830 C   0  0  0  0  0  0  0  0  0  0  0  0
  181.2080  179.9440  138.6010 O   0  0  0  0  0  0  0  0  0  0  0  0
  183.0120  181.3540  138.6890 O   0  0  0  0  0  1  0  0  0  0  0  0
  182.5820  177.6020  138.3430 C   0  0  0  0  0  2  0  0  0  0  0  0
  183.5230  176.5280  138.0760 N   0  0  0  0  0  1  0  0  0  0  0  0
  1 12  1  0  0  0  0
  1  6  1  0  0  0  0
  3 10  1  0  0  0  0
  3 11  1  0  0  0  0
  4  6  1  0  0  0  0
  4 14  2  0  0  0  0
  6  3  2  0  0  0  0
  7  8  1  0  0  0  0
  8  2  1  1  0  0  0
  8  5  1  0  0  0  0
  9  5  1  6  0  0  0
  9 10  1  0  0  0  0
 11 18  1  0  0  0  0
 12  7  1  6  0  0  0
 12  9  1  0  0  0  0
 13 11  2  0  0  0  0
 14 13  1  0  0  0  0
 16 15  2  0  0  0  0
 17 16  1  0  0  0  0
 18 17  2  0  0  0  0
 18 19  1  0  0  0  0
 19 20  2  0  0  0  0
 20 15  1  0  0  0  0
 21 25  1  1  0  0  0
 21  4  1  0  0  0  0
 22 24  1  0  0  0  0
 22 21  1  0  0  0  0
 23 22  2  0  0  0  0
 26 25  1  0  0  0  0
M  END
>  <MODEL>
9

>  <REMARK>
 VINA RESULT:      -6.8      1.095      1.494
  Name = 
  4 active torsions:
  status: ('A' for Active; 'I' for Inactive)
    1  A    between atoms: C_1  and  C_22
    2  A    between atoms: C_8  and  C_23
    3  A    between atoms: C_9  and  C_22
    4  A    between atoms: C_13  and  C_22
                            x       y       z     vdW  Elec       q    Type
                         _______ _______ _______ _____ _____    ______ ____

>  <TORSDO>
F 4

$$$$
