=
 OpenBabel10222418223D

 34 36  0  0  1  0  0  0  0  0999 V2000
  189.9870  176.3540  144.5650 C   0  0  2  0  0  3  0  0  0  0  0  0
  186.8690  177.7880  145.9060 C   0  0  2  0  0  3  0  0  0  0  0  0
  188.4680  176.6390  144.6070 C   0  0  1  0  0  3  0  0  0  0  0  0
  188.1570  177.9460  145.2130 N   0  0  1  0  0  0  0  0  0  0  0  0
  185.7760  178.5420  145.2030 C   0  0  0  0  0  3  0  0  0  0  0  0
  185.6760  178.4060  143.8810 C   0  0  0  0  0  0  0  0  0  0  0  0
  188.0870  177.7480  143.7290 C   0  0  2  0  0  3  0  0  0  0  0  0
  186.6690  177.5220  143.1780 C   0  0  0  0  0  2  0  0  0  0  0  0
  188.1640  177.5460  148.0660 C   0  0  0  0  0  1  0  0  0  0  0  0
  186.9830  178.2070  147.3690 C   0  0  0  0  0  2  0  0  0  0  0  0
  184.6480  179.1960  143.1280 C   0  0  1  0  0  3  0  0  0  0  0  0
  185.3690  179.5760  140.8700 O   0  0  0  0  0  0  0  0  0  0  0  0
  184.6750  178.8850  141.6640 C   0  0  0  0  0  0  0  0  0  0  0  0
  183.9170  177.8300  141.1750 O   0  0  0  0  0  1  0  0  0  0  0  0
  182.2000  178.8490  144.1520 C   0  0  0  0  0  3  0  0  0  0  0  0
  183.3030  179.0060  143.6910 C   0  0  0  0  0  0  0  0  0  0  0  0
  190.8800  177.3440  145.3160 C   0  0  0  0  0  2  0  0  0  0  0  0
  192.2490  175.4510  146.1870 O   0  0  0  0  0  0  0  0  0  0  0  0
  191.6130  176.6630  146.4200 C   0  0  0  0  0  0  0  0  0  0  0  0
  191.6530  177.1810  147.5670 O   0  0  0  0  0  1  0  0  0  0  0  0
  190.4710  176.2260  143.1300 C   0  0  0  0  0  2  0  0  0  0  0  0
  191.4490  177.3480  142.7930 C   0  0  0  0  0  2  0  0  0  0  0  0
  191.7070  175.9360  137.7920 C   0  0  0  0  0  0  0  0  0  0  0  0
  190.3090  177.1070  140.5670 C   0  0  0  0  0  2  0  0  0  0  0  0
  191.5630  177.5910  141.2910 C   0  0  2  0  0  3  0  0  0  0  0  0
  187.9610  176.4730  137.9190 C   0  0  0  0  0  1  0  0  0  0  0  0
  189.3120  176.0080  137.6340 N   0  0  0  0  0  0  0  0  0  0  0  0
  190.2680  177.6470  139.1480 C   0  0  0  0  0  2  0  0  0  0  0  0
  193.1370  177.4930  139.3460 C   0  0  0  0  0  2  0  0  0  0  0  0
  194.1010  175.8020  137.9700 N   0  0  0  0  0  2  0  0  0  0  0  0
  193.0150  176.4010  138.3360 C   0  0  0  0  0  0  0  0  0  0  0  0
  192.8350  176.9570  140.7360 C   0  0  0  0  0  2  0  0  0  0  0  0
  191.7210  174.9620  136.9370 N   0  0  0  0  0  2  0  0  0  0  0  0
  190.3860  176.5190  138.1630 C   0  0  0  0  0  0  0  0  0  0  0  0
  1 21  1  6  0  0  0
  1 17  1  0  0  0  0
  2 10  1  1  0  0  0
  3  1  1  6  0  0  0
  3  4  1  0  0  0  0
  4  2  1  0  0  0  0
  5  2  1  0  0  0  0
  6  5  2  0  0  0  0
  7  3  1  0  0  0  0
  7  4  1  0  0  0  0
  8  7  1  0  0  0  0
  8  6  1  0  0  0  0
 10  9  1  0  0  0  0
 11 16  1  0  0  0  0
 11  6  1  0  0  0  0
 12 13  2  0  0  0  0
 13 11  1  0  0  0  0
 14 13  1  0  0  0  0
 16 15  3  0  0  0  0
 17 19  1  0  0  0  0
 18 19  2  0  0  0  0
 19 20  1  0  0  0  0
 22 21  1  0  0  0  0
 23 34  1  0  0  0  0
 23 31  1  0  0  0  0
 24 25  1  0  0  0  0
 25 22  1  0  0  0  0
 27 26  1  0  0  0  0
 27 34  2  0  0  0  0
 28 24  1  0  0  0  0
 29 32  1  0  0  0  0
 30 31  2  0  0  0  0
 31 29  1  0  0  0  0
 32 25  1  0  0  0  0
 33 23  2  0  0  0  0
 34 28  1  0  0  0  0
M  END
>  <MODEL>
1

>  <REMARK>
 VINA RESULT:      -8.7      0.000      0.000
  Name = 
  10 active torsions:
  status: ('A' for Active; 'I' for Inactive)
    1  A    between atoms: C_4  and  C_25
    2  A    between atoms: C_6  and  C_22
    3  A    between atoms: C_8  and  C_12
    4  A    between atoms: C_8  and  C_22
    5  A    between atoms: C_9  and  C_27
    6  A    between atoms: C_13  and  C_15
    7  A    between atoms: C_15  and  C_16
    8  A    between atoms: C_15  and  C_32
    9  A    between atoms: C_22  and  C_30
   10  A    between atoms: C_27  and  C_30
                            x       y       z     vdW  Elec       q    Type
                         _______ _______ _______ _____ _____    ______ ____

>  <TORSDO>
F 10

$$$$
=
 OpenBabel10222418223D

 34 36  0  0  1  0  0  0  0  0999 V2000
  190.5950  176.9690  143.2430 C   0  0  2  0  0  3  0  0  0  0  0  0
  187.3800  177.3950  144.9920 C   0  0  2  0  0  3  0  0  0  0  0  0
  189.0570  176.9570  143.3910 C   0  0  1  0  0  3  0  0  0  0  0  0
  188.5750  177.9660  144.3510 N   0  0  1  0  0  0  0  0  0  0  0  0
  186.1330  178.1090  144.5530 C   0  0  0  0  0  3  0  0  0  0  0  0
  185.9690  178.3320  143.2490 C   0  0  0  0  0  0  0  0  0  0  0  0
  188.4400  178.1810  142.8740 C   0  0  2  0  0  3  0  0  0  0  0  0
  187.0450  177.8700  142.3050 C   0  0  0  0  0  2  0  0  0  0  0  0
  188.9490  177.6910  146.9540 C   0  0  0  0  0  1  0  0  0  0  0  0
  187.5220  177.4030  146.5110 C   0  0  0  0  0  2  0  0  0  0  0  0
  184.7760  179.1050  142.7720 C   0  0  1  0  0  3  0  0  0  0  0  0
  183.7400  177.7690  141.0680 O   0  0  0  0  0  1  0  0  0  0  0  0
  184.4390  178.7790  141.3500 C   0  0  0  0  0  0  0  0  0  0  0  0
  184.9140  179.5920  140.3310 O   0  0  0  0  0  0  0  0  0  0  0  0
  182.6670  178.7490  144.3800 C   0  0  0  0  0  3  0  0  0  0  0  0
  183.6170  178.9090  143.6560 C   0  0  0  0  0  0  0  0  0  0  0  0
  191.3940  177.2320  144.5210 C   0  0  0  0  0  2  0  0  0  0  0  0
  192.1590  174.8710  144.2820 O   0  0  0  0  0  0  0  0  0  0  0  0
  191.8900  175.9540  145.1070 C   0  0  0  0  0  0  0  0  0  0  0  0
  192.0630  175.8530  146.3500 O   0  0  0  0  0  1  0  0  0  0  0  0
  191.0250  177.9550  142.1680 C   0  0  0  0  0  2  0  0  0  0  0  0
  191.6560  177.2190  140.9890 C   0  0  0  0  0  2  0  0  0  0  0  0
  189.2710  177.3180  136.3660 C   0  0  0  0  0  0  0  0  0  0  0  0
  191.3040  176.1760  138.7300 C   0  0  0  0  0  2  0  0  0  0  0  0
  190.6230  176.7810  139.9560 C   0  0  2  0  0  3  0  0  0  0  0  0
  191.7290  174.5570  135.5490 C   0  0  0  0  0  1  0  0  0  0  0  0
  190.8270  175.7000  135.5140 N   0  0  0  0  0  0  0  0  0  0  0  0
  190.2950  175.4380  137.8670 C   0  0  0  0  0  2  0  0  0  0  0  0
  188.4660  177.4290  138.8600 C   0  0  0  0  0  2  0  0  0  0  0  0
  187.7550  178.9860  137.2020 N   0  0  0  0  0  2  0  0  0  0  0  0
  188.4600  177.9320  137.4550 C   0  0  0  0  0  0  0  0  0  0  0  0
  189.6960  177.9380  139.5930 C   0  0  0  0  0  2  0  0  0  0  0  0
  189.2060  177.8560  135.1890 N   0  0  0  0  0  2  0  0  0  0  0  0
  190.1500  176.1270  136.5400 C   0  0  0  0  0  0  0  0  0  0  0  0
  1 21  1  6  0  0  0
  1 17  1  0  0  0  0
  2 10  1  1  0  0  0
  3  1  1  6  0  0  0
  3  4  1  0  0  0  0
  4  2  1  0  0  0  0
  5  2  1  0  0  0  0
  6  5  2  0  0  0  0
  7  3  1  0  0  0  0
  7  4  1  0  0  0  0
  8  7  1  0  0  0  0
  8  6  1  0  0  0  0
 10  9  1  0  0  0  0
 11  6  1  0  0  0  0
 11 16  1  0  0  0  0
 12 13  1  0  0  0  0
 13 11  1  0  0  0  0
 14 13  2  0  0  0  0
 16 15  3  0  0  0  0
 17 19  1  0  0  0  0
 18 19  2  0  0  0  0
 19 20  1  0  0  0  0
 22 21  1  0  0  0  0
 23 34  1  0  0  0  0
 23 31  1  0  0  0  0
 24 25  1  0  0  0  0
 25 22  1  0  0  0  0
 27 26  1  0  0  0  0
 27 34  2  0  0  0  0
 28 24  1  0  0  0  0
 29 32  1  0  0  0  0
 30 31  2  0  0  0  0
 31 29  1  0  0  0  0
 32 25  1  0  0  0  0
 33 23  2  0  0  0  0
 34 28  1  0  0  0  0
M  END
>  <MODEL>
2

>  <REMARK>
 VINA RESULT:      -8.5      1.408      2.590
  Name = 
  10 active torsions:
  status: ('A' for Active; 'I' for Inactive)
    1  A    between atoms: C_4  and  C_25
    2  A    between atoms: C_6  and  C_22
    3  A    between atoms: C_8  and  C_12
    4  A    between atoms: C_8  and  C_22
    5  A    between atoms: C_9  and  C_27
    6  A    between atoms: C_13  and  C_15
    7  A    between atoms: C_15  and  C_16
    8  A    between atoms: C_15  and  C_32
    9  A    between atoms: C_22  and  C_30
   10  A    between atoms: C_27  and  C_30
                            x       y       z     vdW  Elec       q    Type
                         _______ _______ _______ _____ _____    ______ ____

>  <TORSDO>
F 10

$$$$
=
 OpenBabel10222418223D

 34 36  0  0  1  0  0  0  0  0999 V2000
  187.7590  177.8220  145.3920 C   0  0  2  0  0  3  0  0  0  0  0  0
  190.5000  176.8750  143.1190 C   0  0  2  0  0  3  0  0  0  0  0  0
  188.6430  177.9230  144.1280 C   0  0  1  0  0  3  0  0  0  0  0  0
  189.1770  176.6150  143.7070 N   0  0  1  0  0  0  0  0  0  0  0  0
  190.4870  176.6590  141.6320 C   0  0  0  0  0  3  0  0  0  0  0  0
  189.4890  177.2020  140.9330 C   0  0  0  0  0  0  0  0  0  0  0  0
  188.0390  177.2550  142.9730 C   0  0  2  0  0  3  0  0  0  0  0  0
  188.4380  177.9790  141.6760 C   0  0  0  0  0  2  0  0  0  0  0  0
  191.7120  176.3480  145.2760 C   0  0  0  0  0  1  0  0  0  0  0  0
  191.5730  176.0260  143.7950 C   0  0  0  0  0  2  0  0  0  0  0  0
  189.3940  176.9520  139.4570 C   0  0  1  0  0  3  0  0  0  0  0  0
  189.1480  179.1540  138.5350 O   0  0  0  0  0  1  0  0  0  0  0  0
  188.6230  178.0310  138.7630 C   0  0  0  0  0  0  0  0  0  0  0  0
  187.3120  177.7940  138.3770 O   0  0  0  0  0  0  0  0  0  0  0  0
  191.8120  176.6210  138.3600 C   0  0  0  0  0  3  0  0  0  0  0  0
  190.7230  176.7690  138.8550 C   0  0  0  0  0  0  0  0  0  0  0  0
  188.3190  176.9810  146.5410 C   0  0  0  0  0  2  0  0  0  0  0  0
  187.6290  178.5960  148.3110 O   0  0  0  0  0  1  0  0  0  0  0  0
  188.6300  177.8380  147.7210 C   0  0  0  0  0  0  0  0  0  0  0  0
  189.8020  177.8790  148.1800 O   0  0  0  0  0  0  0  0  0  0  0  0
  186.3660  177.3260  145.0370 C   0  0  0  0  0  2  0  0  0  0  0  0
  185.3070  178.3080  145.5290 C   0  0  0  0  0  2  0  0  0  0  0  0
  182.0740  178.2550  141.4520 C   0  0  0  0  0  0  0  0  0  0  0  0
  183.0130  178.7440  144.6000 C   0  0  0  0  0  2  0  0  0  0  0  0
  184.5140  178.9310  144.3850 C   0  0  2  0  0  3  0  0  0  0  0  0
  179.4640  178.9990  144.0920 C   0  0  0  0  0  1  0  0  0  0  0  0
  180.1950  178.5330  142.9220 N   0  0  0  0  0  0  0  0  0  0  0  0
  182.2220  179.6420  143.6640 C   0  0  0  0  0  2  0  0  0  0  0  0
  184.4630  179.2420  141.9000 C   0  0  0  0  0  2  0  0  0  0  0  0
  183.9510  177.9130  139.9890 N   0  0  0  0  0  2  0  0  0  0  0  0
  183.4980  178.4670  141.0660 C   0  0  0  0  0  0  0  0  0  0  0  0
  184.9800  178.3800  143.0400 C   0  0  0  0  0  2  0  0  0  0  0  0
  181.3340  177.5430  140.6620 N   0  0  0  0  0  2  0  0  0  0  0  0
  181.4450  178.8090  142.6850 C   0  0  0  0  0  0  0  0  0  0  0  0
  1 21  1  6  0  0  0
  1 17  1  0  0  0  0
  2  4  1  0  0  0  0
  2 10  1  1  0  0  0
  3  1  1  1  0  0  0
  4  3  1  0  0  0  0
  5  2  1  0  0  0  0
  6  5  2  0  0  0  0
  6  8  1  0  0  0  0
  7  4  1  0  0  0  0
  7  3  1  0  0  0  0
  8  7  1  0  0  0  0
 10  9  1  0  0  0  0
 11  6  1  0  0  0  0
 12 13  1  0  0  0  0
 13 11  1  0  0  0  0
 14 13  2  0  0  0  0
 15 16  3  0  0  0  0
 16 11  1  0  0  0  0
 17 19  1  0  0  0  0
 19 20  2  0  0  0  0
 19 18  1  0  0  0  0
 21 22  1  0  0  0  0
 23 34  1  0  0  0  0
 25 24  1  0  0  0  0
 25 22  1  0  0  0  0
 27 26  1  0  0  0  0
 28 24  1  0  0  0  0
 29 32  1  0  0  0  0
 30 31  2  0  0  0  0
 31 23  1  0  0  0  0
 31 29  1  0  0  0  0
 32 25  1  0  0  0  0
 33 23  2  0  0  0  0
 34 27  2  0  0  0  0
 34 28  1  0  0  0  0
M  END
>  <MODEL>
3

>  <REMARK>
 VINA RESULT:      -8.5      2.881      7.243
  Name = 
  10 active torsions:
  status: ('A' for Active; 'I' for Inactive)
    1  A    between atoms: C_4  and  C_25
    2  A    between atoms: C_6  and  C_22
    3  A    between atoms: C_8  and  C_12
    4  A    between atoms: C_8  and  C_22
    5  A    between atoms: C_9  and  C_27
    6  A    between atoms: C_13  and  C_15
    7  A    between atoms: C_15  and  C_16
    8  A    between atoms: C_15  and  C_32
    9  A    between atoms: C_22  and  C_30
   10  A    between atoms: C_27  and  C_30
                            x       y       z     vdW  Elec       q    Type
                         _______ _______ _______ _____ _____    ______ ____

>  <TORSDO>
F 10

$$$$
=
 OpenBabel10222418223D

 34 36  0  0  1  0  0  0  0  0999 V2000
  189.8400  176.2470  143.8480 C   0  0  2  0  0  3  0  0  0  0  0  0
  186.8490  177.6250  145.5010 C   0  0  2  0  0  3  0  0  0  0  0  0
  188.3330  176.5400  144.0220 C   0  0  1  0  0  3  0  0  0  0  0  0
  188.0820  177.8130  144.7210 N   0  0  1  0  0  0  0  0  0  0  0  0
  185.7150  178.4250  144.9260 C   0  0  0  0  0  3  0  0  0  0  0  0
  185.5130  178.3640  143.6100 C   0  0  0  0  0  0  0  0  0  0  0  0
  187.8980  177.6990  143.2390 C   0  0  2  0  0  3  0  0  0  0  0  0
  186.4400  177.5140  142.7850 C   0  0  0  0  0  2  0  0  0  0  0  0
  188.2840  177.2320  147.5470 C   0  0  0  0  0  1  0  0  0  0  0  0
  187.0790  177.9610  146.9720 C   0  0  0  0  0  2  0  0  0  0  0  0
  184.4400  179.2020  142.9820 C   0  0  1  0  0  3  0  0  0  0  0  0
  185.1020  179.6650  140.7220 O   0  0  0  0  0  0  0  0  0  0  0  0
  184.3730  178.9950  141.5010 C   0  0  0  0  0  0  0  0  0  0  0  0
  183.4860  178.0630  140.9810 O   0  0  0  0  0  1  0  0  0  0  0  0
  182.0630  178.7760  144.1350 C   0  0  0  0  0  3  0  0  0  0  0  0
  183.1340  178.9680  143.6150 C   0  0  0  0  0  0  0  0  0  0  0  0
  190.8010  177.2580  144.4790 C   0  0  0  0  0  2  0  0  0  0  0  0
  191.7290  177.2780  146.7920 O   0  0  0  0  0  1  0  0  0  0  0  0
  191.5900  176.6270  145.5740 C   0  0  0  0  0  0  0  0  0  0  0  0
  192.1340  175.5060  145.3970 O   0  0  0  0  0  0  0  0  0  0  0  0
  190.1890  176.0690  142.3800 C   0  0  0  0  0  2  0  0  0  0  0  0
  190.9680  177.2760  141.8640 C   0  0  0  0  0  2  0  0  0  0  0  0
  189.4220  175.9650  137.0720 C   0  0  0  0  0  0  0  0  0  0  0  0
  189.3320  177.5670  139.9790 C   0  0  0  0  0  2  0  0  0  0  0  0
  190.8080  177.4730  140.3600 C   0  0  2  0  0  3  0  0  0  0  0  0
  186.3720  178.0120  137.9880 C   0  0  0  0  0  1  0  0  0  0  0  0
  187.3040  177.0310  137.4490 N   0  0  0  0  0  0  0  0  0  0  0  0
  189.1770  178.0980  138.5640 C   0  0  0  0  0  2  0  0  0  0  0  0
  191.6890  176.7590  138.1270 C   0  0  0  0  0  2  0  0  0  0  0  0
  191.5190  174.8430  136.7200 N   0  0  0  0  0  2  0  0  0  0  0  0
  190.8940  175.8340  137.2680 C   0  0  0  0  0  0  0  0  0  0  0  0
  191.5370  176.3760  139.5900 C   0  0  0  0  0  2  0  0  0  0  0  0
  188.8330  175.0880  136.3220 N   0  0  0  0  0  2  0  0  0  0  0  0
  188.5850  177.0390  137.6780 C   0  0  0  0  0  0  0  0  0  0  0  0
  1 21  1  6  0  0  0
  1 17  1  0  0  0  0
  2 10  1  1  0  0  0
  3  1  1  6  0  0  0
  3  4  1  0  0  0  0
  4  2  1  0  0  0  0
  5  2  1  0  0  0  0
  6  5  2  0  0  0  0
  7  3  1  0  0  0  0
  7  4  1  0  0  0  0
  8  7  1  0  0  0  0
  8  6  1  0  0  0  0
 10  9  1  0  0  0  0
 11  6  1  0  0  0  0
 11 16  1  0  0  0  0
 12 13  2  0  0  0  0
 13 11  1  0  0  0  0
 14 13  1  0  0  0  0
 16 15  3  0  0  0  0
 17 19  1  0  0  0  0
 19 18  1  0  0  0  0
 20 19  2  0  0  0  0
 22 21  1  0  0  0  0
 23 31  1  0  0  0  0
 23 34  1  0  0  0  0
 24 25  1  0  0  0  0
 25 22  1  0  0  0  0
 27 34  2  0  0  0  0
 27 26  1  0  0  0  0
 28 24  1  0  0  0  0
 29 32  1  0  0  0  0
 30 31  2  0  0  0  0
 31 29  1  0  0  0  0
 32 25  1  0  0  0  0
 33 23  2  0  0  0  0
 34 28  1  0  0  0  0
M  END
>  <MODEL>
4

>  <REMARK>
 VINA RESULT:      -8.4      1.012      1.473
  Name = 
  10 active torsions:
  status: ('A' for Active; 'I' for Inactive)
    1  A    between atoms: C_4  and  C_25
    2  A    between atoms: C_6  and  C_22
    3  A    between atoms: C_8  and  C_12
    4  A    between atoms: C_8  and  C_22
    5  A    between atoms: C_9  and  C_27
    6  A    between atoms: C_13  and  C_15
    7  A    between atoms: C_15  and  C_16
    8  A    between atoms: C_15  and  C_32
    9  A    between atoms: C_22  and  C_30
   10  A    between atoms: C_27  and  C_30
                            x       y       z     vdW  Elec       q    Type
                         _______ _______ _______ _____ _____    ______ ____

>  <TORSDO>
F 10

$$$$
=
 OpenBabel10222418223D

 34 36  0  0  1  0  0  0  0  0999 V2000
  187.4830  178.0310  145.2080 C   0  0  2  0  0  3  0  0  0  0  0  0
  190.2570  177.2000  142.9280 C   0  0  2  0  0  3  0  0  0  0  0  0
  188.3480  178.1570  143.9330 C   0  0  1  0  0  3  0  0  0  0  0  0
  188.9570  176.8740  143.5360 N   0  0  1  0  0  0  0  0  0  0  0  0
  190.2420  176.9500  141.4470 C   0  0  0  0  0  3  0  0  0  0  0  0
  189.2080  177.4160  140.7460 C   0  0  0  0  0  0  0  0  0  0  0  0
  187.7750  177.4280  142.7990 C   0  0  2  0  0  3  0  0  0  0  0  0
  188.1180  178.1450  141.4830 C   0  0  0  0  0  2  0  0  0  0  0  0
  191.4800  176.7520  145.0970 C   0  0  0  0  0  1  0  0  0  0  0  0
  191.3840  176.4320  143.6120 C   0  0  0  0  0  2  0  0  0  0  0  0
  189.1140  177.1270  139.2780 C   0  0  1  0  0  3  0  0  0  0  0  0
  189.0640  179.3510  138.3770 O   0  0  0  0  0  1  0  0  0  0  0  0
  188.4660  178.2530  138.5340 C   0  0  0  0  0  0  0  0  0  0  0  0
  187.1870  178.0870  138.0220 O   0  0  0  0  0  0  0  0  0  0  0  0
  191.5070  176.5250  138.2430 C   0  0  0  0  0  3  0  0  0  0  0  0
  190.4290  176.7960  138.7090 C   0  0  0  0  0  0  0  0  0  0  0  0
  188.0260  177.1110  146.3040 C   0  0  0  0  0  2  0  0  0  0  0  0
  189.6050  177.8460  148.0880 O   0  0  0  0  0  0  0  0  0  0  0  0
  188.3290  177.8830  147.5420 C   0  0  0  0  0  0  0  0  0  0  0  0
  187.4290  178.5650  148.0980 O   0  0  0  0  0  1  0  0  0  0  0  0
  186.0640  177.6140  144.8580 C   0  0  0  0  0  2  0  0  0  0  0  0
  185.2650  178.8100  144.3490 C   0  0  0  0  0  2  0  0  0  0  0  0
  181.3000  179.5060  141.0520 C   0  0  0  0  0  0  0  0  0  0  0  0
  184.2680  178.4230  142.0750 C   0  0  0  0  0  2  0  0  0  0  0  0
  184.0160  178.3920  143.5810 C   0  0  2  0  0  3  0  0  0  0  0  0
  183.7240  178.0350  138.5430 C   0  0  0  0  0  1  0  0  0  0  0  0
  182.6800  178.7900  139.2220 N   0  0  0  0  0  0  0  0  0  0  0  0
  183.1640  177.6920  141.3310 C   0  0  0  0  0  2  0  0  0  0  0  0
  181.5220  178.6160  143.5100 C   0  0  0  0  0  2  0  0  0  0  0  0
  179.9410  180.2830  142.8760 N   0  0  0  0  0  2  0  0  0  0  0  0
  180.8750  179.4820  142.4810 C   0  0  0  0  0  0  0  0  0  0  0  0
  182.8190  179.2490  143.9860 C   0  0  0  0  0  2  0  0  0  0  0  0
  180.6820  180.3160  140.2520 N   0  0  0  0  0  2  0  0  0  0  0  0
  182.3870  178.6590  140.4830 C   0  0  0  0  0  0  0  0  0  0  0  0
  1 21  1  6  0  0  0
  1 17  1  0  0  0  0
  2  4  1  0  0  0  0
  2 10  1  1  0  0  0
  3  1  1  1  0  0  0
  4  3  1  0  0  0  0
  5  2  1  0  0  0  0
  6  5  2  0  0  0  0
  6  8  1  0  0  0  0
  7  4  1  0  0  0  0
  7  3  1  0  0  0  0
  8  7  1  0  0  0  0
 10  9  1  0  0  0  0
 11  6  1  0  0  0  0
 12 13  1  0  0  0  0
 13 11  1  0  0  0  0
 14 13  2  0  0  0  0
 15 16  3  0  0  0  0
 16 11  1  0  0  0  0
 17 19  1  0  0  0  0
 19 18  2  0  0  0  0
 19 20  1  0  0  0  0
 22 21  1  0  0  0  0
 23 31  1  0  0  0  0
 24 25  1  0  0  0  0
 25 32  1  0  0  0  0
 25 22  1  0  0  0  0
 26 27  1  0  0  0  0
 27 34  2  0  0  0  0
 28 24  1  0  0  0  0
 29 32  1  0  0  0  0
 31 30  2  0  0  0  0
 31 29  1  0  0  0  0
 33 23  2  0  0  0  0
 34 23  1  0  0  0  0
 34 28  1  0  0  0  0
M  END
>  <MODEL>
5

>  <REMARK>
 VINA RESULT:      -8.1      3.186      7.452
  Name = 
  10 active torsions:
  status: ('A' for Active; 'I' for Inactive)
    1  A    between atoms: C_4  and  C_25
    2  A    between atoms: C_6  and  C_22
    3  A    between atoms: C_8  and  C_12
    4  A    between atoms: C_8  and  C_22
    5  A    between atoms: C_9  and  C_27
    6  A    between atoms: C_13  and  C_15
    7  A    between atoms: C_15  and  C_16
    8  A    between atoms: C_15  and  C_32
    9  A    between atoms: C_22  and  C_30
   10  A    between atoms: C_27  and  C_30
                            x       y       z     vdW  Elec       q    Type
                         _______ _______ _______ _____ _____    ______ ____

>  <TORSDO>
F 10

$$$$
=
 OpenBabel10222418223D

 34 36  0  0  1  0  0  0  0  0999 V2000
  184.1010  178.9960  140.5810 C   0  0  2  0  0  3  0  0  0  0  0  0
  184.7290  178.8930  144.2100 C   0  0  2  0  0  3  0  0  0  0  0  0
  184.9470  179.1010  141.8700 C   0  0  1  0  0  3  0  0  0  0  0  0
  184.4630  178.2060  142.9360 N   0  0  1  0  0  0  0  0  0  0  0  0
  185.8250  178.2080  144.9780 C   0  0  0  0  0  3  0  0  0  0  0  0
  186.9370  177.8810  144.3190 C   0  0  0  0  0  0  0  0  0  0  0  0
  185.6910  177.8700  142.1470 C   0  0  2  0  0  3  0  0  0  0  0  0
  187.0170  178.2020  142.8520 C   0  0  0  0  0  2  0  0  0  0  0  0
  182.2070  178.7090  144.2260 C   0  0  0  0  0  1  0  0  0  0  0  0
  183.4560  179.0100  145.0420 C   0  0  0  0  0  2  0  0  0  0  0  0
  188.0260  177.1320  145.0260 C   0  0  1  0  0  3  0  0  0  0  0  0
  189.8210  176.3990  143.6110 O   0  0  0  0  0  0  0  0  0  0  0  0
  189.3480  177.3060  144.3460 C   0  0  0  0  0  0  0  0  0  0  0  0
  190.0670  178.4780  144.5390 O   0  0  0  0  0  1  0  0  0  0  0  0
  188.1630  177.8080  147.6120 C   0  0  0  0  0  3  0  0  0  0  0  0
  188.1020  177.5030  146.4470 C   0  0  0  0  0  0  0  0  0  0  0  0
  183.4190  177.6500  140.3290 C   0  0  0  0  0  2  0  0  0  0  0  0
  181.3500  178.9580  140.8040 O   0  0  0  0  0  1  0  0  0  0  0  0
  181.9360  177.8040  140.3010 C   0  0  0  0  0  0  0  0  0  0  0  0
  181.2140  176.8890  139.8270 O   0  0  0  0  0  0  0  0  0  0  0  0
  184.9260  179.3780  139.3630 C   0  0  0  0  0  2  0  0  0  0  0  0
  185.2340  178.1460  138.5170 C   0  0  0  0  0  2  0  0  0  0  0  0
  190.0390  176.2090  138.0340 C   0  0  0  0  0  0  0  0  0  0  0  0
  186.9250  176.9150  137.1230 C   0  0  0  0  0  2  0  0  0  0  0  0
  186.6750  178.1290  138.0160 C   0  0  2  0  0  3  0  0  0  0  0  0
  188.5970  174.6280  134.9110 C   0  0  0  0  0  1  0  0  0  0  0  0
  189.3470  174.9320  136.1220 N   0  0  0  0  0  0  0  0  0  0  0  0
  188.2280  177.0730  136.3580 C   0  0  0  0  0  2  0  0  0  0  0  0
  189.0500  178.5480  138.6900 C   0  0  0  0  0  2  0  0  0  0  0  0
  190.7130  177.4380  139.9870 N   0  0  0  0  0  2  0  0  0  0  0  0
  189.9770  177.4020  138.9250 C   0  0  0  0  0  0  0  0  0  0  0  0
  187.6550  178.2020  139.1840 C   0  0  0  0  0  2  0  0  0  0  0  0
  190.8660  175.2620  138.3500 N   0  0  0  0  0  2  0  0  0  0  0  0
  189.2160  176.0330  136.8040 C   0  0  0  0  0  0  0  0  0  0  0  0
  1 21  1  6  0  0  0
  2  5  1  0  0  0  0
  2 10  1  1  0  0  0
  3  1  1  6  0  0  0
  3  7  1  0  0  0  0
  3  4  1  0  0  0  0
  4  2  1  0  0  0  0
  6  5  2  0  0  0  0
  6 11  1  0  0  0  0
  7  8  1  0  0  0  0
  7  4  1  0  0  0  0
  8  6  1  0  0  0  0
  9 10  1  0  0  0  0
 11 16  1  0  0  0  0
 12 13  2  0  0  0  0
 13 14  1  0  0  0  0
 13 11  1  0  0  0  0
 16 15  3  0  0  0  0
 17  1  1  0  0  0  0
 19 17  1  0  0  0  0
 19 18  1  0  0  0  0
 20 19  2  0  0  0  0
 22 21  1  0  0  0  0
 23 33  2  0  0  0  0
 23 31  1  0  0  0  0
 24 25  1  0  0  0  0
 25 22  1  0  0  0  0
 25 32  1  0  0  0  0
 26 27  1  0  0  0  0
 27 34  2  0  0  0  0
 28 34  1  0  0  0  0
 28 24  1  0  0  0  0
 29 31  1  0  0  0  0
 29 32  1  0  0  0  0
 31 30  2  0  0  0  0
 34 23  1  0  0  0  0
M  END
>  <MODEL>
6

>  <REMARK>
 VINA RESULT:      -8.0      2.242      6.039
  Name = 
  10 active torsions:
  status: ('A' for Active; 'I' for Inactive)
    1  A    between atoms: C_4  and  C_25
    2  A    between atoms: C_6  and  C_22
    3  A    between atoms: C_8  and  C_12
    4  A    between atoms: C_8  and  C_22
    5  A    between atoms: C_9  and  C_27
    6  A    between atoms: C_13  and  C_15
    7  A    between atoms: C_15  and  C_16
    8  A    between atoms: C_15  and  C_32
    9  A    between atoms: C_22  and  C_30
   10  A    between atoms: C_27  and  C_30
                            x       y       z     vdW  Elec       q    Type
                         _______ _______ _______ _____ _____    ______ ____

>  <TORSDO>
F 10

$$$$
=
 OpenBabel10222418223D

 34 36  0  0  1  0  0  0  0  0999 V2000
  189.2590  177.2210  140.5580 C   0  0  2  0  0  3  0  0  0  0  0  0
  189.4600  177.4840  144.2280 C   0  0  2  0  0  3  0  0  0  0  0  0
  188.8430  176.9320  142.0190 C   0  0  1  0  0  3  0  0  0  0  0  0
  189.1230  178.0650  142.9190 N   0  0  1  0  0  0  0  0  0  0  0  0
  188.3760  177.7470  145.2350 C   0  0  0  0  0  3  0  0  0  0  0  0
  187.1150  177.5130  144.8690 C   0  0  0  0  0  0  0  0  0  0  0  0
  187.7280  177.7760  142.4550 C   0  0  2  0  0  3  0  0  0  0  0  0
  186.8580  177.0170  143.4720 C   0  0  0  0  0  2  0  0  0  0  0  0
  191.2620  179.2400  143.9690 C   0  0  0  0  0  1  0  0  0  0  0  0
  190.8110  177.9940  144.7190 C   0  0  0  0  0  2  0  0  0  0  0  0
  185.9950  177.8300  145.8140 C   0  0  1  0  0  3  0  0  0  0  0  0
  187.2980  177.9050  147.8280 O   0  0  0  0  0  1  0  0  0  0  0  0
  186.4950  178.4960  147.0580 C   0  0  0  0  0  0  0  0  0  0  0  0
  186.0570  179.7750  147.3720 O   0  0  0  0  0  0  0  0  0  0  0  0
  184.0910  179.2890  144.6260 C   0  0  0  0  0  3  0  0  0  0  0  0
  184.9490  178.6310  145.1610 C   0  0  0  0  0  0  0  0  0  0  0  0
  190.7440  177.5030  140.3230 C   0  0  0  0  0  2  0  0  0  0  0  0
  192.6000  176.7530  138.8360 O   0  0  0  0  0  0  0  0  0  0  0  0
  191.3050  176.5720  139.3030 C   0  0  0  0  0  0  0  0  0  0  0  0
  190.6050  175.6240  138.8590 O   0  0  0  0  0  1  0  0  0  0  0  0
  188.4320  178.3560  139.9770 C   0  0  0  0  0  2  0  0  0  0  0  0
  188.2790  178.1890  138.4680 C   0  0  0  0  0  2  0  0  0  0  0  0
  183.4310  176.3150  138.2130 C   0  0  0  0  0  0  0  0  0  0  0  0
  185.8880  178.3040  139.2310 C   0  0  0  0  0  2  0  0  0  0  0  0
  186.8190  178.1850  138.0260 C   0  0  2  0  0  3  0  0  0  0  0  0
  182.8700  178.6280  141.1570 C   0  0  0  0  0  1  0  0  0  0  0  0
  182.8420  177.5340  140.1960 N   0  0  0  0  0  0  0  0  0  0  0  0
  184.4750  178.6430  138.7850 C   0  0  0  0  0  2  0  0  0  0  0  0
  185.1920  177.1250  136.4450 C   0  0  0  0  0  2  0  0  0  0  0  0
  184.0420  175.0450  136.2640 N   0  0  0  0  0  2  0  0  0  0  0  0
  184.1960  176.1340  136.9460 C   0  0  0  0  0  0  0  0  0  0  0  0
  186.5130  176.9550  137.1760 C   0  0  0  0  0  2  0  0  0  0  0  0
  182.6100  175.3760  138.5620 N   0  0  0  0  0  2  0  0  0  0  0  0
  183.5480  177.5050  139.1030 C   0  0  0  0  0  0  0  0  0  0  0  0
  1 21  1  1  0  0  0
  2 10  1  1  0  0  0
  2  5  1  0  0  0  0
  3  1  1  6  0  0  0
  3  7  1  0  0  0  0
  3  4  1  0  0  0  0
  4  2  1  0  0  0  0
  6  5  2  0  0  0  0
  6 11  1  0  0  0  0
  7  4  1  0  0  0  0
  7  8  1  0  0  0  0
  8  6  1  0  0  0  0
  9 10  1  0  0  0  0
 11 13  1  0  0  0  0
 13 14  2  0  0  0  0
 13 12  1  0  0  0  0
 15 16  3  0  0  0  0
 16 11  1  0  0  0  0
 17  1  1  0  0  0  0
 18 19  2  0  0  0  0
 19 17  1  0  0  0  0
 20 19  1  0  0  0  0
 22 21  1  0  0  0  0
 23 33  2  0  0  0  0
 23 34  1  0  0  0  0
 25 22  1  0  0  0  0
 25 24  1  0  0  0  0
 27 26  1  0  0  0  0
 28 34  1  0  0  0  0
 28 24  1  0  0  0  0
 29 31  1  0  0  0  0
 29 32  1  0  0  0  0
 30 31  2  0  0  0  0
 31 23  1  0  0  0  0
 32 25  1  0  0  0  0
 34 27  2  0  0  0  0
M  END
>  <MODEL>
7

>  <REMARK>
 VINA RESULT:      -8.0      3.464      5.972
  Name = 
  10 active torsions:
  status: ('A' for Active; 'I' for Inactive)
    1  A    between atoms: C_4  and  C_25
    2  A    between atoms: C_6  and  C_22
    3  A    between atoms: C_8  and  C_12
    4  A    between atoms: C_8  and  C_22
    5  A    between atoms: C_9  and  C_27
    6  A    between atoms: C_13  and  C_15
    7  A    between atoms: C_15  and  C_16
    8  A    between atoms: C_15  and  C_32
    9  A    between atoms: C_22  and  C_30
   10  A    between atoms: C_27  and  C_30
                            x       y       z     vdW  Elec       q    Type
                         _______ _______ _______ _____ _____    ______ ____

>  <TORSDO>
F 10

$$$$
=
 OpenBabel10222418223D

 34 36  0  0  1  0  0  0  0  0999 V2000
  191.3550  176.9710  140.9210 C   0  0  2  0  0  3  0  0  0  0  0  0
  188.8580  177.6540  143.5440 C   0  0  2  0  0  3  0  0  0  0  0  0
  190.8560  177.4410  142.3070 C   0  0  1  0  0  3  0  0  0  0  0  0
  189.6590  176.7050  142.7540 N   0  0  1  0  0  0  0  0  0  0  0  0
  188.8720  177.2940  145.0030 C   0  0  0  0  0  3  0  0  0  0  0  0
  190.0480  177.0100  145.5630 C   0  0  0  0  0  0  0  0  0  0  0  0
  191.0080  176.4050  143.3320 C   0  0  2  0  0  3  0  0  0  0  0  0
  191.2790  177.0530  144.7000 C   0  0  0  0  0  2  0  0  0  0  0  0
  186.3930  177.6150  144.1090 C   0  0  0  0  0  1  0  0  0  0  0  0
  187.4340  177.7430  143.0060 C   0  0  0  0  0  2  0  0  0  0  0  0
  190.1020  176.5740  146.9970 C   0  0  1  0  0  3  0  0  0  0  0  0
  192.0380  177.3660  148.1730 O   0  0  0  0  0  1  0  0  0  0  0  0
  191.5110  176.4520  147.4850 C   0  0  0  0  0  0  0  0  0  0  0  0
  192.2500  175.3220  147.1630 O   0  0  0  0  0  0  0  0  0  0  0  0
  188.6640  178.1940  148.5700 C   0  0  0  0  0  3  0  0  0  0  0  0
  189.3120  177.4640  147.8610 C   0  0  0  0  0  0  0  0  0  0  0  0
  192.4330  177.8360  140.2640 C   0  0  0  0  0  2  0  0  0  0  0  0
  193.3010  176.5720  138.2970 O   0  0  0  0  0  0  0  0  0  0  0  0
  193.4690  176.9860  139.6120 C   0  0  0  0  0  0  0  0  0  0  0  0
  194.4960  176.6370  140.2530 O   0  0  0  0  0  1  0  0  0  0  0  0
  190.1910  176.7980  139.9590 C   0  0  0  0  0  2  0  0  0  0  0  0
  189.6180  178.1560  139.5640 C   0  0  0  0  0  2  0  0  0  0  0  0
  187.1350  175.9830  135.5410 C   0  0  0  0  0  0  0  0  0  0  0  0
  187.4850  177.8380  138.2730 C   0  0  0  0  0  2  0  0  0  0  0  0
  188.9800  178.1380  138.1780 C   0  0  2  0  0  3  0  0  0  0  0  0
  184.0640  177.3430  137.2870 C   0  0  0  0  0  1  0  0  0  0  0  0
  185.0190  176.5550  136.5200 N   0  0  0  0  0  0  0  0  0  0  0  0
  186.7920  178.1530  136.9580 C   0  0  0  0  0  2  0  0  0  0  0  0
  189.3240  177.4030  135.8090 C   0  0  0  0  0  2  0  0  0  0  0  0
  189.2540  175.3540  134.5940 N   0  0  0  0  0  2  0  0  0  0  0  0
  188.5810  176.2250  135.2730 C   0  0  0  0  0  0  0  0  0  0  0  0
  189.7110  177.1630  137.2590 C   0  0  0  0  0  2  0  0  0  0  0  0
  186.6010  174.9120  135.0440 N   0  0  0  0  0  2  0  0  0  0  0  0
  186.2630  176.8900  136.3390 C   0  0  0  0  0  0  0  0  0  0  0  0
  1 21  1  6  0  0  0
  2 10  1  6  0  0  0
  2  5  1  0  0  0  0
  3  1  1  6  0  0  0
  3  4  1  0  0  0  0
  3  7  1  0  0  0  0
  4  7  1  0  0  0  0
  4  2  1  0  0  0  0
  5  6  2  0  0  0  0
  6 11  1  0  0  0  0
  7  8  1  0  0  0  0
  8  6  1  0  0  0  0
 10  9  1  0  0  0  0
 11 13  1  0  0  0  0
 11 16  1  0  0  0  0
 13 12  1  0  0  0  0
 14 13  2  0  0  0  0
 16 15  3  0  0  0  0
 17  1  1  0  0  0  0
 18 19  2  0  0  0  0
 19 20  1  0  0  0  0
 19 17  1  0  0  0  0
 22 21  1  0  0  0  0
 23 34  1  0  0  0  0
 25 24  1  0  0  0  0
 25 22  1  0  0  0  0
 27 26  1  0  0  0  0
 28 24  1  0  0  0  0
 29 32  1  0  0  0  0
 30 31  2  0  0  0  0
 31 23  1  0  0  0  0
 31 29  1  0  0  0  0
 32 25  1  0  0  0  0
 33 23  2  0  0  0  0
 34 27  2  0  0  0  0
 34 28  1  0  0  0  0
M  END
>  <MODEL>
8

>  <REMARK>
 VINA RESULT:      -7.7      3.097      5.757
  Name = 
  10 active torsions:
  status: ('A' for Active; 'I' for Inactive)
    1  A    between atoms: C_4  and  C_25
    2  A    between atoms: C_6  and  C_22
    3  A    between atoms: C_8  and  C_12
    4  A    between atoms: C_8  and  C_22
    5  A    between atoms: C_9  and  C_27
    6  A    between atoms: C_13  and  C_15
    7  A    between atoms: C_15  and  C_16
    8  A    between atoms: C_15  and  C_32
    9  A    between atoms: C_22  and  C_30
   10  A    between atoms: C_27  and  C_30
                            x       y       z     vdW  Elec       q    Type
                         _______ _______ _______ _____ _____    ______ ____

>  <TORSDO>
F 10

$$$$
=
 OpenBabel10222418223D

 34 36  0  0  1  0  0  0  0  0999 V2000
  190.4060  177.4260  142.2190 C   0  0  2  0  0  3  0  0  0  0  0  0
  190.6340  176.8610  138.5850 C   0  0  2  0  0  3  0  0  0  0  0  0
  190.1680  177.7390  140.7250 C   0  0  1  0  0  3  0  0  0  0  0  0
  190.0700  176.5210  139.9010 N   0  0  1  0  0  0  0  0  0  0  0  0
  189.5630  176.9180  137.5330 C   0  0  0  0  0  3  0  0  0  0  0  0
  188.4490  177.5960  137.8150 C   0  0  0  0  0  0  0  0  0  0  0  0
  188.8460  177.3020  140.2690 C   0  0  2  0  0  3  0  0  0  0  0  0
  188.3300  178.2430  139.1670 C   0  0  0  0  0  2  0  0  0  0  0  0
  193.1250  176.5060  138.3270 C   0  0  0  0  0  1  0  0  0  0  0  0
  191.7420  175.8850  138.1990 C   0  0  0  0  0  2  0  0  0  0  0  0
  187.3230  177.6180  136.8250 C   0  0  1  0  0  3  0  0  0  0  0  0
  187.4950  176.2780  134.8410 O   0  0  0  0  0  0  0  0  0  0  0  0
  187.2240  176.3290  136.0710 C   0  0  0  0  0  0  0  0  0  0  0  0
  186.8160  175.1800  136.7330 O   0  0  0  0  0  1  0  0  0  0  0  0
  185.0000  178.2440  137.9970 C   0  0  0  0  0  3  0  0  0  0  0  0
  186.0460  177.9620  137.4680 C   0  0  0  0  0  0  0  0  0  0  0  0
  191.7380  177.8990  142.8040 C   0  0  0  0  0  2  0  0  0  0  0  0
  191.6810  177.7930  145.2950 O   0  0  0  0  0  1  0  0  0  0  0  0
  191.5340  178.5410  144.1340 C   0  0  0  0  0  0  0  0  0  0  0  0
  191.2240  179.7590  144.2080 O   0  0  0  0  0  0  0  0  0  0  0  0
  190.2360  175.9400  142.4920 C   0  0  0  0  0  2  0  0  0  0  0  0
  188.9220  175.6770  143.2230 C   0  0  0  0  0  2  0  0  0  0  0  0
  185.6060  178.3770  146.1860 C   0  0  0  0  0  0  0  0  0  0  0  0
  188.4650  176.8970  145.3710 C   0  0  0  0  0  2  0  0  0  0  0  0
  188.3410  176.9400  143.8490 C   0  0  2  0  0  3  0  0  0  0  0  0
  188.2980  177.9290  148.8110 C   0  0  0  0  0  1  0  0  0  0  0  0
  187.0430  178.0810  148.0870 N   0  0  0  0  0  0  0  0  0  0  0  0
  188.2090  178.2710  145.9680 C   0  0  0  0  0  2  0  0  0  0  0  0
  186.4480  178.5740  143.7100 C   0  0  0  0  0  2  0  0  0  0  0  0
  184.1380  178.6170  144.2970 N   0  0  0  0  0  2  0  0  0  0  0  0
  185.3560  178.5460  144.7270 C   0  0  0  0  0  0  0  0  0  0  0  0
  186.9020  177.1590  143.3900 C   0  0  0  0  0  2  0  0  0  0  0  0
  184.5780  178.3430  146.9740 N   0  0  0  0  0  2  0  0  0  0  0  0
  186.9580  178.2470  146.7990 C   0  0  0  0  0  0  0  0  0  0  0  0
  1 21  1  6  0  0  0
  1 17  1  0  0  0  0
  2 10  1  6  0  0  0
  2  4  1  0  0  0  0
  3  1  1  1  0  0  0
  4  7  1  0  0  0  0
  4  3  1  0  0  0  0
  5  6  2  0  0  0  0
  5  2  1  0  0  0  0
  6  8  1  0  0  0  0
  7  3  1  0  0  0  0
  8  7  1  0  0  0  0
 10  9  1  0  0  0  0
 11 16  1  0  0  0  0
 11  6  1  0  0  0  0
 12 13  2  0  0  0  0
 13 14  1  0  0  0  0
 13 11  1  0  0  0  0
 16 15  3  0  0  0  0
 17 19  1  0  0  0  0
 19 20  2  0  0  0  0
 19 18  1  0  0  0  0
 21 22  1  0  0  0  0
 22 25  1  0  0  0  0
 23 34  1  0  0  0  0
 23 33  2  0  0  0  0
 24 28  1  0  0  0  0
 25 24  1  0  0  0  0
 27 26  1  0  0  0  0
 28 34  1  0  0  0  0
 29 31  1  0  0  0  0
 30 31  2  0  0  0  0
 31 23  1  0  0  0  0
 32 29  1  0  0  0  0
 32 25  1  0  0  0  0
 34 27  2  0  0  0  0
M  END
>  <MODEL>
9

>  <REMARK>
 VINA RESULT:      -7.7      2.483      7.472
  Name = 
  10 active torsions:
  status: ('A' for Active; 'I' for Inactive)
    1  A    between atoms: C_4  and  C_25
    2  A    between atoms: C_6  and  C_22
    3  A    between atoms: C_8  and  C_12
    4  A    between atoms: C_8  and  C_22
    5  A    between atoms: C_9  and  C_27
    6  A    between atoms: C_13  and  C_15
    7  A    between atoms: C_15  and  C_16
    8  A    between atoms: C_15  and  C_32
    9  A    between atoms: C_22  and  C_30
   10  A    between atoms: C_27  and  C_30
                            x       y       z     vdW  Elec       q    Type
                         _______ _______ _______ _____ _____    ______ ____

>  <TORSDO>
F 10

$$$$
