=
 OpenBabel10222416003D

 25 29  0  0  1  0  0  0  0  0999 V2000
  187.3810  177.2050  142.9920 N   0  0  0  0  0  2  0  0  0  0  0  0
  187.2630  178.0400  147.8700 C   0  0  0  0  0  3  0  0  0  0  0  0
  187.6830  177.4790  144.3680 C   0  0  0  0  0  0  0  0  0  0  0  0
  188.5270  176.9350  142.1070 C   0  0  2  0  0  3  0  0  0  0  0  0
  189.9630  177.6260  147.0690 C   0  0  0  0  0  0  0  0  0  0  0  0
  188.9560  177.3970  144.8100 N   0  0  0  0  0  0  0  0  0  0  0  0
  186.8060  177.7400  145.4120 C   0  0  0  0  0  0  0  0  0  0  0  0
  189.5320  176.0790  142.8860 C   0  0  1  0  0  3  0  0  0  0  0  0
  187.6060  177.8310  146.5370 C   0  0  0  0  0  0  0  0  0  0  0  0
  189.6380  177.8270  148.4220 C   0  0  0  0  0  3  0  0  0  0  0  0
  189.2910  178.2420  141.8950 C   0  0  0  0  0  2  0  0  0  0  0  0
  188.3000  178.0360  148.8180 C   0  0  0  0  0  3  0  0  0  0  0  0
  188.9140  177.6260  146.1390 C   0  0  0  0  0  0  0  0  0  0  0  0
  190.5550  175.6250  142.0470 O   0  0  0  0  0  1  0  0  0  0  0  0
  190.3120  178.3230  143.0350 C   0  0  0  0  0  2  0  0  0  0  0  0
  190.0680  177.0890  143.9020 C   0  0  1  0  0  3  0  0  0  0  0  0
  185.4150  177.8690  145.3770 O   0  0  0  0  0  0  0  0  0  0  0  0
  184.7240  178.3380  144.2290 C   0  0  2  0  0  3  0  0  0  0  0  0
  184.6260  179.8480  144.2810 C   0  0  0  0  0  2  0  0  0  0  0  0
  182.4530  178.9650  143.5130 C   0  0  0  0  0  1  0  0  0  0  0  0
  183.4330  178.9980  144.6660 C   0  0  1  0  0  3  0  0  0  0  0  0
  191.2940  177.4270  146.6940 O   0  0  0  0  0  0  0  0  0  0  0  0
  192.0400  175.3070  146.1500 O   0  0  0  0  0  0  0  0  0  0  0  0
  191.9870  176.2500  146.9850 C   0  0  0  0  0  0  0  0  0  0  0  0
  192.6490  176.1180  148.2360 N   0  0  0  0  0  1  0  0  0  0  0  0
  1  3  1  0  0  0  0
  2 12  1  0  0  0  0
  3  6  1  0  0  0  0
  3  7  2  0  0  0  0
  4 11  1  1  0  0  0
  4  8  1  0  0  0  0
  4  1  1  0  0  0  0
  5 10  1  0  0  0  0
  6 13  1  0  0  0  0
  7  9  1  0  0  0  0
  8 14  1  6  0  0  0
  8 16  1  0  0  0  0
  9  2  2  0  0  0  0
 10 12  2  0  0  0  0
 11 15  1  0  0  0  0
 13  9  1  0  0  0  0
 13  5  2  0  0  0  0
 16 15  1  6  0  0  0
 16  6  1  0  0  0  0
 17  7  1  0  0  0  0
 18 19  1  0  0  0  0
 18 21  1  0  0  0  0
 18 17  1  1  0  0  0
 19 21  1  0  0  0  0
 21 20  1  6  0  0  0
 22 24  1  0  0  0  0
 22  5  1  0  0  0  0
 23 24  2  0  0  0  0
 24 25  1  0  0  0  0
M  END
>  <MODEL>
1

>  <REMARK>
 VINA RESULT:      -9.1      0.000      0.000
  Name = 
  4 active torsions:
  status: ('A' for Active; 'I' for Inactive)
    1  A    between atoms: O_4  and  C_9
    2  A    between atoms: O_4  and  C_20
    3  A    between atoms: C_7  and  O_21
    4  A    between atoms: C_16  and  O_21
                            x       y       z     vdW  Elec       q    Type
                         _______ _______ _______ _____ _____    ______ ____

>  <TORSDO>
F 4

$$$$
=
 OpenBabel10222416003D

 25 29  0  0  1  0  0  0  0  0999 V2000
  188.2390  177.8350  141.3230 N   0  0  0  0  0  2  0  0  0  0  0  0
  184.3580  179.1430  144.1050 C   0  0  0  0  0  3  0  0  0  0  0  0
  187.3200  178.1280  142.3860 C   0  0  0  0  0  0  0  0  0  0  0  0
  189.4670  177.1110  141.6960 C   0  0  2  0  0  3  0  0  0  0  0  0
  186.2470  177.7760  145.7390 C   0  0  0  0  0  0  0  0  0  0  0  0
  187.5610  177.6710  143.6340 N   0  0  0  0  0  0  0  0  0  0  0  0
  186.0900  178.7690  142.3160 C   0  0  0  0  0  0  0  0  0  0  0  0
  189.0930  176.0520  142.7380 C   0  0  1  0  0  3  0  0  0  0  0  0
  185.5780  178.7000  143.5990 C   0  0  0  0  0  0  0  0  0  0  0  0
  185.0170  178.2080  146.2690 C   0  0  0  0  0  3  0  0  0  0  0  0
  190.3640  178.0610  142.4890 C   0  0  0  0  0  2  0  0  0  0  0  0
  184.0840  178.8890  145.4600 C   0  0  0  0  0  3  0  0  0  0  0  0
  186.4990  178.0320  144.3840 C   0  0  0  0  0  0  0  0  0  0  0  0
  190.1730  175.2020  142.9950 O   0  0  0  0  0  1  0  0  0  0  0  0
  189.9460  177.9110  143.9550 C   0  0  0  0  0  2  0  0  0  0  0  0
  188.7810  176.9210  143.9580 C   0  0  1  0  0  3  0  0  0  0  0  0
  185.4670  179.3500  141.2080 O   0  0  0  0  0  0  0  0  0  0  0  0
  184.8290  178.5780  140.2030 C   0  0  2  0  0  3  0  0  0  0  0  0
  183.7330  179.3990  139.5560 C   0  0  0  0  0  2  0  0  0  0  0  0
  182.8750  177.1100  139.8990 C   0  0  0  0  0  1  0  0  0  0  0  0
  183.3830  178.3540  140.5950 C   0  0  1  0  0  3  0  0  0  0  0  0
  187.1620  177.1090  146.5560 O   0  0  0  0  0  0  0  0  0  0  0  0
  187.5380  178.6540  148.2350 O   0  0  0  0  0  0  0  0  0  0  0  0
  187.9980  177.7810  147.4510 C   0  0  0  0  0  0  0  0  0  0  0  0
  189.3850  177.4690  147.4830 N   0  0  0  0  0  1  0  0  0  0  0  0
  1  4  1  0  0  0  0
  1  3  1  0  0  0  0
  2 12  1  0  0  0  0
  3  6  1  0  0  0  0
  4 11  1  1  0  0  0
  4  8  1  0  0  0  0
  5 10  1  0  0  0  0
  5 22  1  0  0  0  0
  6 16  1  0  0  0  0
  6 13  1  0  0  0  0
  7  3  2  0  0  0  0
  7  9  1  0  0  0  0
  8 14  1  1  0  0  0
  8 16  1  0  0  0  0
  9  2  2  0  0  0  0
  9 13  1  0  0  0  0
 11 15  1  0  0  0  0
 12 10  2  0  0  0  0
 13  5  2  0  0  0  0
 16 15  1  6  0  0  0
 17  7  1  0  0  0  0
 18 21  1  0  0  0  0
 18 17  1  1  0  0  0
 19 18  1  0  0  0  0
 19 21  1  0  0  0  0
 21 20  1  6  0  0  0
 22 24  1  0  0  0  0
 24 25  1  0  0  0  0
 24 23  2  0  0  0  0
M  END
>  <MODEL>
2

>  <REMARK>
 VINA RESULT:      -8.8      2.310      3.606
  Name = 
  4 active torsions:
  status: ('A' for Active; 'I' for Inactive)
    1  A    between atoms: O_4  and  C_9
    2  A    between atoms: O_4  and  C_20
    3  A    between atoms: C_7  and  O_21
    4  A    between atoms: C_16  and  O_21
                            x       y       z     vdW  Elec       q    Type
                         _______ _______ _______ _____ _____    ______ ____

>  <TORSDO>
F 4

$$$$
=
 OpenBabel10222416003D

 25 29  0  0  1  0  0  0  0  0999 V2000
  190.2780  177.5950  141.1330 N   0  0  0  0  0  2  0  0  0  0  0  0
  185.4860  178.8370  141.1290 C   0  0  0  0  0  3  0  0  0  0  0  0
  188.9210  177.9200  141.4680 C   0  0  0  0  0  0  0  0  0  0  0  0
  191.1100  177.0420  142.2160 C   0  0  2  0  0  3  0  0  0  0  0  0
  186.1850  177.8580  143.7100 C   0  0  0  0  0  0  0  0  0  0  0  0
  188.4420  177.6370  142.6990 N   0  0  0  0  0  0  0  0  0  0  0  0
  187.9230  178.4260  140.6470 C   0  0  0  0  0  0  0  0  0  0  0  0
  190.2410  176.0800  143.0340 C   0  0  1  0  0  3  0  0  0  0  0  0
  186.7900  178.4580  141.4390 C   0  0  0  0  0  0  0  0  0  0  0  0
  184.8590  178.2280  143.4150 C   0  0  0  0  0  3  0  0  0  0  0  0
  191.4060  178.1600  143.2150 C   0  0  0  0  0  2  0  0  0  0  0  0
  184.5150  178.7170  142.1380 C   0  0  0  0  0  3  0  0  0  0  0  0
  187.1370  177.9790  142.6880 C   0  0  0  0  0  0  0  0  0  0  0  0
  191.0160  175.3750  143.9600 O   0  0  0  0  0  1  0  0  0  0  0  0
  190.2510  178.1420  144.2220 C   0  0  0  0  0  2  0  0  0  0  0  0
  189.2950  177.0510  143.7410 C   0  0  1  0  0  3  0  0  0  0  0  0
  188.0040  178.8110  139.3060 O   0  0  0  0  0  0  0  0  0  0  0  0
  187.8070  177.8970  138.2390 C   0  0  2  0  0  3  0  0  0  0  0  0
  187.7990  178.6490  136.9250 C   0  0  0  0  0  2  0  0  0  0  0  0
  185.9970  176.9630  136.8550 C   0  0  0  0  0  1  0  0  0  0  0  0
  186.4930  178.2100  137.5550 C   0  0  1  0  0  3  0  0  0  0  0  0
  186.5090  177.3830  144.9820 O   0  0  0  0  0  0  0  0  0  0  0  0
  187.7300  178.2080  146.7630 O   0  0  0  0  0  0  0  0  0  0  0  0
  186.6700  178.2300  146.0810 C   0  0  0  0  0  0  0  0  0  0  0  0
  185.6290  179.1330  146.4290 N   0  0  0  0  0  1  0  0  0  0  0  0
  1  3  1  0  0  0  0
  1  4  1  0  0  0  0
  2  9  2  0  0  0  0
  2 12  1  0  0  0  0
  3  6  1  0  0  0  0
  4  8  1  0  0  0  0
  4 11  1  1  0  0  0
  5 22  1  0  0  0  0
  6 16  1  0  0  0  0
  7  9  1  0  0  0  0
  7  3  2  0  0  0  0
  8 16  1  0  0  0  0
  8 14  1  1  0  0  0
  9 13  1  0  0  0  0
 10  5  1  0  0  0  0
 11 15  1  0  0  0  0
 12 10  2  0  0  0  0
 13  6  1  0  0  0  0
 13  5  2  0  0  0  0
 16 15  1  6  0  0  0
 17  7  1  0  0  0  0
 18 17  1  1  0  0  0
 19 21  1  0  0  0  0
 19 18  1  0  0  0  0
 21 20  1  6  0  0  0
 21 18  1  0  0  0  0
 22 24  1  0  0  0  0
 24 25  1  0  0  0  0
 24 23  2  0  0  0  0
M  END
>  <MODEL>
3

>  <REMARK>
 VINA RESULT:      -8.4      2.892      5.368
  Name = 
  4 active torsions:
  status: ('A' for Active; 'I' for Inactive)
    1  A    between atoms: O_4  and  C_9
    2  A    between atoms: O_4  and  C_20
    3  A    between atoms: C_7  and  O_21
    4  A    between atoms: C_16  and  O_21
                            x       y       z     vdW  Elec       q    Type
                         _______ _______ _______ _____ _____    ______ ____

>  <TORSDO>
F 4

$$$$
=
 OpenBabel10222416003D

 25 29  0  0  1  0  0  0  0  0999 V2000
  189.8080  177.0420  140.2230 N   0  0  0  0  0  2  0  0  0  0  0  0
  186.6280  177.7850  143.9430 C   0  0  0  0  0  3  0  0  0  0  0  0
  188.6800  177.3590  141.0510 C   0  0  0  0  0  0  0  0  0  0  0  0
  189.7380  177.4800  138.8180 C   0  0  2  0  0  3  0  0  0  0  0  0
  185.6050  179.0230  141.5920 C   0  0  0  0  0  0  0  0  0  0  0  0
  187.6640  178.0990  140.5560 N   0  0  0  0  0  0  0  0  0  0  0  0
  188.4930  177.0920  142.4000 C   0  0  0  0  0  0  0  0  0  0  0  0
  189.0970  178.8720  138.7890 C   0  0  1  0  0  3  0  0  0  0  0  0
  187.2910  177.6960  142.7220 C   0  0  0  0  0  0  0  0  0  0  0  0
  184.9220  179.1330  142.8170 C   0  0  0  0  0  3  0  0  0  0  0  0
  188.7020  176.6180  138.0960 C   0  0  0  0  0  2  0  0  0  0  0  0
  185.4280  178.5160  143.9800 C   0  0  0  0  0  3  0  0  0  0  0  0
  186.8030  178.2970  141.5760 C   0  0  0  0  0  0  0  0  0  0  0  0
  189.1730  179.4290  137.5090 O   0  0  0  0  0  1  0  0  0  0  0  0
  187.3580  177.3280  138.2850 C   0  0  0  0  0  2  0  0  0  0  0  0
  187.6490  178.5480  139.1580 C   0  0  1  0  0  3  0  0  0  0  0  0
  189.3230  176.3880  143.2770 O   0  0  0  0  0  0  0  0  0  0  0  0
  190.5550  176.9140  143.7460 C   0  0  2  0  0  3  0  0  0  0  0  0
  190.4410  177.2230  145.2240 C   0  0  0  0  0  2  0  0  0  0  0  0
  191.6590  179.0790  144.1440 C   0  0  0  0  0  1  0  0  0  0  0  0
  190.3390  178.3400  144.2070 C   0  0  1  0  0  3  0  0  0  0  0  0
  185.0860  179.6340  140.4480 O   0  0  0  0  0  0  0  0  0  0  0  0
  183.8110  177.8410  139.7370 O   0  0  0  0  0  0  0  0  0  0  0  0
  184.0350  179.0810  139.7130 C   0  0  0  0  0  0  0  0  0  0  0  0
  183.2020  179.9310  138.9340 N   0  0  0  0  0  1  0  0  0  0  0  0
  1  3  1  0  0  0  0
  2 12  1  0  0  0  0
  3  7  2  0  0  0  0
  4 11  1  6  0  0  0
  4  1  1  0  0  0  0
  5 10  1  0  0  0  0
  6  3  1  0  0  0  0
  6 13  1  0  0  0  0
  7  9  1  0  0  0  0
  7 17  1  0  0  0  0
  8 14  1  6  0  0  0
  8  4  1  0  0  0  0
  8 16  1  0  0  0  0
  9  2  2  0  0  0  0
 10 12  2  0  0  0  0
 11 15  1  0  0  0  0
 13  5  2  0  0  0  0
 13  9  1  0  0  0  0
 16 15  1  6  0  0  0
 16  6  1  0  0  0  0
 18 17  1  6  0  0  0
 18 21  1  0  0  0  0
 18 19  1  0  0  0  0
 21 20  1  1  0  0  0
 21 19  1  0  0  0  0
 22  5  1  0  0  0  0
 24 23  2  0  0  0  0
 24 22  1  0  0  0  0
 25 24  1  0  0  0  0
M  END
>  <MODEL>
4

>  <REMARK>
 VINA RESULT:      -8.4      3.306      6.790
  Name = 
  4 active torsions:
  status: ('A' for Active; 'I' for Inactive)
    1  A    between atoms: O_4  and  C_9
    2  A    between atoms: O_4  and  C_20
    3  A    between atoms: C_7  and  O_21
    4  A    between atoms: C_16  and  O_21
                            x       y       z     vdW  Elec       q    Type
                         _______ _______ _______ _____ _____    ______ ____

>  <TORSDO>
F 4

$$$$
=
 OpenBabel10222416003D

 25 29  0  0  1  0  0  0  0  0999 V2000
  189.3840  177.1390  145.4100 N   0  0  0  0  0  2  0  0  0  0  0  0
  185.1570  177.9500  142.9640 C   0  0  0  0  0  3  0  0  0  0  0  0
  188.3660  177.4050  144.4330 C   0  0  0  0  0  0  0  0  0  0  0  0
  190.7780  177.3460  144.9810 C   0  0  2  0  0  3  0  0  0  0  0  0
  187.3460  178.6550  141.2850 C   0  0  0  0  0  0  0  0  0  0  0  0
  188.7030  177.9040  143.2240 N   0  0  0  0  0  0  0  0  0  0  0  0
  186.9880  177.3180  144.5730 C   0  0  0  0  0  0  0  0  0  0  0  0
  190.8220  178.6080  144.1110 C   0  0  1  0  0  3  0  0  0  0  0  0
  186.4770  177.7780  143.3730 C   0  0  0  0  0  0  0  0  0  0  0  0
  186.0200  178.8450  140.8550 C   0  0  0  0  0  3  0  0  0  0  0  0
  191.1470  176.2420  143.9910 C   0  0  0  0  0  2  0  0  0  0  0  0
  184.9360  178.4920  141.6860 C   0  0  0  0  0  3  0  0  0  0  0  0
  187.5460  178.1220  142.5650 C   0  0  0  0  0  0  0  0  0  0  0  0
  192.1420  178.9710  143.8280 O   0  0  0  0  0  1  0  0  0  0  0  0
  190.7450  176.7640  142.6070 C   0  0  0  0  0  2  0  0  0  0  0  0
  190.1040  178.1310  142.8480 C   0  0  1  0  0  3  0  0  0  0  0  0
  186.2440  176.8850  145.6740 O   0  0  0  0  0  0  0  0  0  0  0  0
  186.0500  177.6910  146.8250 C   0  0  2  0  0  3  0  0  0  0  0  0
  184.6680  178.3090  146.7810 C   0  0  0  0  0  2  0  0  0  0  0  0
  186.2570  180.0340  147.5520 C   0  0  0  0  0  1  0  0  0  0  0  0
  185.8800  179.1330  146.3960 C   0  0  1  0  0  3  0  0  0  0  0  0
  188.4060  179.0050  140.4470 O   0  0  0  0  0  0  0  0  0  0  0  0
  188.9260  177.0400  139.3440 O   0  0  0  0  0  0  0  0  0  0  0  0
  188.7200  178.2820  139.2930 C   0  0  0  0  0  0  0  0  0  0  0  0
  188.8010  178.9580  138.0440 N   0  0  0  0  0  1  0  0  0  0  0  0
  2  9  1  0  0  0  0
  3  7  2  0  0  0  0
  3  1  1  0  0  0  0
  4 11  1  6  0  0  0
  4  1  1  0  0  0  0
  5 13  1  0  0  0  0
  6  3  1  0  0  0  0
  7 17  1  0  0  0  0
  8 14  1  6  0  0  0
  8  4  1  0  0  0  0
  9  7  1  0  0  0  0
 10  5  2  0  0  0  0
 10 12  1  0  0  0  0
 12  2  2  0  0  0  0
 13  6  1  0  0  0  0
 13  9  2  0  0  0  0
 15 11  1  0  0  0  0
 16 15  1  1  0  0  0
 16  6  1  0  0  0  0
 16  8  1  0  0  0  0
 18 17  1  6  0  0  0
 19 18  1  0  0  0  0
 21 19  1  0  0  0  0
 21 18  1  0  0  0  0
 21 20  1  1  0  0  0
 22  5  1  0  0  0  0
 24 23  2  0  0  0  0
 24 22  1  0  0  0  0
 25 24  1  0  0  0  0
M  END
>  <MODEL>
5

>  <REMARK>
 VINA RESULT:      -8.1      2.378      5.179
  Name = 
  4 active torsions:
  status: ('A' for Active; 'I' for Inactive)
    1  A    between atoms: O_4  and  C_9
    2  A    between atoms: O_4  and  C_20
    3  A    between atoms: C_7  and  O_21
    4  A    between atoms: C_16  and  O_21
                            x       y       z     vdW  Elec       q    Type
                         _______ _______ _______ _____ _____    ______ ____

>  <TORSDO>
F 4

$$$$
=
 OpenBabel10222416003D

 25 29  0  0  1  0  0  0  0  0999 V2000
  185.6140  178.6770  139.4920 N   0  0  0  0  0  2  0  0  0  0  0  0
  185.1650  178.8050  144.4200 C   0  0  0  0  0  3  0  0  0  0  0  0
  185.1590  178.6370  140.8520 C   0  0  0  0  0  0  0  0  0  0  0  0
  184.5730  178.6420  138.4490 C   0  0  2  0  0  3  0  0  0  0  0  0
  182.5670  178.7510  143.2570 C   0  0  0  0  0  0  0  0  0  0  0  0
  183.8370  178.6580  141.1250 N   0  0  0  0  0  0  0  0  0  0  0  0
  185.9110  178.6820  142.0180 C   0  0  0  0  0  0  0  0  0  0  0  0
  183.4030  179.5110  138.9210 C   0  0  1  0  0  3  0  0  0  0  0  0
  184.9820  178.7160  143.0420 C   0  0  0  0  0  0  0  0  0  0  0  0
  182.7280  178.8500  144.6510 C   0  0  0  0  0  3  0  0  0  0  0  0
  183.9630  177.2410  138.4230 C   0  0  0  0  0  2  0  0  0  0  0  0
  184.0160  178.8730  145.2270 C   0  0  0  0  0  3  0  0  0  0  0  0
  183.7240  178.6930  142.4690 C   0  0  0  0  0  0  0  0  0  0  0  0
  182.4620  179.6780  137.9000 O   0  0  0  0  0  1  0  0  0  0  0  0
  182.8130  177.2630  139.4350 C   0  0  0  0  0  2  0  0  0  0  0  0
  182.8300  178.6600  140.0560 C   0  0  1  0  0  3  0  0  0  0  0  0
  187.3010  178.7060  142.1640 O   0  0  0  0  0  0  0  0  0  0  0  0
  188.0970  177.5350  142.0620 C   0  0  2  0  0  3  0  0  0  0  0  0
  187.8380  176.6430  143.2580 C   0  0  0  0  0  2  0  0  0  0  0  0
  190.2670  176.6510  142.8180 C   0  0  0  0  0  1  0  0  0  0  0  0
  189.0820  177.5060  143.2120 C   0  0  1  0  0  3  0  0  0  0  0  0
  181.2850  178.7230  142.7050 O   0  0  0  0  0  0  0  0  0  0  0  0
  180.1160  180.6860  143.0650 O   0  0  0  0  0  0  0  0  0  0  0  0
  180.2170  179.4430  143.2490 C   0  0  0  0  0  0  0  0  0  0  0  0
  179.2300  178.7620  144.0110 N   0  0  0  0  0  1  0  0  0  0  0  0
  1  3  1  0  0  0  0
  2 12  1  0  0  0  0
  3  6  1  0  0  0  0
  3  7  2  0  0  0  0
  4 11  1  1  0  0  0
  4  8  1  0  0  0  0
  4  1  1  0  0  0  0
  5 10  1  0  0  0  0
  6 13  1  0  0  0  0
  7 17  1  0  0  0  0
  7  9  1  0  0  0  0
  8 14  1  6  0  0  0
  8 16  1  0  0  0  0
  9  2  2  0  0  0  0
 10 12  2  0  0  0  0
 11 15  1  0  0  0  0
 13  9  1  0  0  0  0
 13  5  2  0  0  0  0
 16 15  1  6  0  0  0
 16  6  1  0  0  0  0
 18 17  1  1  0  0  0
 18 21  1  0  0  0  0
 18 19  1  0  0  0  0
 21 20  1  6  0  0  0
 21 19  1  0  0  0  0
 22 24  1  0  0  0  0
 22  5  1  0  0  0  0
 23 24  2  0  0  0  0
 24 25  1  0  0  0  0
M  END
>  <MODEL>
6

>  <REMARK>
 VINA RESULT:      -7.8      4.291      7.837
  Name = 
  4 active torsions:
  status: ('A' for Active; 'I' for Inactive)
    1  A    between atoms: O_4  and  C_9
    2  A    between atoms: O_4  and  C_20
    3  A    between atoms: C_7  and  O_21
    4  A    between atoms: C_16  and  O_21
                            x       y       z     vdW  Elec       q    Type
                         _______ _______ _______ _____ _____    ______ ____

>  <TORSDO>
F 4

$$$$
=
 OpenBabel10222416003D

 25 29  0  0  1  0  0  0  0  0999 V2000
  186.0560  177.8190  144.6110 N   0  0  0  0  0  2  0  0  0  0  0  0
  190.4260  176.9550  142.4520 C   0  0  0  0  0  3  0  0  0  0  0  0
  187.1910  177.7590  143.7360 C   0  0  0  0  0  0  0  0  0  0  0  0
  184.8170  178.3830  144.0460 C   0  0  2  0  0  3  0  0  0  0  0  0
  188.6490  178.0720  140.5270 C   0  0  0  0  0  0  0  0  0  0  0  0
  187.0680  178.1260  142.4420 N   0  0  0  0  0  0  0  0  0  0  0  0
  188.4590  177.2590  143.9960 C   0  0  0  0  0  0  0  0  0  0  0  0
  184.6840  177.8780  142.6050 C   0  0  1  0  0  3  0  0  0  0  0  0
  189.1330  177.3470  142.7910 C   0  0  0  0  0  0  0  0  0  0  0  0
  189.9480  177.6750  140.1610 C   0  0  0  0  0  3  0  0  0  0  0  0
  185.0150  179.8870  143.8580 C   0  0  0  0  0  2  0  0  0  0  0  0
  190.8290  177.1250  141.1160 C   0  0  0  0  0  3  0  0  0  0  0  0
  188.2630  177.8870  141.8620 C   0  0  0  0  0  0  0  0  0  0  0  0
  183.4370  178.2180  142.0710 O   0  0  0  0  0  1  0  0  0  0  0  0
  185.6190  180.0620  142.4610 C   0  0  0  0  0  2  0  0  0  0  0  0
  185.8050  178.6500  141.9070 C   0  0  1  0  0  3  0  0  0  0  0  0
  188.9730  176.7520  145.1930 O   0  0  0  0  0  0  0  0  0  0  0  0
  189.3020  177.5860  146.2930 C   0  0  2  0  0  3  0  0  0  0  0  0
  190.0270  176.7730  147.3440 C   0  0  0  0  0  2  0  0  0  0  0  0
  188.4190  178.2530  148.4930 C   0  0  0  0  0  1  0  0  0  0  0  0
  188.5590  177.1020  147.5200 C   0  0  1  0  0  3  0  0  0  0  0  0
  187.7930  178.6200  139.5710 O   0  0  0  0  0  0  0  0  0  0  0  0
  187.4100  177.1300  137.8440 O   0  0  0  0  0  0  0  0  0  0  0  0
  187.8390  178.2530  138.2230 C   0  0  0  0  0  0  0  0  0  0  0  0
  188.3700  179.1610  137.2680 N   0  0  0  0  0  1  0  0  0  0  0  0
  2  9  1  0  0  0  0
  3  7  2  0  0  0  0
  3  1  1  0  0  0  0
  4 11  1  6  0  0  0
  4  1  1  0  0  0  0
  5 13  1  0  0  0  0
  6  3  1  0  0  0  0
  7 17  1  0  0  0  0
  8 14  1  6  0  0  0
  8  4  1  0  0  0  0
  9  7  1  0  0  0  0
 10  5  2  0  0  0  0
 10 12  1  0  0  0  0
 12  2  2  0  0  0  0
 13  6  1  0  0  0  0
 13  9  2  0  0  0  0
 15 11  1  0  0  0  0
 16  6  1  0  0  0  0
 16 15  1  1  0  0  0
 16  8  1  0  0  0  0
 18 17  1  6  0  0  0
 18 19  1  0  0  0  0
 18 21  1  0  0  0  0
 19 21  1  0  0  0  0
 21 20  1  1  0  0  0
 22  5  1  0  0  0  0
 23 24  2  0  0  0  0
 24 22  1  0  0  0  0
 25 24  1  0  0  0  0
M  END
>  <MODEL>
7

>  <REMARK>
 VINA RESULT:      -7.8      2.593      6.465
  Name = 
  4 active torsions:
  status: ('A' for Active; 'I' for Inactive)
    1  A    between atoms: O_4  and  C_9
    2  A    between atoms: O_4  and  C_20
    3  A    between atoms: C_7  and  O_21
    4  A    between atoms: C_16  and  O_21
                            x       y       z     vdW  Elec       q    Type
                         _______ _______ _______ _____ _____    ______ ____

>  <TORSDO>
F 4

$$$$
=
 OpenBabel10222416003D

 25 29  0  0  1  0  0  0  0  0999 V2000
  186.8540  178.6020  138.5700 N   0  0  0  0  0  2  0  0  0  0  0  0
  186.2640  178.2940  143.4760 C   0  0  0  0  0  3  0  0  0  0  0  0
  187.0030  178.3990  139.9830 C   0  0  0  0  0  0  0  0  0  0  0  0
  187.9170  178.0540  137.7090 C   0  0  2  0  0  3  0  0  0  0  0  0
  188.6430  176.9110  142.7420 C   0  0  0  0  0  0  0  0  0  0  0  0
  188.0320  177.6630  140.4550 N   0  0  0  0  0  0  0  0  0  0  0  0
  186.1500  178.7830  141.0080 C   0  0  0  0  0  0  0  0  0  0  0  0
  188.3280  176.6910  138.2780 C   0  0  1  0  0  3  0  0  0  0  0  0
  186.7110  178.2570  142.1570 C   0  0  0  0  0  0  0  0  0  0  0  0
  188.2050  176.9290  144.0790 C   0  0  0  0  0  3  0  0  0  0  0  0
  189.1780  178.8950  137.9070 C   0  0  0  0  0  2  0  0  0  0  0  0
  187.0290  177.6180  144.4420 C   0  0  0  0  0  3  0  0  0  0  0  0
  187.8630  177.5840  141.7920 C   0  0  0  0  0  0  0  0  0  0  0  0
  189.1970  176.0290  137.4050 O   0  0  0  0  0  1  0  0  0  0  0  0
  189.9300  178.2580  139.0800 C   0  0  0  0  0  2  0  0  0  0  0  0
  189.0530  177.1020  139.5610 C   0  0  1  0  0  3  0  0  0  0  0  0
  184.9660  179.5230  140.9320 O   0  0  0  0  0  0  0  0  0  0  0  0
  183.7970  179.0240  140.3030 C   0  0  2  0  0  3  0  0  0  0  0  0
  182.7150  178.8130  141.3420 C   0  0  0  0  0  2  0  0  0  0  0  0
  182.6840  176.8850  139.8000 C   0  0  0  0  0  1  0  0  0  0  0  0
  183.5100  177.6310  140.8250 C   0  0  1  0  0  3  0  0  0  0  0  0
  189.8130  176.2300  142.4020 O   0  0  0  0  0  0  0  0  0  0  0  0
  191.6050  175.5640  143.7020 O   0  0  0  0  0  0  0  0  0  0  0  0
  191.0340  176.4700  143.0380 C   0  0  0  0  0  0  0  0  0  0  0  0
  191.6410  177.7500  142.9270 N   0  0  0  0  0  1  0  0  0  0  0  0
  1  3  1  0  0  0  0
  2 12  1  0  0  0  0
  3  6  1  0  0  0  0
  3  7  2  0  0  0  0
  4 11  1  1  0  0  0
  4  8  1  0  0  0  0
  4  1  1  0  0  0  0
  5 10  1  0  0  0  0
  6 13  1  0  0  0  0
  7  9  1  0  0  0  0
  8 14  1  6  0  0  0
  8 16  1  0  0  0  0
  9  2  2  0  0  0  0
 10 12  2  0  0  0  0
 11 15  1  0  0  0  0
 13  9  1  0  0  0  0
 13  5  2  0  0  0  0
 16 15  1  6  0  0  0
 16  6  1  0  0  0  0
 17  7  1  0  0  0  0
 18 21  1  0  0  0  0
 18 17  1  1  0  0  0
 18 19  1  0  0  0  0
 21 20  1  6  0  0  0
 21 19  1  0  0  0  0
 22  5  1  0  0  0  0
 22 24  1  0  0  0  0
 24 23  2  0  0  0  0
 25 24  1  0  0  0  0
M  END
>  <MODEL>
8

>  <REMARK>
 VINA RESULT:      -7.6      3.056      4.433
  Name = 
  4 active torsions:
  status: ('A' for Active; 'I' for Inactive)
    1  A    between atoms: O_4  and  C_9
    2  A    between atoms: O_4  and  C_20
    3  A    between atoms: C_7  and  O_21
    4  A    between atoms: C_16  and  O_21
                            x       y       z     vdW  Elec       q    Type
                         _______ _______ _______ _____ _____    ______ ____

>  <TORSDO>
F 4

$$$$
=
 OpenBabel10222416003D

 25 29  0  0  1  0  0  0  0  0999 V2000
  188.4270  178.2330  143.8050 N   0  0  0  0  0  2  0  0  0  0  0  0
  187.4070  178.2520  138.9600 C   0  0  0  0  0  3  0  0  0  0  0  0
  188.4320  178.0820  142.3780 C   0  0  0  0  0  0  0  0  0  0  0  0
  189.6880  177.9320  144.5040 C   0  0  2  0  0  3  0  0  0  0  0  0
  190.1380  177.5330  139.3270 C   0  0  0  0  0  0  0  0  0  0  0  0
  189.5760  177.7640  141.7350 N   0  0  0  0  0  0  0  0  0  0  0  0
  187.4020  178.3190  141.4780 C   0  0  0  0  0  0  0  0  0  0  0  0
  190.8410  178.4730  143.6510 C   0  0  1  0  0  3  0  0  0  0  0  0
  187.9640  178.1170  140.2300 C   0  0  0  0  0  0  0  0  0  0  0  0
  189.5980  177.6720  138.0350 C   0  0  0  0  0  3  0  0  0  0  0  0
  189.9160  176.4210  144.4560 C   0  0  0  0  0  2  0  0  0  0  0  0
  188.2450  178.0250  137.8550 C   0  0  0  0  0  3  0  0  0  0  0  0
  189.2890  177.7710  140.4170 C   0  0  0  0  0  0  0  0  0  0  0  0
  192.0530  178.3920  144.3430 O   0  0  0  0  0  1  0  0  0  0  0  0
  190.6820  176.1500  143.1580 C   0  0  0  0  0  2  0  0  0  0  0  0
  190.8240  177.5060  142.4660 C   0  0  1  0  0  3  0  0  0  0  0  0
  186.0820  178.6990  141.7360 O   0  0  0  0  0  0  0  0  0  0  0  0
  185.3540  178.2070  142.8510 C   0  0  2  0  0  3  0  0  0  0  0  0
  183.9050  178.6310  142.7340 C   0  0  0  0  0  2  0  0  0  0  0  0
  184.6030  178.9200  145.0850 C   0  0  0  0  0  1  0  0  0  0  0  0
  184.8420  179.3780  143.6620 C   0  0  1  0  0  3  0  0  0  0  0  0
  191.4780  177.1770  139.4870 O   0  0  0  0  0  0  0  0  0  0  0  0
  191.6780  175.1770  138.3430 O   0  0  0  0  0  0  0  0  0  0  0  0
  192.1390  176.3210  138.6010 C   0  0  0  0  0  0  0  0  0  0  0  0
  193.3420  176.7520  137.9780 N   0  0  0  0  0  1  0  0  0  0  0  0
  1  4  1  0  0  0  0
  2  9  1  0  0  0  0
  3  1  1  0  0  0  0
  4 11  1  6  0  0  0
  5 22  1  0  0  0  0
  5 13  1  0  0  0  0
  6  3  1  0  0  0  0
  6 16  1  0  0  0  0
  7 17  1  0  0  0  0
  7  3  2  0  0  0  0
  8 14  1  1  0  0  0
  8  4  1  0  0  0  0
  9 13  2  0  0  0  0
  9  7  1  0  0  0  0
 10  5  2  0  0  0  0
 12 10  1  0  0  0  0
 12  2  2  0  0  0  0
 13  6  1  0  0  0  0
 15 11  1  0  0  0  0
 16 15  1  1  0  0  0
 16  8  1  0  0  0  0
 18 17  1  6  0  0  0
 18 21  1  0  0  0  0
 19 18  1  0  0  0  0
 19 21  1  0  0  0  0
 21 20  1  1  0  0  0
 23 24  2  0  0  0  0
 24 22  1  0  0  0  0
 25 24  1  0  0  0  0
M  END
>  <MODEL>
9

>  <REMARK>
 VINA RESULT:      -7.5      2.934      5.812
  Name = 
  4 active torsions:
  status: ('A' for Active; 'I' for Inactive)
    1  A    between atoms: O_4  and  C_9
    2  A    between atoms: O_4  and  C_20
    3  A    between atoms: C_7  and  O_21
    4  A    between atoms: C_16  and  O_21
                            x       y       z     vdW  Elec       q    Type
                         _______ _______ _______ _____ _____    ______ ____

>  <TORSDO>
F 4

$$$$
