=
 OpenBabel10222416203D

 46 51  0  0  1  0  0  0  0  0999 V2000
  183.9540  178.4530  141.7890 C   0  0  0  0  0  0  0  0  0  0  0  0
  185.9090  177.9720  138.0400 C   0  0  2  0  0  3  0  0  0  0  0  0
  186.0290  178.6750  140.5340 C   0  0  0  0  0  3  0  0  0  0  0  0
  185.8550  176.8260  135.0320 C   0  0  2  0  0  3  0  0  0  0  0  0
  189.6710  178.1080  138.3170 C   0  0  0  0  0  3  0  0  0  0  0  0
  184.7010  177.4360  135.8540 C   0  0  2  0  0  3  0  0  0  0  0  0
  190.0890  176.8990  137.7730 C   0  0  0  0  0  3  0  0  0  0  0  0
  183.5380  177.3180  138.1750 C   0  0  0  0  0  2  0  0  0  0  0  0
  183.3110  177.9390  140.6540 C   0  0  0  0  0  3  0  0  0  0  0  0
  184.8250  177.1250  137.3570 C   0  0  2  0  0  3  0  0  0  0  0  0
  187.7780  176.2500  137.3950 C   0  0  0  0  0  0  0  0  0  0  0  0
  188.3130  178.3970  138.4020 C   0  0  0  0  0  3  0  0  0  0  0  0
  189.1600  175.9600  137.3170 C   0  0  0  0  0  0  0  0  0  0  0  0
  184.0500  177.7860  139.4810 C   0  0  0  0  0  0  0  0  0  0  0  0
  183.2280  178.6140  143.0020 N   0  0  0  0  0  1  0  0  0  0  0  0
  186.8520  175.2970  136.8460 N   0  0  0  0  0  0  0  0  0  0  0  0
  185.3080  178.8250  141.7290 C   0  0  0  0  0  3  0  0  0  0  0  0
  186.0750  174.4650  134.8040 O   0  0  0  0  0  0  0  0  0  0  0  0
  187.3460  177.4850  137.9610 C   0  0  0  0  0  0  0  0  0  0  0  0
  186.2890  175.4710  135.5330 C   0  0  0  0  0  0  0  0  0  0  0  0
  185.3800  178.1300  139.4220 C   0  0  0  0  0  0  0  0  0  0  0  0
  192.3170  174.8600  137.4800 S   0  0  0  0  0  0  0  0  0  0  0  0
  192.3930  171.0760  135.1760 C   0  0  0  0  0  1  0  0  0  0  0  0
  189.5820  174.7300  136.7030 N   0  0  0  0  0  2  0  0  0  0  0  0
  193.4220  173.1870  135.7080 N   0  0  0  0  0  0  0  0  0  0  0  0
  193.4060  174.6050  136.0510 C   0  0  2  0  0  3  0  0  0  0  0  0
  192.3260  172.4970  135.6080 C   0  0  0  0  0  0  0  0  0  0  0  0
  191.0490  173.0920  135.8810 N   0  0  0  0  0  0  0  0  0  0  0  0
  190.8980  174.1680  136.5930 C   0  0  0  0  0  0  0  0  0  0  0  0
  194.8100  175.0760  136.3830 C   0  0  0  0  0  2  0  0  0  0  0  0
  195.8200  174.0000  136.0270 C   0  0  0  0  0  2  0  0  0  0  0  0
  196.7610  173.7820  137.1930 C   0  0  0  0  0  2  0  0  0  0  0  0
  195.9630  173.4050  138.4240 C   0  0  0  0  0  1  0  0  0  0  0  0
  186.9960  177.7720  134.7480 C   0  0  0  0  0  0  0  0  0  0  0  0
  186.7940  178.9670  134.5950 O   0  0  0  0  0  0  0  0  0  0  0  0
  188.3840  177.2460  134.5970 C   0  0  0  0  0  1  0  0  0  0  0  0
  182.6910  177.8070  134.6020 O   0  0  0  0  0  0  0  0  0  0  0  0
  182.9360  175.6690  135.5090 N   0  0  0  0  0  2  0  0  0  0  0  0
  183.3930  177.0000  135.2710 C   0  0  0  0  0  0  0  0  0  0  0  0
  181.6900  175.1580  134.9600 C   0  0  1  0  0  3  0  0  0  0  0  0
  181.2090  174.0110  135.8250 C   0  0  1  0  0  3  0  0  0  0  0  0
  180.5660  175.3800  135.9480 C   0  0  0  0  0  2  0  0  0  0  0  0
  180.9400  171.8990  135.2340 C   0  0  0  0  0  1  0  0  0  0  0  0
  180.3960  173.1750  135.0610 O   0  0  0  0  0  0  0  0  0  0  0  0
  185.2960  173.8060  137.7420 O   0  0  0  0  0  1  0  0  0  0  0  0
  186.6590  174.0310  137.5430 C   0  0  0  0  0  2  0  0  0  0  0  0
  1 15  1  0  0  0  0
  2 19  1  1  0  0  0
  2 21  1  0  0  0  0
  3 17  2  0  0  0  0
  4 34  1  1  0  0  0
  4 20  1  0  0  0  0
  4  6  1  0  0  0  0
  5 12  1  0  0  0  0
  6 39  1  6  0  0  0
  6 10  1  0  0  0  0
  7  5  2  0  0  0  0
  8 14  1  0  0  0  0
  9  1  2  0  0  0  0
 10  2  1  0  0  0  0
 10  8  1  1  0  0  0
 11 19  1  0  0  0  0
 13 11  2  0  0  0  0
 13  7  1  0  0  0  0
 14  9  1  0  0  0  0
 16 11  1  0  0  0  0
 16 46  1  0  0  0  0
 17  1  1  0  0  0  0
 18 20  2  0  0  0  0
 19 12  2  0  0  0  0
 20 16  1  0  0  0  0
 21 14  2  0  0  0  0
 21  3  1  0  0  0  0
 23 27  1  0  0  0  0
 24 13  1  0  0  0  0
 25 26  1  0  0  0  0
 26 30  1  1  0  0  0
 26 22  1  0  0  0  0
 27 25  2  0  0  0  0
 27 28  1  0  0  0  0
 28 29  2  0  0  0  0
 29 24  1  0  0  0  0
 29 22  1  0  0  0  0
 31 30  1  0  0  0  0
 31 32  1  0  0  0  0
 32 33  1  0  0  0  0
 35 34  2  0  0  0  0
 36 34  1  0  0  0  0
 37 39  2  0  0  0  0
 39 38  1  0  0  0  0
 40 38  1  1  0  0  0
 40 41  1  0  0  0  0
 40 42  1  0  0  0  0
 41 44  1  6  0  0  0
 41 42  1  0  0  0  0
 44 43  1  0  0  0  0
 46 45  1  0  0  0  0
M  END
>  <MODEL>
1

>  <REMARK>
 VINA RESULT:      -5.3      0.000      0.000
  Name = 
  9 active torsions:
  status: ('A' for Active; 'I' for Inactive)
    1  A    between atoms: N_6  and  C_30
    2  A    between atoms: C_8  and  C_10
    3  A    between atoms: C_12  and  C_37
    4  A    between atoms: C_16  and  N_23
    5  A    between atoms: C_18  and  O_44
    6  A    between atoms: C_19  and  N_36
    7  A    between atoms: C_20  and  C_27
    8  A    between atoms: C_27  and  C_42
    9  A    between atoms: C_34  and  C_42
                            x       y       z     vdW  Elec       q    Type
                         _______ _______ _______ _____ _____    ______ ____

>  <TORSDO>
F 9

$$$$
=
 OpenBabel10222416203D

 46 51  0  0  1  0  0  0  0  0999 V2000
  187.5550  171.4540  136.0420 C   0  0  0  0  0  0  0  0  0  0  0  0
  188.1460  175.6330  136.5900 C   0  0  2  0  0  3  0  0  0  0  0  0
  186.5570  173.6750  135.9820 C   0  0  0  0  0  3  0  0  0  0  0  0
  190.0180  178.0380  137.6290 C   0  0  2  0  0  3  0  0  0  0  0  0
  184.9070  177.5560  136.8270 C   0  0  0  0  0  3  0  0  0  0  0  0
  190.4310  176.7230  136.9370 C   0  0  2  0  0  3  0  0  0  0  0  0
  184.9940  178.2050  138.0530 C   0  0  0  0  0  3  0  0  0  0  0  0
  190.0670  174.1500  137.0160 C   0  0  0  0  0  2  0  0  0  0  0  0
  188.7770  172.0040  136.4550 C   0  0  0  0  0  3  0  0  0  0  0  0
  189.5030  175.5510  137.3060 C   0  0  2  0  0  3  0  0  0  0  0  0
  187.1580  177.1790  138.4630 C   0  0  0  0  0  0  0  0  0  0  0  0
  185.9380  176.7200  136.4110 C   0  0  0  0  0  3  0  0  0  0  0  0
  186.1040  178.0220  138.8820 C   0  0  0  0  0  0  0  0  0  0  0  0
  188.8590  173.3840  136.6410 C   0  0  0  0  0  0  0  0  0  0  0  0
  187.4410  170.0490  135.8510 N   0  0  0  0  0  1  0  0  0  0  0  0
  188.3190  177.0730  139.3040 N   0  0  0  0  0  0  0  0  0  0  0  0
  186.4490  172.2870  135.8010 C   0  0  0  0  0  3  0  0  0  0  0  0
  190.1990  178.2810  139.9920 O   0  0  0  0  0  0  0  0  0  0  0  0
  187.0670  176.5030  137.2110 C   0  0  0  0  0  0  0  0  0  0  0  0
  189.5100  177.8350  139.0350 C   0  0  0  0  0  0  0  0  0  0  0  0
  187.7740  174.2010  136.4260 C   0  0  0  0  0  0  0  0  0  0  0  0
  183.8960  177.6850  141.3760 S   0  0  0  0  0  0  0  0  0  0  0  0
  185.2890  180.3940  144.5910 C   0  0  0  0  0  1  0  0  0  0  0  0
  186.2290  178.7310  140.1270 N   0  0  0  0  0  2  0  0  0  0  0  0
  183.4720  179.5240  143.2720 N   0  0  0  0  0  0  0  0  0  0  0  0
  182.8660  179.0220  142.0440 C   0  0  2  0  0  3  0  0  0  0  0  0
  184.7380  179.8090  143.3410 C   0  0  0  0  0  0  0  0  0  0  0  0
  185.6080  179.5930  142.2210 N   0  0  0  0  0  0  0  0  0  0  0  0
  185.3320  178.7790  141.2470 C   0  0  0  0  0  0  0  0  0  0  0  0
  181.4680  178.5040  142.3270 C   0  0  0  0  0  2  0  0  0  0  0  0
  181.1710  178.5870  143.8130 C   0  0  0  0  0  2  0  0  0  0  0  0
  179.6760  178.6920  144.0270 C   0  0  0  0  0  2  0  0  0  0  0  0
  179.0520  179.4490  142.8720 C   0  0  0  0  0  1  0  0  0  0  0  0
  189.1570  178.9490  136.7890 C   0  0  0  0  0  0  0  0  0  0  0  0
  188.6160  179.9270  137.2810 O   0  0  0  0  0  0  0  0  0  0  0  0
  188.9120  178.6310  135.3510 C   0  0  0  0  0  1  0  0  0  0  0  0
  192.3090  176.4880  138.4080 O   0  0  0  0  0  0  0  0  0  0  0  0
  192.7540  176.1520  136.1400 N   0  0  0  0  0  2  0  0  0  0  0  0
  191.8730  176.4420  137.2250 C   0  0  0  0  0  0  0  0  0  0  0  0
  194.1620  175.8440  136.3340 C   0  0  1  0  0  3  0  0  0  0  0  0
  194.3870  174.3780  136.0290 C   0  0  1  0  0  3  0  0  0  0  0  0
  194.7830  175.4370  135.0170 C   0  0  0  0  0  2  0  0  0  0  0  0
  195.1990  174.1150  138.0670 C   0  0  0  0  0  1  0  0  0  0  0  0
  195.5160  173.9380  136.7170 O   0  0  0  0  0  0  0  0  0  0  0  0
  189.3120  176.6260  141.3690 O   0  0  0  0  0  1  0  0  0  0  0  0
  188.2020  176.3540  140.5670 C   0  0  0  0  0  2  0  0  0  0  0  0
  1  9  1  0  0  0  0
  2 21  1  1  0  0  0
  2 19  1  0  0  0  0
  2 10  1  0  0  0  0
  3 21  2  0  0  0  0
  4 34  1  6  0  0  0
  4 20  1  0  0  0  0
  5  7  1  0  0  0  0
  6 39  1  1  0  0  0
  6 10  1  0  0  0  0
  6  4  1  0  0  0  0
  7 13  2  0  0  0  0
  9 14  2  0  0  0  0
 10  8  1  6  0  0  0
 11 13  1  0  0  0  0
 11 16  1  0  0  0  0
 12  5  2  0  0  0  0
 12 19  1  0  0  0  0
 13 24  1  0  0  0  0
 14  8  1  0  0  0  0
 15  1  1  0  0  0  0
 16 46  1  0  0  0  0
 17  3  1  0  0  0  0
 17  1  2  0  0  0  0
 19 11  2  0  0  0  0
 20 16  1  0  0  0  0
 20 18  2  0  0  0  0
 21 14  1  0  0  0  0
 22 26  1  0  0  0  0
 24 29  1  0  0  0  0
 25 27  2  0  0  0  0
 26 30  1  1  0  0  0
 26 25  1  0  0  0  0
 27 23  1  0  0  0  0
 28 27  1  0  0  0  0
 29 22  1  0  0  0  0
 29 28  2  0  0  0  0
 30 31  1  0  0  0  0
 31 32  1  0  0  0  0
 33 32  1  0  0  0  0
 34 35  2  0  0  0  0
 36 34  1  0  0  0  0
 38 39  1  0  0  0  0
 39 37  2  0  0  0  0
 40 38  1  6  0  0  0
 41 40  1  0  0  0  0
 41 44  1  1  0  0  0
 42 41  1  0  0  0  0
 42 40  1  0  0  0  0
 44 43  1  0  0  0  0
 46 45  1  0  0  0  0
M  END
>  <MODEL>
2

>  <REMARK>
 VINA RESULT:      -3.1      3.649      9.900
  Name = 
  9 active torsions:
  status: ('A' for Active; 'I' for Inactive)
    1  A    between atoms: N_6  and  C_30
    2  A    between atoms: C_8  and  C_10
    3  A    between atoms: C_12  and  C_37
    4  A    between atoms: C_16  and  N_23
    5  A    between atoms: C_18  and  O_44
    6  A    between atoms: C_19  and  N_36
    7  A    between atoms: C_20  and  C_27
    8  A    between atoms: C_27  and  C_42
    9  A    between atoms: C_34  and  C_42
                            x       y       z     vdW  Elec       q    Type
                         _______ _______ _______ _____ _____    ______ ____

>  <TORSDO>
F 9

$$$$
=
 OpenBabel10222416203D

 46 51  0  0  1  0  0  0  0  0999 V2000
  185.9860  170.8390  135.4840 C   0  0  0  0  0  0  0  0  0  0  0  0
  183.7910  174.4840  135.3900 C   0  0  2  0  0  3  0  0  0  0  0  0
  183.8120  171.8970  135.1950 C   0  0  0  0  0  3  0  0  0  0  0  0
  183.6960  177.6580  135.9240 C   0  0  2  0  0  3  0  0  0  0  0  0
  180.0600  173.9580  135.6200 C   0  0  0  0  0  3  0  0  0  0  0  0
  184.8640  176.8020  135.3920 C   0  0  2  0  0  3  0  0  0  0  0  0
  179.6870  174.7050  136.7310 C   0  0  0  0  0  3  0  0  0  0  0  0
  186.2050  174.6260  135.8610 C   0  0  0  0  0  2  0  0  0  0  0  0
  186.5750  172.0910  135.7140 C   0  0  0  0  0  3  0  0  0  0  0  0
  184.8760  175.3860  135.9970 C   0  0  2  0  0  3  0  0  0  0  0  0
  182.0010  175.3440  137.1020 C   0  0  0  0  0  0  0  0  0  0  0  0
  181.3970  173.9000  135.2420 C   0  0  0  0  0  3  0  0  0  0  0  0
  180.6410  175.3940  137.4840 C   0  0  0  0  0  0  0  0  0  0  0  0
  185.7620  173.2240  135.6980 C   0  0  0  0  0  0  0  0  0  0  0  0
  186.7890  169.6660  135.5030 N   0  0  0  0  0  1  0  0  0  0  0  0
  182.9460  176.1260  137.8520 N   0  0  0  0  0  0  0  0  0  0  0  0
  184.6100  170.7420  135.2210 C   0  0  0  0  0  3  0  0  0  0  0  0
  183.6220  178.3360  138.2060 O   0  0  0  0  0  0  0  0  0  0  0  0
  182.3890  174.5710  135.9690 C   0  0  0  0  0  0  0  0  0  0  0  0
  183.3950  177.4110  137.3820 C   0  0  0  0  0  0  0  0  0  0  0  0
  184.4110  173.1330  135.4590 C   0  0  0  0  0  0  0  0  0  0  0  0
  179.8210  178.6220  137.1520 S   0  0  0  0  0  0  0  0  0  0  0  0
  178.9310  180.0650  141.2450 C   0  0  0  0  0  1  0  0  0  0  0  0
  180.2590  176.2130  138.6020 N   0  0  0  0  0  2  0  0  0  0  0  0
  179.9960  180.4300  139.1170 N   0  0  0  0  0  0  0  0  0  0  0  0
  180.7110  180.0070  137.9170 C   0  0  2  0  0  3  0  0  0  0  0  0
  179.5820  179.5740  140.0020 C   0  0  0  0  0  0  0  0  0  0  0  0
  179.7680  178.1640  139.8130 N   0  0  0  0  0  0  0  0  0  0  0  0
  179.9780  177.6200  138.6510 C   0  0  0  0  0  0  0  0  0  0  0  0
  180.8110  181.1600  136.9360 C   0  0  0  0  0  2  0  0  0  0  0  0
  179.7030  182.1650  137.1970 C   0  0  0  0  0  2  0  0  0  0  0  0
  180.0770  183.5010  136.5890 C   0  0  0  0  0  2  0  0  0  0  0  0
  180.6650  183.2820  135.2110 C   0  0  0  0  0  1  0  0  0  0  0  0
  182.4750  177.6780  135.0380 C   0  0  0  0  0  0  0  0  0  0  0  0
  181.9750  176.6370  134.6370 O   0  0  0  0  0  0  0  0  0  0  0  0
  181.8940  178.9790  134.5940 C   0  0  0  0  0  1  0  0  0  0  0  0
  186.5810  178.3330  134.7170 O   0  0  0  0  0  0  0  0  0  0  0  0
  186.9020  177.3040  136.7890 N   0  0  0  0  0  2  0  0  0  0  0  0
  186.1520  177.5380  135.5970 C   0  0  0  0  0  0  0  0  0  0  0  0
  188.1490  177.9950  137.0780 C   0  0  1  0  0  3  0  0  0  0  0  0
  188.8620  177.2660  138.1980 C   0  0  1  0  0  3  0  0  0  0  0  0
  189.3190  177.0910  136.7630 C   0  0  0  0  0  2  0  0  0  0  0  0
  189.6370  177.7840  140.2010 C   0  0  0  0  0  1  0  0  0  0  0  0
  189.7060  178.1590  138.8570 O   0  0  0  0  0  0  0  0  0  0  0  0
  183.3280  176.8230  140.0460 O   0  0  0  0  0  1  0  0  0  0  0  0
  183.2780  175.7070  139.2090 C   0  0  0  0  0  2  0  0  0  0  0  0
  1 15  1  0  0  0  0
  1  9  1  0  0  0  0
  2 21  1  1  0  0  0
  2 19  1  0  0  0  0
  2 10  1  0  0  0  0
  3 17  1  0  0  0  0
  3 21  2  0  0  0  0
  4 34  1  6  0  0  0
  4 20  1  0  0  0  0
  5  7  1  0  0  0  0
  6 39  1  1  0  0  0
  6  4  1  0  0  0  0
  6 10  1  0  0  0  0
  7 13  2  0  0  0  0
 10  8  1  6  0  0  0
 11 13  1  0  0  0  0
 11 16  1  0  0  0  0
 12  5  2  0  0  0  0
 12 19  1  0  0  0  0
 13 24  1  0  0  0  0
 14  9  2  0  0  0  0
 14  8  1  0  0  0  0
 16 46  1  0  0  0  0
 17  1  2  0  0  0  0
 19 11  2  0  0  0  0
 20 16  1  0  0  0  0
 20 18  2  0  0  0  0
 21 14  1  0  0  0  0
 22 26  1  0  0  0  0
 22 29  1  0  0  0  0
 24 29  1  0  0  0  0
 25 27  2  0  0  0  0
 26 30  1  6  0  0  0
 26 25  1  0  0  0  0
 27 23  1  0  0  0  0
 28 27  1  0  0  0  0
 29 28  2  0  0  0  0
 30 31  1  0  0  0  0
 32 31  1  0  0  0  0
 33 32  1  0  0  0  0
 35 34  2  0  0  0  0
 36 34  1  0  0  0  0
 37 39  2  0  0  0  0
 39 38  1  0  0  0  0
 40 38  1  6  0  0  0
 40 41  1  0  0  0  0
 41 44  1  1  0  0  0
 42 40  1  0  0  0  0
 42 41  1  0  0  0  0
 44 43  1  0  0  0  0
 46 45  1  0  0  0  0
M  END
>  <MODEL>
3

>  <REMARK>
 VINA RESULT:      -2.9      4.115     10.017
  Name = 
  9 active torsions:
  status: ('A' for Active; 'I' for Inactive)
    1  A    between atoms: N_6  and  C_30
    2  A    between atoms: C_8  and  C_10
    3  A    between atoms: C_12  and  C_37
    4  A    between atoms: C_16  and  N_23
    5  A    between atoms: C_18  and  O_44
    6  A    between atoms: C_19  and  N_36
    7  A    between atoms: C_20  and  C_27
    8  A    between atoms: C_27  and  C_42
    9  A    between atoms: C_34  and  C_42
                            x       y       z     vdW  Elec       q    Type
                         _______ _______ _______ _____ _____    ______ ____

>  <TORSDO>
F 9

$$$$
=
 OpenBabel10222416203D

 46 51  0  0  1  0  0  0  0  0999 V2000
  190.8800  177.2800  139.7340 C   0  0  0  0  0  0  0  0  0  0  0  0
  186.8780  178.4320  138.8540 C   0  0  2  0  0  3  0  0  0  0  0  0
  189.3280  178.1260  138.0580 C   0  0  0  0  0  3  0  0  0  0  0  0
  183.7840  178.5350  139.7360 C   0  0  2  0  0  3  0  0  0  0  0  0
  186.2180  178.7370  135.1500 C   0  0  0  0  0  3  0  0  0  0  0  0
  185.0430  178.6910  140.6120 C   0  0  2  0  0  3  0  0  0  0  0  0
  185.1570  177.8670  134.9290 C   0  0  0  0  0  3  0  0  0  0  0  0
  187.3450  177.5990  141.1240 C   0  0  0  0  0  2  0  0  0  0  0  0
  189.8380  177.1970  140.6690 C   0  0  0  0  0  3  0  0  0  0  0  0
  186.2180  177.8350  140.1060 C   0  0  2  0  0  3  0  0  0  0  0  0
  185.1570  177.2400  137.2760 C   0  0  0  0  0  0  0  0  0  0  0  0
  186.7520  178.8660  136.4270 C   0  0  0  0  0  3  0  0  0  0  0  0
  184.6230  177.1090  135.9740 C   0  0  0  0  0  0  0  0  0  0  0  0
  188.5530  177.5650  140.2710 C   0  0  0  0  0  0  0  0  0  0  0  0
  192.1990  176.9040  140.1090 N   0  0  0  0  0  1  0  0  0  0  0  0
  184.5340  176.5050  138.3430 N   0  0  0  0  0  0  0  0  0  0  0  0
  190.6270  177.7480  138.4330 C   0  0  0  0  0  3  0  0  0  0  0  0
  182.6010  176.4690  139.6580 O   0  0  0  0  0  0  0  0  0  0  0  0
  186.2520  178.1240  137.5050 C   0  0  0  0  0  0  0  0  0  0  0  0
  183.5840  177.1290  139.2270 C   0  0  0  0  0  0  0  0  0  0  0  0
  188.2970  178.0050  138.9940 C   0  0  0  0  0  0  0  0  0  0  0  0
  181.7530  178.1980  134.6380 S   0  0  0  0  0  0  0  0  0  0  0  0
  179.0410  174.6950  134.5940 C   0  0  0  0  0  1  0  0  0  0  0  0
  183.4910  176.2470  135.7670 N   0  0  0  0  0  2  0  0  0  0  0  0
  179.3730  177.0400  135.0320 N   0  0  0  0  0  0  0  0  0  0  0  0
  180.1450  178.1940  135.4790 C   0  0  2  0  0  3  0  0  0  0  0  0
  179.8930  175.8500  134.9790 C   0  0  0  0  0  0  0  0  0  0  0  0
  181.2710  175.6290  135.3140 N   0  0  0  0  0  0  0  0  0  0  0  0
  182.1690  176.5680  135.3060 C   0  0  0  0  0  0  0  0  0  0  0  0
  179.3950  179.4760  135.1640 C   0  0  0  0  0  2  0  0  0  0  0  0
  179.3830  180.3860  136.3790 C   0  0  0  0  0  2  0  0  0  0  0  0
  180.1700  181.6440  136.0780 C   0  0  0  0  0  2  0  0  0  0  0  0
  180.4630  181.7140  134.5940 C   0  0  0  0  0  1  0  0  0  0  0  0
  183.6130  179.6010  138.6820 C   0  0  0  0  0  0  0  0  0  0  0  0
  184.2750  180.6270  138.7170 O   0  0  0  0  0  0  0  0  0  0  0  0
  182.5880  179.4370  137.6100 C   0  0  0  0  0  1  0  0  0  0  0  0
  183.4880  178.2500  142.3820 O   0  0  0  0  0  0  0  0  0  0  0  0
  185.7320  178.3760  143.0180 N   0  0  0  0  0  2  0  0  0  0  0  0
  184.6900  178.4160  142.0410 C   0  0  0  0  0  0  0  0  0  0  0  0
  185.4780  178.0910  144.4210 C   0  0  1  0  0  3  0  0  0  0  0  0
  186.8020  178.0560  145.1580 C   0  0  1  0  0  3  0  0  0  0  0  0
  185.9010  179.2710  145.2670 C   0  0  0  0  0  2  0  0  0  0  0  0
  187.7510  177.6210  147.1050 C   0  0  0  0  0  1  0  0  0  0  0  0
  186.6670  177.2650  146.2980 O   0  0  0  0  0  0  0  0  0  0  0  0
  185.6230  174.6630  137.4110 O   0  0  0  0  0  1  0  0  0  0  0  0
  184.7030  175.0570  138.3840 C   0  0  0  0  0  2  0  0  0  0  0  0
  1 15  1  0  0  0  0
  1  9  1  0  0  0  0
  2 19  1  6  0  0  0
  2 21  1  0  0  0  0
  2 10  1  0  0  0  0
  3 17  1  0  0  0  0
  3 21  2  0  0  0  0
  4 34  1  6  0  0  0
  4  6  1  0  0  0  0
  5 12  1  0  0  0  0
  6 39  1  1  0  0  0
  7  5  2  0  0  0  0
  7 13  1  0  0  0  0
 10  6  1  0  0  0  0
 10  8  1  1  0  0  0
 11 19  1  0  0  0  0
 11 16  1  0  0  0  0
 12 19  2  0  0  0  0
 13 11  2  0  0  0  0
 14  9  2  0  0  0  0
 14  8  1  0  0  0  0
 16 46  1  0  0  0  0
 16 20  1  0  0  0  0
 17  1  2  0  0  0  0
 20 18  2  0  0  0  0
 20  4  1  0  0  0  0
 21 14  1  0  0  0  0
 22 29  1  0  0  0  0
 22 26  1  0  0  0  0
 23 27  1  0  0  0  0
 24 13  1  0  0  0  0
 25 26  1  0  0  0  0
 26 30  1  6  0  0  0
 27 25  2  0  0  0  0
 27 28  1  0  0  0  0
 29 28  2  0  0  0  0
 29 24  1  0  0  0  0
 30 31  1  0  0  0  0
 32 31  1  0  0  0  0
 33 32  1  0  0  0  0
 34 35  2  0  0  0  0
 36 34  1  0  0  0  0
 39 37  2  0  0  0  0
 39 38  1  0  0  0  0
 40 38  1  6  0  0  0
 40 41  1  0  0  0  0
 40 42  1  0  0  0  0
 41 42  1  0  0  0  0
 41 44  1  1  0  0  0
 44 43  1  0  0  0  0
 45 46  1  0  0  0  0
M  END
>  <MODEL>
4

>  <REMARK>
 VINA RESULT:      -2.8      3.927      9.271
  Name = 
  9 active torsions:
  status: ('A' for Active; 'I' for Inactive)
    1  A    between atoms: N_6  and  C_30
    2  A    between atoms: C_8  and  C_10
    3  A    between atoms: C_12  and  C_37
    4  A    between atoms: C_16  and  N_23
    5  A    between atoms: C_18  and  O_44
    6  A    between atoms: C_19  and  N_36
    7  A    between atoms: C_20  and  C_27
    8  A    between atoms: C_27  and  C_42
    9  A    between atoms: C_34  and  C_42
                            x       y       z     vdW  Elec       q    Type
                         _______ _______ _______ _____ _____    ______ ____

>  <TORSDO>
F 9

$$$$
