=
 OpenBabel10222416093D

 26 29  0  0  0  0  0  0  0  0999 V2000
  185.1750  178.4810  145.6180 C   0  0  0  0  0  0  0  0  0  0  0  0
  190.6340  177.0460  146.2300 C   0  0  0  0  0  3  0  0  0  0  0  0
  188.5570  177.5640  145.6800 C   0  0  0  0  0  0  0  0  0  0  0  0
  186.8360  178.3200  147.1040 N   0  0  0  0  0  0  0  0  0  0  0  0
  186.7070  177.5690  143.3680 S   0  0  0  0  0  0  0  0  0  0  0  0
  189.1240  177.1540  144.4970 C   0  0  0  0  0  0  0  0  0  0  0  0
  187.2690  177.9730  145.8910 C   0  0  0  0  0  0  0  0  0  0  0  0
  189.4240  177.5030  146.7210 C   0  0  0  0  0  0  0  0  0  0  0  0
  185.5240  178.6390  146.9750 C   0  0  0  0  0  3  0  0  0  0  0  0
  190.4520  176.8360  144.8450 C   0  0  0  0  0  0  0  0  0  0  0  0
  187.6580  178.2860  148.1990 C   0  0  0  0  0  3  0  0  0  0  0  0
  189.0120  177.8650  148.0240 C   0  0  0  0  0  3  0  0  0  0  0  0
  186.3100  178.0430  144.9530 C   0  0  0  0  0  0  0  0  0  0  0  0
  188.3740  177.0830  143.2870 C   0  0  0  0  0  0  0  0  0  0  0  0
  192.0170  175.2150  144.0650 O   0  0  0  0  0  1  0  0  0  0  0  0
  192.0510  177.2310  142.9970 O   0  0  0  0  0  0  0  0  0  0  0  0
  191.5510  176.3790  143.9760 C   0  0  0  0  0  0  0  0  0  0  0  0
  188.9410  176.5930  142.0710 N   0  0  0  0  0  2  0  0  0  0  0  0
  189.1630  177.4340  140.9060 C   0  0  0  0  0  1  0  0  0  0  0  0
  183.8180  178.6550  145.0310 C   0  0  0  0  0  2  0  0  0  0  0  0
  183.9040  179.4770  143.8370 N   0  0  0  0  0  2  0  0  0  0  0  0
  182.9620  178.9230  142.8800 C   0  0  0  0  0  2  0  0  0  0  0  0
  185.3890  179.2290  139.9540 N   0  0  0  0  0  1  0  0  0  0  0  0
  183.3100  177.6320  140.9090 O   0  0  0  0  0  0  0  0  0  0  0  0
  184.7180  179.4770  141.1580 N   0  0  0  0  0  2  0  0  0  0  0  0
  183.6650  178.6230  141.6030 C   0  0  0  0  0  0  0  0  0  0  0  0
  1  9  2  0  0  0  0
  2  8  1  0  0  0  0
  3  7  1  0  0  0  0
  3  8  2  0  0  0  0
  4 11  1  0  0  0  0
  5 13  1  0  0  0  0
  6 10  1  0  0  0  0
  6  3  1  0  0  0  0
  7  4  1  0  0  0  0
  8 12  1  0  0  0  0
  9  4  1  0  0  0  0
 10  2  2  0  0  0  0
 12 11  2  0  0  0  0
 13  1  1  0  0  0  0
 13  7  2  0  0  0  0
 14  5  1  0  0  0  0
 14  6  2  0  0  0  0
 16 17  2  0  0  0  0
 17 15  1  0  0  0  0
 17 10  1  0  0  0  0
 18 14  1  0  0  0  0
 19 18  1  0  0  0  0
 20  1  1  0  0  0  0
 21 20  1  0  0  0  0
 22 21  1  0  0  0  0
 23 25  1  0  0  0  0
 24 26  2  0  0  0  0
 25 26  1  0  0  0  0
 26 22  1  0  0  0  0
M  END
>  <MODEL>
1

>  <REMARK>
 VINA RESULT:      -9.1      0.000      0.000
  Name = 
  6 active torsions:
  status: ('A' for Active; 'I' for Inactive)
    1  A    between atoms: N_3  and  C_25
    2  A    between atoms: C_5  and  C_10
    3  A    between atoms: C_9  and  C_16
    4  A    between atoms: C_9  and  N_26
    5  A    between atoms: C_10  and  N_26
    6  A    between atoms: C_18  and  C_21
                            x       y       z     vdW  Elec       q    Type
                         _______ _______ _______ _____ _____    ______ ____

>  <TORSDO>
F 6

$$$$
=
 OpenBabel10222416093D

 26 29  0  0  0  0  0  0  0  0999 V2000
  185.1670  178.2940  143.4120 C   0  0  0  0  0  0  0  0  0  0  0  0
  188.9890  177.5300  147.5420 C   0  0  0  0  0  3  0  0  0  0  0  0
  187.7370  177.7530  145.7340 C   0  0  0  0  0  0  0  0  0  0  0  0
  185.5020  178.4960  145.6120 N   0  0  0  0  0  0  0  0  0  0  0  0
  187.7820  177.2740  142.8120 S   0  0  0  0  0  0  0  0  0  0  0  0
  188.9280  177.2600  145.2570 C   0  0  0  0  0  0  0  0  0  0  0  0
  186.6080  178.0480  145.0180 C   0  0  0  0  0  0  0  0  0  0  0  0
  187.7430  177.9150  147.0800 C   0  0  0  0  0  0  0  0  0  0  0  0
  184.5720  178.6560  144.6390 C   0  0  0  0  0  3  0  0  0  0  0  0
  189.7300  177.1300  146.4080 C   0  0  0  0  0  0  0  0  0  0  0  0
  185.4380  178.6860  146.9680 C   0  0  0  0  0  3  0  0  0  0  0  0
  186.5950  178.3910  147.7540 C   0  0  0  0  0  3  0  0  0  0  0  0
  186.4660  177.8980  143.6910 C   0  0  0  0  0  0  0  0  0  0  0  0
  189.1200  176.9600  143.8770 C   0  0  0  0  0  0  0  0  0  0  0  0
  192.0560  177.2820  145.9000 O   0  0  0  0  0  0  0  0  0  0  0  0
  191.4550  175.6200  147.3440 O   0  0  0  0  0  1  0  0  0  0  0  0
  191.1330  176.6860  146.5110 C   0  0  0  0  0  0  0  0  0  0  0  0
  190.3320  176.3840  143.3880 N   0  0  0  0  0  2  0  0  0  0  0  0
  191.2560  177.1010  142.5240 C   0  0  0  0  0  1  0  0  0  0  0  0
  184.4940  178.2490  142.0850 C   0  0  0  0  0  2  0  0  0  0  0  0
  185.0150  179.3060  141.2380 N   0  0  0  0  0  2  0  0  0  0  0  0
  184.5090  179.0560  139.9000 C   0  0  0  0  0  2  0  0  0  0  0  0
  188.0340  178.2330  138.7000 N   0  0  0  0  0  1  0  0  0  0  0  0
  185.3820  178.2580  137.8330 O   0  0  0  0  0  0  0  0  0  0  0  0
  186.9620  178.6280  139.5100 N   0  0  0  0  0  2  0  0  0  0  0  0
  185.6240  178.6160  139.0170 C   0  0  0  0  0  0  0  0  0  0  0  0
  1 13  1  0  0  0  0
  1  9  2  0  0  0  0
  3  8  2  0  0  0  0
  4 11  1  0  0  0  0
  5 13  1  0  0  0  0
  5 14  1  0  0  0  0
  6  3  1  0  0  0  0
  6 10  1  0  0  0  0
  7  4  1  0  0  0  0
  7  3  1  0  0  0  0
  8  2  1  0  0  0  0
  8 12  1  0  0  0  0
  9  4  1  0  0  0  0
 10 17  1  0  0  0  0
 10  2  2  0  0  0  0
 11 12  2  0  0  0  0
 13  7  2  0  0  0  0
 14  6  2  0  0  0  0
 15 17  2  0  0  0  0
 17 16  1  0  0  0  0
 18 14  1  0  0  0  0
 19 18  1  0  0  0  0
 20  1  1  0  0  0  0
 21 20  1  0  0  0  0
 22 21  1  0  0  0  0
 23 25  1  0  0  0  0
 24 26  2  0  0  0  0
 26 25  1  0  0  0  0
 26 22  1  0  0  0  0
M  END
>  <MODEL>
2

>  <REMARK>
 VINA RESULT:      -8.8      1.801      2.511
  Name = 
  6 active torsions:
  status: ('A' for Active; 'I' for Inactive)
    1  A    between atoms: N_3  and  C_25
    2  A    between atoms: C_5  and  C_10
    3  A    between atoms: C_9  and  C_16
    4  A    between atoms: C_9  and  N_26
    5  A    between atoms: C_10  and  N_26
    6  A    between atoms: C_18  and  C_21
                            x       y       z     vdW  Elec       q    Type
                         _______ _______ _______ _____ _____    ______ ____

>  <TORSDO>
F 6

$$$$
=
 OpenBabel10222416093D

 26 29  0  0  0  0  0  0  0  0999 V2000
  185.2780  178.3200  143.3600 C   0  0  0  0  0  0  0  0  0  0  0  0
  188.9530  177.5160  147.6140 C   0  0  0  0  0  3  0  0  0  0  0  0
  187.7620  177.7470  145.7660 C   0  0  0  0  0  0  0  0  0  0  0  0
  185.5490  178.5370  145.5680 N   0  0  0  0  0  0  0  0  0  0  0  0
  187.8870  177.2380  142.8510 S   0  0  0  0  0  0  0  0  0  0  0  0
  188.9560  177.2240  145.3300 C   0  0  0  0  0  0  0  0  0  0  0  0
  186.6630  178.0590  145.0130 C   0  0  0  0  0  0  0  0  0  0  0  0
  187.7300  177.9220  147.1100 C   0  0  0  0  0  0  0  0  0  0  0  0
  184.6540  178.7080  144.5640 C   0  0  0  0  0  3  0  0  0  0  0  0
  189.7200  177.0880  146.5070 C   0  0  0  0  0  0  0  0  0  0  0  0
  185.4480  178.7420  146.9190 C   0  0  0  0  0  3  0  0  0  0  0  0
  186.5720  178.4300  147.7430 C   0  0  0  0  0  3  0  0  0  0  0  0
  186.5590  177.8990  143.6830 C   0  0  0  0  0  0  0  0  0  0  0  0
  189.1850  176.9060  143.9600 C   0  0  0  0  0  0  0  0  0  0  0  0
  192.0630  177.1900  146.0780 O   0  0  0  0  0  0  0  0  0  0  0  0
  191.3800  175.5440  147.5030 O   0  0  0  0  0  1  0  0  0  0  0  0
  191.1080  176.6150  146.6580 C   0  0  0  0  0  0  0  0  0  0  0  0
  190.3980  176.2980  143.5140 N   0  0  0  0  0  2  0  0  0  0  0  0
  191.3500  176.9760  142.6490 C   0  0  0  0  0  1  0  0  0  0  0  0
  184.6460  178.2760  142.0140 C   0  0  0  0  0  2  0  0  0  0  0  0
  185.2400  179.2910  141.1620 N   0  0  0  0  0  2  0  0  0  0  0  0
  185.1840  178.7820  139.8030 C   0  0  0  0  0  2  0  0  0  0  0  0
  181.9790  179.1970  137.7790 N   0  0  0  0  0  1  0  0  0  0  0  0
  184.0280  180.6820  138.9540 O   0  0  0  0  0  0  0  0  0  0  0  0
  183.0410  178.6200  138.4850 N   0  0  0  0  0  2  0  0  0  0  0  0
  184.0600  179.4280  139.0720 C   0  0  0  0  0  0  0  0  0  0  0  0
  1 13  1  0  0  0  0
  1  9  2  0  0  0  0
  3  8  2  0  0  0  0
  4 11  1  0  0  0  0
  5 13  1  0  0  0  0
  5 14  1  0  0  0  0
  6  3  1  0  0  0  0
  6 10  1  0  0  0  0
  7  4  1  0  0  0  0
  7  3  1  0  0  0  0
  8  2  1  0  0  0  0
  8 12  1  0  0  0  0
  9  4  1  0  0  0  0
 10 17  1  0  0  0  0
 10  2  2  0  0  0  0
 11 12  2  0  0  0  0
 13  7  2  0  0  0  0
 14  6  2  0  0  0  0
 15 17  2  0  0  0  0
 17 16  1  0  0  0  0
 18 14  1  0  0  0  0
 19 18  1  0  0  0  0
 20  1  1  0  0  0  0
 21 20  1  0  0  0  0
 22 21  1  0  0  0  0
 23 25  1  0  0  0  0
 24 26  2  0  0  0  0
 25 26  1  0  0  0  0
 26 22  1  0  0  0  0
M  END
>  <MODEL>
3

>  <REMARK>
 VINA RESULT:      -8.8      1.925      2.632
  Name = 
  6 active torsions:
  status: ('A' for Active; 'I' for Inactive)
    1  A    between atoms: N_3  and  C_25
    2  A    between atoms: C_5  and  C_10
    3  A    between atoms: C_9  and  C_16
    4  A    between atoms: C_9  and  N_26
    5  A    between atoms: C_10  and  N_26
    6  A    between atoms: C_18  and  C_21
                            x       y       z     vdW  Elec       q    Type
                         _______ _______ _______ _____ _____    ______ ____

>  <TORSDO>
F 6

$$$$
=
 OpenBabel10222416093D

 26 29  0  0  0  0  0  0  0  0999 V2000
  184.9200  178.5580  145.7010 C   0  0  0  0  0  0  0  0  0  0  0  0
  190.4240  177.2090  146.0590 C   0  0  0  0  0  3  0  0  0  0  0  0
  188.3200  177.7090  145.6050 C   0  0  0  0  0  0  0  0  0  0  0  0
  186.6340  178.3610  147.1210 N   0  0  0  0  0  0  0  0  0  0  0  0
  186.3910  177.7880  143.3590 S   0  0  0  0  0  0  0  0  0  0  0  0
  188.8530  177.3690  144.3850 C   0  0  0  0  0  0  0  0  0  0  0  0
  187.0320  178.0820  145.8790 C   0  0  0  0  0  0  0  0  0  0  0  0
  189.2230  177.6170  146.6120 C   0  0  0  0  0  0  0  0  0  0  0  0
  185.3140  178.6580  147.0520 C   0  0  0  0  0  3  0  0  0  0  0  0
  190.1980  177.0620  144.6720 C   0  0  0  0  0  0  0  0  0  0  0  0
  187.4950  178.2910  148.1850 C   0  0  0  0  0  3  0  0  0  0  0  0
  188.8500  177.9070  147.9440 C   0  0  0  0  0  3  0  0  0  0  0  0
  186.0400  178.1770  144.9780 C   0  0  0  0  0  0  0  0  0  0  0  0
  188.0640  177.3410  143.1990 C   0  0  0  0  0  0  0  0  0  0  0  0
  191.7450  175.5040  143.7410 O   0  0  0  0  0  1  0  0  0  0  0  0
  191.7480  177.5900  142.8150 O   0  0  0  0  0  0  0  0  0  0  0  0
  191.2750  176.6700  143.7450 C   0  0  0  0  0  0  0  0  0  0  0  0
  188.5970  176.9210  141.9420 N   0  0  0  0  0  2  0  0  0  0  0  0
  188.6910  177.8030  140.7890 C   0  0  0  0  0  1  0  0  0  0  0  0
  183.5410  178.7320  145.1700 C   0  0  0  0  0  2  0  0  0  0  0  0
  183.5750  179.5780  143.9900 N   0  0  0  0  0  2  0  0  0  0  0  0
  182.7230  178.9460  142.9980 C   0  0  0  0  0  2  0  0  0  0  0  0
  179.1470  178.5040  144.2450 N   0  0  0  0  0  1  0  0  0  0  0  0
  180.7990  180.3470  142.9560 O   0  0  0  0  0  0  0  0  0  0  0  0
  180.4950  178.2610  143.9570 N   0  0  0  0  0  2  0  0  0  0  0  0
  181.2970  179.2420  143.3020 C   0  0  0  0  0  0  0  0  0  0  0  0
  1  9  2  0  0  0  0
  2  8  1  0  0  0  0
  3  7  1  0  0  0  0
  3  8  2  0  0  0  0
  4 11  1  0  0  0  0
  5 13  1  0  0  0  0
  6 10  1  0  0  0  0
  6  3  1  0  0  0  0
  7  4  1  0  0  0  0
  8 12  1  0  0  0  0
  9  4  1  0  0  0  0
 10  2  2  0  0  0  0
 12 11  2  0  0  0  0
 13  1  1  0  0  0  0
 13  7  2  0  0  0  0
 14  5  1  0  0  0  0
 14  6  2  0  0  0  0
 15 17  1  0  0  0  0
 16 17  2  0  0  0  0
 17 10  1  0  0  0  0
 18 14  1  0  0  0  0
 19 18  1  0  0  0  0
 20  1  1  0  0  0  0
 21 20  1  0  0  0  0
 22 26  1  0  0  0  0
 22 21  1  0  0  0  0
 24 26  2  0  0  0  0
 25 23  1  0  0  0  0
 26 25  1  0  0  0  0
M  END
>  <MODEL>
4

>  <REMARK>
 VINA RESULT:      -8.7      1.528      2.100
  Name = 
  6 active torsions:
  status: ('A' for Active; 'I' for Inactive)
    1  A    between atoms: N_3  and  C_25
    2  A    between atoms: C_5  and  C_10
    3  A    between atoms: C_9  and  C_16
    4  A    between atoms: C_9  and  N_26
    5  A    between atoms: C_10  and  N_26
    6  A    between atoms: C_18  and  C_21
                            x       y       z     vdW  Elec       q    Type
                         _______ _______ _______ _____ _____    ______ ____

>  <TORSDO>
F 6

$$$$
=
 OpenBabel10222416093D

 26 29  0  0  0  0  0  0  0  0999 V2000
  190.3030  176.5980  142.1580 C   0  0  0  0  0  0  0  0  0  0  0  0
  188.1470  177.8530  147.2580 C   0  0  0  0  0  3  0  0  0  0  0  0
  188.6940  177.4220  145.1600 C   0  0  0  0  0  0  0  0  0  0  0  0
  190.7610  176.6340  144.3440 N   0  0  0  0  0  0  0  0  0  0  0  0
  187.6210  177.5910  142.4050 S   0  0  0  0  0  0  0  0  0  0  0  0
  187.4010  177.8810  145.0810 C   0  0  0  0  0  0  0  0  0  0  0  0
  189.5080  177.0350  144.1310 C   0  0  0  0  0  0  0  0  0  0  0  0
  189.1610  177.4020  146.4330 C   0  0  0  0  0  0  0  0  0  0  0  0
  191.2960  176.3570  143.1300 C   0  0  0  0  0  3  0  0  0  0  0  0
  187.0480  178.1440  146.4190 C   0  0  0  0  0  0  0  0  0  0  0  0
  191.2980  176.5860  145.6040 C   0  0  0  0  0  3  0  0  0  0  0  0
  190.4820  176.9810  146.7090 C   0  0  0  0  0  3  0  0  0  0  0  0
  189.1750  177.0420  142.8300 C   0  0  0  0  0  0  0  0  0  0  0  0
  186.7320  178.0370  143.8320 C   0  0  0  0  0  0  0  0  0  0  0  0
  184.7180  177.9220  146.8780 O   0  0  0  0  0  0  0  0  0  0  0  0
  185.7030  179.8400  147.6220 O   0  0  0  0  0  1  0  0  0  0  0  0
  185.7600  178.6190  146.9590 C   0  0  0  0  0  0  0  0  0  0  0  0
  185.4140  178.5790  143.7390 N   0  0  0  0  0  2  0  0  0  0  0  0
  184.5190  178.2950  142.6290 C   0  0  0  0  0  1  0  0  0  0  0  0
  190.4700  176.4920  140.6820 C   0  0  0  0  0  2  0  0  0  0  0  0
  190.3520  177.8090  140.0820 N   0  0  0  0  0  2  0  0  0  0  0  0
  190.0220  177.6020  138.6830 C   0  0  0  0  0  2  0  0  0  0  0  0
  186.3750  178.6540  138.3100 N   0  0  0  0  0  1  0  0  0  0  0  0
  188.9660  179.5090  137.7240 O   0  0  0  0  0  0  0  0  0  0  0  0
  187.5220  177.9240  138.6450 N   0  0  0  0  0  2  0  0  0  0  0  0
  188.8240  178.4110  138.3260 C   0  0  0  0  0  0  0  0  0  0  0  0
  1 13  1  0  0  0  0
  1  9  2  0  0  0  0
  3  8  2  0  0  0  0
  4 11  1  0  0  0  0
  5 13  1  0  0  0  0
  5 14  1  0  0  0  0
  6  3  1  0  0  0  0
  6 10  1  0  0  0  0
  7  4  1  0  0  0  0
  7  3  1  0  0  0  0
  8 12  1  0  0  0  0
  8  2  1  0  0  0  0
  9  4  1  0  0  0  0
 10 17  1  0  0  0  0
 10  2  2  0  0  0  0
 11 12  2  0  0  0  0
 13  7  2  0  0  0  0
 14  6  2  0  0  0  0
 15 17  2  0  0  0  0
 17 16  1  0  0  0  0
 18 14  1  0  0  0  0
 19 18  1  0  0  0  0
 20  1  1  0  0  0  0
 21 20  1  0  0  0  0
 22 21  1  0  0  0  0
 23 25  1  0  0  0  0
 24 26  2  0  0  0  0
 26 25  1  0  0  0  0
 26 22  1  0  0  0  0
M  END
>  <MODEL>
5

>  <REMARK>
 VINA RESULT:      -8.6      2.843      5.309
  Name = 
  6 active torsions:
  status: ('A' for Active; 'I' for Inactive)
    1  A    between atoms: N_3  and  C_25
    2  A    between atoms: C_5  and  C_10
    3  A    between atoms: C_9  and  C_16
    4  A    between atoms: C_9  and  N_26
    5  A    between atoms: C_10  and  N_26
    6  A    between atoms: C_18  and  C_21
                            x       y       z     vdW  Elec       q    Type
                         _______ _______ _______ _____ _____    ______ ____

>  <TORSDO>
F 6

$$$$
=
 OpenBabel10222416093D

 26 29  0  0  0  0  0  0  0  0999 V2000
  189.8120  177.5690  141.3480 C   0  0  0  0  0  0  0  0  0  0  0  0
  186.7800  177.9090  146.1360 C   0  0  0  0  0  3  0  0  0  0  0  0
  188.2140  177.7490  144.4620 C   0  0  0  0  0  0  0  0  0  0  0  0
  187.7640  177.9500  142.1550 N   0  0  0  0  0  0  0  0  0  0  0  0
  191.0600  177.1520  143.8990 S   0  0  0  0  0  0  0  0  0  0  0  0
  188.9800  177.5210  145.5800 C   0  0  0  0  0  0  0  0  0  0  0  0
  188.6210  177.7410  143.1560 C   0  0  0  0  0  0  0  0  0  0  0  0
  186.9110  177.9730  144.7610 C   0  0  0  0  0  0  0  0  0  0  0  0
  188.4720  177.8440  141.0040 C   0  0  0  0  0  3  0  0  0  0  0  0
  188.0680  177.6360  146.6490 C   0  0  0  0  0  0  0  0  0  0  0  0
  186.4340  178.1860  142.3840 C   0  0  0  0  0  3  0  0  0  0  0  0
  185.9660  178.2040  143.7340 C   0  0  0  0  0  3  0  0  0  0  0  0
  189.8720  177.4980  142.7310 C   0  0  0  0  0  0  0  0  0  0  0  0
  190.3670  177.2070  145.4930 C   0  0  0  0  0  0  0  0  0  0  0  0
  187.9430  176.5350  148.7610 O   0  0  0  0  0  1  0  0  0  0  0  0
  189.0490  178.5310  148.7380 O   0  0  0  0  0  0  0  0  0  0  0  0
  188.3230  177.5330  148.0970 C   0  0  0  0  0  0  0  0  0  0  0  0
  191.1500  176.9030  146.6480 N   0  0  0  0  0  2  0  0  0  0  0  0
  192.0650  175.7740  146.7080 C   0  0  0  0  0  1  0  0  0  0  0  0
  190.9290  177.3060  140.3990 C   0  0  0  0  0  2  0  0  0  0  0  0
  190.5320  176.2830  139.4490 N   0  0  0  0  0  2  0  0  0  0  0  0
  191.1000  176.6600  138.1670 C   0  0  0  0  0  2  0  0  0  0  0  0
  194.6910  175.6310  137.3990 N   0  0  0  0  0  1  0  0  0  0  0  0
  192.1410  174.5580  137.7590 O   0  0  0  0  0  0  0  0  0  0  0  0
  193.5620  176.4070  137.6920 N   0  0  0  0  0  2  0  0  0  0  0  0
  192.2820  175.8050  137.8720 C   0  0  0  0  0  0  0  0  0  0  0  0
  1 13  1  0  0  0  0
  2 10  2  0  0  0  0
  3  8  2  0  0  0  0
  3  6  1  0  0  0  0
  4 11  1  0  0  0  0
  4  7  1  0  0  0  0
  5 14  1  0  0  0  0
  6 10  1  0  0  0  0
  7  3  1  0  0  0  0
  8  2  1  0  0  0  0
  9  1  2  0  0  0  0
  9  4  1  0  0  0  0
 10 17  1  0  0  0  0
 11 12  2  0  0  0  0
 12  8  1  0  0  0  0
 13  7  2  0  0  0  0
 13  5  1  0  0  0  0
 14  6  2  0  0  0  0
 14 18  1  0  0  0  0
 17 16  2  0  0  0  0
 17 15  1  0  0  0  0
 18 19  1  0  0  0  0
 20  1  1  0  0  0  0
 21 20  1  0  0  0  0
 22 21  1  0  0  0  0
 23 25  1  0  0  0  0
 24 26  2  0  0  0  0
 25 26  1  0  0  0  0
 26 22  1  0  0  0  0
M  END
>  <MODEL>
6

>  <REMARK>
 VINA RESULT:      -8.4      3.525      6.480
  Name = 
  6 active torsions:
  status: ('A' for Active; 'I' for Inactive)
    1  A    between atoms: N_3  and  C_25
    2  A    between atoms: C_5  and  C_10
    3  A    between atoms: C_9  and  C_16
    4  A    between atoms: C_9  and  N_26
    5  A    between atoms: C_10  and  N_26
    6  A    between atoms: C_18  and  C_21
                            x       y       z     vdW  Elec       q    Type
                         _______ _______ _______ _____ _____    ______ ____

>  <TORSDO>
F 6

$$$$
=
 OpenBabel10222416093D

 26 29  0  0  0  0  0  0  0  0999 V2000
  190.0370  177.4860  141.2870 C   0  0  0  0  0  0  0  0  0  0  0  0
  187.0630  177.8810  146.1070 C   0  0  0  0  0  3  0  0  0  0  0  0
  188.4780  177.7210  144.4170 C   0  0  0  0  0  0  0  0  0  0  0  0
  187.9840  177.7970  142.1120 N   0  0  0  0  0  0  0  0  0  0  0  0
  191.3420  177.2450  143.8320 S   0  0  0  0  0  0  0  0  0  0  0  0
  189.2710  177.5810  145.5310 C   0  0  0  0  0  0  0  0  0  0  0  0
  188.8660  177.6760  143.1060 C   0  0  0  0  0  0  0  0  0  0  0  0
  187.1700  177.8910  144.7280 C   0  0  0  0  0  0  0  0  0  0  0  0
  188.6800  177.6770  140.9550 C   0  0  0  0  0  3  0  0  0  0  0  0
  188.3710  177.6960  146.6090 C   0  0  0  0  0  0  0  0  0  0  0  0
  186.6470  177.9750  142.3540 C   0  0  0  0  0  3  0  0  0  0  0  0
  186.1990  178.0290  143.7090 C   0  0  0  0  0  3  0  0  0  0  0  0
  190.1210  177.4790  142.6700 C   0  0  0  0  0  0  0  0  0  0  0  0
  190.6710  177.3350  145.4340 C   0  0  0  0  0  0  0  0  0  0  0  0
  189.4490  178.4870  148.5840 O   0  0  0  0  0  0  0  0  0  0  0  0
  187.9860  176.7590  148.8680 O   0  0  0  0  0  1  0  0  0  0  0  0
  188.6530  177.6700  148.0560 C   0  0  0  0  0  0  0  0  0  0  0  0
  191.4860  177.1210  146.5870 N   0  0  0  0  0  2  0  0  0  0  0  0
  191.8200  175.7960  147.0860 C   0  0  0  0  0  1  0  0  0  0  0  0
  191.1510  177.2390  140.3310 C   0  0  0  0  0  2  0  0  0  0  0  0
  190.7170  176.3100  139.3040 N   0  0  0  0  0  2  0  0  0  0  0  0
  191.0820  176.8990  138.0270 C   0  0  0  0  0  2  0  0  0  0  0  0
  188.0610  179.0290  137.0880 N   0  0  0  0  0  1  0  0  0  0  0  0
  189.3730  176.6680  136.3860 O   0  0  0  0  0  0  0  0  0  0  0  0
  189.2230  178.5740  137.7240 N   0  0  0  0  0  2  0  0  0  0  0  0
  189.8570  177.3620  137.3200 C   0  0  0  0  0  0  0  0  0  0  0  0
  1 13  1  0  0  0  0
  2 10  2  0  0  0  0
  3  8  2  0  0  0  0
  3  6  1  0  0  0  0
  4 11  1  0  0  0  0
  4  7  1  0  0  0  0
  5 14  1  0  0  0  0
  6 10  1  0  0  0  0
  7  3  1  0  0  0  0
  8  2  1  0  0  0  0
  9  1  2  0  0  0  0
  9  4  1  0  0  0  0
 10 17  1  0  0  0  0
 11 12  2  0  0  0  0
 12  8  1  0  0  0  0
 13  7  2  0  0  0  0
 13  5  1  0  0  0  0
 14  6  2  0  0  0  0
 14 18  1  0  0  0  0
 17 15  2  0  0  0  0
 17 16  1  0  0  0  0
 18 19  1  0  0  0  0
 20  1  1  0  0  0  0
 21 20  1  0  0  0  0
 22 21  1  0  0  0  0
 23 25  1  0  0  0  0
 24 26  2  0  0  0  0
 26 25  1  0  0  0  0
 26 22  1  0  0  0  0
M  END
>  <MODEL>
7

>  <REMARK>
 VINA RESULT:      -8.3      3.292      5.813
  Name = 
  6 active torsions:
  status: ('A' for Active; 'I' for Inactive)
    1  A    between atoms: N_3  and  C_25
    2  A    between atoms: C_5  and  C_10
    3  A    between atoms: C_9  and  C_16
    4  A    between atoms: C_9  and  N_26
    5  A    between atoms: C_10  and  N_26
    6  A    between atoms: C_18  and  C_21
                            x       y       z     vdW  Elec       q    Type
                         _______ _______ _______ _____ _____    ______ ____

>  <TORSDO>
F 6

$$$$
=
 OpenBabel10222416093D

 26 29  0  0  0  0  0  0  0  0999 V2000
  185.3500  178.2090  143.2920 C   0  0  0  0  0  0  0  0  0  0  0  0
  188.9740  177.5200  147.6080 C   0  0  0  0  0  3  0  0  0  0  0  0
  187.8060  177.7040  145.7400 C   0  0  0  0  0  0  0  0  0  0  0  0
  185.5900  178.4760  145.4970 N   0  0  0  0  0  0  0  0  0  0  0  0
  187.9720  177.1340  142.8390 S   0  0  0  0  0  0  0  0  0  0  0  0
  189.0090  177.1800  145.3320 C   0  0  0  0  0  0  0  0  0  0  0  0
  186.7150  177.9930  144.9670 C   0  0  0  0  0  0  0  0  0  0  0  0
  187.7560  177.9080  147.0800 C   0  0  0  0  0  0  0  0  0  0  0  0
  184.7070  178.6180  144.4780 C   0  0  0  0  0  3  0  0  0  0  0  0
  189.7580  177.0740  146.5210 C   0  0  0  0  0  0  0  0  0  0  0  0
  185.4710  178.7080  146.8420 C   0  0  0  0  0  3  0  0  0  0  0  0
  186.5870  178.4220  147.6870 C   0  0  0  0  0  3  0  0  0  0  0  0
  186.6290  177.8040  143.6400 C   0  0  0  0  0  0  0  0  0  0  0  0
  189.2570  176.8340  143.9720 C   0  0  0  0  0  0  0  0  0  0  0  0
  192.1140  177.2320  146.1880 O   0  0  0  0  0  0  0  0  0  0  0  0
  191.4040  175.5030  147.4960 O   0  0  0  0  0  1  0  0  0  0  0  0
  191.1470  176.6140  146.7000 C   0  0  0  0  0  0  0  0  0  0  0  0
  190.4800  176.2250  143.5550 N   0  0  0  0  0  2  0  0  0  0  0  0
  191.5170  176.9470  142.8340 C   0  0  0  0  0  1  0  0  0  0  0  0
  184.7350  178.1330  141.9380 C   0  0  0  0  0  2  0  0  0  0  0  0
  183.6170  179.0560  141.8570 N   0  0  0  0  0  2  0  0  0  0  0  0
  182.4970  178.3080  141.3130 C   0  0  0  0  0  2  0  0  0  0  0  0
  179.8320  180.6660  142.6840 N   0  0  0  0  0  1  0  0  0  0  0  0
  180.4420  179.1300  140.4360 O   0  0  0  0  0  0  0  0  0  0  0  0
  180.9940  179.8930  142.5710 N   0  0  0  0  0  2  0  0  0  0  0  0
  181.2590  179.1300  141.3950 C   0  0  0  0  0  0  0  0  0  0  0  0
  1 13  1  0  0  0  0
  1  9  2  0  0  0  0
  3  8  2  0  0  0  0
  4 11  1  0  0  0  0
  5 13  1  0  0  0  0
  5 14  1  0  0  0  0
  6  3  1  0  0  0  0
  6 10  1  0  0  0  0
  7  4  1  0  0  0  0
  7  3  1  0  0  0  0
  8  2  1  0  0  0  0
  8 12  1  0  0  0  0
  9  4  1  0  0  0  0
 10 17  1  0  0  0  0
 10  2  2  0  0  0  0
 11 12  2  0  0  0  0
 13  7  2  0  0  0  0
 14  6  2  0  0  0  0
 15 17  2  0  0  0  0
 17 16  1  0  0  0  0
 18 14  1  0  0  0  0
 19 18  1  0  0  0  0
 20  1  1  0  0  0  0
 21 20  1  0  0  0  0
 22 26  1  0  0  0  0
 22 21  1  0  0  0  0
 24 26  2  0  0  0  0
 25 23  1  0  0  0  0
 26 25  1  0  0  0  0
M  END
>  <MODEL>
8

>  <REMARK>
 VINA RESULT:      -8.3      1.921      2.731
  Name = 
  6 active torsions:
  status: ('A' for Active; 'I' for Inactive)
    1  A    between atoms: N_3  and  C_25
    2  A    between atoms: C_5  and  C_10
    3  A    between atoms: C_9  and  C_16
    4  A    between atoms: C_9  and  N_26
    5  A    between atoms: C_10  and  N_26
    6  A    between atoms: C_18  and  C_21
                            x       y       z     vdW  Elec       q    Type
                         _______ _______ _______ _____ _____    ______ ____

>  <TORSDO>
F 6

$$$$
=
 OpenBabel10222416093D

 26 29  0  0  0  0  0  0  0  0999 V2000
  187.8850  177.7460  145.8620 C   0  0  0  0  0  0  0  0  0  0  0  0
  183.5140  179.0300  142.4720 C   0  0  0  0  0  3  0  0  0  0  0  0
  185.3780  178.4770  143.5230 C   0  0  0  0  0  0  0  0  0  0  0  0
  185.7080  178.2500  145.8470 N   0  0  0  0  0  0  0  0  0  0  0  0
  188.2370  177.8910  143.0160 S   0  0  0  0  0  0  0  0  0  0  0  0
  185.7370  178.4980  142.1960 C   0  0  0  0  0  0  0  0  0  0  0  0
  186.1780  178.2090  144.6000 C   0  0  0  0  0  0  0  0  0  0  0  0
  184.0740  178.7950  143.7140 C   0  0  0  0  0  0  0  0  0  0  0  0
  186.7500  177.9710  146.6680 C   0  0  0  0  0  3  0  0  0  0  0  0
  184.5450  178.8390  141.5250 C   0  0  0  0  0  0  0  0  0  0  0  0
  184.4000  178.5600  146.1140 C   0  0  0  0  0  3  0  0  0  0  0  0
  183.5290  178.8460  145.0180 C   0  0  0  0  0  3  0  0  0  0  0  0
  187.4880  177.9170  144.5440 C   0  0  0  0  0  0  0  0  0  0  0  0
  187.0750  178.2520  141.7730 C   0  0  0  0  0  0  0  0  0  0  0  0
  184.5530  180.0420  139.4660 O   0  0  0  0  0  1  0  0  0  0  0  0
  183.8510  177.8740  139.3540 O   0  0  0  0  0  0  0  0  0  0  0  0
  184.3070  178.9710  140.0760 C   0  0  0  0  0  0  0  0  0  0  0  0
  187.4660  178.3410  140.4030 N   0  0  0  0  0  2  0  0  0  0  0  0
  188.8260  178.0920  139.9510 C   0  0  0  0  0  1  0  0  0  0  0  0
  189.2670  177.4750  146.3410 C   0  0  0  0  0  2  0  0  0  0  0  0
  189.9590  176.6290  145.3850 N   0  0  0  0  0  2  0  0  0  0  0  0
  191.3370  177.0850  145.3430 C   0  0  0  0  0  2  0  0  0  0  0  0
  191.9780  177.5040  141.6070 N   0  0  0  0  0  1  0  0  0  0  0  0
  191.7780  178.9780  143.9680 O   0  0  0  0  0  0  0  0  0  0  0  0
  191.7080  176.9290  142.8550 N   0  0  0  0  0  2  0  0  0  0  0  0
  191.6100  177.7310  144.0300 C   0  0  0  0  0  0  0  0  0  0  0  0
  1 20  1  0  0  0  0
  1  9  2  0  0  0  0
  2  8  1  0  0  0  0
  3  8  2  0  0  0  0
  3  7  1  0  0  0  0
  4 11  1  0  0  0  0
  4  9  1  0  0  0  0
  5 13  1  0  0  0  0
  6  3  1  0  0  0  0
  7  4  1  0  0  0  0
  8 12  1  0  0  0  0
 10  6  1  0  0  0  0
 10  2  2  0  0  0  0
 12 11  2  0  0  0  0
 13  7  2  0  0  0  0
 13  1  1  0  0  0  0
 14  6  2  0  0  0  0
 14  5  1  0  0  0  0
 15 17  1  0  0  0  0
 16 17  2  0  0  0  0
 17 10  1  0  0  0  0
 18 14  1  0  0  0  0
 19 18  1  0  0  0  0
 21 20  1  0  0  0  0
 22 21  1  0  0  0  0
 23 25  1  0  0  0  0
 24 26  2  0  0  0  0
 25 26  1  0  0  0  0
 26 22  1  0  0  0  0
M  END
>  <MODEL>
9

>  <REMARK>
 VINA RESULT:      -8.2      1.812      6.067
  Name = 
  6 active torsions:
  status: ('A' for Active; 'I' for Inactive)
    1  A    between atoms: N_3  and  C_25
    2  A    between atoms: C_5  and  C_10
    3  A    between atoms: C_9  and  C_16
    4  A    between atoms: C_9  and  N_26
    5  A    between atoms: C_10  and  N_26
    6  A    between atoms: C_18  and  C_21
                            x       y       z     vdW  Elec       q    Type
                         _______ _______ _______ _____ _____    ______ ____

>  <TORSDO>
F 6

$$$$
