=
 OpenBabel10222418273D

 28 30  0  0  0  0  0  0  0  0999 V2000
  189.2950  178.3080  138.2460 C   0  0  0  0  0  2  0  0  0  0  0  0
  188.5960  178.2310  139.5700 C   0  0  0  0  0  0  0  0  0  0  0  0
  190.6260  177.2640  140.6520 C   0  0  0  0  0  0  0  0  0  0  0  0
  189.6630  176.9800  137.7750 N   0  0  0  0  0  0  0  0  0  0  0  0
  191.1500  176.5300  139.6620 C   0  0  0  0  0  3  0  0  0  0  0  0
  190.5130  176.1910  138.3710 C   0  0  0  0  0  0  0  0  0  0  0  0
  189.2410  177.7900  140.6480 C   0  0  0  0  0  3  0  0  0  0  0  0
  190.8990  174.9590  137.7540 N   0  0  0  0  0  0  0  0  0  0  0  0
  192.0870  174.7480  137.2850 C   0  0  0  0  0  3  0  0  0  0  0  0
  192.4030  173.4860  136.6780 C   0  0  0  0  0  0  0  0  0  0  0  0
  192.6560  172.4690  136.1870 N   0  0  0  0  0  0  0  0  0  0  0  0
  191.4310  177.4010  141.9030 C   0  0  0  0  0  2  0  0  0  0  0  0
  190.5910  177.1560  143.1120 C   0  0  0  0  0  0  0  0  0  0  0  0
  188.8570  177.3530  145.6130 C   0  0  0  0  0  0  0  0  0  0  0  0
  186.5760  177.1980  145.0640 C   0  0  0  0  0  3  0  0  0  0  0  0
  187.9300  177.0520  144.5370 C   0  0  0  0  0  0  0  0  0  0  0  0
  186.6080  177.4960  146.3280 N   0  0  0  0  0  0  0  0  0  0  0  0
  190.8860  177.8040  144.2440 C   0  0  0  0  0  3  0  0  0  0  0  0
  190.1310  177.7420  145.5110 C   0  0  0  0  0  3  0  0  0  0  0  0
  189.5620  176.0690  143.0360 C   0  0  0  0  0  2  0  0  0  0  0  0
  187.9720  177.5680  146.7490 C   0  0  0  0  0  0  0  0  0  0  0  0
  188.4210  178.1730  148.2010 S   0  0  0  0  0  0  0  0  0  0  0  0
  188.2200  176.5190  143.3910 N   0  0  0  0  0  0  0  0  0  0  0  0
  187.2720  178.6630  139.7120 O   0  0  0  0  0  0  0  0  0  0  0  0
  186.6120  178.7360  140.9710 C   0  0  0  0  0  2  0  0  0  0  0  0
  185.1200  178.9610  140.7700 C   0  0  0  0  0  2  0  0  0  0  0  0
  184.4250  180.3720  139.1460 O   0  0  0  0  0  1  0  0  0  0  0  0
  184.8210  179.0910  139.3510 N   0  0  0  0  0  2  0  0  0  0  0  0
  1  2  1  0  0  0  0
  2 24  1  0  0  0  0
  2  7  2  0  0  0  0
  3 12  1  0  0  0  0
  4  1  1  0  0  0  0
  4  6  2  0  0  0  0
  5  3  2  0  0  0  0
  6  5  1  0  0  0  0
  7  3  1  0  0  0  0
  8  6  1  0  0  0  0
  9  8  2  0  0  0  0
 10  9  1  0  0  0  0
 11 10  3  0  0  0  0
 12 13  1  0  0  0  0
 13 18  2  0  0  0  0
 14 21  1  0  0  0  0
 15 17  2  0  0  0  0
 16 15  1  0  0  0  0
 16 14  1  0  0  0  0
 17 21  1  0  0  0  0
 18 19  1  0  0  0  0
 19 14  2  0  0  0  0
 20 13  1  0  0  0  0
 20 23  1  0  0  0  0
 21 22  2  0  0  0  0
 23 16  2  0  0  0  0
 24 25  1  0  0  0  0
 26 25  1  0  0  0  0
 27 28  1  0  0  0  0
 28 26  1  0  0  0  0
M  END
>  <MODEL>
1

>  <REMARK>
 VINA RESULT:      -8.0      0.000      0.000
  Name = 
  8 active torsions:
  status: ('A' for Active; 'I' for Inactive)
    1  A    between atoms: C_1  and  C_3
    2  A    between atoms: C_3  and  C_11
    3  A    between atoms: C_7  and  O_9
    4  A    between atoms: C_8  and  O_9
    5  A    between atoms: C_8  and  C_22
    6  A    between atoms: N_15  and  C_19
    7  A    between atoms: C_16  and  C_20
    8  A    between atoms: C_22  and  N_25
                            x       y       z     vdW  Elec       q    Type
                         _______ _______ _______ _____ _____    ______ ____

>  <TORSDO>
F 8

$$$$
=
 OpenBabel10222418273D

 28 30  0  0  0  0  0  0  0  0999 V2000
  190.2930  175.8900  142.9210 C   0  0  0  0  0  2  0  0  0  0  0  0
  190.4090  176.6550  144.2040 C   0  0  0  0  0  0  0  0  0  0  0  0
  188.0330  177.3990  144.0470 C   0  0  0  0  0  0  0  0  0  0  0  0
  190.0060  176.7840  141.8080 N   0  0  0  0  0  0  0  0  0  0  0  0
  187.8650  177.5250  142.7250 C   0  0  0  0  0  3  0  0  0  0  0  0
  188.9170  177.4900  141.6860 C   0  0  0  0  0  0  0  0  0  0  0  0
  189.3550  177.2950  144.7070 C   0  0  0  0  0  3  0  0  0  0  0  0
  188.6800  178.2380  140.4880 N   0  0  0  0  0  0  0  0  0  0  0  0
  189.3160  178.0180  139.3830 C   0  0  0  0  0  3  0  0  0  0  0  0
  189.0250  178.8090  138.2210 C   0  0  0  0  0  0  0  0  0  0  0  0
  188.7920  179.4460  137.2830 N   0  0  0  0  0  0  0  0  0  0  0  0
  186.8230  177.5530  144.9090 C   0  0  0  0  0  2  0  0  0  0  0  0
  185.6920  178.1550  144.1440 C   0  0  0  0  0  0  0  0  0  0  0  0
  183.2410  178.7210  142.4190 C   0  0  0  0  0  0  0  0  0  0  0  0
  181.3130  178.9330  143.7490 C   0  0  0  0  0  3  0  0  0  0  0  0
  182.7690  178.8300  143.7890 C   0  0  0  0  0  0  0  0  0  0  0  0
  180.8900  178.9490  142.5210 N   0  0  0  0  0  0  0  0  0  0  0  0
  185.4990  177.7790  142.8750 C   0  0  0  0  0  3  0  0  0  0  0  0
  184.3990  178.2110  141.9910 C   0  0  0  0  0  3  0  0  0  0  0  0
  184.9340  179.2750  144.7890 C   0  0  0  0  0  2  0  0  0  0  0  0
  182.0170  178.8650  141.6450 C   0  0  0  0  0  0  0  0  0  0  0  0
  181.8720  178.5930  140.0380 S   0  0  0  0  0  0  0  0  0  0  0  0
  183.4940  179.0420  144.8420 N   0  0  0  0  0  0  0  0  0  0  0  0
  191.6110  176.6750  144.9250 O   0  0  0  0  0  0  0  0  0  0  0  0
  191.6640  176.8540  146.3360 C   0  0  0  0  0  2  0  0  0  0  0  0
  192.1270  175.5700  147.0100 C   0  0  0  0  0  2  0  0  0  0  0  0
  192.5310  177.1010  148.6240 O   0  0  0  0  0  1  0  0  0  0  0  0
  192.9330  175.8830  148.1820 N   0  0  0  0  0  2  0  0  0  0  0  0
  1  2  1  0  0  0  0
  2  7  2  0  0  0  0
  2 24  1  0  0  0  0
  3  7  1  0  0  0  0
  3 12  1  0  0  0  0
  4  1  1  0  0  0  0
  5  3  2  0  0  0  0
  6  4  2  0  0  0  0
  6  5  1  0  0  0  0
  8  6  1  0  0  0  0
  9  8  2  0  0  0  0
 10  9  1  0  0  0  0
 11 10  3  0  0  0  0
 13 20  1  0  0  0  0
 13 12  1  0  0  0  0
 14 16  1  0  0  0  0
 15 16  1  0  0  0  0
 16 23  2  0  0  0  0
 17 15  2  0  0  0  0
 18 13  2  0  0  0  0
 19 14  2  0  0  0  0
 19 18  1  0  0  0  0
 20 23  1  0  0  0  0
 21 14  1  0  0  0  0
 21 17  1  0  0  0  0
 22 21  2  0  0  0  0
 24 25  1  0  0  0  0
 25 26  1  0  0  0  0
 26 28  1  0  0  0  0
 28 27  1  0  0  0  0
M  END
>  <MODEL>
2

>  <REMARK>
 VINA RESULT:      -7.9      4.150      6.947
  Name = 
  8 active torsions:
  status: ('A' for Active; 'I' for Inactive)
    1  A    between atoms: C_1  and  C_3
    2  A    between atoms: C_3  and  C_11
    3  A    between atoms: C_7  and  O_9
    4  A    between atoms: C_8  and  O_9
    5  A    between atoms: C_8  and  C_22
    6  A    between atoms: N_15  and  C_19
    7  A    between atoms: C_16  and  C_20
    8  A    between atoms: C_22  and  N_25
                            x       y       z     vdW  Elec       q    Type
                         _______ _______ _______ _____ _____    ______ ____

>  <TORSDO>
F 8

$$$$
=
 OpenBabel10222418273D

 28 30  0  0  0  0  0  0  0  0999 V2000
  184.0210  179.2100  139.5920 C   0  0  0  0  0  2  0  0  0  0  0  0
  183.2260  178.2910  140.4690 C   0  0  0  0  0  0  0  0  0  0  0  0
  184.5100  179.0050  142.4850 C   0  0  0  0  0  0  0  0  0  0  0  0
  185.4280  178.8320  139.5840 N   0  0  0  0  0  0  0  0  0  0  0  0
  185.7290  179.2280  141.9780 C   0  0  0  0  0  3  0  0  0  0  0  0
  186.2110  178.8680  140.6260 C   0  0  0  0  0  0  0  0  0  0  0  0
  183.4470  178.2520  141.7820 C   0  0  0  0  0  3  0  0  0  0  0  0
  187.6090  178.5980  140.4800 N   0  0  0  0  0  0  0  0  0  0  0  0
  188.2430  177.7450  141.2180 C   0  0  0  0  0  3  0  0  0  0  0  0
  189.6470  177.5260  141.0140 C   0  0  0  0  0  0  0  0  0  0  0  0
  190.7780  177.3500  140.8480 N   0  0  0  0  0  0  0  0  0  0  0  0
  184.2830  179.3850  143.9120 C   0  0  0  0  0  2  0  0  0  0  0  0
  185.2170  178.6550  144.8170 C   0  0  0  0  0  0  0  0  0  0  0  0
  187.5980  177.6080  146.4110 C   0  0  0  0  0  0  0  0  0  0  0  0
  187.6630  178.5790  148.5520 C   0  0  0  0  0  3  0  0  0  0  0  0
  186.8500  178.4270  147.3490 C   0  0  0  0  0  0  0  0  0  0  0  0
  188.7670  177.9030  148.4440 N   0  0  0  0  0  0  0  0  0  0  0  0
  186.3830  178.2210  144.3270 C   0  0  0  0  0  3  0  0  0  0  0  0
  187.4560  177.5460  145.0850 C   0  0  0  0  0  3  0  0  0  0  0  0
  184.7240  178.3000  146.1870 C   0  0  0  0  0  2  0  0  0  0  0  0
  188.7830  177.2460  147.1750 C   0  0  0  0  0  0  0  0  0  0  0  0
  190.1170  176.5190  146.5700 S   0  0  0  0  0  0  0  0  0  0  0  0
  185.6020  178.7670  147.2550 N   0  0  0  0  0  0  0  0  0  0  0  0
  182.2060  177.4920  139.9370 O   0  0  0  0  0  0  0  0  0  0  0  0
  180.8560  177.5600  140.3860 C   0  0  0  0  0  2  0  0  0  0  0  0
  180.2060  176.1860  140.3010 C   0  0  0  0  0  2  0  0  0  0  0  0
  179.2270  177.1590  142.0920 O   0  0  0  0  0  1  0  0  0  0  0  0
  179.1220  176.0860  141.2680 N   0  0  0  0  0  2  0  0  0  0  0  0
  1  2  1  0  0  0  0
  2  7  2  0  0  0  0
  3 12  1  0  0  0  0
  4  1  1  0  0  0  0
  4  6  2  0  0  0  0
  5  3  2  0  0  0  0
  6  5  1  0  0  0  0
  7  3  1  0  0  0  0
  8  6  1  0  0  0  0
  8  9  2  0  0  0  0
 10  9  1  0  0  0  0
 11 10  3  0  0  0  0
 12 13  1  0  0  0  0
 13 20  1  0  0  0  0
 14 21  1  0  0  0  0
 14 16  1  0  0  0  0
 16 15  1  0  0  0  0
 17 15  2  0  0  0  0
 18 13  2  0  0  0  0
 18 19  1  0  0  0  0
 19 14  2  0  0  0  0
 20 23  1  0  0  0  0
 21 17  1  0  0  0  0
 22 21  2  0  0  0  0
 23 16  2  0  0  0  0
 24 25  1  0  0  0  0
 24  2  1  0  0  0  0
 26 25  1  0  0  0  0
 26 28  1  0  0  0  0
 28 27  1  0  0  0  0
M  END
>  <MODEL>
3

>  <REMARK>
 VINA RESULT:      -7.5      3.149      5.402
  Name = 
  8 active torsions:
  status: ('A' for Active; 'I' for Inactive)
    1  A    between atoms: C_1  and  C_3
    2  A    between atoms: C_3  and  C_11
    3  A    between atoms: C_7  and  O_9
    4  A    between atoms: C_8  and  O_9
    5  A    between atoms: C_8  and  C_22
    6  A    between atoms: N_15  and  C_19
    7  A    between atoms: C_16  and  C_20
    8  A    between atoms: C_22  and  N_25
                            x       y       z     vdW  Elec       q    Type
                         _______ _______ _______ _____ _____    ______ ____

>  <TORSDO>
F 8

$$$$
=
 OpenBabel10222418273D

 28 30  0  0  0  0  0  0  0  0999 V2000
  187.6870  176.6410  143.1720 C   0  0  0  0  0  2  0  0  0  0  0  0
  187.6590  177.9020  142.3650 C   0  0  0  0  0  0  0  0  0  0  0  0
  189.9750  177.4930  141.5310 C   0  0  0  0  0  0  0  0  0  0  0  0
  188.7220  176.7010  144.1950 N   0  0  0  0  0  0  0  0  0  0  0  0
  190.5500  176.8950  142.5820 C   0  0  0  0  0  3  0  0  0  0  0  0
  190.0010  176.7780  143.9510 C   0  0  0  0  0  0  0  0  0  0  0  0
  188.6970  178.2390  141.6010 C   0  0  0  0  0  3  0  0  0  0  0  0
  190.9400  176.7030  145.0290 N   0  0  0  0  0  0  0  0  0  0  0  0
  190.5850  176.6800  146.2730 C   0  0  0  0  0  3  0  0  0  0  0  0
  191.5830  176.6040  147.3020 C   0  0  0  0  0  0  0  0  0  0  0  0
  192.3870  176.5410  148.1310 N   0  0  0  0  0  0  0  0  0  0  0  0
  190.7640  177.5580  140.2650 C   0  0  0  0  0  2  0  0  0  0  0  0
  189.8880  177.3540  139.0750 C   0  0  0  0  0  0  0  0  0  0  0  0
  187.8310  176.4170  137.0260 C   0  0  0  0  0  0  0  0  0  0  0  0
  185.8630  177.6950  137.1720 C   0  0  0  0  0  3  0  0  0  0  0  0
  187.2460  177.6010  137.6310 C   0  0  0  0  0  0  0  0  0  0  0  0
  185.5930  176.7390  136.3350 N   0  0  0  0  0  0  0  0  0  0  0  0
  189.7580  176.1210  138.5730 C   0  0  0  0  0  3  0  0  0  0  0  0
  188.8870  175.7180  137.4510 C   0  0  0  0  0  3  0  0  0  0  0  0
  189.3300  178.5720  138.4030 C   0  0  0  0  0  2  0  0  0  0  0  0
  186.7630  175.9360  136.1620 C   0  0  0  0  0  0  0  0  0  0  0  0
  186.7420  174.4930  135.3920 S   0  0  0  0  0  0  0  0  0  0  0  0
  187.8770  178.5400  138.2630 N   0  0  0  0  0  0  0  0  0  0  0  0
  186.5270  178.7280  142.3580 O   0  0  0  0  0  0  0  0  0  0  0  0
  185.2000  178.2220  142.4620 C   0  0  0  0  0  2  0  0  0  0  0  0
  184.3580  178.7140  141.2940 C   0  0  0  0  0  2  0  0  0  0  0  0
  184.3860  180.0560  139.4740 O   0  0  0  0  0  1  0  0  0  0  0  0
  185.2060  179.3650  140.3050 N   0  0  0  0  0  2  0  0  0  0  0  0
  1  4  1  0  0  0  0
  2  1  1  0  0  0  0
  3  7  1  0  0  0  0
  3  5  2  0  0  0  0
  5  6  1  0  0  0  0
  6  4  2  0  0  0  0
  6  8  1  0  0  0  0
  7  2  2  0  0  0  0
  8  9  2  0  0  0  0
  9 10  1  0  0  0  0
 10 11  3  0  0  0  0
 12  3  1  0  0  0  0
 13 12  1  0  0  0  0
 14 19  2  0  0  0  0
 14 16  1  0  0  0  0
 15 16  1  0  0  0  0
 16 23  2  0  0  0  0
 17 15  2  0  0  0  0
 18 13  2  0  0  0  0
 19 18  1  0  0  0  0
 20 13  1  0  0  0  0
 21 17  1  0  0  0  0
 21 14  1  0  0  0  0
 22 21  2  0  0  0  0
 23 20  1  0  0  0  0
 24  2  1  0  0  0  0
 24 25  1  0  0  0  0
 26 25  1  0  0  0  0
 27 28  1  0  0  0  0
 28 26  1  0  0  0  0
M  END
>  <MODEL>
4

>  <REMARK>
 VINA RESULT:      -7.4      3.562      6.903
  Name = 
  8 active torsions:
  status: ('A' for Active; 'I' for Inactive)
    1  A    between atoms: C_1  and  C_3
    2  A    between atoms: C_3  and  C_11
    3  A    between atoms: C_7  and  O_9
    4  A    between atoms: C_8  and  O_9
    5  A    between atoms: C_8  and  C_22
    6  A    between atoms: N_15  and  C_19
    7  A    between atoms: C_16  and  C_20
    8  A    between atoms: C_22  and  N_25
                            x       y       z     vdW  Elec       q    Type
                         _______ _______ _______ _____ _____    ______ ____

>  <TORSDO>
F 8

$$$$
=
 OpenBabel10222418273D

 28 30  0  0  0  0  0  0  0  0999 V2000
  190.1470  176.4160  138.2610 C   0  0  0  0  0  2  0  0  0  0  0  0
  191.3590  176.7900  139.0580 C   0  0  0  0  0  0  0  0  0  0  0  0
  190.0910  176.5830  141.1970 C   0  0  0  0  0  0  0  0  0  0  0  0
  189.0860  177.3970  138.4370 N   0  0  0  0  0  0  0  0  0  0  0  0
  188.8660  176.9890  140.8370 C   0  0  0  0  0  3  0  0  0  0  0  0
  188.4800  177.6400  139.5660 C   0  0  0  0  0  0  0  0  0  0  0  0
  191.3090  176.8180  140.3890 C   0  0  0  0  0  3  0  0  0  0  0  0
  187.3630  178.5340  139.6010 N   0  0  0  0  0  0  0  0  0  0  0  0
  186.2170  178.2510  139.0690 C   0  0  0  0  0  3  0  0  0  0  0  0
  185.1410  179.1980  139.1430 C   0  0  0  0  0  0  0  0  0  0  0  0
  184.2740  179.9620  139.2040 N   0  0  0  0  0  0  0  0  0  0  0  0
  190.2510  176.0260  142.5730 C   0  0  0  0  0  2  0  0  0  0  0  0
  189.4910  176.8330  143.5710 C   0  0  0  0  0  0  0  0  0  0  0  0
  187.6290  177.8730  145.7530 C   0  0  0  0  0  0  0  0  0  0  0  0
  188.7300  177.9390  147.8290 C   0  0  0  0  0  3  0  0  0  0  0  0
  188.9250  177.7420  146.3960 C   0  0  0  0  0  0  0  0  0  0  0  0
  187.4880  178.2210  148.0870 N   0  0  0  0  0  0  0  0  0  0  0  0
  188.1580  176.7240  143.6090 C   0  0  0  0  0  3  0  0  0  0  0  0
  187.2520  177.3870  144.5670 C   0  0  0  0  0  3  0  0  0  0  0  0
  190.2500  177.8500  144.3670 C   0  0  0  0  0  2  0  0  0  0  0  0
  186.7570  178.2400  146.8580 C   0  0  0  0  0  0  0  0  0  0  0  0
  185.1230  178.2970  146.8000 S   0  0  0  0  0  0  0  0  0  0  0  0
  190.0800  177.6990  145.8090 N   0  0  0  0  0  0  0  0  0  0  0  0
  192.5780  177.0710  138.4270 O   0  0  0  0  0  0  0  0  0  0  0  0
  193.0870  176.2940  137.3470 C   0  0  0  0  0  2  0  0  0  0  0  0
  194.0530  175.2410  137.8690 C   0  0  0  0  0  2  0  0  0  0  0  0
  195.2500  176.3240  136.2860 O   0  0  0  0  0  1  0  0  0  0  0  0
  195.2360  175.1840  137.0220 N   0  0  0  0  0  2  0  0  0  0  0  0
  1  4  1  0  0  0  0
  1  2  1  0  0  0  0
  2  7  2  0  0  0  0
  3 12  1  0  0  0  0
  4  6  2  0  0  0  0
  5  3  2  0  0  0  0
  6  8  1  0  0  0  0
  6  5  1  0  0  0  0
  7  3  1  0  0  0  0
  9 10  1  0  0  0  0
  9  8  2  0  0  0  0
 10 11  3  0  0  0  0
 12 13  1  0  0  0  0
 13 18  2  0  0  0  0
 13 20  1  0  0  0  0
 14 16  1  0  0  0  0
 14 21  1  0  0  0  0
 15 17  2  0  0  0  0
 16 15  1  0  0  0  0
 18 19  1  0  0  0  0
 19 14  2  0  0  0  0
 20 23  1  0  0  0  0
 21 17  1  0  0  0  0
 22 21  2  0  0  0  0
 23 16  2  0  0  0  0
 24  2  1  0  0  0  0
 25 26  1  0  0  0  0
 25 24  1  0  0  0  0
 27 28  1  0  0  0  0
 28 26  1  0  0  0  0
M  END
>  <MODEL>
5

>  <REMARK>
 VINA RESULT:      -7.3      2.654      5.626
  Name = 
  8 active torsions:
  status: ('A' for Active; 'I' for Inactive)
    1  A    between atoms: C_1  and  C_3
    2  A    between atoms: C_3  and  C_11
    3  A    between atoms: C_7  and  O_9
    4  A    between atoms: C_8  and  O_9
    5  A    between atoms: C_8  and  C_22
    6  A    between atoms: N_15  and  C_19
    7  A    between atoms: C_16  and  C_20
    8  A    between atoms: C_22  and  N_25
                            x       y       z     vdW  Elec       q    Type
                         _______ _______ _______ _____ _____    ______ ____

>  <TORSDO>
F 8

$$$$
=
 OpenBabel10222418273D

 28 30  0  0  0  0  0  0  0  0999 V2000
  184.2550  179.0790  139.7660 C   0  0  0  0  0  2  0  0  0  0  0  0
  183.5690  178.0600  140.6220 C   0  0  0  0  0  0  0  0  0  0  0  0
  185.0590  178.5880  142.5520 C   0  0  0  0  0  0  0  0  0  0  0  0
  185.6560  178.7320  139.5670 N   0  0  0  0  0  0  0  0  0  0  0  0
  186.2130  178.8860  141.9420 C   0  0  0  0  0  3  0  0  0  0  0  0
  186.5480  178.6770  140.5170 C   0  0  0  0  0  0  0  0  0  0  0  0
  183.9320  177.8900  141.8930 C   0  0  0  0  0  3  0  0  0  0  0  0
  187.9240  178.4500  140.1930 N   0  0  0  0  0  0  0  0  0  0  0  0
  188.6270  177.5030  140.7260 C   0  0  0  0  0  3  0  0  0  0  0  0
  190.0030  177.3370  140.3530 C   0  0  0  0  0  0  0  0  0  0  0  0
  191.1120  177.2010  140.0540 N   0  0  0  0  0  0  0  0  0  0  0  0
  184.9860  178.8150  144.0270 C   0  0  0  0  0  2  0  0  0  0  0  0
  186.1070  178.1280  144.7320 C   0  0  0  0  0  0  0  0  0  0  0  0
  188.7790  177.2430  145.9070 C   0  0  0  0  0  0  0  0  0  0  0  0
  189.0260  178.0290  148.1090 C   0  0  0  0  0  3  0  0  0  0  0  0
  188.0790  177.8840  147.0070 C   0  0  0  0  0  0  0  0  0  0  0  0
  190.1720  177.5030  147.7990 N   0  0  0  0  0  0  0  0  0  0  0  0
  187.2370  177.8800  144.0600 C   0  0  0  0  0  3  0  0  0  0  0  0
  188.4680  177.2770  144.6080 C   0  0  0  0  0  3  0  0  0  0  0  0
  185.8440  177.6010  146.1100 C   0  0  0  0  0  2  0  0  0  0  0  0
  190.0880  176.9620  146.4780 C   0  0  0  0  0  0  0  0  0  0  0  0
  191.4000  176.4550  145.6430 S   0  0  0  0  0  0  0  0  0  0  0  0
  186.8020  178.0780  147.1030 N   0  0  0  0  0  0  0  0  0  0  0  0
  182.5030  177.2990  140.1230 O   0  0  0  0  0  0  0  0  0  0  0  0
  182.6840  176.0410  139.4810 C   0  0  0  0  0  2  0  0  0  0  0  0
  182.5240  176.1930  137.9750 C   0  0  0  0  0  2  0  0  0  0  0  0
  184.6770  176.3060  137.2940 O   0  0  0  0  0  1  0  0  0  0  0  0
  183.5950  175.4880  137.2850 N   0  0  0  0  0  2  0  0  0  0  0  0
  1  2  1  0  0  0  0
  2  7  2  0  0  0  0
  3 12  1  0  0  0  0
  4  1  1  0  0  0  0
  4  6  2  0  0  0  0
  5  3  2  0  0  0  0
  6  5  1  0  0  0  0
  7  3  1  0  0  0  0
  8  6  1  0  0  0  0
  8  9  2  0  0  0  0
 10  9  1  0  0  0  0
 11 10  3  0  0  0  0
 12 13  1  0  0  0  0
 13 20  1  0  0  0  0
 14 21  1  0  0  0  0
 14 16  1  0  0  0  0
 16 23  2  0  0  0  0
 16 15  1  0  0  0  0
 17 15  2  0  0  0  0
 18 19  1  0  0  0  0
 18 13  2  0  0  0  0
 19 14  2  0  0  0  0
 20 23  1  0  0  0  0
 21 17  1  0  0  0  0
 22 21  2  0  0  0  0
 24  2  1  0  0  0  0
 25 24  1  0  0  0  0
 26 25  1  0  0  0  0
 28 27  1  0  0  0  0
 28 26  1  0  0  0  0
M  END
>  <MODEL>
6

>  <REMARK>
 VINA RESULT:      -7.3      2.823      4.786
  Name = 
  8 active torsions:
  status: ('A' for Active; 'I' for Inactive)
    1  A    between atoms: C_1  and  C_3
    2  A    between atoms: C_3  and  C_11
    3  A    between atoms: C_7  and  O_9
    4  A    between atoms: C_8  and  O_9
    5  A    between atoms: C_8  and  C_22
    6  A    between atoms: N_15  and  C_19
    7  A    between atoms: C_16  and  C_20
    8  A    between atoms: C_22  and  N_25
                            x       y       z     vdW  Elec       q    Type
                         _______ _______ _______ _____ _____    ______ ____

>  <TORSDO>
F 8

$$$$
=
 OpenBabel10222418273D

 28 30  0  0  0  0  0  0  0  0999 V2000
  187.7410  176.6100  143.3100 C   0  0  0  0  0  2  0  0  0  0  0  0
  187.6770  177.8640  142.4920 C   0  0  0  0  0  0  0  0  0  0  0  0
  189.9820  177.4830  141.6170 C   0  0  0  0  0  0  0  0  0  0  0  0
  188.7950  176.6960  144.3110 N   0  0  0  0  0  0  0  0  0  0  0  0
  190.5870  176.9040  142.6620 C   0  0  0  0  0  3  0  0  0  0  0  0
  190.0670  176.7900  144.0420 C   0  0  0  0  0  0  0  0  0  0  0  0
  188.6950  178.2090  141.7060 C   0  0  0  0  0  3  0  0  0  0  0  0
  191.0280  176.7390  145.1020 N   0  0  0  0  0  0  0  0  0  0  0  0
  190.7210  176.4150  146.3160 C   0  0  0  0  0  3  0  0  0  0  0  0
  191.7390  176.3860  147.3280 C   0  0  0  0  0  0  0  0  0  0  0  0
  192.5590  176.3640  148.1450 N   0  0  0  0  0  0  0  0  0  0  0  0
  190.7450  177.5490  140.3350 C   0  0  0  0  0  2  0  0  0  0  0  0
  189.8390  177.3860  139.1610 C   0  0  0  0  0  0  0  0  0  0  0  0
  187.7120  176.5380  137.1460 C   0  0  0  0  0  0  0  0  0  0  0  0
  185.7880  177.8740  137.3480 C   0  0  0  0  0  3  0  0  0  0  0  0
  187.1760  177.7320  137.7760 C   0  0  0  0  0  0  0  0  0  0  0  0
  185.4720  176.9370  136.5060 N   0  0  0  0  0  0  0  0  0  0  0  0
  189.6610  176.1640  138.6480 C   0  0  0  0  0  3  0  0  0  0  0  0
  188.7540  175.8020  137.5400 C   0  0  0  0  0  3  0  0  0  0  0  0
  189.3050  178.6290  138.5160 C   0  0  0  0  0  2  0  0  0  0  0  0
  186.6120  176.1010  136.2980 C   0  0  0  0  0  0  0  0  0  0  0  0
  186.5300  174.6680  135.5120 S   0  0  0  0  0  0  0  0  0  0  0  0
  187.8500  178.6430  138.4060 N   0  0  0  0  0  0  0  0  0  0  0  0
  186.5320  178.6710  142.5000 O   0  0  0  0  0  0  0  0  0  0  0  0
  185.2570  178.2020  142.9270 C   0  0  0  0  0  2  0  0  0  0  0  0
  184.4380  179.3530  143.4950 C   0  0  0  0  0  2  0  0  0  0  0  0
  183.6360  179.0050  145.5800 O   0  0  0  0  0  1  0  0  0  0  0  0
  184.7100  179.5040  144.9180 N   0  0  0  0  0  2  0  0  0  0  0  0
  1  4  1  0  0  0  0
  2 24  1  0  0  0  0
  2  1  1  0  0  0  0
  3  7  1  0  0  0  0
  3  5  2  0  0  0  0
  5  6  1  0  0  0  0
  6  4  2  0  0  0  0
  6  8  1  0  0  0  0
  7  2  2  0  0  0  0
  8  9  2  0  0  0  0
  9 10  1  0  0  0  0
 10 11  3  0  0  0  0
 12  3  1  0  0  0  0
 13 12  1  0  0  0  0
 14 19  2  0  0  0  0
 14 16  1  0  0  0  0
 15 16  1  0  0  0  0
 16 23  2  0  0  0  0
 17 15  2  0  0  0  0
 18 13  2  0  0  0  0
 19 18  1  0  0  0  0
 20 13  1  0  0  0  0
 21 17  1  0  0  0  0
 21 14  1  0  0  0  0
 22 21  2  0  0  0  0
 23 20  1  0  0  0  0
 24 25  1  0  0  0  0
 25 26  1  0  0  0  0
 26 28  1  0  0  0  0
 28 27  1  0  0  0  0
M  END
>  <MODEL>
7

>  <REMARK>
 VINA RESULT:      -7.0      3.744      7.071
  Name = 
  8 active torsions:
  status: ('A' for Active; 'I' for Inactive)
    1  A    between atoms: C_1  and  C_3
    2  A    between atoms: C_3  and  C_11
    3  A    between atoms: C_7  and  O_9
    4  A    between atoms: C_8  and  O_9
    5  A    between atoms: C_8  and  C_22
    6  A    between atoms: N_15  and  C_19
    7  A    between atoms: C_16  and  C_20
    8  A    between atoms: C_22  and  N_25
                            x       y       z     vdW  Elec       q    Type
                         _______ _______ _______ _____ _____    ______ ____

>  <TORSDO>
F 8

$$$$
=
 OpenBabel10222418273D

 28 30  0  0  0  0  0  0  0  0999 V2000
  187.0170  177.8630  138.2790 C   0  0  0  0  0  2  0  0  0  0  0  0
  188.4450  178.2930  138.1400 C   0  0  0  0  0  0  0  0  0  0  0  0
  188.9590  177.5490  140.4650 C   0  0  0  0  0  0  0  0  0  0  0  0
  186.3450  178.6230  139.3240 N   0  0  0  0  0  0  0  0  0  0  0  0
  187.8110  177.8070  141.1030 C   0  0  0  0  0  3  0  0  0  0  0  0
  186.6610  178.5830  140.5890 C   0  0  0  0  0  0  0  0  0  0  0  0
  189.3080  178.1000  139.1360 C   0  0  0  0  0  3  0  0  0  0  0  0
  185.8530  179.2720  141.5500 N   0  0  0  0  0  0  0  0  0  0  0  0
  185.3080  178.6810  142.5640 C   0  0  0  0  0  3  0  0  0  0  0  0
  184.5090  179.4370  143.4870 C   0  0  0  0  0  0  0  0  0  0  0  0
  183.8640  180.0450  144.2310 N   0  0  0  0  0  0  0  0  0  0  0  0
  190.0130  176.8120  141.2240 C   0  0  0  0  0  2  0  0  0  0  0  0
  190.0110  177.2030  142.6640 C   0  0  0  0  0  0  0  0  0  0  0  0
  189.7070  177.3790  145.6940 C   0  0  0  0  0  0  0  0  0  0  0  0
  191.6870  176.7160  146.7730 C   0  0  0  0  0  3  0  0  0  0  0  0
  191.1030  177.0430  145.4760 C   0  0  0  0  0  0  0  0  0  0  0  0
  190.8130  176.8730  147.7210 N   0  0  0  0  0  0  0  0  0  0  0  0
  188.8800  177.0720  143.3660 C   0  0  0  0  0  3  0  0  0  0  0  0
  188.7080  177.3410  144.8080 C   0  0  0  0  0  3  0  0  0  0  0  0
  191.2340  177.8800  143.2030 C   0  0  0  0  0  2  0  0  0  0  0  0
  189.5840  177.3190  147.1430 C   0  0  0  0  0  0  0  0  0  0  0  0
  188.1790  177.3730  147.9800 S   0  0  0  0  0  0  0  0  0  0  0  0
  191.7820  177.2240  144.3870 N   0  0  0  0  0  0  0  0  0  0  0  0
  188.9130  178.8600  136.9480 O   0  0  0  0  0  0  0  0  0  0  0  0
  188.8060  178.2090  135.6860 C   0  0  0  0  0  2  0  0  0  0  0  0
  189.7040  176.9810  135.6510 C   0  0  0  0  0  2  0  0  0  0  0  0
  187.6350  176.2030  135.1780 O   0  0  0  0  0  1  0  0  0  0  0  0
  188.9260  175.8030  135.2960 N   0  0  0  0  0  2  0  0  0  0  0  0
  1  4  1  0  0  0  0
  2  1  1  0  0  0  0
  2  7  2  0  0  0  0
  3  5  2  0  0  0  0
  3 12  1  0  0  0  0
  4  6  2  0  0  0  0
  6  5  1  0  0  0  0
  6  8  1  0  0  0  0
  7  3  1  0  0  0  0
  8  9  2  0  0  0  0
  9 10  1  0  0  0  0
 10 11  3  0  0  0  0
 12 13  1  0  0  0  0
 13 20  1  0  0  0  0
 13 18  2  0  0  0  0
 14 21  1  0  0  0  0
 15 17  2  0  0  0  0
 16 14  1  0  0  0  0
 16 15  1  0  0  0  0
 18 19  1  0  0  0  0
 19 14  2  0  0  0  0
 20 23  1  0  0  0  0
 21 17  1  0  0  0  0
 21 22  2  0  0  0  0
 23 16  2  0  0  0  0
 24  2  1  0  0  0  0
 25 24  1  0  0  0  0
 26 25  1  0  0  0  0
 27 28  1  0  0  0  0
 28 26  1  0  0  0  0
M  END
>  <MODEL>
8

>  <REMARK>
 VINA RESULT:      -6.9      2.544      5.473
  Name = 
  8 active torsions:
  status: ('A' for Active; 'I' for Inactive)
    1  A    between atoms: C_1  and  C_3
    2  A    between atoms: C_3  and  C_11
    3  A    between atoms: C_7  and  O_9
    4  A    between atoms: C_8  and  O_9
    5  A    between atoms: C_8  and  C_22
    6  A    between atoms: N_15  and  C_19
    7  A    between atoms: C_16  and  C_20
    8  A    between atoms: C_22  and  N_25
                            x       y       z     vdW  Elec       q    Type
                         _______ _______ _______ _____ _____    ______ ____

>  <TORSDO>
F 8

$$$$
=
 OpenBabel10222418273D

 28 30  0  0  0  0  0  0  0  0999 V2000
  185.9090  179.0170  145.6250 C   0  0  0  0  0  2  0  0  0  0  0  0
  186.6220  177.9630  144.8340 C   0  0  0  0  0  0  0  0  0  0  0  0
  185.4630  178.6650  142.7390 C   0  0  0  0  0  0  0  0  0  0  0  0
  184.4710  178.7880  145.6190 N   0  0  0  0  0  0  0  0  0  0  0  0
  184.2640  179.0470  143.1960 C   0  0  0  0  0  3  0  0  0  0  0  0
  183.7180  178.8330  144.5540 C   0  0  0  0  0  0  0  0  0  0  0  0
  186.4260  177.8560  143.5210 C   0  0  0  0  0  3  0  0  0  0  0  0
  182.2960  178.7190  144.6790 N   0  0  0  0  0  0  0  0  0  0  0  0
  181.4880  178.8670  143.6800 C   0  0  0  0  0  3  0  0  0  0  0  0
  180.0720  178.7390  143.8800 C   0  0  0  0  0  0  0  0  0  0  0  0
  178.9310  178.6370  144.0420 N   0  0  0  0  0  0  0  0  0  0  0  0
  185.7590  178.9190  141.2980 C   0  0  0  0  0  2  0  0  0  0  0  0
  184.5440  178.7170  140.4560 C   0  0  0  0  0  0  0  0  0  0  0  0
  181.7280  178.3250  139.3490 C   0  0  0  0  0  0  0  0  0  0  0  0
  180.8130  180.3730  138.6460 C   0  0  0  0  0  3  0  0  0  0  0  0
  182.0390  179.7220  139.0980 C   0  0  0  0  0  0  0  0  0  0  0  0
  179.8450  179.5120  138.5540 N   0  0  0  0  0  0  0  0  0  0  0  0
  183.6710  177.7650  140.8020 C   0  0  0  0  0  3  0  0  0  0  0  0
  182.3880  177.4690  140.1340 C   0  0  0  0  0  3  0  0  0  0  0  0
  184.4520  179.4830  139.1710 C   0  0  0  0  0  2  0  0  0  0  0  0
  180.3390  178.2240  138.9290 C   0  0  0  0  0  0  0  0  0  0  0  0
  179.3580  176.9410  139.1920 S   0  0  0  0  0  0  0  0  0  0  0  0
  183.2190  180.2550  139.0470 N   0  0  0  0  0  0  0  0  0  0  0  0
  187.5410  177.1020  145.4470 O   0  0  0  0  0  0  0  0  0  0  0  0
  188.7460  177.5590  146.0530 C   0  0  0  0  0  2  0  0  0  0  0  0
  188.9840  176.8270  147.3650 C   0  0  0  0  0  2  0  0  0  0  0  0
  189.4320  178.4820  148.8390 O   0  0  0  0  0  1  0  0  0  0  0  0
  188.4600  177.6080  148.4760 N   0  0  0  0  0  2  0  0  0  0  0  0
  2 24  1  0  0  0  0
  2  1  1  0  0  0  0
  3  5  2  0  0  0  0
  3  7  1  0  0  0  0
  4  1  1  0  0  0  0
  5  6  1  0  0  0  0
  6  8  1  0  0  0  0
  6  4  2  0  0  0  0
  7  2  2  0  0  0  0
  9 10  1  0  0  0  0
  9  8  2  0  0  0  0
 10 11  3  0  0  0  0
 12  3  1  0  0  0  0
 13 18  2  0  0  0  0
 13 12  1  0  0  0  0
 14 19  2  0  0  0  0
 15 16  1  0  0  0  0
 16 14  1  0  0  0  0
 17 15  2  0  0  0  0
 17 21  1  0  0  0  0
 19 18  1  0  0  0  0
 20 13  1  0  0  0  0
 21 22  2  0  0  0  0
 21 14  1  0  0  0  0
 23 16  2  0  0  0  0
 23 20  1  0  0  0  0
 24 25  1  0  0  0  0
 25 26  1  0  0  0  0
 26 28  1  0  0  0  0
 28 27  1  0  0  0  0
M  END
>  <MODEL>
9

>  <REMARK>
 VINA RESULT:      -6.8      5.912      9.562
  Name = 
  8 active torsions:
  status: ('A' for Active; 'I' for Inactive)
    1  A    between atoms: C_1  and  C_3
    2  A    between atoms: C_3  and  C_11
    3  A    between atoms: C_7  and  O_9
    4  A    between atoms: C_8  and  O_9
    5  A    between atoms: C_8  and  C_22
    6  A    between atoms: N_15  and  C_19
    7  A    between atoms: C_16  and  C_20
    8  A    between atoms: C_22  and  N_25
                            x       y       z     vdW  Elec       q    Type
                         _______ _______ _______ _____ _____    ______ ____

>  <TORSDO>
F 8

$$$$
