=
 OpenBabel10222417263D

 28 30  0  0  1  0  0  0  0  0999 V2000
  187.2120  177.6270  145.3840 C   0  0  0  0  0  3  0  0  0  0  0  0
  186.7210  177.5880  144.0740 C   0  0  0  0  0  0  0  0  0  0  0  0
  186.4710  178.2420  146.3950 C   0  0  0  0  0  3  0  0  0  0  0  0
  185.4760  178.1670  143.7700 C   0  0  0  0  0  0  0  0  0  0  0  0
  185.2360  178.8200  146.1010 C   0  0  0  0  0  3  0  0  0  0  0  0
  184.7410  178.7830  144.7950 C   0  0  0  0  0  3  0  0  0  0  0  0
  186.1890  179.9170  141.5030 O   0  0  0  0  0  0  0  0  0  0  0  0
  185.3470  178.9920  141.3410 C   0  0  0  0  0  0  0  0  0  0  0  0
  184.9850  178.1220  142.4210 N   0  0  0  0  0  2  0  0  0  0  0  0
  184.7380  178.7630  139.9970 C   0  0  1  0  0  3  0  0  0  0  0  0
  184.4920  180.0390  139.3440 N   0  0  0  0  0  1  0  0  0  0  0  0
  184.9400  177.4420  138.0080 O   0  0  0  0  0  1  0  0  0  0  0  0
  185.6430  177.8900  139.1290 C   0  0  1  0  0  3  0  0  0  0  0  0
  186.7570  178.6230  138.7090 O   0  0  0  0  0  0  0  0  0  0  0  0
  188.9720  178.3920  139.5780 C   0  0  0  0  0  2  0  0  0  0  0  0
  188.3170  177.3640  137.4020 C   0  0  0  0  0  2  0  0  0  0  0  0
  190.5640  177.1270  138.1350 C   0  0  0  0  0  2  0  0  0  0  0  0
  190.2000  177.4870  139.5740 C   0  0  0  0  0  2  0  0  0  0  0  0
  187.8320  177.7360  138.8030 C   0  0  2  0  0  3  0  0  0  0  0  0
  189.4460  176.4390  137.4920 N   0  0  0  0  0  2  0  0  0  0  0  0
  187.7090  176.7880  142.8040 S   0  0  0  0  0  0  0  0  0  0  0  0
  190.0050  176.4980  144.3240 C   0  0  0  0  0  3  0  0  0  0  0  0
  189.7150  178.6450  143.2400 C   0  0  0  0  0  3  0  0  0  0  0  0
  190.9220  179.0860  143.7910 C   0  0  0  0  0  3  0  0  0  0  0  0
  191.2120  176.9400  144.8750 C   0  0  0  0  0  0  0  0  0  0  0  0
  191.6700  178.2340  144.6090 C   0  0  0  0  0  3  0  0  0  0  0  0
  189.2540  177.3520  143.5100 C   0  0  0  0  0  0  0  0  0  0  0  0
  191.9550  176.0940  145.6860 O   0  0  0  0  0  1  0  0  0  0  0  0
  1  3  1  0  0  0  0
  2  1  2  0  0  0  0
  4  2  1  0  0  0  0
  4  6  2  0  0  0  0
  5  3  2  0  0  0  0
  6  5  1  0  0  0  0
  8  7  2  0  0  0  0
  8  9  1  0  0  0  0
  9  4  1  0  0  0  0
 10 11  1  6  0  0  0
 10  8  1  0  0  0  0
 13 12  1  6  0  0  0
 13 10  1  0  0  0  0
 14 13  1  0  0  0  0
 16 20  1  0  0  0  0
 16 19  1  0  0  0  0
 17 18  1  0  0  0  0
 18 15  1  0  0  0  0
 19 14  1  6  0  0  0
 19 15  1  0  0  0  0
 20 17  1  0  0  0  0
 21 27  1  0  0  0  0
 21  2  1  0  0  0  0
 22 25  1  0  0  0  0
 23 27  1  0  0  0  0
 23 24  2  0  0  0  0
 24 26  1  0  0  0  0
 25 28  1  0  0  0  0
 26 25  2  0  0  0  0
 27 22  2  0  0  0  0
M  END
>  <MODEL>
1

>  <REMARK>
 VINA RESULT:      -7.9      0.000      0.000
  Name = 
  7 active torsions:
  status: ('A' for Active; 'I' for Inactive)
    1  A    between atoms: O_1  and  C_15
    2  A    between atoms: O_1  and  C_25
    3  A    between atoms: C_9  and  S_18
    4  A    between atoms: C_11  and  C_23
    5  A    between atoms: C_11  and  C_25
    6  A    between atoms: C_16  and  N_24
    7  A    between atoms: S_18  and  C_22
                            x       y       z     vdW  Elec       q    Type
                         _______ _______ _______ _____ _____    ______ ____

>  <TORSDO>
F 7

$$$$
=
 OpenBabel10222417263D

 28 30  0  0  1  0  0  0  0  0999 V2000
  189.8220  177.0830  145.1530 C   0  0  0  0  0  3  0  0  0  0  0  0
  189.2530  177.1800  143.8790 C   0  0  0  0  0  0  0  0  0  0  0  0
  190.9470  177.8420  145.4820 C   0  0  0  0  0  3  0  0  0  0  0  0
  189.8110  178.0470  142.9220 C   0  0  0  0  0  0  0  0  0  0  0  0
  191.5070  178.7030  144.5380 C   0  0  0  0  0  3  0  0  0  0  0  0
  190.9420  178.8050  143.2640 C   0  0  0  0  0  3  0  0  0  0  0  0
  190.3420  176.3720  140.5520 O   0  0  0  0  0  0  0  0  0  0  0  0
  189.5020  177.3100  140.4810 C   0  0  0  0  0  0  0  0  0  0  0  0
  189.2180  178.1370  141.6170 N   0  0  0  0  0  2  0  0  0  0  0  0
  188.7540  177.5500  139.2110 C   0  0  1  0  0  3  0  0  0  0  0  0
  189.0010  178.9040  138.7430 N   0  0  0  0  0  1  0  0  0  0  0  0
  188.0310  176.1260  137.4250 O   0  0  0  0  0  1  0  0  0  0  0  0
  189.1580  176.5370  138.1400 C   0  0  1  0  0  3  0  0  0  0  0  0
  190.0760  177.1140  137.2570 O   0  0  0  0  0  0  0  0  0  0  0  0
  192.3340  176.4970  137.7430 C   0  0  0  0  0  2  0  0  0  0  0  0
  191.2960  175.9890  135.5320 C   0  0  0  0  0  2  0  0  0  0  0  0
  193.5680  175.3900  135.8810 C   0  0  0  0  0  2  0  0  0  0  0  0
  193.4300  175.4920  137.3980 C   0  0  0  0  0  2  0  0  0  0  0  0
  191.0350  176.1230  137.0330 C   0  0  2  0  0  3  0  0  0  0  0  0
  192.3020  174.9570  135.2900 N   0  0  0  0  0  2  0  0  0  0  0  0
  187.8080  176.1830  143.4990 S   0  0  0  0  0  0  0  0  0  0  0  0
  186.5420  177.7850  145.3690 C   0  0  0  0  0  3  0  0  0  0  0  0
  185.9020  178.1410  143.0590 C   0  0  0  0  0  3  0  0  0  0  0  0
  185.0090  179.1400  143.4610 C   0  0  0  0  0  3  0  0  0  0  0  0
  185.6490  178.7830  145.7690 C   0  0  0  0  0  0  0  0  0  0  0  0
  184.8820  179.4600  144.8160 C   0  0  0  0  0  3  0  0  0  0  0  0
  186.6660  177.4600  144.0140 C   0  0  0  0  0  0  0  0  0  0  0  0
  185.5240  179.1030  147.1140 O   0  0  0  0  0  1  0  0  0  0  0  0
  1  3  1  0  0  0  0
  2  1  2  0  0  0  0
  4  6  2  0  0  0  0
  4  2  1  0  0  0  0
  5  3  2  0  0  0  0
  6  5  1  0  0  0  0
  8  7  2  0  0  0  0
  8  9  1  0  0  0  0
  9  4  1  0  0  0  0
 10 11  1  6  0  0  0
 10  8  1  0  0  0  0
 13 12  1  6  0  0  0
 13 10  1  0  0  0  0
 14 13  1  0  0  0  0
 16 19  1  0  0  0  0
 17 18  1  0  0  0  0
 18 15  1  0  0  0  0
 19 14  1  6  0  0  0
 19 15  1  0  0  0  0
 20 16  1  0  0  0  0
 20 17  1  0  0  0  0
 21  2  1  0  0  0  0
 21 27  1  0  0  0  0
 22 25  1  0  0  0  0
 23 24  2  0  0  0  0
 23 27  1  0  0  0  0
 24 26  1  0  0  0  0
 25 28  1  0  0  0  0
 26 25  2  0  0  0  0
 27 22  2  0  0  0  0
M  END
>  <MODEL>
2

>  <REMARK>
 VINA RESULT:      -7.5      2.504      4.618
  Name = 
  7 active torsions:
  status: ('A' for Active; 'I' for Inactive)
    1  A    between atoms: O_1  and  C_15
    2  A    between atoms: O_1  and  C_25
    3  A    between atoms: C_9  and  S_18
    4  A    between atoms: C_11  and  C_23
    5  A    between atoms: C_11  and  C_25
    6  A    between atoms: C_16  and  N_24
    7  A    between atoms: S_18  and  C_22
                            x       y       z     vdW  Elec       q    Type
                         _______ _______ _______ _____ _____    ______ ____

>  <TORSDO>
F 7

$$$$
=
 OpenBabel10222417263D

 28 30  0  0  1  0  0  0  0  0999 V2000
  190.2560  176.7610  144.8770 C   0  0  0  0  0  3  0  0  0  0  0  0
  189.3730  177.1330  143.8560 C   0  0  0  0  0  0  0  0  0  0  0  0
  191.4460  177.4650  145.0690 C   0  0  0  0  0  3  0  0  0  0  0  0
  189.6800  178.2220  143.0210 C   0  0  0  0  0  0  0  0  0  0  0  0
  191.7580  178.5450  144.2430 C   0  0  0  0  0  3  0  0  0  0  0  0
  190.8800  178.9210  143.2230 C   0  0  0  0  0  3  0  0  0  0  0  0
  189.3800  177.0220  140.3410 O   0  0  0  0  0  0  0  0  0  0  0  0
  188.6490  177.9930  140.6800 C   0  0  0  0  0  0  0  0  0  0  0  0
  188.7660  178.5920  141.9760 N   0  0  0  0  0  2  0  0  0  0  0  0
  187.6110  178.5110  139.7380 C   0  0  1  0  0  3  0  0  0  0  0  0
  187.6290  177.7330  138.5100 N   0  0  0  0  0  1  0  0  0  0  0  0
  185.9520  179.6720  141.0180 O   0  0  0  0  0  1  0  0  0  0  0  0
  186.2230  178.4620  140.3750 C   0  0  1  0  0  3  0  0  0  0  0  0
  185.2530  178.2360  139.3950 O   0  0  0  0  0  0  0  0  0  0  0  0
  183.2500  177.7540  140.6070 C   0  0  0  0  0  2  0  0  0  0  0  0
  183.2750  179.4210  138.7520 C   0  0  0  0  0  2  0  0  0  0  0  0
  181.2130  178.9720  139.8430 C   0  0  0  0  0  2  0  0  0  0  0  0
  181.9130  178.3430  141.0460 C   0  0  0  0  0  2  0  0  0  0  0  0
  184.0860  178.8160  139.8980 C   0  0  2  0  0  3  0  0  0  0  0  0
  182.0490  180.0260  139.2710 N   0  0  0  0  0  2  0  0  0  0  0  0
  187.8540  176.1980  143.6440 S   0  0  0  0  0  0  0  0  0  0  0  0
  185.8470  178.0500  144.0960 C   0  0  0  0  0  3  0  0  0  0  0  0
  187.2040  177.4660  146.0160 C   0  0  0  0  0  3  0  0  0  0  0  0
  186.4600  178.3440  146.8090 C   0  0  0  0  0  3  0  0  0  0  0  0
  185.1030  178.9280  144.8900 C   0  0  0  0  0  0  0  0  0  0  0  0
  185.4090  179.0760  146.2460 C   0  0  0  0  0  3  0  0  0  0  0  0
  186.9010  177.3210  144.6580 C   0  0  0  0  0  0  0  0  0  0  0  0
  184.0590  179.6530  144.3320 O   0  0  0  0  0  1  0  0  0  0  0  0
  1  3  1  0  0  0  0
  2  1  2  0  0  0  0
  4  6  2  0  0  0  0
  4  2  1  0  0  0  0
  5  3  2  0  0  0  0
  6  5  1  0  0  0  0
  7  8  2  0  0  0  0
  8  9  1  0  0  0  0
  9  4  1  0  0  0  0
 10 11  1  6  0  0  0
 10 13  1  0  0  0  0
 10  8  1  0  0  0  0
 13 12  1  6  0  0  0
 14 13  1  0  0  0  0
 15 18  1  0  0  0  0
 16 20  1  0  0  0  0
 16 19  1  0  0  0  0
 17 18  1  0  0  0  0
 19 14  1  6  0  0  0
 19 15  1  0  0  0  0
 20 17  1  0  0  0  0
 21  2  1  0  0  0  0
 21 27  1  0  0  0  0
 22 27  2  0  0  0  0
 22 25  1  0  0  0  0
 23 24  2  0  0  0  0
 25 26  2  0  0  0  0
 26 24  1  0  0  0  0
 27 23  1  0  0  0  0
 28 25  1  0  0  0  0
M  END
>  <MODEL>
3

>  <REMARK>
 VINA RESULT:      -7.3      1.916      5.319
  Name = 
  7 active torsions:
  status: ('A' for Active; 'I' for Inactive)
    1  A    between atoms: O_1  and  C_15
    2  A    between atoms: O_1  and  C_25
    3  A    between atoms: C_9  and  S_18
    4  A    between atoms: C_11  and  C_23
    5  A    between atoms: C_11  and  C_25
    6  A    between atoms: C_16  and  N_24
    7  A    between atoms: S_18  and  C_22
                            x       y       z     vdW  Elec       q    Type
                         _______ _______ _______ _____ _____    ______ ____

>  <TORSDO>
F 7

$$$$
=
 OpenBabel10222417263D

 28 30  0  0  1  0  0  0  0  0999 V2000
  187.3620  177.4900  144.2940 C   0  0  0  0  0  3  0  0  0  0  0  0
  187.0230  177.8190  142.9760 C   0  0  0  0  0  0  0  0  0  0  0  0
  186.5080  177.8240  145.3460 C   0  0  0  0  0  3  0  0  0  0  0  0
  185.8150  178.4880  142.7060 C   0  0  0  0  0  0  0  0  0  0  0  0
  185.3080  178.4880  145.0850 C   0  0  0  0  0  3  0  0  0  0  0  0
  184.9650  178.8190  143.7720 C   0  0  0  0  0  3  0  0  0  0  0  0
  183.5040  177.5730  141.1150 O   0  0  0  0  0  0  0  0  0  0  0  0
  184.3500  178.3550  140.6010 C   0  0  0  0  0  0  0  0  0  0  0  0
  185.4790  178.8220  141.3500 N   0  0  0  0  0  2  0  0  0  0  0  0
  184.1640  178.8420  139.2010 C   0  0  1  0  0  3  0  0  0  0  0  0
  184.5110  180.2520  139.1210 N   0  0  0  0  0  1  0  0  0  0  0  0
  184.2290  177.6240  137.1400 O   0  0  0  0  0  1  0  0  0  0  0  0
  185.0120  178.0310  138.2230 C   0  0  1  0  0  3  0  0  0  0  0  0
  186.0760  178.8070  137.7540 O   0  0  0  0  0  0  0  0  0  0  0  0
  188.4090  178.4350  138.1190 C   0  0  0  0  0  2  0  0  0  0  0  0
  187.2910  177.7000  136.0140 C   0  0  0  0  0  2  0  0  0  0  0  0
  189.6280  177.3380  136.2410 C   0  0  0  0  0  2  0  0  0  0  0  0
  189.5740  177.5190  137.7560 C   0  0  0  0  0  2  0  0  0  0  0  0
  187.1110  177.8990  137.5190 C   0  0  2  0  0  3  0  0  0  0  0  0
  188.3770  176.7540  135.7600 N   0  0  0  0  0  2  0  0  0  0  0  0
  188.1540  177.3720  141.6540 S   0  0  0  0  0  0  0  0  0  0  0  0
  190.2620  176.1970  143.0100 C   0  0  0  0  0  3  0  0  0  0  0  0
  190.0190  178.5900  143.2960 C   0  0  0  0  0  3  0  0  0  0  0  0
  191.1340  178.6020  144.1400 C   0  0  0  0  0  3  0  0  0  0  0  0
  191.3770  176.2100  143.8540 C   0  0  0  0  0  0  0  0  0  0  0  0
  191.8130  177.4120  144.4190 C   0  0  0  0  0  3  0  0  0  0  0  0
  189.5800  177.3860  142.7340 C   0  0  0  0  0  0  0  0  0  0  0  0
  192.0520  175.0290  144.1300 O   0  0  0  0  0  1  0  0  0  0  0  0
  1  3  1  0  0  0  0
  2  1  2  0  0  0  0
  4  2  1  0  0  0  0
  4  6  2  0  0  0  0
  5  3  2  0  0  0  0
  6  5  1  0  0  0  0
  8  7  2  0  0  0  0
  8  9  1  0  0  0  0
  9  4  1  0  0  0  0
 10 11  1  1  0  0  0
 10  8  1  0  0  0  0
 13 12  1  6  0  0  0
 13 10  1  0  0  0  0
 14 13  1  0  0  0  0
 16 19  1  0  0  0  0
 17 18  1  0  0  0  0
 18 15  1  0  0  0  0
 19 14  1  6  0  0  0
 19 15  1  0  0  0  0
 20 16  1  0  0  0  0
 20 17  1  0  0  0  0
 21 27  1  0  0  0  0
 21  2  1  0  0  0  0
 22 25  1  0  0  0  0
 23 24  2  0  0  0  0
 24 26  1  0  0  0  0
 25 28  1  0  0  0  0
 25 26  2  0  0  0  0
 27 22  2  0  0  0  0
 27 23  1  0  0  0  0
M  END
>  <MODEL>
4

>  <REMARK>
 VINA RESULT:      -7.3      1.344      1.466
  Name = 
  7 active torsions:
  status: ('A' for Active; 'I' for Inactive)
    1  A    between atoms: O_1  and  C_15
    2  A    between atoms: O_1  and  C_25
    3  A    between atoms: C_9  and  S_18
    4  A    between atoms: C_11  and  C_23
    5  A    between atoms: C_11  and  C_25
    6  A    between atoms: C_16  and  N_24
    7  A    between atoms: S_18  and  C_22
                            x       y       z     vdW  Elec       q    Type
                         _______ _______ _______ _____ _____    ______ ____

>  <TORSDO>
F 7

$$$$
=
 OpenBabel10222417263D

 28 30  0  0  1  0  0  0  0  0999 V2000
  189.8960  177.3200  144.9470 C   0  0  0  0  0  3  0  0  0  0  0  0
  189.3500  177.0870  143.6800 C   0  0  0  0  0  0  0  0  0  0  0  0
  191.0510  178.0910  145.0860 C   0  0  0  0  0  3  0  0  0  0  0  0
  189.9630  177.6320  142.5370 C   0  0  0  0  0  0  0  0  0  0  0  0
  191.6660  178.6340  143.9560 C   0  0  0  0  0  3  0  0  0  0  0  0
  191.1250  178.4050  142.6890 C   0  0  0  0  0  3  0  0  0  0  0  0
  188.0380  179.2910  141.0360 O   0  0  0  0  0  0  0  0  0  0  0  0
  188.4540  178.2080  140.5400 C   0  0  0  0  0  0  0  0  0  0  0  0
  189.3940  177.3840  141.2420 N   0  0  0  0  0  2  0  0  0  0  0  0
  187.9990  177.7840  139.1820 C   0  0  1  0  0  3  0  0  0  0  0  0
  186.7150  178.3960  138.8810 N   0  0  0  0  0  1  0  0  0  0  0  0
  188.9990  179.5420  137.8980 O   0  0  0  0  0  1  0  0  0  0  0  0
  189.0290  178.1620  138.1190 C   0  0  1  0  0  3  0  0  0  0  0  0
  190.3100  177.7920  138.5390 O   0  0  0  0  0  0  0  0  0  0  0  0
  191.9880  176.1260  138.1870 C   0  0  0  0  0  2  0  0  0  0  0  0
  190.2740  176.6300  136.4470 C   0  0  0  0  0  2  0  0  0  0  0  0
  191.9340  175.0030  135.9630 C   0  0  0  0  0  2  0  0  0  0  0  0
  192.2900  174.8320  137.4380 C   0  0  0  0  0  2  0  0  0  0  0  0
  190.5390  176.5470  137.9500 C   0  0  2  0  0  3  0  0  0  0  0  0
  190.5170  175.3310  135.8220 N   0  0  0  0  0  2  0  0  0  0  0  0
  187.8630  176.0870  143.5490 S   0  0  0  0  0  0  0  0  0  0  0  0
  185.9840  178.1130  143.7180 C   0  0  0  0  0  3  0  0  0  0  0  0
  186.9470  177.3820  145.8170 C   0  0  0  0  0  3  0  0  0  0  0  0
  186.1640  178.3160  146.5020 C   0  0  0  0  0  3  0  0  0  0  0  0
  185.2010  179.0470  144.4030 C   0  0  0  0  0  0  0  0  0  0  0  0
  185.2920  179.1490  145.7950 C   0  0  0  0  0  3  0  0  0  0  0  0
  186.8610  177.2830  144.4240 C   0  0  0  0  0  0  0  0  0  0  0  0
  184.3330  179.8730  143.7010 O   0  0  0  0  0  1  0  0  0  0  0  0
  1  3  1  0  0  0  0
  2  1  2  0  0  0  0
  4  6  2  0  0  0  0
  4  2  1  0  0  0  0
  5  3  2  0  0  0  0
  6  5  1  0  0  0  0
  8  7  2  0  0  0  0
  8  9  1  0  0  0  0
  9  4  1  0  0  0  0
 10 11  1  6  0  0  0
 10  8  1  0  0  0  0
 13 12  1  1  0  0  0
 13 14  1  0  0  0  0
 13 10  1  0  0  0  0
 16 19  1  0  0  0  0
 17 18  1  0  0  0  0
 18 15  1  0  0  0  0
 19 15  1  0  0  0  0
 19 14  1  1  0  0  0
 20 17  1  0  0  0  0
 20 16  1  0  0  0  0
 21  2  1  0  0  0  0
 21 27  1  0  0  0  0
 22 25  2  0  0  0  0
 22 27  1  0  0  0  0
 23 24  1  0  0  0  0
 25 26  1  0  0  0  0
 26 24  2  0  0  0  0
 27 23  2  0  0  0  0
 28 25  1  0  0  0  0
M  END
>  <MODEL>
5

>  <REMARK>
 VINA RESULT:      -7.1      2.292      4.434
  Name = 
  7 active torsions:
  status: ('A' for Active; 'I' for Inactive)
    1  A    between atoms: O_1  and  C_15
    2  A    between atoms: O_1  and  C_25
    3  A    between atoms: C_9  and  S_18
    4  A    between atoms: C_11  and  C_23
    5  A    between atoms: C_11  and  C_25
    6  A    between atoms: C_16  and  N_24
    7  A    between atoms: S_18  and  C_22
                            x       y       z     vdW  Elec       q    Type
                         _______ _______ _______ _____ _____    ______ ____

>  <TORSDO>
F 7

$$$$
=
 OpenBabel10222417263D

 28 30  0  0  1  0  0  0  0  0999 V2000
  188.4110  178.1010  145.6040 C   0  0  0  0  0  3  0  0  0  0  0  0
  189.0160  178.0400  144.3440 C   0  0  0  0  0  0  0  0  0  0  0  0
  187.0870  177.6910  145.7700 C   0  0  0  0  0  3  0  0  0  0  0  0
  188.2930  177.5620  143.2370 C   0  0  0  0  0  0  0  0  0  0  0  0
  186.3620  177.2170  144.6750 C   0  0  0  0  0  3  0  0  0  0  0  0
  186.9620  177.1540  143.4150 C   0  0  0  0  0  3  0  0  0  0  0  0
  187.5600  179.0140  140.7740 O   0  0  0  0  0  0  0  0  0  0  0  0
  188.5410  178.2210  140.7670 C   0  0  0  0  0  0  0  0  0  0  0  0
  188.9250  177.5060  141.9480 N   0  0  0  0  0  2  0  0  0  0  0  0
  189.3490  178.0430  139.5230 C   0  0  1  0  0  3  0  0  0  0  0  0
  189.8810  176.6910  139.4710 N   0  0  0  0  0  1  0  0  0  0  0  0
  188.9520  179.5040  137.6670 O   0  0  0  0  0  1  0  0  0  0  0  0
  188.5090  178.3300  138.2800 C   0  0  1  0  0  3  0  0  0  0  0  0
  188.6160  177.2710  137.3740 O   0  0  0  0  0  0  0  0  0  0  0  0
  186.3120  177.7460  137.8020 C   0  0  0  0  0  2  0  0  0  0  0  0
  187.0200  175.6060  136.7340 C   0  0  0  0  0  2  0  0  0  0  0  0
  184.7100  175.9430  137.1730 C   0  0  0  0  0  2  0  0  0  0  0  0
  184.8930  177.4510  137.3270 C   0  0  0  0  0  2  0  0  0  0  0  0
  187.3270  177.0980  136.8630 C   0  0  2  0  0  3  0  0  0  0  0  0
  185.6700  175.4170  136.2040 N   0  0  0  0  0  2  0  0  0  0  0  0
  190.7220  178.5800  144.1770 S   0  0  0  0  0  0  0  0  0  0  0  0
  191.6370  176.9010  146.1800 C   0  0  0  0  0  3  0  0  0  0  0  0
  191.6220  175.9730  143.9420 C   0  0  0  0  0  3  0  0  0  0  0  0
  192.1340  174.7700  144.4370 C   0  0  0  0  0  3  0  0  0  0  0  0
  192.1490  175.6980  146.6740 C   0  0  0  0  0  0  0  0  0  0  0  0
  192.3980  174.6330  145.8040 C   0  0  0  0  0  3  0  0  0  0  0  0
  191.3770  177.0410  144.8120 C   0  0  0  0  0  0  0  0  0  0  0  0
  192.4100  175.5610  148.0310 O   0  0  0  0  0  1  0  0  0  0  0  0
  1  3  1  0  0  0  0
  2  1  2  0  0  0  0
  4  6  2  0  0  0  0
  4  2  1  0  0  0  0
  5  3  2  0  0  0  0
  6  5  1  0  0  0  0
  8  7  2  0  0  0  0
  8  9  1  0  0  0  0
  9  4  1  0  0  0  0
 10 11  1  6  0  0  0
 10  8  1  0  0  0  0
 13 12  1  6  0  0  0
 13 10  1  0  0  0  0
 14 13  1  0  0  0  0
 16 19  1  0  0  0  0
 17 18  1  0  0  0  0
 18 15  1  0  0  0  0
 19 14  1  1  0  0  0
 19 15  1  0  0  0  0
 20 16  1  0  0  0  0
 20 17  1  0  0  0  0
 21  2  1  0  0  0  0
 21 27  1  0  0  0  0
 22 25  1  0  0  0  0
 23 24  2  0  0  0  0
 23 27  1  0  0  0  0
 24 26  1  0  0  0  0
 25 28  1  0  0  0  0
 26 25  2  0  0  0  0
 27 22  2  0  0  0  0
M  END
>  <MODEL>
6

>  <REMARK>
 VINA RESULT:      -7.1      2.319      3.555
  Name = 
  7 active torsions:
  status: ('A' for Active; 'I' for Inactive)
    1  A    between atoms: O_1  and  C_15
    2  A    between atoms: O_1  and  C_25
    3  A    between atoms: C_9  and  S_18
    4  A    between atoms: C_11  and  C_23
    5  A    between atoms: C_11  and  C_25
    6  A    between atoms: C_16  and  N_24
    7  A    between atoms: S_18  and  C_22
                            x       y       z     vdW  Elec       q    Type
                         _______ _______ _______ _____ _____    ______ ____

>  <TORSDO>
F 7

$$$$
=
 OpenBabel10222417263D

 28 30  0  0  1  0  0  0  0  0999 V2000
  188.5290  178.1780  145.7540 C   0  0  0  0  0  3  0  0  0  0  0  0
  188.9470  177.9560  144.4370 C   0  0  0  0  0  0  0  0  0  0  0  0
  187.2310  177.8460  146.1460 C   0  0  0  0  0  3  0  0  0  0  0  0
  188.0600  177.3950  143.5010 C   0  0  0  0  0  0  0  0  0  0  0  0
  186.3450  177.2900  145.2230 C   0  0  0  0  0  3  0  0  0  0  0  0
  186.7570  177.0660  143.9070 C   0  0  0  0  0  3  0  0  0  0  0  0
  187.8720  179.2240  141.1920 O   0  0  0  0  0  0  0  0  0  0  0  0
  188.3890  178.0820  141.0480 C   0  0  0  0  0  0  0  0  0  0  0  0
  188.5010  177.1750  142.1520 N   0  0  0  0  0  2  0  0  0  0  0  0
  188.9360  177.6720  139.7200 C   0  0  1  0  0  3  0  0  0  0  0  0
  188.6260  178.6860  138.7260 N   0  0  0  0  0  1  0  0  0  0  0  0
  190.8990  177.7070  141.0920 O   0  0  0  0  0  1  0  0  0  0  0  0
  190.4450  177.4480  139.7960 C   0  0  1  0  0  3  0  0  0  0  0  0
  190.7520  176.1260  139.4590 O   0  0  0  0  0  0  0  0  0  0  0  0
  191.3920  174.8740  137.5250 C   0  0  0  0  0  2  0  0  0  0  0  0
  192.9160  176.5690  138.5380 C   0  0  0  0  0  2  0  0  0  0  0  0
  193.6830  175.3360  136.6580 C   0  0  0  0  0  2  0  0  0  0  0  0
  192.2660  174.9130  136.2760 C   0  0  0  0  0  2  0  0  0  0  0  0
  191.4560  176.2130  138.2560 C   0  0  2  0  0  3  0  0  0  0  0  0
  193.6610  176.6570  137.2830 N   0  0  0  0  0  2  0  0  0  0  0  0
  190.6250  178.4010  143.9760 S   0  0  0  0  0  0  0  0  0  0  0  0
  191.5870  176.9150  146.1050 C   0  0  0  0  0  3  0  0  0  0  0  0
  191.6100  175.8140  143.9470 C   0  0  0  0  0  3  0  0  0  0  0  0
  192.1580  174.6710  144.5360 C   0  0  0  0  0  3  0  0  0  0  0  0
  192.1350  175.7710  146.6930 C   0  0  0  0  0  0  0  0  0  0  0  0
  192.4220  174.6500  145.9090 C   0  0  0  0  0  3  0  0  0  0  0  0
  191.3270  176.9390  144.7310 C   0  0  0  0  0  0  0  0  0  0  0  0
  192.3960  175.7500  148.0570 O   0  0  0  0  0  1  0  0  0  0  0  0
  1  3  1  0  0  0  0
  2  1  2  0  0  0  0
  4  6  2  0  0  0  0
  4  2  1  0  0  0  0
  5  3  2  0  0  0  0
  6  5  1  0  0  0  0
  8  7  2  0  0  0  0
  8  9  1  0  0  0  0
  9  4  1  0  0  0  0
 10 11  1  6  0  0  0
 10 13  1  0  0  0  0
 10  8  1  0  0  0  0
 13 12  1  1  0  0  0
 14 13  1  0  0  0  0
 15 19  1  0  0  0  0
 17 20  1  0  0  0  0
 18 17  1  0  0  0  0
 18 15  1  0  0  0  0
 19 16  1  0  0  0  0
 19 14  1  1  0  0  0
 20 16  1  0  0  0  0
 21  2  1  0  0  0  0
 21 27  1  0  0  0  0
 22 25  1  0  0  0  0
 23 24  2  0  0  0  0
 23 27  1  0  0  0  0
 24 26  1  0  0  0  0
 25 28  1  0  0  0  0
 26 25  2  0  0  0  0
 27 22  2  0  0  0  0
M  END
>  <MODEL>
7

>  <REMARK>
 VINA RESULT:      -7.0      2.538      3.708
  Name = 
  7 active torsions:
  status: ('A' for Active; 'I' for Inactive)
    1  A    between atoms: O_1  and  C_15
    2  A    between atoms: O_1  and  C_25
    3  A    between atoms: C_9  and  S_18
    4  A    between atoms: C_11  and  C_23
    5  A    between atoms: C_11  and  C_25
    6  A    between atoms: C_16  and  N_24
    7  A    between atoms: S_18  and  C_22
                            x       y       z     vdW  Elec       q    Type
                         _______ _______ _______ _____ _____    ______ ____

>  <TORSDO>
F 7

$$$$
=
 OpenBabel10222417263D

 28 30  0  0  1  0  0  0  0  0999 V2000
  187.3700  177.7620  145.7920 C   0  0  0  0  0  3  0  0  0  0  0  0
  186.8220  177.5550  144.5210 C   0  0  0  0  0  0  0  0  0  0  0  0
  186.6700  178.4990  146.7490 C   0  0  0  0  0  3  0  0  0  0  0  0
  185.5600  178.0900  144.2020 C   0  0  0  0  0  0  0  0  0  0  0  0
  185.4190  179.0340  146.4390 C   0  0  0  0  0  3  0  0  0  0  0  0
  184.8670  178.8300  145.1710 C   0  0  0  0  0  3  0  0  0  0  0  0
  185.6640  179.8740  141.8530 O   0  0  0  0  0  0  0  0  0  0  0  0
  185.0720  178.7630  141.7720 C   0  0  0  0  0  0  0  0  0  0  0  0
  185.0100  177.8720  142.8930 N   0  0  0  0  0  2  0  0  0  0  0  0
  184.4540  178.3380  140.4800 C   0  0  1  0  0  3  0  0  0  0  0  0
  183.3850  177.3860  140.7350 N   0  0  0  0  0  1  0  0  0  0  0  0
  184.4740  179.5740  138.4270 O   0  0  0  0  0  1  0  0  0  0  0  0
  183.9180  179.5430  139.7090 C   0  0  1  0  0  3  0  0  0  0  0  0
  182.5260  179.4640  139.6030 O   0  0  0  0  0  0  0  0  0  0  0  0
  181.3560  181.2810  138.5800 C   0  0  0  0  0  2  0  0  0  0  0  0
  181.4670  179.0350  137.5010 C   0  0  0  0  0  2  0  0  0  0  0  0
  180.2200  180.7480  136.4260 C   0  0  0  0  0  2  0  0  0  0  0  0
  180.9070  181.8450  137.2350 C   0  0  0  0  0  2  0  0  0  0  0  0
  182.2230  180.0420  138.3680 C   0  0  2  0  0  3  0  0  0  0  0  0
  181.1410  179.6340  136.2070 N   0  0  0  0  0  2  0  0  0  0  0  0
  187.7580  176.6010  143.3200 S   0  0  0  0  0  0  0  0  0  0  0  0
  190.0730  176.7230  144.8330 C   0  0  0  0  0  3  0  0  0  0  0  0
  189.7900  178.4750  143.1830 C   0  0  0  0  0  3  0  0  0  0  0  0
  191.0100  179.0370  143.5710 C   0  0  0  0  0  3  0  0  0  0  0  0
  191.2930  177.2860  145.2200 C   0  0  0  0  0  0  0  0  0  0  0  0
  191.7620  178.4430  144.5900 C   0  0  0  0  0  3  0  0  0  0  0  0
  189.3190  177.3200  143.8170 C   0  0  0  0  0  0  0  0  0  0  0  0
  192.0400  176.6960  146.2310 O   0  0  0  0  0  1  0  0  0  0  0  0
  1  3  1  0  0  0  0
  2  1  2  0  0  0  0
  4  2  1  0  0  0  0
  4  6  2  0  0  0  0
  5  3  2  0  0  0  0
  6  5  1  0  0  0  0
  8  7  2  0  0  0  0
  8  9  1  0  0  0  0
  9  4  1  0  0  0  0
 10 11  1  1  0  0  0
 10  8  1  0  0  0  0
 13 12  1  6  0  0  0
 13 10  1  0  0  0  0
 14 13  1  0  0  0  0
 16 19  1  0  0  0  0
 17 18  1  0  0  0  0
 18 15  1  0  0  0  0
 19 15  1  0  0  0  0
 19 14  1  1  0  0  0
 20 17  1  0  0  0  0
 20 16  1  0  0  0  0
 21 27  1  0  0  0  0
 21  2  1  0  0  0  0
 22 25  1  0  0  0  0
 23 24  2  0  0  0  0
 23 27  1  0  0  0  0
 24 26  1  0  0  0  0
 25 28  1  0  0  0  0
 26 25  2  0  0  0  0
 27 22  2  0  0  0  0
M  END
>  <MODEL>
8

>  <REMARK>
 VINA RESULT:      -7.0      2.486      4.284
  Name = 
  7 active torsions:
  status: ('A' for Active; 'I' for Inactive)
    1  A    between atoms: O_1  and  C_15
    2  A    between atoms: O_1  and  C_25
    3  A    between atoms: C_9  and  S_18
    4  A    between atoms: C_11  and  C_23
    5  A    between atoms: C_11  and  C_25
    6  A    between atoms: C_16  and  N_24
    7  A    between atoms: S_18  and  C_22
                            x       y       z     vdW  Elec       q    Type
                         _______ _______ _______ _____ _____    ______ ____

>  <TORSDO>
F 7

$$$$
=
 OpenBabel10222417263D

 28 30  0  0  1  0  0  0  0  0999 V2000
  183.4230  178.9590  142.7580 C   0  0  0  0  0  3  0  0  0  0  0  0
  184.6670  178.7370  142.1560 C   0  0  0  0  0  0  0  0  0  0  0  0
  183.2800  178.8480  144.1420 C   0  0  0  0  0  3  0  0  0  0  0  0
  185.7820  178.4010  142.9460 C   0  0  0  0  0  0  0  0  0  0  0  0
  184.3810  178.5140  144.9320 C   0  0  0  0  0  3  0  0  0  0  0  0
  185.6250  178.2910  144.3370 C   0  0  0  0  0  3  0  0  0  0  0  0
  187.5730  176.0730  143.2300 O   0  0  0  0  0  0  0  0  0  0  0  0
  187.9040  177.0320  142.4800 C   0  0  0  0  0  0  0  0  0  0  0  0
  187.0520  178.1730  142.3170 N   0  0  0  0  0  2  0  0  0  0  0  0
  189.1840  176.9730  141.7120 C   0  0  1  0  0  3  0  0  0  0  0  0
  189.2420  178.0760  140.7660 N   0  0  0  0  0  1  0  0  0  0  0  0
  191.5170  177.4550  141.9570 O   0  0  0  0  0  1  0  0  0  0  0  0
  190.3870  177.0170  142.6520 C   0  0  1  0  0  3  0  0  0  0  0  0
  190.1340  177.8910  143.7140 O   0  0  0  0  0  0  0  0  0  0  0  0
  189.2960  177.5650  145.9290 C   0  0  0  0  0  2  0  0  0  0  0  0
  191.7190  177.2930  145.4040 C   0  0  0  0  0  2  0  0  0  0  0  0
  191.0090  177.0090  147.6520 C   0  0  0  0  0  2  0  0  0  0  0  0
  189.5520  176.8220  147.2370 C   0  0  0  0  0  2  0  0  0  0  0  0
  190.2990  177.1200  144.8660 C   0  0  2  0  0  3  0  0  0  0  0  0
  191.8980  176.4910  146.6140 N   0  0  0  0  0  2  0  0  0  0  0  0
  184.8040  178.8880  140.3720 S   0  0  0  0  0  0  0  0  0  0  0  0
  182.8240  176.9780  140.0690 C   0  0  0  0  0  3  0  0  0  0  0  0
  182.1040  179.2860  139.9130 C   0  0  0  0  0  3  0  0  0  0  0  0
  180.7900  178.8620  139.6970 C   0  0  0  0  0  3  0  0  0  0  0  0
  181.5090  176.5540  139.8530 C   0  0  0  0  0  0  0  0  0  0  0  0
  180.4920  177.4960  139.6660 C   0  0  0  0  0  3  0  0  0  0  0  0
  183.1230  178.3440  140.0950 C   0  0  0  0  0  0  0  0  0  0  0  0
  181.2130  175.1980  139.8240 O   0  0  0  0  0  1  0  0  0  0  0  0
  1  3  1  0  0  0  0
  2  1  2  0  0  0  0
  2  4  1  0  0  0  0
  3  5  2  0  0  0  0
  4  6  2  0  0  0  0
  6  5  1  0  0  0  0
  8  7  2  0  0  0  0
  9  8  1  0  0  0  0
  9  4  1  0  0  0  0
 10 11  1  6  0  0  0
 10  8  1  0  0  0  0
 10 13  1  0  0  0  0
 13 12  1  6  0  0  0
 13 14  1  0  0  0  0
 15 18  1  0  0  0  0
 16 20  1  0  0  0  0
 18 17  1  0  0  0  0
 19 14  1  6  0  0  0
 19 16  1  0  0  0  0
 19 15  1  0  0  0  0
 20 17  1  0  0  0  0
 21  2  1  0  0  0  0
 22 27  1  0  0  0  0
 23 27  2  0  0  0  0
 24 23  1  0  0  0  0
 25 22  2  0  0  0  0
 26 24  2  0  0  0  0
 26 25  1  0  0  0  0
 27 21  1  0  0  0  0
 28 25  1  0  0  0  0
M  END
>  <MODEL>
9

>  <REMARK>
 VINA RESULT:      -7.0      3.171      7.124
  Name = 
  7 active torsions:
  status: ('A' for Active; 'I' for Inactive)
    1  A    between atoms: O_1  and  C_15
    2  A    between atoms: O_1  and  C_25
    3  A    between atoms: C_9  and  S_18
    4  A    between atoms: C_11  and  C_23
    5  A    between atoms: C_11  and  C_25
    6  A    between atoms: C_16  and  N_24
    7  A    between atoms: S_18  and  C_22
                            x       y       z     vdW  Elec       q    Type
                         _______ _______ _______ _____ _____    ______ ____

>  <TORSDO>
F 7

$$$$
