=
 OpenBabel10222421103D

 29 31  0  0  1  0  0  0  0  0999 V2000
  188.8650  178.6970  137.2590 S   0  0  0  0  0  0  0  0  0  0  0  0
  189.9210  176.1890  136.8860 C   0  0  0  0  0  2  0  0  0  0  0  0
  190.2900  176.0080  138.3530 C   0  0  2  0  0  3  0  0  0  0  0  0
  190.5370  177.3690  139.0240 C   0  0  1  0  0  3  0  0  0  0  0  0
  188.6220  176.9650  136.7450 C   0  0  0  0  0  2  0  0  0  0  0  0
  189.3040  178.2860  138.9820 C   0  0  2  0  0  3  0  0  0  0  0  0
  191.4380  175.2180  138.4300 O   0  0  0  0  0  1  0  0  0  0  0  0
  191.0950  177.2480  140.4110 C   0  0  0  0  0  0  0  0  0  0  0  0
  192.2460  177.6990  140.6520 O   0  0  0  0  0  0  0  0  0  0  0  0
  190.3150  176.6620  141.4580 N   0  0  0  0  0  2  0  0  0  0  0  0
  190.8160  176.4910  142.8150 C   0  0  0  0  0  2  0  0  0  0  0  0
  190.7410  177.8040  143.5830 C   0  0  0  0  0  2  0  0  0  0  0  0
  191.6020  177.7710  144.8400 C   0  0  0  0  0  2  0  0  0  0  0  0
  191.6040  176.3900  145.4740 C   0  0  0  0  0  2  0  0  0  0  0  0
  192.3510  175.7050  147.7310 C   0  0  0  0  0  1  0  0  0  0  0  0
  191.3090  176.4830  146.9590 C   0  0  0  0  0  2  0  0  0  0  0  0
  188.0870  177.7230  139.7180 C   0  0  0  0  0  2  0  0  0  0  0  0
  187.3670  178.7880  140.4080 N   0  0  0  0  0  2  0  0  0  0  0  0
  186.7140  178.6260  141.6730 C   0  0  0  0  0  0  0  0  0  0  0  0
  187.3490  177.9930  142.6890 C   0  0  0  0  0  3  0  0  0  0  0  0
  184.7740  178.3570  145.4290 N   0  0  0  0  0  0  0  0  0  0  0  0
  185.3080  179.2000  141.8280 C   0  0  0  0  0  0  0  0  0  0  0  0
  186.7390  177.8240  144.0270 C   0  0  0  0  0  0  0  0  0  0  0  0
  185.5330  178.3390  144.2360 C   0  0  0  0  0  0  0  0  0  0  0  0
  184.8050  179.0320  143.2310 C   0  0  0  0  0  0  0  0  0  0  0  0
  184.3610  178.5100  140.8610 C   0  0  0  0  0  1  0  0  0  0  0  0
  187.4450  177.1550  145.0660 N   0  0  0  0  0  1  0  0  0  0  0  0
  183.6930  179.4590  143.7200 N   0  0  0  0  0  0  0  0  0  0  0  0
  183.7050  179.0200  145.0920 C   0  0  0  0  0  2  0  0  0  0  0  0
  1  6  1  0  0  0  0
  2  3  1  0  0  0  0
  3  7  1  6  0  0  0
  3  4  1  0  0  0  0
  4  8  1  1  0  0  0
  5  2  1  0  0  0  0
  5  1  1  0  0  0  0
  6  4  1  0  0  0  0
  6 17  1  6  0  0  0
  8  9  2  0  0  0  0
  8 10  1  0  0  0  0
 10 11  1  0  0  0  0
 11 12  1  0  0  0  0
 12 13  1  0  0  0  0
 13 14  1  0  0  0  0
 14 16  1  0  0  0  0
 16 15  1  0  0  0  0
 17 18  1  0  0  0  0
 18 19  1  0  0  0  0
 19 22  2  0  0  0  0
 19 20  1  0  0  0  0
 20 23  2  0  0  0  0
 22 25  1  0  0  0  0
 23 24  1  0  0  0  0
 23 27  1  0  0  0  0
 24 21  2  0  0  0  0
 25 28  2  0  0  0  0
 25 24  1  0  0  0  0
 26 22  1  0  0  0  0
 28 29  1  0  0  0  0
 29 21  1  0  0  0  0
M  END
>  <MODEL>
1

>  <REMARK>
 VINA RESULT:      -7.8      0.000      0.000
  Name = 
  9 active torsions:
  status: ('A' for Active; 'I' for Inactive)
    1  A    between atoms: C_1  and  C_24
    2  A    between atoms: C_2  and  N_5
    3  A    between atoms: C_3  and  C_17
    4  A    between atoms: C_3  and  C_19
    5  A    between atoms: N_5  and  C_6
    6  A    between atoms: C_6  and  C_26
    7  A    between atoms: N_16  and  C_19
    8  A    between atoms: C_17  and  C_23
    9  A    between atoms: C_23  and  C_29
                            x       y       z     vdW  Elec       q    Type
                         _______ _______ _______ _____ _____    ______ ____

>  <TORSDO>
F 9

$$$$
=
 OpenBabel10222421103D

 29 31  0  0  1  0  0  0  0  0999 V2000
  191.1230  178.7330  144.1260 S   0  0  0  0  0  0  0  0  0  0  0  0
  190.9590  177.0790  146.3120 C   0  0  0  0  0  2  0  0  0  0  0  0
  189.4790  176.7800  146.1110 C   0  0  2  0  0  3  0  0  0  0  0  0
  188.7840  177.9400  145.3800 C   0  0  1  0  0  3  0  0  0  0  0  0
  191.6720  177.2180  144.9770 C   0  0  0  0  0  2  0  0  0  0  0  0
  189.3800  178.2100  143.9890 C   0  0  2  0  0  3  0  0  0  0  0  0
  188.8910  176.5760  147.3600 O   0  0  0  0  0  1  0  0  0  0  0  0
  187.2920  177.7920  145.3280 C   0  0  0  0  0  0  0  0  0  0  0  0
  186.7880  176.8910  144.6070 O   0  0  0  0  0  0  0  0  0  0  0  0
  186.4520  178.6410  146.1170 N   0  0  0  0  0  2  0  0  0  0  0  0
  184.9980  178.5640  146.0830 C   0  0  0  0  0  2  0  0  0  0  0  0
  184.4420  179.4270  144.9580 C   0  0  0  0  0  2  0  0  0  0  0  0
  183.4230  178.6680  144.1170 C   0  0  0  0  0  2  0  0  0  0  0  0
  183.7950  178.6880  142.6430 C   0  0  0  0  0  2  0  0  0  0  0  0
  185.6710  178.9390  141.0490 C   0  0  0  0  0  1  0  0  0  0  0  0
  185.1960  179.2390  142.4540 C   0  0  0  0  0  2  0  0  0  0  0  0
  189.2560  177.0320  143.0210 C   0  0  0  0  0  2  0  0  0  0  0  0
  189.0010  177.5070  141.6650 N   0  0  0  0  0  2  0  0  0  0  0  0
  189.8710  177.2640  140.5530 C   0  0  0  0  0  0  0  0  0  0  0  0
  191.2150  177.3460  140.7120 C   0  0  0  0  0  3  0  0  0  0  0  0
  192.3660  176.3530  137.2530 N   0  0  0  0  0  0  0  0  0  0  0  0
  189.2330  176.9030  139.2150 C   0  0  0  0  0  0  0  0  0  0  0  0
  192.1640  177.0740  139.6090 C   0  0  0  0  0  0  0  0  0  0  0  0
  191.6700  176.7140  138.4300 C   0  0  2  0  0  3  0  0  0  0  0  0
  190.2760  176.5890  138.1830 C   0  0  0  0  0  0  0  0  0  0  0  0
  188.3670  178.0530  138.7300 C   0  0  0  0  0  1  0  0  0  0  0  0
  193.5680  177.1680  139.8220 N   0  0  0  0  0  1  0  0  0  0  0  0
  190.0850  176.1850  136.9750 N   0  0  0  0  0  0  0  0  0  0  0  0
  191.4090  176.0490  136.4230 C   0  0  0  0  0  3  0  0  0  0  0  0
  1  5  1  0  0  0  0
  3  2  1  0  0  0  0
  3  7  1  1  0  0  0
  4  8  1  6  0  0  0
  4  3  1  0  0  0  0
  5  2  1  0  0  0  0
  6 17  1  6  0  0  0
  6  1  1  0  0  0  0
  6  4  1  0  0  0  0
  8 10  1  0  0  0  0
  9  8  2  0  0  0  0
 11 10  1  0  0  0  0
 12 11  1  0  0  0  0
 13 12  1  0  0  0  0
 14 13  1  0  0  0  0
 15 16  1  0  0  0  0
 16 14  1  0  0  0  0
 18 17  1  0  0  0  0
 19 20  1  0  0  0  0
 19 18  1  0  0  0  0
 22 19  2  0  0  0  0
 23 27  1  0  0  0  0
 23 20  2  0  0  0  0
 24 21  1  1  0  0  0
 24 23  1  0  0  0  0
 25 24  1  0  0  0  0
 25 22  1  0  0  0  0
 26 22  1  0  0  0  0
 28 25  2  0  0  0  0
 29 28  1  0  0  0  0
 29 21  2  0  0  0  0
M  END
>  <MODEL>
2

>  <REMARK>
 VINA RESULT:      -7.7      2.963      7.617
  Name = 
  9 active torsions:
  status: ('A' for Active; 'I' for Inactive)
    1  A    between atoms: C_1  and  C_24
    2  A    between atoms: C_2  and  N_5
    3  A    between atoms: C_3  and  C_17
    4  A    between atoms: C_3  and  C_19
    5  A    between atoms: N_5  and  C_6
    6  A    between atoms: C_6  and  C_26
    7  A    between atoms: N_16  and  C_19
    8  A    between atoms: C_17  and  C_23
    9  A    between atoms: C_23  and  C_29
                            x       y       z     vdW  Elec       q    Type
                         _______ _______ _______ _____ _____    ______ ____

>  <TORSDO>
F 9

$$$$
=
 OpenBabel10222421103D

 29 31  0  0  1  0  0  0  0  0999 V2000
  184.0370  178.2820  142.2580 S   0  0  0  0  0  0  0  0  0  0  0  0
  184.6380  179.0270  144.8330 C   0  0  0  0  0  2  0  0  0  0  0  0
  186.1040  178.6240  144.7230 C   0  0  2  0  0  3  0  0  0  0  0  0
  186.2840  177.5080  143.6820 C   0  0  1  0  0  3  0  0  0  0  0  0
  184.1310  179.5970  143.5180 C   0  0  0  0  0  2  0  0  0  0  0  0
  185.8270  177.9250  142.2750 C   0  0  2  0  0  3  0  0  0  0  0  0
  186.5420  178.1910  145.9750 O   0  0  0  0  0  1  0  0  0  0  0  0
  187.6700  176.9330  143.6710 C   0  0  0  0  0  0  0  0  0  0  0  0
  187.8500  175.7730  143.2160 O   0  0  0  0  0  0  0  0  0  0  0  0
  188.7790  177.7070  144.1370 N   0  0  0  0  0  2  0  0  0  0  0  0
  190.1400  177.1900  144.1780 C   0  0  0  0  0  2  0  0  0  0  0  0
  190.8930  177.7570  145.3750 C   0  0  0  0  0  2  0  0  0  0  0  0
  190.9670  176.7540  146.5200 C   0  0  0  0  0  2  0  0  0  0  0  0
  189.6710  176.7240  147.3140 C   0  0  0  0  0  2  0  0  0  0  0  0
  188.1900  177.9630  148.8610 C   0  0  0  0  0  1  0  0  0  0  0  0
  189.4430  178.0480  148.0170 C   0  0  0  0  0  2  0  0  0  0  0  0
  186.6080  179.1060  141.6940 C   0  0  0  0  0  2  0  0  0  0  0  0
  186.9200  178.8720  140.2880 N   0  0  0  0  0  2  0  0  0  0  0  0
  188.0380  178.1010  139.8320 C   0  0  0  0  0  0  0  0  0  0  0  0
  189.1850  178.0750  140.5530 C   0  0  0  0  0  3  0  0  0  0  0  0
  191.2240  175.6490  138.4960 N   0  0  0  0  0  0  0  0  0  0  0  0
  187.8790  177.3150  138.5330 C   0  0  0  0  0  0  0  0  0  0  0  0
  190.3620  177.2710  140.1500 C   0  0  0  0  0  0  0  0  0  0  0  0
  190.2690  176.5330  139.0510 C   0  0  2  0  0  3  0  0  0  0  0  0
  189.0980  176.4900  138.2450 C   0  0  0  0  0  0  0  0  0  0  0  0
  187.6270  178.2710  137.3800 C   0  0  0  0  0  1  0  0  0  0  0  0
  191.5450  177.2710  140.9410 N   0  0  0  0  0  1  0  0  0  0  0  0
  189.2720  175.6630  137.2730 N   0  0  0  0  0  0  0  0  0  0  0  0
  190.6080  175.1580  137.4600 C   0  0  0  0  0  3  0  0  0  0  0  0
  1  6  1  0  0  0  0
  1  5  1  0  0  0  0
  3  2  1  0  0  0  0
  3  7  1  1  0  0  0
  4  8  1  6  0  0  0
  4  3  1  0  0  0  0
  5  2  1  0  0  0  0
  6 17  1  1  0  0  0
  6  4  1  0  0  0  0
  8 10  1  0  0  0  0
  9  8  2  0  0  0  0
 10 11  1  0  0  0  0
 11 12  1  0  0  0  0
 12 13  1  0  0  0  0
 13 14  1  0  0  0  0
 14 16  1  0  0  0  0
 16 15  1  0  0  0  0
 18 17  1  0  0  0  0
 19 18  1  0  0  0  0
 19 20  1  0  0  0  0
 21 24  1  0  0  0  0
 22 19  2  0  0  0  0
 23 20  2  0  0  0  0
 23 27  1  0  0  0  0
 24 25  1  1  0  0  0
 24 23  1  0  0  0  0
 25 22  1  0  0  0  0
 26 22  1  0  0  0  0
 28 29  1  0  0  0  0
 28 25  2  0  0  0  0
 29 21  2  0  0  0  0
M  END
>  <MODEL>
3

>  <REMARK>
 VINA RESULT:      -7.5      2.758      6.114
  Name = 
  9 active torsions:
  status: ('A' for Active; 'I' for Inactive)
    1  A    between atoms: C_1  and  C_24
    2  A    between atoms: C_2  and  N_5
    3  A    between atoms: C_3  and  C_17
    4  A    between atoms: C_3  and  C_19
    5  A    between atoms: N_5  and  C_6
    6  A    between atoms: C_6  and  C_26
    7  A    between atoms: N_16  and  C_19
    8  A    between atoms: C_17  and  C_23
    9  A    between atoms: C_23  and  C_29
                            x       y       z     vdW  Elec       q    Type
                         _______ _______ _______ _____ _____    ______ ____

>  <TORSDO>
F 9

$$$$
=
 OpenBabel10222421103D

 29 31  0  0  1  0  0  0  0  0999 V2000
  190.1420  175.6690  138.7500 S   0  0  0  0  0  0  0  0  0  0  0  0
  189.8910  177.8780  137.1370 C   0  0  0  0  0  2  0  0  0  0  0  0
  189.0560  178.6550  138.1460 C   0  0  2  0  0  3  0  0  0  0  0  0
  188.2790  177.6960  139.0630 C   0  0  1  0  0  3  0  0  0  0  0  0
  190.9400  177.0300  137.8380 C   0  0  0  0  0  2  0  0  0  0  0  0
  189.2000  176.7640  139.8660 C   0  0  2  0  0  3  0  0  0  0  0  0
  188.1700  179.4800  137.4510 O   0  0  0  0  0  1  0  0  0  0  0  0
  187.2890  178.3980  139.9450 C   0  0  0  0  0  0  0  0  0  0  0  0
  187.6990  178.9930  140.9760 O   0  0  0  0  0  0  0  0  0  0  0  0
  185.9010  178.4230  139.5990 N   0  0  0  0  0  2  0  0  0  0  0  0
  184.8910  179.0620  140.4330 C   0  0  0  0  0  2  0  0  0  0  0  0
  184.3870  178.0960  141.4970 C   0  0  0  0  0  2  0  0  0  0  0  0
  184.0010  178.8220  142.7800 C   0  0  0  0  0  2  0  0  0  0  0  0
  184.9110  178.4300  143.9330 C   0  0  0  0  0  2  0  0  0  0  0  0
  184.6340  178.2530  146.3850 C   0  0  0  0  0  1  0  0  0  0  0  0
  184.5290  179.1810  145.1940 C   0  0  0  0  0  2  0  0  0  0  0  0
  190.1510  177.4960  140.8140 C   0  0  0  0  0  2  0  0  0  0  0  0
  190.6420  176.5930  141.8490 N   0  0  0  0  0  2  0  0  0  0  0  0
  190.3790  176.7550  143.2480 C   0  0  0  0  0  0  0  0  0  0  0  0
  191.3400  176.4630  144.1580 C   0  0  0  0  0  3  0  0  0  0  0  0
  189.5700  177.4390  147.3490 N   0  0  0  0  0  0  0  0  0  0  0  0
  189.0040  177.2750  143.6590 C   0  0  0  0  0  0  0  0  0  0  0  0
  191.1390  176.6420  145.6140 C   0  0  0  0  0  0  0  0  0  0  0  0
  189.9770  177.1300  146.0300 C   0  0  0  0  0  0  0  0  0  0  0  0
  188.9210  177.4770  145.1430 C   0  0  0  0  0  0  0  0  0  0  0  0
  187.9300  176.2940  143.2190 C   0  0  0  0  0  1  0  0  0  0  0  0
  192.1780  176.3260  146.5330 N   0  0  0  0  0  1  0  0  0  0  0  0
  187.9350  177.9640  145.8130 N   0  0  0  0  0  0  0  0  0  0  0  0
  188.3720  177.9250  147.1850 C   0  0  0  0  0  2  0  0  0  0  0  0
  1  6  1  0  0  0  0
  2  5  1  0  0  0  0
  2  3  1  0  0  0  0
  3  7  1  6  0  0  0
  3  4  1  0  0  0  0
  4  6  1  0  0  0  0
  4  8  1  1  0  0  0
  5  1  1  0  0  0  0
  6 17  1  6  0  0  0
  8  9  2  0  0  0  0
 10  8  1  0  0  0  0
 10 11  1  0  0  0  0
 11 12  1  0  0  0  0
 12 13  1  0  0  0  0
 13 14  1  0  0  0  0
 14 16  1  0  0  0  0
 16 15  1  0  0  0  0
 17 18  1  0  0  0  0
 18 19  1  0  0  0  0
 19 22  2  0  0  0  0
 19 20  1  0  0  0  0
 20 23  2  0  0  0  0
 22 25  1  0  0  0  0
 23 24  1  0  0  0  0
 23 27  1  0  0  0  0
 24 21  2  0  0  0  0
 25 28  2  0  0  0  0
 25 24  1  0  0  0  0
 26 22  1  0  0  0  0
 28 29  1  0  0  0  0
 29 21  1  0  0  0  0
M  END
>  <MODEL>
4

>  <REMARK>
 VINA RESULT:      -7.4      2.279      5.075
  Name = 
  9 active torsions:
  status: ('A' for Active; 'I' for Inactive)
    1  A    between atoms: C_1  and  C_24
    2  A    between atoms: C_2  and  N_5
    3  A    between atoms: C_3  and  C_17
    4  A    between atoms: C_3  and  C_19
    5  A    between atoms: N_5  and  C_6
    6  A    between atoms: C_6  and  C_26
    7  A    between atoms: N_16  and  C_19
    8  A    between atoms: C_17  and  C_23
    9  A    between atoms: C_23  and  C_29
                            x       y       z     vdW  Elec       q    Type
                         _______ _______ _______ _____ _____    ______ ____

>  <TORSDO>
F 9

$$$$
=
 OpenBabel10222421103D

 29 31  0  0  1  0  0  0  0  0999 V2000
  191.3380  178.3760  144.5520 S   0  0  0  0  0  0  0  0  0  0  0  0
  190.7580  176.9980  146.8570 C   0  0  0  0  0  2  0  0  0  0  0  0
  189.3030  176.7590  146.4770 C   0  0  2  0  0  3  0  0  0  0  0  0
  188.7980  177.8630  145.5340 C   0  0  1  0  0  3  0  0  0  0  0  0
  191.6560  176.9410  145.6320 C   0  0  0  0  0  2  0  0  0  0  0  0
  189.5970  177.9370  144.2220 C   0  0  2  0  0  3  0  0  0  0  0  0
  188.5360  176.7350  147.6440 O   0  0  0  0  0  1  0  0  0  0  0  0
  187.3210  177.7930  145.2830 C   0  0  0  0  0  0  0  0  0  0  0  0
  186.8680  176.8920  144.5290 O   0  0  0  0  0  0  0  0  0  0  0  0
  186.4330  178.7140  145.9240 N   0  0  0  0  0  2  0  0  0  0  0  0
  184.9940  178.7130  145.6940 C   0  0  0  0  0  2  0  0  0  0  0  0
  184.6540  179.4890  144.4280 C   0  0  0  0  0  2  0  0  0  0  0  0
  183.7910  178.6670  143.4780 C   0  0  0  0  0  2  0  0  0  0  0  0
  182.3140  178.9770  143.6630 C   0  0  0  0  0  2  0  0  0  0  0  0
  180.2890  179.7010  142.4410 C   0  0  0  0  0  1  0  0  0  0  0  0
  181.5890  178.9360  142.3310 C   0  0  0  0  0  2  0  0  0  0  0  0
  189.5240  176.6630  143.3790 C   0  0  0  0  0  2  0  0  0  0  0  0
  190.1180  176.8830  142.0650 N   0  0  0  0  0  2  0  0  0  0  0  0
  189.3950  177.3730  140.9290 C   0  0  0  0  0  0  0  0  0  0  0  0
  188.1070  177.7730  141.0650 C   0  0  0  0  0  3  0  0  0  0  0  0
  187.3980  178.9750  137.5540 N   0  0  0  0  0  0  0  0  0  0  0  0
  190.1270  177.4370  139.5910 C   0  0  0  0  0  0  0  0  0  0  0  0
  187.3190  178.3190  139.9350 C   0  0  0  0  0  0  0  0  0  0  0  0
  187.9150  178.4380  138.7550 C   0  0  2  0  0  3  0  0  0  0  0  0
  189.2670  178.0570  138.5300 C   0  0  0  0  0  0  0  0  0  0  0  0
  190.5370  176.0390  139.1610 C   0  0  0  0  0  1  0  0  0  0  0  0
  185.9700  178.7310  140.1250 N   0  0  0  0  0  1  0  0  0  0  0  0
  189.5940  178.3230  137.3130 N   0  0  0  0  0  0  0  0  0  0  0  0
  188.4060  178.8930  136.7330 C   0  0  0  0  0  3  0  0  0  0  0  0
  1  5  1  0  0  0  0
  3  2  1  0  0  0  0
  3  7  1  1  0  0  0
  4  8  1  6  0  0  0
  4  3  1  0  0  0  0
  5  2  1  0  0  0  0
  6 17  1  1  0  0  0
  6  1  1  0  0  0  0
  6  4  1  0  0  0  0
  8 10  1  0  0  0  0
  9  8  2  0  0  0  0
 11 10  1  0  0  0  0
 12 11  1  0  0  0  0
 13 14  1  0  0  0  0
 13 12  1  0  0  0  0
 16 15  1  0  0  0  0
 16 14  1  0  0  0  0
 18 17  1  0  0  0  0
 19 20  1  0  0  0  0
 19 18  1  0  0  0  0
 22 19  2  0  0  0  0
 23 27  1  0  0  0  0
 23 20  2  0  0  0  0
 24 21  1  1  0  0  0
 24 23  1  0  0  0  0
 25 24  1  0  0  0  0
 25 22  1  0  0  0  0
 26 22  1  0  0  0  0
 28 25  2  0  0  0  0
 29 28  1  0  0  0  0
 29 21  2  0  0  0  0
M  END
>  <MODEL>
5

>  <REMARK>
 VINA RESULT:      -7.4      3.019      7.546
  Name = 
  9 active torsions:
  status: ('A' for Active; 'I' for Inactive)
    1  A    between atoms: C_1  and  C_24
    2  A    between atoms: C_2  and  N_5
    3  A    between atoms: C_3  and  C_17
    4  A    between atoms: C_3  and  C_19
    5  A    between atoms: N_5  and  C_6
    6  A    between atoms: C_6  and  C_26
    7  A    between atoms: N_16  and  C_19
    8  A    between atoms: C_17  and  C_23
    9  A    between atoms: C_23  and  C_29
                            x       y       z     vdW  Elec       q    Type
                         _______ _______ _______ _____ _____    ______ ____

>  <TORSDO>
F 9

$$$$
=
 OpenBabel10222421103D

 29 31  0  0  1  0  0  0  0  0999 V2000
  188.9100  178.8950  137.3780 S   0  0  0  0  0  0  0  0  0  0  0  0
  189.8260  176.3520  136.8860 C   0  0  0  0  0  2  0  0  0  0  0  0
  190.1290  176.0610  138.3500 C   0  0  2  0  0  3  0  0  0  0  0  0
  190.4330  177.3610  139.1120 C   0  0  1  0  0  3  0  0  0  0  0  0
  188.5820  177.2150  136.7500 C   0  0  0  0  0  2  0  0  0  0  0  0
  189.2600  178.3540  139.0860 C   0  0  2  0  0  3  0  0  0  0  0  0
  191.2240  175.1970  138.4150 O   0  0  0  0  0  1  0  0  0  0  0  0
  190.9320  177.1220  140.5070 C   0  0  0  0  0  0  0  0  0  0  0  0
  192.0100  177.6590  140.8740 O   0  0  0  0  0  0  0  0  0  0  0  0
  190.1720  176.3250  141.4210 N   0  0  0  0  0  2  0  0  0  0  0  0
  190.6220  176.0340  142.7760 C   0  0  0  0  0  2  0  0  0  0  0  0
  189.7160  176.7090  143.7970 C   0  0  0  0  0  2  0  0  0  0  0  0
  188.2550  176.6730  143.3640 C   0  0  0  0  0  2  0  0  0  0  0  0
  187.3340  177.1260  144.4850 C   0  0  0  0  0  2  0  0  0  0  0  0
  187.1920  177.8670  146.8420 C   0  0  0  0  0  1  0  0  0  0  0  0
  188.1360  177.5000  145.7180 C   0  0  0  0  0  2  0  0  0  0  0  0
  187.9850  177.8250  139.7450 C   0  0  0  0  0  2  0  0  0  0  0  0
  186.8440  178.6670  139.4030 N   0  0  0  0  0  2  0  0  0  0  0  0
  185.5840  178.6270  140.0850 C   0  0  0  0  0  0  0  0  0  0  0  0
  185.5460  178.5540  141.4380 C   0  0  0  0  0  3  0  0  0  0  0  0
  181.8160  178.6980  142.0190 N   0  0  0  0  0  0  0  0  0  0  0  0
  184.3140  178.6850  139.2400 C   0  0  0  0  0  0  0  0  0  0  0  0
  184.2760  178.5430  142.1990 C   0  0  0  0  0  0  0  0  0  0  0  0
  183.1380  178.6330  141.5220 C   0  0  2  0  0  3  0  0  0  0  0  0
  183.0890  178.7290  140.1030 C   0  0  0  0  0  0  0  0  0  0  0  0
  184.2490  177.4740  138.3260 C   0  0  0  0  0  1  0  0  0  0  0  0
  184.2840  178.4700  143.6200 N   0  0  0  0  0  1  0  0  0  0  0  0
  181.8650  178.8480  139.7210 N   0  0  0  0  0  0  0  0  0  0  0  0
  181.0980  178.8240  140.9400 C   0  0  0  0  0  3  0  0  0  0  0  0
  1  6  1  0  0  0  0
  2  3  1  0  0  0  0
  3  7  1  6  0  0  0
  3  4  1  0  0  0  0
  4  8  1  1  0  0  0
  5  2  1  0  0  0  0
  5  1  1  0  0  0  0
  6  4  1  0  0  0  0
  6 17  1  6  0  0  0
  8  9  2  0  0  0  0
  8 10  1  0  0  0  0
 10 11  1  0  0  0  0
 11 12  1  0  0  0  0
 13 12  1  0  0  0  0
 13 14  1  0  0  0  0
 14 16  1  0  0  0  0
 16 15  1  0  0  0  0
 18 17  1  0  0  0  0
 18 19  1  0  0  0  0
 19 20  1  0  0  0  0
 20 23  2  0  0  0  0
 22 19  2  0  0  0  0
 22 25  1  0  0  0  0
 23 27  1  0  0  0  0
 24 25  1  1  0  0  0
 24 21  1  0  0  0  0
 24 23  1  0  0  0  0
 26 22  1  0  0  0  0
 28 25  2  0  0  0  0
 28 29  1  0  0  0  0
 29 21  2  0  0  0  0
M  END
>  <MODEL>
6

>  <REMARK>
 VINA RESULT:      -7.4      1.805      2.766
  Name = 
  9 active torsions:
  status: ('A' for Active; 'I' for Inactive)
    1  A    between atoms: C_1  and  C_24
    2  A    between atoms: C_2  and  N_5
    3  A    between atoms: C_3  and  C_17
    4  A    between atoms: C_3  and  C_19
    5  A    between atoms: N_5  and  C_6
    6  A    between atoms: C_6  and  C_26
    7  A    between atoms: N_16  and  C_19
    8  A    between atoms: C_17  and  C_23
    9  A    between atoms: C_23  and  C_29
                            x       y       z     vdW  Elec       q    Type
                         _______ _______ _______ _____ _____    ______ ____

>  <TORSDO>
F 9

$$$$
=
 OpenBabel10222421103D

 29 31  0  0  1  0  0  0  0  0999 V2000
  189.7740  175.5340  137.7960 S   0  0  0  0  0  0  0  0  0  0  0  0
  189.4540  177.8370  136.3330 C   0  0  0  0  0  2  0  0  0  0  0  0
  188.8270  178.6110  137.4860 C   0  0  2  0  0  3  0  0  0  0  0  0
  188.1230  177.6560  138.4630 C   0  0  1  0  0  3  0  0  0  0  0  0
  190.5290  176.8890  136.8370 C   0  0  0  0  0  2  0  0  0  0  0  0
  189.0810  176.6260  139.0840 C   0  0  2  0  0  3  0  0  0  0  0  0
  187.9120  179.5260  136.9630 O   0  0  0  0  0  1  0  0  0  0  0  0
  187.3200  178.3720  139.5100 C   0  0  0  0  0  0  0  0  0  0  0  0
  187.9200  179.0030  140.4200 O   0  0  0  0  0  0  0  0  0  0  0  0
  185.8900  178.3700  139.4530 N   0  0  0  0  0  2  0  0  0  0  0  0
  185.0600  179.0200  140.4580 C   0  0  0  0  0  2  0  0  0  0  0  0
  183.7700  178.2400  140.6730 C   0  0  0  0  0  2  0  0  0  0  0  0
  183.1480  178.5430  142.0310 C   0  0  0  0  0  2  0  0  0  0  0  0
  184.2150  178.7690  143.0900 C   0  0  0  0  0  2  0  0  0  0  0  0
  184.1580  178.6610  145.5610 C   0  0  0  0  0  1  0  0  0  0  0  0
  183.6040  179.3680  144.3430 C   0  0  0  0  0  2  0  0  0  0  0  0
  190.2050  177.2460  139.9140 C   0  0  0  0  0  2  0  0  0  0  0  0
  190.5550  176.3780  141.0330 N   0  0  0  0  0  2  0  0  0  0  0  0
  190.1440  176.6070  142.3860 C   0  0  0  0  0  0  0  0  0  0  0  0
  188.8250  176.6390  142.6990 C   0  0  0  0  0  3  0  0  0  0  0  0
  189.0290  177.1110  146.4420 N   0  0  0  0  0  0  0  0  0  0  0  0
  191.2320  176.7950  143.4400 C   0  0  2  0  0  3  0  0  0  0  0  0
  188.3400  176.8390  144.0830 C   0  0  0  0  0  0  0  0  0  0  0  0
  189.2400  176.9670  145.0510 C   0  0  0  0  0  0  0  0  0  0  0  0
  190.6420  176.9290  144.8120 C   0  0  0  0  0  0  0  0  0  0  0  0
  192.0540  178.0300  143.1160 C   0  0  0  0  0  1  0  0  0  0  0  0
  186.9460  176.8610  144.3660 N   0  0  0  0  0  1  0  0  0  0  0  0
  191.2730  177.0330  145.9290 N   0  0  0  0  0  0  0  0  0  0  0  0
  190.2380  177.1450  146.9250 C   0  0  0  0  0  3  0  0  0  0  0  0
  1  6  1  0  0  0  0
  2  5  1  0  0  0  0
  2  3  1  0  0  0  0
  3  7  1  6  0  0  0
  3  4  1  0  0  0  0
  4  6  1  0  0  0  0
  4  8  1  1  0  0  0
  5  1  1  0  0  0  0
  6 17  1  6  0  0  0
  8  9  2  0  0  0  0
 10  8  1  0  0  0  0
 10 11  1  0  0  0  0
 11 12  1  0  0  0  0
 12 13  1  0  0  0  0
 13 14  1  0  0  0  0
 14 16  1  0  0  0  0
 16 15  1  0  0  0  0
 17 18  1  0  0  0  0
 18 19  1  0  0  0  0
 19 20  2  0  0  0  0
 19 22  1  0  0  0  0
 20 23  1  0  0  0  0
 21 29  2  0  0  0  0
 22 26  1  6  0  0  0
 22 25  1  0  0  0  0
 23 27  1  0  0  0  0
 23 24  2  0  0  0  0
 24 21  1  0  0  0  0
 25 24  1  0  0  0  0
 25 28  2  0  0  0  0
 28 29  1  0  0  0  0
M  END
>  <MODEL>
7

>  <REMARK>
 VINA RESULT:      -7.3      2.158      5.528
  Name = 
  9 active torsions:
  status: ('A' for Active; 'I' for Inactive)
    1  A    between atoms: C_1  and  C_24
    2  A    between atoms: C_2  and  N_5
    3  A    between atoms: C_3  and  C_17
    4  A    between atoms: C_3  and  C_19
    5  A    between atoms: N_5  and  C_6
    6  A    between atoms: C_6  and  C_26
    7  A    between atoms: N_16  and  C_19
    8  A    between atoms: C_17  and  C_23
    9  A    between atoms: C_23  and  C_29
                            x       y       z     vdW  Elec       q    Type
                         _______ _______ _______ _____ _____    ______ ____

>  <TORSDO>
F 9

$$$$
=
 OpenBabel10222421103D

 29 31  0  0  1  0  0  0  0  0999 V2000
  184.7580  180.0480  144.2730 S   0  0  0  0  0  0  0  0  0  0  0  0
  182.2410  179.0560  143.7960 C   0  0  0  0  0  2  0  0  0  0  0  0
  182.6440  178.3550  142.5050 C   0  0  2  0  0  3  0  0  0  0  0  0
  183.8400  179.0660  141.8510 C   0  0  1  0  0  3  0  0  0  0  0  0
  183.3670  179.0030  144.8170 C   0  0  0  0  0  2  0  0  0  0  0  0
  185.0840  179.0910  142.7540 C   0  0  2  0  0  3  0  0  0  0  0  0
  181.5500  178.3560  141.6380 O   0  0  0  0  0  1  0  0  0  0  0  0
  184.1560  178.5440  140.4800 C   0  0  0  0  0  0  0  0  0  0  0  0
  183.6330  177.4650  140.0970 O   0  0  0  0  0  0  0  0  0  0  0  0
  185.0130  179.2830  139.6040 N   0  0  0  0  0  2  0  0  0  0  0  0
  185.3790  178.8100  138.2750 C   0  0  0  0  0  2  0  0  0  0  0  0
  186.6700  178.0030  138.3310 C   0  0  0  0  0  2  0  0  0  0  0  0
  187.6500  178.4320  137.2460 C   0  0  0  0  0  2  0  0  0  0  0  0
  189.0230  178.7320  137.8250 C   0  0  0  0  0  2  0  0  0  0  0  0
  190.3320  177.4000  139.4480 C   0  0  0  0  0  1  0  0  0  0  0  0
  189.1060  178.2690  139.2680 C   0  0  0  0  0  2  0  0  0  0  0  0
  185.6230  177.7040  143.1070 C   0  0  0  0  0  2  0  0  0  0  0  0
  187.0780  177.6790  143.0120 N   0  0  0  0  0  2  0  0  0  0  0  0
  187.9540  177.5180  144.1350 C   0  0  0  0  0  0  0  0  0  0  0  0
  187.4710  177.6410  145.3960 C   0  0  0  0  0  3  0  0  0  0  0  0
  190.5790  176.8480  147.3910 N   0  0  0  0  0  0  0  0  0  0  0  0
  189.4190  177.1950  143.8560 C   0  0  0  0  0  0  0  0  0  0  0  0
  188.3190  177.4540  146.5950 C   0  0  0  0  0  0  0  0  0  0  0  0
  189.5940  177.1300  146.4160 C   0  0  0  0  0  0  0  0  0  0  0  0
  190.1770  176.9660  145.1300 C   0  0  0  0  0  0  0  0  0  0  0  0
  190.0590  178.3350  143.0810 C   0  0  0  0  0  1  0  0  0  0  0  0
  187.7680  177.5880  147.9000 N   0  0  0  0  0  1  0  0  0  0  0  0
  191.4080  176.6110  145.2550 N   0  0  0  0  0  0  0  0  0  0  0  0
  191.6260  176.5480  146.6780 C   0  0  0  0  0  2  0  0  0  0  0  0
  1  5  1  0  0  0  0
  2  5  1  0  0  0  0
  3  7  1  6  0  0  0
  3  2  1  0  0  0  0
  4  8  1  6  0  0  0
  4  3  1  0  0  0  0
  4  6  1  0  0  0  0
  6 17  1  1  0  0  0
  6  1  1  0  0  0  0
  9  8  2  0  0  0  0
 10  8  1  0  0  0  0
 11 12  1  0  0  0  0
 11 10  1  0  0  0  0
 13 14  1  0  0  0  0
 13 12  1  0  0  0  0
 14 16  1  0  0  0  0
 16 15  1  0  0  0  0
 18 17  1  0  0  0  0
 18 19  1  0  0  0  0
 19 20  1  0  0  0  0
 20 23  2  0  0  0  0
 22 19  2  0  0  0  0
 22 25  1  0  0  0  0
 23 27  1  0  0  0  0
 24 23  1  0  0  0  0
 24 21  2  0  0  0  0
 25 28  2  0  0  0  0
 25 24  1  0  0  0  0
 26 22  1  0  0  0  0
 28 29  1  0  0  0  0
 29 21  1  0  0  0  0
M  END
>  <MODEL>
8

>  <REMARK>
 VINA RESULT:      -7.1      3.504      7.143
  Name = 
  9 active torsions:
  status: ('A' for Active; 'I' for Inactive)
    1  A    between atoms: C_1  and  C_24
    2  A    between atoms: C_2  and  N_5
    3  A    between atoms: C_3  and  C_17
    4  A    between atoms: C_3  and  C_19
    5  A    between atoms: N_5  and  C_6
    6  A    between atoms: C_6  and  C_26
    7  A    between atoms: N_16  and  C_19
    8  A    between atoms: C_17  and  C_23
    9  A    between atoms: C_23  and  C_29
                            x       y       z     vdW  Elec       q    Type
                         _______ _______ _______ _____ _____    ______ ____

>  <TORSDO>
F 9

$$$$
=
 OpenBabel10222421103D

 29 31  0  0  1  0  0  0  0  0999 V2000
  182.8620  177.0530  139.8340 S   0  0  0  0  0  0  0  0  0  0  0  0
  181.2530  178.5110  141.5170 C   0  0  0  0  0  2  0  0  0  0  0  0
  182.4210  179.1180  142.2850 C   0  0  2  0  0  3  0  0  0  0  0  0
  183.6440  178.1880  142.2370 C   0  0  1  0  0  3  0  0  0  0  0  0
  181.5960  178.3480  140.0460 C   0  0  0  0  0  2  0  0  0  0  0  0
  184.1380  177.9250  140.8050 C   0  0  2  0  0  3  0  0  0  0  0  0
  182.0240  179.3260  143.6070 O   0  0  0  0  0  1  0  0  0  0  0  0
  184.7580  178.6360  143.1370 C   0  0  0  0  0  0  0  0  0  0  0  0
  185.2500  179.7850  142.9810 O   0  0  0  0  0  0  0  0  0  0  0  0
  185.2300  177.7840  144.1850 N   0  0  0  0  0  2  0  0  0  0  0  0
  186.3280  178.1530  145.0680 C   0  0  0  0  0  2  0  0  0  0  0  0
  187.5600  177.3060  144.7750 C   0  0  0  0  0  2  0  0  0  0  0  0
  188.7990  177.8540  145.4700 C   0  0  0  0  0  2  0  0  0  0  0  0
  189.1540  177.0310  146.6990 C   0  0  0  0  0  2  0  0  0  0  0  0
  187.9910  177.8950  148.7050 C   0  0  0  0  0  1  0  0  0  0  0  0
  189.2840  177.9230  147.9190 C   0  0  0  0  0  2  0  0  0  0  0  0
  184.5970  179.1830  140.0660 C   0  0  0  0  0  2  0  0  0  0  0  0
  185.4740  178.8340  138.9540 N   0  0  0  0  0  2  0  0  0  0  0  0
  186.7760  178.2570  139.1100 C   0  0  0  0  0  0  0  0  0  0  0  0
  187.4320  178.3690  140.2910 C   0  0  0  0  0  3  0  0  0  0  0  0
  190.5430  176.3650  139.5310 N   0  0  0  0  0  0  0  0  0  0  0  0
  187.3730  177.5140  137.9180 C   0  0  0  0  0  0  0  0  0  0  0  0
  188.7650  177.7670  140.5220 C   0  0  0  0  0  0  0  0  0  0  0  0
  189.3180  177.0720  139.5350 C   0  0  2  0  0  3  0  0  0  0  0  0
  188.6920  176.8920  138.2710 C   0  0  0  0  0  0  0  0  0  0  0  0
  187.5580  178.4720  136.7540 C   0  0  0  0  0  1  0  0  0  0  0  0
  189.4150  177.9070  141.7800 N   0  0  0  0  0  1  0  0  0  0  0  0
  189.4290  176.1440  137.5260 N   0  0  0  0  0  0  0  0  0  0  0  0
  190.5750  175.8340  138.3420 C   0  0  0  0  0  3  0  0  0  0  0  0
  1  5  1  0  0  0  0
  1  6  1  0  0  0  0
  2  3  1  0  0  0  0
  3  7  1  1  0  0  0
  4  3  1  0  0  0  0
  4  8  1  1  0  0  0
  5  2  1  0  0  0  0
  6 17  1  6  0  0  0
  6  4  1  0  0  0  0
  8 10  1  0  0  0  0
  9  8  2  0  0  0  0
 10 11  1  0  0  0  0
 12 11  1  0  0  0  0
 12 13  1  0  0  0  0
 13 14  1  0  0  0  0
 14 16  1  0  0  0  0
 16 15  1  0  0  0  0
 18 19  1  0  0  0  0
 18 17  1  0  0  0  0
 19 20  1  0  0  0  0
 20 23  2  0  0  0  0
 21 24  1  0  0  0  0
 22 25  1  0  0  0  0
 22 19  2  0  0  0  0
 23 27  1  0  0  0  0
 24 25  1  1  0  0  0
 24 23  1  0  0  0  0
 26 22  1  0  0  0  0
 28 25  2  0  0  0  0
 28 29  1  0  0  0  0
 29 21  2  0  0  0  0
M  END
>  <MODEL>
9

>  <REMARK>
 VINA RESULT:      -7.0      3.385      6.437
  Name = 
  9 active torsions:
  status: ('A' for Active; 'I' for Inactive)
    1  A    between atoms: C_1  and  C_24
    2  A    between atoms: C_2  and  N_5
    3  A    between atoms: C_3  and  C_17
    4  A    between atoms: C_3  and  C_19
    5  A    between atoms: N_5  and  C_6
    6  A    between atoms: C_6  and  C_26
    7  A    between atoms: N_16  and  C_19
    8  A    between atoms: C_17  and  C_23
    9  A    between atoms: C_23  and  C_29
                            x       y       z     vdW  Elec       q    Type
                         _______ _______ _______ _____ _____    ______ ____

>  <TORSDO>
F 9

$$$$
