=
 OpenBabel10222417403D

 30 34  0  0  1  0  0  0  0  0999 V2000
  188.6040  177.7490  142.0260 C   0  0  0  0  0  0  0  0  0  0  0  0
  189.0060  177.6780  144.5450 C   0  0  0  0  0  0  0  0  0  0  0  0
  189.9070  177.8520  143.1170 S   0  0  0  0  0  0  0  0  0  0  0  0
  185.4500  178.2360  141.3580 N   0  0  0  0  0  2  0  0  0  0  0  0
  184.8880  178.3190  146.6220 C   0  0  0  0  0  1  0  0  0  0  0  0
  189.4090  178.2010  145.8820 C   0  0  0  0  0  2  0  0  0  0  0  0
  187.2660  177.5830  147.1180 C   0  0  0  0  0  3  0  0  0  0  0  0
  186.0700  178.0030  142.6280 C   0  0  0  0  0  0  0  0  0  0  0  0
  187.6950  177.5660  144.1410 C   0  0  0  0  0  0  0  0  0  0  0  0
  186.4630  177.9290  144.7940 C   0  0  0  0  0  0  0  0  0  0  0  0
  187.4660  177.6160  142.8000 C   0  0  0  0  0  0  0  0  0  0  0  0
  188.6040  177.6200  147.0130 C   0  0  0  0  0  3  0  0  0  0  0  0
  185.4800  178.1880  143.7770 N   0  0  0  0  0  0  0  0  0  0  0  0
  186.2510  177.9930  146.1150 C   0  0  0  0  0  0  0  0  0  0  0  0
  190.8190  175.8990  138.7830 N   0  0  0  0  0  2  0  0  0  0  0  0
  190.9970  176.3780  136.5480 O   0  0  0  0  0  0  0  0  0  0  0  0
  190.5190  176.6230  137.6860 C   0  0  0  0  0  0  0  0  0  0  0  0
  189.4080  177.4110  139.6370 C   0  0  0  0  0  0  0  0  0  0  0  0
  190.1970  176.3390  139.8750 N   0  0  0  0  0  0  0  0  0  0  0  0
  188.6160  178.0670  140.6310 N   0  0  0  0  0  2  0  0  0  0  0  0
  189.4400  177.8720  138.0170 S   0  0  0  0  0  0  0  0  0  0  0  0
  182.4090  179.6850  139.7660 N   0  0  0  0  0  2  0  0  0  0  0  0
  181.3060  179.2220  140.6020 C   0  0  1  0  0  3  0  0  0  0  0  0
  181.7770  179.0540  142.0410 C   0  0  0  0  0  2  0  0  0  0  0  0
  183.7640  179.2950  140.0200 C   0  0  0  0  0  0  0  0  0  0  0  0
  184.7840  179.7140  139.1170 N   0  0  0  0  0  1  0  0  0  0  0  0
  182.9880  178.1260  142.0590 C   0  0  0  0  0  2  0  0  0  0  0  0
  184.0800  178.5990  141.1270 C   0  0  0  0  0  0  0  0  0  0  0  0
  179.9420  180.8480  141.7300 O   0  0  0  0  0  1  0  0  0  0  0  0
  180.1300  180.1850  140.5150 C   0  0  0  0  0  2  0  0  0  0  0  0
  1 11  2  0  0  0  0
  1  3  1  0  0  0  0
  2  6  1  0  0  0  0
  3  2  1  0  0  0  0
  4  8  1  0  0  0  0
  6 12  1  0  0  0  0
  8 11  1  0  0  0  0
  8 13  2  0  0  0  0
  9  2  2  0  0  0  0
  9 10  1  0  0  0  0
 10 14  2  0  0  0  0
 11  9  1  0  0  0  0
 12  7  2  0  0  0  0
 13 10  1  0  0  0  0
 14  5  1  0  0  0  0
 14  7  1  0  0  0  0
 15 19  1  0  0  0  0
 16 17  2  0  0  0  0
 17 21  1  0  0  0  0
 17 15  1  0  0  0  0
 18 19  2  0  0  0  0
 18 20  1  0  0  0  0
 20  1  1  0  0  0  0
 21 18  1  0  0  0  0
 22 25  1  0  0  0  0
 22 23  1  0  0  0  0
 23 30  1  1  0  0  0
 23 24  1  0  0  0  0
 24 27  1  0  0  0  0
 25 28  2  0  0  0  0
 26 25  1  0  0  0  0
 28  4  1  0  0  0  0
 28 27  1  0  0  0  0
 30 29  1  0  0  0  0
M  END
>  <MODEL>
1

>  <REMARK>
 VINA RESULT:      -9.9      0.000      0.000
  Name = 
  3 active torsions:
  status: ('A' for Active; 'I' for Inactive)
    1  A    between atoms: C_1  and  N_25
    2  A    between atoms: N_7  and  C_30
    3  A    between atoms: CA_8  and  C_22
                            x       y       z     vdW  Elec       q    Type
                         _______ _______ _______ _____ _____    ______ ____

>  <TORSDO>
F 3

$$$$
=
 OpenBabel10222417403D

 30 34  0  0  1  0  0  0  0  0999 V2000
  186.8540  178.4980  140.9200 C   0  0  0  0  0  0  0  0  0  0  0  0
  184.5040  178.8230  141.8610 C   0  0  0  0  0  0  0  0  0  0  0  0
  185.2490  178.5560  140.3590 S   0  0  0  0  0  0  0  0  0  0  0  0
  188.9800  177.8100  143.2950 N   0  0  0  0  0  2  0  0  0  0  0  0
  184.7590  178.1970  146.4680 C   0  0  0  0  0  1  0  0  0  0  0  0
  183.1030  178.4470  142.2030 C   0  0  0  0  0  2  0  0  0  0  0  0
  183.2010  179.0810  144.6700 C   0  0  0  0  0  3  0  0  0  0  0  0
  187.6030  178.1890  143.4090 C   0  0  0  0  0  0  0  0  0  0  0  0
  185.5280  178.8380  142.7800 C   0  0  0  0  0  0  0  0  0  0  0  0
  185.5600  178.4830  144.1770 C   0  0  0  0  0  0  0  0  0  0  0  0
  186.7860  178.6520  142.2920 C   0  0  0  0  0  0  0  0  0  0  0  0
  182.6060  179.0950  143.4660 C   0  0  0  0  0  3  0  0  0  0  0  0
  186.9020  178.0860  144.5040 N   0  0  0  0  0  0  0  0  0  0  0  0
  184.5320  178.5340  145.0350 C   0  0  0  0  0  0  0  0  0  0  0  0
  187.6710  178.6040  136.6580 N   0  0  0  0  0  2  0  0  0  0  0  0
  189.4190  177.8360  135.3890 O   0  0  0  0  0  0  0  0  0  0  0  0
  188.8670  177.9990  136.5080 C   0  0  0  0  0  0  0  0  0  0  0  0
  188.1720  178.1040  138.7810 C   0  0  0  0  0  0  0  0  0  0  0  0
  187.2830  178.6650  137.9300 N   0  0  0  0  0  0  0  0  0  0  0  0
  188.0070  178.0520  140.2000 N   0  0  0  0  0  2  0  0  0  0  0  0
  189.5210  177.4980  137.9750 S   0  0  0  0  0  0  0  0  0  0  0  0
  191.7450  176.0930  145.1080 N   0  0  0  0  0  2  0  0  0  0  0  0
  191.6320  176.5740  146.4820 C   0  0  1  0  0  3  0  0  0  0  0  0
  190.1770  176.8850  146.8080 C   0  0  0  0  0  2  0  0  0  0  0  0
  190.8780  176.5660  144.0700 C   0  0  0  0  0  0  0  0  0  0  0  0
  191.0940  176.1190  142.7340 N   0  0  0  0  0  1  0  0  0  0  0  0
  189.6370  177.8660  145.7710 C   0  0  0  0  0  2  0  0  0  0  0  0
  189.8370  177.3660  144.3590 C   0  0  0  0  0  0  0  0  0  0  0  0
  193.0650  176.1720  148.3690 O   0  0  0  0  0  1  0  0  0  0  0  0
  192.2100  175.5550  147.4530 C   0  0  0  0  0  2  0  0  0  0  0  0
  1 11  2  0  0  0  0
  2  6  1  0  0  0  0
  2  9  2  0  0  0  0
  3  1  1  0  0  0  0
  3  2  1  0  0  0  0
  4  8  1  0  0  0  0
  4 28  1  0  0  0  0
  6 12  1  0  0  0  0
  7 14  1  0  0  0  0
  8 13  2  0  0  0  0
  9 10  1  0  0  0  0
 10 13  1  0  0  0  0
 10 14  2  0  0  0  0
 11  9  1  0  0  0  0
 11  8  1  0  0  0  0
 12  7  2  0  0  0  0
 14  5  1  0  0  0  0
 15 19  1  0  0  0  0
 16 17  2  0  0  0  0
 17 15  1  0  0  0  0
 17 21  1  0  0  0  0
 18 20  1  0  0  0  0
 19 18  2  0  0  0  0
 20  1  1  0  0  0  0
 21 18  1  0  0  0  0
 22 23  1  0  0  0  0
 23 24  1  0  0  0  0
 23 30  1  1  0  0  0
 25 28  2  0  0  0  0
 25 22  1  0  0  0  0
 26 25  1  0  0  0  0
 27 24  1  0  0  0  0
 28 27  1  0  0  0  0
 30 29  1  0  0  0  0
M  END
>  <MODEL>
2

>  <REMARK>
 VINA RESULT:      -9.9      3.225      6.725
  Name = 
  3 active torsions:
  status: ('A' for Active; 'I' for Inactive)
    1  A    between atoms: C_1  and  N_25
    2  A    between atoms: N_7  and  C_30
    3  A    between atoms: CA_8  and  C_22
                            x       y       z     vdW  Elec       q    Type
                         _______ _______ _______ _____ _____    ______ ____

>  <TORSDO>
F 3

$$$$
=
 OpenBabel10222417403D

 30 34  0  0  1  0  0  0  0  0999 V2000
  189.5620  177.4130  142.0530 C   0  0  0  0  0  0  0  0  0  0  0  0
  190.7440  177.1310  144.2970 C   0  0  0  0  0  0  0  0  0  0  0  0
  191.1450  177.4440  142.6770 S   0  0  0  0  0  0  0  0  0  0  0  0
  186.3650  177.8990  142.4680 N   0  0  0  0  0  2  0  0  0  0  0  0
  187.5100  177.5160  147.6230 C   0  0  0  0  0  1  0  0  0  0  0  0
  191.5580  177.5430  145.4760 C   0  0  0  0  0  2  0  0  0  0  0  0
  189.9140  176.7820  147.2700 C   0  0  0  0  0  3  0  0  0  0  0  0
  187.3540  177.5680  143.4500 C   0  0  0  0  0  0  0  0  0  0  0  0
  189.3720  177.0310  144.3220 C   0  0  0  0  0  0  0  0  0  0  0  0
  188.4160  177.3140  145.3620 C   0  0  0  0  0  0  0  0  0  0  0  0
  188.7290  177.1930  143.1330 C   0  0  0  0  0  0  0  0  0  0  0  0
  191.1490  176.8520  146.7480 C   0  0  0  0  0  3  0  0  0  0  0  0
  187.1630  177.6420  144.7380 N   0  0  0  0  0  0  0  0  0  0  0  0
  188.6370  177.2590  146.6830 C   0  0  0  0  0  0  0  0  0  0  0  0
  190.7380  176.0020  138.1190 N   0  0  0  0  0  2  0  0  0  0  0  0
  190.2010  176.6840  135.9970 O   0  0  0  0  0  0  0  0  0  0  0  0
  190.0880  176.7970  137.2450 C   0  0  0  0  0  0  0  0  0  0  0  0
  189.6030  177.3370  139.5110 C   0  0  0  0  0  0  0  0  0  0  0  0
  190.4660  176.3030  139.3870 N   0  0  0  0  0  0  0  0  0  0  0  0
  189.1320  177.8500  140.7600 N   0  0  0  0  0  2  0  0  0  0  0  0
  189.1180  177.9380  138.0130 S   0  0  0  0  0  0  0  0  0  0  0  0
  182.7880  178.7690  141.8910 N   0  0  0  0  0  2  0  0  0  0  0  0
  182.2140  178.8540  143.2310 C   0  0  1  0  0  3  0  0  0  0  0  0
  183.2750  179.3120  144.2240 C   0  0  0  0  0  2  0  0  0  0  0  0
  184.1560  178.4000  141.6780 C   0  0  0  0  0  0  0  0  0  0  0  0
  184.6320  178.2540  140.3430 N   0  0  0  0  0  1  0  0  0  0  0  0
  184.4750  178.3750  144.1320 C   0  0  0  0  0  2  0  0  0  0  0  0
  184.9960  178.2560  142.7190 C   0  0  0  0  0  0  0  0  0  0  0  0
  180.6010  180.0740  141.9340 O   0  0  0  0  0  1  0  0  0  0  0  0
  181.0120  179.7860  143.2380 C   0  0  0  0  0  2  0  0  0  0  0  0
  1  3  1  0  0  0  0
  1 11  2  0  0  0  0
  2  9  2  0  0  0  0
  2  6  1  0  0  0  0
  3  2  1  0  0  0  0
  4 28  1  0  0  0  0
  4  8  1  0  0  0  0
  6 12  1  0  0  0  0
  8 13  2  0  0  0  0
  9 10  1  0  0  0  0
 10 14  2  0  0  0  0
 11  8  1  0  0  0  0
 11  9  1  0  0  0  0
 12  7  2  0  0  0  0
 13 10  1  0  0  0  0
 14  7  1  0  0  0  0
 14  5  1  0  0  0  0
 15 19  1  0  0  0  0
 16 17  2  0  0  0  0
 17 21  1  0  0  0  0
 17 15  1  0  0  0  0
 18 20  1  0  0  0  0
 19 18  2  0  0  0  0
 20  1  1  0  0  0  0
 21 18  1  0  0  0  0
 22 23  1  0  0  0  0
 23 30  1  6  0  0  0
 23 24  1  0  0  0  0
 25 22  1  0  0  0  0
 25 28  2  0  0  0  0
 26 25  1  0  0  0  0
 27 24  1  0  0  0  0
 28 27  1  0  0  0  0
 29 30  1  0  0  0  0
M  END
>  <MODEL>
3

>  <REMARK>
 VINA RESULT:      -9.8      1.435      1.912
  Name = 
  3 active torsions:
  status: ('A' for Active; 'I' for Inactive)
    1  A    between atoms: C_1  and  N_25
    2  A    between atoms: N_7  and  C_30
    3  A    between atoms: CA_8  and  C_22
                            x       y       z     vdW  Elec       q    Type
                         _______ _______ _______ _____ _____    ______ ____

>  <TORSDO>
F 3

$$$$
=
 OpenBabel10222417403D

 30 34  0  0  1  0  0  0  0  0999 V2000
  185.2540  179.1430  141.6720 C   0  0  0  0  0  0  0  0  0  0  0  0
  186.2530  178.3460  143.8810 C   0  0  0  0  0  0  0  0  0  0  0  0
  184.7640  178.9010  143.2830 S   0  0  0  0  0  0  0  0  0  0  0  0
  187.1660  178.3260  139.1600 N   0  0  0  0  0  2  0  0  0  0  0  0
  190.2500  176.1740  142.8880 C   0  0  0  0  0  1  0  0  0  0  0  0
  186.4250  177.4540  145.0620 C   0  0  0  0  0  2  0  0  0  0  0  0
  188.9440  177.1280  144.8440 C   0  0  0  0  0  3  0  0  0  0  0  0
  187.4220  178.1860  140.5630 C   0  0  0  0  0  0  0  0  0  0  0  0
  187.1020  178.3400  142.7980 C   0  0  0  0  0  0  0  0  0  0  0  0
  188.2500  177.5220  142.4930 C   0  0  0  0  0  0  0  0  0  0  0  0
  186.5770  178.7490  141.6100 C   0  0  0  0  0  0  0  0  0  0  0  0
  187.8420  177.3990  145.5630 C   0  0  0  0  0  3  0  0  0  0  0  0
  188.3930  177.4730  141.0630 N   0  0  0  0  0  0  0  0  0  0  0  0
  189.0620  176.9290  143.3780 C   0  0  0  0  0  0  0  0  0  0  0  0
  182.5980  176.4200  139.5800 N   0  0  0  0  0  2  0  0  0  0  0  0
  181.2920  176.6490  137.7100 O   0  0  0  0  0  0  0  0  0  0  0  0
  182.0980  177.1290  138.5470 C   0  0  0  0  0  0  0  0  0  0  0  0
  183.5890  178.4000  139.8980 C   0  0  0  0  0  0  0  0  0  0  0  0
  183.4310  177.1310  140.3360 N   0  0  0  0  0  0  0  0  0  0  0  0
  184.4140  179.3780  140.5370 N   0  0  0  0  0  2  0  0  0  0  0  0
  182.6730  178.7110  138.5190 S   0  0  0  0  0  0  0  0  0  0  0  0
  188.1630  176.5210  136.0570 N   0  0  0  0  0  2  0  0  0  0  0  0
  189.5650  176.8790  135.8630 C   0  0  1  0  0  3  0  0  0  0  0  0
  190.2310  177.1280  137.2100 C   0  0  0  0  0  2  0  0  0  0  0  0
  187.3880  177.0620  137.1340 C   0  0  0  0  0  0  0  0  0  0  0  0
  186.0030  176.7370  137.2190 N   0  0  0  0  0  1  0  0  0  0  0  0
  189.4310  178.1820  137.9700 C   0  0  0  0  0  2  0  0  0  0  0  0
  187.9700  177.8110  138.0870 C   0  0  0  0  0  0  0  0  0  0  0  0
  191.5440  175.5350  135.6380 O   0  0  0  0  0  1  0  0  0  0  0  0
  190.2890  175.7940  135.0810 C   0  0  0  0  0  2  0  0  0  0  0  0
  1  3  1  0  0  0  0
  2  6  1  0  0  0  0
  3  2  1  0  0  0  0
  4  8  1  0  0  0  0
  5 14  1  0  0  0  0
  6 12  1  0  0  0  0
  7 12  2  0  0  0  0
  8 13  2  0  0  0  0
  8 11  1  0  0  0  0
  9  2  2  0  0  0  0
 10  9  1  0  0  0  0
 10 14  2  0  0  0  0
 11  1  2  0  0  0  0
 11  9  1  0  0  0  0
 13 10  1  0  0  0  0
 14  7  1  0  0  0  0
 15 19  1  0  0  0  0
 16 17  2  0  0  0  0
 17 15  1  0  0  0  0
 18 19  2  0  0  0  0
 18 20  1  0  0  0  0
 20  1  1  0  0  0  0
 21 17  1  0  0  0  0
 21 18  1  0  0  0  0
 22 25  1  0  0  0  0
 23 30  1  1  0  0  0
 23 22  1  0  0  0  0
 23 24  1  0  0  0  0
 24 27  1  0  0  0  0
 25 26  1  0  0  0  0
 25 28  2  0  0  0  0
 27 28  1  0  0  0  0
 28  4  1  0  0  0  0
 30 29  1  0  0  0  0
M  END
>  <MODEL>
4

>  <REMARK>
 VINA RESULT:      -8.8      2.744      6.558
  Name = 
  3 active torsions:
  status: ('A' for Active; 'I' for Inactive)
    1  A    between atoms: C_1  and  N_25
    2  A    between atoms: N_7  and  C_30
    3  A    between atoms: CA_8  and  C_22
                            x       y       z     vdW  Elec       q    Type
                         _______ _______ _______ _____ _____    ______ ____

>  <TORSDO>
F 3

$$$$
=
 OpenBabel10222417403D

 30 34  0  0  1  0  0  0  0  0999 V2000
  186.1360  178.3090  143.6630 C   0  0  0  0  0  0  0  0  0  0  0  0
  187.3830  177.7600  145.8210 C   0  0  0  0  0  0  0  0  0  0  0  0
  185.7840  177.9830  145.2960 S   0  0  0  0  0  0  0  0  0  0  0  0
  188.0590  177.8900  141.0630 N   0  0  0  0  0  2  0  0  0  0  0  0
  191.6970  176.4680  144.6380 C   0  0  0  0  0  1  0  0  0  0  0  0
  187.7930  176.9340  146.9920 C   0  0  0  0  0  2  0  0  0  0  0  0
  190.3120  177.1430  146.6550 C   0  0  0  0  0  3  0  0  0  0  0  0
  188.4040  177.8200  142.4510 C   0  0  0  0  0  0  0  0  0  0  0  0
  188.1630  177.9220  144.6990 C   0  0  0  0  0  0  0  0  0  0  0  0
  189.4410  177.3620  144.3390 C   0  0  0  0  0  0  0  0  0  0  0  0
  187.5090  178.2010  143.5390 C   0  0  0  0  0  0  0  0  0  0  0  0
  189.2120  177.1830  147.4250 C   0  0  0  0  0  3  0  0  0  0  0  0
  189.5250  177.3310  142.9050 N   0  0  0  0  0  0  0  0  0  0  0  0
  190.4010  176.9610  145.1840 C   0  0  0  0  0  0  0  0  0  0  0  0
  181.8610  179.0620  143.6760 N   0  0  0  0  0  2  0  0  0  0  0  0
  180.2750  179.0580  142.0200 O   0  0  0  0  0  0  0  0  0  0  0  0
  181.4690  178.9220  142.3930 C   0  0  0  0  0  0  0  0  0  0  0  0
  183.8060  178.5820  142.6800 C   0  0  0  0  0  0  0  0  0  0  0  0
  183.1690  178.8740  143.8370 N   0  0  0  0  0  0  0  0  0  0  0  0
  185.2140  178.3520  142.5700 N   0  0  0  0  0  2  0  0  0  0  0  0
  182.7510  178.5510  141.3680 S   0  0  0  0  0  0  0  0  0  0  0  0
  189.2870  177.4620  137.5710 N   0  0  0  0  0  2  0  0  0  0  0  0
  190.6520  176.9680  137.7250 C   0  0  1  0  0  3  0  0  0  0  0  0
  190.7690  176.1470  139.0020 C   0  0  0  0  0  2  0  0  0  0  0  0
  188.4770  177.8050  138.7030 C   0  0  0  0  0  0  0  0  0  0  0  0
  187.1830  178.3600  138.4820 N   0  0  0  0  0  1  0  0  0  0  0  0
  190.2900  176.9930  140.1790 C   0  0  0  0  0  2  0  0  0  0  0  0
  188.9020  177.5470  139.9520 C   0  0  0  0  0  0  0  0  0  0  0  0
  192.4560  176.0990  136.3960 O   0  0  0  0  0  1  0  0  0  0  0  0
  191.0650  176.1560  136.5060 C   0  0  0  0  0  2  0  0  0  0  0  0
  1  3  1  0  0  0  0
  2  6  1  0  0  0  0
  3  2  1  0  0  0  0
  4  8  1  0  0  0  0
  5 14  1  0  0  0  0
  6 12  1  0  0  0  0
  7 12  2  0  0  0  0
  8 13  2  0  0  0  0
  8 11  1  0  0  0  0
  9  2  2  0  0  0  0
 10  9  1  0  0  0  0
 10 14  2  0  0  0  0
 11  1  2  0  0  0  0
 11  9  1  0  0  0  0
 13 10  1  0  0  0  0
 14  7  1  0  0  0  0
 15 19  1  0  0  0  0
 16 17  2  0  0  0  0
 17 15  1  0  0  0  0
 18 19  2  0  0  0  0
 20 18  1  0  0  0  0
 20  1  1  0  0  0  0
 21 17  1  0  0  0  0
 21 18  1  0  0  0  0
 22 23  1  0  0  0  0
 22 25  1  0  0  0  0
 23 30  1  6  0  0  0
 23 24  1  0  0  0  0
 24 27  1  0  0  0  0
 25 28  2  0  0  0  0
 26 25  1  0  0  0  0
 28 27  1  0  0  0  0
 28  4  1  0  0  0  0
 29 30  1  0  0  0  0
M  END
>  <MODEL>
5

>  <REMARK>
 VINA RESULT:      -8.7      2.344      6.976
  Name = 
  3 active torsions:
  status: ('A' for Active; 'I' for Inactive)
    1  A    between atoms: C_1  and  N_25
    2  A    between atoms: N_7  and  C_30
    3  A    between atoms: CA_8  and  C_22
                            x       y       z     vdW  Elec       q    Type
                         _______ _______ _______ _____ _____    ______ ____

>  <TORSDO>
F 3

$$$$
=
 OpenBabel10222417403D

 30 34  0  0  1  0  0  0  0  0999 V2000
  189.2200  177.8270  142.5240 C   0  0  0  0  0  0  0  0  0  0  0  0
  189.9400  177.5230  140.0940 C   0  0  0  0  0  0  0  0  0  0  0  0
  190.5170  177.1590  141.6490 S   0  0  0  0  0  0  0  0  0  0  0  0
  186.0550  178.5900  142.7190 N   0  0  0  0  0  0  0  0  0  0  0  0
  186.1870  178.2530  137.4370 C   0  0  0  0  0  1  0  0  0  0  0  0
  190.2860  176.7730  138.8540 C   0  0  0  0  0  2  0  0  0  0  0  0
  188.7100  178.0200  137.2850 C   0  0  0  0  0  3  0  0  0  0  0  0
  186.8760  178.4670  141.5510 C   0  0  0  0  0  0  0  0  0  0  0  0
  188.7270  178.1430  140.2900 C   0  0  0  0  0  0  0  0  0  0  0  0
  187.5430  178.2000  139.4700 C   0  0  0  0  0  0  0  0  0  0  0  0
  188.3250  178.2980  141.5820 C   0  0  0  0  0  0  0  0  0  0  0  0
  189.9120  177.5060  137.5940 C   0  0  0  0  0  3  0  0  0  0  0  0
  186.4130  178.4090  140.3330 N   0  0  0  0  0  0  0  0  0  0  0  0
  187.4950  178.1010  138.1340 C   0  0  0  0  0  0  0  0  0  0  0  0
  191.9250  177.1280  145.8460 N   0  0  0  0  0  2  0  0  0  0  0  0
  191.5790  176.7350  148.0780 O   0  0  0  0  0  0  0  0  0  0  0  0
  191.1320  176.9700  146.9260 C   0  0  0  0  0  0  0  0  0  0  0  0
  189.8980  177.3960  144.9370 C   0  0  0  0  0  0  0  0  0  0  0  0
  191.2350  177.3680  144.7340 N   0  0  0  0  0  0  0  0  0  0  0  0
  188.9320  177.6520  143.9140 N   0  0  0  0  0  2  0  0  0  0  0  0
  189.4990  177.1250  146.5510 S   0  0  0  0  0  0  0  0  0  0  0  0
  182.5830  179.0030  144.0050 N   0  0  0  0  0  0  0  0  0  0  0  0
  181.7840  179.2730  142.8140 C   0  0  1  0  0  3  0  0  0  0  0  0
  182.3960  178.5740  141.6060 C   0  0  0  0  0  2  0  0  0  0  0  0
  184.0050  178.8320  143.9380 C   0  0  0  0  0  0  0  0  0  0  0  0
  184.7360  178.6550  145.1480 N   0  0  0  0  0  1  0  0  0  0  0  0
  183.8550  179.0030  141.4740 C   0  0  0  0  0  2  0  0  0  0  0  0
  184.6310  178.7760  142.7500 C   0  0  0  0  0  0  0  0  0  0  0  0
  180.1470  178.4050  144.3430 O   0  0  0  0  0  1  0  0  0  0  0  0
  180.3420  178.8400  143.0300 C   0  0  0  0  0  2  0  0  0  0  0  0
  1 20  1  0  0  0  0
  2  9  2  0  0  0  0
  2  3  1  0  0  0  0
  3  1  1  0  0  0  0
  4 28  2  0  0  0  0
  5 14  1  0  0  0  0
  6  2  1  0  0  0  0
  7 12  2  0  0  0  0
  7 14  1  0  0  0  0
  8 11  1  0  0  0  0
  8  4  1  0  0  0  0
  9 11  1  0  0  0  0
 10  9  1  0  0  0  0
 10 13  1  0  0  0  0
 11  1  2  0  0  0  0
 12  6  1  0  0  0  0
 13  8  2  0  0  0  0
 14 10  2  0  0  0  0
 15 17  1  0  0  0  0
 17 16  2  0  0  0  0
 18 21  1  0  0  0  0
 19 18  2  0  0  0  0
 19 15  1  0  0  0  0
 20 18  1  0  0  0  0
 21 17  1  0  0  0  0
 23 30  1  1  0  0  0
 23 22  1  0  0  0  0
 24 23  1  0  0  0  0
 25 22  2  0  0  0  0
 25 26  1  0  0  0  0
 27 24  1  0  0  0  0
 27 28  1  0  0  0  0
 28 25  1  0  0  0  0
 30 29  1  0  0  0  0
M  END
>  <MODEL>
6

>  <REMARK>
 VINA RESULT:      -8.7      3.251      5.764
  Name = 
  3 active torsions:
  status: ('A' for Active; 'I' for Inactive)
    1  A    between atoms: C_1  and  N_25
    2  A    between atoms: N_7  and  C_30
    3  A    between atoms: CA_8  and  C_22
                            x       y       z     vdW  Elec       q    Type
                         _______ _______ _______ _____ _____    ______ ____

>  <TORSDO>
F 3

$$$$
=
 OpenBabel10222417403D

 30 34  0  0  1  0  0  0  0  0999 V2000
  184.3390  179.2240  141.8100 C   0  0  0  0  0  0  0  0  0  0  0  0
  184.4830  178.7900  144.3200 C   0  0  0  0  0  0  0  0  0  0  0  0
  183.2910  179.0540  143.1400 S   0  0  0  0  0  0  0  0  0  0  0  0
  187.1520  178.4910  140.3330 N   0  0  0  0  0  2  0  0  0  0  0  0
  188.7600  177.1780  145.2040 C   0  0  0  0  0  1  0  0  0  0  0  0
  184.2770  178.0430  145.5940 C   0  0  0  0  0  2  0  0  0  0  0  0
  186.7030  178.0900  146.3780 C   0  0  0  0  0  3  0  0  0  0  0  0
  186.8570  178.5170  141.7350 C   0  0  0  0  0  0  0  0  0  0  0  0
  185.6810  178.8170  143.6440 C   0  0  0  0  0  0  0  0  0  0  0  0
  186.9370  178.1620  143.9070 C   0  0  0  0  0  0  0  0  0  0  0  0
  185.6160  179.0340  142.3020 C   0  0  0  0  0  0  0  0  0  0  0  0
  185.3860  178.2510  146.5890 C   0  0  0  0  0  3  0  0  0  0  0  0
  187.6290  178.0080  142.6560 N   0  0  0  0  0  0  0  0  0  0  0  0
  187.4020  177.7820  145.1050 C   0  0  0  0  0  0  0  0  0  0  0  0
  182.5250  176.0930  139.4100 N   0  0  0  0  0  2  0  0  0  0  0  0
  182.0080  175.9430  137.1820 O   0  0  0  0  0  0  0  0  0  0  0  0
  182.4700  176.5890  138.1570 C   0  0  0  0  0  0  0  0  0  0  0  0
  183.4130  178.1250  139.7110 C   0  0  0  0  0  0  0  0  0  0  0  0
  183.0510  176.9530  140.2800 N   0  0  0  0  0  0  0  0  0  0  0  0
  183.9850  179.2250  140.4230 N   0  0  0  0  0  2  0  0  0  0  0  0
  183.0810  178.1550  138.0600 S   0  0  0  0  0  0  0  0  0  0  0  0
  189.6870  177.6290  137.7410 N   0  0  0  0  0  2  0  0  0  0  0  0
  190.8410  177.1630  138.5030 C   0  0  1  0  0  3  0  0  0  0  0  0
  190.3800  176.5100  139.8000 C   0  0  0  0  0  2  0  0  0  0  0  0
  188.5000  178.1090  138.3870 C   0  0  0  0  0  0  0  0  0  0  0  0
  187.4410  178.6280  137.5860 N   0  0  0  0  0  1  0  0  0  0  0  0
  189.5020  177.4960  140.5650 C   0  0  0  0  0  2  0  0  0  0  0  0
  188.3600  178.0120  139.7200 C   0  0  0  0  0  0  0  0  0  0  0  0
  191.4150  174.8790  138.0250 O   0  0  0  0  0  1  0  0  0  0  0  0
  191.6780  176.2040  137.6690 C   0  0  0  0  0  2  0  0  0  0  0  0
  1 11  2  0  0  0  0
  1  3  1  0  0  0  0
  2  6  1  0  0  0  0
  3  2  1  0  0  0  0
  4  8  1  0  0  0  0
  6 12  1  0  0  0  0
  7 12  2  0  0  0  0
  8 11  1  0  0  0  0
  8 13  2  0  0  0  0
  9 10  1  0  0  0  0
  9  2  2  0  0  0  0
 10 14  2  0  0  0  0
 11  9  1  0  0  0  0
 13 10  1  0  0  0  0
 14  5  1  0  0  0  0
 14  7  1  0  0  0  0
 15 19  1  0  0  0  0
 16 17  2  0  0  0  0
 17 15  1  0  0  0  0
 18 19  2  0  0  0  0
 18 20  1  0  0  0  0
 20  1  1  0  0  0  0
 21 17  1  0  0  0  0
 21 18  1  0  0  0  0
 22 25  1  0  0  0  0
 22 23  1  0  0  0  0
 23 30  1  6  0  0  0
 23 24  1  0  0  0  0
 24 27  1  0  0  0  0
 25 28  2  0  0  0  0
 26 25  1  0  0  0  0
 28  4  1  0  0  0  0
 28 27  1  0  0  0  0
 30 29  1  0  0  0  0
M  END
>  <MODEL>
7

>  <REMARK>
 VINA RESULT:      -8.7      2.743      6.391
  Name = 
  3 active torsions:
  status: ('A' for Active; 'I' for Inactive)
    1  A    between atoms: C_1  and  N_25
    2  A    between atoms: N_7  and  C_30
    3  A    between atoms: CA_8  and  C_22
                            x       y       z     vdW  Elec       q    Type
                         _______ _______ _______ _____ _____    ______ ____

>  <TORSDO>
F 3

$$$$
=
 OpenBabel10222417403D

 30 34  0  0  1  0  0  0  0  0999 V2000
  188.2960  178.2750  139.1960 C   0  0  0  0  0  0  0  0  0  0  0  0
  185.7510  178.4590  139.2330 C   0  0  0  0  0  0  0  0  0  0  0  0
  186.9890  178.1450  138.1140 S   0  0  0  0  0  0  0  0  0  0  0  0
  189.4910  177.9670  142.2140 N   0  0  0  0  0  2  0  0  0  0  0  0
  184.4110  178.2180  143.6850 C   0  0  0  0  0  1  0  0  0  0  0  0
  184.3430  177.9860  139.1090 C   0  0  0  0  0  2  0  0  0  0  0  0
  183.5340  178.8170  141.3790 C   0  0  0  0  0  3  0  0  0  0  0  0
  188.1420  178.2280  141.8080 C   0  0  0  0  0  0  0  0  0  0  0  0
  186.3860  178.6380  140.4400 C   0  0  0  0  0  0  0  0  0  0  0  0
  185.9460  178.3970  141.7920 C   0  0  0  0  0  0  0  0  0  0  0  0
  187.7430  178.5280  140.4360 C   0  0  0  0  0  0  0  0  0  0  0  0
  183.3990  178.6840  140.0500 C   0  0  0  0  0  3  0  0  0  0  0  0
  187.1090  178.1490  142.6000 N   0  0  0  0  0  0  0  0  0  0  0  0
  184.6820  178.4220  142.2340 C   0  0  0  0  0  0  0  0  0  0  0  0
  189.8590  174.6140  137.4620 N   0  0  0  0  0  2  0  0  0  0  0  0
  191.9890  173.8310  137.1390 O   0  0  0  0  0  0  0  0  0  0  0  0
  191.2010  174.7250  137.5410 C   0  0  0  0  0  0  0  0  0  0  0  0
  190.0700  176.6290  138.4100 C   0  0  0  0  0  0  0  0  0  0  0  0
  189.2260  175.6800  137.9470 N   0  0  0  0  0  0  0  0  0  0  0  0
  189.6520  177.8790  138.9660 N   0  0  0  0  0  2  0  0  0  0  0  0
  191.6840  176.1830  138.2280 S   0  0  0  0  0  0  0  0  0  0  0  0
  191.6710  176.9130  145.0450 N   0  0  0  0  0  2  0  0  0  0  0  0
  190.8980  177.2380  146.2400 C   0  0  1  0  0  3  0  0  0  0  0  0
  189.4080  177.1220  145.9430 C   0  0  0  0  0  2  0  0  0  0  0  0
  191.1920  177.2170  143.7290 C   0  0  0  0  0  0  0  0  0  0  0  0
  192.0320  176.9510  142.6100 N   0  0  0  0  0  1  0  0  0  0  0  0
  189.0740  178.0010  144.7420 C   0  0  0  0  0  2  0  0  0  0  0  0
  189.9440  177.6860  143.5480 C   0  0  0  0  0  0  0  0  0  0  0  0
  192.4230  175.5730  147.0620 O   0  0  0  0  0  1  0  0  0  0  0  0
  191.3020  176.3360  147.3970 C   0  0  0  0  0  2  0  0  0  0  0  0
  1 11  2  0  0  0  0
  2  9  2  0  0  0  0
  3  1  1  0  0  0  0
  3  2  1  0  0  0  0
  4 28  1  0  0  0  0
  6  2  1  0  0  0  0
  6 12  1  0  0  0  0
  7 14  1  0  0  0  0
  8  4  1  0  0  0  0
  8 13  2  0  0  0  0
  9 10  1  0  0  0  0
 10 14  2  0  0  0  0
 10 13  1  0  0  0  0
 11  9  1  0  0  0  0
 11  8  1  0  0  0  0
 12  7  2  0  0  0  0
 14  5  1  0  0  0  0
 15 17  1  0  0  0  0
 15 19  1  0  0  0  0
 16 17  2  0  0  0  0
 17 21  1  0  0  0  0
 18 20  1  0  0  0  0
 19 18  2  0  0  0  0
 20  1  1  0  0  0  0
 21 18  1  0  0  0  0
 22 23  1  0  0  0  0
 23 30  1  1  0  0  0
 24 23  1  0  0  0  0
 25 22  1  0  0  0  0
 26 25  1  0  0  0  0
 27 24  1  0  0  0  0
 28 25  2  0  0  0  0
 28 27  1  0  0  0  0
 29 30  1  0  0  0  0
M  END
>  <MODEL>
8

>  <REMARK>
 VINA RESULT:      -8.6      3.616      6.721
  Name = 
  3 active torsions:
  status: ('A' for Active; 'I' for Inactive)
    1  A    between atoms: C_1  and  N_25
    2  A    between atoms: N_7  and  C_30
    3  A    between atoms: CA_8  and  C_22
                            x       y       z     vdW  Elec       q    Type
                         _______ _______ _______ _____ _____    ______ ____

>  <TORSDO>
F 3

$$$$
=
 OpenBabel10222417403D

 30 34  0  0  1  0  0  0  0  0999 V2000
  185.2870  178.7350  139.3810 C   0  0  0  0  0  0  0  0  0  0  0  0
  183.0400  178.8950  140.5800 C   0  0  0  0  0  0  0  0  0  0  0  0
  183.6290  178.6540  139.0060 S   0  0  0  0  0  0  0  0  0  0  0  0
  187.7170  178.2700  141.5050 N   0  0  0  0  0  0  0  0  0  0  0  0
  183.8640  178.3940  145.1350 C   0  0  0  0  0  1  0  0  0  0  0  0
  181.7210  178.4170  141.0850 C   0  0  0  0  0  2  0  0  0  0  0  0
  182.0460  179.1130  143.5160 C   0  0  0  0  0  3  0  0  0  0  0  0
  186.3350  178.5420  141.7710 C   0  0  0  0  0  0  0  0  0  0  0  0
  184.1570  179.0120  141.3750 C   0  0  0  0  0  0  0  0  0  0  0  0
  184.3750  178.6920  142.7640 C   0  0  0  0  0  0  0  0  0  0  0  0
  185.3620  178.9140  140.7490 C   0  0  0  0  0  0  0  0  0  0  0  0
  181.3200  179.0530  142.3880 C   0  0  0  0  0  3  0  0  0  0  0  0
  185.7730  178.4090  142.9410 N   0  0  0  0  0  0  0  0  0  0  0  0
  183.4500  178.6810  143.7330 C   0  0  0  0  0  0  0  0  0  0  0  0
  185.5490  175.5990  136.3910 N   0  0  0  0  0  2  0  0  0  0  0  0
  187.2640  174.8520  135.0650 O   0  0  0  0  0  0  0  0  0  0  0  0
  186.8200  175.6380  135.9420 C   0  0  0  0  0  0  0  0  0  0  0  0
  186.3810  177.2890  137.5970 C   0  0  0  0  0  0  0  0  0  0  0  0
  185.3020  176.5240  137.3160 N   0  0  0  0  0  0  0  0  0  0  0  0
  186.3830  178.3650  138.5400 N   0  0  0  0  0  2  0  0  0  0  0  0
  187.7250  176.8480  136.6820 S   0  0  0  0  0  0  0  0  0  0  0  0
  190.9650  177.1890  142.9750 N   0  0  0  0  0  0  0  0  0  0  0  0
  190.7780  177.3320  144.4150 C   0  0  1  0  0  3  0  0  0  0  0  0
  189.3160  177.0990  144.7760 C   0  0  0  0  0  2  0  0  0  0  0  0
  189.9440  177.5590  142.0400 C   0  0  0  0  0  0  0  0  0  0  0  0
  190.2210  177.4740  140.6450 N   0  0  0  0  0  1  0  0  0  0  0  0
  188.4470  178.0440  143.9510 C   0  0  0  0  0  2  0  0  0  0  0  0
  188.7210  177.9190  142.4700 C   0  0  0  0  0  0  0  0  0  0  0  0
  192.0340  176.9000  146.4180 O   0  0  0  0  0  1  0  0  0  0  0  0
  191.6920  176.3770  145.1690 C   0  0  0  0  0  2  0  0  0  0  0  0
  1 11  2  0  0  0  0
  2  6  1  0  0  0  0
  2  9  2  0  0  0  0
  3  1  1  0  0  0  0
  3  2  1  0  0  0  0
  4  8  1  0  0  0  0
  4 28  2  0  0  0  0
  6 12  1  0  0  0  0
  7 14  1  0  0  0  0
  8 13  2  0  0  0  0
  9 10  1  0  0  0  0
 10 13  1  0  0  0  0
 10 14  2  0  0  0  0
 11  9  1  0  0  0  0
 11  8  1  0  0  0  0
 12  7  2  0  0  0  0
 14  5  1  0  0  0  0
 15 19  1  0  0  0  0
 16 17  2  0  0  0  0
 17 15  1  0  0  0  0
 17 21  1  0  0  0  0
 18 20  1  0  0  0  0
 19 18  2  0  0  0  0
 20  1  1  0  0  0  0
 21 18  1  0  0  0  0
 22 23  1  0  0  0  0
 23 24  1  0  0  0  0
 23 30  1  1  0  0  0
 25 28  1  0  0  0  0
 25 22  2  0  0  0  0
 26 25  1  0  0  0  0
 27 24  1  0  0  0  0
 28 27  1  0  0  0  0
 30 29  1  0  0  0  0
M  END
>  <MODEL>
9

>  <REMARK>
 VINA RESULT:      -8.4      3.238      6.541
  Name = 
  3 active torsions:
  status: ('A' for Active; 'I' for Inactive)
    1  A    between atoms: C_1  and  N_25
    2  A    between atoms: N_7  and  C_30
    3  A    between atoms: CA_8  and  C_22
                            x       y       z     vdW  Elec       q    Type
                         _______ _______ _______ _____ _____    ______ ____

>  <TORSDO>
F 3

$$$$
