=
 OpenBabel10222421263D

 40 43  0  0  1  0  0  0  0  0999 V2000
  191.2430  177.2430  142.4130 N   0  0  0  0  0  0  0  0  0  0  0  0
  190.4950  177.3450  141.3510 C   0  0  0  0  0  0  0  0  0  0  0  0
  191.5230  176.7620  144.7310 C   0  0  0  0  0  2  0  0  0  0  0  0
  189.0300  177.1550  141.4340 C   0  0  0  0  0  0  0  0  0  0  0  0
  189.2090  176.9160  143.9120 C   0  0  1  0  0  3  0  0  0  0  0  0
  188.4390  176.9330  142.6150 C   0  0  0  0  0  3  0  0  0  0  0  0
  190.7030  176.9720  143.7100 C   0  0  0  0  0  0  0  0  0  0  0  0
  188.7280  177.8630  144.8480 O   0  0  0  0  0  0  0  0  0  0  0  0
  186.3790  178.3350  147.2560 C   0  0  1  0  0  3  0  0  0  0  0  0
  187.7540  178.6300  147.8050 C   0  0  0  0  0  2  0  0  0  0  0  0
  185.6670  179.5220  147.0960 O   0  0  0  0  0  1  0  0  0  0  0  0
  188.6470  177.5620  147.2200 C   0  0  0  0  0  2  0  0  0  0  0  0
  188.0390  177.1960  145.8790 C   0  0  1  0  0  3  0  0  0  0  0  0
  186.5970  177.6760  145.9090 C   0  0  0  0  0  2  0  0  0  0  0  0
  191.0690  177.6200  140.1050 O   0  0  0  0  0  0  0  0  0  0  0  0
  192.3150  177.0700  139.6880 C   0  0  0  0  0  2  0  0  0  0  0  0
  191.1900  175.2730  138.5700 O   0  0  0  0  0  1  0  0  0  0  0  0
  192.1460  176.2780  138.3990 C   0  0  2  0  0  3  0  0  0  0  0  0
  194.0640  176.5420  136.9150 N   0  0  0  0  0  1  0  0  0  0  0  0
  193.4800  175.6950  137.9390 C   0  0  2  0  0  3  0  0  0  0  0  0
  193.3350  174.2770  137.4080 C   0  0  0  0  0  1  0  0  0  0  0  0
  188.2600  177.1860  140.2270 N   0  0  0  0  0  2  0  0  0  0  0  0
  186.8790  178.4560  138.7060 C   0  0  0  0  0  0  0  0  0  0  0  0
  185.8050  178.6970  139.4050 N   0  0  0  0  0  0  0  0  0  0  0  0
  186.2840  177.0370  136.8650 N   0  0  0  0  0  1  0  0  0  0  0  0
  188.4690  178.5580  136.5800 S   0  0  0  0  0  0  0  0  0  0  0  0
  186.7890  178.3480  137.2310 C   0  0  2  0  0  3  0  0  0  0  0  0
  189.2070  178.0220  138.1550 C   0  0  0  0  0  2  0  0  0  0  0  0
  188.2450  178.3090  139.2950 C   0  0  2  0  0  3  0  0  0  0  0  0
  186.7010  179.4230  141.4550 O   0  0  0  0  0  0  0  0  0  0  0  0
  185.7300  178.9320  140.8200 C   0  0  0  0  0  0  0  0  0  0  0  0
  184.4650  178.6240  141.5580 C   0  0  2  0  0  3  0  0  0  0  0  0
  183.6740  178.5670  143.8620 N   0  0  0  0  0  1  0  0  0  0  0  0
  184.7720  178.2000  142.9840 C   0  0  0  0  0  2  0  0  0  0  0  0
  183.7330  177.5590  140.8830 N   0  0  0  0  0  2  0  0  0  0  0  0
  181.2880  178.6590  140.9360 S   0  0  0  0  0  0  0  0  0  0  0  0
  182.4590  177.7380  140.2480 C   0  0  0  0  0  0  0  0  0  0  0  0
  183.3180  176.4460  138.4570 O   0  0  0  0  0  0  0  0  0  0  0  0
  182.1290  176.9330  139.0340 C   0  0  2  0  0  3  0  0  0  0  0  0
  182.7210  177.5500  137.8260 C   0  0  0  0  0  2  0  0  0  0  0  0
  1  7  1  0  0  0  0
  2  4  1  0  0  0  0
  2  1  2  0  0  0  0
  4  6  2  0  0  0  0
  5  8  1  1  0  0  0
  6  5  1  0  0  0  0
  7  5  1  0  0  0  0
  7  3  2  0  0  0  0
  9 11  1  6  0  0  0
  9 10  1  0  0  0  0
 12 10  1  0  0  0  0
 13  8  1  6  0  0  0
 13 14  1  0  0  0  0
 13 12  1  0  0  0  0
 14  9  1  0  0  0  0
 15  2  1  0  0  0  0
 16 15  1  0  0  0  0
 18 17  1  1  0  0  0
 18 16  1  0  0  0  0
 19 20  1  0  0  0  0
 20 21  1  6  0  0  0
 20 18  1  0  0  0  0
 22  4  1  0  0  0  0
 23 29  1  0  0  0  0
 23 24  2  0  0  0  0
 24 31  1  0  0  0  0
 26 27  1  0  0  0  0
 26 28  1  0  0  0  0
 27 25  1  1  0  0  0
 27 23  1  0  0  0  0
 28 29  1  0  0  0  0
 29 22  1  1  0  0  0
 31 30  2  0  0  0  0
 31 32  1  0  0  0  0
 32 34  1  1  0  0  0
 34 33  1  0  0  0  0
 35 32  1  0  0  0  0
 37 35  1  0  0  0  0
 37 36  2  0  0  0  0
 38 39  1  0  0  0  0
 39 37  1  1  0  0  0
 40 38  1  0  0  0  0
 40 39  1  0  0  0  0
M  END
>  <MODEL>
1

>  <REMARK>
 VINA RESULT:      -7.6      0.000      0.000
  Name = 
  14 active torsions:
  status: ('A' for Active; 'I' for Inactive)
    1  A    between atoms: N_4  and  C_22
    2  A    between atoms: C_6  and  O_31
    3  A    between atoms: C_14  and  C_34
    4  A    between atoms: C_16  and  C_35
    5  A    between atoms: O_17  and  C_32
    6  A    between atoms: O_17  and  C_33
    7  A    between atoms: C_18  and  N_36
    8  A    between atoms: C_22  and  C_27
    9  A    between atoms: C_23  and  C_27
   10  A    between atoms: C_26  and  O_31
   11  A    between atoms: C_26  and  C_35
   12  A    between atoms: C_27  and  N_39
   13  A    between atoms: C_29  and  N_36
   14  A    between atoms: C_34  and  N_39
                            x       y       z     vdW  Elec       q    Type
                         _______ _______ _______ _____ _____    ______ ____

>  <TORSDO>
F 14

$$$$
=
 OpenBabel10222421263D

 40 43  0  0  1  0  0  0  0  0999 V2000
  191.1330  177.0560  142.2640 N   0  0  0  0  0  0  0  0  0  0  0  0
  190.3900  177.2480  141.2110 C   0  0  0  0  0  0  0  0  0  0  0  0
  191.3830  176.4910  144.5660 C   0  0  0  0  0  2  0  0  0  0  0  0
  188.9150  177.1770  141.2990 C   0  0  0  0  0  0  0  0  0  0  0  0
  189.0860  176.8560  143.7680 C   0  0  1  0  0  3  0  0  0  0  0  0
  188.3140  176.9720  142.4770 C   0  0  0  0  0  3  0  0  0  0  0  0
  190.5790  176.7950  143.5570 C   0  0  0  0  0  0  0  0  0  0  0  0
  188.6890  177.8140  144.7330 O   0  0  0  0  0  0  0  0  0  0  0  0
  186.5940  178.3110  147.3610 C   0  0  1  0  0  3  0  0  0  0  0  0
  188.0180  178.6100  147.7650 C   0  0  0  0  0  2  0  0  0  0  0  0
  185.8700  179.4970  147.2610 O   0  0  0  0  0  1  0  0  0  0  0  0
  188.8480  177.5340  147.1030 C   0  0  0  0  0  2  0  0  0  0  0  0
  188.1070  177.1570  145.8330 C   0  0  1  0  0  3  0  0  0  0  0  0
  186.6750  177.6390  146.0050 C   0  0  0  0  0  2  0  0  0  0  0  0
  190.9800  177.5090  139.9690 O   0  0  0  0  0  0  0  0  0  0  0  0
  192.1950  176.8990  139.5440 C   0  0  0  0  0  2  0  0  0  0  0  0
  191.0920  175.0660  138.4610 O   0  0  0  0  0  1  0  0  0  0  0  0
  191.9810  176.1240  138.2510 C   0  0  2  0  0  3  0  0  0  0  0  0
  194.3670  175.8310  138.6630 N   0  0  0  0  0  1  0  0  0  0  0  0
  193.3090  175.6210  137.6910 C   0  0  2  0  0  3  0  0  0  0  0  0
  193.6760  176.3030  136.3820 C   0  0  0  0  0  1  0  0  0  0  0  0
  188.1450  177.3040  140.0980 N   0  0  0  0  0  2  0  0  0  0  0  0
  186.9250  178.5060  138.3970 C   0  0  0  0  0  0  0  0  0  0  0  0
  185.7150  178.5650  138.8780 N   0  0  0  0  0  0  0  0  0  0  0  0
  186.8860  177.1650  136.4070 N   0  0  0  0  0  1  0  0  0  0  0  0
  188.8640  178.9550  136.6370 S   0  0  0  0  0  0  0  0  0  0  0  0
  187.1340  178.4980  136.9300 C   0  0  2  0  0  3  0  0  0  0  0  0
  189.3520  178.3980  138.2990 C   0  0  0  0  0  2  0  0  0  0  0  0
  188.1590  178.4820  139.2380 C   0  0  2  0  0  3  0  0  0  0  0  0
  186.0350  179.3510  141.0710 O   0  0  0  0  0  0  0  0  0  0  0  0
  185.3390  178.6840  140.2590 C   0  0  0  0  0  0  0  0  0  0  0  0
  184.0800  178.0370  140.7450 C   0  0  2  0  0  3  0  0  0  0  0  0
  182.5840  176.2710  139.9860 N   0  0  0  0  0  1  0  0  0  0  0  0
  183.2880  177.4740  139.5770 C   0  0  0  0  0  2  0  0  0  0  0  0
  183.2610  179.0040  141.4660 N   0  0  0  0  0  2  0  0  0  0  0  0
  181.1800  179.0080  143.1550 S   0  0  0  0  0  0  0  0  0  0  0  0
  182.7690  178.8050  142.7980 C   0  0  0  0  0  0  0  0  0  0  0  0
  183.4180  179.4330  144.9870 O   0  0  0  0  0  0  0  0  0  0  0  0
  183.7400  178.5840  143.9110 C   0  0  2  0  0  3  0  0  0  0  0  0
  184.5050  179.8210  144.1850 C   0  0  0  0  0  2  0  0  0  0  0  0
  1  7  1  0  0  0  0
  2  4  1  0  0  0  0
  2  1  2  0  0  0  0
  4  6  2  0  0  0  0
  5  8  1  1  0  0  0
  6  5  1  0  0  0  0
  7  5  1  0  0  0  0
  7  3  2  0  0  0  0
  9 11  1  6  0  0  0
  9 10  1  0  0  0  0
 12 10  1  0  0  0  0
 13  8  1  6  0  0  0
 13 14  1  0  0  0  0
 13 12  1  0  0  0  0
 14  9  1  0  0  0  0
 15  2  1  0  0  0  0
 16 15  1  0  0  0  0
 18 17  1  1  0  0  0
 18 16  1  0  0  0  0
 20 21  1  6  0  0  0
 20 18  1  0  0  0  0
 20 19  1  0  0  0  0
 22  4  1  0  0  0  0
 23 24  2  0  0  0  0
 23 29  1  0  0  0  0
 24 31  1  0  0  0  0
 26 27  1  0  0  0  0
 26 28  1  0  0  0  0
 27 25  1  1  0  0  0
 27 23  1  0  0  0  0
 28 29  1  0  0  0  0
 29 22  1  1  0  0  0
 31 32  1  0  0  0  0
 31 30  2  0  0  0  0
 32 34  1  6  0  0  0
 32 35  1  0  0  0  0
 34 33  1  0  0  0  0
 35 37  1  0  0  0  0
 37 36  2  0  0  0  0
 39 37  1  6  0  0  0
 39 40  1  0  0  0  0
 39 38  1  0  0  0  0
 40 38  1  0  0  0  0
M  END
>  <MODEL>
2

>  <REMARK>
 VINA RESULT:      -7.4      1.180      2.207
  Name = 
  14 active torsions:
  status: ('A' for Active; 'I' for Inactive)
    1  A    between atoms: N_4  and  C_22
    2  A    between atoms: C_6  and  O_31
    3  A    between atoms: C_14  and  C_34
    4  A    between atoms: C_16  and  C_35
    5  A    between atoms: O_17  and  C_32
    6  A    between atoms: O_17  and  C_33
    7  A    between atoms: C_18  and  N_36
    8  A    between atoms: C_22  and  C_27
    9  A    between atoms: C_23  and  C_27
   10  A    between atoms: C_26  and  O_31
   11  A    between atoms: C_26  and  C_35
   12  A    between atoms: C_27  and  N_39
   13  A    between atoms: C_29  and  N_36
   14  A    between atoms: C_34  and  N_39
                            x       y       z     vdW  Elec       q    Type
                         _______ _______ _______ _____ _____    ______ ____

>  <TORSDO>
F 14

$$$$
=
 OpenBabel10222421263D

 40 43  0  0  1  0  0  0  0  0999 V2000
  183.0800  178.8120  142.4500 N   0  0  0  0  0  0  0  0  0  0  0  0
  182.8840  178.5570  141.1870 C   0  0  0  0  0  0  0  0  0  0  0  0
  184.5250  179.3170  144.2760 C   0  0  0  0  0  2  0  0  0  0  0  0
  184.0230  178.4140  140.2550 C   0  0  0  0  0  0  0  0  0  0  0  0
  185.6070  178.6600  142.1680 C   0  0  1  0  0  3  0  0  0  0  0  0
  185.2820  178.4850  140.7050 C   0  0  0  0  0  3  0  0  0  0  0  0
  184.3890  178.9410  143.0120 C   0  0  0  0  0  0  0  0  0  0  0  0
  186.4220  177.6190  142.6770 O   0  0  0  0  0  0  0  0  0  0  0  0
  189.7660  177.0900  142.4010 C   0  0  1  0  0  3  0  0  0  0  0  0
  189.2250  176.3790  143.6180 C   0  0  0  0  0  2  0  0  0  0  0  0
  190.0900  176.1620  141.4130 O   0  0  0  0  0  1  0  0  0  0  0  0
  188.2270  177.3400  144.2220 C   0  0  0  0  0  2  0  0  0  0  0  0
  187.6690  178.1460  143.0630 C   0  0  1  0  0  3  0  0  0  0  0  0
  188.6540  177.9970  141.9140 C   0  0  0  0  0  2  0  0  0  0  0  0
  181.5830  178.4290  140.6850 O   0  0  0  0  0  0  0  0  0  0  0  0
  180.5300  177.8020  141.4110 C   0  0  0  0  0  2  0  0  0  0  0  0
  179.3630  179.6890  140.5030 O   0  0  0  0  0  1  0  0  0  0  0  0
  179.3270  178.7280  141.5180 C   0  0  2  0  0  3  0  0  0  0  0  0
  179.9940  180.6420  142.8750 N   0  0  0  0  0  1  0  0  0  0  0  0
  179.2650  179.3860  142.8940 C   0  0  2  0  0  3  0  0  0  0  0  0
  179.8220  178.4870  143.9860 C   0  0  0  0  0  1  0  0  0  0  0  0
  183.7560  178.2250  138.8600 N   0  0  0  0  0  2  0  0  0  0  0  0
  184.1120  177.0600  136.7760 C   0  0  0  0  0  0  0  0  0  0  0  0
  185.2810  177.4870  136.3870 N   0  0  0  0  0  0  0  0  0  0  0  0
  182.4670  177.8140  135.2000 N   0  0  0  0  0  1  0  0  0  0  0  0
  181.8770  175.6310  136.6330 S   0  0  0  0  0  0  0  0  0  0  0  0
  183.1090  176.6420  135.7680 C   0  0  2  0  0  3  0  0  0  0  0  0
  182.2740  176.4100  138.2290 C   0  0  0  0  0  2  0  0  0  0  0  0
  183.7050  176.9220  138.2070 C   0  0  2  0  0  3  0  0  0  0  0  0
  186.5600  179.0080  137.6440 O   0  0  0  0  0  0  0  0  0  0  0  0
  186.3970  177.8310  137.2240 C   0  0  0  0  0  0  0  0  0  0  0  0
  187.3690  176.7730  137.6390 C   0  0  2  0  0  3  0  0  0  0  0  0
  189.5740  177.6510  137.0860 N   0  0  0  0  0  1  0  0  0  0  0  0
  188.6440  177.4050  138.1740 C   0  0  0  0  0  2  0  0  0  0  0  0
  187.6930  175.9120  136.5080 N   0  0  0  0  0  2  0  0  0  0  0  0
  189.3620  173.8480  136.8760 S   0  0  0  0  0  0  0  0  0  0  0  0
  187.8780  174.4940  136.6060 C   0  0  0  0  0  0  0  0  0  0  0  0
  185.5770  174.0370  136.9340 O   0  0  0  0  0  0  0  0  0  0  0  0
  186.7400  173.5840  136.2810 C   0  0  2  0  0  3  0  0  0  0  0  0
  186.2290  172.9330  137.5090 C   0  0  0  0  0  2  0  0  0  0  0  0
  1  7  1  0  0  0  0
  2  1  2  0  0  0  0
  4  6  2  0  0  0  0
  4  2  1  0  0  0  0
  5  8  1  1  0  0  0
  5  7  1  0  0  0  0
  6  5  1  0  0  0  0
  7  3  2  0  0  0  0
  9 11  1  6  0  0  0
  9 10  1  0  0  0  0
 10 12  1  0  0  0  0
 13  8  1  6  0  0  0
 13 12  1  0  0  0  0
 14  9  1  0  0  0  0
 14 13  1  0  0  0  0
 15  2  1  0  0  0  0
 15 16  1  0  0  0  0
 16 18  1  0  0  0  0
 18 17  1  6  0  0  0
 18 20  1  0  0  0  0
 19 20  1  0  0  0  0
 20 21  1  1  0  0  0
 22  4  1  0  0  0  0
 23 29  1  0  0  0  0
 24 23  2  0  0  0  0
 24 31  1  0  0  0  0
 26 28  1  0  0  0  0
 27 25  1  1  0  0  0
 27 26  1  0  0  0  0
 27 23  1  0  0  0  0
 29 28  1  0  0  0  0
 29 22  1  6  0  0  0
 31 32  1  0  0  0  0
 31 30  2  0  0  0  0
 32 34  1  6  0  0  0
 33 34  1  0  0  0  0
 35 37  1  0  0  0  0
 35 32  1  0  0  0  0
 37 36  2  0  0  0  0
 38 40  1  0  0  0  0
 39 37  1  1  0  0  0
 39 38  1  0  0  0  0
 39 40  1  0  0  0  0
M  END
>  <MODEL>
3

>  <REMARK>
 VINA RESULT:      -7.1      2.962      7.818
  Name = 
  14 active torsions:
  status: ('A' for Active; 'I' for Inactive)
    1  A    between atoms: N_4  and  C_22
    2  A    between atoms: C_6  and  O_31
    3  A    between atoms: C_14  and  C_34
    4  A    between atoms: C_16  and  C_35
    5  A    between atoms: O_17  and  C_32
    6  A    between atoms: O_17  and  C_33
    7  A    between atoms: C_18  and  N_36
    8  A    between atoms: C_22  and  C_27
    9  A    between atoms: C_23  and  C_27
   10  A    between atoms: C_26  and  O_31
   11  A    between atoms: C_26  and  C_35
   12  A    between atoms: C_27  and  N_39
   13  A    between atoms: C_29  and  N_36
   14  A    between atoms: C_34  and  N_39
                            x       y       z     vdW  Elec       q    Type
                         _______ _______ _______ _____ _____    ______ ____

>  <TORSDO>
F 14

$$$$
=
 OpenBabel10222421263D

 40 43  0  0  1  0  0  0  0  0999 V2000
  184.9790  178.5280  144.2450 N   0  0  0  0  0  0  0  0  0  0  0  0
  186.2290  178.1940  144.0860 C   0  0  0  0  0  0  0  0  0  0  0  0
  182.7800  178.8500  143.3860 C   0  0  0  0  0  2  0  0  0  0  0  0
  186.7610  177.8620  142.7470 C   0  0  0  0  0  0  0  0  0  0  0  0
  184.5570  178.4490  141.7350 C   0  0  1  0  0  3  0  0  0  0  0  0
  185.9810  177.9570  141.6630 C   0  0  0  0  0  3  0  0  0  0  0  0
  184.0640  178.6210  143.1500 C   0  0  0  0  0  0  0  0  0  0  0  0
  184.3240  179.5790  140.9120 O   0  0  0  0  0  0  0  0  0  0  0  0
  182.0570  180.2670  138.4780 C   0  0  1  0  0  3  0  0  0  0  0  0
  181.4790  179.2810  139.4650 C   0  0  0  0  0  2  0  0  0  0  0  0
  181.4480  181.5110  138.6390 O   0  0  0  0  0  1  0  0  0  0  0  0
  182.6150  178.3390  139.7880 C   0  0  0  0  0  2  0  0  0  0  0  0
  183.8880  179.1530  139.6430 C   0  0  1  0  0  3  0  0  0  0  0  0
  183.5340  180.3680  138.8020 C   0  0  0  0  0  2  0  0  0  0  0  0
  187.0880  178.1270  145.1890 O   0  0  0  0  0  0  0  0  0  0  0  0
  186.9350  177.1710  146.2340 C   0  0  0  0  0  2  0  0  0  0  0  0
  186.7730  178.9650  147.8160 O   0  0  0  0  0  1  0  0  0  0  0  0
  187.4100  177.7470  147.5610 C   0  0  2  0  0  3  0  0  0  0  0  0
  189.5630  176.6420  147.2550 N   0  0  0  0  0  1  0  0  0  0  0  0
  188.9280  177.9090  147.5720 C   0  0  2  0  0  3  0  0  0  0  0  0
  189.4420  178.4170  148.9100 C   0  0  0  0  0  1  0  0  0  0  0  0
  188.1160  177.4120  142.6340 N   0  0  0  0  0  2  0  0  0  0  0  0
  190.3940  177.6880  141.8810 C   0  0  0  0  0  0  0  0  0  0  0  0
  190.3260  177.4140  140.6080 N   0  0  0  0  0  0  0  0  0  0  0  0
  191.7480  176.0180  142.9470 N   0  0  0  0  0  1  0  0  0  0  0  0
  191.5700  178.4010  144.1530 S   0  0  0  0  0  0  0  0  0  0  0  0
  191.6490  177.4300  142.6240 C   0  0  2  0  0  3  0  0  0  0  0  0
  189.7520  178.4390  144.1030 C   0  0  0  0  0  2  0  0  0  0  0  0
  189.2770  178.2950  142.6660 C   0  0  2  0  0  3  0  0  0  0  0  0
  188.6480  178.8100  139.7330 O   0  0  0  0  0  0  0  0  0  0  0  0
  189.2310  177.6930  139.7210 C   0  0  0  0  0  0  0  0  0  0  0  0
  188.7900  176.6560  138.7370 C   0  0  2  0  0  3  0  0  0  0  0  0
  190.4080  174.9690  138.0490 N   0  0  0  0  0  1  0  0  0  0  0  0
  189.9240  176.3120  137.7850 C   0  0  0  0  0  2  0  0  0  0  0  0
  187.6460  177.1380  137.9740 N   0  0  0  0  0  2  0  0  0  0  0  0
  187.2260  177.4720  135.3470 S   0  0  0  0  0  0  0  0  0  0  0  0
  187.2200  176.5790  136.7240 C   0  0  0  0  0  0  0  0  0  0  0  0
  185.5880  175.1850  135.7210 O   0  0  0  0  0  0  0  0  0  0  0  0
  186.5940  175.2230  136.7060 C   0  0  2  0  0  3  0  0  0  0  0  0
  185.1570  175.3100  137.0530 C   0  0  0  0  0  2  0  0  0  0  0  0
  2  1  2  0  0  0  0
  2 15  1  0  0  0  0
  4  2  1  0  0  0  0
  5  8  1  6  0  0  0
  5  7  1  0  0  0  0
  6  5  1  0  0  0  0
  6  4  2  0  0  0  0
  7  3  2  0  0  0  0
  7  1  1  0  0  0  0
  9 11  1  1  0  0  0
  9 14  1  0  0  0  0
  9 10  1  0  0  0  0
 10 12  1  0  0  0  0
 13 12  1  0  0  0  0
 13  8  1  1  0  0  0
 14 13  1  0  0  0  0
 15 16  1  0  0  0  0
 16 18  1  0  0  0  0
 18 20  1  0  0  0  0
 18 17  1  6  0  0  0
 19 20  1  0  0  0  0
 20 21  1  1  0  0  0
 22  4  1  0  0  0  0
 23 27  1  0  0  0  0
 23 29  1  0  0  0  0
 24 23  2  0  0  0  0
 27 25  1  1  0  0  0
 27 26  1  0  0  0  0
 28 26  1  0  0  0  0
 29 22  1  1  0  0  0
 29 28  1  0  0  0  0
 31 30  2  0  0  0  0
 31 24  1  0  0  0  0
 32 34  1  6  0  0  0
 32 31  1  0  0  0  0
 34 33  1  0  0  0  0
 35 32  1  0  0  0  0
 36 37  2  0  0  0  0
 37 35  1  0  0  0  0
 38 39  1  0  0  0  0
 38 40  1  0  0  0  0
 39 37  1  6  0  0  0
 39 40  1  0  0  0  0
M  END
>  <MODEL>
4

>  <REMARK>
 VINA RESULT:      -7.1      2.635      7.464
  Name = 
  14 active torsions:
  status: ('A' for Active; 'I' for Inactive)
    1  A    between atoms: N_4  and  C_22
    2  A    between atoms: C_6  and  O_31
    3  A    between atoms: C_14  and  C_34
    4  A    between atoms: C_16  and  C_35
    5  A    between atoms: O_17  and  C_32
    6  A    between atoms: O_17  and  C_33
    7  A    between atoms: C_18  and  N_36
    8  A    between atoms: C_22  and  C_27
    9  A    between atoms: C_23  and  C_27
   10  A    between atoms: C_26  and  O_31
   11  A    between atoms: C_26  and  C_35
   12  A    between atoms: C_27  and  N_39
   13  A    between atoms: C_29  and  N_36
   14  A    between atoms: C_34  and  N_39
                            x       y       z     vdW  Elec       q    Type
                         _______ _______ _______ _____ _____    ______ ____

>  <TORSDO>
F 14

$$$$
=
 OpenBabel10222421263D

 40 43  0  0  1  0  0  0  0  0999 V2000
  185.8870  178.3910  138.8650 N   0  0  0  0  0  0  0  0  0  0  0  0
  187.1660  178.1460  138.9080 C   0  0  0  0  0  0  0  0  0  0  0  0
  183.9050  179.3060  139.8200 C   0  0  0  0  0  2  0  0  0  0  0  0
  187.9650  178.4870  140.1060 C   0  0  0  0  0  0  0  0  0  0  0  0
  185.8830  179.2090  141.2780 C   0  0  1  0  0  3  0  0  0  0  0  0
  187.3740  179.0000  141.1930 C   0  0  0  0  0  3  0  0  0  0  0  0
  185.1790  178.9710  139.9650 C   0  0  0  0  0  0  0  0  0  0  0  0
  185.2940  178.5230  142.3680 O   0  0  0  0  0  0  0  0  0  0  0  0
  184.4820  178.9420  145.6400 C   0  0  1  0  0  3  0  0  0  0  0  0
  183.3090  178.3690  144.8810 C   0  0  0  0  0  2  0  0  0  0  0  0
  185.0350  177.9670  146.4670 O   0  0  0  0  0  1  0  0  0  0  0  0
  183.3020  179.1000  143.5590 C   0  0  0  0  0  2  0  0  0  0  0  0
  184.7490  179.4560  143.2700 C   0  0  1  0  0  3  0  0  0  0  0  0
  185.4920  179.3670  144.5940 C   0  0  0  0  0  2  0  0  0  0  0  0
  187.8130  177.5690  137.8090 O   0  0  0  0  0  0  0  0  0  0  0  0
  187.5520  177.9580  136.4640 C   0  0  0  0  0  2  0  0  0  0  0  0
  186.3580  175.8790  136.4370 O   0  0  0  0  0  1  0  0  0  0  0  0
  187.0920  176.7630  135.6410 C   0  0  2  0  0  3  0  0  0  0  0  0
  188.6690  174.9080  135.7860 N   0  0  0  0  0  1  0  0  0  0  0  0
  188.2800  176.0590  134.9910 C   0  0  2  0  0  3  0  0  0  0  0  0
  189.4720  176.9860  134.8160 C   0  0  0  0  0  1  0  0  0  0  0  0
  189.3820  178.2840  140.0720 N   0  0  0  0  0  2  0  0  0  0  0  0
  191.3600  177.0560  140.7140 C   0  0  0  0  0  0  0  0  0  0  0  0
  191.5440  177.4080  141.9560 N   0  0  0  0  0  0  0  0  0  0  0  0
  193.2060  177.8670  139.4130 N   0  0  0  0  0  1  0  0  0  0  0  0
  191.8720  175.7510  138.4580 S   0  0  0  0  0  0  0  0  0  0  0  0
  192.5210  176.6730  139.8770 C   0  0  2  0  0  3  0  0  0  0  0  0
  190.2410  176.5410  138.6180 C   0  0  0  0  0  2  0  0  0  0  0  0
  190.0200  176.9720  140.0590 C   0  0  2  0  0  3  0  0  0  0  0  0
  190.0700  178.8750  143.0550 O   0  0  0  0  0  0  0  0  0  0  0  0
  190.5300  177.7080  142.9280 C   0  0  0  0  0  0  0  0  0  0  0  0
  189.9790  176.6150  143.7880 C   0  0  2  0  0  3  0  0  0  0  0  0
  187.5540  176.4290  143.6380 N   0  0  0  0  0  1  0  0  0  0  0  0
  188.8080  175.9360  143.0960 C   0  0  0  0  0  2  0  0  0  0  0  0
  189.5390  177.1530  145.0690 N   0  0  0  0  0  2  0  0  0  0  0  0
  191.7370  176.3820  146.3960 S   0  0  0  0  0  0  0  0  0  0  0  0
  190.1670  176.8570  146.3230 C   0  0  0  0  0  0  0  0  0  0  0  0
  188.0570  177.3270  147.2910 O   0  0  0  0  0  0  0  0  0  0  0  0
  189.3370  176.8070  147.5630 C   0  0  2  0  0  3  0  0  0  0  0  0
  188.9430  178.1730  147.9790 C   0  0  0  0  0  2  0  0  0  0  0  0
  1  2  2  0  0  0  0
  1  7  1  0  0  0  0
  2  4  1  0  0  0  0
  3  7  2  0  0  0  0
  4  6  2  0  0  0  0
  5  8  1  1  0  0  0
  6  5  1  0  0  0  0
  7  5  1  0  0  0  0
  9 11  1  1  0  0  0
 10  9  1  0  0  0  0
 12 10  1  0  0  0  0
 13  8  1  6  0  0  0
 13 12  1  0  0  0  0
 13 14  1  0  0  0  0
 14  9  1  0  0  0  0
 15  2  1  0  0  0  0
 16 15  1  0  0  0  0
 18 17  1  1  0  0  0
 18 16  1  0  0  0  0
 20 21  1  1  0  0  0
 20 18  1  0  0  0  0
 20 19  1  0  0  0  0
 22  4  1  0  0  0  0
 23 24  2  0  0  0  0
 24 31  1  0  0  0  0
 26 28  1  0  0  0  0
 26 27  1  0  0  0  0
 27 25  1  6  0  0  0
 27 23  1  0  0  0  0
 28 29  1  0  0  0  0
 29 22  1  6  0  0  0
 29 23  1  0  0  0  0
 31 30  2  0  0  0  0
 31 32  1  0  0  0  0
 32 34  1  6  0  0  0
 32 35  1  0  0  0  0
 34 33  1  0  0  0  0
 35 37  1  0  0  0  0
 37 36  2  0  0  0  0
 38 39  1  0  0  0  0
 38 40  1  0  0  0  0
 39 37  1  6  0  0  0
 39 40  1  0  0  0  0
M  END
>  <MODEL>
5

>  <REMARK>
 VINA RESULT:      -7.0      2.895      6.236
  Name = 
  14 active torsions:
  status: ('A' for Active; 'I' for Inactive)
    1  A    between atoms: N_4  and  C_22
    2  A    between atoms: C_6  and  O_31
    3  A    between atoms: C_14  and  C_34
    4  A    between atoms: C_16  and  C_35
    5  A    between atoms: O_17  and  C_32
    6  A    between atoms: O_17  and  C_33
    7  A    between atoms: C_18  and  N_36
    8  A    between atoms: C_22  and  C_27
    9  A    between atoms: C_23  and  C_27
   10  A    between atoms: C_26  and  O_31
   11  A    between atoms: C_26  and  C_35
   12  A    between atoms: C_27  and  N_39
   13  A    between atoms: C_29  and  N_36
   14  A    between atoms: C_34  and  N_39
                            x       y       z     vdW  Elec       q    Type
                         _______ _______ _______ _____ _____    ______ ____

>  <TORSDO>
F 14

$$$$
=
 OpenBabel10222421263D

 40 43  0  0  1  0  0  0  0  0999 V2000
  189.4240  177.4760  141.1850 N   0  0  0  0  0  0  0  0  0  0  0  0
  188.4730  178.0170  140.4760 C   0  0  0  0  0  0  0  0  0  0  0  0
  190.1870  176.3630  143.1490 C   0  0  0  0  0  2  0  0  0  0  0  0
  187.1030  178.1510  141.0200 C   0  0  0  0  0  0  0  0  0  0  0  0
  187.8920  177.2450  143.2080 C   0  0  1  0  0  3  0  0  0  0  0  0
  186.8300  177.7720  142.2750 C   0  0  0  0  0  3  0  0  0  0  0  0
  189.2150  177.0100  142.5210 C   0  0  0  0  0  0  0  0  0  0  0  0
  187.9990  178.0020  144.4000 O   0  0  0  0  0  0  0  0  0  0  0  0
  186.2440  178.4340  147.2760 C   0  0  1  0  0  3  0  0  0  0  0  0
  187.7260  178.4440  147.5630 C   0  0  0  0  0  2  0  0  0  0  0  0
  185.7250  179.7200  147.4090 O   0  0  0  0  0  1  0  0  0  0  0  0
  188.3040  177.3600  146.6840 C   0  0  0  0  0  2  0  0  0  0  0  0
  187.4070  177.2910  145.4610 C   0  0  1  0  0  3  0  0  0  0  0  0
  186.0970  177.9620  145.8440 C   0  0  0  0  0  2  0  0  0  0  0  0
  188.7290  178.4670  139.1760 O   0  0  0  0  0  0  0  0  0  0  0  0
  189.8360  178.0140  138.4030 C   0  0  0  0  0  2  0  0  0  0  0  0
  190.4420  175.7120  138.6880 O   0  0  0  0  0  1  0  0  0  0  0  0
  189.6230  176.5750  137.9540 C   0  0  2  0  0  3  0  0  0  0  0  0
  191.2720  176.1200  136.2150 N   0  0  0  0  0  1  0  0  0  0  0  0
  189.8730  176.4280  136.4560 C   0  0  2  0  0  3  0  0  0  0  0  0
  189.4860  177.6790  135.6830 C   0  0  0  0  0  1  0  0  0  0  0  0
  186.0710  178.6660  140.1720 N   0  0  0  0  0  2  0  0  0  0  0  0
  184.0000  178.6520  138.9300 C   0  0  0  0  0  0  0  0  0  0  0  0
  184.3780  178.3660  137.7160 N   0  0  0  0  0  0  0  0  0  0  0  0
  183.1000  180.8770  138.9400 N   0  0  0  0  0  1  0  0  0  0  0  0
  182.2710  179.2130  140.8680 S   0  0  0  0  0  0  0  0  0  0  0  0
  182.7860  179.4740  139.1490 C   0  0  2  0  0  3  0  0  0  0  0  0
  183.9560  178.7330  141.3600 C   0  0  0  0  0  2  0  0  0  0  0  0
  184.6990  178.1700  140.1600 C   0  0  2  0  0  3  0  0  0  0  0  0
  186.5980  177.9700  137.0490 O   0  0  0  0  0  0  0  0  0  0  0  0
  185.4610  177.5050  137.3290 C   0  0  0  0  0  0  0  0  0  0  0  0
  185.2540  176.0240  137.2880 C   0  0  2  0  0  3  0  0  0  0  0  0
  186.9260  174.2570  137.1530 N   0  0  0  0  0  1  0  0  0  0  0  0
  186.3220  175.3630  136.4310 C   0  0  0  0  0  2  0  0  0  0  0  0
  183.9370  175.7120  136.7480 N   0  0  0  0  0  2  0  0  0  0  0  0
  183.4820  173.0730  136.8650 S   0  0  0  0  0  0  0  0  0  0  0  0
  183.1130  174.6340  137.2110 C   0  0  0  0  0  0  0  0  0  0  0  0
  181.6640  176.3360  137.9940 O   0  0  0  0  0  0  0  0  0  0  0  0
  181.8070  174.9410  137.8670 C   0  0  2  0  0  3  0  0  0  0  0  0
  182.0250  175.6350  139.1560 C   0  0  0  0  0  2  0  0  0  0  0  0
  1  7  1  0  0  0  0
  2  4  1  0  0  0  0
  2  1  2  0  0  0  0
  4  6  2  0  0  0  0
  5  8  1  1  0  0  0
  6  5  1  0  0  0  0
  7  3  2  0  0  0  0
  7  5  1  0  0  0  0
  9 11  1  6  0  0  0
  9 10  1  0  0  0  0
 12 10  1  0  0  0  0
 13  8  1  6  0  0  0
 13 14  1  0  0  0  0
 13 12  1  0  0  0  0
 14  9  1  0  0  0  0
 15  2  1  0  0  0  0
 16 15  1  0  0  0  0
 18 16  1  0  0  0  0
 18 17  1  1  0  0  0
 19 20  1  0  0  0  0
 20 21  1  6  0  0  0
 20 18  1  0  0  0  0
 22  4  1  0  0  0  0
 23 27  1  0  0  0  0
 23 29  1  0  0  0  0
 24 23  2  0  0  0  0
 26 28  1  0  0  0  0
 27 25  1  1  0  0  0
 27 26  1  0  0  0  0
 29 22  1  6  0  0  0
 29 28  1  0  0  0  0
 30 31  2  0  0  0  0
 31 24  1  0  0  0  0
 32 34  1  6  0  0  0
 32 31  1  0  0  0  0
 34 33  1  0  0  0  0
 35 37  1  0  0  0  0
 35 32  1  0  0  0  0
 36 37  2  0  0  0  0
 38 40  1  0  0  0  0
 39 37  1  6  0  0  0
 39 38  1  0  0  0  0
 39 40  1  0  0  0  0
M  END
>  <MODEL>
6

>  <REMARK>
 VINA RESULT:      -6.9      2.312      3.818
  Name = 
  14 active torsions:
  status: ('A' for Active; 'I' for Inactive)
    1  A    between atoms: N_4  and  C_22
    2  A    between atoms: C_6  and  O_31
    3  A    between atoms: C_14  and  C_34
    4  A    between atoms: C_16  and  C_35
    5  A    between atoms: O_17  and  C_32
    6  A    between atoms: O_17  and  C_33
    7  A    between atoms: C_18  and  N_36
    8  A    between atoms: C_22  and  C_27
    9  A    between atoms: C_23  and  C_27
   10  A    between atoms: C_26  and  O_31
   11  A    between atoms: C_26  and  C_35
   12  A    between atoms: C_27  and  N_39
   13  A    between atoms: C_29  and  N_36
   14  A    between atoms: C_34  and  N_39
                            x       y       z     vdW  Elec       q    Type
                         _______ _______ _______ _____ _____    ______ ____

>  <TORSDO>
F 14

$$$$
=
 OpenBabel10222421263D

 40 43  0  0  1  0  0  0  0  0999 V2000
  184.7340  178.5430  144.6160 N   0  0  0  0  0  0  0  0  0  0  0  0
  184.7470  178.2960  143.3360 C   0  0  0  0  0  0  0  0  0  0  0  0
  185.8640  178.9980  146.6640 C   0  0  0  0  0  2  0  0  0  0  0  0
  186.0240  178.1160  142.6110 C   0  0  0  0  0  0  0  0  0  0  0  0
  187.2660  178.3070  144.7660 C   0  0  1  0  0  3  0  0  0  0  0  0
  187.1890  178.1440  143.2690 C   0  0  0  0  0  3  0  0  0  0  0  0
  185.9320  178.6270  145.3930 C   0  0  0  0  0  0  0  0  0  0  0  0
  187.9480  177.2390  145.4000 O   0  0  0  0  0  0  0  0  0  0  0  0
  191.1950  176.7430  146.2650 C   0  0  1  0  0  3  0  0  0  0  0  0
  190.2850  175.9730  147.1910 C   0  0  0  0  0  2  0  0  0  0  0  0
  191.8570  175.8640  145.4100 O   0  0  0  0  0  1  0  0  0  0  0  0
  189.1210  176.8980  147.4570 C   0  0  0  0  0  2  0  0  0  0  0  0
  188.9760  177.7550  146.2120 C   0  0  1  0  0  3  0  0  0  0  0  0
  190.2970  177.6650  145.4650 C   0  0  0  0  0  2  0  0  0  0  0  0
  183.5470  178.2130  142.6210 O   0  0  0  0  0  0  0  0  0  0  0  0
  182.4550  179.1010  142.8340 C   0  0  0  0  0  2  0  0  0  0  0  0
  180.7170  179.9480  141.4160 O   0  0  0  0  0  1  0  0  0  0  0  0
  181.3050  178.7720  141.8920 C   0  0  2  0  0  3  0  0  0  0  0  0
  179.0380  177.8750  141.8160 N   0  0  0  0  0  1  0  0  0  0  0  0
  180.2730  177.8830  142.5800 C   0  0  2  0  0  3  0  0  0  0  0  0
  179.9890  178.3280  144.0060 C   0  0  0  0  0  1  0  0  0  0  0  0
  185.9910  177.9370  141.1900 N   0  0  0  0  0  2  0  0  0  0  0  0
  186.5070  178.2680  138.8540 C   0  0  0  0  0  0  0  0  0  0  0  0
  185.3330  178.4100  138.3040 N   0  0  0  0  0  0  0  0  0  0  0  0
  187.5020  176.2540  138.0100 N   0  0  0  0  0  1  0  0  0  0  0  0
  189.1590  178.1480  138.9230 S   0  0  0  0  0  0  0  0  0  0  0  0
  187.6250  177.7000  138.0660 C   0  0  2  0  0  3  0  0  0  0  0  0
  188.2870  178.3320  140.5090 C   0  0  0  0  0  2  0  0  0  0  0  0
  186.8290  178.6790  140.2540 C   0  0  2  0  0  3  0  0  0  0  0  0
  184.2200  180.2090  139.3320 O   0  0  0  0  0  0  0  0  0  0  0  0
  184.1760  179.0310  138.8850 C   0  0  0  0  0  0  0  0  0  0  0  0
  182.8790  178.2870  138.9340 C   0  0  2  0  0  3  0  0  0  0  0  0
  182.0300  176.1420  139.7190 N   0  0  0  0  0  1  0  0  0  0  0  0
  183.1290  176.7900  139.0250 C   0  0  0  0  0  2  0  0  0  0  0  0
  182.0860  178.5750  137.7450 N   0  0  0  0  0  2  0  0  0  0  0  0
  179.4580  178.3560  138.2270 S   0  0  0  0  0  0  0  0  0  0  0  0
  180.7940  179.1950  137.7720 C   0  0  0  0  0  0  0  0  0  0  0  0
  181.5670  181.4340  137.8100 O   0  0  0  0  0  0  0  0  0  0  0  0
  180.6300  180.5690  137.2110 C   0  0  2  0  0  3  0  0  0  0  0  0
  180.2450  181.5220  138.2760 C   0  0  0  0  0  2  0  0  0  0  0  0
  1  7  1  0  0  0  0
  2  1  2  0  0  0  0
  4  6  2  0  0  0  0
  4  2  1  0  0  0  0
  5  7  1  0  0  0  0
  5  8  1  1  0  0  0
  6  5  1  0  0  0  0
  7  3  2  0  0  0  0
  9 11  1  6  0  0  0
  9 10  1  0  0  0  0
 10 12  1  0  0  0  0
 13  8  1  6  0  0  0
 13 12  1  0  0  0  0
 14 13  1  0  0  0  0
 14  9  1  0  0  0  0
 15 16  1  0  0  0  0
 15  2  1  0  0  0  0
 18 17  1  1  0  0  0
 18 20  1  0  0  0  0
 18 16  1  0  0  0  0
 19 20  1  0  0  0  0
 20 21  1  1  0  0  0
 22  4  1  0  0  0  0
 23 29  1  0  0  0  0
 24 23  2  0  0  0  0
 24 31  1  0  0  0  0
 26 28  1  0  0  0  0
 27 25  1  1  0  0  0
 27 23  1  0  0  0  0
 27 26  1  0  0  0  0
 29 28  1  0  0  0  0
 29 22  1  1  0  0  0
 31 32  1  0  0  0  0
 31 30  2  0  0  0  0
 32 34  1  6  0  0  0
 34 33  1  0  0  0  0
 35 37  1  0  0  0  0
 35 32  1  0  0  0  0
 37 36  2  0  0  0  0
 38 40  1  0  0  0  0
 39 37  1  1  0  0  0
 39 38  1  0  0  0  0
 39 40  1  0  0  0  0
M  END
>  <MODEL>
7

>  <REMARK>
 VINA RESULT:      -6.9      3.175      6.397
  Name = 
  14 active torsions:
  status: ('A' for Active; 'I' for Inactive)
    1  A    between atoms: N_4  and  C_22
    2  A    between atoms: C_6  and  O_31
    3  A    between atoms: C_14  and  C_34
    4  A    between atoms: C_16  and  C_35
    5  A    between atoms: O_17  and  C_32
    6  A    between atoms: O_17  and  C_33
    7  A    between atoms: C_18  and  N_36
    8  A    between atoms: C_22  and  C_27
    9  A    between atoms: C_23  and  C_27
   10  A    between atoms: C_26  and  O_31
   11  A    between atoms: C_26  and  C_35
   12  A    between atoms: C_27  and  N_39
   13  A    between atoms: C_29  and  N_36
   14  A    between atoms: C_34  and  N_39
                            x       y       z     vdW  Elec       q    Type
                         _______ _______ _______ _____ _____    ______ ____

>  <TORSDO>
F 14

$$$$
=
 OpenBabel10222421263D

 40 43  0  0  1  0  0  0  0  0999 V2000
  190.0170  177.1730  142.0850 N   0  0  0  0  0  0  0  0  0  0  0  0
  189.2370  177.7120  141.1910 C   0  0  0  0  0  0  0  0  0  0  0  0
  190.3720  176.2140  144.2380 C   0  0  0  0  0  2  0  0  0  0  0  0
  187.8230  178.0170  141.5010 C   0  0  0  0  0  0  0  0  0  0  0  0
  188.1920  177.2860  143.8590 C   0  0  1  0  0  3  0  0  0  0  0  0
  187.3340  177.7970  142.7280 C   0  0  0  0  0  3  0  0  0  0  0  0
  189.5710  176.8700  143.4110 C   0  0  0  0  0  0  0  0  0  0  0  0
  188.1980  178.1540  144.9780 O   0  0  0  0  0  0  0  0  0  0  0  0
  185.2850  178.2520  146.7240 C   0  0  1  0  0  3  0  0  0  0  0  0
  186.3020  179.1750  147.3540 C   0  0  0  0  0  2  0  0  0  0  0  0
  184.2960  178.9990  146.0890 O   0  0  0  0  0  1  0  0  0  0  0  0
  187.6110  178.4230  147.2820 C   0  0  0  0  0  2  0  0  0  0  0  0
  187.5200  177.5420  146.0500 C   0  0  1  0  0  3  0  0  0  0  0  0
  186.0430  177.4240  145.7060 C   0  0  0  0  0  2  0  0  0  0  0  0
  189.7230  177.9990  139.9100 O   0  0  0  0  0  0  0  0  0  0  0  0
  191.0870  177.8180  139.5410 C   0  0  0  0  0  2  0  0  0  0  0  0
  190.4060  175.6290  138.8380 O   0  0  0  0  0  1  0  0  0  0  0  0
  191.2180  176.7160  138.4990 C   0  0  2  0  0  3  0  0  0  0  0  0
  193.5300  177.1230  139.1610 N   0  0  0  0  0  1  0  0  0  0  0  0
  192.6740  176.2850  138.3410 C   0  0  2  0  0  3  0  0  0  0  0  0
  193.1370  176.3430  136.8940 C   0  0  0  0  0  1  0  0  0  0  0  0
  186.9810  178.5240  140.4590 N   0  0  0  0  0  2  0  0  0  0  0  0
  185.1730  178.6040  138.8610 C   0  0  0  0  0  0  0  0  0  0  0  0
  185.7850  178.5590  137.7110 N   0  0  0  0  0  0  0  0  0  0  0  0
  184.0850  180.7330  139.0600 N   0  0  0  0  0  1  0  0  0  0  0  0
  183.0850  178.7090  140.5000 S   0  0  0  0  0  0  0  0  0  0  0  0
  183.8700  179.2990  138.9750 C   0  0  2  0  0  3  0  0  0  0  0  0
  184.6920  178.2530  141.2190 C   0  0  0  0  0  2  0  0  0  0  0  0
  185.6850  177.9560  140.1070 C   0  0  2  0  0  3  0  0  0  0  0  0
  188.1250  178.3780  137.5620 O   0  0  0  0  0  0  0  0  0  0  0  0
  186.9940  177.8470  137.4020 C   0  0  0  0  0  0  0  0  0  0  0  0
  186.9200  176.4340  136.9150 C   0  0  2  0  0  3  0  0  0  0  0  0
  188.7760  175.0590  136.1400 N   0  0  0  0  0  1  0  0  0  0  0  0
  187.9390  176.2000  135.8120 C   0  0  0  0  0  2  0  0  0  0  0  0
  185.5840  176.1420  136.4110 N   0  0  0  0  0  2  0  0  0  0  0  0
  183.5690  175.3040  137.9680 S   0  0  0  0  0  0  0  0  0  0  0  0
  184.7690  175.0580  136.8760 C   0  0  0  0  0  0  0  0  0  0  0  0
  184.5170  172.7600  137.3940 O   0  0  0  0  0  0  0  0  0  0  0  0
  185.1290  173.6590  136.4990 C   0  0  2  0  0  3  0  0  0  0  0  0
  185.8870  173.0060  137.5910 C   0  0  0  0  0  2  0  0  0  0  0  0
  1  7  1  0  0  0  0
  2  4  1  0  0  0  0
  2  1  2  0  0  0  0
  4  6  2  0  0  0  0
  5  8  1  1  0  0  0
  6  5  1  0  0  0  0
  7  5  1  0  0  0  0
  7  3  2  0  0  0  0
  9 11  1  6  0  0  0
  9 10  1  0  0  0  0
 12 10  1  0  0  0  0
 13  8  1  6  0  0  0
 13 12  1  0  0  0  0
 14 13  1  0  0  0  0
 14  9  1  0  0  0  0
 15  2  1  0  0  0  0
 16 15  1  0  0  0  0
 18 17  1  1  0  0  0
 18 16  1  0  0  0  0
 20 21  1  6  0  0  0
 20 18  1  0  0  0  0
 20 19  1  0  0  0  0
 22  4  1  0  0  0  0
 23 27  1  0  0  0  0
 23 29  1  0  0  0  0
 24 23  2  0  0  0  0
 26 28  1  0  0  0  0
 27 25  1  1  0  0  0
 27 26  1  0  0  0  0
 29 22  1  1  0  0  0
 29 28  1  0  0  0  0
 31 30  2  0  0  0  0
 31 24  1  0  0  0  0
 32 34  1  6  0  0  0
 32 31  1  0  0  0  0
 34 33  1  0  0  0  0
 35 37  1  0  0  0  0
 35 32  1  0  0  0  0
 37 36  2  0  0  0  0
 38 40  1  0  0  0  0
 39 37  1  1  0  0  0
 39 38  1  0  0  0  0
 39 40  1  0  0  0  0
M  END
>  <MODEL>
8

>  <REMARK>
 VINA RESULT:      -6.9      2.239      3.682
  Name = 
  14 active torsions:
  status: ('A' for Active; 'I' for Inactive)
    1  A    between atoms: N_4  and  C_22
    2  A    between atoms: C_6  and  O_31
    3  A    between atoms: C_14  and  C_34
    4  A    between atoms: C_16  and  C_35
    5  A    between atoms: O_17  and  C_32
    6  A    between atoms: O_17  and  C_33
    7  A    between atoms: C_18  and  N_36
    8  A    between atoms: C_22  and  C_27
    9  A    between atoms: C_23  and  C_27
   10  A    between atoms: C_26  and  O_31
   11  A    between atoms: C_26  and  C_35
   12  A    between atoms: C_27  and  N_39
   13  A    between atoms: C_29  and  N_36
   14  A    between atoms: C_34  and  N_39
                            x       y       z     vdW  Elec       q    Type
                         _______ _______ _______ _____ _____    ______ ____

>  <TORSDO>
F 14

$$$$
=
 OpenBabel10222421263D

 40 43  0  0  1  0  0  0  0  0999 V2000
  182.5460  178.6280  142.0090 N   0  0  0  0  0  0  0  0  0  0  0  0
  183.8010  178.7030  141.6630 C   0  0  0  0  0  0  0  0  0  0  0  0
  180.2260  178.6640  141.4650 C   0  0  0  0  0  2  0  0  0  0  0  0
  184.1870  179.0200  140.2710 C   0  0  0  0  0  0  0  0  0  0  0  0
  181.7820  179.3470  139.6880 C   0  0  1  0  0  3  0  0  0  0  0  0
  183.2520  179.2940  139.3520 C   0  0  0  0  0  3  0  0  0  0  0  0
  181.4800  178.8700  141.0860 C   0  0  0  0  0  0  0  0  0  0  0  0
  181.1930  180.5970  139.3750 O   0  0  0  0  0  0  0  0  0  0  0  0
  180.7360  183.0340  137.0530 C   0  0  1  0  0  3  0  0  0  0  0  0
  179.6860  181.9600  136.8960 C   0  0  0  0  0  2  0  0  0  0  0  0
  180.1590  184.1870  137.5820 O   0  0  0  0  0  1  0  0  0  0  0  0
  180.4210  180.6580  137.1120 C   0  0  0  0  0  2  0  0  0  0  0  0
  181.5570  180.9730  138.0680 C   0  0  1  0  0  3  0  0  0  0  0  0
  181.7630  182.4790  138.0190 C   0  0  0  0  0  2  0  0  0  0  0  0
  184.8090  178.4670  142.6050 O   0  0  0  0  0  0  0  0  0  0  0  0
  184.6810  178.8170  143.9800 C   0  0  0  0  0  2  0  0  0  0  0  0
  186.3660  177.1290  144.2250 O   0  0  0  0  0  1  0  0  0  0  0  0
  185.8830  178.3200  144.7720 C   0  0  2  0  0  3  0  0  0  0  0  0
  184.1820  178.6270  146.4940 N   0  0  0  0  0  1  0  0  0  0  0  0
  185.5280  178.1430  146.2470 C   0  0  2  0  0  3  0  0  0  0  0  0
  186.5060  178.8600  147.1640 C   0  0  0  0  0  1  0  0  0  0  0  0
  185.5750  179.0000  139.9170 N   0  0  0  0  0  2  0  0  0  0  0  0
  187.6380  178.2530  138.9090 C   0  0  0  0  0  0  0  0  0  0  0  0
  188.5430  178.6040  139.7790 N   0  0  0  0  0  0  0  0  0  0  0  0
  187.9920  179.5120  136.8970 N   0  0  0  0  0  1  0  0  0  0  0  0
  186.7150  177.1700  136.6660 S   0  0  0  0  0  0  0  0  0  0  0  0
  187.9880  178.1780  137.4710 C   0  0  2  0  0  3  0  0  0  0  0  0
  185.5070  177.5510  137.9720 C   0  0  0  0  0  2  0  0  0  0  0  0
  186.2370  177.8760  139.2650 C   0  0  2  0  0  3  0  0  0  0  0  0
  187.4640  179.2610  141.7630 O   0  0  0  0  0  0  0  0  0  0  0  0
  188.4030  178.6290  141.2080 C   0  0  0  0  0  0  0  0  0  0  0  0
  189.3650  177.8660  142.0630 C   0  0  2  0  0  3  0  0  0  0  0  0
  190.2120  175.6170  142.4680 N   0  0  0  0  0  1  0  0  0  0  0  0
  189.0660  176.3770  141.9970 C   0  0  0  0  0  2  0  0  0  0  0  0
  189.2800  178.3160  143.4460 N   0  0  0  0  0  2  0  0  0  0  0  0
  191.6710  179.3300  144.1110 S   0  0  0  0  0  0  0  0  0  0  0  0
  190.3890  178.3350  144.3550 C   0  0  0  0  0  0  0  0  0  0  0  0
  189.1850  176.7530  145.6440 O   0  0  0  0  0  0  0  0  0  0  0  0
  190.4620  177.3110  145.4400 C   0  0  2  0  0  3  0  0  0  0  0  0
  189.6100  177.7070  146.5850 C   0  0  0  0  0  2  0  0  0  0  0  0
  2  1  2  0  0  0  0
  2 15  1  0  0  0  0
  4  2  1  0  0  0  0
  5  8  1  1  0  0  0
  5  7  1  0  0  0  0
  6  5  1  0  0  0  0
  6  4  2  0  0  0  0
  7  3  2  0  0  0  0
  7  1  1  0  0  0  0
  9 11  1  1  0  0  0
  9 14  1  0  0  0  0
 10  9  1  0  0  0  0
 10 12  1  0  0  0  0
 12 13  1  0  0  0  0
 13  8  1  1  0  0  0
 14 13  1  0  0  0  0
 15 16  1  0  0  0  0
 16 18  1  0  0  0  0
 18 17  1  6  0  0  0
 18 20  1  0  0  0  0
 20 19  1  0  0  0  0
 20 21  1  1  0  0  0
 22  4  1  0  0  0  0
 23 29  1  0  0  0  0
 23 24  2  0  0  0  0
 24 31  1  0  0  0  0
 26 27  1  0  0  0  0
 26 28  1  0  0  0  0
 27 25  1  6  0  0  0
 27 23  1  0  0  0  0
 28 29  1  0  0  0  0
 29 22  1  6  0  0  0
 31 30  2  0  0  0  0
 31 32  1  0  0  0  0
 32 34  1  1  0  0  0
 32 35  1  0  0  0  0
 34 33  1  0  0  0  0
 35 37  1  0  0  0  0
 36 37  2  0  0  0  0
 38 40  1  0  0  0  0
 39 37  1  6  0  0  0
 39 38  1  0  0  0  0
 39 40  1  0  0  0  0
M  END
>  <MODEL>
9

>  <REMARK>
 VINA RESULT:      -6.8      3.088      8.646
  Name = 
  14 active torsions:
  status: ('A' for Active; 'I' for Inactive)
    1  A    between atoms: N_4  and  C_22
    2  A    between atoms: C_6  and  O_31
    3  A    between atoms: C_14  and  C_34
    4  A    between atoms: C_16  and  C_35
    5  A    between atoms: O_17  and  C_32
    6  A    between atoms: O_17  and  C_33
    7  A    between atoms: C_18  and  N_36
    8  A    between atoms: C_22  and  C_27
    9  A    between atoms: C_23  and  C_27
   10  A    between atoms: C_26  and  O_31
   11  A    between atoms: C_26  and  C_35
   12  A    between atoms: C_27  and  N_39
   13  A    between atoms: C_29  and  N_36
   14  A    between atoms: C_34  and  N_39
                            x       y       z     vdW  Elec       q    Type
                         _______ _______ _______ _____ _____    ______ ____

>  <TORSDO>
F 14

$$$$
