=
 OpenBabel10222418083D

 25 28  0  0  1  0  0  0  0  0999 V2000
  186.0620  178.2360  144.9170 C   0  0  0  0  0  2  0  0  0  0  0  0
  186.3590  177.2480  143.8100 C   0  0  1  0  0  3  0  0  0  0  0  0
  185.3040  179.0020  142.8400 C   0  0  1  0  0  3  0  0  0  0  0  0
  185.0220  179.1200  144.3170 C   0  0  0  0  0  2  0  0  0  0  0  0
  185.8310  177.7210  142.5920 O   0  0  0  0  0  0  0  0  0  0  0  0
  187.8380  176.9980  143.7090 C   0  0  0  0  0  0  0  0  0  0  0  0
  188.2550  175.9240  143.1420 N   0  0  0  0  0  2  0  0  0  0  0  0
  191.3860  176.6240  147.2780 C   0  0  0  0  0  3  0  0  0  0  0  0
  188.8230  178.0150  144.2260 C   0  0  2  0  0  3  0  0  0  0  0  0
  190.0150  176.6590  147.5900 C   0  0  0  0  0  3  0  0  0  0  0  0
  191.8240  177.0230  146.0490 N   0  0  0  0  0  0  0  0  0  0  0  0
  189.9020  178.3270  143.1730 C   0  0  0  0  0  3  0  0  0  0  0  0
  190.9330  177.4550  145.1190 C   0  0  0  0  0  0  0  0  0  0  0  0
  191.2660  177.9280  143.7610 C   0  0  0  0  0  3  0  0  0  0  0  0
  189.5920  177.4950  145.3810 C   0  0  0  0  0  0  0  0  0  0  0  0
  189.1000  177.1060  146.6270 C   0  0  0  0  0  3  0  0  0  0  0  0
  184.0340  179.2340  142.0180 C   0  0  2  0  0  3  0  0  0  0  0  0
  182.0330  179.7370  143.2820 O   0  0  0  0  0  0  0  0  0  0  0  0
  182.8060  178.6860  142.7580 C   0  0  1  0  0  3  0  0  0  0  0  0
  180.9670  179.4150  142.4280 C   0  0  0  0  0  2  0  0  0  0  0  0
  181.7220  178.2800  141.7960 C   0  0  0  0  0  2  0  0  0  0  0  0
  184.1600  178.5810  140.7580 O   0  0  0  0  0  0  0  0  0  0  0  0
  184.7690  179.1920  139.6600 C   0  0  0  0  0  0  0  0  0  0  0  0
  184.2660  180.2190  139.1310 O   0  0  0  0  0  0  0  0  0  0  0  0
  185.9490  178.6670  139.1510 O   0  0  0  0  0  1  0  0  0  0  0  0
  2  6  1  6  0  0  0
  2  1  1  0  0  0  0
  3 17  1  6  0  0  0
  3  4  1  0  0  0  0
  4  1  1  0  0  0  0
  5  3  1  0  0  0  0
  5  2  1  0  0  0  0
  7  6  2  0  0  0  0
  8 10  1  0  0  0  0
  9  6  1  6  0  0  0
  9 15  1  0  0  0  0
 11  8  2  0  0  0  0
 12 14  2  0  0  0  0
 12  9  1  0  0  0  0
 13 15  2  0  0  0  0
 13 11  1  0  0  0  0
 14 13  1  0  0  0  0
 15 16  1  0  0  0  0
 16 10  2  0  0  0  0
 17 22  1  6  0  0  0
 19 17  1  6  0  0  0
 19 18  1  0  0  0  0
 20 18  1  0  0  0  0
 21 20  1  0  0  0  0
 21 19  1  0  0  0  0
 23 22  1  0  0  0  0
 24 23  2  0  0  0  0
 25 23  1  0  0  0  0
M  END
>  <MODEL>
1

>  <REMARK>
 VINA RESULT:      -7.7      0.000      0.000
  Name = 
  6 active torsions:
  status: ('A' for Active; 'I' for Inactive)
    1  A    between atoms: O_1  and  C_2
    2  A    between atoms: O_1  and  C_13
    3  A    between atoms: C_5  and  C_17
    4  A    between atoms: C_7  and  C_13
    5  A    between atoms: C_8  and  C_17
    6  A    between atoms: C_10  and  C_13
                            x       y       z     vdW  Elec       q    Type
                         _______ _______ _______ _____ _____    ______ ____

>  <TORSDO>
F 6

$$$$
=
 OpenBabel10222418083D

 25 28  0  0  1  0  0  0  0  0999 V2000
  185.0950  178.5860  141.7020 C   0  0  0  0  0  2  0  0  0  0  0  0
  185.9070  177.9210  142.7930 C   0  0  1  0  0  3  0  0  0  0  0  0
  187.3960  178.7700  141.3120 C   0  0  1  0  0  3  0  0  0  0  0  0
  186.0740  178.7290  140.5860 C   0  0  0  0  0  2  0  0  0  0  0  0
  187.2800  178.0010  142.4850 O   0  0  0  0  0  0  0  0  0  0  0  0
  185.6050  178.5420  144.1290 C   0  0  0  0  0  0  0  0  0  0  0  0
  185.2460  179.7740  144.1800 N   0  0  0  0  0  2  0  0  0  0  0  0
  189.4370  177.7310  147.3100 C   0  0  0  0  0  3  0  0  0  0  0  0
  185.6780  177.7190  145.3890 C   0  0  2  0  0  3  0  0  0  0  0  0
  189.4000  177.1600  146.0250 C   0  0  0  0  0  3  0  0  0  0  0  0
  188.3020  178.2420  147.8700 N   0  0  0  0  0  0  0  0  0  0  0  0
  184.8620  178.3670  146.5220 C   0  0  0  0  0  3  0  0  0  0  0  0
  187.1310  178.2030  147.1830 C   0  0  0  0  0  0  0  0  0  0  0  0
  185.8300  178.7030  147.6700 C   0  0  0  0  0  3  0  0  0  0  0  0
  187.0560  177.6650  145.9280 C   0  0  0  0  0  0  0  0  0  0  0  0
  188.1890  177.1220  145.3210 C   0  0  0  0  0  3  0  0  0  0  0  0
  188.5250  178.2410  140.4270 C   0  0  2  0  0  3  0  0  0  0  0  0
  188.7300  179.0930  138.1700 O   0  0  0  0  0  0  0  0  0  0  0  0
  188.0650  178.1420  138.9660 C   0  0  1  0  0  3  0  0  0  0  0  0
  189.3770  178.0770  137.4500 C   0  0  0  0  0  2  0  0  0  0  0  0
  188.7250  176.9900  138.2580 C   0  0  0  0  0  2  0  0  0  0  0  0
  188.9230  176.9520  140.8870 O   0  0  0  0  0  0  0  0  0  0  0  0
  190.1620  176.7260  141.4890 C   0  0  0  0  0  0  0  0  0  0  0  0
  191.1640  177.4290  141.1890 O   0  0  0  0  0  0  0  0  0  0  0  0
  190.2910  175.7200  142.4360 O   0  0  0  0  0  1  0  0  0  0  0  0
  1  2  1  0  0  0  0
  2  6  1  1  0  0  0
  3 17  1  6  0  0  0
  3  5  1  0  0  0  0
  4  3  1  0  0  0  0
  4  1  1  0  0  0  0
  5  2  1  0  0  0  0
  6  7  2  0  0  0  0
  8 11  1  0  0  0  0
  9  6  1  6  0  0  0
  9 15  1  0  0  0  0
  9 12  1  0  0  0  0
 10  8  2  0  0  0  0
 12 14  2  0  0  0  0
 13 14  1  0  0  0  0
 13 11  2  0  0  0  0
 15 13  1  0  0  0  0
 16 15  2  0  0  0  0
 16 10  1  0  0  0  0
 17 22  1  1  0  0  0
 18 19  1  0  0  0  0
 19 17  1  1  0  0  0
 20 18  1  0  0  0  0
 20 21  1  0  0  0  0
 21 19  1  0  0  0  0
 22 23  1  0  0  0  0
 23 25  1  0  0  0  0
 24 23  2  0  0  0  0
M  END
>  <MODEL>
2

>  <REMARK>
 VINA RESULT:      -7.6      3.066      5.203
  Name = 
  6 active torsions:
  status: ('A' for Active; 'I' for Inactive)
    1  A    between atoms: O_1  and  C_2
    2  A    between atoms: O_1  and  C_13
    3  A    between atoms: C_5  and  C_17
    4  A    between atoms: C_7  and  C_13
    5  A    between atoms: C_8  and  C_17
    6  A    between atoms: C_10  and  C_13
                            x       y       z     vdW  Elec       q    Type
                         _______ _______ _______ _____ _____    ______ ____

>  <TORSDO>
F 6

$$$$
=
 OpenBabel10222418083D

 25 28  0  0  1  0  0  0  0  0999 V2000
  191.8950  177.5180  141.2180 C   0  0  0  0  0  2  0  0  0  0  0  0
  190.4600  177.5460  141.6990 C   0  0  1  0  0  3  0  0  0  0  0  0
  190.4630  176.3940  139.7470 C   0  0  1  0  0  3  0  0  0  0  0  0
  191.7680  177.1510  139.7790 C   0  0  0  0  0  2  0  0  0  0  0  0
  189.6270  176.9140  140.7530 O   0  0  0  0  0  0  0  0  0  0  0  0
  190.3440  176.9020  143.0520 C   0  0  0  0  0  0  0  0  0  0  0  0
  190.1240  175.6390  143.1290 N   0  0  0  0  0  2  0  0  0  0  0  0
  187.4530  177.3000  147.1700 C   0  0  0  0  0  3  0  0  0  0  0  0
  190.5270  177.7180  144.3060 C   0  0  2  0  0  3  0  0  0  0  0  0
  187.0780  177.8640  145.9370 C   0  0  0  0  0  3  0  0  0  0  0  0
  188.7460  176.9200  147.3890 N   0  0  0  0  0  0  0  0  0  0  0  0
  191.6840  177.1700  145.1600 C   0  0  0  0  0  3  0  0  0  0  0  0
  189.6760  177.0850  146.4130 C   0  0  0  0  0  0  0  0  0  0  0  0
  191.1060  176.7350  146.5180 C   0  0  0  0  0  3  0  0  0  0  0  0
  189.3480  177.6220  145.1990 C   0  0  0  0  0  0  0  0  0  0  0  0
  188.0420  178.0330  144.9340 C   0  0  0  0  0  3  0  0  0  0  0  0
  189.7950  176.5080  138.3760 C   0  0  2  0  0  3  0  0  0  0  0  0
  190.6380  174.2820  137.9350 O   0  0  0  0  0  0  0  0  0  0  0  0
  190.4620  175.5580  137.3710 C   0  0  1  0  0  3  0  0  0  0  0  0
  189.7370  173.7220  137.0170 C   0  0  0  0  0  2  0  0  0  0  0  0
  189.4730  175.0470  136.3580 C   0  0  0  0  0  2  0  0  0  0  0  0
  189.9040  177.8490  137.9060 O   0  0  0  0  0  0  0  0  0  0  0  0
  188.8280  178.7380  137.9370 C   0  0  0  0  0  0  0  0  0  0  0  0
  188.8950  179.8540  137.3560 O   0  0  0  0  0  0  0  0  0  0  0  0
  187.6670  178.3840  138.6100 O   0  0  0  0  0  1  0  0  0  0  0  0
  1  2  1  0  0  0  0
  2  6  1  1  0  0  0
  3 17  1  6  0  0  0
  3  4  1  0  0  0  0
  3  5  1  0  0  0  0
  4  1  1  0  0  0  0
  5  2  1  0  0  0  0
  6  7  2  0  0  0  0
  8 11  1  0  0  0  0
  9  6  1  6  0  0  0
  9 12  1  0  0  0  0
  9 15  1  0  0  0  0
 10  8  2  0  0  0  0
 12 14  2  0  0  0  0
 13 14  1  0  0  0  0
 13 11  2  0  0  0  0
 15 13  1  0  0  0  0
 16 15  2  0  0  0  0
 16 10  1  0  0  0  0
 17 22  1  6  0  0  0
 19 18  1  0  0  0  0
 19 17  1  1  0  0  0
 20 18  1  0  0  0  0
 21 20  1  0  0  0  0
 21 19  1  0  0  0  0
 22 23  1  0  0  0  0
 23 25  1  0  0  0  0
 24 23  2  0  0  0  0
M  END
>  <MODEL>
3

>  <REMARK>
 VINA RESULT:      -7.5      3.800      5.973
  Name = 
  6 active torsions:
  status: ('A' for Active; 'I' for Inactive)
    1  A    between atoms: O_1  and  C_2
    2  A    between atoms: O_1  and  C_13
    3  A    between atoms: C_5  and  C_17
    4  A    between atoms: C_7  and  C_13
    5  A    between atoms: C_8  and  C_17
    6  A    between atoms: C_10  and  C_13
                            x       y       z     vdW  Elec       q    Type
                         _______ _______ _______ _____ _____    ______ ____

>  <TORSDO>
F 6

$$$$
=
 OpenBabel10222418083D

 25 28  0  0  1  0  0  0  0  0999 V2000
  188.3270  178.2170  141.9170 C   0  0  0  0  0  2  0  0  0  0  0  0
  188.7980  176.7820  141.8160 C   0  0  1  0  0  3  0  0  0  0  0  0
  189.4330  177.8040  139.8960 C   0  0  1  0  0  3  0  0  0  0  0  0
  188.3780  178.6950  140.5050 C   0  0  0  0  0  2  0  0  0  0  0  0
  189.4010  176.5640  140.5600 O   0  0  0  0  0  0  0  0  0  0  0  0
  189.7390  176.4560  142.9430 C   0  0  0  0  0  0  0  0  0  0  0  0
  190.2370  175.2750  143.0200 N   0  0  0  0  0  2  0  0  0  0  0  0
  188.2310  177.1910  147.7020 C   0  0  0  0  0  3  0  0  0  0  0  0
  190.1280  177.5120  143.9440 C   0  0  2  0  0  3  0  0  0  0  0  0
  187.3910  177.4510  146.6040 C   0  0  0  0  0  3  0  0  0  0  0  0
  189.5770  177.0560  147.5220 N   0  0  0  0  0  0  0  0  0  0  0  0
  191.5780  177.3130  144.4250 C   0  0  0  0  0  3  0  0  0  0  0  0
  190.1100  177.1700  146.2780 C   0  0  0  0  0  0  0  0  0  0  0  0
  191.5430  177.0610  145.9420 C   0  0  0  0  0  3  0  0  0  0  0  0
  189.3250  177.4130  145.1850 C   0  0  0  0  0  0  0  0  0  0  0  0
  187.9460  177.5680  145.3230 C   0  0  0  0  0  3  0  0  0  0  0  0
  189.1960  177.6200  138.3960 C   0  0  2  0  0  3  0  0  0  0  0  0
  187.9460  179.1710  137.0220 O   0  0  0  0  0  0  0  0  0  0  0  0
  187.8180  178.1650  137.9960 C   0  0  1  0  0  3  0  0  0  0  0  0
  187.2860  178.3740  136.0740 C   0  0  0  0  0  2  0  0  0  0  0  0
  187.1160  177.2380  137.0410 C   0  0  0  0  0  2  0  0  0  0  0  0
  189.2710  176.2340  138.0700 O   0  0  0  0  0  0  0  0  0  0  0  0
  190.3930  175.6730  137.4590 C   0  0  0  0  0  0  0  0  0  0  0  0
  190.9430  176.2360  136.4750 O   0  0  0  0  0  0  0  0  0  0  0  0
  190.9160  174.4830  137.9480 O   0  0  0  0  0  1  0  0  0  0  0  0
  2  1  1  0  0  0  0
  2  6  1  1  0  0  0
  3 17  1  6  0  0  0
  3  4  1  0  0  0  0
  3  5  1  0  0  0  0
  4  1  1  0  0  0  0
  5  2  1  0  0  0  0
  6  7  2  0  0  0  0
  9  6  1  6  0  0  0
  9 12  1  0  0  0  0
  9 15  1  0  0  0  0
 10  8  2  0  0  0  0
 11  8  1  0  0  0  0
 12 14  2  0  0  0  0
 13 11  2  0  0  0  0
 14 13  1  0  0  0  0
 15 16  2  0  0  0  0
 15 13  1  0  0  0  0
 16 10  1  0  0  0  0
 17 22  1  1  0  0  0
 18 19  1  0  0  0  0
 19 17  1  6  0  0  0
 20 18  1  0  0  0  0
 20 21  1  0  0  0  0
 21 19  1  0  0  0  0
 23 25  1  0  0  0  0
 23 22  1  0  0  0  0
 24 23  2  0  0  0  0
M  END
>  <MODEL>
4

>  <REMARK>
 VINA RESULT:      -7.5      3.827      5.087
  Name = 
  6 active torsions:
  status: ('A' for Active; 'I' for Inactive)
    1  A    between atoms: O_1  and  C_2
    2  A    between atoms: O_1  and  C_13
    3  A    between atoms: C_5  and  C_17
    4  A    between atoms: C_7  and  C_13
    5  A    between atoms: C_8  and  C_17
    6  A    between atoms: C_10  and  C_13
                            x       y       z     vdW  Elec       q    Type
                         _______ _______ _______ _____ _____    ______ ____

>  <TORSDO>
F 6

$$$$
=
 OpenBabel10222418083D

 25 28  0  0  1  0  0  0  0  0999 V2000
  183.7990  178.8240  145.3770 C   0  0  0  0  0  2  0  0  0  0  0  0
  185.1270  178.1170  145.2110 C   0  0  1  0  0  3  0  0  0  0  0  0
  184.8310  179.3730  143.3490 C   0  0  1  0  0  3  0  0  0  0  0  0
  183.4700  179.2640  143.9910 C   0  0  0  0  0  2  0  0  0  0  0  0
  185.6810  178.4270  143.9520 O   0  0  0  0  0  0  0  0  0  0  0  0
  186.0630  178.4820  146.3300 C   0  0  0  0  0  0  0  0  0  0  0  0
  185.9630  179.6390  146.8780 N   0  0  0  0  0  2  0  0  0  0  0  0
  190.7690  177.5180  144.7820 C   0  0  0  0  0  3  0  0  0  0  0  0
  187.0790  177.4890  146.8330 C   0  0  2  0  0  3  0  0  0  0  0  0
  189.6430  177.1450  144.0260 C   0  0  0  0  0  3  0  0  0  0  0  0
  190.6350  177.8460  146.1000 N   0  0  0  0  0  0  0  0  0  0  0  0
  187.6080  177.8930  148.2210 C   0  0  0  0  0  3  0  0  0  0  0  0
  189.4100  177.8160  146.6860 C   0  0  0  0  0  0  0  0  0  0  0  0
  189.1230  178.1310  148.0990 C   0  0  0  0  0  3  0  0  0  0  0  0
  188.2910  177.4670  145.9820 C   0  0  0  0  0  0  0  0  0  0  0  0
  188.3820  177.1140  144.6360 C   0  0  0  0  0  3  0  0  0  0  0  0
  184.7470  179.1400  141.8400 C   0  0  2  0  0  3  0  0  0  0  0  0
  182.8120  179.4390  140.4160 O   0  0  0  0  0  0  0  0  0  0  0  0
  183.3480  178.6460  141.4470 C   0  0  1  0  0  3  0  0  0  0  0  0
  182.8340  178.3500  139.5310 C   0  0  0  0  0  2  0  0  0  0  0  0
  183.4210  177.4300  140.5630 C   0  0  0  0  0  2  0  0  0  0  0  0
  185.7170  178.1700  141.4550 O   0  0  0  0  0  0  0  0  0  0  0  0
  186.7850  178.4790  140.6110 C   0  0  0  0  0  0  0  0  0  0  0  0
  186.6080  178.6280  139.3730 O   0  0  0  0  0  0  0  0  0  0  0  0
  188.0580  178.6340  141.1440 O   0  0  0  0  0  1  0  0  0  0  0  0
  2  1  1  0  0  0  0
  2  6  1  1  0  0  0
  3 17  1  6  0  0  0
  3  5  1  0  0  0  0
  3  4  1  0  0  0  0
  4  1  1  0  0  0  0
  5  2  1  0  0  0  0
  6  7  2  0  0  0  0
  8 11  1  0  0  0  0
  9  6  1  6  0  0  0
  9 12  1  0  0  0  0
 10 16  1  0  0  0  0
 10  8  2  0  0  0  0
 11 13  2  0  0  0  0
 13 14  1  0  0  0  0
 14 12  2  0  0  0  0
 15 13  1  0  0  0  0
 15  9  1  0  0  0  0
 16 15  2  0  0  0  0
 17 22  1  1  0  0  0
 18 19  1  0  0  0  0
 19 17  1  6  0  0  0
 20 18  1  0  0  0  0
 20 21  1  0  0  0  0
 21 19  1  0  0  0  0
 23 25  1  0  0  0  0
 23 22  1  0  0  0  0
 24 23  2  0  0  0  0
M  END
>  <MODEL>
5

>  <REMARK>
 VINA RESULT:      -7.4      1.928      2.925
  Name = 
  6 active torsions:
  status: ('A' for Active; 'I' for Inactive)
    1  A    between atoms: O_1  and  C_2
    2  A    between atoms: O_1  and  C_13
    3  A    between atoms: C_5  and  C_17
    4  A    between atoms: C_7  and  C_13
    5  A    between atoms: C_8  and  C_17
    6  A    between atoms: C_10  and  C_13
                            x       y       z     vdW  Elec       q    Type
                         _______ _______ _______ _____ _____    ______ ____

>  <TORSDO>
F 6

$$$$
=
 OpenBabel10222418083D

 25 28  0  0  1  0  0  0  0  0999 V2000
  191.7260  177.2440  141.3660 C   0  0  0  0  0  2  0  0  0  0  0  0
  190.6220  177.7320  142.2790 C   0  0  1  0  0  3  0  0  0  0  0  0
  189.6090  176.9400  140.4140 C   0  0  1  0  0  3  0  0  0  0  0  0
  191.0550  177.1500  140.0370 C   0  0  0  0  0  2  0  0  0  0  0  0
  189.3740  177.5880  141.6400 O   0  0  0  0  0  0  0  0  0  0  0  0
  190.6580  176.9980  143.5910 C   0  0  0  0  0  0  0  0  0  0  0  0
  190.7210  175.7150  143.5880 N   0  0  0  0  0  2  0  0  0  0  0  0
  187.0970  177.4910  147.1310 C   0  0  0  0  0  3  0  0  0  0  0  0
  190.6660  177.7560  144.8920 C   0  0  2  0  0  3  0  0  0  0  0  0
  186.9960  178.1230  145.8780 C   0  0  0  0  0  3  0  0  0  0  0  0
  188.2960  177.0040  147.5630 N   0  0  0  0  0  0  0  0  0  0  0  0
  191.6040  177.0910  145.9160 C   0  0  0  0  0  3  0  0  0  0  0  0
  189.3990  177.1260  146.7790 C   0  0  0  0  0  0  0  0  0  0  0  0
  190.7560  176.6600  147.1250 C   0  0  0  0  0  3  0  0  0  0  0  0
  189.3400  177.7250  145.5520 C   0  0  0  0  0  0  0  0  0  0  0  0
  188.1380  178.2460  145.0750 C   0  0  0  0  0  3  0  0  0  0  0  0
  188.6750  177.4780  139.3290 C   0  0  2  0  0  3  0  0  0  0  0  0
  189.2820  176.8820  137.0630 O   0  0  0  0  0  0  0  0  0  0  0  0
  189.4690  177.8470  138.0680 C   0  0  1  0  0  3  0  0  0  0  0  0
  188.6280  177.8190  136.2480 C   0  0  0  0  0  2  0  0  0  0  0  0
  188.7670  178.9120  137.2690 C   0  0  0  0  0  2  0  0  0  0  0  0
  187.9970  178.6330  139.8180 O   0  0  0  0  0  0  0  0  0  0  0  0
  186.6360  178.6210  140.1260 C   0  0  0  0  0  0  0  0  0  0  0  0
  185.7670  178.6090  139.2150 O   0  0  0  0  0  0  0  0  0  0  0  0
  186.2350  178.6140  141.4550 O   0  0  0  0  0  1  0  0  0  0  0  0
  1  2  1  0  0  0  0
  2  6  1  1  0  0  0
  3 17  1  6  0  0  0
  3  5  1  0  0  0  0
  4  3  1  0  0  0  0
  4  1  1  0  0  0  0
  5  2  1  0  0  0  0
  7  6  2  0  0  0  0
  8 11  1  0  0  0  0
  9  6  1  6  0  0  0
  9 15  1  0  0  0  0
  9 12  1  0  0  0  0
 10  8  2  0  0  0  0
 12 14  2  0  0  0  0
 13 14  1  0  0  0  0
 13 11  2  0  0  0  0
 15 13  1  0  0  0  0
 16 15  2  0  0  0  0
 16 10  1  0  0  0  0
 17 22  1  1  0  0  0
 18 19  1  0  0  0  0
 19 17  1  1  0  0  0
 20 18  1  0  0  0  0
 20 21  1  0  0  0  0
 21 19  1  0  0  0  0
 22 23  1  0  0  0  0
 23 25  1  0  0  0  0
 24 23  2  0  0  0  0
M  END
>  <MODEL>
6

>  <REMARK>
 VINA RESULT:      -7.3      2.821      5.164
  Name = 
  6 active torsions:
  status: ('A' for Active; 'I' for Inactive)
    1  A    between atoms: O_1  and  C_2
    2  A    between atoms: O_1  and  C_13
    3  A    between atoms: C_5  and  C_17
    4  A    between atoms: C_7  and  C_13
    5  A    between atoms: C_8  and  C_17
    6  A    between atoms: C_10  and  C_13
                            x       y       z     vdW  Elec       q    Type
                         _______ _______ _______ _____ _____    ______ ____

>  <TORSDO>
F 6

$$$$
=
 OpenBabel10222418083D

 25 28  0  0  1  0  0  0  0  0999 V2000
  186.1360  178.5630  144.8660 C   0  0  0  0  0  2  0  0  0  0  0  0
  186.3680  177.3140  144.0420 C   0  0  1  0  0  3  0  0  0  0  0  0
  185.0910  178.6930  142.7760 C   0  0  1  0  0  3  0  0  0  0  0  0
  184.9770  179.2100  144.1880 C   0  0  0  0  0  2  0  0  0  0  0  0
  185.6700  177.4110  142.8210 O   0  0  0  0  0  0  0  0  0  0  0  0
  187.8380  177.0940  143.8200 C   0  0  0  0  0  0  0  0  0  0  0  0
  188.2240  176.0610  143.1620 N   0  0  0  0  0  2  0  0  0  0  0  0
  191.3710  176.6840  147.4000 C   0  0  0  0  0  3  0  0  0  0  0  0
  188.8460  178.0940  144.3240 C   0  0  2  0  0  3  0  0  0  0  0  0
  190.0000  176.7570  147.7090 C   0  0  0  0  0  3  0  0  0  0  0  0
  191.8200  177.0550  146.1660 N   0  0  0  0  0  0  0  0  0  0  0  0
  189.9340  178.3640  143.2690 C   0  0  0  0  0  3  0  0  0  0  0  0
  190.9410  177.4950  145.2290 C   0  0  0  0  0  0  0  0  0  0  0  0
  191.2880  177.9400  143.8650 C   0  0  0  0  0  3  0  0  0  0  0  0
  189.6010  177.5720  145.4880 C   0  0  0  0  0  0  0  0  0  0  0  0
  189.0980  177.2120  146.7380 C   0  0  0  0  0  3  0  0  0  0  0  0
  183.7220  178.6460  142.0960 C   0  0  2  0  0  3  0  0  0  0  0  0
  185.1070  179.5080  140.3080 O   0  0  0  0  0  0  0  0  0  0  0  0
  183.7750  179.3380  140.7270 C   0  0  1  0  0  3  0  0  0  0  0  0
  184.9090  178.6300  139.2320 C   0  0  0  0  0  2  0  0  0  0  0  0
  183.4780  178.3730  139.6110 C   0  0  0  0  0  2  0  0  0  0  0  0
  182.7600  179.2990  142.9210 O   0  0  0  0  0  0  0  0  0  0  0  0
  181.4490  178.8360  143.0440 C   0  0  0  0  0  0  0  0  0  0  0  0
  180.7570  178.5740  142.0240 O   0  0  0  0  0  0  0  0  0  0  0  0
  180.9030  178.6530  144.3070 O   0  0  0  0  0  1  0  0  0  0  0  0
  2  6  1  6  0  0  0
  2  1  1  0  0  0  0
  3 17  1  1  0  0  0
  3  5  1  0  0  0  0
  3  4  1  0  0  0  0
  4  1  1  0  0  0  0
  5  2  1  0  0  0  0
  7  6  2  0  0  0  0
  8 10  1  0  0  0  0
  9  6  1  6  0  0  0
  9 15  1  0  0  0  0
 11  8  2  0  0  0  0
 12 14  2  0  0  0  0
 12  9  1  0  0  0  0
 13 15  2  0  0  0  0
 13 11  1  0  0  0  0
 14 13  1  0  0  0  0
 15 16  1  0  0  0  0
 16 10  2  0  0  0  0
 17 22  1  1  0  0  0
 18 19  1  0  0  0  0
 19 17  1  1  0  0  0
 20 21  1  0  0  0  0
 20 18  1  0  0  0  0
 21 19  1  0  0  0  0
 22 23  1  0  0  0  0
 23 25  1  0  0  0  0
 24 23  2  0  0  0  0
M  END
>  <MODEL>
7

>  <REMARK>
 VINA RESULT:      -7.2      0.839      2.565
  Name = 
  6 active torsions:
  status: ('A' for Active; 'I' for Inactive)
    1  A    between atoms: O_1  and  C_2
    2  A    between atoms: O_1  and  C_13
    3  A    between atoms: C_5  and  C_17
    4  A    between atoms: C_7  and  C_13
    5  A    between atoms: C_8  and  C_17
    6  A    between atoms: C_10  and  C_13
                            x       y       z     vdW  Elec       q    Type
                         _______ _______ _______ _____ _____    ______ ____

>  <TORSDO>
F 6

$$$$
=
 OpenBabel10222418083D

 25 28  0  0  1  0  0  0  0  0999 V2000
  188.6930  178.0760  141.1110 C   0  0  0  0  0  2  0  0  0  0  0  0
  189.2210  176.6640  141.2470 C   0  0  1  0  0  3  0  0  0  0  0  0
  190.2550  177.5660  139.4440 C   0  0  1  0  0  3  0  0  0  0  0  0
  189.0590  178.4460  139.7140 C   0  0  0  0  0  2  0  0  0  0  0  0
  190.1080  176.3810  140.1890 O   0  0  0  0  0  0  0  0  0  0  0  0
  189.8810  176.4740  142.5850 C   0  0  0  0  0  0  0  0  0  0  0  0
  190.3040  175.3070  142.9140 N   0  0  0  0  0  2  0  0  0  0  0  0
  187.8830  177.4760  147.1090 C   0  0  0  0  0  3  0  0  0  0  0  0
  190.0840  177.6450  143.5110 C   0  0  2  0  0  3  0  0  0  0  0  0
  187.1290  177.5590  145.9250 C   0  0  0  0  0  3  0  0  0  0  0  0
  189.2470  177.4530  147.0570 N   0  0  0  0  0  0  0  0  0  0  0  0
  191.4950  177.6250  144.1270 C   0  0  0  0  0  3  0  0  0  0  0  0
  189.8800  177.5070  145.8560 C   0  0  0  0  0  0  0  0  0  0  0  0
  191.3420  177.5050  145.6540 C   0  0  0  0  0  3  0  0  0  0  0  0
  189.1820  177.5790  144.6830 C   0  0  0  0  0  0  0  0  0  0  0  0
  187.7880  177.6150  144.6890 C   0  0  0  0  0  3  0  0  0  0  0  0
  190.3830  177.2570  137.9520 C   0  0  2  0  0  3  0  0  0  0  0  0
  188.7400  177.7080  136.2340 O   0  0  0  0  0  0  0  0  0  0  0  0
  189.0140  176.9040  137.3550 C   0  0  1  0  0  3  0  0  0  0  0  0
  188.7730  176.5880  135.3890 C   0  0  0  0  0  2  0  0  0  0  0  0
  189.0840  175.6520  136.5220 C   0  0  0  0  0  2  0  0  0  0  0  0
  191.2770  176.1610  137.7710 O   0  0  0  0  0  0  0  0  0  0  0  0
  192.6190  176.3430  137.4350 C   0  0  0  0  0  0  0  0  0  0  0  0
  193.0280  176.1240  136.2630 O   0  0  0  0  0  0  0  0  0  0  0  0
  193.5150  176.7790  138.4020 O   0  0  0  0  0  1  0  0  0  0  0  0
  1  2  1  0  0  0  0
  2  6  1  1  0  0  0
  3 17  1  6  0  0  0
  3  4  1  0  0  0  0
  3  5  1  0  0  0  0
  4  1  1  0  0  0  0
  5  2  1  0  0  0  0
  6  7  2  0  0  0  0
  9  6  1  6  0  0  0
  9 12  1  0  0  0  0
  9 15  1  0  0  0  0
 10  8  2  0  0  0  0
 11  8  1  0  0  0  0
 12 14  2  0  0  0  0
 13 11  2  0  0  0  0
 14 13  1  0  0  0  0
 15 16  2  0  0  0  0
 15 13  1  0  0  0  0
 16 10  1  0  0  0  0
 17 22  1  1  0  0  0
 18 19  1  0  0  0  0
 19 17  1  6  0  0  0
 20 18  1  0  0  0  0
 20 21  1  0  0  0  0
 21 19  1  0  0  0  0
 23 22  1  0  0  0  0
 23 25  1  0  0  0  0
 24 23  2  0  0  0  0
M  END
>  <MODEL>
8

>  <REMARK>
 VINA RESULT:      -7.2      4.249      6.134
  Name = 
  6 active torsions:
  status: ('A' for Active; 'I' for Inactive)
    1  A    between atoms: O_1  and  C_2
    2  A    between atoms: O_1  and  C_13
    3  A    between atoms: C_5  and  C_17
    4  A    between atoms: C_7  and  C_13
    5  A    between atoms: C_8  and  C_17
    6  A    between atoms: C_10  and  C_13
                            x       y       z     vdW  Elec       q    Type
                         _______ _______ _______ _____ _____    ______ ____

>  <TORSDO>
F 6

$$$$
=
 OpenBabel10222418083D

 25 28  0  0  1  0  0  0  0  0999 V2000
  185.1460  178.7730  141.7540 C   0  0  0  0  0  2  0  0  0  0  0  0
  185.7460  177.8890  142.8270 C   0  0  1  0  0  3  0  0  0  0  0  0
  187.4370  178.4310  141.4200 C   0  0  1  0  0  3  0  0  0  0  0  0
  186.1650  178.7320  140.6670 C   0  0  0  0  0  2  0  0  0  0  0  0
  187.1090  177.6590  142.5500 O   0  0  0  0  0  0  0  0  0  0  0  0
  185.5550  178.5040  144.1860 C   0  0  0  0  0  0  0  0  0  0  0  0
  185.2250  179.7420  144.2720 N   0  0  0  0  0  2  0  0  0  0  0  0
  189.5490  177.7410  147.1740 C   0  0  0  0  0  3  0  0  0  0  0  0
  185.7050  177.6680  145.4310 C   0  0  2  0  0  3  0  0  0  0  0  0
  189.4640  177.1850  145.8850 C   0  0  0  0  0  3  0  0  0  0  0  0
  188.4310  178.2210  147.7920 N   0  0  0  0  0  0  0  0  0  0  0  0
  184.9290  178.2860  146.6090 C   0  0  0  0  0  3  0  0  0  0  0  0
  187.2300  178.1640  147.1600 C   0  0  0  0  0  0  0  0  0  0  0  0
  185.9430  178.6300  147.7140 C   0  0  0  0  0  3  0  0  0  0  0  0
  187.1080  177.6390  145.9040 C   0  0  0  0  0  0  0  0  0  0  0  0
  188.2220  177.1280  145.2380 C   0  0  0  0  0  3  0  0  0  0  0  0
  188.4400  177.6910  140.5320 C   0  0  2  0  0  3  0  0  0  0  0  0
  190.4740  176.3820  140.5830 O   0  0  0  0  0  0  0  0  0  0  0  0
  189.4610  176.9320  141.3890 C   0  0  1  0  0  3  0  0  0  0  0  0
  191.4350  177.2170  141.1740 C   0  0  0  0  0  2  0  0  0  0  0  0
  190.4210  177.8740  142.0660 C   0  0  0  0  0  2  0  0  0  0  0  0
  189.1200  178.6300  139.7030 O   0  0  0  0  0  0  0  0  0  0  0  0
  189.0570  178.5740  138.3090 C   0  0  0  0  0  0  0  0  0  0  0  0
  188.9920  177.4690  137.7090 O   0  0  0  0  0  1  0  0  0  0  0  0
  189.0560  179.7530  137.5760 O   0  0  0  0  0  0  0  0  0  0  0  0
  1  2  1  0  0  0  0
  2  6  1  1  0  0  0
  3 17  1  6  0  0  0
  3  5  1  0  0  0  0
  4  3  1  0  0  0  0
  4  1  1  0  0  0  0
  5  2  1  0  0  0  0
  6  7  2  0  0  0  0
  8 11  1  0  0  0  0
  9  6  1  6  0  0  0
  9 15  1  0  0  0  0
  9 12  1  0  0  0  0
 10  8  2  0  0  0  0
 12 14  2  0  0  0  0
 13 14  1  0  0  0  0
 13 11  2  0  0  0  0
 15 13  1  0  0  0  0
 16 10  1  0  0  0  0
 16 15  2  0  0  0  0
 17 22  1  1  0  0  0
 18 20  1  0  0  0  0
 18 19  1  0  0  0  0
 19 17  1  6  0  0  0
 19 21  1  0  0  0  0
 20 21  1  0  0  0  0
 23 22  1  0  0  0  0
 24 23  1  0  0  0  0
 25 23  2  0  0  0  0
M  END
>  <MODEL>
9

>  <REMARK>
 VINA RESULT:      -7.2      2.742      5.135
  Name = 
  6 active torsions:
  status: ('A' for Active; 'I' for Inactive)
    1  A    between atoms: O_1  and  C_2
    2  A    between atoms: O_1  and  C_13
    3  A    between atoms: C_5  and  C_17
    4  A    between atoms: C_7  and  C_13
    5  A    between atoms: C_8  and  C_17
    6  A    between atoms: C_10  and  C_13
                            x       y       z     vdW  Elec       q    Type
                         _______ _______ _______ _____ _____    ______ ____

>  <TORSDO>
F 6

$$$$
