=
 OpenBabel10222419573D

 36 39  0  0  1  0  0  0  0  0999 V2000
  185.4080  178.4420  141.7500 C   0  0  0  0  0  0  0  0  0  0  0  0
  186.7570  178.2570  141.4430 C   0  0  0  0  0  3  0  0  0  0  0  0
  189.1070  177.7680  142.1580 C   0  0  0  0  0  0  0  0  0  0  0  0
  189.6540  177.3660  144.4690 C   0  0  0  0  0  0  0  0  0  0  0  0
  189.3500  177.0190  147.3810 O   0  0  0  0  0  0  0  0  0  0  0  0
  183.3690  179.8470  144.1840 C   0  0  0  0  0  1  0  0  0  0  0  0
  182.5830  178.4570  142.2630 C   0  0  0  0  0  2  0  0  0  0  0  0
  187.2440  177.8060  143.7770 C   0  0  0  0  0  0  0  0  0  0  0  0
  185.8910  177.9750  144.0840 C   0  0  0  0  0  3  0  0  0  0  0  0
  183.1310  179.3020  141.1130 C   0  0  1  0  0  3  0  0  0  0  0  0
  190.6740  177.1030  145.4430 N   0  0  0  0  0  2  0  0  0  0  0  0
  189.5550  177.8820  140.9510 N   0  0  0  0  0  2  0  0  0  0  0  0
  184.4420  178.6820  140.6260 C   0  0  0  0  0  2  0  0  0  0  0  0
  183.5240  178.5150  143.4680 C   0  0  1  0  0  3  0  0  0  0  0  0
  184.9650  178.2900  143.0830 C   0  0  0  0  0  0  0  0  0  0  0  0
  190.0180  177.5010  143.2260 N   0  0  0  0  0  0  0  0  0  0  0  0
  187.6790  177.9490  142.4520 C   0  0  0  0  0  0  0  0  0  0  0  0
  190.4900  176.9300  146.8540 C   0  0  0  0  0  0  0  0  0  0  0  0
  188.2000  177.4560  144.8830 C   0  0  0  0  0  2  0  0  0  0  0  0
  192.4190  175.4520  147.2200 C   0  0  0  0  0  1  0  0  0  0  0  0
  191.6750  176.6760  147.7150 C   0  0  0  0  0  2  0  0  0  0  0  0
  182.1160  179.3900  139.9710 C   0  0  2  0  0  3  0  0  0  0  0  0
  181.8030  176.7170  139.1450 S   0  0  0  0  0  0  0  0  0  0  0  0
  180.0070  177.9680  140.3700 C   0  0  0  0  0  3  0  0  0  0  0  0
  179.4930  176.7290  140.1490 N   0  0  0  0  0  0  0  0  0  0  0  0
  181.2950  178.1440  139.8720 C   0  0  0  0  0  0  0  0  0  0  0  0
  180.3590  175.9320  139.4890 C   0  0  0  0  0  0  0  0  0  0  0  0
  179.8280  173.4780  138.8400 N   0  0  0  0  0  0  0  0  0  0  0  0
  180.0660  174.5730  139.1300 C   0  0  0  0  0  0  0  0  0  0  0  0
  182.7680  179.6100  138.7530 O   0  0  0  0  0  0  0  0  0  0  0  0
  181.8810  180.3180  138.0110 N   0  0  0  0  0  2  0  0  0  0  0  0
  181.9060  181.6840  138.5050 C   0  0  0  0  0  2  0  0  0  0  0  0
  180.7600  182.4740  137.8980 C   0  0  0  0  0  2  0  0  0  0  0  0
  180.8830  183.7870  135.9180 O   0  0  0  0  0  0  0  0  0  0  0  0
  181.2960  183.6010  137.0910 C   0  0  0  0  0  0  0  0  0  0  0  0
  182.2760  184.4310  137.6210 O   0  0  0  0  0  1  0  0  0  0  0  0
  1 15  1  0  0  0  0
  2  1  2  0  0  0  0
  2 17  1  0  0  0  0
  3 17  1  0  0  0  0
  3 16  1  0  0  0  0
  4 19  1  0  0  0  0
  4 11  1  0  0  0  0
  7 14  1  0  0  0  0
  8  9  1  0  0  0  0
  8 19  1  0  0  0  0
 10 22  1  6  0  0  0
 10  7  1  0  0  0  0
 11 18  1  0  0  0  0
 12  3  2  0  0  0  0
 13 10  1  0  0  0  0
 13  1  1  0  0  0  0
 14  6  1  6  0  0  0
 15 14  1  0  0  0  0
 15  9  2  0  0  0  0
 16  4  2  0  0  0  0
 17  8  2  0  0  0  0
 18  5  2  0  0  0  0
 18 21  1  0  0  0  0
 20 21  1  0  0  0  0
 22 30  1  6  0  0  0
 23 27  1  0  0  0  0
 23 26  1  0  0  0  0
 25 24  1  0  0  0  0
 26 22  1  0  0  0  0
 26 24  2  0  0  0  0
 27 25  2  0  0  0  0
 28 29  3  0  0  0  0
 29 27  1  0  0  0  0
 31 32  1  0  0  0  0
 31 30  1  0  0  0  0
 33 32  1  0  0  0  0
 34 35  2  0  0  0  0
 35 36  1  0  0  0  0
 35 33  1  0  0  0  0
M  END
>  <MODEL>
1

>  <REMARK>
 VINA RESULT:      -7.9      0.000      0.000
  Name = 
  9 active torsions:
  status: ('A' for Active; 'I' for Inactive)
    1  A    between atoms: C_3  and  C_35
    2  A    between atoms: C_4  and  C_11
    3  A    between atoms: C_4  and  C_16
    4  A    between atoms: C_13  and  C_21
    5  A    between atoms: C_13  and  C_25
    6  A    between atoms: C_13  and  O_34
    7  A    between atoms: C_16  and  N_26
    8  A    between atoms: N_26  and  O_34
    9  A    between atoms: C_28  and  C_30
                            x       y       z     vdW  Elec       q    Type
                         _______ _______ _______ _____ _____    ______ ____

>  <TORSDO>
F 9

$$$$
=
 OpenBabel10222419573D

 36 39  0  0  1  0  0  0  0  0999 V2000
  186.8540  178.2680  141.7190 C   0  0  0  0  0  0  0  0  0  0  0  0
  188.2320  178.0900  141.5750 C   0  0  0  0  0  3  0  0  0  0  0  0
  190.4850  177.6330  142.5690 C   0  0  0  0  0  0  0  0  0  0  0  0
  190.7590  177.2730  144.9350 C   0  0  0  0  0  0  0  0  0  0  0  0
  190.1170  176.9710  147.7970 O   0  0  0  0  0  0  0  0  0  0  0  0
  184.5350  179.6960  143.8720 C   0  0  0  0  0  1  0  0  0  0  0  0
  183.9890  178.2670  141.8970 C   0  0  0  0  0  2  0  0  0  0  0  0
  188.4440  177.6820  143.9580 C   0  0  0  0  0  0  0  0  0  0  0  0
  187.0640  177.8440  144.1010 C   0  0  0  0  0  3  0  0  0  0  0  0
  184.6630  179.0980  140.8050 C   0  0  1  0  0  3  0  0  0  0  0  0
  191.6590  177.0340  146.0260 N   0  0  0  0  0  2  0  0  0  0  0  0
  191.0700  177.7300  141.4210 N   0  0  0  0  0  2  0  0  0  0  0  0
  186.0260  178.4820  140.4850 C   0  0  0  0  0  2  0  0  0  0  0  0
  184.7820  178.3540  143.2020 C   0  0  1  0  0  3  0  0  0  0  0  0
  186.2590  178.1340  142.9930 C   0  0  0  0  0  0  0  0  0  0  0  0
  191.2650  177.3910  143.7410 N   0  0  0  0  0  0  0  0  0  0  0  0
  189.0310  177.8060  142.6900 C   0  0  0  0  0  0  0  0  0  0  0  0
  191.3120  176.8830  147.4080 C   0  0  0  0  0  0  0  0  0  0  0  0
  189.2650  177.3570  145.1740 C   0  0  0  0  0  2  0  0  0  0  0  0
  192.8080  175.1960  148.3870 C   0  0  0  0  0  1  0  0  0  0  0  0
  192.3890  176.6530  148.4070 C   0  0  0  0  0  2  0  0  0  0  0  0
  183.7880  179.1590  139.5500 C   0  0  2  0  0  3  0  0  0  0  0  0
  182.9800  176.5270  138.9600 S   0  0  0  0  0  0  0  0  0  0  0  0
  184.7890  177.7020  137.6770 C   0  0  0  0  0  3  0  0  0  0  0  0
  184.6850  176.4720  137.1060 N   0  0  0  0  0  0  0  0  0  0  0  0
  183.9100  177.9100  138.7370 C   0  0  0  0  0  0  0  0  0  0  0  0
  183.7380  175.7160  137.7000 C   0  0  0  0  0  0  0  0  0  0  0  0
  183.1740  173.2960  136.9590 N   0  0  0  0  0  0  0  0  0  0  0  0
  183.4260  174.3770  137.2900 C   0  0  0  0  0  0  0  0  0  0  0  0
  184.1420  180.2590  138.7610 O   0  0  0  0  0  0  0  0  0  0  0  0
  183.1070  181.1250  138.8950 N   0  0  0  0  0  2  0  0  0  0  0  0
  181.8970  180.4020  138.5400 C   0  0  0  0  0  2  0  0  0  0  0  0
  180.6800  181.1410  139.0670 C   0  0  0  0  0  2  0  0  0  0  0  0
  179.6410  181.1980  141.2080 O   0  0  0  0  0  1  0  0  0  0  0  0
  180.2080  180.5040  140.3250 C   0  0  0  0  0  0  0  0  0  0  0  0
  180.4200  179.1490  140.5390 O   0  0  0  0  0  0  0  0  0  0  0  0
  1 15  1  0  0  0  0
  2  1  2  0  0  0  0
  2 17  1  0  0  0  0
  3 17  1  0  0  0  0
  3 16  1  0  0  0  0
  4 19  1  0  0  0  0
  4 11  1  0  0  0  0
  7 14  1  0  0  0  0
  8  9  1  0  0  0  0
  8 19  1  0  0  0  0
 10 22  1  6  0  0  0
 10  7  1  0  0  0  0
 11 18  1  0  0  0  0
 12  3  2  0  0  0  0
 13 10  1  0  0  0  0
 13  1  1  0  0  0  0
 14  6  1  6  0  0  0
 15 14  1  0  0  0  0
 15  9  2  0  0  0  0
 16  4  2  0  0  0  0
 17  8  2  0  0  0  0
 18  5  2  0  0  0  0
 18 21  1  0  0  0  0
 20 21  1  0  0  0  0
 22 30  1  6  0  0  0
 24 26  2  0  0  0  0
 25 24  1  0  0  0  0
 25 27  2  0  0  0  0
 26 23  1  0  0  0  0
 26 22  1  0  0  0  0
 27 23  1  0  0  0  0
 28 29  3  0  0  0  0
 29 27  1  0  0  0  0
 30 31  1  0  0  0  0
 32 31  1  0  0  0  0
 32 33  1  0  0  0  0
 33 35  1  0  0  0  0
 35 36  2  0  0  0  0
 35 34  1  0  0  0  0
M  END
>  <MODEL>
2

>  <REMARK>
 VINA RESULT:      -7.9      2.318      2.721
  Name = 
  9 active torsions:
  status: ('A' for Active; 'I' for Inactive)
    1  A    between atoms: C_3  and  C_35
    2  A    between atoms: C_4  and  C_11
    3  A    between atoms: C_4  and  C_16
    4  A    between atoms: C_13  and  C_21
    5  A    between atoms: C_13  and  C_25
    6  A    between atoms: C_13  and  O_34
    7  A    between atoms: C_16  and  N_26
    8  A    between atoms: N_26  and  O_34
    9  A    between atoms: C_28  and  C_30
                            x       y       z     vdW  Elec       q    Type
                         _______ _______ _______ _____ _____    ______ ____

>  <TORSDO>
F 9

$$$$
=
 OpenBabel10222419573D

 36 39  0  0  1  0  0  0  0  0999 V2000
  185.0090  178.6560  141.3020 C   0  0  0  0  0  0  0  0  0  0  0  0
  186.3810  178.5860  141.0490 C   0  0  0  0  0  3  0  0  0  0  0  0
  188.7230  178.1760  141.8360 C   0  0  0  0  0  0  0  0  0  0  0  0
  189.1890  177.5870  144.1240 C   0  0  0  0  0  0  0  0  0  0  0  0
  188.7760  176.9400  146.9710 O   0  0  0  0  0  0  0  0  0  0  0  0
  182.7720  179.6900  143.7470 C   0  0  0  0  0  1  0  0  0  0  0  0
  182.1700  178.4460  141.6670 C   0  0  0  0  0  2  0  0  0  0  0  0
  186.7890  177.9420  143.3530 C   0  0  0  0  0  0  0  0  0  0  0  0
  185.4150  177.9960  143.6030 C   0  0  0  0  0  3  0  0  0  0  0  0
  182.7120  179.4310  140.6310 C   0  0  1  0  0  3  0  0  0  0  0  0
  190.1780  177.2940  145.1210 N   0  0  0  0  0  2  0  0  0  0  0  0
  189.2170  178.4340  140.6700 N   0  0  0  0  0  2  0  0  0  0  0  0
  184.0820  178.9440  140.1560 C   0  0  0  0  0  2  0  0  0  0  0  0
  183.0480  178.4460  142.9190 C   0  0  1  0  0  3  0  0  0  0  0  0
  184.5170  178.3480  142.5900 C   0  0  0  0  0  0  0  0  0  0  0  0
  189.5990  177.8640  142.9200 N   0  0  0  0  0  0  0  0  0  0  0  0
  187.2740  178.2390  142.0710 C   0  0  0  0  0  0  0  0  0  0  0  0
  189.9420  176.9740  146.4980 C   0  0  0  0  0  0  0  0  0  0  0  0
  187.7140  177.5450  144.4690 C   0  0  0  0  0  2  0  0  0  0  0  0
  192.1050  175.8220  146.6860 C   0  0  0  0  0  1  0  0  0  0  0  0
  191.1010  176.7110  147.3920 C   0  0  0  0  0  2  0  0  0  0  0  0
  181.7460  179.5670  139.4510 C   0  0  2  0  0  3  0  0  0  0  0  0
  182.2940  177.6330  137.4790 S   0  0  0  0  0  0  0  0  0  0  0  0
  180.5210  177.3140  139.2250 C   0  0  0  0  0  3  0  0  0  0  0  0
  180.4870  176.1830  138.4700 N   0  0  0  0  0  0  0  0  0  0  0  0
  181.4730  178.2420  138.8140 C   0  0  0  0  0  0  0  0  0  0  0  0
  181.4000  176.2110  137.4760 C   0  0  0  0  0  0  0  0  0  0  0  0
  181.7140  174.2800  135.7740 N   0  0  0  0  0  0  0  0  0  0  0  0
  181.5730  175.1430  136.5330 C   0  0  0  0  0  0  0  0  0  0  0  0
  182.2670  180.4410  138.4910 O   0  0  0  0  0  0  0  0  0  0  0  0
  181.5950  181.6030  138.6840 N   0  0  0  0  0  2  0  0  0  0  0  0
  180.8580  181.8770  137.4630 C   0  0  0  0  0  2  0  0  0  0  0  0
  180.3000  183.2890  137.5020 C   0  0  0  0  0  2  0  0  0  0  0  0
  182.2370  184.6710  137.5380 O   0  0  0  0  0  1  0  0  0  0  0  0
  181.2650  184.2300  136.8740 C   0  0  0  0  0  0  0  0  0  0  0  0
  181.0750  184.6460  135.5630 O   0  0  0  0  0  0  0  0  0  0  0  0
  1 15  1  0  0  0  0
  2  1  2  0  0  0  0
  2 17  1  0  0  0  0
  3 17  1  0  0  0  0
  3 16  1  0  0  0  0
  4 19  1  0  0  0  0
  4 11  1  0  0  0  0
  7 14  1  0  0  0  0
  8  9  1  0  0  0  0
  8 19  1  0  0  0  0
 10 22  1  6  0  0  0
 10  7  1  0  0  0  0
 11 18  1  0  0  0  0
 12  3  2  0  0  0  0
 13 10  1  0  0  0  0
 13  1  1  0  0  0  0
 14  6  1  6  0  0  0
 15 14  1  0  0  0  0
 15  9  2  0  0  0  0
 16  4  2  0  0  0  0
 17  8  2  0  0  0  0
 18  5  2  0  0  0  0
 18 21  1  0  0  0  0
 20 21  1  0  0  0  0
 22 30  1  6  0  0  0
 23 26  1  0  0  0  0
 25 24  1  0  0  0  0
 26 24  2  0  0  0  0
 26 22  1  0  0  0  0
 27 23  1  0  0  0  0
 27 25  2  0  0  0  0
 28 29  3  0  0  0  0
 29 27  1  0  0  0  0
 30 31  1  0  0  0  0
 32 33  1  0  0  0  0
 32 31  1  0  0  0  0
 35 33  1  0  0  0  0
 35 34  1  0  0  0  0
 36 35  2  0  0  0  0
M  END
>  <MODEL>
3

>  <REMARK>
 VINA RESULT:      -7.7      1.236      1.364
  Name = 
  9 active torsions:
  status: ('A' for Active; 'I' for Inactive)
    1  A    between atoms: C_3  and  C_35
    2  A    between atoms: C_4  and  C_11
    3  A    between atoms: C_4  and  C_16
    4  A    between atoms: C_13  and  C_21
    5  A    between atoms: C_13  and  C_25
    6  A    between atoms: C_13  and  O_34
    7  A    between atoms: C_16  and  N_26
    8  A    between atoms: N_26  and  O_34
    9  A    between atoms: C_28  and  C_30
                            x       y       z     vdW  Elec       q    Type
                         _______ _______ _______ _____ _____    ______ ____

>  <TORSDO>
F 9

$$$$
=
 OpenBabel10222419573D

 36 39  0  0  1  0  0  0  0  0999 V2000
  184.0980  178.8320  140.7760 C   0  0  0  0  0  0  0  0  0  0  0  0
  185.4770  178.8330  140.5530 C   0  0  0  0  0  3  0  0  0  0  0  0
  187.8180  178.5040  141.3790 C   0  0  0  0  0  0  0  0  0  0  0  0
  188.2620  177.8590  143.6570 C   0  0  0  0  0  0  0  0  0  0  0  0
  187.8180  177.0970  146.4710 O   0  0  0  0  0  0  0  0  0  0  0  0
  181.7640  179.6790  143.2020 C   0  0  0  0  0  1  0  0  0  0  0  0
  181.2650  178.4810  141.0680 C   0  0  0  0  0  2  0  0  0  0  0  0
  185.8650  178.1300  142.8420 C   0  0  0  0  0  0  0  0  0  0  0  0
  184.4850  178.1130  143.0630 C   0  0  0  0  0  3  0  0  0  0  0  0
  181.7830  179.5240  140.0780 C   0  0  1  0  0  3  0  0  0  0  0  0
  189.2420  177.5770  144.6660 N   0  0  0  0  0  2  0  0  0  0  0  0
  188.3250  178.8240  140.2340 N   0  0  0  0  0  2  0  0  0  0  0  0
  183.1840  179.1170  139.6190 C   0  0  0  0  0  2  0  0  0  0  0  0
  182.1150  178.4780  142.3390 C   0  0  1  0  0  3  0  0  0  0  0  0
  183.5930  178.4580  142.0410 C   0  0  0  0  0  0  0  0  0  0  0  0
  188.6850  178.1950  142.4720 N   0  0  0  0  0  0  0  0  0  0  0  0
  186.3630  178.4930  141.5830 C   0  0  0  0  0  0  0  0  0  0  0  0
  188.9910  177.2000  146.0250 C   0  0  0  0  0  0  0  0  0  0  0  0
  186.7840  177.7380  143.9660 C   0  0  0  0  0  2  0  0  0  0  0  0
  191.3920  176.6860  146.1260 C   0  0  0  0  0  1  0  0  0  0  0  0
  190.1410  176.9600  146.9370 C   0  0  0  0  0  2  0  0  0  0  0  0
  180.8380  179.6560  138.8810 C   0  0  2  0  0  3  0  0  0  0  0  0
  180.6630  182.1710  137.6280 S   0  0  0  0  0  0  0  0  0  0  0  0
  179.2900  181.5690  139.6400 C   0  0  0  0  0  3  0  0  0  0  0  0
  178.9310  182.8430  139.3290 N   0  0  0  0  0  0  0  0  0  0  0  0
  180.2550  181.0310  138.7940 C   0  0  0  0  0  0  0  0  0  0  0  0
  179.5970  183.3090  138.2520 C   0  0  0  0  0  0  0  0  0  0  0  0
  179.2510  185.6870  137.2790 N   0  0  0  0  0  0  0  0  0  0  0  0
  179.4050  184.6250  137.7130 C   0  0  0  0  0  0  0  0  0  0  0  0
  179.8010  178.7210  138.9720 O   0  0  0  0  0  0  0  0  0  0  0  0
  179.6190  178.2860  137.7010 N   0  0  0  0  0  2  0  0  0  0  0  0
  179.5970  176.8340  137.7460 C   0  0  0  0  0  2  0  0  0  0  0  0
  181.0110  176.2910  137.6430 C   0  0  0  0  0  2  0  0  0  0  0  0
  182.3290  175.6550  139.5190 O   0  0  0  0  0  1  0  0  0  0  0  0
  181.3080  175.4320  138.8190 C   0  0  0  0  0  0  0  0  0  0  0  0
  180.4770  174.3630  139.1270 O   0  0  0  0  0  0  0  0  0  0  0  0
  1 15  1  0  0  0  0
  2  1  2  0  0  0  0
  2 17  1  0  0  0  0
  3 17  1  0  0  0  0
  3 16  1  0  0  0  0
  4 19  1  0  0  0  0
  4 11  1  0  0  0  0
  7 14  1  0  0  0  0
  8  9  1  0  0  0  0
  8 19  1  0  0  0  0
 10 22  1  6  0  0  0
 10  7  1  0  0  0  0
 11 18  1  0  0  0  0
 12  3  2  0  0  0  0
 13 10  1  0  0  0  0
 13  1  1  0  0  0  0
 14  6  1  6  0  0  0
 15 14  1  0  0  0  0
 15  9  2  0  0  0  0
 16  4  2  0  0  0  0
 17  8  2  0  0  0  0
 18  5  2  0  0  0  0
 18 21  1  0  0  0  0
 20 21  1  0  0  0  0
 22 30  1  1  0  0  0
 23 27  1  0  0  0  0
 23 26  1  0  0  0  0
 25 24  1  0  0  0  0
 26 22  1  0  0  0  0
 26 24  2  0  0  0  0
 27 25  2  0  0  0  0
 28 29  3  0  0  0  0
 29 27  1  0  0  0  0
 31 32  1  0  0  0  0
 31 30  1  0  0  0  0
 33 32  1  0  0  0  0
 33 35  1  0  0  0  0
 35 36  2  0  0  0  0
 35 34  1  0  0  0  0
M  END
>  <MODEL>
4

>  <REMARK>
 VINA RESULT:      -7.5      2.448      4.769
  Name = 
  9 active torsions:
  status: ('A' for Active; 'I' for Inactive)
    1  A    between atoms: C_3  and  C_35
    2  A    between atoms: C_4  and  C_11
    3  A    between atoms: C_4  and  C_16
    4  A    between atoms: C_13  and  C_21
    5  A    between atoms: C_13  and  C_25
    6  A    between atoms: C_13  and  O_34
    7  A    between atoms: C_16  and  N_26
    8  A    between atoms: N_26  and  O_34
    9  A    between atoms: C_28  and  C_30
                            x       y       z     vdW  Elec       q    Type
                         _______ _______ _______ _____ _____    ______ ____

>  <TORSDO>
F 9

$$$$
=
 OpenBabel10222419573D

 36 39  0  0  1  0  0  0  0  0999 V2000
  184.1450  178.8280  141.8980 C   0  0  0  0  0  0  0  0  0  0  0  0
  184.2810  178.6130  143.2720 C   0  0  0  0  0  3  0  0  0  0  0  0
  185.6930  178.0340  145.2570 C   0  0  0  0  0  0  0  0  0  0  0  0
  188.0410  177.5480  145.0240 C   0  0  0  0  0  0  0  0  0  0  0  0
  190.6900  177.1390  143.7950 O   0  0  0  0  0  0  0  0  0  0  0  0
  185.2670  177.5870  138.8560 C   0  0  0  0  0  1  0  0  0  0  0  0
  183.8870  179.6470  139.1600 C   0  0  0  0  0  2  0  0  0  0  0  0
  186.6520  178.1860  142.9870 C   0  0  0  0  0  0  0  0  0  0  0  0
  186.5220  178.4160  141.6150 C   0  0  0  0  0  3  0  0  0  0  0  0
  182.6800  179.0280  139.8640 C   0  0  1  0  0  3  0  0  0  0  0  0
  189.2640  177.1550  145.6610 N   0  0  0  0  0  2  0  0  0  0  0  0
  184.6880  178.1190  146.0650 N   0  0  0  0  0  2  0  0  0  0  0  0
  182.8100  179.2660  141.3690 C   0  0  0  0  0  2  0  0  0  0  0  0
  185.1740  178.9270  139.5670 C   0  0  1  0  0  3  0  0  0  0  0  0
  185.2790  178.7390  141.0600 C   0  0  0  0  0  0  0  0  0  0  0  0
  186.9740  177.6540  145.7630 N   0  0  0  0  0  0  0  0  0  0  0  0
  185.5280  178.2830  143.8190 C   0  0  0  0  0  0  0  0  0  0  0  0
  190.5400  176.9730  145.0340 C   0  0  0  0  0  0  0  0  0  0  0  0
  188.0100  177.8550  143.5410 C   0  0  0  0  0  2  0  0  0  0  0  0
  191.2760  176.3930  147.3060 C   0  0  0  0  0  1  0  0  0  0  0  0
  191.7010  176.5460  145.8580 C   0  0  0  0  0  2  0  0  0  0  0  0
  181.3740  179.6240  139.3320 C   0  0  2  0  0  3  0  0  0  0  0  0
  181.0070  178.0770  137.0090 S   0  0  0  0  0  0  0  0  0  0  0  0
  179.4320  177.9750  138.9600 C   0  0  0  0  0  3  0  0  0  0  0  0
  178.9310  177.0990  138.0480 N   0  0  0  0  0  0  0  0  0  0  0  0
  180.5950  178.6190  138.5450 C   0  0  0  0  0  0  0  0  0  0  0  0
  179.6840  177.0450  136.9290 C   0  0  0  0  0  0  0  0  0  0  0  0
  179.1290  175.5180  134.9090 N   0  0  0  0  0  0  0  0  0  0  0  0
  179.3770  176.2000  135.8110 C   0  0  0  0  0  0  0  0  0  0  0  0
  181.6380  180.7360  138.5260 O   0  0  0  0  0  0  0  0  0  0  0  0
  180.4790  181.4400  138.5210 N   0  0  0  0  0  2  0  0  0  0  0  0
  180.4490  182.2070  137.2870 C   0  0  0  0  0  2  0  0  0  0  0  0
  180.2170  183.6750  137.5960 C   0  0  0  0  0  2  0  0  0  0  0  0
  181.1140  184.9720  135.8150 O   0  0  0  0  0  0  0  0  0  0  0  0
  181.2830  184.4980  136.9680 C   0  0  0  0  0  0  0  0  0  0  0  0
  182.4780  184.7180  137.6400 O   0  0  0  0  0  1  0  0  0  0  0  0
  1  2  1  0  0  0  0
  2 17  2  0  0  0  0
  3 16  1  0  0  0  0
  3 12  2  0  0  0  0
  4 11  1  0  0  0  0
  4 16  2  0  0  0  0
  5 18  2  0  0  0  0
  7 14  1  0  0  0  0
  7 10  1  0  0  0  0
  8 19  1  0  0  0  0
  8 17  1  0  0  0  0
  9  8  2  0  0  0  0
 10 22  1  6  0  0  0
 10 13  1  0  0  0  0
 13  1  1  0  0  0  0
 14  6  1  6  0  0  0
 14 15  1  0  0  0  0
 15  9  1  0  0  0  0
 15  1  2  0  0  0  0
 17  3  1  0  0  0  0
 18 11  1  0  0  0  0
 18 21  1  0  0  0  0
 19  4  1  0  0  0  0
 21 20  1  0  0  0  0
 22 30  1  6  0  0  0
 23 26  1  0  0  0  0
 25 24  1  0  0  0  0
 26 24  2  0  0  0  0
 26 22  1  0  0  0  0
 27 23  1  0  0  0  0
 27 25  2  0  0  0  0
 28 29  3  0  0  0  0
 29 27  1  0  0  0  0
 31 30  1  0  0  0  0
 32 33  1  0  0  0  0
 32 31  1  0  0  0  0
 34 35  2  0  0  0  0
 35 33  1  0  0  0  0
 35 36  1  0  0  0  0
M  END
>  <MODEL>
5

>  <REMARK>
 VINA RESULT:      -7.3      2.108      2.865
  Name = 
  9 active torsions:
  status: ('A' for Active; 'I' for Inactive)
    1  A    between atoms: C_3  and  C_35
    2  A    between atoms: C_4  and  C_11
    3  A    between atoms: C_4  and  C_16
    4  A    between atoms: C_13  and  C_21
    5  A    between atoms: C_13  and  C_25
    6  A    between atoms: C_13  and  O_34
    7  A    between atoms: C_16  and  N_26
    8  A    between atoms: N_26  and  O_34
    9  A    between atoms: C_28  and  C_30
                            x       y       z     vdW  Elec       q    Type
                         _______ _______ _______ _____ _____    ______ ____

>  <TORSDO>
F 9

$$$$
=
 OpenBabel10222419573D

 36 39  0  0  1  0  0  0  0  0999 V2000
  187.9770  177.5940  141.7090 C   0  0  0  0  0  0  0  0  0  0  0  0
  187.8910  177.7310  140.3220 C   0  0  0  0  0  3  0  0  0  0  0  0
  188.9240  177.5500  138.0470 C   0  0  0  0  0  0  0  0  0  0  0  0
  191.1900  176.7890  137.7590 C   0  0  0  0  0  0  0  0  0  0  0  0
  193.8950  175.7960  138.3900 O   0  0  0  0  0  0  0  0  0  0  0  0
  190.2070  178.0620  144.3280 C   0  0  0  0  0  1  0  0  0  0  0  0
  187.9650  176.9760  144.5130 C   0  0  0  0  0  2  0  0  0  0  0  0
  190.1610  176.9060  140.0850 C   0  0  0  0  0  0  0  0  0  0  0  0
  190.2420  176.7530  141.4710 C   0  0  0  0  0  3  0  0  0  0  0  0
  187.0970  178.1280  144.0040 C   0  0  1  0  0  3  0  0  0  0  0  0
  192.2730  176.5240  136.8550 N   0  0  0  0  0  2  0  0  0  0  0  0
  187.8560  177.9920  137.4690 N   0  0  0  0  0  2  0  0  0  0  0  0
  186.7550  177.8770  142.5350 C   0  0  0  0  0  2  0  0  0  0  0  0
  189.3110  176.9590  143.7870 C   0  0  1  0  0  3  0  0  0  0  0  0
  189.1600  177.0890  142.2930 C   0  0  0  0  0  0  0  0  0  0  0  0
  190.0770  177.2420  137.2620 N   0  0  0  0  0  0  0  0  0  0  0  0
  188.9810  177.3980  139.5080 C   0  0  0  0  0  0  0  0  0  0  0  0
  193.5750  176.0320  137.1950 C   0  0  0  0  0  0  0  0  0  0  0  0
  191.3430  176.5180  139.2420 C   0  0  0  0  0  2  0  0  0  0  0  0
  194.7700  177.1200  135.3440 C   0  0  0  0  0  1  0  0  0  0  0  0
  194.5790  175.8300  136.1170 C   0  0  0  0  0  2  0  0  0  0  0  0
  185.8220  178.2600  144.8420 C   0  0  2  0  0  3  0  0  0  0  0  0
  183.1230  179.0030  144.5430 S   0  0  0  0  0  0  0  0  0  0  0  0
  184.5640  178.3410  142.5980 C   0  0  0  0  0  3  0  0  0  0  0  0
  183.3470  178.6280  142.0620 N   0  0  0  0  0  0  0  0  0  0  0  0
  184.6230  178.4930  143.9800 C   0  0  0  0  0  0  0  0  0  0  0  0
  182.4550  179.0050  143.0020 C   0  0  0  0  0  0  0  0  0  0  0  0
  180.0030  179.6510  142.4630 N   0  0  0  0  0  0  0  0  0  0  0  0
  181.0980  179.3620  142.7040 C   0  0  0  0  0  0  0  0  0  0  0  0
  185.9450  179.3120  145.7560 O   0  0  0  0  0  0  0  0  0  0  0  0
  185.7080  178.7460  146.9650 N   0  0  0  0  0  2  0  0  0  0  0  0
  186.9250  178.8850  147.7470 C   0  0  0  0  0  2  0  0  0  0  0  0
  187.5550  177.5220  147.9690 C   0  0  0  0  0  2  0  0  0  0  0  0
  189.5190  178.6280  148.7350 O   0  0  0  0  0  1  0  0  0  0  0  0
  189.0300  177.6620  148.0930 C   0  0  0  0  0  0  0  0  0  0  0  0
  189.8700  176.7450  147.4750 O   0  0  0  0  0  0  0  0  0  0  0  0
  1 15  1  0  0  0  0
  1 13  1  0  0  0  0
  2  1  2  0  0  0  0
  3 17  1  0  0  0  0
  4 19  1  0  0  0  0
  8  9  1  0  0  0  0
  9 15  2  0  0  0  0
 10  7  1  0  0  0  0
 10 22  1  1  0  0  0
 11 18  1  0  0  0  0
 11  4  1  0  0  0  0
 12  3  2  0  0  0  0
 13 10  1  0  0  0  0
 14  6  1  1  0  0  0
 14  7  1  0  0  0  0
 15 14  1  0  0  0  0
 16  4  2  0  0  0  0
 16  3  1  0  0  0  0
 17  8  2  0  0  0  0
 17  2  1  0  0  0  0
 18  5  2  0  0  0  0
 19  8  1  0  0  0  0
 20 21  1  0  0  0  0
 21 18  1  0  0  0  0
 22 30  1  1  0  0  0
 24 26  2  0  0  0  0
 25 24  1  0  0  0  0
 25 27  2  0  0  0  0
 26 23  1  0  0  0  0
 26 22  1  0  0  0  0
 27 23  1  0  0  0  0
 28 29  3  0  0  0  0
 29 27  1  0  0  0  0
 30 31  1  0  0  0  0
 31 32  1  0  0  0  0
 32 33  1  0  0  0  0
 33 35  1  0  0  0  0
 35 34  1  0  0  0  0
 36 35  2  0  0  0  0
M  END
>  <MODEL>
6

>  <REMARK>
 VINA RESULT:      -7.3      4.559      8.148
  Name = 
  9 active torsions:
  status: ('A' for Active; 'I' for Inactive)
    1  A    between atoms: C_3  and  C_35
    2  A    between atoms: C_4  and  C_11
    3  A    between atoms: C_4  and  C_16
    4  A    between atoms: C_13  and  C_21
    5  A    between atoms: C_13  and  C_25
    6  A    between atoms: C_13  and  O_34
    7  A    between atoms: C_16  and  N_26
    8  A    between atoms: N_26  and  O_34
    9  A    between atoms: C_28  and  C_30
                            x       y       z     vdW  Elec       q    Type
                         _______ _______ _______ _____ _____    ______ ____

>  <TORSDO>
F 9

$$$$
=
 OpenBabel10222419573D

 36 39  0  0  1  0  0  0  0  0999 V2000
  182.7390  178.7180  141.1350 C   0  0  0  0  0  0  0  0  0  0  0  0
  182.7960  178.8300  142.5260 C   0  0  0  0  0  3  0  0  0  0  0  0
  184.0860  178.7160  144.6690 C   0  0  0  0  0  0  0  0  0  0  0  0
  186.4290  178.1580  144.6920 C   0  0  0  0  0  0  0  0  0  0  0  0
  189.1270  177.4350  143.7460 O   0  0  0  0  0  0  0  0  0  0  0  0
  183.9850  176.7810  138.5380 C   0  0  0  0  0  1  0  0  0  0  0  0
  182.6460  178.8730  138.2700 C   0  0  0  0  0  2  0  0  0  0  0  0
  185.1670  178.3170  142.4860 C   0  0  0  0  0  0  0  0  0  0  0  0
  185.1150  178.2190  141.0930 C   0  0  0  0  0  3  0  0  0  0  0  0
  181.3880  178.4530  139.0300 C   0  0  1  0  0  3  0  0  0  0  0  0
  187.6070  177.9090  145.4720 N   0  0  0  0  0  2  0  0  0  0  0  0
  183.0430  179.0030  145.3750 N   0  0  0  0  0  2  0  0  0  0  0  0
  181.4450  179.0370  140.4420 C   0  0  0  0  0  2  0  0  0  0  0  0
  183.8900  178.2520  138.9080 C   0  0  1  0  0  3  0  0  0  0  0  0
  183.9120  178.4190  140.4070 C   0  0  0  0  0  0  0  0  0  0  0  0
  185.3290  178.4490  145.3230 N   0  0  0  0  0  0  0  0  0  0  0  0
  184.0030  178.6220  143.2060 C   0  0  0  0  0  0  0  0  0  0  0  0
  188.9080  177.5680  144.9790 C   0  0  0  0  0  0  0  0  0  0  0  0
  186.4850  178.1070  143.1780 C   0  0  0  0  0  2  0  0  0  0  0  0
  189.4410  176.9900  147.3080 C   0  0  0  0  0  1  0  0  0  0  0  0
  190.0130  177.3310  145.9460 C   0  0  0  0  0  2  0  0  0  0  0  0
  180.1280  178.9250  138.2990 C   0  0  2  0  0  3  0  0  0  0  0  0
  180.4600  181.5460  137.3260 S   0  0  0  0  0  0  0  0  0  0  0  0
  179.2910  181.0480  139.4900 C   0  0  0  0  0  3  0  0  0  0  0  0
  179.2490  182.4020  139.3630 N   0  0  0  0  0  0  0  0  0  0  0  0
  179.9360  180.4010  138.4400 C   0  0  0  0  0  0  0  0  0  0  0  0
  179.8490  182.8230  138.2290 C   0  0  0  0  0  0  0  0  0  0  0  0
  180.0230  185.3190  137.5500 N   0  0  0  0  0  0  0  0  0  0  0  0
  179.9450  184.2050  137.8540 C   0  0  0  0  0  0  0  0  0  0  0  0
  178.9990  178.2630  138.7940 O   0  0  0  0  0  0  0  0  0  0  0  0
  179.3130  176.9460  138.7190 N   0  0  0  0  0  2  0  0  0  0  0  0
  178.9310  176.3440  139.9860 C   0  0  0  0  0  2  0  0  0  0  0  0
  180.0710  175.4950  140.5190 C   0  0  0  0  0  2  0  0  0  0  0  0
  179.3530  173.4840  139.4690 O   0  0  0  0  0  0  0  0  0  0  0  0
  179.6670  174.0640  140.5400 C   0  0  0  0  0  0  0  0  0  0  0  0
  179.6080  173.3770  141.7450 O   0  0  0  0  0  1  0  0  0  0  0  0
  1  2  1  0  0  0  0
  2 17  2  0  0  0  0
  3 16  1  0  0  0  0
  3 12  2  0  0  0  0
  4 16  2  0  0  0  0
  4 11  1  0  0  0  0
  5 18  2  0  0  0  0
  7 14  1  0  0  0  0
  7 10  1  0  0  0  0
  8 19  1  0  0  0  0
  8 17  1  0  0  0  0
  9  8  2  0  0  0  0
 10 22  1  6  0  0  0
 10 13  1  0  0  0  0
 13  1  1  0  0  0  0
 14  6  1  1  0  0  0
 14 15  1  0  0  0  0
 15  9  1  0  0  0  0
 15  1  2  0  0  0  0
 17  3  1  0  0  0  0
 18 11  1  0  0  0  0
 18 21  1  0  0  0  0
 19  4  1  0  0  0  0
 21 20  1  0  0  0  0
 22 26  1  0  0  0  0
 22 30  1  1  0  0  0
 23 27  1  0  0  0  0
 23 26  1  0  0  0  0
 25 24  1  0  0  0  0
 26 24  2  0  0  0  0
 27 25  2  0  0  0  0
 28 29  3  0  0  0  0
 29 27  1  0  0  0  0
 31 30  1  0  0  0  0
 31 32  1  0  0  0  0
 32 33  1  0  0  0  0
 33 35  1  0  0  0  0
 34 35  2  0  0  0  0
 35 36  1  0  0  0  0
M  END
>  <MODEL>
7

>  <REMARK>
 VINA RESULT:      -6.9      3.091      5.831
  Name = 
  9 active torsions:
  status: ('A' for Active; 'I' for Inactive)
    1  A    between atoms: C_3  and  C_35
    2  A    between atoms: C_4  and  C_11
    3  A    between atoms: C_4  and  C_16
    4  A    between atoms: C_13  and  C_21
    5  A    between atoms: C_13  and  C_25
    6  A    between atoms: C_13  and  O_34
    7  A    between atoms: C_16  and  N_26
    8  A    between atoms: N_26  and  O_34
    9  A    between atoms: C_28  and  C_30
                            x       y       z     vdW  Elec       q    Type
                         _______ _______ _______ _____ _____    ______ ____

>  <TORSDO>
F 9

$$$$
=
 OpenBabel10222419573D

 36 39  0  0  1  0  0  0  0  0999 V2000
  186.9560  178.0940  141.3030 C   0  0  0  0  0  0  0  0  0  0  0  0
  188.3380  177.8950  141.2670 C   0  0  0  0  0  3  0  0  0  0  0  0
  190.5080  177.4650  142.4400 C   0  0  0  0  0  0  0  0  0  0  0  0
  190.6100  177.2240  144.8340 C   0  0  0  0  0  0  0  0  0  0  0  0
  189.7630  177.0740  147.6550 O   0  0  0  0  0  0  0  0  0  0  0  0
  184.5110  179.6540  143.2110 C   0  0  0  0  0  1  0  0  0  0  0  0
  184.0860  178.1320  141.2760 C   0  0  0  0  0  2  0  0  0  0  0  0
  188.3750  177.6060  143.6760 C   0  0  0  0  0  0  0  0  0  0  0  0
  186.9910  177.7890  143.7120 C   0  0  0  0  0  3  0  0  0  0  0  0
  184.8470  178.8990  140.1940 C   0  0  1  0  0  3  0  0  0  0  0  0
  191.4270  177.0320  145.9980 N   0  0  0  0  0  2  0  0  0  0  0  0
  191.1750  177.4990  141.3340 N   0  0  0  0  0  2  0  0  0  0  0  0
  186.2200  178.2530  140.0030 C   0  0  0  0  0  2  0  0  0  0  0  0
  184.7860  178.2770  142.6290 C   0  0  1  0  0  3  0  0  0  0  0  0
  186.2700  178.0310  142.5360 C   0  0  0  0  0  0  0  0  0  0  0  0
  191.2010  177.2760  143.6760 N   0  0  0  0  0  0  0  0  0  0  0  0
  189.0520  177.6600  142.4490 C   0  0  0  0  0  0  0  0  0  0  0  0
  190.9810  176.9550  147.3580 C   0  0  0  0  0  0  0  0  0  0  0  0
  189.1040  177.3350  144.9620 C   0  0  0  0  0  2  0  0  0  0  0  0
  192.9190  175.6280  148.0830 C   0  0  0  0  0  1  0  0  0  0  0  0
  191.9820  176.7650  148.4410 C   0  0  0  0  0  2  0  0  0  0  0  0
  184.0640  178.9050  138.8790 C   0  0  2  0  0  3  0  0  0  0  0  0
  182.3570  181.1350  139.0820 S   0  0  0  0  0  0  0  0  0  0  0  0
  181.5140  178.7750  139.2150 C   0  0  0  0  0  3  0  0  0  0  0  0
  180.4100  179.5580  139.3510 N   0  0  0  0  0  0  0  0  0  0  0  0
  182.6990  179.4890  139.0570 C   0  0  0  0  0  0  0  0  0  0  0  0
  180.7120  180.8730  139.2990 C   0  0  0  0  0  0  0  0  0  0  0  0
  178.9390  182.7530  139.5100 N   0  0  0  0  0  0  0  0  0  0  0  0
  179.7310  181.9130  139.4160 C   0  0  0  0  0  0  0  0  0  0  0  0
  183.9470  177.6060  138.3740 O   0  0  0  0  0  0  0  0  0  0  0  0
  184.2270  177.7240  137.0520 N   0  0  0  0  0  2  0  0  0  0  0  0
  185.3910  176.8970  136.7870 C   0  0  0  0  0  2  0  0  0  0  0  0
  185.9160  177.1760  135.3900 C   0  0  0  0  0  2  0  0  0  0  0  0
  188.0520  176.3580  134.7300 O   0  0  0  0  0  0  0  0  0  0  0  0
  187.4030  177.1990  135.4050 C   0  0  0  0  0  0  0  0  0  0  0  0
  188.0760  178.1270  136.1870 O   0  0  0  0  0  1  0  0  0  0  0  0
  1 15  1  0  0  0  0
  2  1  2  0  0  0  0
  2 17  1  0  0  0  0
  3 17  1  0  0  0  0
  3 16  1  0  0  0  0
  4 19  1  0  0  0  0
  4 11  1  0  0  0  0
  7 14  1  0  0  0  0
  8  9  1  0  0  0  0
  8 19  1  0  0  0  0
 10 22  1  6  0  0  0
 10  7  1  0  0  0  0
 11 18  1  0  0  0  0
 12  3  2  0  0  0  0
 13 10  1  0  0  0  0
 13  1  1  0  0  0  0
 14  6  1  6  0  0  0
 15 14  1  0  0  0  0
 15  9  2  0  0  0  0
 16  4  2  0  0  0  0
 17  8  2  0  0  0  0
 18  5  2  0  0  0  0
 18 21  1  0  0  0  0
 20 21  1  0  0  0  0
 22 30  1  1  0  0  0
 22 26  1  0  0  0  0
 23 27  1  0  0  0  0
 24 25  1  0  0  0  0
 26 23  1  0  0  0  0
 26 24  2  0  0  0  0
 27 25  2  0  0  0  0
 27 29  1  0  0  0  0
 29 28  3  0  0  0  0
 31 30  1  0  0  0  0
 32 31  1  0  0  0  0
 33 35  1  0  0  0  0
 33 32  1  0  0  0  0
 34 35  2  0  0  0  0
 35 36  1  0  0  0  0
M  END
>  <MODEL>
8

>  <REMARK>
 VINA RESULT:      -6.8      2.758      4.187
  Name = 
  9 active torsions:
  status: ('A' for Active; 'I' for Inactive)
    1  A    between atoms: C_3  and  C_35
    2  A    between atoms: C_4  and  C_11
    3  A    between atoms: C_4  and  C_16
    4  A    between atoms: C_13  and  C_21
    5  A    between atoms: C_13  and  C_25
    6  A    between atoms: C_13  and  O_34
    7  A    between atoms: C_16  and  N_26
    8  A    between atoms: N_26  and  O_34
    9  A    between atoms: C_28  and  C_30
                            x       y       z     vdW  Elec       q    Type
                         _______ _______ _______ _____ _____    ______ ____

>  <TORSDO>
F 9

$$$$
=
 OpenBabel10222419573D

 36 39  0  0  1  0  0  0  0  0999 V2000
  187.2520  178.2350  141.8840 C   0  0  0  0  0  0  0  0  0  0  0  0
  188.6260  178.0590  141.7090 C   0  0  0  0  0  3  0  0  0  0  0  0
  190.8760  177.4370  142.6160 C   0  0  0  0  0  0  0  0  0  0  0  0
  191.1550  176.7480  144.9070 C   0  0  0  0  0  0  0  0  0  0  0  0
  190.5200  176.0600  147.7040 O   0  0  0  0  0  0  0  0  0  0  0  0
  184.9630  179.3820  144.2290 C   0  0  0  0  0  1  0  0  0  0  0  0
  184.3880  178.2500  142.0770 C   0  0  0  0  0  2  0  0  0  0  0  0
  188.8410  177.3210  144.0100 C   0  0  0  0  0  0  0  0  0  0  0  0
  187.4640  177.4810  144.1830 C   0  0  0  0  0  3  0  0  0  0  0  0
  185.0690  179.2150  141.1070 C   0  0  1  0  0  3  0  0  0  0  0  0
  192.0550  176.3470  145.9500 N   0  0  0  0  0  2  0  0  0  0  0  0
  191.4590  177.6850  141.4900 N   0  0  0  0  0  2  0  0  0  0  0  0
  186.4220  178.6300  140.6970 C   0  0  0  0  0  2  0  0  0  0  0  0
  185.1870  178.1430  143.3780 C   0  0  1  0  0  3  0  0  0  0  0  0
  186.6600  177.9340  143.1310 C   0  0  0  0  0  0  0  0  0  0  0  0
  191.6570  177.0230  143.7390 N   0  0  0  0  0  0  0  0  0  0  0  0
  189.4250  177.6120  142.7690 C   0  0  0  0  0  0  0  0  0  0  0  0
  191.7110  176.0100  147.3000 C   0  0  0  0  0  0  0  0  0  0  0  0
  189.6630  176.8190  145.1650 C   0  0  0  0  0  2  0  0  0  0  0  0
  193.0320  176.7570  149.2330 C   0  0  0  0  0  1  0  0  0  0  0  0
  192.7890  175.6290  148.2500 C   0  0  0  0  0  2  0  0  0  0  0  0
  184.1910  179.4620  139.8780 C   0  0  2  0  0  3  0  0  0  0  0  0
  183.0580  176.8850  139.8310 S   0  0  0  0  0  0  0  0  0  0  0  0
  181.6640  178.9690  139.9110 C   0  0  0  0  0  3  0  0  0  0  0  0
  180.7730  177.9420  139.9030 N   0  0  0  0  0  0  0  0  0  0  0  0
  182.9950  178.5640  139.8720 C   0  0  0  0  0  0  0  0  0  0  0  0
  181.3860  176.7400  139.8600 C   0  0  0  0  0  0  0  0  0  0  0  0
  180.1050  174.4860  139.8280 N   0  0  0  0  0  0  0  0  0  0  0  0
  180.6770  175.4920  139.8430 C   0  0  0  0  0  0  0  0  0  0  0  0
  184.9250  179.2610  138.7050 O   0  0  0  0  0  0  0  0  0  0  0  0
  184.2290  178.3190  138.0210 N   0  0  0  0  0  2  0  0  0  0  0  0
  185.2010  177.4420  137.3930 C   0  0  0  0  0  2  0  0  0  0  0  0
  186.4300  178.2370  136.9890 C   0  0  0  0  0  2  0  0  0  0  0  0
  187.6110  176.2460  137.5410 O   0  0  0  0  0  1  0  0  0  0  0  0
  187.6120  177.3380  136.9160 C   0  0  0  0  0  0  0  0  0  0  0  0
  188.7290  177.7170  136.1840 O   0  0  0  0  0  0  0  0  0  0  0  0
  1 15  1  0  0  0  0
  2  1  2  0  0  0  0
  2 17  1  0  0  0  0
  3 17  1  0  0  0  0
  3 16  1  0  0  0  0
  4 19  1  0  0  0  0
  4 11  1  0  0  0  0
  7 14  1  0  0  0  0
  8  9  1  0  0  0  0
  8 19  1  0  0  0  0
 10 22  1  6  0  0  0
 10  7  1  0  0  0  0
 11 18  1  0  0  0  0
 12  3  2  0  0  0  0
 13 10  1  0  0  0  0
 13  1  1  0  0  0  0
 14  6  1  6  0  0  0
 15 14  1  0  0  0  0
 15  9  2  0  0  0  0
 16  4  2  0  0  0  0
 17  8  2  0  0  0  0
 18  5  2  0  0  0  0
 18 21  1  0  0  0  0
 21 20  1  0  0  0  0
 22 30  1  6  0  0  0
 23 27  1  0  0  0  0
 23 26  1  0  0  0  0
 25 24  1  0  0  0  0
 26 22  1  0  0  0  0
 26 24  2  0  0  0  0
 27 25  2  0  0  0  0
 28 29  3  0  0  0  0
 29 27  1  0  0  0  0
 31 30  1  0  0  0  0
 32 31  1  0  0  0  0
 33 32  1  0  0  0  0
 35 33  1  0  0  0  0
 35 34  1  0  0  0  0
 36 35  2  0  0  0  0
M  END
>  <MODEL>
9

>  <REMARK>
 VINA RESULT:      -6.8      2.347      3.568
  Name = 
  9 active torsions:
  status: ('A' for Active; 'I' for Inactive)
    1  A    between atoms: C_3  and  C_35
    2  A    between atoms: C_4  and  C_11
    3  A    between atoms: C_4  and  C_16
    4  A    between atoms: C_13  and  C_21
    5  A    between atoms: C_13  and  C_25
    6  A    between atoms: C_13  and  O_34
    7  A    between atoms: C_16  and  N_26
    8  A    between atoms: N_26  and  O_34
    9  A    between atoms: C_28  and  C_30
                            x       y       z     vdW  Elec       q    Type
                         _______ _______ _______ _____ _____    ______ ____

>  <TORSDO>
F 9

$$$$
