=
 OpenBabel10222417073D

 64 69  0  0  1  0  0  0  0  0999 V2000
  187.2270  177.6510  143.6580 C   0  0  0  0  0  0  0  0  0  0  0  0
  188.5220  177.7670  143.9340 C   0  0  0  0  0  0  0  0  0  0  0  0
  186.0800  178.1660  145.7650 C   0  0  0  0  0  0  0  0  0  0  0  0
  187.1070  178.4280  146.5800 C   0  0  0  0  0  3  0  0  0  0  0  0
  189.1210  177.6030  145.2820 C   0  0  0  0  0  0  0  0  0  0  0  0
  189.3710  178.0110  142.7380 C   0  0  0  0  0  2  0  0  0  0  0  0
  188.4900  177.9320  146.4250 C   0  0  0  0  0  3  0  0  0  0  0  0
  188.5490  177.5900  141.5320 C   0  0  1  0  0  3  0  0  0  0  0  0
  186.2220  177.1820  144.6520 C   0  0  0  0  0  2  0  0  0  0  0  0
  186.7960  177.8400  141.9410 S   0  0  0  0  0  0  0  0  0  0  0  0
  183.7550  179.0330  145.0270 C   0  0  0  0  0  0  0  0  0  0  0  0
  184.7800  178.7320  145.9860 N   0  0  0  0  0  2  0  0  0  0  0  0
  182.7030  179.5880  145.4370 O   0  0  0  0  0  0  0  0  0  0  0  0
  183.9100  178.6840  143.5970 C   0  0  0  0  0  3  0  0  0  0  0  0
  182.9560  178.6840  142.6570 C   0  0  0  0  0  0  0  0  0  0  0  0
  180.4910  179.3530  143.1290 N   0  0  0  0  0  0  0  0  0  0  0  0
  181.5890  179.0550  142.9200 C   0  0  0  0  0  0  0  0  0  0  0  0
  183.3290  178.3050  141.2620 C   0  0  0  0  0  2  0  0  0  0  0  0
  181.7610  179.1890  139.5170 C   0  0  0  0  0  3  0  0  0  0  0  0
  180.2040  176.8630  139.6700 C   0  0  0  0  0  0  0  0  0  0  0  0
  179.8520  177.8950  138.7850 C   0  0  0  0  0  3  0  0  0  0  0  0
  180.6280  179.0540  138.7100 C   0  0  0  0  0  3  0  0  0  0  0  0
  182.1170  178.1650  140.4020 C   0  0  0  0  0  0  0  0  0  0  0  0
  181.3410  177.0040  140.4720 C   0  0  0  0  0  3  0  0  0  0  0  0
  179.4430  175.6970  139.7740 O   0  0  0  0  0  0  0  0  0  0  0  0
  179.9790  174.4020  139.5300 C   0  0  0  0  0  2  0  0  0  0  0  0
  179.2760  173.7780  138.3430 C   0  0  0  0  0  2  0  0  0  0  0  0
  180.2920  173.4270  137.2590 C   0  0  0  0  0  2  0  0  0  0  0  0
  179.9410  173.9700  135.9430 N   0  0  0  0  0  0  0  0  0  0  0  0
  178.9700  175.0590  136.0670 C   0  0  0  0  0  2  0  0  0  0  0  0
  178.9380  175.8030  134.8880 O   0  0  0  0  0  1  0  0  0  0  0  0
  181.1520  174.3050  135.1690 C   0  0  0  0  0  2  0  0  0  0  0  0
  183.4270  172.5150  135.7240 C   0  0  0  0  0  1  0  0  0  0  0  0
  182.3430  174.8570  135.9750 C   0  0  2  0  0  0  0  0  0  0  0  0
  184.3790  176.1130  135.6660 O   0  0  0  0  0  1  0  0  0  0  0  0
  183.6500  175.0160  135.1990 C   0  0  1  0  0  3  0  0  0  0  0  0
  183.5140  173.9310  136.2730 C   0  0  2  0  0  0  0  0  0  0  0  0
  182.0950  175.8380  136.9390 O   0  0  0  0  0  1  0  0  0  0  0  0
  184.2300  174.1440  137.6050 C   0  0  0  0  0  2  0  0  0  0  0  0
  185.0960  173.0130  137.8950 N   0  0  0  0  0  1  0  0  0  0  0  0
  189.0100  178.5910  140.0940 S   0  0  0  0  0  0  0  0  0  0  0  0
  189.1610  177.1830  139.0920 O   0  0  0  0  0  0  0  0  0  0  0  0
  189.5710  176.4380  136.8680 C   0  0  0  0  0  0  0  0  0  0  0  0
  189.0030  177.2960  137.7160 C   0  0  0  0  0  3  0  0  0  0  0  0
  194.9970  173.9020  137.2250 N   0  0  0  0  0  1  0  0  0  0  0  0
  194.5440  176.2790  136.1470 O   0  0  0  0  0  1  0  0  0  0  0  0
  191.7910  175.3410  137.4090 N   0  0  0  0  0  0  0  0  0  0  0  0
  190.3590  175.2930  137.3710 C   0  0  0  0  0  0  0  0  0  0  0  0
  194.0060  176.1680  137.4320 C   0  0  2  0  0  3  0  0  0  0  0  0
  192.6120  174.1730  137.6560 C   0  0  0  0  0  2  0  0  0  0  0  0
  189.7580  174.2580  137.7700 O   0  0  0  0  0  0  0  0  0  0  0  0
  194.0040  174.7110  137.9130 C   0  0  1  0  0  3  0  0  0  0  0  0
  192.5470  176.5770  137.3840 C   0  0  0  0  0  2  0  0  0  0  0  0
  190.5230  176.7530  134.5940 O   0  0  0  0  0  0  0  0  0  0  0  0
  188.2580  176.7420  134.9080 O   0  0  0  0  0  1  0  0  0  0  0  0
  189.4080  176.6500  135.4170 C   0  0  0  0  0  0  0  0  0  0  0  0
  190.5530  177.1380  145.3520 C   0  0  2  0  0  3  0  0  0  0  0  0
  191.0940  177.1150  146.7780 C   0  0  1  0  0  3  0  0  0  0  0  0
  192.8460  175.2090  146.8210 N   0  0  0  0  0  2  0  0  0  0  0  0
  190.4240  176.1800  147.5220 O   0  0  0  0  0  0  0  0  0  0  0  0
  191.8020  175.9500  146.9820 C   0  0  0  0  0  0  0  0  0  0  0  0
  191.4490  177.9000  144.4160 C   0  0  0  0  0  0  0  0  0  0  0  0
  191.5610  179.3780  144.5480 C   0  0  0  0  0  1  0  0  0  0  0  0
  192.0930  177.3200  143.5570 O   0  0  0  0  0  0  0  0  0  0  0  0
  1  2  2  0  0  0  0
  1  9  1  0  0  0  0
  2  5  1  0  0  0  0
  3 12  1  0  0  0  0
  3  4  2  0  0  0  0
  5 57  1  0  0  0  0
  5  7  2  0  0  0  0
  6  2  1  0  0  0  0
  7  4  1  0  0  0  0
  8 41  1  6  0  0  0
  8 10  1  0  0  0  0
  8  6  1  0  0  0  0
  9  3  1  0  0  0  0
 10  1  1  0  0  0  0
 11 13  2  0  0  0  0
 11 12  1  0  0  0  0
 14 11  1  0  0  0  0
 15 17  1  0  0  0  0
 15 14  2  0  0  0  0
 17 16  3  0  0  0  0
 18 15  1  0  0  0  0
 19 23  1  0  0  0  0
 20 25  1  0  0  0  0
 20 24  1  0  0  0  0
 21 20  2  0  0  0  0
 22 21  1  0  0  0  0
 22 19  2  0  0  0  0
 23 24  2  0  0  0  0
 23 18  1  0  0  0  0
 26 25  1  0  0  0  0
 27 26  1  0  0  0  0
 28 27  1  0  0  0  0
 29 30  1  0  0  0  0
 29 28  1  0  0  0  0
 31 30  1  0  0  0  0
 32 29  1  0  0  0  0
 32 34  1  0  0  0  0
 34 37  1  0  0  0  0
 34 38  1  1  0  0  0
 36 35  1  1  0  0  0
 36 34  1  0  0  0  0
 36 37  1  0  0  0  0
 37 33  1  6  0  0  0
 37 39  1  0  0  0  0
 39 40  1  0  0  0  0
 42 41  1  0  0  0  0
 43 48  1  0  0  0  0
 43 44  2  0  0  0  0
 44 42  1  0  0  0  0
 47 50  1  0  0  0  0
 48 47  1  0  0  0  0
 48 51  2  0  0  0  0
 49 46  1  6  0  0  0
 49 52  1  0  0  0  0
 50 52  1  0  0  0  0
 52 45  1  6  0  0  0
 53 47  1  0  0  0  0
 53 49  1  0  0  0  0
 54 56  2  0  0  0  0
 55 56  1  0  0  0  0
 56 43  1  0  0  0  0
 57 62  1  6  0  0  0
 58 57  1  6  0  0  0
 58 61  1  0  0  0  0
 58 60  1  0  0  0  0
 59 61  2  0  0  0  0
 61 60  1  0  0  0  0
 62 63  1  0  0  0  0
 64 62  2  0  0  0  0
M  END
>  <MODEL>
1

>  <REMARK>
 VINA RESULT:      -7.0      0.000      0.000
  Name = 
  22 active torsions:
  status: ('A' for Active; 'I' for Inactive)
    1  A    between atoms: C_3  and  C_10
    2  A    between atoms: C_4  and  N_17
    3  A    between atoms: N_5  and  C_6
    4  A    between atoms: N_5  and  C_54
    5  A    between atoms: N_5  and  C_61
    6  A    between atoms: C_8  and  C_38
    7  A    between atoms: C_9  and  C_38
    8  A    between atoms: C_12  and  C_19
    9  A    between atoms: C_12  and  C_61
   10  A    between atoms: C_13  and  O_39
   11  A    between atoms: C_19  and  O_39
   12  A    between atoms: C_20  and  C_53
   13  A    between atoms: C_21  and  C_38
   14  A    between atoms: C_25  and  C_54
   15  A    between atoms: C_30  and  C_33
   16  A    between atoms: C_30  and  C_58
   17  A    between atoms: C_32  and  C_42
   18  A    between atoms: C_37  and  O_46
   19  A    between atoms: C_42  and  C_56
   20  A    between atoms: O_46  and  S_63
   21  A    between atoms: C_50  and  C_56
   22  A    between atoms: C_51  and  S_63
                            x       y       z     vdW  Elec       q    Type
                         _______ _______ _______ _____ _____    ______ ____

>  <TORSDO>
F 22

$$$$
=
 OpenBabel10222417073D

 64 69  0  0  1  0  0  0  0  0999 V2000
  189.6840  177.8430  140.0070 C   0  0  0  0  0  0  0  0  0  0  0  0
  190.4010  176.8140  139.5660 C   0  0  0  0  0  0  0  0  0  0  0  0
  187.8270  178.0520  138.4170 C   0  0  0  0  0  0  0  0  0  0  0  0
  188.0770  177.0490  137.5690 C   0  0  0  0  0  3  0  0  0  0  0  0
  190.4410  176.3500  138.1560 C   0  0  0  0  0  0  0  0  0  0  0  0
  191.2500  176.1820  140.6100 C   0  0  0  0  0  2  0  0  0  0  0  0
  189.3960  176.4340  137.3120 C   0  0  0  0  0  3  0  0  0  0  0  0
  191.3790  177.1960  141.7330 C   0  0  1  0  0  3  0  0  0  0  0  0
  188.9430  178.7660  139.1030 C   0  0  0  0  0  2  0  0  0  0  0  0
  189.8730  178.2140  141.7380 S   0  0  0  0  0  0  0  0  0  0  0  0
  185.2440  177.9260  138.3080 C   0  0  0  0  0  0  0  0  0  0  0  0
  186.4970  178.5510  138.6210 N   0  0  0  0  0  2  0  0  0  0  0  0
  184.1870  178.5750  138.5190 O   0  0  0  0  0  0  0  0  0  0  0  0
  185.1810  176.5470  137.7720 C   0  0  0  0  0  3  0  0  0  0  0  0
  185.3810  176.1610  136.5050 C   0  0  0  0  0  0  0  0  0  0  0  0
  185.9840  177.8170  134.5970 N   0  0  0  0  0  0  0  0  0  0  0  0
  185.7140  177.0790  135.4460 C   0  0  0  0  0  0  0  0  0  0  0  0
  185.2780  174.7090  136.1760 C   0  0  0  0  0  2  0  0  0  0  0  0
  183.7140  172.8320  136.7360 C   0  0  0  0  0  3  0  0  0  0  0  0
  181.5280  174.5880  136.7230 C   0  0  0  0  0  0  0  0  0  0  0  0
  181.3400  173.2240  136.9990 C   0  0  0  0  0  3  0  0  0  0  0  0
  182.4300  172.3500  137.0050 C   0  0  0  0  0  3  0  0  0  0  0  0
  183.9080  174.1910  136.4590 C   0  0  0  0  0  0  0  0  0  0  0  0
  182.8160  175.0640  136.4580 C   0  0  0  0  0  3  0  0  0  0  0  0
  180.4580  175.4840  136.7000 O   0  0  0  0  0  0  0  0  0  0  0  0
  179.9860  176.0910  135.5030 C   0  0  0  0  0  2  0  0  0  0  0  0
  179.2730  177.3850  135.8370 C   0  0  0  0  0  2  0  0  0  0  0  0
  180.2770  178.5310  135.9150 C   0  0  0  0  0  2  0  0  0  0  0  0
  180.7140  178.8210  137.2850 N   0  0  0  0  0  0  0  0  0  0  0  0
  181.3160  180.1530  137.3740 C   0  0  0  0  0  2  0  0  0  0  0  0
  180.5740  181.0590  136.6180 O   0  0  0  0  0  1  0  0  0  0  0  0
  179.6270  178.5650  138.2510 C   0  0  0  0  0  2  0  0  0  0  0  0
  179.2620  180.5020  140.4420 C   0  0  0  0  0  1  0  0  0  0  0  0
  180.0620  178.1590  139.6720 C   0  0  2  0  0  0  0  0  0  0  0  0
  179.2430  176.9650  141.6010 O   0  0  0  0  0  1  0  0  0  0  0  0
  178.9310  177.9700  140.6810 C   0  0  1  0  0  3  0  0  0  0  0  0
  179.8850  179.1630  140.8030 C   0  0  2  0  0  0  0  0  0  0  0  0
  181.1420  177.2830  139.8120 O   0  0  0  0  0  1  0  0  0  0  0  0
  180.9350  179.1330  141.9120 C   0  0  0  0  0  2  0  0  0  0  0  0
  180.3760  179.6580  143.1460 N   0  0  0  0  0  1  0  0  0  0  0  0
  191.5640  176.3370  143.3180 S   0  0  0  0  0  0  0  0  0  0  0  0
  190.7800  177.6280  144.1720 O   0  0  0  0  0  0  0  0  0  0  0  0
  189.1590  177.2550  145.8760 C   0  0  0  0  0  0  0  0  0  0  0  0
  190.4240  177.4560  145.5050 C   0  0  0  0  0  3  0  0  0  0  0  0
  183.3910  178.3370  144.6260 N   0  0  0  0  0  1  0  0  0  0  0  0
  184.5800  179.0740  146.8760 O   0  0  0  0  0  1  0  0  0  0  0  0
  186.8590  177.8880  145.0190 N   0  0  0  0  0  0  0  0  0  0  0  0
  188.0840  177.1590  144.8660 C   0  0  0  0  0  0  0  0  0  0  0  0
  185.2820  179.4940  145.7420 C   0  0  2  0  0  3  0  0  0  0  0  0
  185.6900  177.6420  144.1990 C   0  0  0  0  0  2  0  0  0  0  0  0
  188.2500  176.4210  143.8570 O   0  0  0  0  0  0  0  0  0  0  0  0
  184.7590  178.8060  144.4740 C   0  0  1  0  0  3  0  0  0  0  0  0
  186.7250  179.0500  145.8730 C   0  0  0  0  0  2  0  0  0  0  0  0
  187.9390  176.1800  147.7570 O   0  0  0  0  0  0  0  0  0  0  0  0
  189.3910  177.9020  148.1530 O   0  0  0  0  0  1  0  0  0  0  0  0
  188.8450  177.1370  147.3130 C   0  0  0  0  0  0  0  0  0  0  0  0
  191.6940  175.6540  137.6920 C   0  0  2  0  0  3  0  0  0  0  0  0
  192.8610  176.6160  137.4920 C   0  0  1  0  0  3  0  0  0  0  0  0
  194.9080  175.1190  136.9660 N   0  0  0  0  0  2  0  0  0  0  0  0
  193.5700  176.7470  138.6570 O   0  0  0  0  0  0  0  0  0  0  0  0
  194.0460  175.9110  137.5090 C   0  0  0  0  0  0  0  0  0  0  0  0
  191.4570  174.7890  136.4860 C   0  0  0  0  0  0  0  0  0  0  0  0
  191.3230  173.3170  136.6530 C   0  0  0  0  0  1  0  0  0  0  0  0
  191.3620  175.2820  135.3730 O   0  0  0  0  0  0  0  0  0  0  0  0
  1 10  1  0  0  0  0
  2  1  2  0  0  0  0
  2  6  1  0  0  0  0
  3 12  1  0  0  0  0
  3  9  1  0  0  0  0
  4  3  2  0  0  0  0
  5  2  1  0  0  0  0
  6  8  1  0  0  0  0
  7  4  1  0  0  0  0
  7  5  2  0  0  0  0
  8 10  1  0  0  0  0
  8 41  1  1  0  0  0
  9  1  1  0  0  0  0
 11 13  2  0  0  0  0
 11 12  1  0  0  0  0
 14 11  1  0  0  0  0
 15 14  2  0  0  0  0
 16 17  3  0  0  0  0
 17 15  1  0  0  0  0
 18 23  1  0  0  0  0
 18 15  1  0  0  0  0
 19 22  1  0  0  0  0
 20 21  1  0  0  0  0
 21 22  2  0  0  0  0
 23 19  2  0  0  0  0
 24 23  1  0  0  0  0
 24 20  2  0  0  0  0
 25 20  1  0  0  0  0
 26 27  1  0  0  0  0
 26 25  1  0  0  0  0
 27 28  1  0  0  0  0
 28 29  1  0  0  0  0
 29 30  1  0  0  0  0
 29 32  1  0  0  0  0
 31 30  1  0  0  0  0
 32 34  1  0  0  0  0
 34 38  1  1  0  0  0
 34 36  1  0  0  0  0
 34 37  1  0  0  0  0
 36 37  1  0  0  0  0
 36 35  1  1  0  0  0
 37 33  1  6  0  0  0
 37 39  1  0  0  0  0
 39 40  1  0  0  0  0
 41 42  1  0  0  0  0
 42 44  1  0  0  0  0
 43 56  1  0  0  0  0
 44 43  2  0  0  0  0
 47 53  1  0  0  0  0
 48 47  1  0  0  0  0
 48 43  1  0  0  0  0
 49 53  1  0  0  0  0
 49 46  1  1  0  0  0
 50 52  1  0  0  0  0
 50 47  1  0  0  0  0
 51 48  2  0  0  0  0
 52 45  1  1  0  0  0
 52 49  1  0  0  0  0
 56 54  2  0  0  0  0
 56 55  1  0  0  0  0
 57 62  1  6  0  0  0
 57  5  1  0  0  0  0
 58 61  1  0  0  0  0
 58 57  1  1  0  0  0
 58 60  1  0  0  0  0
 59 61  2  0  0  0  0
 61 60  1  0  0  0  0
 62 63  1  0  0  0  0
 64 62  2  0  0  0  0
M  END
>  <MODEL>
2

>  <REMARK>
 VINA RESULT:      -6.7      2.397      8.164
  Name = 
  22 active torsions:
  status: ('A' for Active; 'I' for Inactive)
    1  A    between atoms: C_3  and  C_10
    2  A    between atoms: C_4  and  N_17
    3  A    between atoms: N_5  and  C_6
    4  A    between atoms: N_5  and  C_54
    5  A    between atoms: N_5  and  C_61
    6  A    between atoms: C_8  and  C_38
    7  A    between atoms: C_9  and  C_38
    8  A    between atoms: C_12  and  C_19
    9  A    between atoms: C_12  and  C_61
   10  A    between atoms: C_13  and  O_39
   11  A    between atoms: C_19  and  O_39
   12  A    between atoms: C_20  and  C_53
   13  A    between atoms: C_21  and  C_38
   14  A    between atoms: C_25  and  C_54
   15  A    between atoms: C_30  and  C_33
   16  A    between atoms: C_30  and  C_58
   17  A    between atoms: C_32  and  C_42
   18  A    between atoms: C_37  and  O_46
   19  A    between atoms: C_42  and  C_56
   20  A    between atoms: O_46  and  S_63
   21  A    between atoms: C_50  and  C_56
   22  A    between atoms: C_51  and  S_63
                            x       y       z     vdW  Elec       q    Type
                         _______ _______ _______ _____ _____    ______ ____

>  <TORSDO>
F 22

$$$$
=
 OpenBabel10222417073D

 64 69  0  0  1  0  0  0  0  0999 V2000
  187.8830  177.2250  144.4810 C   0  0  0  0  0  0  0  0  0  0  0  0
  189.0530  177.5070  145.0460 C   0  0  0  0  0  0  0  0  0  0  0  0
  186.2000  177.9130  146.1290 C   0  0  0  0  0  0  0  0  0  0  0  0
  186.9620  178.3880  147.1190 C   0  0  0  0  0  3  0  0  0  0  0  0
  189.2900  177.5930  146.5090 C   0  0  0  0  0  0  0  0  0  0  0  0
  190.1670  177.6630  144.0740 C   0  0  0  0  0  2  0  0  0  0  0  0
  188.3660  178.0150  147.3920 C   0  0  0  0  0  3  0  0  0  0  0  0
  189.7130  176.9980  142.7870 C   0  0  1  0  0  3  0  0  0  0  0  0
  186.6850  176.8020  145.2580 C   0  0  0  0  0  2  0  0  0  0  0  0
  187.9010  177.1280  142.7040 S   0  0  0  0  0  0  0  0  0  0  0  0
  184.2660  178.9440  144.7500 C   0  0  0  0  0  0  0  0  0  0  0  0
  184.8550  178.3730  145.9270 N   0  0  0  0  0  2  0  0  0  0  0  0
  183.0730  179.3380  144.8130 O   0  0  0  0  0  0  0  0  0  0  0  0
  185.0240  179.0520  143.4820 C   0  0  0  0  0  3  0  0  0  0  0  0
  184.5400  178.9450  142.2380 C   0  0  0  0  0  0  0  0  0  0  0  0
  182.0270  178.5330  141.7250 N   0  0  0  0  0  0  0  0  0  0  0  0
  183.1460  178.7150  141.9520 C   0  0  0  0  0  0  0  0  0  0  0  0
  185.4810  179.0960  141.0900 C   0  0  0  0  0  2  0  0  0  0  0  0
  185.4070  177.8470  138.9170 C   0  0  0  0  0  3  0  0  0  0  0  0
  182.9480  179.0280  138.2700 C   0  0  0  0  0  0  0  0  0  0  0  0
  183.5510  178.1150  137.3880 C   0  0  0  0  0  3  0  0  0  0  0  0
  184.7770  177.5280  137.7120 C   0  0  0  0  0  3  0  0  0  0  0  0
  184.8130  178.7570  139.8000 C   0  0  0  0  0  0  0  0  0  0  0  0
  183.5830  179.3390  139.4760 C   0  0  0  0  0  3  0  0  0  0  0  0
  181.7290  179.6370  137.9690 O   0  0  0  0  0  0  0  0  0  0  0  0
  181.2230  179.7360  136.6430 C   0  0  0  0  0  2  0  0  0  0  0  0
  180.5640  178.4290  136.2530 C   0  0  0  0  0  2  0  0  0  0  0  0
  179.3460  178.1730  137.1360 C   0  0  0  0  0  2  0  0  0  0  0  0
  179.5700  177.1220  138.1360 N   0  0  0  0  0  0  0  0  0  0  0  0
  179.2090  177.5870  139.4760 C   0  0  0  0  0  2  0  0  0  0  0  0
  179.6970  176.6980  140.4330 O   0  0  0  0  0  1  0  0  0  0  0  0
  178.9310  175.8570  137.7240 C   0  0  0  0  0  2  0  0  0  0  0  0
  181.7310  175.0600  138.1800 C   0  0  0  0  0  1  0  0  0  0  0  0
  179.6550  175.0540  136.6270 C   0  0  2  0  0  0  0  0  0  0  0  0
  179.9270  172.7870  135.8500 O   0  0  0  0  0  1  0  0  0  0  0  0
  179.9920  173.6060  136.9810 C   0  0  1  0  0  3  0  0  0  0  0  0
  181.1060  174.6520  136.8560 C   0  0  2  0  0  0  0  0  0  0  0  0
  179.2990  175.2780  135.2940 O   0  0  0  0  0  1  0  0  0  0  0  0
  182.0030  174.6030  135.6200 C   0  0  0  0  0  2  0  0  0  0  0  0
  183.3580  174.2380  135.9990 N   0  0  0  0  0  1  0  0  0  0  0  0
  190.4700  177.8290  141.3660 S   0  0  0  0  0  0  0  0  0  0  0  0
  189.2850  177.1740  140.2800 O   0  0  0  0  0  0  0  0  0  0  0  0
  189.0700  177.3800  137.9190 C   0  0  0  0  0  0  0  0  0  0  0  0
  188.9230  177.8860  139.1440 C   0  0  0  0  0  3  0  0  0  0  0  0
  193.8250  173.9950  136.5300 N   0  0  0  0  0  1  0  0  0  0  0  0
  193.9130  176.6300  136.7980 O   0  0  0  0  0  1  0  0  0  0  0  0
  190.9930  175.7490  137.6630 N   0  0  0  0  0  0  0  0  0  0  0  0
  189.5840  176.0080  137.7270 C   0  0  0  0  0  0  0  0  0  0  0  0
  193.3320  176.0020  137.9040 C   0  0  2  0  0  3  0  0  0  0  0  0
  191.5420  174.4780  137.2360 C   0  0  0  0  0  2  0  0  0  0  0  0
  188.7690  175.0530  137.6160 O   0  0  0  0  0  0  0  0  0  0  0  0
  193.0090  174.5320  137.6070 C   0  0  1  0  0  3  0  0  0  0  0  0
  191.9940  176.6570  138.1850 C   0  0  0  0  0  2  0  0  0  0  0  0
  189.2170  177.9040  135.4930 O   0  0  0  0  0  0  0  0  0  0  0  0
  187.9620  179.2140  136.8850 O   0  0  0  0  0  1  0  0  0  0  0  0
  188.7180  178.2140  136.7520 C   0  0  0  0  0  0  0  0  0  0  0  0
  190.6800  177.2870  147.0040 C   0  0  2  0  0  3  0  0  0  0  0  0
  191.0260  175.8040  146.9050 C   0  0  1  0  0  3  0  0  0  0  0  0
  193.2060  175.5110  148.2720 N   0  0  0  0  0  2  0  0  0  0  0  0
  191.9280  175.5970  145.8940 O   0  0  0  0  0  0  0  0  0  0  0  0
  192.3190  175.6050  147.3400 C   0  0  0  0  0  0  0  0  0  0  0  0
  190.9330  177.8390  148.3790 C   0  0  0  0  0  0  0  0  0  0  0  0
  189.7840  178.2650  149.2220 C   0  0  0  0  0  1  0  0  0  0  0  0
  192.0690  177.9320  148.8150 O   0  0  0  0  0  0  0  0  0  0  0  0
  1  2  2  0  0  0  0
  1  9  1  0  0  0  0
  2  5  1  0  0  0  0
  3  4  2  0  0  0  0
  4  7  1  0  0  0  0
  5 57  1  0  0  0  0
  5  7  2  0  0  0  0
  6  2  1  0  0  0  0
  8 41  1  6  0  0  0
  8  6  1  0  0  0  0
  9  3  1  0  0  0  0
 10  8  1  0  0  0  0
 10  1  1  0  0  0  0
 11 13  2  0  0  0  0
 11 12  1  0  0  0  0
 12  3  1  0  0  0  0
 14 11  1  0  0  0  0
 15 14  2  0  0  0  0
 16 17  3  0  0  0  0
 17 15  1  0  0  0  0
 18 15  1  0  0  0  0
 19 23  1  0  0  0  0
 20 24  1  0  0  0  0
 21 22  1  0  0  0  0
 21 20  2  0  0  0  0
 22 19  2  0  0  0  0
 23 18  1  0  0  0  0
 24 23  2  0  0  0  0
 25 20  1  0  0  0  0
 26 25  1  0  0  0  0
 27 26  1  0  0  0  0
 27 28  1  0  0  0  0
 28 29  1  0  0  0  0
 29 30  1  0  0  0  0
 30 31  1  0  0  0  0
 32 29  1  0  0  0  0
 34 38  1  6  0  0  0
 34 37  1  0  0  0  0
 34 36  1  0  0  0  0
 34 32  1  0  0  0  0
 36 35  1  6  0  0  0
 37 36  1  0  0  0  0
 37 33  1  1  0  0  0
 39 40  1  0  0  0  0
 39 37  1  0  0  0  0
 42 41  1  0  0  0  0
 43 44  2  0  0  0  0
 44 42  1  0  0  0  0
 47 48  1  0  0  0  0
 47 53  1  0  0  0  0
 48 43  1  0  0  0  0
 49 46  1  6  0  0  0
 49 53  1  0  0  0  0
 50 52  1  0  0  0  0
 50 47  1  0  0  0  0
 51 48  2  0  0  0  0
 52 45  1  6  0  0  0
 52 49  1  0  0  0  0
 54 56  2  0  0  0  0
 56 55  1  0  0  0  0
 56 43  1  0  0  0  0
 57 62  1  1  0  0  0
 58 57  1  6  0  0  0
 58 61  1  0  0  0  0
 60 58  1  0  0  0  0
 60 61  1  0  0  0  0
 61 59  2  0  0  0  0
 62 64  2  0  0  0  0
 62 63  1  0  0  0  0
M  END
>  <MODEL>
3

>  <REMARK>
 VINA RESULT:      -6.4      1.798      2.908
  Name = 
  22 active torsions:
  status: ('A' for Active; 'I' for Inactive)
    1  A    between atoms: C_3  and  C_10
    2  A    between atoms: C_4  and  N_17
    3  A    between atoms: N_5  and  C_6
    4  A    between atoms: N_5  and  C_54
    5  A    between atoms: N_5  and  C_61
    6  A    between atoms: C_8  and  C_38
    7  A    between atoms: C_9  and  C_38
    8  A    between atoms: C_12  and  C_19
    9  A    between atoms: C_12  and  C_61
   10  A    between atoms: C_13  and  O_39
   11  A    between atoms: C_19  and  O_39
   12  A    between atoms: C_20  and  C_53
   13  A    between atoms: C_21  and  C_38
   14  A    between atoms: C_25  and  C_54
   15  A    between atoms: C_30  and  C_33
   16  A    between atoms: C_30  and  C_58
   17  A    between atoms: C_32  and  C_42
   18  A    between atoms: C_37  and  O_46
   19  A    between atoms: C_42  and  C_56
   20  A    between atoms: O_46  and  S_63
   21  A    between atoms: C_50  and  C_56
   22  A    between atoms: C_51  and  S_63
                            x       y       z     vdW  Elec       q    Type
                         _______ _______ _______ _____ _____    ______ ____

>  <TORSDO>
F 22

$$$$
=
 OpenBabel10222417073D

 64 69  0  0  1  0  0  0  0  0999 V2000
  184.2410  178.9710  142.3700 C   0  0  0  0  0  0  0  0  0  0  0  0
  183.1180  178.7380  141.7000 C   0  0  0  0  0  0  0  0  0  0  0  0
  183.6740  178.5690  144.7230 C   0  0  0  0  0  0  0  0  0  0  0  0
  182.3870  178.2170  144.6390 C   0  0  0  0  0  3  0  0  0  0  0  0
  181.7520  178.8510  142.2690 C   0  0  0  0  0  0  0  0  0  0  0  0
  183.3300  178.4150  140.2640 C   0  0  0  0  0  2  0  0  0  0  0  0
  181.4530  178.5840  143.5540 C   0  0  0  0  0  3  0  0  0  0  0  0
  184.7240  178.9060  139.9140 C   0  0  1  0  0  3  0  0  0  0  0  0
  184.2650  179.5330  143.7490 C   0  0  0  0  0  2  0  0  0  0  0  0
  185.7390  178.8170  141.4190 S   0  0  0  0  0  0  0  0  0  0  0  0
  185.9400  178.1190  145.8910 C   0  0  0  0  0  0  0  0  0  0  0  0
  184.5070  178.1240  145.8040 N   0  0  0  0  0  2  0  0  0  0  0  0
  186.4700  177.6230  146.9190 O   0  0  0  0  0  0  0  0  0  0  0  0
  186.7810  178.6990  144.8200 C   0  0  0  0  0  3  0  0  0  0  0  0
  188.0700  178.4350  144.5710 C   0  0  0  0  0  0  0  0  0  0  0  0
  189.4640  176.7390  145.9610 N   0  0  0  0  0  0  0  0  0  0  0  0
  188.8440  177.4940  145.3400 C   0  0  0  0  0  0  0  0  0  0  0  0
  188.7330  179.1280  143.4280 C   0  0  0  0  0  2  0  0  0  0  0  0
  190.0770  177.0850  142.8770 C   0  0  0  0  0  3  0  0  0  0  0  0
  189.4590  177.3560  140.1550 C   0  0  0  0  0  0  0  0  0  0  0  0
  190.2680  176.2970  140.5970 C   0  0  0  0  0  3  0  0  0  0  0  0
  190.5760  176.1630  141.9530 C   0  0  0  0  0  3  0  0  0  0  0  0
  189.2710  178.1450  142.4430 C   0  0  0  0  0  0  0  0  0  0  0  0
  188.9610  178.2740  141.0860 C   0  0  0  0  0  3  0  0  0  0  0  0
  189.1420  177.5220  138.8060 O   0  0  0  0  0  0  0  0  0  0  0  0
  190.0090  177.1100  137.7550 C   0  0  0  0  0  2  0  0  0  0  0  0
  189.2360  176.2700  136.7600 C   0  0  0  0  0  2  0  0  0  0  0  0
  190.1890  175.6720  135.7290 C   0  0  0  0  0  2  0  0  0  0  0  0
  191.3110  174.9460  136.3350 N   0  0  0  0  0  0  0  0  0  0  0  0
  190.9750  173.5350  136.5390 C   0  0  0  0  0  2  0  0  0  0  0  0
  189.8830  173.4280  137.3990 O   0  0  0  0  0  1  0  0  0  0  0  0
  192.5610  175.1840  135.5870 C   0  0  0  0  0  2  0  0  0  0  0  0
  194.3460  172.9330  136.2380 C   0  0  0  0  0  1  0  0  0  0  0  0
  193.8170  175.4630  136.4330 C   0  0  2  0  0  0  0  0  0  0  0  0
  196.0950  176.2180  136.1920 O   0  0  0  0  0  1  0  0  0  0  0  0
  195.1520  175.3080  135.7060 C   0  0  1  0  0  3  0  0  0  0  0  0
  194.7350  174.2990  136.7810 C   0  0  2  0  0  0  0  0  0  0  0  0
  193.7660  176.4890  137.3800 O   0  0  0  0  0  1  0  0  0  0  0  0
  195.4340  174.3630  138.1370 C   0  0  0  0  0  2  0  0  0  0  0  0
  195.3340  173.0800  138.8140 N   0  0  0  0  0  1  0  0  0  0  0  0
  185.4330  177.8630  138.6130 S   0  0  0  0  0  0  0  0  0  0  0  0
  184.2510  178.3980  137.4620 O   0  0  0  0  0  0  0  0  0  0  0  0
  182.5530  176.8950  136.7350 C   0  0  0  0  0  0  0  0  0  0  0  0
  182.9560  177.8950  137.5190 C   0  0  0  0  0  3  0  0  0  0  0  0
  186.7910  172.7030  136.0480 N   0  0  0  0  0  1  0  0  0  0  0  0
  185.4210  173.0680  138.2870 O   0  0  0  0  0  1  0  0  0  0  0  0
  184.1290  175.0030  136.1340 N   0  0  0  0  0  0  0  0  0  0  0  0
  183.4950  176.2450  135.8000 C   0  0  0  0  0  0  0  0  0  0  0  0
  184.5900  172.9290  137.1710 C   0  0  2  0  0  3  0  0  0  0  0  0
  185.2340  174.4540  135.3730 C   0  0  0  0  0  2  0  0  0  0  0  0
  183.7440  176.7950  134.6930 O   0  0  0  0  0  0  0  0  0  0  0  0
  185.3860  173.0290  135.8640 C   0  0  1  0  0  3  0  0  0  0  0  0
  183.6210  174.0950  137.1410 C   0  0  0  0  0  2  0  0  0  0  0  0
  180.1700  177.0830  136.0530 O   0  0  0  0  0  0  0  0  0  0  0  0
  180.8200  175.4890  137.5580 O   0  0  0  0  0  1  0  0  0  0  0  0
  181.1480  176.4480  136.8090 C   0  0  0  0  0  0  0  0  0  0  0  0
  180.6310  179.1840  141.3180 C   0  0  2  0  0  3  0  0  0  0  0  0
  179.5040  179.9650  141.9880 C   0  0  1  0  0  3  0  0  0  0  0  0
  178.9460  181.9030  140.3640 N   0  0  0  0  0  2  0  0  0  0  0  0
  180.0160  181.0270  142.6850 O   0  0  0  0  0  0  0  0  0  0  0  0
  179.3460  181.1780  141.3540 C   0  0  0  0  0  0  0  0  0  0  0  0
  180.1250  177.9750  140.5830 C   0  0  0  0  0  0  0  0  0  0  0  0
  178.9460  178.1010  139.6840 C   0  0  0  0  0  1  0  0  0  0  0  0
  180.6760  176.8920  140.7070 O   0  0  0  0  0  0  0  0  0  0  0  0
  1  9  1  0  0  0  0
  2  5  1  0  0  0  0
  2  1  2  0  0  0  0
  3 12  1  0  0  0  0
  4  3  2  0  0  0  0
  5  7  2  0  0  0  0
  6  2  1  0  0  0  0
  7  4  1  0  0  0  0
  8 41  1  6  0  0  0
  8  6  1  0  0  0  0
  8 10  1  0  0  0  0
  9  3  1  0  0  0  0
 10  1  1  0  0  0  0
 11 13  2  0  0  0  0
 12 11  1  0  0  0  0
 14 11  1  0  0  0  0
 15 14  2  0  0  0  0
 15 17  1  0  0  0  0
 17 16  3  0  0  0  0
 18 15  1  0  0  0  0
 20 21  2  0  0  0  0
 20 24  1  0  0  0  0
 21 22  1  0  0  0  0
 22 19  2  0  0  0  0
 23 19  1  0  0  0  0
 23 18  1  0  0  0  0
 24 23  2  0  0  0  0
 25 20  1  0  0  0  0
 26 25  1  0  0  0  0
 27 26  1  0  0  0  0
 28 29  1  0  0  0  0
 28 27  1  0  0  0  0
 29 30  1  0  0  0  0
 30 31  1  0  0  0  0
 32 29  1  0  0  0  0
 32 34  1  0  0  0  0
 34 37  1  0  0  0  0
 34 38  1  1  0  0  0
 36 35  1  1  0  0  0
 36 34  1  0  0  0  0
 36 37  1  0  0  0  0
 37 33  1  6  0  0  0
 37 39  1  0  0  0  0
 39 40  1  0  0  0  0
 42 44  1  0  0  0  0
 42 41  1  0  0  0  0
 43 56  1  0  0  0  0
 43 44  2  0  0  0  0
 47 53  1  0  0  0  0
 48 47  1  0  0  0  0
 48 43  1  0  0  0  0
 49 46  1  1  0  0  0
 50 52  1  0  0  0  0
 50 47  1  0  0  0  0
 51 48  2  0  0  0  0
 52 45  1  1  0  0  0
 52 49  1  0  0  0  0
 53 49  1  0  0  0  0
 54 56  2  0  0  0  0
 56 55  1  0  0  0  0
 57 62  1  1  0  0  0
 57  5  1  0  0  0  0
 58 57  1  6  0  0  0
 58 60  1  0  0  0  0
 59 61  2  0  0  0  0
 61 58  1  0  0  0  0
 61 60  1  0  0  0  0
 62 64  2  0  0  0  0
 63 62  1  0  0  0  0
M  END
>  <MODEL>
4

>  <REMARK>
 VINA RESULT:      -5.8      2.299      9.240
  Name = 
  22 active torsions:
  status: ('A' for Active; 'I' for Inactive)
    1  A    between atoms: C_3  and  C_10
    2  A    between atoms: C_4  and  N_17
    3  A    between atoms: N_5  and  C_6
    4  A    between atoms: N_5  and  C_54
    5  A    between atoms: N_5  and  C_61
    6  A    between atoms: C_8  and  C_38
    7  A    between atoms: C_9  and  C_38
    8  A    between atoms: C_12  and  C_19
    9  A    between atoms: C_12  and  C_61
   10  A    between atoms: C_13  and  O_39
   11  A    between atoms: C_19  and  O_39
   12  A    between atoms: C_20  and  C_53
   13  A    between atoms: C_21  and  C_38
   14  A    between atoms: C_25  and  C_54
   15  A    between atoms: C_30  and  C_33
   16  A    between atoms: C_30  and  C_58
   17  A    between atoms: C_32  and  C_42
   18  A    between atoms: C_37  and  O_46
   19  A    between atoms: C_42  and  C_56
   20  A    between atoms: O_46  and  S_63
   21  A    between atoms: C_50  and  C_56
   22  A    between atoms: C_51  and  S_63
                            x       y       z     vdW  Elec       q    Type
                         _______ _______ _______ _____ _____    ______ ____

>  <TORSDO>
F 22

$$$$
=
 OpenBabel10222417073D

 64 69  0  0  1  0  0  0  0  0999 V2000
  182.9130  176.1000  137.5790 C   0  0  0  0  0  0  0  0  0  0  0  0
  182.1350  175.3690  136.7880 C   0  0  0  0  0  0  0  0  0  0  0  0
  184.8400  176.7120  136.1890 C   0  0  0  0  0  0  0  0  0  0  0  0
  184.5330  176.1330  135.0240 C   0  0  0  0  0  3  0  0  0  0  0  0
  182.6100  174.5920  135.6150 C   0  0  0  0  0  0  0  0  0  0  0  0
  180.7130  175.3220  137.2190 C   0  0  0  0  0  2  0  0  0  0  0  0
  183.6430  174.9680  134.8380 C   0  0  0  0  0  3  0  0  0  0  0  0
  180.6910  175.7420  138.6780 C   0  0  1  0  0  3  0  0  0  0  0  0
  184.3990  176.1070  137.4800 C   0  0  0  0  0  2  0  0  0  0  0  0
  182.0840  176.8780  138.9500 S   0  0  0  0  0  0  0  0  0  0  0  0
  187.0320  178.0260  135.7810 C   0  0  0  0  0  0  0  0  0  0  0  0
  185.6870  177.8690  136.2560 N   0  0  0  0  0  2  0  0  0  0  0  0
  187.6150  179.1200  135.9990 O   0  0  0  0  0  0  0  0  0  0  0  0
  187.7190  176.9480  135.0330 C   0  0  0  0  0  3  0  0  0  0  0  0
  188.2150  175.8080  135.5300 C   0  0  0  0  0  0  0  0  0  0  0  0
  188.0610  175.1650  138.0420 N   0  0  0  0  0  0  0  0  0  0  0  0
  188.1290  175.4530  136.9240 C   0  0  0  0  0  0  0  0  0  0  0  0
  188.8660  174.8450  134.5940 C   0  0  0  0  0  2  0  0  0  0  0  0
  190.8300  173.2920  134.7140 C   0  0  0  0  0  3  0  0  0  0  0  0
  192.2990  175.1870  136.1680 C   0  0  0  0  0  0  0  0  0  0  0  0
  192.8670  173.9440  135.8450 C   0  0  0  0  0  3  0  0  0  0  0  0
  192.1350  173.0000  135.1210 C   0  0  0  0  0  3  0  0  0  0  0  0
  190.2570  174.5290  135.0320 C   0  0  0  0  0  0  0  0  0  0  0  0
  190.9950  175.4740  135.7530 C   0  0  0  0  0  3  0  0  0  0  0  0
  193.0030  176.1460  136.8980 O   0  0  0  0  0  0  0  0  0  0  0  0
  193.4810  175.9120  138.2170 C   0  0  0  0  0  2  0  0  0  0  0  0
  192.7180  176.7820  139.1950 C   0  0  0  0  0  2  0  0  0  0  0  0
  191.2230  176.7180  138.8950 C   0  0  0  0  0  2  0  0  0  0  0  0
  190.4250  177.5940  139.7610 N   0  0  0  0  0  0  0  0  0  0  0  0
  189.4790  178.3890  138.9750 C   0  0  0  0  0  2  0  0  0  0  0  0
  188.1850  178.1970  139.4570 O   0  0  0  0  0  1  0  0  0  0  0  0
  189.8220  176.8300  140.8710 C   0  0  0  0  0  2  0  0  0  0  0  0
  188.1300  176.4320  143.2510 C   0  0  0  0  0  1  0  0  0  0  0  0
  190.4470  177.0460  142.2630 C   0  0  2  0  0  0  0  0  0  0  0  0
  191.7490  175.8760  143.9220 O   0  0  0  0  0  1  0  0  0  0  0  0
  190.6100  175.7900  143.1170 C   0  0  1  0  0  3  0  0  0  0  0  0
  189.5710  176.8530  143.4930 C   0  0  2  0  0  0  0  0  0  0  0  0
  191.4640  177.9970  142.3940 O   0  0  0  0  0  1  0  0  0  0  0  0
  189.8670  177.7560  144.6890 C   0  0  0  0  0  2  0  0  0  0  0  0
  188.6430  178.0330  145.4230 N   0  0  0  0  0  1  0  0  0  0  0  0
  179.1230  176.5660  139.0560 S   0  0  0  0  0  0  0  0  0  0  0  0
  179.7160  177.1140  140.5920 O   0  0  0  0  0  0  0  0  0  0  0  0
  180.1080  179.3860  141.1840 C   0  0  0  0  0  0  0  0  0  0  0  0
  179.2900  178.3350  141.1000 C   0  0  0  0  0  3  0  0  0  0  0  0
  185.9250  179.5080  142.6460 N   0  0  0  0  0  1  0  0  0  0  0  0
  183.9540  179.5950  144.4150 O   0  0  0  0  0  1  0  0  0  0  0  0
  182.5920  179.1000  141.5950 N   0  0  0  0  0  0  0  0  0  0  0  0
  181.4980  179.3000  140.6910 C   0  0  0  0  0  0  0  0  0  0  0  0
  183.8260  178.5220  143.5280 C   0  0  2  0  0  3  0  0  0  0  0  0
  183.9780  179.2540  141.2010 C   0  0  0  0  0  2  0  0  0  0  0  0
  181.7220  179.4090  139.4550 O   0  0  0  0  0  0  0  0  0  0  0  0
  184.7840  178.6610  142.3390 C   0  0  1  0  0  3  0  0  0  0  0  0
  182.4340  178.5540  142.9280 C   0  0  0  0  0  2  0  0  0  0  0  0
  178.9530  181.5800  141.0020 O   0  0  0  0  0  0  0  0  0  0  0  0
  179.7640  180.8630  143.0170 O   0  0  0  0  0  1  0  0  0  0  0  0
  179.6060  180.6370  141.7870 C   0  0  0  0  0  0  0  0  0  0  0  0
  181.8140  173.3730  135.2240 C   0  0  2  0  0  3  0  0  0  0  0  0
  180.3300  173.5110  135.5500 C   0  0  1  0  0  3  0  0  0  0  0  0
  179.8130  171.6080  137.2280 N   0  0  0  0  0  2  0  0  0  0  0  0
  179.5930  172.6730  134.7550 O   0  0  0  0  0  0  0  0  0  0  0  0
  179.8940  172.3710  136.1910 C   0  0  0  0  0  0  0  0  0  0  0  0
  182.4020  172.1050  135.7740 C   0  0  0  0  0  0  0  0  0  0  0  0
  183.3110  172.1660  136.9500 C   0  0  0  0  0  1  0  0  0  0  0  0
  182.1340  171.0240  135.2740 O   0  0  0  0  0  0  0  0  0  0  0  0
  1 10  1  0  0  0  0
  2  6  1  0  0  0  0
  2  1  2  0  0  0  0
  3 12  1  0  0  0  0
  3  9  1  0  0  0  0
  4  3  2  0  0  0  0
  5  2  1  0  0  0  0
  6  8  1  0  0  0  0
  7  4  1  0  0  0  0
  7  5  2  0  0  0  0
  8 10  1  0  0  0  0
  8 41  1  6  0  0  0
  9  1  1  0  0  0  0
 11 13  2  0  0  0  0
 11 12  1  0  0  0  0
 14 15  2  0  0  0  0
 14 11  1  0  0  0  0
 15 17  1  0  0  0  0
 17 16  3  0  0  0  0
 18 23  1  0  0  0  0
 18 15  1  0  0  0  0
 19 23  2  0  0  0  0
 19 22  1  0  0  0  0
 20 25  1  0  0  0  0
 21 20  1  0  0  0  0
 22 21  2  0  0  0  0
 23 24  1  0  0  0  0
 24 20  2  0  0  0  0
 25 26  1  0  0  0  0
 26 27  1  0  0  0  0
 28 27  1  0  0  0  0
 28 29  1  0  0  0  0
 29 32  1  0  0  0  0
 30 31  1  0  0  0  0
 30 29  1  0  0  0  0
 32 34  1  0  0  0  0
 34 38  1  1  0  0  0
 34 36  1  0  0  0  0
 34 37  1  0  0  0  0
 36 37  1  0  0  0  0
 36 35  1  1  0  0  0
 37 33  1  6  0  0  0
 37 39  1  0  0  0  0
 39 40  1  0  0  0  0
 41 42  1  0  0  0  0
 42 44  1  0  0  0  0
 43 56  1  0  0  0  0
 44 43  2  0  0  0  0
 47 53  1  0  0  0  0
 48 43  1  0  0  0  0
 48 47  1  0  0  0  0
 49 46  1  1  0  0  0
 50 47  1  0  0  0  0
 50 52  1  0  0  0  0
 51 48  2  0  0  0  0
 52 45  1  1  0  0  0
 52 49  1  0  0  0  0
 53 49  1  0  0  0  0
 54 56  2  0  0  0  0
 56 55  1  0  0  0  0
 57  5  1  0  0  0  0
 57 62  1  1  0  0  0
 58 57  1  6  0  0  0
 58 61  1  0  0  0  0
 60 58  1  0  0  0  0
 60 61  1  0  0  0  0
 61 59  2  0  0  0  0
 62 63  1  0  0  0  0
 64 62  2  0  0  0  0
M  END
>  <MODEL>
5

>  <REMARK>
 VINA RESULT:      -5.7      2.693     11.622
  Name = 
  22 active torsions:
  status: ('A' for Active; 'I' for Inactive)
    1  A    between atoms: C_3  and  C_10
    2  A    between atoms: C_4  and  N_17
    3  A    between atoms: N_5  and  C_6
    4  A    between atoms: N_5  and  C_54
    5  A    between atoms: N_5  and  C_61
    6  A    between atoms: C_8  and  C_38
    7  A    between atoms: C_9  and  C_38
    8  A    between atoms: C_12  and  C_19
    9  A    between atoms: C_12  and  C_61
   10  A    between atoms: C_13  and  O_39
   11  A    between atoms: C_19  and  O_39
   12  A    between atoms: C_20  and  C_53
   13  A    between atoms: C_21  and  C_38
   14  A    between atoms: C_25  and  C_54
   15  A    between atoms: C_30  and  C_33
   16  A    between atoms: C_30  and  C_58
   17  A    between atoms: C_32  and  C_42
   18  A    between atoms: C_37  and  O_46
   19  A    between atoms: C_42  and  C_56
   20  A    between atoms: O_46  and  S_63
   21  A    between atoms: C_50  and  C_56
   22  A    between atoms: C_51  and  S_63
                            x       y       z     vdW  Elec       q    Type
                         _______ _______ _______ _____ _____    ______ ____

>  <TORSDO>
F 22

$$$$
=
 OpenBabel10222417073D

 64 69  0  0  1  0  0  0  0  0999 V2000
  183.4610  178.8670  139.7700 C   0  0  0  0  0  0  0  0  0  0  0  0
  183.7020  178.2540  140.9240 C   0  0  0  0  0  0  0  0  0  0  0  0
  185.6360  178.9720  138.6390 C   0  0  0  0  0  0  0  0  0  0  0  0
  186.4340  178.3620  139.5210 C   0  0  0  0  0  3  0  0  0  0  0  0
  185.0150  178.2350  141.6170 C   0  0  0  0  0  0  0  0  0  0  0  0
  182.5000  177.6260  141.5330 C   0  0  0  0  0  2  0  0  0  0  0  0
  186.1980  178.2490  140.9760 C   0  0  0  0  0  3  0  0  0  0  0  0
  181.2950  178.2770  140.8780 C   0  0  1  0  0  3  0  0  0  0  0  0
  184.4510  179.7530  139.0960 C   0  0  0  0  0  2  0  0  0  0  0  0
  181.7770  178.7760  139.1980 S   0  0  0  0  0  0  0  0  0  0  0  0
  186.9710  178.2850  136.5300 C   0  0  0  0  0  0  0  0  0  0  0  0
  185.9400  178.9900  137.2360 N   0  0  0  0  0  2  0  0  0  0  0  0
  187.0970  178.4960  135.2960 O   0  0  0  0  0  0  0  0  0  0  0  0
  187.8540  177.3150  137.2180 C   0  0  0  0  0  3  0  0  0  0  0  0
  188.1730  176.0810  136.8100 C   0  0  0  0  0  0  0  0  0  0  0  0
  187.2960  175.0480  134.5940 N   0  0  0  0  0  0  0  0  0  0  0  0
  187.6890  175.5070  135.5800 C   0  0  0  0  0  0  0  0  0  0  0  0
  189.0950  175.2650  137.6550 C   0  0  0  0  0  2  0  0  0  0  0  0
  191.0890  175.3260  136.1380 C   0  0  0  0  0  3  0  0  0  0  0  0
  192.6240  176.5680  138.1290 C   0  0  0  0  0  0  0  0  0  0  0  0
  193.1880  176.2760  136.8760 C   0  0  0  0  0  3  0  0  0  0  0  0
  192.4230  175.6580  135.8850 C   0  0  0  0  0  3  0  0  0  0  0  0
  190.5200  175.6130  137.3840 C   0  0  0  0  0  0  0  0  0  0  0  0
  191.2870  176.2370  138.3730 C   0  0  0  0  0  3  0  0  0  0  0  0
  193.3660  177.1770  139.1420 O   0  0  0  0  0  0  0  0  0  0  0  0
  193.2110  176.8440  140.5170 C   0  0  0  0  0  2  0  0  0  0  0  0
  192.1790  177.7570  141.1460 C   0  0  0  0  0  2  0  0  0  0  0  0
  191.3540  176.9850  142.1710 C   0  0  0  0  0  2  0  0  0  0  0  0
  191.5090  177.4970  143.5380 N   0  0  0  0  0  0  0  0  0  0  0  0
  191.3240  178.9490  143.5790 C   0  0  0  0  0  2  0  0  0  0  0  0
  190.3440  179.2750  144.5160 O   0  0  0  0  0  1  0  0  0  0  0  0
  190.6710  176.7370  144.4850 C   0  0  0  0  0  2  0  0  0  0  0  0
  188.5310  176.8330  146.5090 C   0  0  0  0  0  1  0  0  0  0  0  0
  191.0670  176.8310  145.9700 C   0  0  2  0  0  0  0  0  0  0  0  0
  191.7170  175.4220  147.8170 O   0  0  0  0  0  1  0  0  0  0  0  0
  190.7570  175.5970  146.8170 C   0  0  1  0  0  3  0  0  0  0  0  0
  189.9630  176.8930  147.0170 C   0  0  2  0  0  0  0  0  0  0  0  0
  192.2460  177.5040  146.3030 O   0  0  0  0  0  1  0  0  0  0  0  0
  190.2510  177.7270  148.2630 C   0  0  0  0  0  2  0  0  0  0  0  0
  189.1350  178.6160  148.5410 N   0  0  0  0  0  1  0  0  0  0  0  0
  179.9190  177.0990  140.8150 S   0  0  0  0  0  0  0  0  0  0  0  0
  180.6150  176.2740  139.4570 O   0  0  0  0  0  0  0  0  0  0  0  0
  180.1050  175.6270  137.2240 C   0  0  0  0  0  0  0  0  0  0  0  0
  180.1690  176.5610  138.1730 C   0  0  0  0  0  3  0  0  0  0  0  0
  183.9600  171.1500  136.1780 N   0  0  0  0  0  1  0  0  0  0  0  0
  184.2450  173.6010  135.2140 O   0  0  0  0  0  1  0  0  0  0  0  0
  181.7580  173.7060  137.1770 N   0  0  0  0  0  0  0  0  0  0  0  0
  180.4660  174.2250  137.5210 C   0  0  0  0  0  0  0  0  0  0  0  0
  184.0470  173.5940  136.5970 C   0  0  2  0  0  3  0  0  0  0  0  0
  182.0740  172.2920  137.2190 C   0  0  0  0  0  2  0  0  0  0  0  0
  179.6220  173.4770  138.0840 O   0  0  0  0  0  0  0  0  0  0  0  0
  183.5820  172.2180  137.0890 C   0  0  1  0  0  3  0  0  0  0  0  0
  182.9140  174.5430  136.9300 C   0  0  0  0  0  2  0  0  0  0  0  0
  179.9260  175.1760  134.7850 O   0  0  0  0  0  0  0  0  0  0  0  0
  179.0780  177.1070  135.6700 O   0  0  0  0  0  1  0  0  0  0  0  0
  179.6760  176.0140  135.8650 C   0  0  0  0  0  0  0  0  0  0  0  0
  185.0040  178.0870  143.1170 C   0  0  2  0  0  3  0  0  0  0  0  0
  184.4820  179.3320  143.8270 C   0  0  1  0  0  3  0  0  0  0  0  0
  184.2530  178.6620  146.3170 N   0  0  0  0  0  2  0  0  0  0  0  0
  183.1180  179.2720  143.9430 O   0  0  0  0  0  0  0  0  0  0  0  0
  184.0420  178.9910  145.0880 C   0  0  0  0  0  0  0  0  0  0  0  0
  186.3330  177.6390  143.6580 C   0  0  0  0  0  0  0  0  0  0  0  0
  187.3040  178.6530  144.1500 C   0  0  0  0  0  1  0  0  0  0  0  0
  186.6200  176.4540  143.7070 O   0  0  0  0  0  0  0  0  0  0  0  0
  1  2  2  0  0  0  0
  2  6  1  0  0  0  0
  2  5  1  0  0  0  0
  3  9  1  0  0  0  0
  3  4  2  0  0  0  0
  4  7  1  0  0  0  0
  5 57  1  0  0  0  0
  7  5  2  0  0  0  0
  8 41  1  6  0  0  0
  8  6  1  0  0  0  0
  9  1  1  0  0  0  0
 10  1  1  0  0  0  0
 10  8  1  0  0  0  0
 11 14  1  0  0  0  0
 11 12  1  0  0  0  0
 12  3  1  0  0  0  0
 13 11  2  0  0  0  0
 15 14  2  0  0  0  0
 15 18  1  0  0  0  0
 16 17  3  0  0  0  0
 17 15  1  0  0  0  0
 19 23  1  0  0  0  0
 20 24  1  0  0  0  0
 20 25  1  0  0  0  0
 21 20  2  0  0  0  0
 22 19  2  0  0  0  0
 22 21  1  0  0  0  0
 23 18  1  0  0  0  0
 23 24  2  0  0  0  0
 25 26  1  0  0  0  0
 26 27  1  0  0  0  0
 27 28  1  0  0  0  0
 28 29  1  0  0  0  0
 29 30  1  0  0  0  0
 29 32  1  0  0  0  0
 30 31  1  0  0  0  0
 32 34  1  0  0  0  0
 34 38  1  1  0  0  0
 34 36  1  0  0  0  0
 34 37  1  0  0  0  0
 36 37  1  0  0  0  0
 36 35  1  1  0  0  0
 37 33  1  6  0  0  0
 37 39  1  0  0  0  0
 39 40  1  0  0  0  0
 42 41  1  0  0  0  0
 43 48  1  0  0  0  0
 43 44  2  0  0  0  0
 44 42  1  0  0  0  0
 47 50  1  0  0  0  0
 47 48  1  0  0  0  0
 48 51  2  0  0  0  0
 49 46  1  6  0  0  0
 49 53  1  0  0  0  0
 49 52  1  0  0  0  0
 52 45  1  6  0  0  0
 52 50  1  0  0  0  0
 53 47  1  0  0  0  0
 54 56  2  0  0  0  0
 55 56  1  0  0  0  0
 56 43  1  0  0  0  0
 57 62  1  1  0  0  0
 58 57  1  6  0  0  0
 58 60  1  0  0  0  0
 58 61  1  0  0  0  0
 60 61  1  0  0  0  0
 61 59  2  0  0  0  0
 62 64  2  0  0  0  0
 62 63  1  0  0  0  0
M  END
>  <MODEL>
6

>  <REMARK>
 VINA RESULT:      -5.6      2.619     10.396
  Name = 
  22 active torsions:
  status: ('A' for Active; 'I' for Inactive)
    1  A    between atoms: C_3  and  C_10
    2  A    between atoms: C_4  and  N_17
    3  A    between atoms: N_5  and  C_6
    4  A    between atoms: N_5  and  C_54
    5  A    between atoms: N_5  and  C_61
    6  A    between atoms: C_8  and  C_38
    7  A    between atoms: C_9  and  C_38
    8  A    between atoms: C_12  and  C_19
    9  A    between atoms: C_12  and  C_61
   10  A    between atoms: C_13  and  O_39
   11  A    between atoms: C_19  and  O_39
   12  A    between atoms: C_20  and  C_53
   13  A    between atoms: C_21  and  C_38
   14  A    between atoms: C_25  and  C_54
   15  A    between atoms: C_30  and  C_33
   16  A    between atoms: C_30  and  C_58
   17  A    between atoms: C_32  and  C_42
   18  A    between atoms: C_37  and  O_46
   19  A    between atoms: C_42  and  C_56
   20  A    between atoms: O_46  and  S_63
   21  A    between atoms: C_50  and  C_56
   22  A    between atoms: C_51  and  S_63
                            x       y       z     vdW  Elec       q    Type
                         _______ _______ _______ _____ _____    ______ ____

>  <TORSDO>
F 22

$$$$
=
 OpenBabel10222417073D

 64 69  0  0  1  0  0  0  0  0999 V2000
  184.5540  179.0680  142.4490 C   0  0  0  0  0  0  0  0  0  0  0  0
  183.7170  178.6570  141.5020 C   0  0  0  0  0  0  0  0  0  0  0  0
  183.3030  178.8350  144.5470 C   0  0  0  0  0  0  0  0  0  0  0  0
  182.1360  178.3440  144.1190 C   0  0  0  0  0  3  0  0  0  0  0  0
  182.2370  178.6810  141.6090 C   0  0  0  0  0  0  0  0  0  0  0  0
  184.3930  178.2230  140.2510 C   0  0  0  0  0  2  0  0  0  0  0  0
  181.5680  178.5080  142.7640 C   0  0  0  0  0  3  0  0  0  0  0  0
  185.7880  178.8200  140.2850 C   0  0  1  0  0  3  0  0  0  0  0  0
  184.1030  179.7570  143.6910 C   0  0  0  0  0  2  0  0  0  0  0  0
  186.2810  178.9810  142.0270 S   0  0  0  0  0  0  0  0  0  0  0  0
  185.1330  178.5910  146.3630 C   0  0  0  0  0  0  0  0  0  0  0  0
  183.7820  178.5830  145.8770 N   0  0  0  0  0  2  0  0  0  0  0  0
  185.3340  178.2800  147.5650 O   0  0  0  0  0  0  0  0  0  0  0  0
  186.2660  178.9750  145.4890 C   0  0  0  0  0  3  0  0  0  0  0  0
  187.5300  178.5410  145.5660 C   0  0  0  0  0  0  0  0  0  0  0  0
  188.3320  176.8180  147.3370 N   0  0  0  0  0  0  0  0  0  0  0  0
  187.9760  177.5840  146.5470 C   0  0  0  0  0  0  0  0  0  0  0  0
  188.5220  179.0510  144.5750 C   0  0  0  0  0  2  0  0  0  0  0  0
  190.3820  177.3950  144.8580 C   0  0  0  0  0  3  0  0  0  0  0  0
  189.9630  176.4120  142.2660 C   0  0  0  0  0  0  0  0  0  0  0  0
  190.9710  175.8650  143.0780 C   0  0  0  0  0  3  0  0  0  0  0  0
  191.1790  176.3560  144.3690 C   0  0  0  0  0  3  0  0  0  0  0  0
  189.3770  177.9450  144.0540 C   0  0  0  0  0  0  0  0  0  0  0  0
  189.1680  177.4480  142.7630 C   0  0  0  0  0  3  0  0  0  0  0  0
  189.7380  175.9480  140.9690 O   0  0  0  0  0  0  0  0  0  0  0  0
  190.7310  175.9940  139.9510 C   0  0  0  0  0  2  0  0  0  0  0  0
  190.5960  177.2840  139.1680 C   0  0  0  0  0  2  0  0  0  0  0  0
  191.7100  177.3830  138.1290 C   0  0  0  0  0  2  0  0  0  0  0  0
  192.0980  176.0820  137.5750 N   0  0  0  0  0  0  0  0  0  0  0  0
  191.4090  175.8220  136.3100 C   0  0  0  0  0  2  0  0  0  0  0  0
  192.3420  175.5830  135.3020 O   0  0  0  0  0  1  0  0  0  0  0  0
  193.5670  175.9480  137.5200 C   0  0  0  0  0  2  0  0  0  0  0  0
  196.0020  175.2410  136.0180 C   0  0  0  0  0  1  0  0  0  0  0  0
  194.1260  174.5190  137.6550 C   0  0  2  0  0  0  0  0  0  0  0  0
  195.5410  173.2010  139.0960 O   0  0  0  0  0  1  0  0  0  0  0  0
  195.4660  174.3980  138.3790 C   0  0  1  0  0  3  0  0  0  0  0  0
  195.3770  174.1480  136.8700 C   0  0  2  0  0  0  0  0  0  0  0  0
  193.2270  173.4730  137.8780 O   0  0  0  0  0  1  0  0  0  0  0  0
  195.4680  172.7070  136.3730 C   0  0  0  0  0  2  0  0  0  0  0  0
  195.7570  172.6850  134.9490 N   0  0  0  0  0  1  0  0  0  0  0  0
  186.9410  177.7370  139.4010 S   0  0  0  0  0  0  0  0  0  0  0  0
  186.5160  178.4390  137.8720 O   0  0  0  0  0  0  0  0  0  0  0  0
  184.9790  177.3860  136.3920 C   0  0  0  0  0  0  0  0  0  0  0  0
  185.2350  178.2610  137.3640 C   0  0  0  0  0  3  0  0  0  0  0  0
  187.9250  172.1820  136.8760 N   0  0  0  0  0  1  0  0  0  0  0  0
  185.8280  172.8370  138.3570 O   0  0  0  0  0  1  0  0  0  0  0  0
  186.1500  175.1450  136.2080 N   0  0  0  0  0  0  0  0  0  0  0  0
  186.0530  176.5290  135.8460 C   0  0  0  0  0  0  0  0  0  0  0  0
  185.5810  172.9870  136.9900 C   0  0  2  0  0  3  0  0  0  0  0  0
  187.3100  174.3320  135.9040 C   0  0  0  0  0  2  0  0  0  0  0  0
  186.8970  177.0280  135.0530 O   0  0  0  0  0  0  0  0  0  0  0  0
  186.8770  172.9050  136.1740 C   0  0  1  0  0  3  0  0  0  0  0  0
  185.0410  174.3830  136.7460 C   0  0  0  0  0  2  0  0  0  0  0  0
  183.3790  176.7600  134.5940 O   0  0  0  0  0  0  0  0  0  0  0  0
  182.6230  177.6820  136.5460 O   0  0  0  0  0  1  0  0  0  0  0  0
  183.6050  177.2880  135.8600 C   0  0  0  0  0  0  0  0  0  0  0  0
  181.4520  178.8040  140.3280 C   0  0  2  0  0  3  0  0  0  0  0  0
  180.4870  179.9860  140.3410 C   0  0  1  0  0  3  0  0  0  0  0  0
  179.7660  180.3150  137.8750 N   0  0  0  0  0  2  0  0  0  0  0  0
  181.1560  181.1430  140.0390 O   0  0  0  0  0  0  0  0  0  0  0  0
  180.2870  180.4280  139.0500 C   0  0  0  0  0  0  0  0  0  0  0  0
  180.7710  177.5190  139.9480 C   0  0  0  0  0  0  0  0  0  0  0  0
  179.2910  177.4130  140.0560 C   0  0  0  0  0  1  0  0  0  0  0  0
  181.4170  176.5660  139.5430 O   0  0  0  0  0  0  0  0  0  0  0  0
  1  9  1  0  0  0  0
  2  5  1  0  0  0  0
  2  1  2  0  0  0  0
  3 12  1  0  0  0  0
  4  3  2  0  0  0  0
  5  7  2  0  0  0  0
  6  8  1  0  0  0  0
  6  2  1  0  0  0  0
  7  4  1  0  0  0  0
  8 41  1  6  0  0  0
  8 10  1  0  0  0  0
  9  3  1  0  0  0  0
 10  1  1  0  0  0  0
 11 13  2  0  0  0  0
 12 11  1  0  0  0  0
 14 15  2  0  0  0  0
 14 11  1  0  0  0  0
 15 17  1  0  0  0  0
 17 16  3  0  0  0  0
 18 15  1  0  0  0  0
 20 24  2  0  0  0  0
 20 21  1  0  0  0  0
 21 22  2  0  0  0  0
 22 19  1  0  0  0  0
 23 18  1  0  0  0  0
 23 19  2  0  0  0  0
 24 23  1  0  0  0  0
 25 20  1  0  0  0  0
 26 25  1  0  0  0  0
 27 26  1  0  0  0  0
 28 27  1  0  0  0  0
 29 28  1  0  0  0  0
 30 29  1  0  0  0  0
 31 30  1  0  0  0  0
 32 29  1  0  0  0  0
 32 34  1  0  0  0  0
 34 38  1  1  0  0  0
 34 36  1  0  0  0  0
 36 35  1  1  0  0  0
 37 33  1  6  0  0  0
 37 34  1  0  0  0  0
 37 36  1  0  0  0  0
 39 37  1  0  0  0  0
 40 39  1  0  0  0  0
 42 41  1  0  0  0  0
 43 44  2  0  0  0  0
 44 42  1  0  0  0  0
 47 53  1  0  0  0  0
 48 47  1  0  0  0  0
 48 43  1  0  0  0  0
 49 46  1  1  0  0  0
 50 52  1  0  0  0  0
 50 47  1  0  0  0  0
 51 48  2  0  0  0  0
 52 45  1  1  0  0  0
 52 49  1  0  0  0  0
 53 49  1  0  0  0  0
 54 56  2  0  0  0  0
 56 43  1  0  0  0  0
 56 55  1  0  0  0  0
 57 62  1  1  0  0  0
 57  5  1  0  0  0  0
 58 57  1  6  0  0  0
 59 61  2  0  0  0  0
 60 58  1  0  0  0  0
 61 60  1  0  0  0  0
 61 58  1  0  0  0  0
 62 63  1  0  0  0  0
 64 62  2  0  0  0  0
M  END
>  <MODEL>
7

>  <REMARK>
 VINA RESULT:      -5.4      2.510      9.210
  Name = 
  22 active torsions:
  status: ('A' for Active; 'I' for Inactive)
    1  A    between atoms: C_3  and  C_10
    2  A    between atoms: C_4  and  N_17
    3  A    between atoms: N_5  and  C_6
    4  A    between atoms: N_5  and  C_54
    5  A    between atoms: N_5  and  C_61
    6  A    between atoms: C_8  and  C_38
    7  A    between atoms: C_9  and  C_38
    8  A    between atoms: C_12  and  C_19
    9  A    between atoms: C_12  and  C_61
   10  A    between atoms: C_13  and  O_39
   11  A    between atoms: C_19  and  O_39
   12  A    between atoms: C_20  and  C_53
   13  A    between atoms: C_21  and  C_38
   14  A    between atoms: C_25  and  C_54
   15  A    between atoms: C_30  and  C_33
   16  A    between atoms: C_30  and  C_58
   17  A    between atoms: C_32  and  C_42
   18  A    between atoms: C_37  and  O_46
   19  A    between atoms: C_42  and  C_56
   20  A    between atoms: O_46  and  S_63
   21  A    between atoms: C_50  and  C_56
   22  A    between atoms: C_51  and  S_63
                            x       y       z     vdW  Elec       q    Type
                         _______ _______ _______ _____ _____    ______ ____

>  <TORSDO>
F 22

$$$$
=
 OpenBabel10222417073D

 64 69  0  0  1  0  0  0  0  0999 V2000
  187.6090  177.2540  144.6680 C   0  0  0  0  0  0  0  0  0  0  0  0
  188.8150  177.5060  145.1660 C   0  0  0  0  0  0  0  0  0  0  0  0
  186.0400  178.2820  146.2490 C   0  0  0  0  0  0  0  0  0  0  0  0
  186.8690  178.8120  147.1540 C   0  0  0  0  0  3  0  0  0  0  0  0
  189.1050  177.7550  146.6000 C   0  0  0  0  0  0  0  0  0  0  0  0
  189.9060  177.4450  144.1580 C   0  0  0  0  0  2  0  0  0  0  0  0
  188.2460  178.3600  147.4420 C   0  0  0  0  0  3  0  0  0  0  0  0
  189.3590  176.6640  142.9770 C   0  0  1  0  0  3  0  0  0  0  0  0
  186.4060  177.0340  145.5180 C   0  0  0  0  0  2  0  0  0  0  0  0
  187.5620  176.9330  142.9170 S   0  0  0  0  0  0  0  0  0  0  0  0
  184.0080  178.9370  144.7850 C   0  0  0  0  0  0  0  0  0  0  0  0
  184.7310  178.8240  146.0200 N   0  0  0  0  0  2  0  0  0  0  0  0
  182.8860  179.5060  144.8040 O   0  0  0  0  0  0  0  0  0  0  0  0
  184.5460  178.3840  143.5210 C   0  0  0  0  0  3  0  0  0  0  0  0
  183.9050  178.2680  142.3520 C   0  0  0  0  0  0  0  0  0  0  0  0
  181.4540  179.0500  141.9890 N   0  0  0  0  0  0  0  0  0  0  0  0
  182.5450  178.7000  142.1520 C   0  0  0  0  0  0  0  0  0  0  0  0
  184.6390  177.6850  141.1900 C   0  0  0  0  0  2  0  0  0  0  0  0
  184.1600  178.9410  139.0740 C   0  0  0  0  0  3  0  0  0  0  0  0
  182.1410  177.1180  138.3950 C   0  0  0  0  0  0  0  0  0  0  0  0
  182.4360  178.1990  137.5470 C   0  0  0  0  0  3  0  0  0  0  0  0
  183.4420  179.1060  137.8860 C   0  0  0  0  0  3  0  0  0  0  0  0
  183.8710  177.8670  139.9240 C   0  0  0  0  0  0  0  0  0  0  0  0
  182.8660  176.9570  139.5790 C   0  0  0  0  0  3  0  0  0  0  0  0
  181.1350  176.2010  138.0870 O   0  0  0  0  0  0  0  0  0  0  0  0
  181.1650  174.8490  138.5290 C   0  0  0  0  0  2  0  0  0  0  0  0
  180.4510  173.9700  137.5220 C   0  0  0  0  0  2  0  0  0  0  0  0
  180.9890  172.5440  137.5990 C   0  0  0  0  0  2  0  0  0  0  0  0
  181.9340  172.2260  136.5230 N   0  0  0  0  0  0  0  0  0  0  0  0
  181.7480  173.1220  135.3800 C   0  0  0  0  0  2  0  0  0  0  0  0
  180.4040  173.1460  135.0100 O   0  0  0  0  0  1  0  0  0  0  0  0
  183.3150  172.1540  137.0380 C   0  0  0  0  0  2  0  0  0  0  0  0
  184.5900  174.8120  137.0360 C   0  0  0  0  0  1  0  0  0  0  0  0
  184.4360  172.4320  136.0180 C   0  0  2  0  0  0  0  0  0  0  0  0
  186.8110  172.1260  135.7310 O   0  0  0  0  0  1  0  0  0  0  0  0
  185.8350  172.6120  136.6060 C   0  0  1  0  0  3  0  0  0  0  0  0
  185.0870  173.8080  136.0070 C   0  0  2  0  0  0  0  0  0  0  0  0
  184.3840  171.7840  134.7810 O   0  0  0  0  0  1  0  0  0  0  0  0
  185.5450  174.3360  134.6490 C   0  0  0  0  0  2  0  0  0  0  0  0
  185.7370  175.7750  134.7090 N   0  0  0  0  0  1  0  0  0  0  0  0
  190.1350  177.2430  141.4450 S   0  0  0  0  0  0  0  0  0  0  0  0
  188.5910  177.5530  140.7150 O   0  0  0  0  0  0  0  0  0  0  0  0
  188.7090  177.9350  138.3680 C   0  0  0  0  0  0  0  0  0  0  0  0
  188.5080  178.3870  139.6070 C   0  0  0  0  0  3  0  0  0  0  0  0
  192.6830  173.8940  136.3990 N   0  0  0  0  0  1  0  0  0  0  0  0
  193.1970  176.4830  136.6290 O   0  0  0  0  0  1  0  0  0  0  0  0
  190.3180  176.0390  137.8780 N   0  0  0  0  0  0  0  0  0  0  0  0
  188.9840  176.5040  138.1240 C   0  0  0  0  0  0  0  0  0  0  0  0
  192.6790  175.9370  137.8070 C   0  0  2  0  0  3  0  0  0  0  0  0
  190.6090  174.7050  137.3940 C   0  0  0  0  0  2  0  0  0  0  0  0
  188.0270  175.6830  138.1300 O   0  0  0  0  0  0  0  0  0  0  0  0
  192.1040  174.5350  137.5680 C   0  0  1  0  0  3  0  0  0  0  0  0
  191.5030  176.7820  138.2550 C   0  0  0  0  0  2  0  0  0  0  0  0
  188.1870  178.4830  136.0000 O   0  0  0  0  0  0  0  0  0  0  0  0
  189.0500  180.0780  137.3930 O   0  0  0  0  0  1  0  0  0  0  0  0
  188.6610  178.8890  137.2420 C   0  0  0  0  0  0  0  0  0  0  0  0
  190.4810  177.3980  147.1010 C   0  0  2  0  0  3  0  0  0  0  0  0
  190.7740  175.9040  147.0020 C   0  0  1  0  0  3  0  0  0  0  0  0
  193.2100  175.6210  147.8320 N   0  0  0  0  0  2  0  0  0  0  0  0
  191.4070  175.6240  145.8200 O   0  0  0  0  0  0  0  0  0  0  0  0
  192.1300  175.6920  147.1310 C   0  0  0  0  0  0  0  0  0  0  0  0
  190.7490  177.9400  148.4760 C   0  0  0  0  0  0  0  0  0  0  0  0
  189.8830  179.0190  149.0220 C   0  0  0  0  0  1  0  0  0  0  0  0
  191.6640  177.4990  149.1540 O   0  0  0  0  0  0  0  0  0  0  0  0
  1  2  2  0  0  0  0
  1  9  1  0  0  0  0
  2  5  1  0  0  0  0
  3  4  2  0  0  0  0
  4  7  1  0  0  0  0
  5 57  1  0  0  0  0
  5  7  2  0  0  0  0
  6  2  1  0  0  0  0
  8 41  1  6  0  0  0
  8  6  1  0  0  0  0
  9  3  1  0  0  0  0
 10  8  1  0  0  0  0
 10  1  1  0  0  0  0
 11 13  2  0  0  0  0
 11 12  1  0  0  0  0
 12  3  1  0  0  0  0
 14 11  1  0  0  0  0
 15 14  2  0  0  0  0
 16 17  3  0  0  0  0
 17 15  1  0  0  0  0
 18 15  1  0  0  0  0
 19 23  1  0  0  0  0
 20 24  1  0  0  0  0
 21 22  1  0  0  0  0
 21 20  2  0  0  0  0
 22 19  2  0  0  0  0
 23 18  1  0  0  0  0
 24 23  2  0  0  0  0
 25 20  1  0  0  0  0
 25 26  1  0  0  0  0
 27 28  1  0  0  0  0
 27 26  1  0  0  0  0
 29 32  1  0  0  0  0
 29 28  1  0  0  0  0
 30 29  1  0  0  0  0
 31 30  1  0  0  0  0
 34 38  1  6  0  0  0
 34 36  1  0  0  0  0
 34 32  1  0  0  0  0
 36 35  1  6  0  0  0
 37 34  1  0  0  0  0
 37 36  1  0  0  0  0
 37 33  1  1  0  0  0
 39 40  1  0  0  0  0
 39 37  1  0  0  0  0
 42 41  1  0  0  0  0
 43 44  2  0  0  0  0
 44 42  1  0  0  0  0
 47 48  1  0  0  0  0
 47 53  1  0  0  0  0
 48 51  2  0  0  0  0
 48 43  1  0  0  0  0
 49 46  1  6  0  0  0
 49 53  1  0  0  0  0
 50 52  1  0  0  0  0
 50 47  1  0  0  0  0
 52 45  1  6  0  0  0
 52 49  1  0  0  0  0
 54 56  2  0  0  0  0
 56 55  1  0  0  0  0
 56 43  1  0  0  0  0
 57 62  1  1  0  0  0
 58 57  1  6  0  0  0
 58 61  1  0  0  0  0
 60 58  1  0  0  0  0
 60 61  1  0  0  0  0
 61 59  2  0  0  0  0
 62 63  1  0  0  0  0
 62 64  2  0  0  0  0
M  END
>  <MODEL>
8

>  <REMARK>
 VINA RESULT:      -5.3      1.843      2.477
  Name = 
  22 active torsions:
  status: ('A' for Active; 'I' for Inactive)
    1  A    between atoms: C_3  and  C_10
    2  A    between atoms: C_4  and  N_17
    3  A    between atoms: N_5  and  C_6
    4  A    between atoms: N_5  and  C_54
    5  A    between atoms: N_5  and  C_61
    6  A    between atoms: C_8  and  C_38
    7  A    between atoms: C_9  and  C_38
    8  A    between atoms: C_12  and  C_19
    9  A    between atoms: C_12  and  C_61
   10  A    between atoms: C_13  and  O_39
   11  A    between atoms: C_19  and  O_39
   12  A    between atoms: C_20  and  C_53
   13  A    between atoms: C_21  and  C_38
   14  A    between atoms: C_25  and  C_54
   15  A    between atoms: C_30  and  C_33
   16  A    between atoms: C_30  and  C_58
   17  A    between atoms: C_32  and  C_42
   18  A    between atoms: C_37  and  O_46
   19  A    between atoms: C_42  and  C_56
   20  A    between atoms: O_46  and  S_63
   21  A    between atoms: C_50  and  C_56
   22  A    between atoms: C_51  and  S_63
                            x       y       z     vdW  Elec       q    Type
                         _______ _______ _______ _____ _____    ______ ____

>  <TORSDO>
F 22

$$$$
=
 OpenBabel10222417073D

 64 69  0  0  1  0  0  0  0  0999 V2000
  187.2850  178.0990  138.1030 C   0  0  0  0  0  0  0  0  0  0  0  0
  187.3220  176.7940  137.8540 C   0  0  0  0  0  0  0  0  0  0  0  0
  184.9040  178.6880  138.0590 C   0  0  0  0  0  0  0  0  0  0  0  0
  184.3330  177.5060  137.8070 C   0  0  0  0  0  3  0  0  0  0  0  0
  186.2810  176.0430  137.1090 C   0  0  0  0  0  0  0  0  0  0  0  0
  188.5630  176.1260  138.3300 C   0  0  0  0  0  2  0  0  0  0  0  0
  184.9720  176.3560  137.1330 C   0  0  0  0  0  3  0  0  0  0  0  0
  189.5920  177.2240  138.5330 C   0  0  1  0  0  3  0  0  0  0  0  0
  186.2590  179.0100  137.5240 C   0  0  0  0  0  2  0  0  0  0  0  0
  188.7000  178.7480  138.9670 S   0  0  0  0  0  0  0  0  0  0  0  0
  182.8230  180.1060  138.6590 C   0  0  0  0  0  0  0  0  0  0  0  0
  184.2040  179.7280  138.7570 N   0  0  0  0  0  2  0  0  0  0  0  0
  182.4290  181.0980  139.3260 O   0  0  0  0  0  0  0  0  0  0  0  0
  181.8720  179.3450  137.8170 C   0  0  0  0  0  3  0  0  0  0  0  0
  180.9860  179.8420  136.9450 C   0  0  0  0  0  0  0  0  0  0  0  0
  180.7250  182.3830  136.4730 N   0  0  0  0  0  0  0  0  0  0  0  0
  180.8430  181.2520  136.6850 C   0  0  0  0  0  0  0  0  0  0  0  0
  180.1210  178.8920  136.1860 C   0  0  0  0  0  2  0  0  0  0  0  0
  182.0860  177.7330  135.1470 C   0  0  0  0  0  3  0  0  0  0  0  0
  181.0530  175.2300  135.8740 C   0  0  0  0  0  0  0  0  0  0  0  0
  182.2730  175.3210  135.1840 C   0  0  0  0  0  3  0  0  0  0  0  0
  182.7870  176.5680  134.8220 C   0  0  0  0  0  3  0  0  0  0  0  0
  180.8680  177.6500  135.8340 C   0  0  0  0  0  0  0  0  0  0  0  0
  180.3590  176.3990  136.1990 C   0  0  0  0  0  3  0  0  0  0  0  0
  180.5110  173.9970  136.2410 O   0  0  0  0  0  0  0  0  0  0  0  0
  179.3920  173.8760  137.1120 C   0  0  0  0  0  2  0  0  0  0  0  0
  179.8090  174.2290  138.5250 C   0  0  0  0  0  2  0  0  0  0  0  0
  179.1790  175.5560  138.9400 C   0  0  0  0  0  2  0  0  0  0  0  0
  179.3510  175.8530  140.3660 N   0  0  0  0  0  0  0  0  0  0  0  0
  179.5660  174.6260  141.1360 C   0  0  0  0  0  2  0  0  0  0  0  0
  179.2880  174.8570  142.4820 O   0  0  0  0  0  1  0  0  0  0  0  0
  180.3720  176.9000  140.5680 C   0  0  0  0  0  2  0  0  0  0  0  0
  182.6610  178.2000  141.8940 C   0  0  0  0  0  1  0  0  0  0  0  0
  180.0920  177.9150  141.6930 C   0  0  2  0  0  0  0  0  0  0  0  0
  179.5530  180.2450  142.0070 O   0  0  0  0  0  1  0  0  0  0  0  0
  180.4380  179.3680  141.3730 C   0  0  1  0  0  3  0  0  0  0  0  0
  181.2730  178.5790  142.3870 C   0  0  2  0  0  0  0  0  0  0  0  0
  178.9570  177.7300  142.4870 O   0  0  0  0  0  1  0  0  0  0  0  0
  181.0990  178.9020  143.8690 C   0  0  0  0  0  2  0  0  0  0  0  0
  182.1690  178.2950  144.6440 N   0  0  0  0  0  1  0  0  0  0  0  0
  190.7300  176.7600  139.8640 S   0  0  0  0  0  0  0  0  0  0  0  0
  190.2160  178.0940  140.8460 O   0  0  0  0  0  0  0  0  0  0  0  0
  189.0320  177.5180  142.8290 C   0  0  0  0  0  0  0  0  0  0  0  0
  189.0430  177.9950  141.5840 C   0  0  0  0  0  3  0  0  0  0  0  0
  191.9760  177.0260  148.0340 N   0  0  0  0  0  1  0  0  0  0  0  0
  189.4430  177.7770  147.8330 O   0  0  0  0  0  1  0  0  0  0  0  0
  190.3510  176.9380  144.9140 N   0  0  0  0  0  0  0  0  0  0  0  0
  190.2910  177.1180  143.4930 C   0  0  0  0  0  0  0  0  0  0  0  0
  189.6980  176.5800  147.1590 C   0  0  2  0  0  3  0  0  0  0  0  0
  191.5990  176.7910  145.6370 C   0  0  0  0  0  2  0  0  0  0  0  0
  191.3260  176.9370  142.7970 O   0  0  0  0  0  0  0  0  0  0  0  0
  191.2040  176.3230  147.0230 C   0  0  1  0  0  3  0  0  0  0  0  0
  189.1820  176.7050  145.7380 C   0  0  0  0  0  2  0  0  0  0  0  0
  187.1680  178.4900  144.1570 O   0  0  0  0  0  1  0  0  0  0  0  0
  187.1480  176.2760  143.5830 O   0  0  0  0  0  0  0  0  0  0  0  0
  187.7420  177.3870  143.5350 C   0  0  0  0  0  0  0  0  0  0  0  0
  186.7160  174.8000  136.3750 C   0  0  2  0  0  3  0  0  0  0  0  0
  187.3660  175.1100  135.0290 C   0  0  1  0  0  3  0  0  0  0  0  0
  189.5650  173.7440  134.9940 N   0  0  0  0  0  2  0  0  0  0  0  0
  188.2850  176.1170  135.1700 O   0  0  0  0  0  0  0  0  0  0  0  0
  188.6740  174.6760  135.0410 C   0  0  0  0  0  0  0  0  0  0  0  0
  185.6100  173.7900  136.2520 C   0  0  0  0  0  0  0  0  0  0  0  0
  184.8330  173.4020  137.4600 C   0  0  0  0  0  1  0  0  0  0  0  0
  185.3360  173.2920  135.1720 O   0  0  0  0  0  0  0  0  0  0  0  0
  1 10  1  0  0  0  0
  2  1  2  0  0  0  0
  2  6  1  0  0  0  0
  3 12  1  0  0  0  0
  4  3  2  0  0  0  0
  5  7  2  0  0  0  0
  5  2  1  0  0  0  0
  6  8  1  0  0  0  0
  7  4  1  0  0  0  0
  8 10  1  0  0  0  0
  8 41  1  1  0  0  0
  9  3  1  0  0  0  0
  9  1  1  0  0  0  0
 11 12  1  0  0  0  0
 11 13  2  0  0  0  0
 14 11  1  0  0  0  0
 15 14  2  0  0  0  0
 16 17  3  0  0  0  0
 17 15  1  0  0  0  0
 18 15  1  0  0  0  0
 19 23  1  0  0  0  0
 20 24  1  0  0  0  0
 20 25  1  0  0  0  0
 21 20  2  0  0  0  0
 22 19  2  0  0  0  0
 22 21  1  0  0  0  0
 23 18  1  0  0  0  0
 23 24  2  0  0  0  0
 25 26  1  0  0  0  0
 26 27  1  0  0  0  0
 27 28  1  0  0  0  0
 28 29  1  0  0  0  0
 29 32  1  0  0  0  0
 29 30  1  0  0  0  0
 30 31  1  0  0  0  0
 32 34  1  0  0  0  0
 34 37  1  0  0  0  0
 34 38  1  1  0  0  0
 36 34  1  0  0  0  0
 36 35  1  1  0  0  0
 36 37  1  0  0  0  0
 37 33  1  6  0  0  0
 37 39  1  0  0  0  0
 39 40  1  0  0  0  0
 41 42  1  0  0  0  0
 42 44  1  0  0  0  0
 43 48  1  0  0  0  0
 43 56  1  0  0  0  0
 44 43  2  0  0  0  0
 47 50  1  0  0  0  0
 47 53  1  0  0  0  0
 48 47  1  0  0  0  0
 49 46  1  1  0  0  0
 50 52  1  0  0  0  0
 51 48  2  0  0  0  0
 52 49  1  0  0  0  0
 52 45  1  1  0  0  0
 53 49  1  0  0  0  0
 56 55  2  0  0  0  0
 56 54  1  0  0  0  0
 57 62  1  6  0  0  0
 57  5  1  0  0  0  0
 58 61  1  0  0  0  0
 58 60  1  0  0  0  0
 58 57  1  1  0  0  0
 59 61  2  0  0  0  0
 61 60  1  0  0  0  0
 62 63  1  0  0  0  0
 64 62  2  0  0  0  0
M  END
>  <MODEL>
9

>  <REMARK>
 VINA RESULT:      -5.1      2.691      7.800
  Name = 
  22 active torsions:
  status: ('A' for Active; 'I' for Inactive)
    1  A    between atoms: C_3  and  C_10
    2  A    between atoms: C_4  and  N_17
    3  A    between atoms: N_5  and  C_6
    4  A    between atoms: N_5  and  C_54
    5  A    between atoms: N_5  and  C_61
    6  A    between atoms: C_8  and  C_38
    7  A    between atoms: C_9  and  C_38
    8  A    between atoms: C_12  and  C_19
    9  A    between atoms: C_12  and  C_61
   10  A    between atoms: C_13  and  O_39
   11  A    between atoms: C_19  and  O_39
   12  A    between atoms: C_20  and  C_53
   13  A    between atoms: C_21  and  C_38
   14  A    between atoms: C_25  and  C_54
   15  A    between atoms: C_30  and  C_33
   16  A    between atoms: C_30  and  C_58
   17  A    between atoms: C_32  and  C_42
   18  A    between atoms: C_37  and  O_46
   19  A    between atoms: C_42  and  C_56
   20  A    between atoms: O_46  and  S_63
   21  A    between atoms: C_50  and  C_56
   22  A    between atoms: C_51  and  S_63
                            x       y       z     vdW  Elec       q    Type
                         _______ _______ _______ _____ _____    ______ ____

>  <TORSDO>
F 22

$$$$
