=
 OpenBabel10222415343D

 54 56  0  0  1  0  0  0  0  0999 V2000
  186.0420  177.9220  146.0170 C   0  0  0  0  0  2  0  0  0  0  0  0
  187.9860  177.8920  141.9480 N   0  0  0  0  0  0  0  0  0  0  0  0
  185.5840  178.2910  144.8240 C   0  0  0  0  0  0  0  0  0  0  0  0
  189.1640  177.4480  141.4390 C   0  0  0  0  0  0  0  0  0  0  0  0
  188.4090  177.1600  145.6340 C   0  0  0  0  0  3  0  0  0  0  0  0
  189.8210  176.7810  143.6610 C   0  0  0  0  0  0  0  0  0  0  0  0
  186.3570  178.2900  143.6200 N   0  0  0  0  0  0  0  0  0  0  0  0
  187.6580  177.8110  143.2670 C   0  0  0  0  0  0  0  0  0  0  0  0
  190.0980  176.8770  142.3000 C   0  0  0  0  0  3  0  0  0  0  0  0
  188.5910  177.2540  144.1760 C   0  0  0  0  0  0  0  0  0  0  0  0
  187.3630  177.4360  146.3980 C   0  0  0  0  0  3  0  0  0  0  0  0
  183.5610  179.0540  145.7790 O   0  0  0  0  0  0  0  0  0  0  0  0
  184.1820  178.7360  144.7290 C   0  0  0  0  0  0  0  0  0  0  0  0
  183.5260  178.8120  143.4590 N   0  0  0  0  0  2  0  0  0  0  0  0
  182.1950  179.3770  143.2920 C   0  0  0  0  0  2  0  0  0  0  0  0
  181.3730  178.5240  142.3400 C   0  0  0  0  0  2  0  0  0  0  0  0
  180.2460  179.5780  141.3780 S   0  0  0  0  0  0  0  0  0  0  0  0
  181.1620  180.4120  139.0070 N   0  0  0  0  0  2  0  0  0  0  0  0
  182.1570  178.3940  139.7430 N   0  0  0  0  0  2  0  0  0  0  0  0
  181.2800  179.5080  139.9240 C   0  0  0  0  0  0  0  0  0  0  0  0
  184.4660  179.0330  139.0920 C   0  0  0  0  0  0  0  0  0  0  0  0
  184.7130  179.5850  140.3430 O   0  0  0  0  0  1  0  0  0  0  0  0
  185.3600  179.0890  138.2070 O   0  0  0  0  0  0  0  0  0  0  0  0
  183.2160  178.3760  138.8180 N   0  0  0  0  0  0  0  0  0  0  0  0
  183.0660  177.5560  137.6230 C   0  0  0  0  0  2  0  0  0  0  0  0
  181.4390  175.9300  137.0080 O   0  0  0  0  0  1  0  0  0  0  0  0
  182.4010  176.2360  137.9710 C   0  0  1  0  0  3  0  0  0  0  0  0
  183.4330  175.1180  138.0370 C   0  0  0  0  0  2  0  0  0  0  0  0
  182.9340  173.8720  137.3100 C   0  0  0  0  0  2  0  0  0  0  0  0
  183.6860  171.6020  136.9050 C   0  0  0  0  0  0  0  0  0  0  0  0
  183.3810  170.4250  136.6750 O   0  0  0  0  0  0  0  0  0  0  0  0
  184.0110  172.8430  137.1460 C   0  0  0  0  0  0  0  0  0  0  0  0
  185.4580  173.2200  137.1420 C   0  0  0  0  0  2  0  0  0  0  0  0
  186.1240  172.6680  136.0470 O   0  0  0  0  0  1  0  0  0  0  0  0
  189.4440  177.5630  139.9880 C   0  0  0  0  0  0  0  0  0  0  0  0
  188.5490  178.1980  139.2120 C   0  0  0  0  0  3  0  0  0  0  0  0
  193.0690  175.9660  138.3510 C   0  0  0  0  0  0  0  0  0  0  0  0
  190.6930  176.9920  139.4440 C   0  0  0  0  0  0  0  0  0  0  0  0
  191.9240  177.5850  139.7530 C   0  0  0  0  0  3  0  0  0  0  0  0
  191.8380  175.3810  138.0350 C   0  0  0  0  0  3  0  0  0  0  0  0
  190.6540  175.8930  138.5750 C   0  0  0  0  0  3  0  0  0  0  0  0
  193.1070  177.0730  139.2140 C   0  0  0  0  0  3  0  0  0  0  0  0
  194.2670  175.4230  137.7880 N   0  0  0  0  0  2  0  0  0  0  0  0
  194.8440  174.1480  138.1960 C   0  0  0  0  0  2  0  0  0  0  0  0
  196.1690  174.3660  138.8430 C   0  0  0  0  0  0  0  0  0  0  0  0
  197.1950  173.8040  138.3810 O   0  0  0  0  0  0  0  0  0  0  0  0
  196.2670  175.1700  139.9710 O   0  0  0  0  0  1  0  0  0  0  0  0
  188.5930  178.3730  137.7480 C   0  0  0  0  0  0  0  0  0  0  0  0
  189.0580  179.4170  137.2200 O   0  0  0  0  0  0  0  0  0  0  0  0
  188.1190  177.3230  136.9140 N   0  0  0  0  0  1  0  0  0  0  0  0
  190.8510  176.1290  144.5320 C   0  0  0  0  0  2  0  0  0  0  0  0
  191.9500  176.9270  146.4930 O   0  0  0  0  0  1  0  0  0  0  0  0
  191.8830  178.3890  144.7290 O   0  0  0  0  0  0  0  0  0  0  0  0
  191.6030  177.1580  145.3050 C   0  0  0  0  0  0  0  0  0  0  0  0
  1 11  1  0  0  0  0
  2  8  2  0  0  0  0
  3  1  1  0  0  0  0
  4  2  1  0  0  0  0
  4  9  2  0  0  0  0
  5 11  2  0  0  0  0
  6 10  2  0  0  0  0
  6 51  1  0  0  0  0
  7  3  2  0  0  0  0
  8  7  1  0  0  0  0
  8 10  1  0  0  0  0
  9  6  1  0  0  0  0
 10  5  1  0  0  0  0
 13  3  1  0  0  0  0
 13 12  2  0  0  0  0
 14 13  1  0  0  0  0
 15 14  1  0  0  0  0
 16 15  1  0  0  0  0
 17 16  1  0  0  0  0
 18 20  2  0  0  0  0
 19 20  1  0  0  0  0
 20 17  1  0  0  0  0
 21 22  1  0  0  0  0
 23 21  2  0  0  0  0
 24 21  1  0  0  0  0
 24 19  1  0  0  0  0
 25 27  1  0  0  0  0
 25 24  1  0  0  0  0
 27 26  1  6  0  0  0
 27 28  1  0  0  0  0
 29 28  1  0  0  0  0
 30 32  2  0  0  0  0
 31 30  2  0  0  0  0
 32 29  1  0  0  0  0
 33 32  1  0  0  0  0
 34 33  1  0  0  0  0
 35  4  1  0  0  0  0
 36 35  2  0  0  0  0
 37 42  1  0  0  0  0
 38 39  1  0  0  0  0
 38 35  1  0  0  0  0
 40 37  2  0  0  0  0
 40 41  1  0  0  0  0
 41 38  2  0  0  0  0
 42 39  2  0  0  0  0
 43 44  1  0  0  0  0
 43 37  1  0  0  0  0
 44 45  1  0  0  0  0
 45 47  1  0  0  0  0
 46 45  2  0  0  0  0
 48 36  1  0  0  0  0
 49 48  2  0  0  0  0
 50 48  1  0  0  0  0
 51 54  1  0  0  0  0
 53 54  2  0  0  0  0
 54 52  1  0  0  0  0
M  END
>  <MODEL>
1

>  <REMARK>
 VINA RESULT:      -8.4      0.000      0.000
  Name = 
  20 active torsions:
  status: ('A' for Active; 'I' for Inactive)
    1  A    between atoms: C_2  and  C_27
    2  A    between atoms: C_2  and  C_54
    3  A    between atoms: C_4  and  C_48
    4  A    between atoms: C_5  and  C_52
    5  A    between atoms: C_6  and  C_50
    6  A    between atoms: C_8  and  N_13
    7  A    between atoms: C_9  and  C_25
    8  A    between atoms: C_12  and  C_25
    9  A    between atoms: N_13  and  C_52
   10  A    between atoms: C_16  and  C_19
   11  A    between atoms: C_16  and  C_37
   12  A    between atoms: N_17  and  N_51
   13  A    between atoms: C_18  and  C_46
   14  A    between atoms: C_18  and  N_51
   15  A    between atoms: C_19  and  C_46
   16  A    between atoms: S_20  and  C_35
   17  A    between atoms: S_20  and  C_41
   18  A    between atoms: C_26  and  C_37
   19  A    between atoms: C_41  and  C_49
   20  A    between atoms: C_49  and  N_53
                            x       y       z     vdW  Elec       q    Type
                         _______ _______ _______ _____ _____    ______ ____

>  <TORSDO>
F 20

$$$$
=
 OpenBabel10222415343D

 54 56  0  0  1  0  0  0  0  0999 V2000
  185.9730  177.9130  145.9510 C   0  0  0  0  0  2  0  0  0  0  0  0
  187.8850  177.9190  141.8680 N   0  0  0  0  0  0  0  0  0  0  0  0
  185.5010  178.2790  144.7630 C   0  0  0  0  0  0  0  0  0  0  0  0
  189.0660  177.4920  141.3480 C   0  0  0  0  0  0  0  0  0  0  0  0
  188.3470  177.1820  145.5480 C   0  0  0  0  0  3  0  0  0  0  0  0
  189.7480  176.8270  143.5630 C   0  0  0  0  0  0  0  0  0  0  0  0
  186.2650  178.2920  143.5530 N   0  0  0  0  0  0  0  0  0  0  0  0
  187.5690  177.8300  143.1890 C   0  0  0  0  0  0  0  0  0  0  0  0
  190.0130  176.9300  142.2000 C   0  0  0  0  0  3  0  0  0  0  0  0
  188.5160  177.2830  144.0890 C   0  0  0  0  0  0  0  0  0  0  0  0
  187.3030  177.4420  146.3210 C   0  0  0  0  0  3  0  0  0  0  0  0
  183.5010  179.0940  145.7240 O   0  0  0  0  0  0  0  0  0  0  0  0
  184.0930  178.7060  144.6800 C   0  0  0  0  0  0  0  0  0  0  0  0
  183.3980  178.6880  143.4290 N   0  0  0  0  0  2  0  0  0  0  0  0
  182.0570  179.2310  143.2640 C   0  0  0  0  0  2  0  0  0  0  0  0
  181.4750  178.8040  141.9260 C   0  0  0  0  0  2  0  0  0  0  0  0
  182.8150  178.3570  140.7800 S   0  0  0  0  0  0  0  0  0  0  0  0
  180.6300  176.9590  140.1300 N   0  0  0  0  0  2  0  0  0  0  0  0
  182.0550  177.3860  138.2880 N   0  0  0  0  0  2  0  0  0  0  0  0
  181.6990  177.5180  139.6660 C   0  0  0  0  0  0  0  0  0  0  0  0
  180.9580  175.6550  136.8860 C   0  0  0  0  0  0  0  0  0  0  0  0
  181.5720  174.6290  137.5960 O   0  0  0  0  0  1  0  0  0  0  0  0
  180.2150  175.3700  135.9110 O   0  0  0  0  0  0  0  0  0  0  0  0
  181.1450  177.0260  137.2780 N   0  0  0  0  0  0  0  0  0  0  0  0
  180.2890  178.0690  136.7280 C   0  0  0  0  0  2  0  0  0  0  0  0
  181.7510  178.4890  134.8970 O   0  0  0  0  0  1  0  0  0  0  0  0
  181.1230  179.0960  135.9850 C   0  0  1  0  0  3  0  0  0  0  0  0
  180.2490  180.2430  135.4960 C   0  0  0  0  0  2  0  0  0  0  0  0
  179.6920  181.0440  136.6690 C   0  0  0  0  0  2  0  0  0  0  0  0
  180.9970  183.0880  136.7360 C   0  0  0  0  0  0  0  0  0  0  0  0
  181.2550  184.1810  136.2160 O   0  0  0  0  0  0  0  0  0  0  0  0
  180.7260  181.9360  137.2870 C   0  0  0  0  0  0  0  0  0  0  0  0
  181.3810  181.5890  138.5860 C   0  0  0  0  0  2  0  0  0  0  0  0
  182.6700  182.1200  138.6620 O   0  0  0  0  0  1  0  0  0  0  0  0
  189.3320  177.6140  139.8950 C   0  0  0  0  0  0  0  0  0  0  0  0
  188.4190  178.2320  139.1270 C   0  0  0  0  0  3  0  0  0  0  0  0
  192.9770  175.9760  138.3470 C   0  0  0  0  0  0  0  0  0  0  0  0
  190.5890  177.0700  139.3420 C   0  0  0  0  0  0  0  0  0  0  0  0
  190.5540  175.9580  138.4900 C   0  0  0  0  0  3  0  0  0  0  0  0
  193.0130  177.0800  139.2050 C   0  0  0  0  0  3  0  0  0  0  0  0
  191.8250  177.6230  139.7050 C   0  0  0  0  0  3  0  0  0  0  0  0
  191.7400  175.4160  137.9900 C   0  0  0  0  0  3  0  0  0  0  0  0
  194.2060  175.4390  137.8470 N   0  0  0  0  0  2  0  0  0  0  0  0
  194.3820  174.0410  137.4720 C   0  0  0  0  0  2  0  0  0  0  0  0
  195.3330  173.9300  136.3300 C   0  0  0  0  0  0  0  0  0  0  0  0
  195.0510  173.2030  135.3430 O   0  0  0  0  0  0  0  0  0  0  0  0
  196.5440  174.6090  136.3670 O   0  0  0  0  0  1  0  0  0  0  0  0
  188.4500  178.4100  137.6630 C   0  0  0  0  0  0  0  0  0  0  0  0
  188.9820  179.4180  137.1290 O   0  0  0  0  0  0  0  0  0  0  0  0
  187.8820  177.4030  136.8350 N   0  0  0  0  0  1  0  0  0  0  0  0
  190.7930  176.1850  144.4240 C   0  0  0  0  0  2  0  0  0  0  0  0
  191.8850  178.2980  144.6100 O   0  0  0  0  0  0  0  0  0  0  0  0
  191.9330  176.9860  146.4890 O   0  0  0  0  0  1  0  0  0  0  0  0
  191.5540  177.2230  145.1760 C   0  0  0  0  0  0  0  0  0  0  0  0
  1 11  1  0  0  0  0
  2  8  2  0  0  0  0
  3  1  1  0  0  0  0
  4  2  1  0  0  0  0
  4  9  2  0  0  0  0
  5 11  2  0  0  0  0
  6 10  2  0  0  0  0
  6 51  1  0  0  0  0
  7  3  2  0  0  0  0
  8  7  1  0  0  0  0
  8 10  1  0  0  0  0
  9  6  1  0  0  0  0
 10  5  1  0  0  0  0
 13  3  1  0  0  0  0
 13 12  2  0  0  0  0
 14 13  1  0  0  0  0
 15 14  1  0  0  0  0
 16 15  1  0  0  0  0
 17 16  1  0  0  0  0
 19 20  1  0  0  0  0
 20 18  2  0  0  0  0
 20 17  1  0  0  0  0
 21 24  1  0  0  0  0
 21 22  1  0  0  0  0
 23 21  2  0  0  0  0
 24 19  1  0  0  0  0
 25 24  1  0  0  0  0
 27 26  1  6  0  0  0
 27 25  1  0  0  0  0
 28 27  1  0  0  0  0
 28 29  1  0  0  0  0
 29 32  1  0  0  0  0
 30 32  2  0  0  0  0
 31 30  2  0  0  0  0
 32 33  1  0  0  0  0
 33 34  1  0  0  0  0
 35  4  1  0  0  0  0
 36 35  2  0  0  0  0
 37 40  1  0  0  0  0
 38 41  1  0  0  0  0
 38 35  1  0  0  0  0
 39 38  2  0  0  0  0
 40 41  2  0  0  0  0
 42 37  2  0  0  0  0
 42 39  1  0  0  0  0
 43 37  1  0  0  0  0
 44 43  1  0  0  0  0
 45 47  1  0  0  0  0
 45 44  1  0  0  0  0
 46 45  2  0  0  0  0
 48 36  1  0  0  0  0
 49 48  2  0  0  0  0
 50 48  1  0  0  0  0
 51 54  1  0  0  0  0
 52 54  2  0  0  0  0
 54 53  1  0  0  0  0
M  END
>  <MODEL>
2

>  <REMARK>
 VINA RESULT:      -7.5      2.086      4.274
  Name = 
  20 active torsions:
  status: ('A' for Active; 'I' for Inactive)
    1  A    between atoms: C_2  and  C_27
    2  A    between atoms: C_2  and  C_54
    3  A    between atoms: C_4  and  C_48
    4  A    between atoms: C_5  and  C_52
    5  A    between atoms: C_6  and  C_50
    6  A    between atoms: C_8  and  N_13
    7  A    between atoms: C_9  and  C_25
    8  A    between atoms: C_12  and  C_25
    9  A    between atoms: N_13  and  C_52
   10  A    between atoms: C_16  and  C_19
   11  A    between atoms: C_16  and  C_37
   12  A    between atoms: N_17  and  N_51
   13  A    between atoms: C_18  and  C_46
   14  A    between atoms: C_18  and  N_51
   15  A    between atoms: C_19  and  C_46
   16  A    between atoms: S_20  and  C_35
   17  A    between atoms: S_20  and  C_41
   18  A    between atoms: C_26  and  C_37
   19  A    between atoms: C_41  and  C_49
   20  A    between atoms: C_49  and  N_53
                            x       y       z     vdW  Elec       q    Type
                         _______ _______ _______ _____ _____    ______ ____

>  <TORSDO>
F 20

$$$$
=
 OpenBabel10222415343D

 54 56  0  0  1  0  0  0  0  0999 V2000
  186.2190  177.9210  145.9310 C   0  0  0  0  0  2  0  0  0  0  0  0
  187.7810  177.8150  141.7020 N   0  0  0  0  0  0  0  0  0  0  0  0
  185.6430  178.2410  144.7750 C   0  0  0  0  0  0  0  0  0  0  0  0
  188.9200  177.3860  141.0990 C   0  0  0  0  0  0  0  0  0  0  0  0
  188.5620  177.2090  145.3520 C   0  0  0  0  0  3  0  0  0  0  0  0
  189.7960  176.8050  143.2680 C   0  0  0  0  0  0  0  0  0  0  0  0
  186.3020  178.2230  143.5060 N   0  0  0  0  0  0  0  0  0  0  0  0
  187.5790  177.7670  143.0480 C   0  0  0  0  0  0  0  0  0  0  0  0
  189.9450  176.8660  141.8860 C   0  0  0  0  0  3  0  0  0  0  0  0
  188.6060  177.2620  143.8810 C   0  0  0  0  0  0  0  0  0  0  0  0
  187.5830  177.4810  146.2020 C   0  0  0  0  0  3  0  0  0  0  0  0
  183.7210  179.0730  145.8720 O   0  0  0  0  0  0  0  0  0  0  0  0
  184.2270  178.6470  144.7990 C   0  0  0  0  0  0  0  0  0  0  0  0
  183.4260  178.5640  143.6150 N   0  0  0  0  0  2  0  0  0  0  0  0
  182.0670  179.0820  143.5450 C   0  0  0  0  0  2  0  0  0  0  0  0
  181.5410  178.9970  142.1220 C   0  0  0  0  0  2  0  0  0  0  0  0
  179.8210  179.5870  142.0590 S   0  0  0  0  0  0  0  0  0  0  0  0
  178.9310  180.0490  139.5800 N   0  0  0  0  0  2  0  0  0  0  0  0
  180.3570  178.1660  139.7300 N   0  0  0  0  0  2  0  0  0  0  0  0
  179.6930  179.2950  140.3020 C   0  0  0  0  0  0  0  0  0  0  0  0
  181.6050  178.7450  137.6640 C   0  0  0  0  0  0  0  0  0  0  0  0
  182.5020  179.5340  138.3740 O   0  0  0  0  0  1  0  0  0  0  0  0
  181.7160  178.6610  136.4130 O   0  0  0  0  0  0  0  0  0  0  0  0
  180.5790  178.0070  138.3510 N   0  0  0  0  0  0  0  0  0  0  0  0
  179.8320  176.9680  137.6540 C   0  0  0  0  0  2  0  0  0  0  0  0
  179.3420  174.9750  138.8600 O   0  0  0  0  0  1  0  0  0  0  0  0
  180.3180  175.5950  138.0790 C   0  0  1  0  0  3  0  0  0  0  0  0
  180.6200  174.7330  136.8610 C   0  0  0  0  0  2  0  0  0  0  0  0
  181.8610  175.2370  136.1300 C   0  0  0  0  0  2  0  0  0  0  0  0
  183.8270  175.8850  137.3950 C   0  0  0  0  0  0  0  0  0  0  0  0
  184.4940  176.8000  137.8950 O   0  0  0  0  0  0  0  0  0  0  0  0
  183.1240  174.9180  136.8710 C   0  0  0  0  0  0  0  0  0  0  0  0
  183.5480  173.5050  137.1200 C   0  0  0  0  0  2  0  0  0  0  0  0
  183.9410  172.8770  135.9370 O   0  0  0  0  0  1  0  0  0  0  0  0
  189.0620  177.4630  139.6250 C   0  0  0  0  0  0  0  0  0  0  0  0
  188.1920  178.2230  138.9380 C   0  0  0  0  0  3  0  0  0  0  0  0
  192.2290  175.2530  137.7670 C   0  0  0  0  0  0  0  0  0  0  0  0
  190.1540  176.7200  138.9630 C   0  0  0  0  0  0  0  0  0  0  0  0
  189.8640  175.5670  138.2210 C   0  0  0  0  0  3  0  0  0  0  0  0
  192.5180  176.3980  138.5160 C   0  0  0  0  0  3  0  0  0  0  0  0
  191.4860  177.1270  139.1170 C   0  0  0  0  0  3  0  0  0  0  0  0
  190.8950  174.8400  137.6220 C   0  0  0  0  0  3  0  0  0  0  0  0
  193.3010  174.5240  137.1610 N   0  0  0  0  0  2  0  0  0  0  0  0
  194.7080  174.8600  137.3420 C   0  0  0  0  0  2  0  0  0  0  0  0
  195.2700  175.4180  136.0790 C   0  0  0  0  0  0  0  0  0  0  0  0
  196.5070  175.3550  135.8580 O   0  0  0  0  0  1  0  0  0  0  0  0
  194.4320  176.0300  135.1570 O   0  0  0  0  0  0  0  0  0  0  0  0
  188.1100  178.3930  137.4750 C   0  0  0  0  0  0  0  0  0  0  0  0
  187.4360  177.6120  136.7540 O   0  0  0  0  0  0  0  0  0  0  0  0
  188.7950  179.4820  136.8690 N   0  0  0  0  0  1  0  0  0  0  0  0
  190.9210  176.2070  144.0590 C   0  0  0  0  0  2  0  0  0  0  0  0
  191.9160  177.0460  146.0570 O   0  0  0  0  0  1  0  0  0  0  0  0
  191.8870  178.4920  144.2790 O   0  0  0  0  0  0  0  0  0  0  0  0
  191.6130  177.2600  144.8540 C   0  0  0  0  0  0  0  0  0  0  0  0
  1 11  1  0  0  0  0
  2  8  2  0  0  0  0
  3 13  1  0  0  0  0
  3  1  1  0  0  0  0
  4  2  1  0  0  0  0
  4  9  2  0  0  0  0
  5 11  2  0  0  0  0
  6 10  2  0  0  0  0
  6 51  1  0  0  0  0
  7  3  2  0  0  0  0
  8  7  1  0  0  0  0
  8 10  1  0  0  0  0
  9  6  1  0  0  0  0
 10  5  1  0  0  0  0
 13 12  2  0  0  0  0
 14 13  1  0  0  0  0
 15 14  1  0  0  0  0
 16 15  1  0  0  0  0
 17 16  1  0  0  0  0
 18 20  2  0  0  0  0
 19 20  1  0  0  0  0
 20 17  1  0  0  0  0
 21 24  1  0  0  0  0
 21 22  1  0  0  0  0
 23 21  2  0  0  0  0
 24 19  1  0  0  0  0
 25 27  1  0  0  0  0
 25 24  1  0  0  0  0
 27 26  1  1  0  0  0
 28 27  1  0  0  0  0
 29 28  1  0  0  0  0
 29 32  1  0  0  0  0
 30 31  2  0  0  0  0
 32 33  1  0  0  0  0
 32 30  2  0  0  0  0
 34 33  1  0  0  0  0
 35  4  1  0  0  0  0
 36 35  2  0  0  0  0
 37 40  1  0  0  0  0
 38 41  1  0  0  0  0
 38 35  1  0  0  0  0
 39 38  2  0  0  0  0
 40 41  2  0  0  0  0
 42 37  2  0  0  0  0
 42 39  1  0  0  0  0
 43 44  1  0  0  0  0
 43 37  1  0  0  0  0
 45 44  1  0  0  0  0
 46 45  1  0  0  0  0
 47 45  2  0  0  0  0
 48 36  1  0  0  0  0
 49 48  2  0  0  0  0
 50 48  1  0  0  0  0
 51 54  1  0  0  0  0
 53 54  2  0  0  0  0
 54 52  1  0  0  0  0
M  END
>  <MODEL>
3

>  <REMARK>
 VINA RESULT:      -7.2      1.625      2.205
  Name = 
  20 active torsions:
  status: ('A' for Active; 'I' for Inactive)
    1  A    between atoms: C_2  and  C_27
    2  A    between atoms: C_2  and  C_54
    3  A    between atoms: C_4  and  C_48
    4  A    between atoms: C_5  and  C_52
    5  A    between atoms: C_6  and  C_50
    6  A    between atoms: C_8  and  N_13
    7  A    between atoms: C_9  and  C_25
    8  A    between atoms: C_12  and  C_25
    9  A    between atoms: N_13  and  C_52
   10  A    between atoms: C_16  and  C_19
   11  A    between atoms: C_16  and  C_37
   12  A    between atoms: N_17  and  N_51
   13  A    between atoms: C_18  and  C_46
   14  A    between atoms: C_18  and  N_51
   15  A    between atoms: C_19  and  C_46
   16  A    between atoms: S_20  and  C_35
   17  A    between atoms: S_20  and  C_41
   18  A    between atoms: C_26  and  C_37
   19  A    between atoms: C_41  and  C_49
   20  A    between atoms: C_49  and  N_53
                            x       y       z     vdW  Elec       q    Type
                         _______ _______ _______ _____ _____    ______ ____

>  <TORSDO>
F 20

$$$$
=
 OpenBabel10222415343D

 54 56  0  0  1  0  0  0  0  0999 V2000
  185.2560  178.4310  144.9510 C   0  0  0  0  0  2  0  0  0  0  0  0
  183.7530  177.9170  140.7320 N   0  0  0  0  0  0  0  0  0  0  0  0
  185.8530  177.9630  143.8590 C   0  0  0  0  0  0  0  0  0  0  0  0
  182.6160  178.2380  140.0610 C   0  0  0  0  0  0  0  0  0  0  0  0
  182.9110  179.0150  144.2510 C   0  0  0  0  0  3  0  0  0  0  0  0
  181.7000  179.1020  142.1160 C   0  0  0  0  0  0  0  0  0  0  0  0
  185.2120  177.7910  142.5930 N   0  0  0  0  0  0  0  0  0  0  0  0
  183.9350  178.1570  142.0600 C   0  0  0  0  0  0  0  0  0  0  0  0
  181.5720  178.8450  140.7550 C   0  0  0  0  0  3  0  0  0  0  0  0
  182.8880  178.7560  142.8020 C   0  0  0  0  0  0  0  0  0  0  0  0
  183.8820  178.8820  145.1420 C   0  0  0  0  0  3  0  0  0  0  0  0
  187.7590  176.7720  143.1260 O   0  0  0  0  0  0  0  0  0  0  0  0
  187.2750  177.5880  143.9560 C   0  0  0  0  0  0  0  0  0  0  0  0
  188.1070  178.1460  144.9800 N   0  0  0  0  0  2  0  0  0  0  0  0
  189.5440  177.9210  145.0360 C   0  0  0  0  0  2  0  0  0  0  0  0
  190.2330  178.6090  143.8690 C   0  0  0  0  0  2  0  0  0  0  0  0
  191.6980  177.6560  143.3630 S   0  0  0  0  0  0  0  0  0  0  0  0
  190.3200  175.8590  141.9410 N   0  0  0  0  0  2  0  0  0  0  0  0
  190.9660  177.7590  140.6830 N   0  0  0  0  0  2  0  0  0  0  0  0
  190.8880  177.0200  141.9040 C   0  0  0  0  0  0  0  0  0  0  0  0
  188.7480  177.9100  139.5760 C   0  0  0  0  0  0  0  0  0  0  0  0
  188.2270  178.6590  140.6250 O   0  0  0  0  0  1  0  0  0  0  0  0
  188.0010  177.5960  138.6130 O   0  0  0  0  0  0  0  0  0  0  0  0
  190.1340  177.5230  139.5740 N   0  0  0  0  0  0  0  0  0  0  0  0
  190.7460  176.9960  138.3610 C   0  0  0  0  0  2  0  0  0  0  0  0
  191.3560  174.7170  138.0370 O   0  0  0  0  0  1  0  0  0  0  0  0
  191.7230  175.8870  138.7050 C   0  0  1  0  0  3  0  0  0  0  0  0
  193.1390  176.2790  138.3060 C   0  0  0  0  0  2  0  0  0  0  0  0
  193.6790  175.3490  137.2230 C   0  0  0  0  0  2  0  0  0  0  0  0
  195.4520  174.6420  138.7200 C   0  0  0  0  0  0  0  0  0  0  0  0
  196.2490  174.9490  139.6150 O   0  0  0  0  0  0  0  0  0  0  0  0
  194.6100  174.3140  137.7770 C   0  0  0  0  0  0  0  0  0  0  0  0
  194.5280  172.8820  137.3540 C   0  0  0  0  0  2  0  0  0  0  0  0
  193.4920  172.6810  136.4400 O   0  0  0  0  0  1  0  0  0  0  0  0
  182.4960  177.9530  138.6110 C   0  0  0  0  0  0  0  0  0  0  0  0
  181.6190  178.6710  137.8880 C   0  0  0  0  0  3  0  0  0  0  0  0
  185.0040  174.9140  136.9270 C   0  0  0  0  0  0  0  0  0  0  0  0
  183.3470  176.9080  138.0060 C   0  0  0  0  0  0  0  0  0  0  0  0
  183.0590  175.5560  138.2300 C   0  0  0  0  0  3  0  0  0  0  0  0
  185.2980  176.2640  136.7120 C   0  0  0  0  0  3  0  0  0  0  0  0
  184.4760  177.2590  137.2520 C   0  0  0  0  0  3  0  0  0  0  0  0
  183.8790  174.5630  137.6890 C   0  0  0  0  0  3  0  0  0  0  0  0
  185.8590  173.9140  136.3620 N   0  0  0  0  0  2  0  0  0  0  0  0
  186.2500  172.6980  137.0650 C   0  0  0  0  0  2  0  0  0  0  0  0
  187.6710  172.3630  136.7620 C   0  0  0  0  0  0  0  0  0  0  0  0
  187.9780  171.2020  136.3860 O   0  0  0  0  0  0  0  0  0  0  0  0
  188.6600  173.3250  136.9180 O   0  0  0  0  0  1  0  0  0  0  0  0
  181.2950  178.5160  136.4580 C   0  0  0  0  0  0  0  0  0  0  0  0
  181.3550  179.4850  135.6560 O   0  0  0  0  0  0  0  0  0  0  0  0
  180.9260  177.2320  135.9700 N   0  0  0  0  0  1  0  0  0  0  0  0
  180.5560  179.7860  142.8020 C   0  0  0  0  0  2  0  0  0  0  0  0
  179.3200  181.5290  141.7410 O   0  0  0  0  0  1  0  0  0  0  0  0
  178.9310  179.4130  140.9500 O   0  0  0  0  0  0  0  0  0  0  0  0
  179.5810  180.2980  141.7970 C   0  0  0  0  0  0  0  0  0  0  0  0
  1 11  1  0  0  0  0
  2  8  2  0  0  0  0
  3 13  1  0  0  0  0
  3  1  1  0  0  0  0
  4  2  1  0  0  0  0
  4  9  2  0  0  0  0
  5 11  2  0  0  0  0
  6 10  2  0  0  0  0
  6 51  1  0  0  0  0
  7  3  2  0  0  0  0
  8  7  1  0  0  0  0
  8 10  1  0  0  0  0
  9  6  1  0  0  0  0
 10  5  1  0  0  0  0
 12 13  2  0  0  0  0
 13 14  1  0  0  0  0
 14 15  1  0  0  0  0
 16 15  1  0  0  0  0
 17 16  1  0  0  0  0
 19 20  1  0  0  0  0
 20 18  2  0  0  0  0
 20 17  1  0  0  0  0
 21 22  1  0  0  0  0
 23 21  2  0  0  0  0
 24 21  1  0  0  0  0
 24 19  1  0  0  0  0
 25 27  1  0  0  0  0
 25 24  1  0  0  0  0
 27 26  1  6  0  0  0
 28 27  1  0  0  0  0
 29 32  1  0  0  0  0
 29 28  1  0  0  0  0
 30 31  2  0  0  0  0
 32 30  2  0  0  0  0
 33 32  1  0  0  0  0
 34 33  1  0  0  0  0
 35  4  1  0  0  0  0
 36 35  2  0  0  0  0
 37 42  1  0  0  0  0
 38 39  1  0  0  0  0
 38 35  1  0  0  0  0
 40 37  2  0  0  0  0
 40 41  1  0  0  0  0
 41 38  2  0  0  0  0
 42 39  2  0  0  0  0
 43 37  1  0  0  0  0
 43 44  1  0  0  0  0
 45 47  1  0  0  0  0
 45 44  1  0  0  0  0
 46 45  2  0  0  0  0
 48 36  1  0  0  0  0
 49 48  2  0  0  0  0
 50 48  1  0  0  0  0
 52 54  1  0  0  0  0
 53 54  2  0  0  0  0
 54 51  1  0  0  0  0
M  END
>  <MODEL>
4

>  <REMARK>
 VINA RESULT:      -7.0      2.940      8.444
  Name = 
  20 active torsions:
  status: ('A' for Active; 'I' for Inactive)
    1  A    between atoms: C_2  and  C_27
    2  A    between atoms: C_2  and  C_54
    3  A    between atoms: C_4  and  C_48
    4  A    between atoms: C_5  and  C_52
    5  A    between atoms: C_6  and  C_50
    6  A    between atoms: C_8  and  N_13
    7  A    between atoms: C_9  and  C_25
    8  A    between atoms: C_12  and  C_25
    9  A    between atoms: N_13  and  C_52
   10  A    between atoms: C_16  and  C_19
   11  A    between atoms: C_16  and  C_37
   12  A    between atoms: N_17  and  N_51
   13  A    between atoms: C_18  and  C_46
   14  A    between atoms: C_18  and  N_51
   15  A    between atoms: C_19  and  C_46
   16  A    between atoms: S_20  and  C_35
   17  A    between atoms: S_20  and  C_41
   18  A    between atoms: C_26  and  C_37
   19  A    between atoms: C_41  and  C_49
   20  A    between atoms: C_49  and  N_53
                            x       y       z     vdW  Elec       q    Type
                         _______ _______ _______ _____ _____    ______ ____

>  <TORSDO>
F 20

$$$$
=
 OpenBabel10222415343D

 54 56  0  0  1  0  0  0  0  0999 V2000
  190.7360  177.4910  139.0780 C   0  0  0  0  0  3  0  0  0  0  0  0
  187.8190  178.0250  142.4740 N   0  0  0  0  0  0  0  0  0  0  0  0
  189.4280  177.7330  139.0800 C   0  0  0  0  0  0  0  0  0  0  0  0
  187.9080  178.0970  143.8280 C   0  0  0  0  0  0  0  0  0  0  0  0
  191.4040  177.3230  141.4980 C   0  0  0  0  0  3  0  0  0  0  0  0
  190.2800  177.7090  143.6470 C   0  0  0  0  0  0  0  0  0  0  0  0
  188.6170  177.8050  140.2560 N   0  0  0  0  0  2  0  0  0  0  0  0
  188.8890  177.8090  141.6610 C   0  0  0  0  0  0  0  0  0  0  0  0
  189.1550  177.9450  144.4300 C   0  0  0  0  0  3  0  0  0  0  0  0
  190.1690  177.6300  142.2390 C   0  0  0  0  0  0  0  0  0  0  0  0
  191.6430  177.2620  140.1970 C   0  0  0  0  0  3  0  0  0  0  0  0
  188.0000  178.9320  137.6270 O   0  0  0  0  0  0  0  0  0  0  0  0
  188.7620  177.9390  137.7820 C   0  0  0  0  0  0  0  0  0  0  0  0
  188.9750  177.0250  136.7010 N   0  0  0  0  0  2  0  0  0  0  0  0
  188.4570  177.2560  135.3600 C   0  0  0  0  0  2  0  0  0  0  0  0
  187.4670  176.1670  134.9800 C   0  0  0  0  0  2  0  0  0  0  0  0
  185.7930  176.8670  134.8520 S   0  0  0  0  0  0  0  0  0  0  0  0
  185.8210  174.5940  136.2610 N   0  0  0  0  0  2  0  0  0  0  0  0
  183.6390  175.3930  135.8100 N   0  0  0  0  0  2  0  0  0  0  0  0
  185.0620  175.5080  135.7520 C   0  0  0  0  0  0  0  0  0  0  0  0
  182.5860  173.2170  136.3770 C   0  0  0  0  0  0  0  0  0  0  0  0
  183.0130  172.6490  135.1820 O   0  0  0  0  0  0  0  0  0  0  0  0
  181.8900  172.5310  137.1710 O   0  0  0  0  0  1  0  0  0  0  0  0
  182.9600  174.5630  136.7200 N   0  0  0  0  0  0  0  0  0  0  0  0
  182.7620  175.0560  138.0770 C   0  0  0  0  0  2  0  0  0  0  0  0
  180.5790  174.8960  139.0150 O   0  0  0  0  0  1  0  0  0  0  0  0
  181.3920  175.6950  138.2090 C   0  0  1  0  0  3  0  0  0  0  0  0
  181.5070  177.0860  138.8200 C   0  0  0  0  0  2  0  0  0  0  0  0
  182.2410  178.0360  137.8780 C   0  0  0  0  0  2  0  0  0  0  0  0
  183.5530  179.7700  138.9540 C   0  0  0  0  0  0  0  0  0  0  0  0
  184.6480  180.1190  139.4140 O   0  0  0  0  0  0  0  0  0  0  0  0
  182.3980  179.4060  138.4670 C   0  0  0  0  0  0  0  0  0  0  0  0
  181.2920  180.4110  138.4130 C   0  0  0  0  0  2  0  0  0  0  0  0
  181.7860  181.7150  138.4980 O   0  0  0  0  0  1  0  0  0  0  0  0
  186.6970  178.3450  144.6460 C   0  0  0  0  0  0  0  0  0  0  0  0
  186.8360  178.4480  145.9800 C   0  0  0  0  0  3  0  0  0  0  0  0
  182.9300  178.8080  142.6560 C   0  0  0  0  0  0  0  0  0  0  0  0
  185.3880  178.4850  143.9780 C   0  0  0  0  0  0  0  0  0  0  0  0
  185.1520  177.8350  142.7590 C   0  0  0  0  0  3  0  0  0  0  0  0
  183.1700  179.4650  143.8680 C   0  0  0  0  0  3  0  0  0  0  0  0
  184.3940  179.3090  144.5250 C   0  0  0  0  0  3  0  0  0  0  0  0
  183.9290  177.9910  142.1040 C   0  0  0  0  0  3  0  0  0  0  0  0
  181.6690  178.9820  142.0030 N   0  0  0  0  0  2  0  0  0  0  0  0
  180.3890  178.6660  142.6240 C   0  0  0  0  0  2  0  0  0  0  0  0
  179.4880  178.0040  141.6380 C   0  0  0  0  0  0  0  0  0  0  0  0
  178.9320  178.6830  140.7370 O   0  0  0  0  0  0  0  0  0  0  0  0
  179.2410  176.6400  141.7290 O   0  0  0  0  0  1  0  0  0  0  0  0
  185.7690  178.6300  146.9820 C   0  0  0  0  0  0  0  0  0  0  0  0
  185.6300  179.7110  147.6120 O   0  0  0  0  0  0  0  0  0  0  0  0
  184.8620  177.5620  147.2230 N   0  0  0  0  0  1  0  0  0  0  0  0
  191.5980  177.5840  144.3500 C   0  0  0  0  0  2  0  0  0  0  0  0
  192.0340  175.5420  145.5030 O   0  0  0  0  0  0  0  0  0  0  0  0
  190.7140  177.0480  146.6170 O   0  0  0  0  0  1  0  0  0  0  0  0
  191.4770  176.6700  145.5210 C   0  0  0  0  0  0  0  0  0  0  0  0
  1  3  2  0  0  0  0
  1 11  1  0  0  0  0
  2  4  1  0  0  0  0
  3  7  1  0  0  0  0
  4  9  2  0  0  0  0
  4 35  1  0  0  0  0
  5 10  1  0  0  0  0
  6 51  1  0  0  0  0
  6  9  1  0  0  0  0
  7  8  1  0  0  0  0
  8 10  1  0  0  0  0
  8  2  2  0  0  0  0
 10  6  2  0  0  0  0
 11  5  2  0  0  0  0
 12 13  2  0  0  0  0
 13  3  1  0  0  0  0
 14 13  1  0  0  0  0
 15 14  1  0  0  0  0
 16 15  1  0  0  0  0
 17 16  1  0  0  0  0
 17 20  1  0  0  0  0
 19 24  1  0  0  0  0
 20 19  1  0  0  0  0
 20 18  2  0  0  0  0
 21 24  1  0  0  0  0
 21 23  1  0  0  0  0
 22 21  2  0  0  0  0
 24 25  1  0  0  0  0
 25 27  1  0  0  0  0
 27 28  1  0  0  0  0
 27 26  1  1  0  0  0
 29 32  1  0  0  0  0
 29 28  1  0  0  0  0
 30 31  2  0  0  0  0
 32 30  2  0  0  0  0
 33 32  1  0  0  0  0
 33 34  1  0  0  0  0
 35 36  2  0  0  0  0
 36 48  1  0  0  0  0
 37 40  1  0  0  0  0
 38 41  1  0  0  0  0
 38 35  1  0  0  0  0
 39 38  2  0  0  0  0
 40 41  2  0  0  0  0
 42 37  2  0  0  0  0
 42 39  1  0  0  0  0
 43 44  1  0  0  0  0
 43 37  1  0  0  0  0
 45 47  1  0  0  0  0
 45 44  1  0  0  0  0
 46 45  2  0  0  0  0
 48 50  1  0  0  0  0
 48 49  2  0  0  0  0
 51 54  1  0  0  0  0
 52 54  2  0  0  0  0
 54 53  1  0  0  0  0
M  END
>  <MODEL>
5

>  <REMARK>
 VINA RESULT:      -7.0      2.857      8.492
  Name = 
  20 active torsions:
  status: ('A' for Active; 'I' for Inactive)
    1  A    between atoms: C_2  and  C_27
    2  A    between atoms: C_2  and  C_54
    3  A    between atoms: C_4  and  C_48
    4  A    between atoms: C_5  and  C_52
    5  A    between atoms: C_6  and  C_50
    6  A    between atoms: C_8  and  N_13
    7  A    between atoms: C_9  and  C_25
    8  A    between atoms: C_12  and  C_25
    9  A    between atoms: N_13  and  C_52
   10  A    between atoms: C_16  and  C_19
   11  A    between atoms: C_16  and  C_37
   12  A    between atoms: N_17  and  N_51
   13  A    between atoms: C_18  and  C_46
   14  A    between atoms: C_18  and  N_51
   15  A    between atoms: C_19  and  C_46
   16  A    between atoms: S_20  and  C_35
   17  A    between atoms: S_20  and  C_41
   18  A    between atoms: C_26  and  C_37
   19  A    between atoms: C_41  and  C_49
   20  A    between atoms: C_49  and  N_53
                            x       y       z     vdW  Elec       q    Type
                         _______ _______ _______ _____ _____    ______ ____

>  <TORSDO>
F 20

$$$$
=
 OpenBabel10222415343D

 54 56  0  0  1  0  0  0  0  0999 V2000
  187.5200  177.8380  146.6920 C   0  0  0  0  0  2  0  0  0  0  0  0
  188.4120  177.7760  142.2730 N   0  0  0  0  0  0  0  0  0  0  0  0
  186.7590  178.1290  145.6400 C   0  0  0  0  0  0  0  0  0  0  0  0
  189.4600  177.3900  141.4990 C   0  0  0  0  0  0  0  0  0  0  0  0
  189.7720  177.2180  145.7560 C   0  0  0  0  0  3  0  0  0  0  0  0
  190.6840  176.8540  143.5060 C   0  0  0  0  0  0  0  0  0  0  0  0
  187.2140  178.1320  144.2840 N   0  0  0  0  0  0  0  0  0  0  0  0
  188.4220  177.7250  143.6330 C   0  0  0  0  0  0  0  0  0  0  0  0
  190.6140  176.9150  142.1170 C   0  0  0  0  0  3  0  0  0  0  0  0
  189.5860  177.2660  144.2970 C   0  0  0  0  0  0  0  0  0  0  0  0
  188.9260  177.4540  146.7480 C   0  0  0  0  0  3  0  0  0  0  0  0
  184.9560  178.6890  147.0620 O   0  0  0  0  0  0  0  0  0  0  0  0
  185.3490  178.4780  145.8830 C   0  0  0  0  0  0  0  0  0  0  0  0
  184.4260  178.5820  144.7930 N   0  0  0  0  0  2  0  0  0  0  0  0
  183.0610  179.0600  144.9590 C   0  0  0  0  0  2  0  0  0  0  0  0
  182.2960  178.9410  143.6510 C   0  0  0  0  0  2  0  0  0  0  0  0
  183.4610  178.8560  142.2560 S   0  0  0  0  0  0  0  0  0  0  0  0
  181.3390  179.3980  140.7210 N   0  0  0  0  0  2  0  0  0  0  0  0
  181.9990  177.1260  140.6440 N   0  0  0  0  0  2  0  0  0  0  0  0
  182.1670  178.4750  141.0860 C   0  0  0  0  0  0  0  0  0  0  0  0
  179.8740  176.3150  139.6500 C   0  0  0  0  0  0  0  0  0  0  0  0
  179.2280  176.3660  140.8790 O   0  0  0  0  0  1  0  0  0  0  0  0
  179.2460  175.8980  138.6410 O   0  0  0  0  0  0  0  0  0  0  0  0
  181.2350  176.7620  139.5210 N   0  0  0  0  0  0  0  0  0  0  0  0
  181.8140  176.9790  138.2020 C   0  0  0  0  0  2  0  0  0  0  0  0
  182.2870  174.7550  137.4970 O   0  0  0  0  0  1  0  0  0  0  0  0
  182.8860  175.9420  137.9210 C   0  0  1  0  0  3  0  0  0  0  0  0
  183.8460  176.4410  136.8490 C   0  0  0  0  0  2  0  0  0  0  0  0
  183.8870  175.4800  135.6640 C   0  0  0  0  0  2  0  0  0  0  0  0
  185.3150  173.5350  135.9170 C   0  0  0  0  0  0  0  0  0  0  0  0
  185.4170  172.3520  136.2660 O   0  0  0  0  0  0  0  0  0  0  0  0
  185.2090  174.7820  135.5470 C   0  0  0  0  0  0  0  0  0  0  0  0
  186.3900  175.4460  134.9130 C   0  0  0  0  0  2  0  0  0  0  0  0
  186.1150  176.7790  134.6010 O   0  0  0  0  0  1  0  0  0  0  0  0
  189.3690  177.4650  140.0220 C   0  0  0  0  0  0  0  0  0  0  0  0
  188.3440  178.1430  139.4780 C   0  0  0  0  0  3  0  0  0  0  0  0
  192.3680  175.6260  137.5740 C   0  0  0  0  0  0  0  0  0  0  0  0
  190.4070  176.8120  139.1980 C   0  0  0  0  0  0  0  0  0  0  0  0
  191.7130  177.3170  139.1890 C   0  0  0  0  0  3  0  0  0  0  0  0
  191.0610  175.1280  137.5760 C   0  0  0  0  0  3  0  0  0  0  0  0
  190.0820  175.7200  138.3810 C   0  0  0  0  0  3  0  0  0  0  0  0
  192.6910  176.7260  138.3860 C   0  0  0  0  0  3  0  0  0  0  0  0
  193.3540  175.0030  136.7440 N   0  0  0  0  0  2  0  0  0  0  0  0
  193.8830  173.6670  136.9860 C   0  0  0  0  0  2  0  0  0  0  0  0
  195.3160  173.7470  137.3920 C   0  0  0  0  0  0  0  0  0  0  0  0
  195.7740  174.8120  137.8780 O   0  0  0  0  0  1  0  0  0  0  0  0
  196.1510  172.6520  137.2100 O   0  0  0  0  0  0  0  0  0  0  0  0
  188.0260  178.2930  138.0450 C   0  0  0  0  0  0  0  0  0  0  0  0
  187.1500  177.5860  137.4830 O   0  0  0  0  0  0  0  0  0  0  0  0
  188.7150  179.2790  137.2870 N   0  0  0  0  0  1  0  0  0  0  0  0
  191.9400  176.3050  144.1120 C   0  0  0  0  0  2  0  0  0  0  0  0
  192.4110  174.3230  145.3530 O   0  0  0  0  0  1  0  0  0  0  0  0
  190.9870  174.0670  143.5740 O   0  0  0  0  0  0  0  0  0  0  0  0
  191.7870  174.8500  144.3940 C   0  0  0  0  0  0  0  0  0  0  0  0
  1 11  1  0  0  0  0
  2  8  2  0  0  0  0
  3 13  1  0  0  0  0
  3  1  1  0  0  0  0
  4  9  2  0  0  0  0
  4  2  1  0  0  0  0
  5 11  2  0  0  0  0
  6 51  1  0  0  0  0
  6 10  2  0  0  0  0
  7  3  2  0  0  0  0
  8  7  1  0  0  0  0
  8 10  1  0  0  0  0
  9  6  1  0  0  0  0
 10  5  1  0  0  0  0
 13 12  2  0  0  0  0
 14 15  1  0  0  0  0
 14 13  1  0  0  0  0
 16 15  1  0  0  0  0
 17 16  1  0  0  0  0
 18 20  2  0  0  0  0
 19 20  1  0  0  0  0
 20 17  1  0  0  0  0
 21 22  1  0  0  0  0
 23 21  2  0  0  0  0
 24 21  1  0  0  0  0
 24 19  1  0  0  0  0
 25 24  1  0  0  0  0
 27 26  1  6  0  0  0
 27 25  1  0  0  0  0
 28 27  1  0  0  0  0
 29 28  1  0  0  0  0
 30 31  2  0  0  0  0
 32 29  1  0  0  0  0
 32 30  2  0  0  0  0
 33 32  1  0  0  0  0
 34 33  1  0  0  0  0
 35  4  1  0  0  0  0
 36 35  2  0  0  0  0
 37 40  2  0  0  0  0
 37 42  1  0  0  0  0
 38 35  1  0  0  0  0
 39 38  1  0  0  0  0
 40 41  1  0  0  0  0
 41 38  2  0  0  0  0
 42 39  2  0  0  0  0
 43 44  1  0  0  0  0
 43 37  1  0  0  0  0
 44 45  1  0  0  0  0
 45 46  1  0  0  0  0
 47 45  2  0  0  0  0
 48 36  1  0  0  0  0
 49 48  2  0  0  0  0
 50 48  1  0  0  0  0
 51 54  1  0  0  0  0
 53 54  2  0  0  0  0
 54 52  1  0  0  0  0
M  END
>  <MODEL>
6

>  <REMARK>
 VINA RESULT:      -6.4      1.837      2.434
  Name = 
  20 active torsions:
  status: ('A' for Active; 'I' for Inactive)
    1  A    between atoms: C_2  and  C_27
    2  A    between atoms: C_2  and  C_54
    3  A    between atoms: C_4  and  C_48
    4  A    between atoms: C_5  and  C_52
    5  A    between atoms: C_6  and  C_50
    6  A    between atoms: C_8  and  N_13
    7  A    between atoms: C_9  and  C_25
    8  A    between atoms: C_12  and  C_25
    9  A    between atoms: N_13  and  C_52
   10  A    between atoms: C_16  and  C_19
   11  A    between atoms: C_16  and  C_37
   12  A    between atoms: N_17  and  N_51
   13  A    between atoms: C_18  and  C_46
   14  A    between atoms: C_18  and  N_51
   15  A    between atoms: C_19  and  C_46
   16  A    between atoms: S_20  and  C_35
   17  A    between atoms: S_20  and  C_41
   18  A    between atoms: C_26  and  C_37
   19  A    between atoms: C_41  and  C_49
   20  A    between atoms: C_49  and  N_53
                            x       y       z     vdW  Elec       q    Type
                         _______ _______ _______ _____ _____    ______ ____

>  <TORSDO>
F 20

$$$$
=
 OpenBabel10222415343D

 54 56  0  0  1  0  0  0  0  0999 V2000
  190.0920  177.1150  138.3230 C   0  0  0  0  0  3  0  0  0  0  0  0
  187.5150  177.8460  141.9500 N   0  0  0  0  0  0  0  0  0  0  0  0
  188.8200  177.4890  138.4340 C   0  0  0  0  0  0  0  0  0  0  0  0
  187.7150  177.8700  143.2940 C   0  0  0  0  0  0  0  0  0  0  0  0
  190.9220  176.8120  140.6790 C   0  0  0  0  0  3  0  0  0  0  0  0
  190.0130  177.2480  142.9170 C   0  0  0  0  0  0  0  0  0  0  0  0
  188.1130  177.6090  139.6710 N   0  0  0  0  0  2  0  0  0  0  0  0
  188.4910  177.5460  141.0500 C   0  0  0  0  0  0  0  0  0  0  0  0
  188.9810  177.5750  143.7920 C   0  0  0  0  0  3  0  0  0  0  0  0
  189.7860  177.2210  141.5210 C   0  0  0  0  0  0  0  0  0  0  0  0
  191.0540  176.7640  139.3620 C   0  0  0  0  0  3  0  0  0  0  0  0
  188.5620  178.6270  136.3780 O   0  0  0  0  0  0  0  0  0  0  0  0
  188.0810  177.7980  137.1970 C   0  0  0  0  0  0  0  0  0  0  0  0
  186.8270  177.1640  136.9200 N   0  0  0  0  0  2  0  0  0  0  0  0
  186.1260  177.3250  135.6540 C   0  0  0  0  0  2  0  0  0  0  0  0
  184.8760  176.4600  135.6290 C   0  0  0  0  0  2  0  0  0  0  0  0
  184.3580  176.0670  137.3280 S   0  0  0  0  0  0  0  0  0  0  0  0
  185.5030  173.6990  137.8100 N   0  0  0  0  0  2  0  0  0  0  0  0
  183.9230  173.6370  136.0490 N   0  0  0  0  0  2  0  0  0  0  0  0
  184.6200  174.3160  137.0950 C   0  0  0  0  0  0  0  0  0  0  0  0
  184.7460  171.4550  135.1970 C   0  0  0  0  0  0  0  0  0  0  0  0
  185.8690  172.0490  134.6320 O   0  0  0  0  0  0  0  0  0  0  0  0
  184.5670  170.2170  135.0530 O   0  0  0  0  0  1  0  0  0  0  0  0
  183.8140  172.2370  135.9640 N   0  0  0  0  0  0  0  0  0  0  0  0
  182.8070  171.5790  136.7870 C   0  0  0  0  0  2  0  0  0  0  0  0
  180.9600  171.3510  135.3020 O   0  0  0  0  0  1  0  0  0  0  0  0
  181.4200  172.0650  136.4100 C   0  0  1  0  0  3  0  0  0  0  0  0
  180.4540  171.8820  137.5720 C   0  0  0  0  0  2  0  0  0  0  0  0
  179.4060  172.9910  137.5910 C   0  0  0  0  0  2  0  0  0  0  0  0
  179.8160  175.1280  136.5200 C   0  0  0  0  0  0  0  0  0  0  0  0
  179.6200  175.8630  135.5440 O   0  0  0  0  0  0  0  0  0  0  0  0
  180.0240  174.3550  137.5510 C   0  0  0  0  0  0  0  0  0  0  0  0
  180.7880  174.9010  138.7160 C   0  0  0  0  0  2  0  0  0  0  0  0
  180.2690  174.4370  139.9260 O   0  0  0  0  0  1  0  0  0  0  0  0
  186.6020  178.2170  144.2100 C   0  0  0  0  0  0  0  0  0  0  0  0
  186.8540  178.2720  145.5300 C   0  0  0  0  0  3  0  0  0  0  0  0
  182.7580  179.0980  142.5350 C   0  0  0  0  0  0  0  0  0  0  0  0
  185.2650  178.5020  143.6510 C   0  0  0  0  0  0  0  0  0  0  0  0
  184.8610  177.8870  142.4590 C   0  0  0  0  0  3  0  0  0  0  0  0
  183.1660  179.7190  143.7200 C   0  0  0  0  0  3  0  0  0  0  0  0
  184.4160  179.4270  144.2750 C   0  0  0  0  0  3  0  0  0  0  0  0
  183.6120  178.1790  141.9050 C   0  0  0  0  0  3  0  0  0  0  0  0
  181.4730  179.4120  141.9870 N   0  0  0  0  0  2  0  0  0  0  0  0
  180.2860  179.6470  142.7990 C   0  0  0  0  0  2  0  0  0  0  0  0
  179.6920  178.3490  143.2300 C   0  0  0  0  0  0  0  0  0  0  0  0
  179.2960  178.2000  144.4140 O   0  0  0  0  0  1  0  0  0  0  0  0
  179.5980  177.2960  142.3290 O   0  0  0  0  0  0  0  0  0  0  0  0
  185.8920  178.5340  146.6170 C   0  0  0  0  0  0  0  0  0  0  0  0
  184.9500  177.7400  146.8730 O   0  0  0  0  0  0  0  0  0  0  0  0
  186.0500  179.7040  147.4090 N   0  0  0  0  0  1  0  0  0  0  0  0
  191.3610  176.9700  143.5110 C   0  0  0  0  0  2  0  0  0  0  0  0
  191.6940  177.5050  145.8120 O   0  0  0  0  0  1  0  0  0  0  0  0
  191.8090  179.2710  144.3550 O   0  0  0  0  0  0  0  0  0  0  0  0
  191.6430  177.9200  144.6240 C   0  0  0  0  0  0  0  0  0  0  0  0
  1  3  2  0  0  0  0
  1 11  1  0  0  0  0
  2  4  1  0  0  0  0
  3  7  1  0  0  0  0
  4  9  2  0  0  0  0
  4 35  1  0  0  0  0
  5 10  1  0  0  0  0
  6 51  1  0  0  0  0
  6  9  1  0  0  0  0
  7  8  1  0  0  0  0
  8 10  1  0  0  0  0
  8  2  2  0  0  0  0
 10  6  2  0  0  0  0
 11  5  2  0  0  0  0
 12 13  2  0  0  0  0
 13  3  1  0  0  0  0
 14 13  1  0  0  0  0
 15 14  1  0  0  0  0
 16 15  1  0  0  0  0
 16 17  1  0  0  0  0
 19 20  1  0  0  0  0
 20 17  1  0  0  0  0
 20 18  2  0  0  0  0
 21 24  1  0  0  0  0
 22 21  2  0  0  0  0
 23 21  1  0  0  0  0
 24 19  1  0  0  0  0
 24 25  1  0  0  0  0
 27 26  1  6  0  0  0
 27 25  1  0  0  0  0
 27 28  1  0  0  0  0
 28 29  1  0  0  0  0
 30 32  2  0  0  0  0
 31 30  2  0  0  0  0
 32 29  1  0  0  0  0
 32 33  1  0  0  0  0
 33 34  1  0  0  0  0
 35 36  2  0  0  0  0
 36 48  1  0  0  0  0
 37 40  1  0  0  0  0
 38 35  1  0  0  0  0
 38 41  1  0  0  0  0
 39 38  2  0  0  0  0
 40 41  2  0  0  0  0
 42 39  1  0  0  0  0
 42 37  2  0  0  0  0
 43 37  1  0  0  0  0
 43 44  1  0  0  0  0
 44 45  1  0  0  0  0
 45 46  1  0  0  0  0
 47 45  2  0  0  0  0
 48 49  2  0  0  0  0
 48 50  1  0  0  0  0
 51 54  1  0  0  0  0
 53 54  2  0  0  0  0
 54 52  1  0  0  0  0
M  END
>  <MODEL>
7

>  <REMARK>
 VINA RESULT:      -6.4      3.006      8.392
  Name = 
  20 active torsions:
  status: ('A' for Active; 'I' for Inactive)
    1  A    between atoms: C_2  and  C_27
    2  A    between atoms: C_2  and  C_54
    3  A    between atoms: C_4  and  C_48
    4  A    between atoms: C_5  and  C_52
    5  A    between atoms: C_6  and  C_50
    6  A    between atoms: C_8  and  N_13
    7  A    between atoms: C_9  and  C_25
    8  A    between atoms: C_12  and  C_25
    9  A    between atoms: N_13  and  C_52
   10  A    between atoms: C_16  and  C_19
   11  A    between atoms: C_16  and  C_37
   12  A    between atoms: N_17  and  N_51
   13  A    between atoms: C_18  and  C_46
   14  A    between atoms: C_18  and  N_51
   15  A    between atoms: C_19  and  C_46
   16  A    between atoms: S_20  and  C_35
   17  A    between atoms: S_20  and  C_41
   18  A    between atoms: C_26  and  C_37
   19  A    between atoms: C_41  and  C_49
   20  A    between atoms: C_49  and  N_53
                            x       y       z     vdW  Elec       q    Type
                         _______ _______ _______ _____ _____    ______ ____

>  <TORSDO>
F 20

$$$$
=
 OpenBabel10222415343D

 54 56  0  0  1  0  0  0  0  0999 V2000
  191.0850  177.4220  139.4360 C   0  0  0  0  0  3  0  0  0  0  0  0
  187.9840  177.9750  142.6610 N   0  0  0  0  0  0  0  0  0  0  0  0
  189.7850  177.6950  139.3640 C   0  0  0  0  0  0  0  0  0  0  0  0
  187.9940  178.0260  144.0190 C   0  0  0  0  0  0  0  0  0  0  0  0
  191.6040  177.2040  141.8880 C   0  0  0  0  0  3  0  0  0  0  0  0
  190.3640  177.5850  143.9720 C   0  0  0  0  0  0  0  0  0  0  0  0
  188.9070  177.7690  140.4900 N   0  0  0  0  0  2  0  0  0  0  0  0
  189.0960  177.7460  141.9090 C   0  0  0  0  0  0  0  0  0  0  0  0
  189.1990  177.8360  144.6910 C   0  0  0  0  0  3  0  0  0  0  0  0
  190.3350  177.5290  142.5590 C   0  0  0  0  0  0  0  0  0  0  0  0
  191.9190  177.1560  140.6020 C   0  0  0  0  0  3  0  0  0  0  0  0
  188.3170  178.8230  137.8940 O   0  0  0  0  0  0  0  0  0  0  0  0
  189.2020  177.9350  138.0320 C   0  0  0  0  0  0  0  0  0  0  0  0
  189.6350  177.1740  136.9000 N   0  0  0  0  0  2  0  0  0  0  0  0
  189.1980  177.4640  135.5420 C   0  0  0  0  0  2  0  0  0  0  0  0
  188.3220  176.3390  135.0160 C   0  0  0  0  0  2  0  0  0  0  0  0
  186.5800  176.6650  135.4270 S   0  0  0  0  0  0  0  0  0  0  0  0
  186.8090  174.5150  137.0010 N   0  0  0  0  0  2  0  0  0  0  0  0
  185.5620  174.1080  135.0300 N   0  0  0  0  0  2  0  0  0  0  0  0
  186.2870  174.9710  135.9100 C   0  0  0  0  0  0  0  0  0  0  0  0
  185.7200  171.6370  135.2110 C   0  0  0  0  0  0  0  0  0  0  0  0
  187.0270  171.6420  134.7380 O   0  0  0  0  0  0  0  0  0  0  0  0
  185.1660  170.5390  135.4770 O   0  0  0  0  0  1  0  0  0  0  0  0
  185.0160  172.8740  135.4230 N   0  0  0  0  0  0  0  0  0  0  0  0
  183.7700  172.8870  136.1780 C   0  0  0  0  0  2  0  0  0  0  0  0
  181.8720  173.8150  135.0800 O   0  0  0  0  0  1  0  0  0  0  0  0
  182.9790  174.1440  135.8650 C   0  0  1  0  0  3  0  0  0  0  0  0
  182.5110  174.8160  137.1490 C   0  0  0  0  0  2  0  0  0  0  0  0
  182.3280  176.3170  136.9430 C   0  0  0  0  0  2  0  0  0  0  0  0
  181.0880  176.2160  139.0260 C   0  0  0  0  0  0  0  0  0  0  0  0
  180.7330  175.5390  139.9990 O   0  0  0  0  0  0  0  0  0  0  0  0
  181.4630  176.9330  138.0010 C   0  0  0  0  0  0  0  0  0  0  0  0
  181.1050  178.3850  137.9700 C   0  0  0  0  0  2  0  0  0  0  0  0
  180.1730  178.6990  138.9610 O   0  0  0  0  0  1  0  0  0  0  0  0
  186.7430  178.2910  144.7680 C   0  0  0  0  0  0  0  0  0  0  0  0
  186.8100  178.4070  146.1060 C   0  0  0  0  0  3  0  0  0  0  0  0
  183.0920  178.7560  142.5720 C   0  0  0  0  0  0  0  0  0  0  0  0
  185.4720  178.4320  144.0280 C   0  0  0  0  0  0  0  0  0  0  0  0
  185.2940  177.7610  142.8110 C   0  0  0  0  0  3  0  0  0  0  0  0
  183.2740  179.4330  143.7820 C   0  0  0  0  0  3  0  0  0  0  0  0
  184.4600  179.2760  144.5070 C   0  0  0  0  0  3  0  0  0  0  0  0
  184.1090  177.9180  142.0880 C   0  0  0  0  0  3  0  0  0  0  0  0
  181.8690  178.9310  141.8500 N   0  0  0  0  0  2  0  0  0  0  0  0
  180.6350  179.4110  142.4580 C   0  0  0  0  0  2  0  0  0  0  0  0
  179.7690  178.2600  142.8430 C   0  0  0  0  0  0  0  0  0  0  0  0
  179.1200  177.6380  141.9630 O   0  0  0  0  0  0  0  0  0  0  0  0
  179.6580  177.8900  144.1770 O   0  0  0  0  0  1  0  0  0  0  0  0
  185.6920  178.6070  147.0470 C   0  0  0  0  0  0  0  0  0  0  0  0
  184.7590  177.7680  147.1550 O   0  0  0  0  0  0  0  0  0  0  0  0
  185.6820  179.7680  147.8680 N   0  0  0  0  0  1  0  0  0  0  0  0
  191.6340  177.4190  144.7500 C   0  0  0  0  0  2  0  0  0  0  0  0
  190.5670  177.1380  146.8650 O   0  0  0  0  0  1  0  0  0  0  0  0
  192.0550  175.4960  146.2770 O   0  0  0  0  0  0  0  0  0  0  0  0
  191.3740  176.6770  146.0160 C   0  0  0  0  0  0  0  0  0  0  0  0
  1 11  1  0  0  0  0
  2  4  1  0  0  0  0
  3  1  2  0  0  0  0
  3  7  1  0  0  0  0
  4  9  2  0  0  0  0
  4 35  1  0  0  0  0
  5 10  1  0  0  0  0
  6  9  1  0  0  0  0
  6 51  1  0  0  0  0
  7  8  1  0  0  0  0
  8 10  1  0  0  0  0
  8  2  2  0  0  0  0
 10  6  2  0  0  0  0
 11  5  2  0  0  0  0
 12 13  2  0  0  0  0
 13  3  1  0  0  0  0
 14 13  1  0  0  0  0
 15 14  1  0  0  0  0
 16 17  1  0  0  0  0
 16 15  1  0  0  0  0
 17 20  1  0  0  0  0
 19 24  1  0  0  0  0
 19 20  1  0  0  0  0
 20 18  2  0  0  0  0
 21 24  1  0  0  0  0
 21 23  1  0  0  0  0
 22 21  2  0  0  0  0
 24 25  1  0  0  0  0
 27 26  1  6  0  0  0
 27 25  1  0  0  0  0
 27 28  1  0  0  0  0
 29 28  1  0  0  0  0
 29 32  1  0  0  0  0
 30 31  2  0  0  0  0
 32 30  2  0  0  0  0
 33 32  1  0  0  0  0
 33 34  1  0  0  0  0
 35 36  2  0  0  0  0
 36 48  1  0  0  0  0
 37 40  1  0  0  0  0
 38 41  1  0  0  0  0
 38 35  1  0  0  0  0
 39 38  2  0  0  0  0
 40 41  2  0  0  0  0
 42 37  2  0  0  0  0
 42 39  1  0  0  0  0
 43 44  1  0  0  0  0
 43 37  1  0  0  0  0
 44 45  1  0  0  0  0
 45 47  1  0  0  0  0
 46 45  2  0  0  0  0
 48 49  2  0  0  0  0
 48 50  1  0  0  0  0
 51 54  1  0  0  0  0
 54 53  2  0  0  0  0
 54 52  1  0  0  0  0
M  END
>  <MODEL>
8

>  <REMARK>
 VINA RESULT:      -6.4      2.978      8.494
  Name = 
  20 active torsions:
  status: ('A' for Active; 'I' for Inactive)
    1  A    between atoms: C_2  and  C_27
    2  A    between atoms: C_2  and  C_54
    3  A    between atoms: C_4  and  C_48
    4  A    between atoms: C_5  and  C_52
    5  A    between atoms: C_6  and  C_50
    6  A    between atoms: C_8  and  N_13
    7  A    between atoms: C_9  and  C_25
    8  A    between atoms: C_12  and  C_25
    9  A    between atoms: N_13  and  C_52
   10  A    between atoms: C_16  and  C_19
   11  A    between atoms: C_16  and  C_37
   12  A    between atoms: N_17  and  N_51
   13  A    between atoms: C_18  and  C_46
   14  A    between atoms: C_18  and  N_51
   15  A    between atoms: C_19  and  C_46
   16  A    between atoms: S_20  and  C_35
   17  A    between atoms: S_20  and  C_41
   18  A    between atoms: C_26  and  C_37
   19  A    between atoms: C_41  and  C_49
   20  A    between atoms: C_49  and  N_53
                            x       y       z     vdW  Elec       q    Type
                         _______ _______ _______ _____ _____    ______ ____

>  <TORSDO>
F 20

$$$$
=
 OpenBabel10222415343D

 54 56  0  0  1  0  0  0  0  0999 V2000
  189.8870  177.3400  144.0510 C   0  0  0  0  0  2  0  0  0  0  0  0
  185.6240  178.0230  142.7530 N   0  0  0  0  0  0  0  0  0  0  0  0
  189.3510  177.4820  142.8420 C   0  0  0  0  0  0  0  0  0  0  0  0
  184.4420  178.2500  143.3830 C   0  0  0  0  0  0  0  0  0  0  0  0
  187.9680  177.4900  145.6710 C   0  0  0  0  0  3  0  0  0  0  0  0
  185.5780  178.0240  145.4970 C   0  0  0  0  0  0  0  0  0  0  0  0
  187.9510  177.6200  142.5850 N   0  0  0  0  0  0  0  0  0  0  0  0
  186.7950  177.8000  143.4100 C   0  0  0  0  0  0  0  0  0  0  0  0
  184.4110  178.2590  144.7750 C   0  0  0  0  0  3  0  0  0  0  0  0
  186.7990  177.7820  144.8260 C   0  0  0  0  0  0  0  0  0  0  0  0
  189.2420  177.3040  145.3580 C   0  0  0  0  0  3  0  0  0  0  0  0
  191.5000  177.6100  141.8660 O   0  0  0  0  0  0  0  0  0  0  0  0
  190.2580  177.4930  141.6810 C   0  0  0  0  0  0  0  0  0  0  0  0
  189.7420  177.3680  140.3520 N   0  0  0  0  0  2  0  0  0  0  0  0
  190.5990  177.2310  139.1830 C   0  0  0  0  0  2  0  0  0  0  0  0
  189.9080  176.3980  138.1150 C   0  0  0  0  0  2  0  0  0  0  0  0
  189.9270  177.2860  136.5270 S   0  0  0  0  0  0  0  0  0  0  0  0
  190.3590  175.4740  134.6080 N   0  0  0  0  0  2  0  0  0  0  0  0
  191.9840  175.4260  136.3290 N   0  0  0  0  0  2  0  0  0  0  0  0
  190.8200  175.9750  135.7060 C   0  0  0  0  0  0  0  0  0  0  0  0
  192.7910  173.1930  135.6020 C   0  0  0  0  0  0  0  0  0  0  0  0
  191.6500  172.5710  136.0950 O   0  0  0  0  0  1  0  0  0  0  0  0
  193.6990  172.4920  135.0830 O   0  0  0  0  0  0  0  0  0  0  0  0
  192.9240  174.6250  135.6560 N   0  0  0  0  0  0  0  0  0  0  0  0
  193.9700  175.2930  134.8930 C   0  0  0  0  0  2  0  0  0  0  0  0
  194.2680  176.1530  137.0930 O   0  0  0  0  0  1  0  0  0  0  0  0
  194.7290  176.2620  135.7800 C   0  0  1  0  0  3  0  0  0  0  0  0
  196.2230  175.9700  135.7380 C   0  0  0  0  0  2  0  0  0  0  0  0
  196.4850  174.4660  135.7560 C   0  0  0  0  0  2  0  0  0  0  0  0
  197.7740  174.8270  137.7790 C   0  0  0  0  0  0  0  0  0  0  0  0
  198.4550  175.6040  138.4600 O   0  0  0  0  0  0  0  0  0  0  0  0
  197.0540  174.0060  137.0640 C   0  0  0  0  0  0  0  0  0  0  0  0
  196.7280  172.6590  137.6270 C   0  0  0  0  0  2  0  0  0  0  0  0
  195.6160  172.7160  138.4690 O   0  0  0  0  0  1  0  0  0  0  0  0
  183.2090  178.4950  142.5980 C   0  0  0  0  0  0  0  0  0  0  0  0
  182.1480  179.0350  143.2230 C   0  0  0  0  0  3  0  0  0  0  0  0
  183.2120  177.4590  138.4390 C   0  0  0  0  0  0  0  0  0  0  0  0
  183.1860  178.1530  141.1610 C   0  0  0  0  0  0  0  0  0  0  0  0
  182.6760  176.9170  140.7450 C   0  0  0  0  0  3  0  0  0  0  0  0
  183.7290  178.6900  138.8560 C   0  0  0  0  0  3  0  0  0  0  0  0
  183.7220  179.0350  140.2110 C   0  0  0  0  0  3  0  0  0  0  0  0
  182.6840  176.5720  139.3910 C   0  0  0  0  0  3  0  0  0  0  0  0
  183.2290  177.1280  137.0470 N   0  0  0  0  0  2  0  0  0  0  0  0
  184.3100  177.5010  136.1430 C   0  0  0  0  0  2  0  0  0  0  0  0
  185.3630  176.4450  136.1360 C   0  0  0  0  0  0  0  0  0  0  0  0
  186.5510  176.7410  135.8490 O   0  0  0  0  0  0  0  0  0  0  0  0
  185.0270  175.1280  136.4240 O   0  0  0  0  0  1  0  0  0  0  0  0
  180.8140  179.3050  142.6560 C   0  0  0  0  0  0  0  0  0  0  0  0
  180.1590  178.4160  142.0500 O   0  0  0  0  0  0  0  0  0  0  0  0
  180.2450  180.5980  142.8190 N   0  0  0  0  0  1  0  0  0  0  0  0
  185.4880  178.0770  146.9930 C   0  0  0  0  0  2  0  0  0  0  0  0
  186.0570  180.3820  147.2160 O   0  0  0  0  0  0  0  0  0  0  0  0
  187.4220  178.9110  148.3240 O   0  0  0  0  0  1  0  0  0  0  0  0
  186.3240  179.1910  147.5230 C   0  0  0  0  0  0  0  0  0  0  0  0
  1 11  1  0  0  0  0
  2  4  1  0  0  0  0
  2  8  2  0  0  0  0
  3  1  1  0  0  0  0
  4  9  2  0  0  0  0
  6 51  1  0  0  0  0
  7  3  2  0  0  0  0
  7  8  1  0  0  0  0
  8 10  1  0  0  0  0
  9  6  1  0  0  0  0
 10  6  2  0  0  0  0
 10  5  1  0  0  0  0
 11  5  2  0  0  0  0
 13 12  2  0  0  0  0
 13  3  1  0  0  0  0
 14 13  1  0  0  0  0
 15 14  1  0  0  0  0
 16 15  1  0  0  0  0
 17 16  1  0  0  0  0
 18 20  2  0  0  0  0
 20 19  1  0  0  0  0
 20 17  1  0  0  0  0
 21 24  1  0  0  0  0
 21 22  1  0  0  0  0
 23 21  2  0  0  0  0
 24 19  1  0  0  0  0
 25 24  1  0  0  0  0
 25 27  1  0  0  0  0
 27 26  1  1  0  0  0
 28 29  1  0  0  0  0
 28 27  1  0  0  0  0
 29 32  1  0  0  0  0
 30 31  2  0  0  0  0
 32 33  1  0  0  0  0
 32 30  2  0  0  0  0
 33 34  1  0  0  0  0
 35 36  2  0  0  0  0
 35  4  1  0  0  0  0
 37 40  2  0  0  0  0
 37 42  1  0  0  0  0
 38 35  1  0  0  0  0
 39 38  1  0  0  0  0
 40 41  1  0  0  0  0
 41 38  2  0  0  0  0
 42 39  2  0  0  0  0
 43 37  1  0  0  0  0
 44 43  1  0  0  0  0
 45 44  1  0  0  0  0
 45 47  1  0  0  0  0
 46 45  2  0  0  0  0
 48 50  1  0  0  0  0
 48 36  1  0  0  0  0
 49 48  2  0  0  0  0
 51 54  1  0  0  0  0
 52 54  2  0  0  0  0
 54 53  1  0  0  0  0
M  END
>  <MODEL>
9

>  <REMARK>
 VINA RESULT:      -6.4      2.961      9.471
  Name = 
  20 active torsions:
  status: ('A' for Active; 'I' for Inactive)
    1  A    between atoms: C_2  and  C_27
    2  A    between atoms: C_2  and  C_54
    3  A    between atoms: C_4  and  C_48
    4  A    between atoms: C_5  and  C_52
    5  A    between atoms: C_6  and  C_50
    6  A    between atoms: C_8  and  N_13
    7  A    between atoms: C_9  and  C_25
    8  A    between atoms: C_12  and  C_25
    9  A    between atoms: N_13  and  C_52
   10  A    between atoms: C_16  and  C_19
   11  A    between atoms: C_16  and  C_37
   12  A    between atoms: N_17  and  N_51
   13  A    between atoms: C_18  and  C_46
   14  A    between atoms: C_18  and  N_51
   15  A    between atoms: C_19  and  C_46
   16  A    between atoms: S_20  and  C_35
   17  A    between atoms: S_20  and  C_41
   18  A    between atoms: C_26  and  C_37
   19  A    between atoms: C_41  and  C_49
   20  A    between atoms: C_49  and  N_53
                            x       y       z     vdW  Elec       q    Type
                         _______ _______ _______ _____ _____    ______ ____

>  <TORSDO>
F 20

$$$$
