=
 OpenBabel10222416363D

 32 37  0  0  1  0  0  0  0  0999 V2000
  192.4870  176.1210  138.1040 N   0  0  0  0  0  0  0  0  0  0  0  0
  187.4650  178.5950  139.6640 O   0  0  0  0  0  0  0  0  0  0  0  0
  189.1660  176.2300  135.3670 C   0  0  0  0  0  2  0  0  0  0  0  0
  187.1480  177.5110  135.0390 O   0  0  0  0  0  1  0  0  0  0  0  0
  190.6900  177.2710  140.7410 C   0  0  2  0  0  3  0  0  0  0  0  0
  188.3450  177.5320  141.5840 C   0  0  1  0  0  3  0  0  0  0  0  0
  187.2680  176.0500  136.8810 N   0  0  0  0  0  2  0  0  0  0  0  0
  188.4360  177.1950  142.8960 C   0  0  2  0  0  3  0  0  0  0  0  0
  191.1630  174.0710  136.0200 C   0  0  0  0  0  1  0  0  0  0  0  0
  187.9560  176.0980  138.1760 C   0  0  0  0  0  2  0  0  0  0  0  0
  190.3080  176.3630  136.2800 N   0  0  2  0  0  0  0  0  0  0  0  0
  191.3840  175.1770  138.2460 C   0  0  0  0  0  2  0  0  0  0  0  0
  188.6380  177.9730  136.8720 C   0  0  1  0  0  0  0  0  0  0  0  0
  188.4790  179.4810  136.7180 C   0  0  0  0  0  1  0  0  0  0  0  0
  189.6630  177.6480  144.9910 O   0  0  0  0  0  1  0  0  0  0  0  0
  187.0980  177.9890  140.8900 C   0  0  1  0  0  3  0  0  0  0  0  0
  187.1890  176.9730  143.6930 C   0  0  0  0  0  1  0  0  0  0  0  0
  188.8760  177.3220  138.2020 C   0  0  1  0  0  0  0  0  0  0  0  0
  187.9950  176.9550  135.9990 C   0  0  1  0  0  0  0  0  0  0  0  0
  190.8870  176.8650  143.1760 C   0  0  0  0  0  3  0  0  0  0  0  0
  192.7580  176.6670  139.4260 C   0  0  0  0  0  2  0  0  0  0  0  0
  189.7040  177.2240  143.6680 C   0  0  0  0  0  0  0  0  0  0  0  0
  188.8200  178.2890  139.3940 C   0  0  2  0  0  3  0  0  0  0  0  0
  190.5330  175.0770  136.9700 C   0  0  2  0  0  3  0  0  0  0  0  0
  191.7510  177.7570  139.7910 C   0  0  0  0  0  2  0  0  0  0  0  0
  191.0730  176.3010  141.8150 C   0  0  0  0  0  2  0  0  0  0  0  0
  190.0320  177.5070  137.1790 C   0  0  1  0  0  3  0  0  0  0  0  0
  189.4160  177.6900  140.6230 C   0  0  2  0  0  3  0  0  0  0  0  0
  185.1950  179.4130  141.3090 N   0  0  0  0  0  2  0  0  0  0  0  0
  186.3440  179.0050  141.6970 C   0  0  0  0  0  3  0  0  0  0  0  0
  193.6670  175.3560  137.7330 C   0  0  0  0  0  2  0  0  0  0  0  0
  194.6560  175.5260  138.7010 O   0  0  0  0  0  1  0  0  0  0  0  0
  1 12  1  0  0  0  0
  1 21  1  0  0  0  0
  2 16  1  0  0  0  0
  3 19  1  0  0  0  0
  3 11  1  0  0  0  0
  4 19  1  0  0  0  0
  5 25  1  6  0  0  0
  5 26  1  0  0  0  0
  6  8  1  0  0  0  0
  7 10  1  0  0  0  0
  8 22  1  0  0  0  0
  8 17  1  0  0  0  0
  9 24  1  0  0  0  0
 10 18  1  0  0  0  0
 11 24  1  0  0  0  0
 11 27  1  0  0  0  0
 13 27  1  0  0  0  0
 13 18  1  0  0  0  0
 14 13  1  0  0  0  0
 16  6  1  0  0  0  0
 16 30  1  0  0  0  0
 18 23  1  0  0  0  0
 19 13  1  0  0  0  0
 19  7  1  0  0  0  0
 20 22  2  0  0  0  0
 21 25  1  0  0  0  0
 22 15  1  0  0  0  0
 23  2  1  0  0  0  0
 23 28  1  0  0  0  0
 24 12  1  0  0  0  0
 26 20  1  0  0  0  0
 27 18  1  0  0  0  0
 28  5  1  0  0  0  0
 28  6  1  0  0  0  0
 29 30  2  0  0  0  0
 31  1  1  0  0  0  0
 31 32  1  0  0  0  0
M  END
>  <MODEL>
1

>  <REMARK>
 VINA RESULT:      -6.9      0.000      0.000
  Name = 
  2 active torsions:
  status: ('A' for Active; 'I' for Inactive)
    1  A    between atoms: N_2  and  C_14
    2  A    between atoms: C_18  and  C_20
                            x       y       z     vdW  Elec       q    Type
                         _______ _______ _______ _____ _____    ______ ____

>  <TORSDO>
F 2

$$$$
=
 OpenBabel10222416363D

 32 37  0  0  1  0  0  0  0  0999 V2000
  186.4190  178.7380  143.0850 N   0  0  0  0  0  0  0  0  0  0  0  0
  191.7300  177.4390  141.1120 O   0  0  0  0  0  0  0  0  0  0  0  0
  189.4550  177.2960  145.7770 C   0  0  0  0  0  2  0  0  0  0  0  0
  191.8610  177.1560  145.8630 O   0  0  0  0  0  1  0  0  0  0  0  0
  188.2450  178.1410  140.2890 C   0  0  2  0  0  3  0  0  0  0  0  0
  190.1890  176.8120  139.4320 C   0  0  1  0  0  3  0  0  0  0  0  0
  190.7070  175.7760  144.3440 N   0  0  0  0  0  2  0  0  0  0  0  0
  189.7730  176.3860  138.2120 C   0  0  2  0  0  3  0  0  0  0  0  0
  186.5150  176.6790  145.5450 C   0  0  0  0  0  1  0  0  0  0  0  0
  190.0380  176.0110  143.0590 C   0  0  0  0  0  2  0  0  0  0  0  0
  188.5130  177.9310  144.8450 N   0  0  2  0  0  0  0  0  0  0  0  0
  186.7380  177.3160  143.1430 C   0  0  0  0  0  2  0  0  0  0  0  0
  190.7320  178.1060  143.9610 C   0  0  1  0  0  0  0  0  0  0  0  0
  191.7590  179.2230  143.8160 C   0  0  0  0  0  1  0  0  0  0  0  0
  188.8200  177.1300  136.0580 O   0  0  0  0  0  1  0  0  0  0  0  0
  191.5340  176.5440  140.0330 C   0  0  1  0  0  3  0  0  0  0  0  0
  190.5570  175.3390  137.4850 C   0  0  0  0  0  1  0  0  0  0  0  0
  190.0130  177.5180  142.7840 C   0  0  1  0  0  0  0  0  0  0  0  0
  190.7490  177.0660  145.0240 C   0  0  1  0  0  0  0  0  0  0  0  0
  187.5790  177.5390  137.9810 C   0  0  0  0  0  3  0  0  0  0  0  0
  186.3750  179.1130  141.6790 C   0  0  0  0  0  2  0  0  0  0  0  0
  188.6860  177.0370  137.4380 C   0  0  0  0  0  0  0  0  0  0  0  0
  190.4920  178.0500  141.4250 C   0  0  2  0  0  3  0  0  0  0  0  0
  187.5040  176.9400  144.4200 C   0  0  2  0  0  3  0  0  0  0  0  0
  187.7810  179.3110  141.1140 C   0  0  0  0  0  2  0  0  0  0  0  0
  187.2510  177.4300  139.4250 C   0  0  0  0  0  2  0  0  0  0  0  0
  189.3050  178.5190  143.7400 C   0  0  1  0  0  3  0  0  0  0  0  0
  189.5260  177.7320  140.3340 C   0  0  2  0  0  3  0  0  0  0  0  0
  193.8140  177.0850  139.4560 N   0  0  0  0  0  2  0  0  0  0  0  0
  192.6450  176.7610  139.0490 C   0  0  0  0  0  3  0  0  0  0  0  0
  185.0650  178.8990  143.5890 C   0  0  0  0  0  2  0  0  0  0  0  0
  184.1810  178.1750  142.7910 O   0  0  0  0  0  1  0  0  0  0  0  0
  1 12  1  0  0  0  0
  1 31  1  0  0  0  0
  2 23  1  0  0  0  0
  5 26  1  1  0  0  0
  5 28  1  0  0  0  0
  5 25  1  0  0  0  0
  6 16  1  0  0  0  0
  6 28  1  0  0  0  0
  7 19  1  0  0  0  0
  8  6  1  0  0  0  0
 10  7  1  0  0  0  0
 11  3  1  0  0  0  0
 12 24  1  0  0  0  0
 13 19  1  0  0  0  0
 14 13  1  0  0  0  0
 15 22  1  0  0  0  0
 16  2  1  0  0  0  0
 17  8  1  0  0  0  0
 18 10  1  0  0  0  0
 18 27  1  0  0  0  0
 18 13  1  0  0  0  0
 19  3  1  0  0  0  0
 19  4  1  0  0  0  0
 20 26  1  0  0  0  0
 21  1  1  0  0  0  0
 22 20  2  0  0  0  0
 22  8  1  0  0  0  0
 23 18  1  0  0  0  0
 24 11  1  0  0  0  0
 24  9  1  0  0  0  0
 25 21  1  0  0  0  0
 27 13  1  0  0  0  0
 27 11  1  0  0  0  0
 28 23  1  0  0  0  0
 30 29  2  0  0  0  0
 30 16  1  0  0  0  0
 32 31  1  0  0  0  0
M  END
>  <MODEL>
2

>  <REMARK>
 VINA RESULT:      -6.8      2.322      7.473
  Name = 
  2 active torsions:
  status: ('A' for Active; 'I' for Inactive)
    1  A    between atoms: N_2  and  C_14
    2  A    between atoms: C_18  and  C_20
                            x       y       z     vdW  Elec       q    Type
                         _______ _______ _______ _____ _____    ______ ____

>  <TORSDO>
F 2

$$$$
=
 OpenBabel10222416363D

 32 37  0  0  1  0  0  0  0  0999 V2000
  184.8920  177.7170  137.6930 N   0  0  0  0  0  0  0  0  0  0  0  0
  179.8940  179.6270  139.9640 O   0  0  0  0  0  0  0  0  0  0  0  0
  181.1750  177.1140  135.6050 C   0  0  0  0  0  2  0  0  0  0  0  0
  178.9620  178.0720  135.5610 O   0  0  0  0  0  1  0  0  0  0  0  0
  183.4180  178.8600  140.5260 C   0  0  2  0  0  3  0  0  0  0  0  0
  181.2370  178.8810  141.7620 C   0  0  1  0  0  3  0  0  0  0  0  0
  179.6110  176.8240  137.4490 N   0  0  0  0  0  2  0  0  0  0  0  0
  181.6000  178.6870  143.0550 C   0  0  2  0  0  3  0  0  0  0  0  0
  183.5560  175.3170  136.0340 C   0  0  0  0  0  1  0  0  0  0  0  0
  180.4950  177.0880  138.5900 C   0  0  0  0  0  2  0  0  0  0  0  0
  182.4230  177.4860  136.2830 N   0  0  2  0  0  0  0  0  0  0  0  0
  183.9830  176.6500  138.0990 C   0  0  0  0  0  2  0  0  0  0  0  0
  180.6560  178.9050  137.0560 C   0  0  1  0  0  0  0  0  0  0  0  0
  180.2480  180.3560  136.8280 C   0  0  0  0  0  1  0  0  0  0  0  0
  183.0840  179.5000  144.8550 O   0  0  0  0  0  1  0  0  0  0  0  0
  179.8370  179.0970  141.2760 C   0  0  1  0  0  3  0  0  0  0  0  0
  180.5550  178.3750  144.0800 C   0  0  0  0  0  1  0  0  0  0  0  0
  181.2110  178.4230  138.3620 C   0  0  1  0  0  0  0  0  0  0  0  0
  180.0340  177.7300  136.3870 C   0  0  1  0  0  0  0  0  0  0  0  0
  184.0840  178.7190  142.9070 C   0  0  0  0  0  3  0  0  0  0  0  0
  185.2990  178.4190  138.9020 C   0  0  0  0  0  2  0  0  0  0  0  0
  182.9620  178.9610  143.5790 C   0  0  0  0  0  0  0  0  0  0  0  0
  181.2140  179.4830  139.4740 C   0  0  2  0  0  3  0  0  0  0  0  0
  182.9530  176.3150  137.0100 C   0  0  2  0  0  3  0  0  0  0  0  0
  184.2160  179.3920  139.3670 C   0  0  0  0  0  2  0  0  0  0  0  0
  184.1190  178.0580  141.5770 C   0  0  0  0  0  2  0  0  0  0  0  0
  182.1350  178.6630  137.1360 C   0  0  1  0  0  3  0  0  0  0  0  0
  182.0940  179.0900  140.6120 C   0  0  2  0  0  3  0  0  0  0  0  0
  179.2950  181.3310  142.0120 N   0  0  0  0  0  2  0  0  0  0  0  0
  179.0870  180.0740  142.1330 C   0  0  0  0  0  3  0  0  0  0  0  0
  186.0920  177.0860  137.1690 C   0  0  0  0  0  2  0  0  0  0  0  0
  187.1890  177.4480  137.9510 O   0  0  0  0  0  1  0  0  0  0  0  0
  1 12  1  0  0  0  0
  1 21  1  0  0  0  0
  2 16  1  0  0  0  0
  3 11  1  0  0  0  0
  3 19  1  0  0  0  0
  4 19  1  0  0  0  0
  5 25  1  6  0  0  0
  5 28  1  0  0  0  0
  5 26  1  0  0  0  0
  6  8  1  0  0  0  0
  7 10  1  0  0  0  0
  8 22  1  0  0  0  0
  8 17  1  0  0  0  0
  9 24  1  0  0  0  0
 11 24  1  0  0  0  0
 11 27  1  0  0  0  0
 13 27  1  0  0  0  0
 13 18  1  0  0  0  0
 14 13  1  0  0  0  0
 16  6  1  0  0  0  0
 16 30  1  0  0  0  0
 18 10  1  0  0  0  0
 18 23  1  0  0  0  0
 19 13  1  0  0  0  0
 19  7  1  0  0  0  0
 20 22  2  0  0  0  0
 21 25  1  0  0  0  0
 22 15  1  0  0  0  0
 23  2  1  0  0  0  0
 23 28  1  0  0  0  0
 24 12  1  0  0  0  0
 26 20  1  0  0  0  0
 27 18  1  0  0  0  0
 28  6  1  0  0  0  0
 29 30  2  0  0  0  0
 31  1  1  0  0  0  0
 31 32  1  0  0  0  0
M  END
>  <MODEL>
3

>  <REMARK>
 VINA RESULT:      -6.4      5.639      7.558
  Name = 
  2 active torsions:
  status: ('A' for Active; 'I' for Inactive)
    1  A    between atoms: N_2  and  C_14
    2  A    between atoms: C_18  and  C_20
                            x       y       z     vdW  Elec       q    Type
                         _______ _______ _______ _____ _____    ______ ____

>  <TORSDO>
F 2

$$$$
=
 OpenBabel10222416363D

 32 37  0  0  1  0  0  0  0  0999 V2000
  185.1660  177.3340  137.2160 N   0  0  0  0  0  0  0  0  0  0  0  0
  180.5300  179.0160  140.2920 O   0  0  0  0  0  0  0  0  0  0  0  0
  181.2290  175.9480  136.1620 C   0  0  0  0  0  2  0  0  0  0  0  0
  178.9370  176.6190  136.4990 O   0  0  0  0  0  1  0  0  0  0  0  0
  184.1670  178.7750  140.1200 C   0  0  2  0  0  3  0  0  0  0  0  0
  182.3210  178.7570  141.8140 C   0  0  1  0  0  3  0  0  0  0  0  0
  180.1530  175.8040  138.3430 N   0  0  0  0  0  2  0  0  0  0  0  0
  182.9750  178.8340  143.0020 C   0  0  2  0  0  3  0  0  0  0  0  0
  183.8920  174.5430  136.2770 C   0  0  0  0  0  1  0  0  0  0  0  0
  181.2070  176.3640  139.1960 C   0  0  0  0  0  2  0  0  0  0  0  0
  182.5200  176.5750  136.4700 N   0  0  2  0  0  0  0  0  0  0  0  0
  184.5380  176.2560  137.9720 C   0  0  0  0  0  2  0  0  0  0  0  0
  180.7600  177.8910  137.4210 C   0  0  1  0  0  0  0  0  0  0  0  0
  180.0970  179.2230  137.0890 C   0  0  0  0  0  1  0  0  0  0  0  0
  184.6630  180.1160  144.2690 O   0  0  0  0  0  1  0  0  0  0  0  0
  180.8330  178.7200  141.6430 C   0  0  1  0  0  3  0  0  0  0  0  0
  182.2300  178.5870  144.2760 C   0  0  0  0  0  1  0  0  0  0  0  0
  181.6470  177.7120  138.6170 C   0  0  1  0  0  0  0  0  0  0  0  0
  180.1980  176.5540  137.0920 C   0  0  1  0  0  0  0  0  0  0  0  0
  185.3370  179.1300  142.2740 C   0  0  0  0  0  3  0  0  0  0  0  0
  185.7080  178.2790  138.1830 C   0  0  0  0  0  2  0  0  0  0  0  0
  184.3580  179.3520  143.1480 C   0  0  0  0  0  0  0  0  0  0  0  0
  181.7230  178.9430  139.5330 C   0  0  2  0  0  3  0  0  0  0  0  0
  183.3640  175.6180  137.2130 C   0  0  2  0  0  3  0  0  0  0  0  0
  184.6120  179.1860  138.7430 C   0  0  0  0  0  2  0  0  0  0  0  0
  185.1890  178.2560  141.0830 C   0  0  0  0  0  2  0  0  0  0  0  0
  182.2430  177.8410  137.1880 C   0  0  1  0  0  3  0  0  0  0  0  0
  182.8730  178.8600  140.4790 C   0  0  2  0  0  3  0  0  0  0  0  0
  179.7720  180.8570  142.0050 N   0  0  0  0  0  2  0  0  0  0  0  0
  180.1420  179.7370  142.5020 C   0  0  0  0  0  3  0  0  0  0  0  0
  186.3100  176.7660  136.5220 C   0  0  0  0  0  2  0  0  0  0  0  0
  187.2640  176.3560  137.4520 O   0  0  0  0  0  1  0  0  0  0  0  0
  1 12  1  0  0  0  0
  1 21  1  0  0  0  0
  2 16  1  0  0  0  0
  3 11  1  0  0  0  0
  3 19  1  0  0  0  0
  4 19  1  0  0  0  0
  5 25  1  6  0  0  0
  5 28  1  0  0  0  0
  5 26  1  0  0  0  0
  6  8  1  0  0  0  0
  7 10  1  0  0  0  0
  8 22  1  0  0  0  0
  8 17  1  0  0  0  0
  9 24  1  0  0  0  0
 11 27  1  0  0  0  0
 11 24  1  0  0  0  0
 13 18  1  0  0  0  0
 14 13  1  0  0  0  0
 16  6  1  0  0  0  0
 16 30  1  0  0  0  0
 18 10  1  0  0  0  0
 18 23  1  0  0  0  0
 19 13  1  0  0  0  0
 19  7  1  0  0  0  0
 20 22  2  0  0  0  0
 21 25  1  0  0  0  0
 22 15  1  0  0  0  0
 23  2  1  0  0  0  0
 23 28  1  0  0  0  0
 24 12  1  0  0  0  0
 26 20  1  0  0  0  0
 27 13  1  0  0  0  0
 27 18  1  0  0  0  0
 28  6  1  0  0  0  0
 29 30  2  0  0  0  0
 31  1  1  0  0  0  0
 31 32  1  0  0  0  0
M  END
>  <MODEL>
4

>  <REMARK>
 VINA RESULT:      -6.1      5.167      7.012
  Name = 
  2 active torsions:
  status: ('A' for Active; 'I' for Inactive)
    1  A    between atoms: N_2  and  C_14
    2  A    between atoms: C_18  and  C_20
                            x       y       z     vdW  Elec       q    Type
                         _______ _______ _______ _____ _____    ______ ____

>  <TORSDO>
F 2

$$$$
=
 OpenBabel10222416363D

 32 37  0  0  1  0  0  0  0  0999 V2000
  185.6190  177.4840  136.2870 N   0  0  0  0  0  0  0  0  0  0  0  0
  183.7100  179.1300  141.5240 O   0  0  0  0  0  0  0  0  0  0  0  0
  181.4720  177.0140  137.3450 C   0  0  0  0  0  2  0  0  0  0  0  0
  179.9030  177.9440  138.9230 O   0  0  0  0  0  1  0  0  0  0  0  0
  186.5880  178.3640  139.4160 C   0  0  2  0  0  3  0  0  0  0  0  0
  185.8850  178.2510  141.8190 C   0  0  1  0  0  3  0  0  0  0  0  0
  181.6180  176.5480  139.7310 N   0  0  0  0  0  2  0  0  0  0  0  0
  187.0350  177.9520  142.4760 C   0  0  2  0  0  3  0  0  0  0  0  0
  183.3860  175.2170  135.8660 C   0  0  0  0  0  1  0  0  0  0  0  0
  183.0580  176.7250  139.9480 C   0  0  0  0  0  2  0  0  0  0  0  0
  182.8570  177.3430  136.9850 N   0  0  2  0  0  0  0  0  0  0  0  0
  185.1960  176.3750  137.1350 C   0  0  0  0  0  2  0  0  0  0  0  0
  182.1970  178.6680  138.8670 C   0  0  1  0  0  0  0  0  0  0  0  0
  181.8190  180.1280  139.0900 C   0  0  0  0  0  1  0  0  0  0  0  0
  189.3910  178.6280  142.7830 O   0  0  0  0  0  1  0  0  0  0  0  0
  184.5540  178.4900  142.4630 C   0  0  1  0  0  3  0  0  0  0  0  0
  186.9820  177.5410  143.9140 C   0  0  0  0  0  1  0  0  0  0  0  0
  183.4800  178.0830  139.3790 C   0  0  1  0  0  0  0  0  0  0  0  0
  181.2280  177.5470  138.7410 C   0  0  1  0  0  0  0  0  0  0  0  0
  188.7150  178.0290  140.6410 C   0  0  0  0  0  3  0  0  0  0  0  0
  186.7860  178.0860  136.9150 C   0  0  0  0  0  2  0  0  0  0  0  0
  188.3890  178.1980  141.9200 C   0  0  0  0  0  0  0  0  0  0  0  0
  184.3080  179.0450  140.2450 C   0  0  2  0  0  3  0  0  0  0  0  0
  183.6830  176.1210  137.0530 C   0  0  2  0  0  3  0  0  0  0  0  0
  186.3820  179.0030  138.0690 C   0  0  0  0  0  2  0  0  0  0  0  0
  187.7820  177.4840  139.6220 C   0  0  0  0  0  2  0  0  0  0  0  0
  183.3020  178.4390  137.8770 C   0  0  1  0  0  3  0  0  0  0  0  0
  185.7110  178.5680  140.4160 C   0  0  2  0  0  3  0  0  0  0  0  0
  183.8320  179.2610  144.6330 N   0  0  0  0  0  2  0  0  0  0  0  0
  184.6620  179.3800  143.6660 C   0  0  0  0  0  3  0  0  0  0  0  0
  186.0830  176.9160  135.0320 C   0  0  0  0  0  2  0  0  0  0  0  0
  187.0030  175.9010  135.2910 O   0  0  0  0  0  1  0  0  0  0  0  0
  1 21  1  0  0  0  0
  1 12  1  0  0  0  0
  2 16  1  0  0  0  0
  3 19  1  0  0  0  0
  5 25  1  6  0  0  0
  5 26  1  0  0  0  0
  5 28  1  0  0  0  0
  6 16  1  0  0  0  0
  6  8  1  0  0  0  0
  7 10  1  0  0  0  0
  8 17  1  0  0  0  0
  9 24  1  0  0  0  0
 11 24  1  0  0  0  0
 11  3  1  0  0  0  0
 11 27  1  0  0  0  0
 13 14  1  0  0  0  0
 13 18  1  0  0  0  0
 16 30  1  0  0  0  0
 18 10  1  0  0  0  0
 18 23  1  0  0  0  0
 19 13  1  0  0  0  0
 19  4  1  0  0  0  0
 19  7  1  0  0  0  0
 20 22  2  0  0  0  0
 21 25  1  0  0  0  0
 22  8  1  0  0  0  0
 22 15  1  0  0  0  0
 23 28  1  0  0  0  0
 23  2  1  0  0  0  0
 24 12  1  0  0  0  0
 26 20  1  0  0  0  0
 27 13  1  0  0  0  0
 27 18  1  0  0  0  0
 28  6  1  0  0  0  0
 30 29  2  0  0  0  0
 31 32  1  0  0  0  0
 31  1  1  0  0  0  0
M  END
>  <MODEL>
5

>  <REMARK>
 VINA RESULT:      -5.8      3.683      5.744
  Name = 
  2 active torsions:
  status: ('A' for Active; 'I' for Inactive)
    1  A    between atoms: N_2  and  C_14
    2  A    between atoms: C_18  and  C_20
                            x       y       z     vdW  Elec       q    Type
                         _______ _______ _______ _____ _____    ______ ____

>  <TORSDO>
F 2

$$$$
=
 OpenBabel10222416363D

 32 37  0  0  1  0  0  0  0  0999 V2000
  185.7310  178.9060  145.0670 N   0  0  0  0  0  0  0  0  0  0  0  0
  189.3350  178.2370  140.5570 O   0  0  0  0  0  0  0  0  0  0  0  0
  189.5540  176.9970  145.5930 C   0  0  0  0  0  2  0  0  0  0  0  0
  191.6900  176.9140  144.4770 O   0  0  0  0  0  1  0  0  0  0  0  0
  185.9490  178.9980  141.6830 C   0  0  2  0  0  3  0  0  0  0  0  0
  187.1350  177.9510  139.7390 C   0  0  1  0  0  3  0  0  0  0  0  0
  189.8450  175.8700  143.4540 N   0  0  0  0  0  2  0  0  0  0  0  0
  186.1550  177.7930  138.8130 C   0  0  2  0  0  3  0  0  0  0  0  0
  186.8190  176.3580  146.6860 C   0  0  0  0  0  1  0  0  0  0  0  0
  188.6660  176.3630  142.7320 C   0  0  0  0  0  2  0  0  0  0  0  0
  188.3370  177.7930  145.3870 N   0  0  2  0  0  0  0  0  0  0  0  0
  185.9220  177.5170  144.6660 C   0  0  0  0  0  2  0  0  0  0  0  0
  189.8730  178.2260  143.6010 C   0  0  1  0  0  0  0  0  0  0  0  0
  190.7930  179.3780  143.2140 C   0  0  0  0  0  1  0  0  0  0  0  0
  184.3550  178.9660  137.5940 O   0  0  0  0  0  1  0  0  0  0  0  0
  188.5770  177.5960  139.5460 C   0  0  1  0  0  3  0  0  0  0  0  0
  186.4100  176.9560  137.5990 C   0  0  0  0  0  1  0  0  0  0  0  0
  188.6350  177.8920  142.8240 C   0  0  1  0  0  0  0  0  0  0  0  0
  190.3100  176.9770  144.2810 C   0  0  1  0  0  0  0  0  0  0  0  0
  184.2180  178.9020  139.9140 C   0  0  0  0  0  3  0  0  0  0  0  0
  185.0520  179.5810  143.9690 C   0  0  0  0  0  2  0  0  0  0  0  0
  184.8880  178.5660  138.8150 C   0  0  0  0  0  0  0  0  0  0  0  0
  188.4500  178.7250  141.5470 C   0  0  2  0  0  3  0  0  0  0  0  0
  187.1710  176.8910  145.3060 C   0  0  2  0  0  3  0  0  0  0  0  0
  186.0310  179.9420  142.8520 C   0  0  0  0  0  2  0  0  0  0  0  0
  184.6090  178.4660  141.2790 C   0  0  0  0  0  2  0  0  0  0  0  0
  188.5520  178.6340  144.1860 C   0  0  1  0  0  3  0  0  0  0  0  0
  187.0590  178.6280  141.0180 C   0  0  2  0  0  3  0  0  0  0  0  0
  189.0560  179.3010  137.9050 N   0  0  0  0  0  2  0  0  0  0  0  0
  189.0980  178.0600  138.2180 C   0  0  0  0  0  3  0  0  0  0  0  0
  184.7980  178.9110  146.1820 C   0  0  0  0  0  2  0  0  0  0  0  0
  183.4940  179.0030  145.6990 O   0  0  0  0  0  1  0  0  0  0  0  0
  1 31  1  0  0  0  0
  2 23  1  0  0  0  0
  5 26  1  1  0  0  0
  5 25  1  0  0  0  0
  6 28  1  0  0  0  0
  7 19  1  0  0  0  0
  8 22  1  0  0  0  0
  8  6  1  0  0  0  0
 10 18  1  0  0  0  0
 10  7  1  0  0  0  0
 11  3  1  0  0  0  0
 12  1  1  0  0  0  0
 12 24  1  0  0  0  0
 13 27  1  0  0  0  0
 13 19  1  0  0  0  0
 14 13  1  0  0  0  0
 15 22  1  0  0  0  0
 16  6  1  0  0  0  0
 16  2  1  0  0  0  0
 17  8  1  0  0  0  0
 18 13  1  0  0  0  0
 18 27  1  0  0  0  0
 19  4  1  0  0  0  0
 19  3  1  0  0  0  0
 20 26  1  0  0  0  0
 21  1  1  0  0  0  0
 22 20  2  0  0  0  0
 23 18  1  0  0  0  0
 24 11  1  0  0  0  0
 24  9  1  0  0  0  0
 25 21  1  0  0  0  0
 27 11  1  0  0  0  0
 28 23  1  0  0  0  0
 28  5  1  0  0  0  0
 29 30  2  0  0  0  0
 30 16  1  0  0  0  0
 32 31  1  0  0  0  0
M  END
>  <MODEL>
6

>  <REMARK>
 VINA RESULT:      -5.1      2.996      7.705
  Name = 
  2 active torsions:
  status: ('A' for Active; 'I' for Inactive)
    1  A    between atoms: N_2  and  C_14
    2  A    between atoms: C_18  and  C_20
                            x       y       z     vdW  Elec       q    Type
                         _______ _______ _______ _____ _____    ______ ____

>  <TORSDO>
F 2

$$$$
=
 OpenBabel10222416363D

 32 37  0  0  1  0  0  0  0  0999 V2000
  180.8390  178.9560  140.7450 N   0  0  0  0  0  0  0  0  0  0  0  0
  183.7030  176.2660  136.4630 O   0  0  0  0  0  0  0  0  0  0  0  0
  178.9410  178.2770  136.9410 C   0  0  0  0  0  2  0  0  0  0  0  0
  179.1910  176.8080  135.0440 O   0  0  0  0  0  1  0  0  0  0  0  0
  183.9040  177.9590  139.6900 C   0  0  2  0  0  3  0  0  0  0  0  0
  185.2740  177.6010  137.6220 C   0  0  1  0  0  3  0  0  0  0  0  0
  180.8220  178.4660  135.4060 N   0  0  0  0  0  2  0  0  0  0  0  0
  186.4960  178.0860  137.9600 C   0  0  2  0  0  3  0  0  0  0  0  0
  178.9330  180.6500  138.7970 C   0  0  0  0  0  1  0  0  0  0  0  0
  181.9280  178.6170  136.3600 C   0  0  0  0  0  2  0  0  0  0  0  0
  179.5810  178.3390  138.2610 N   0  0  2  0  0  0  0  0  0  0  0  0
  181.1410  179.8170  139.6070 C   0  0  0  0  0  2  0  0  0  0  0  0
  180.6750  176.6720  136.9350 C   0  0  1  0  0  0  0  0  0  0  0  0
  180.6950  175.1480  136.9030 C   0  0  0  0  0  1  0  0  0  0  0  0
  188.2920  177.9670  139.6510 O   0  0  0  0  0  1  0  0  0  0  0  0
  184.9220  176.9710  136.3100 C   0  0  1  0  0  3  0  0  0  0  0  0
  187.5310  178.2920  136.8980 C   0  0  0  0  0  1  0  0  0  0  0  0
  181.8540  177.4820  137.3850 C   0  0  1  0  0  0  0  0  0  0  0  0
  179.8820  177.5330  136.0160 C   0  0  1  0  0  0  0  0  0  0  0  0
  186.1860  178.6440  140.3650 C   0  0  0  0  0  3  0  0  0  0  0  0
  182.1090  178.5820  141.3510 C   0  0  0  0  0  2  0  0  0  0  0  0
  186.9620  178.2450  139.3600 C   0  0  0  0  0  0  0  0  0  0  0  0
  183.1090  176.6500  137.6890 C   0  0  2  0  0  3  0  0  0  0  0  0
  180.0860  179.7060  138.4950 C   0  0  2  0  0  3  0  0  0  0  0  0
  182.7860  177.4600  140.5650 C   0  0  0  0  0  2  0  0  0  0  0  0
  184.7730  179.0680  140.1930 C   0  0  0  0  0  2  0  0  0  0  0  0
  180.6180  177.2810  138.3060 C   0  0  1  0  0  3  0  0  0  0  0  0
  184.1130  177.4270  138.4710 C   0  0  2  0  0  3  0  0  0  0  0  0
  186.0220  174.8230  136.3780 N   0  0  0  0  0  2  0  0  0  0  0  0
  185.9650  175.9910  135.8570 C   0  0  0  0  0  3  0  0  0  0  0  0
  180.1450  179.7700  141.7310 C   0  0  0  0  0  2  0  0  0  0  0  0
  180.9620  179.9480  142.8460 O   0  0  0  0  0  1  0  0  0  0  0  0
  1 21  1  0  0  0  0
  1 31  1  0  0  0  0
  2 23  1  0  0  0  0
  3 11  1  0  0  0  0
  4 19  1  0  0  0  0
  5 26  1  6  0  0  0
  5 25  1  0  0  0  0
  6  8  1  0  0  0  0
  6 28  1  0  0  0  0
  7 19  1  0  0  0  0
  7 10  1  0  0  0  0
  8 22  1  0  0  0  0
 10 18  1  0  0  0  0
 11 27  1  0  0  0  0
 11 24  1  0  0  0  0
 12  1  1  0  0  0  0
 13 18  1  0  0  0  0
 13 27  1  0  0  0  0
 14 13  1  0  0  0  0
 16  2  1  0  0  0  0
 16  6  1  0  0  0  0
 17  8  1  0  0  0  0
 18 23  1  0  0  0  0
 18 27  1  0  0  0  0
 19 13  1  0  0  0  0
 19  3  1  0  0  0  0
 22 15  1  0  0  0  0
 22 20  2  0  0  0  0
 23 28  1  0  0  0  0
 24  9  1  0  0  0  0
 24 12  1  0  0  0  0
 25 21  1  0  0  0  0
 26 20  1  0  0  0  0
 28  5  1  0  0  0  0
 30 16  1  0  0  0  0
 30 29  2  0  0  0  0
 31 32  1  0  0  0  0
M  END
>  <MODEL>
7

>  <REMARK>
 VINA RESULT:      -5.0      5.424      8.854
  Name = 
  2 active torsions:
  status: ('A' for Active; 'I' for Inactive)
    1  A    between atoms: N_2  and  C_14
    2  A    between atoms: C_18  and  C_20
                            x       y       z     vdW  Elec       q    Type
                         _______ _______ _______ _____ _____    ______ ____

>  <TORSDO>
F 2

$$$$
=
 OpenBabel10222416363D

 32 37  0  0  1  0  0  0  0  0999 V2000
  180.0110  174.5020  137.3830 N   0  0  0  0  0  0  0  0  0  0  0  0
  184.4490  178.2520  137.5560 O   0  0  0  0  0  0  0  0  0  0  0  0
  180.0820  177.6670  140.3010 C   0  0  0  0  0  2  0  0  0  0  0  0
  181.1370  179.8160  140.5970 O   0  0  0  0  0  1  0  0  0  0  0  0
  183.1800  175.0640  136.3130 C   0  0  2  0  0  3  0  0  0  0  0  0
  185.3430  176.1390  136.9830 C   0  0  1  0  0  3  0  0  0  0  0  0
  182.4660  177.8790  140.7470 N   0  0  0  0  0  2  0  0  0  0  0  0
  186.2830  175.2450  136.5820 C   0  0  2  0  0  3  0  0  0  0  0  0
  179.2900  174.7670  140.4990 C   0  0  0  0  0  1  0  0  0  0  0  0
  183.0050  176.9340  139.7630 C   0  0  0  0  0  2  0  0  0  0  0  0
  180.0350  176.7100  139.1890 N   0  0  2  0  0  0  0  0  0  0  0  0
  180.8380  174.3830  138.5800 C   0  0  0  0  0  2  0  0  0  0  0  0
  181.5650  178.4710  138.6470 C   0  0  1  0  0  0  0  0  0  0  0  0
  181.5460  179.6800  137.7190 C   0  0  0  0  0  1  0  0  0  0  0  0
  187.0800  173.9160  134.6580 O   0  0  0  0  0  1  0  0  0  0  0  0
  185.6220  177.4610  137.6280 C   0  0  1  0  0  3  0  0  0  0  0  0
  187.6990  175.4030  137.0390 C   0  0  0  0  0  1  0  0  0  0  0  0
  182.4240  177.2710  138.3860 C   0  0  1  0  0  0  0  0  0  0  0  0
  181.3200  178.5190  140.1140 C   0  0  1  0  0  0  0  0  0  0  0  0
  184.9070  173.5430  135.3960 C   0  0  0  0  0  3  0  0  0  0  0  0
  180.8400  174.1210  136.2490 C   0  0  0  0  0  2  0  0  0  0  0  0
  186.0480  174.2130  135.5410 C   0  0  0  0  0  0  0  0  0  0  0  0
  183.3660  177.4220  137.1810 C   0  0  2  0  0  3  0  0  0  0  0  0
  180.4190  175.3720  139.6790 C   0  0  2  0  0  3  0  0  0  0  0  0
  181.7680  175.2620  135.8330 C   0  0  0  0  0  2  0  0  0  0  0  0
  183.7520  173.6800  136.3200 C   0  0  0  0  0  2  0  0  0  0  0  0
  180.8960  177.2410  138.1060 C   0  0  1  0  0  3  0  0  0  0  0  0
  183.9150  176.1080  136.7390 C   0  0  2  0  0  3  0  0  0  0  0  0
  187.4800  179.0020  137.5900 N   0  0  0  0  0  2  0  0  0  0  0  0
  186.7220  178.2070  136.9320 C   0  0  0  0  0  3  0  0  0  0  0  0
  178.9660  173.4960  137.4770 C   0  0  0  0  0  2  0  0  0  0  0  0
  179.5450  172.2320  137.5890 O   0  0  0  0  0  1  0  0  0  0  0  0
  1 31  1  0  0  0  0
  1 12  1  0  0  0  0
  2 16  1  0  0  0  0
  5 25  1  1  0  0  0
  5 26  1  0  0  0  0
  5 28  1  0  0  0  0
  6 16  1  0  0  0  0
  8  6  1  0  0  0  0
  8 17  1  0  0  0  0
 10  7  1  0  0  0  0
 11 24  1  0  0  0  0
 11  3  1  0  0  0  0
 12 24  1  0  0  0  0
 13 19  1  0  0  0  0
 14 13  1  0  0  0  0
 15 22  1  0  0  0  0
 18 13  1  0  0  0  0
 18 10  1  0  0  0  0
 19  3  1  0  0  0  0
 19  4  1  0  0  0  0
 19  7  1  0  0  0  0
 20 22  2  0  0  0  0
 20 26  1  0  0  0  0
 21  1  1  0  0  0  0
 22  8  1  0  0  0  0
 23  2  1  0  0  0  0
 23 18  1  0  0  0  0
 24  9  1  0  0  0  0
 25 21  1  0  0  0  0
 27 18  1  0  0  0  0
 27 13  1  0  0  0  0
 27 11  1  0  0  0  0
 28  6  1  0  0  0  0
 28 23  1  0  0  0  0
 30 29  2  0  0  0  0
 30 16  1  0  0  0  0
 31 32  1  0  0  0  0
M  END
>  <MODEL>
8

>  <REMARK>
 VINA RESULT:      -4.9      5.671      9.209
  Name = 
  2 active torsions:
  status: ('A' for Active; 'I' for Inactive)
    1  A    between atoms: N_2  and  C_14
    2  A    between atoms: C_18  and  C_20
                            x       y       z     vdW  Elec       q    Type
                         _______ _______ _______ _____ _____    ______ ____

>  <TORSDO>
F 2

$$$$
=
 OpenBabel10222416363D

 32 37  0  0  1  0  0  0  0  0999 V2000
  189.0890  173.6720  136.5360 N   0  0  0  0  0  0  0  0  0  0  0  0
  184.0650  176.5490  137.0470 O   0  0  0  0  0  0  0  0  0  0  0  0
  188.9840  177.9610  136.1720 C   0  0  0  0  0  2  0  0  0  0  0  0
  187.5500  179.7850  136.8290 O   0  0  0  0  0  1  0  0  0  0  0  0
  185.7150  173.3290  136.5670 C   0  0  2  0  0  3  0  0  0  0  0  0
  183.5920  174.5100  135.9480 C   0  0  1  0  0  3  0  0  0  0  0  0
  186.8050  178.3180  135.1450 N   0  0  0  0  0  2  0  0  0  0  0  0
  182.8260  173.5280  135.4080 C   0  0  2  0  0  3  0  0  0  0  0  0
  190.4730  175.8470  134.6250 C   0  0  0  0  0  1  0  0  0  0  0  0
  186.2830  176.9470  135.1460 C   0  0  0  0  0  2  0  0  0  0  0  0
  188.9820  176.5210  136.4620 N   0  0  2  0  0  0  0  0  0  0  0  0
  188.6380  174.2950  135.2970 C   0  0  0  0  0  2  0  0  0  0  0  0
  186.9890  177.5040  137.3540 C   0  0  1  0  0  0  0  0  0  0  0  0
  186.4860  177.8700  138.7450 C   0  0  0  0  0  1  0  0  0  0  0  0
  181.9210  171.2630  135.7950 O   0  0  0  0  0  1  0  0  0  0  0  0
  183.1720  175.9350  136.1360 C   0  0  1  0  0  3  0  0  0  0  0  0
  181.5710  173.8860  134.6740 C   0  0  0  0  0  1  0  0  0  0  0  0
  186.4070  176.3730  136.5610 C   0  0  1  0  0  0  0  0  0  0  0  0
  187.5710  178.4650  136.3780 C   0  0  1  0  0  0  0  0  0  0  0  0
  184.2330  171.5090  135.7780 C   0  0  0  0  0  3  0  0  0  0  0  0
  188.1220  172.6370  136.8740 C   0  0  0  0  0  2  0  0  0  0  0  0
  183.0370  172.0810  135.6660 C   0  0  0  0  0  0  0  0  0  0  0  0
  185.1890  175.7060  137.2190 C   0  0  2  0  0  3  0  0  0  0  0  0
  189.0660  175.7680  135.1950 C   0  0  2  0  0  3  0  0  0  0  0  0
  186.8740  173.2360  137.5210 C   0  0  0  0  0  2  0  0  0  0  0  0
  185.5120  172.2330  135.5690 C   0  0  0  0  0  2  0  0  0  0  0  0
  187.7790  176.2300  137.2760 C   0  0  1  0  0  3  0  0  0  0  0  0
  184.8790  174.3850  136.6010 C   0  0  2  0  0  3  0  0  0  0  0  0
  181.5670  175.7380  137.9270 N   0  0  0  0  0  2  0  0  0  0  0  0
  181.7890  176.0440  136.7040 C   0  0  0  0  0  3  0  0  0  0  0  0
  190.3350  172.9810  136.2450 C   0  0  0  0  0  2  0  0  0  0  0  0
  191.3530  173.5000  137.0440 O   0  0  0  0  0  1  0  0  0  0  0  0
  1 21  1  0  0  0  0
  2 23  1  0  0  0  0
  3 19  1  0  0  0  0
  3 11  1  0  0  0  0
  5 26  1  6  0  0  0
  5 28  1  0  0  0  0
  5 25  1  0  0  0  0
  6 16  1  0  0  0  0
  6 28  1  0  0  0  0
  7 10  1  0  0  0  0
  7 19  1  0  0  0  0
  8 22  1  0  0  0  0
  8  6  1  0  0  0  0
  9 24  1  0  0  0  0
 10 18  1  0  0  0  0
 11 27  1  0  0  0  0
 12  1  1  0  0  0  0
 13 14  1  0  0  0  0
 16 30  1  0  0  0  0
 16  2  1  0  0  0  0
 17  8  1  0  0  0  0
 18 23  1  0  0  0  0
 18 27  1  0  0  0  0
 18 13  1  0  0  0  0
 19  4  1  0  0  0  0
 19 13  1  0  0  0  0
 21 25  1  0  0  0  0
 22 20  2  0  0  0  0
 22 15  1  0  0  0  0
 24 12  1  0  0  0  0
 24 11  1  0  0  0  0
 26 20  1  0  0  0  0
 27 13  1  0  0  0  0
 28 23  1  0  0  0  0
 30 29  2  0  0  0  0
 31  1  1  0  0  0  0
 31 32  1  0  0  0  0
M  END
>  <MODEL>
9

>  <REMARK>
 VINA RESULT:      -4.7      4.121      6.508
  Name = 
  2 active torsions:
  status: ('A' for Active; 'I' for Inactive)
    1  A    between atoms: N_2  and  C_14
    2  A    between atoms: C_18  and  C_20
                            x       y       z     vdW  Elec       q    Type
                         _______ _______ _______ _____ _____    ______ ____

>  <TORSDO>
F 2

$$$$
