=
 OpenBabel10222416013D

 25 28  0  0  1  0  0  0  0  0999 V2000
  191.4720  176.5320  146.6080 C   0  0  0  0  0  0  0  0  0  0  0  0
  187.5020  178.1490  148.3200 N   0  0  0  0  0  0  0  0  0  0  0  0
  188.5440  177.5150  146.4270 C   0  0  1  0  0  3  0  0  0  0  0  0
  192.5510  175.9950  146.9660 O   0  0  0  0  0  0  0  0  0  0  0  0
  188.7580  177.9480  148.5850 O   0  0  0  0  0  0  0  0  0  0  0  0
  189.4150  177.5490  147.5200 C   0  0  0  0  0  0  0  0  0  0  0  0
  187.3300  177.8670  147.0180 C   0  0  0  0  0  0  0  0  0  0  0  0
  190.2260  177.4230  144.6060 C   0  0  2  0  0  3  0  0  0  0  0  0
  188.0700  177.1090  142.6830 C   0  0  0  0  0  2  0  0  0  0  0  0
  190.3660  177.2690  143.0920 C   0  0  0  0  0  2  0  0  0  0  0  0
  190.6570  177.1660  147.5980 N   0  0  0  0  0  0  0  0  0  0  0  0
  186.0790  178.0360  146.3580 N   0  0  0  0  0  1  0  0  0  0  0  0
  189.2530  177.9060  142.3950 N   0  0  0  0  0  0  0  0  0  0  0  0
  187.6490  177.3150  144.1320 C   0  0  0  0  0  2  0  0  0  0  0  0
  191.0890  176.4520  145.2410 N   0  0  0  0  0  2  0  0  0  0  0  0
  188.8020  177.3230  145.1140 C   0  0  2  0  0  3  0  0  0  0  0  0
  189.4710  177.9320  140.9390 C   0  0  2  0  0  3  0  0  0  0  0  0
  188.2060  178.1730  140.0860 C   0  0  0  0  0  2  0  0  0  0  0  0
  188.2470  177.4730  138.7350 C   0  0  0  0  0  3  0  0  0  0  0  0
  187.1680  178.0570  137.8470 C   0  0  0  0  0  2  0  0  0  0  0  0
  188.6090  178.4810  137.6660 C   0  0  0  0  0  2  0  0  0  0  0  0
  190.3180  176.7440  140.4780 C   0  0  0  0  0  2  0  0  0  0  0  0
  191.5790  177.2080  139.7660 C   0  0  0  0  0  2  0  0  0  0  0  0
  191.7950  176.4050  138.4970 C   0  0  0  0  0  2  0  0  0  0  0  0
  190.9800  175.2740  138.5200 O   0  0  0  0  0  1  0  0  0  0  0  0
  1  4  2  0  0  0  0
  1 11  1  0  0  0  0
  2  5  1  0  0  0  0
  3  7  1  6  0  0  0
  3  6  1  0  0  0  0
  6 11  2  0  0  0  0
  6  5  1  0  0  0  0
  7  2  2  0  0  0  0
  8 10  1  6  0  0  0
  8 16  1  0  0  0  0
  8 15  1  0  0  0  0
  9 14  1  0  0  0  0
 12  7  1  0  0  0  0
 13  9  1  0  0  0  0
 13 10  1  0  0  0  0
 15  1  1  0  0  0  0
 16 14  1  6  0  0  0
 16  3  1  0  0  0  0
 17 18  1  6  0  0  0
 17 13  1  0  0  0  0
 19 18  1  0  0  0  0
 20 19  1  0  0  0  0
 21 20  1  0  0  0  0
 21 19  1  0  0  0  0
 22 17  1  0  0  0  0
 23 22  1  0  0  0  0
 24 25  1  0  0  0  0
 24 23  1  0  0  0  0
M  END
>  <MODEL>
1

>  <REMARK>
 VINA RESULT:      -8.1      0.000      0.000
  Name = 
  6 active torsions:
  status: ('A' for Active; 'I' for Inactive)
    1  A    between atoms: C_3  and  C_4
    2  A    between atoms: C_4  and  C_10
    3  A    between atoms: C_6  and  C_9
    4  A    between atoms: C_6  and  C_16
    5  A    between atoms: C_10  and  C_16
    6  A    between atoms: C_10  and  N_21
                            x       y       z     vdW  Elec       q    Type
                         _______ _______ _______ _____ _____    ______ ____

>  <TORSDO>
F 6

$$$$
=
 OpenBabel10222416013D

 25 28  0  0  1  0  0  0  0  0999 V2000
  192.3810  177.1450  139.8090 C   0  0  0  0  0  0  0  0  0  0  0  0
  188.8460  177.4350  136.8540 N   0  0  0  0  0  0  0  0  0  0  0  0
  189.4230  177.5950  139.0250 C   0  0  1  0  0  3  0  0  0  0  0  0
  193.6390  177.1250  139.8390 O   0  0  0  0  0  0  0  0  0  0  0  0
  190.0770  177.0390  136.9880 O   0  0  0  0  0  0  0  0  0  0  0  0
  190.4790  177.1350  138.2340 C   0  0  0  0  0  0  0  0  0  0  0  0
  188.4250  177.8090  138.0730 C   0  0  0  0  0  0  0  0  0  0  0  0
  190.3230  176.9800  141.2530 C   0  0  2  0  0  3  0  0  0  0  0  0
  188.0480  178.2990  142.4930 C   0  0  0  0  0  2  0  0  0  0  0  0
  190.0420  177.1070  142.7510 C   0  0  0  0  0  2  0  0  0  0  0  0
  191.7200  176.9140  138.5610 N   0  0  0  0  0  0  0  0  0  0  0  0
  187.0910  178.2450  138.3210 N   0  0  0  0  0  1  0  0  0  0  0  0
  188.6090  177.0640  143.0220 N   0  0  0  0  0  0  0  0  0  0  0  0
  188.0480  178.2560  140.9710 C   0  0  0  0  0  2  0  0  0  0  0  0
  191.6730  177.4360  141.0060 N   0  0  0  0  0  2  0  0  0  0  0  0
  189.3200  177.6940  140.3700 C   0  0  2  0  0  3  0  0  0  0  0  0
  188.3330  176.9920  144.4660 C   0  0  2  0  0  3  0  0  0  0  0  0
  186.8500  177.1530  144.8650 C   0  0  0  0  0  2  0  0  0  0  0  0
  186.5750  178.4080  145.6800 C   0  0  0  0  0  3  0  0  0  0  0  0
  185.2500  178.9960  145.2440 C   0  0  0  0  0  2  0  0  0  0  0  0
  185.3360  178.1900  146.5210 C   0  0  0  0  0  2  0  0  0  0  0  0
  189.2930  177.8780  145.2640 C   0  0  0  0  0  2  0  0  0  0  0  0
  189.8620  177.1370  146.4640 C   0  0  0  0  0  2  0  0  0  0  0  0
  191.3070  176.7530  146.2110 C   0  0  0  0  0  2  0  0  0  0  0  0
  191.9960  176.7170  147.4230 O   0  0  0  0  0  1  0  0  0  0  0  0
  1  4  2  0  0  0  0
  1 15  1  0  0  0  0
  2  5  1  0  0  0  0
  2  7  2  0  0  0  0
  3  7  1  1  0  0  0
  3 16  1  0  0  0  0
  5  6  1  0  0  0  0
  6 11  2  0  0  0  0
  6  3  1  0  0  0  0
  7 12  1  0  0  0  0
  8 10  1  1  0  0  0
  9 13  1  0  0  0  0
 10 13  1  0  0  0  0
 11  1  1  0  0  0  0
 13 17  1  0  0  0  0
 14  9  1  0  0  0  0
 15  8  1  0  0  0  0
 16 14  1  1  0  0  0
 16  8  1  0  0  0  0
 17 18  1  6  0  0  0
 17 22  1  0  0  0  0
 18 19  1  0  0  0  0
 19 21  1  0  0  0  0
 20 19  1  0  0  0  0
 20 21  1  0  0  0  0
 22 23  1  0  0  0  0
 24 23  1  0  0  0  0
 24 25  1  0  0  0  0
M  END
>  <MODEL>
2

>  <REMARK>
 VINA RESULT:      -8.1      2.296      7.122
  Name = 
  6 active torsions:
  status: ('A' for Active; 'I' for Inactive)
    1  A    between atoms: C_3  and  C_4
    2  A    between atoms: C_4  and  C_10
    3  A    between atoms: C_6  and  C_9
    4  A    between atoms: C_6  and  C_16
    5  A    between atoms: C_10  and  C_16
    6  A    between atoms: C_10  and  N_21
                            x       y       z     vdW  Elec       q    Type
                         _______ _______ _______ _____ _____    ______ ____

>  <TORSDO>
F 6

$$$$
=
 OpenBabel10222416013D

 25 28  0  0  1  0  0  0  0  0999 V2000
  184.5350  179.2620  139.7800 C   0  0  0  0  0  0  0  0  0  0  0  0
  180.5390  178.7040  142.0230 N   0  0  0  0  0  0  0  0  0  0  0  0
  182.7750  178.8010  142.2810 C   0  0  1  0  0  3  0  0  0  0  0  0
  184.9980  179.6520  138.6770 O   0  0  0  0  0  0  0  0  0  0  0  0
  181.0930  178.7210  140.8480 O   0  0  0  0  0  0  0  0  0  0  0  0
  182.4010  178.8040  140.9340 C   0  0  0  0  0  0  0  0  0  0  0  0
  181.5350  178.7800  142.9210 C   0  0  0  0  0  0  0  0  0  0  0  0
  185.1820  178.2710  142.0050 C   0  0  2  0  0  3  0  0  0  0  0  0
  185.5480  178.6240  144.8670 C   0  0  0  0  0  2  0  0  0  0  0  0
  186.4890  178.1310  142.7840 C   0  0  0  0  0  2  0  0  0  0  0  0
  183.1380  178.9670  139.8730 N   0  0  0  0  0  0  0  0  0  0  0  0
  181.3030  178.7240  144.3260 N   0  0  0  0  0  1  0  0  0  0  0  0
  186.2490  177.5900  144.1180 N   0  0  0  0  0  0  0  0  0  0  0  0
  184.1200  178.7530  144.3550 C   0  0  0  0  0  2  0  0  0  0  0  0
  185.4120  179.1690  140.8950 N   0  0  0  0  0  2  0  0  0  0  0  0
  184.0000  178.7110  142.8450 C   0  0  2  0  0  3  0  0  0  0  0  0
  187.5100  177.2710  144.8080 C   0  0  2  0  0  3  0  0  0  0  0  0
  187.7870  178.0860  146.0900 C   0  0  0  0  0  2  0  0  0  0  0  0
  188.0670  177.2190  147.3090 C   0  0  0  0  0  3  0  0  0  0  0  0
  189.2480  177.7960  148.0620 C   0  0  0  0  0  2  0  0  0  0  0  0
  187.8410  178.0390  148.5620 C   0  0  0  0  0  2  0  0  0  0  0  0
  188.6870  177.2260  143.8310 C   0  0  0  0  0  2  0  0  0  0  0  0
  189.8970  177.9610  144.3880 C   0  0  0  0  0  2  0  0  0  0  0  0
  191.0620  177.0050  144.5590 C   0  0  0  0  0  2  0  0  0  0  0  0
  191.7530  177.3210  145.7280 O   0  0  0  0  0  1  0  0  0  0  0  0
  1 11  1  0  0  0  0
  1 15  1  0  0  0  0
  2  7  2  0  0  0  0
  3  6  1  6  0  0  0
  3 16  1  0  0  0  0
  3  7  1  0  0  0  0
  4  1  2  0  0  0  0
  5  6  1  0  0  0  0
  5  2  1  0  0  0  0
  7 12  1  0  0  0  0
  8 10  1  1  0  0  0
  8 16  1  0  0  0  0
 10 13  1  0  0  0  0
 11  6  2  0  0  0  0
 13 17  1  0  0  0  0
 13  9  1  0  0  0  0
 14  9  1  0  0  0  0
 15  8  1  0  0  0  0
 16 14  1  1  0  0  0
 17 22  1  6  0  0  0
 17 18  1  0  0  0  0
 18 19  1  0  0  0  0
 19 20  1  0  0  0  0
 19 21  1  0  0  0  0
 20 21  1  0  0  0  0
 22 23  1  0  0  0  0
 23 24  1  0  0  0  0
 24 25  1  0  0  0  0
M  END
>  <MODEL>
3

>  <REMARK>
 VINA RESULT:      -8.0      4.451      7.646
  Name = 
  6 active torsions:
  status: ('A' for Active; 'I' for Inactive)
    1  A    between atoms: C_3  and  C_4
    2  A    between atoms: C_4  and  C_10
    3  A    between atoms: C_6  and  C_9
    4  A    between atoms: C_6  and  C_16
    5  A    between atoms: C_10  and  C_16
    6  A    between atoms: C_10  and  N_21
                            x       y       z     vdW  Elec       q    Type
                         _______ _______ _______ _____ _____    ______ ____

>  <TORSDO>
F 6

$$$$
=
 OpenBabel10222416013D

 25 28  0  0  1  0  0  0  0  0999 V2000
  189.8920  176.1390  143.4410 C   0  0  0  0  0  0  0  0  0  0  0  0
  190.0690  177.5350  147.8370 N   0  0  0  0  0  0  0  0  0  0  0  0
  188.7290  177.3590  146.0350 C   0  0  1  0  0  3  0  0  0  0  0  0
  190.5220  175.4420  142.6040 O   0  0  0  0  0  0  0  0  0  0  0  0
  190.7880  177.1730  146.8180 O   0  0  0  0  0  0  0  0  0  0  0  0
  190.0550  177.0270  145.7390 C   0  0  0  0  0  0  0  0  0  0  0  0
  188.8010  177.6310  147.4010 C   0  0  0  0  0  0  0  0  0  0  0  0
  187.8820  177.6340  143.7190 C   0  0  2  0  0  3  0  0  0  0  0  0
  185.2070  178.0220  144.7860 C   0  0  0  0  0  2  0  0  0  0  0  0
  186.6050  177.8860  142.9180 C   0  0  0  0  0  2  0  0  0  0  0  0
  190.5590  176.5410  144.6400 N   0  0  0  0  0  0  0  0  0  0  0  0
  187.7360  178.0700  148.2400 N   0  0  0  0  0  1  0  0  0  0  0  0
  185.6990  178.7730  143.6400 N   0  0  0  0  0  0  0  0  0  0  0  0
  186.3190  177.8600  145.8130 C   0  0  0  0  0  2  0  0  0  0  0  0
  188.5330  176.4620  143.1760 N   0  0  0  0  0  2  0  0  0  0  0  0
  187.6660  177.5110  145.2140 C   0  0  2  0  0  3  0  0  0  0  0  0
  184.5560  179.1760  142.8040 C   0  0  2  0  0  3  0  0  0  0  0  0
  183.2280  178.4470  143.1020 C   0  0  0  0  0  2  0  0  0  0  0  0
  182.0920  179.3880  143.4730 C   0  0  0  0  0  3  0  0  0  0  0  0
  180.9590  179.2020  142.4850 C   0  0  0  0  0  2  0  0  0  0  0  0
  180.8770  178.5690  143.8560 C   0  0  0  0  0  2  0  0  0  0  0  0
  184.9310  179.2080  141.3210 C   0  0  0  0  0  2  0  0  0  0  0  0
  183.9180  178.4490  140.4780 C   0  0  0  0  0  2  0  0  0  0  0  0
  183.3630  179.3430  139.3860 C   0  0  0  0  0  2  0  0  0  0  0  0
  184.3100  180.3110  139.0550 O   0  0  0  0  0  1  0  0  0  0  0  0
  1 11  1  0  0  0  0
  3  6  1  6  0  0  0
  3  7  1  0  0  0  0
  4  1  2  0  0  0  0
  5  2  1  0  0  0  0
  6  5  1  0  0  0  0
  7  2  2  0  0  0  0
  7 12  1  0  0  0  0
  8 10  1  6  0  0  0
  8 16  1  0  0  0  0
  9 14  1  0  0  0  0
 10 13  1  0  0  0  0
 11  6  2  0  0  0  0
 13  9  1  0  0  0  0
 15  1  1  0  0  0  0
 15  8  1  0  0  0  0
 16 14  1  1  0  0  0
 16  3  1  0  0  0  0
 17 22  1  6  0  0  0
 17 18  1  0  0  0  0
 17 13  1  0  0  0  0
 18 19  1  0  0  0  0
 19 21  1  0  0  0  0
 20 19  1  0  0  0  0
 20 21  1  0  0  0  0
 23 22  1  0  0  0  0
 24 23  1  0  0  0  0
 25 24  1  0  0  0  0
M  END
>  <MODEL>
4

>  <REMARK>
 VINA RESULT:      -7.9      3.698      5.189
  Name = 
  6 active torsions:
  status: ('A' for Active; 'I' for Inactive)
    1  A    between atoms: C_3  and  C_4
    2  A    between atoms: C_4  and  C_10
    3  A    between atoms: C_6  and  C_9
    4  A    between atoms: C_6  and  C_16
    5  A    between atoms: C_10  and  C_16
    6  A    between atoms: C_10  and  N_21
                            x       y       z     vdW  Elec       q    Type
                         _______ _______ _______ _____ _____    ______ ____

>  <TORSDO>
F 6

$$$$
=
 OpenBabel10222416013D

 25 28  0  0  1  0  0  0  0  0999 V2000
  184.3670  179.2830  139.8140 C   0  0  0  0  0  0  0  0  0  0  0  0
  180.2330  178.3730  141.6560 N   0  0  0  0  0  0  0  0  0  0  0  0
  182.3990  178.7580  142.1420 C   0  0  1  0  0  3  0  0  0  0  0  0
  184.9040  179.6610  138.7410 O   0  0  0  0  0  0  0  0  0  0  0  0
  180.9120  178.3880  140.5480 O   0  0  0  0  0  0  0  0  0  0  0  0
  182.1820  178.6360  140.7660 C   0  0  0  0  0  0  0  0  0  0  0  0
  181.1050  178.6230  142.6480 C   0  0  0  0  0  0  0  0  0  0  0  0
  184.8670  178.5110  142.1600 C   0  0  2  0  0  3  0  0  0  0  0  0
  184.8630  179.0730  145.0120 C   0  0  0  0  0  2  0  0  0  0  0  0
  186.0840  178.5770  143.0820 C   0  0  0  0  0  2  0  0  0  0  0  0
  183.0120  178.8250  139.7800 N   0  0  0  0  0  0  0  0  0  0  0  0
  180.7230  178.6220  144.0200 N   0  0  0  0  0  1  0  0  0  0  0  0
  185.7580  178.0910  144.4190 N   0  0  0  0  0  0  0  0  0  0  0  0
  183.4960  178.9960  144.3440 C   0  0  0  0  0  2  0  0  0  0  0  0
  185.1160  179.3630  141.0190 N   0  0  0  0  0  2  0  0  0  0  0  0
  183.5550  178.8510  142.8370 C   0  0  2  0  0  3  0  0  0  0  0  0
  186.9610  177.9700  145.2590 C   0  0  2  0  0  3  0  0  0  0  0  0
  188.1230  177.1630  144.6390 C   0  0  0  0  0  2  0  0  0  0  0  0
  189.4640  177.8780  144.7170 C   0  0  0  0  0  3  0  0  0  0  0  0
  190.5210  176.8910  145.1650 C   0  0  0  0  0  2  0  0  0  0  0  0
  190.4090  177.2670  143.7040 C   0  0  0  0  0  2  0  0  0  0  0  0
  186.6060  177.5530  146.6880 C   0  0  0  0  0  2  0  0  0  0  0  0
  187.0920  178.5790  147.7000 C   0  0  0  0  0  2  0  0  0  0  0  0
  188.2830  178.0380  148.4690 C   0  0  0  0  0  2  0  0  0  0  0  0
  188.5110  176.7140  148.0990 O   0  0  0  0  0  1  0  0  0  0  0  0
  1 15  1  0  0  0  0
  2  7  2  0  0  0  0
  3  6  1  6  0  0  0
  3  7  1  0  0  0  0
  3 16  1  0  0  0  0
  4  1  2  0  0  0  0
  5  6  1  0  0  0  0
  5  2  1  0  0  0  0
  7 12  1  0  0  0  0
  8 16  1  0  0  0  0
  8 10  1  1  0  0  0
 10 13  1  0  0  0  0
 11  1  1  0  0  0  0
 11  6  2  0  0  0  0
 13  9  1  0  0  0  0
 13 17  1  0  0  0  0
 14  9  1  0  0  0  0
 15  8  1  0  0  0  0
 16 14  1  1  0  0  0
 17 18  1  6  0  0  0
 17 22  1  0  0  0  0
 18 19  1  0  0  0  0
 19 20  1  0  0  0  0
 21 19  1  0  0  0  0
 21 20  1  0  0  0  0
 22 23  1  0  0  0  0
 23 24  1  0  0  0  0
 25 24  1  0  0  0  0
M  END
>  <MODEL>
5

>  <REMARK>
 VINA RESULT:      -7.7      4.655      7.981
  Name = 
  6 active torsions:
  status: ('A' for Active; 'I' for Inactive)
    1  A    between atoms: C_3  and  C_4
    2  A    between atoms: C_4  and  C_10
    3  A    between atoms: C_6  and  C_9
    4  A    between atoms: C_6  and  C_16
    5  A    between atoms: C_10  and  C_16
    6  A    between atoms: C_10  and  N_21
                            x       y       z     vdW  Elec       q    Type
                         _______ _______ _______ _____ _____    ______ ____

>  <TORSDO>
F 6

$$$$
=
 OpenBabel10222416013D

 25 28  0  0  1  0  0  0  0  0999 V2000
  186.2250  178.6300  141.3380 C   0  0  0  0  0  0  0  0  0  0  0  0
  189.6650  178.2280  138.2850 N   0  0  0  0  0  0  0  0  0  0  0  0
  189.0280  177.7300  140.3880 C   0  0  1  0  0  3  0  0  0  0  0  0
  185.0020  178.9150  141.4100 O   0  0  0  0  0  0  0  0  0  0  0  0
  188.5480  178.8420  138.5380 O   0  0  0  0  0  0  0  0  0  0  0  0
  188.1120  178.5690  139.7460 C   0  0  0  0  0  0  0  0  0  0  0  0
  189.9730  177.5170  139.3830 C   0  0  0  0  0  0  0  0  0  0  0  0
  188.2440  178.0300  142.7220 C   0  0  2  0  0  3  0  0  0  0  0  0
  190.1540  176.0140  143.5810 C   0  0  0  0  0  2  0  0  0  0  0  0
  188.4630  177.5250  144.1490 C   0  0  0  0  0  2  0  0  0  0  0  0
  186.9430  178.9770  140.1500 N   0  0  0  0  0  0  0  0  0  0  0  0
  191.1750  176.7590  139.4910 N   0  0  0  0  0  1  0  0  0  0  0  0
  189.8660  177.1970  144.3790 N   0  0  0  0  0  0  0  0  0  0  0  0
  190.1910  176.3840  142.1050 C   0  0  0  0  0  2  0  0  0  0  0  0
  186.8320  177.9420  142.4230 N   0  0  0  0  0  2  0  0  0  0  0  0
  189.0820  177.3240  141.6770 C   0  0  2  0  0  3  0  0  0  0  0  0
  190.1250  176.8940  145.7970 C   0  0  2  0  0  3  0  0  0  0  0  0
  189.5390  177.9040  146.8070 C   0  0  0  0  0  2  0  0  0  0  0  0
  188.4470  177.3130  147.6870 C   0  0  0  0  0  3  0  0  0  0  0  0
  188.1920  178.2510  148.8490 C   0  0  0  0  0  2  0  0  0  0  0  0
  187.2450  178.2340  147.6690 C   0  0  0  0  0  2  0  0  0  0  0  0
  191.5980  176.5550  146.0360 C   0  0  0  0  0  2  0  0  0  0  0  0
  191.7570  175.5470  147.1650 C   0  0  0  0  0  2  0  0  0  0  0  0
  192.8520  175.9890  148.1160 C   0  0  0  0  0  2  0  0  0  0  0  0
  192.4380  177.1310  148.8010 O   0  0  0  0  0  1  0  0  0  0  0  0
  1  4  2  0  0  0  0
  1 15  1  0  0  0  0
  2  5  1  0  0  0  0
  2  7  2  0  0  0  0
  3  7  1  1  0  0  0
  3 16  1  0  0  0  0
  5  6  1  0  0  0  0
  6 11  2  0  0  0  0
  6  3  1  0  0  0  0
  7 12  1  0  0  0  0
  8 10  1  1  0  0  0
  9 13  1  0  0  0  0
 10 13  1  0  0  0  0
 11  1  1  0  0  0  0
 13 17  1  0  0  0  0
 14  9  1  0  0  0  0
 15  8  1  0  0  0  0
 16 14  1  1  0  0  0
 16  8  1  0  0  0  0
 17 22  1  6  0  0  0
 17 18  1  0  0  0  0
 18 19  1  0  0  0  0
 19 20  1  0  0  0  0
 21 19  1  0  0  0  0
 21 20  1  0  0  0  0
 22 23  1  0  0  0  0
 23 24  1  0  0  0  0
 24 25  1  0  0  0  0
M  END
>  <MODEL>
6

>  <REMARK>
 VINA RESULT:      -7.7      2.530      7.544
  Name = 
  6 active torsions:
  status: ('A' for Active; 'I' for Inactive)
    1  A    between atoms: C_3  and  C_4
    2  A    between atoms: C_4  and  C_10
    3  A    between atoms: C_6  and  C_9
    4  A    between atoms: C_6  and  C_16
    5  A    between atoms: C_10  and  C_16
    6  A    between atoms: C_10  and  N_21
                            x       y       z     vdW  Elec       q    Type
                         _______ _______ _______ _____ _____    ______ ____

>  <TORSDO>
F 6

$$$$
=
 OpenBabel10222416013D

 25 28  0  0  1  0  0  0  0  0999 V2000
  192.2170  176.8970  138.9870 C   0  0  0  0  0  0  0  0  0  0  0  0
  188.4790  177.3100  136.3090 N   0  0  0  0  0  0  0  0  0  0  0  0
  189.2560  177.5780  138.4060 C   0  0  1  0  0  3  0  0  0  0  0  0
  193.4650  176.7540  138.9180 O   0  0  0  0  0  0  0  0  0  0  0  0
  189.6750  176.8050  136.3780 O   0  0  0  0  0  0  0  0  0  0  0  0
  190.1920  176.9550  137.5750 C   0  0  0  0  0  0  0  0  0  0  0  0
  188.2020  177.8160  137.5220 C   0  0  0  0  0  0  0  0  0  0  0  0
  190.2870  177.0490  140.6000 C   0  0  2  0  0  3  0  0  0  0  0  0
  188.2610  178.6780  141.9010 C   0  0  0  0  0  2  0  0  0  0  0  0
  190.1510  177.3160  142.0990 C   0  0  0  0  0  2  0  0  0  0  0  0
  191.4310  176.6380  137.8200 N   0  0  0  0  0  0  0  0  0  0  0  0
  186.9420  178.4010  137.8370 N   0  0  0  0  0  1  0  0  0  0  0  0
  188.7490  177.4370  142.4850 N   0  0  0  0  0  0  0  0  0  0  0  0
  188.1240  178.5190  140.3930 C   0  0  0  0  0  2  0  0  0  0  0  0
  191.6460  177.3470  140.2080 N   0  0  0  0  0  2  0  0  0  0  0  0
  189.2810  177.7890  139.7420 C   0  0  2  0  0  3  0  0  0  0  0  0
  188.5950  177.5040  143.9480 C   0  0  2  0  0  3  0  0  0  0  0  0
  189.5990  176.6550  144.7580 C   0  0  0  0  0  2  0  0  0  0  0  0
  190.4420  177.4750  145.7240 C   0  0  0  0  0  3  0  0  0  0  0  0
  190.5060  176.7530  147.0540 C   0  0  0  0  0  2  0  0  0  0  0  0
  191.6770  176.6820  146.0990 C   0  0  0  0  0  2  0  0  0  0  0  0
  187.1360  177.3120  144.3670 C   0  0  0  0  0  2  0  0  0  0  0  0
  186.8370  178.0280  145.6740 C   0  0  0  0  0  2  0  0  0  0  0  0
  185.4280  178.5900  145.6580 C   0  0  0  0  0  2  0  0  0  0  0  0
  184.9300  178.6300  146.9600 O   0  0  0  0  0  1  0  0  0  0  0  0
  1 15  1  0  0  0  0
  2  5  1  0  0  0  0
  2  7  2  0  0  0  0
  3  7  1  1  0  0  0
  3 16  1  0  0  0  0
  4  1  2  0  0  0  0
  5  6  1  0  0  0  0
  6 11  2  0  0  0  0
  6  3  1  0  0  0  0
  7 12  1  0  0  0  0
  8 10  1  1  0  0  0
  9 13  1  0  0  0  0
 10 13  1  0  0  0  0
 11  1  1  0  0  0  0
 13 17  1  0  0  0  0
 14  9  1  0  0  0  0
 15  8  1  0  0  0  0
 16 14  1  1  0  0  0
 16  8  1  0  0  0  0
 17 22  1  6  0  0  0
 17 18  1  0  0  0  0
 18 19  1  0  0  0  0
 19 21  1  0  0  0  0
 19 20  1  0  0  0  0
 21 20  1  0  0  0  0
 22 23  1  0  0  0  0
 24 23  1  0  0  0  0
 24 25  1  0  0  0  0
M  END
>  <MODEL>
7

>  <REMARK>
 VINA RESULT:      -7.6      2.930      7.773
  Name = 
  6 active torsions:
  status: ('A' for Active; 'I' for Inactive)
    1  A    between atoms: C_3  and  C_4
    2  A    between atoms: C_4  and  C_10
    3  A    between atoms: C_6  and  C_9
    4  A    between atoms: C_6  and  C_16
    5  A    between atoms: C_10  and  C_16
    6  A    between atoms: C_10  and  N_21
                            x       y       z     vdW  Elec       q    Type
                         _______ _______ _______ _____ _____    ______ ____

>  <TORSDO>
F 6

$$$$
=
 OpenBabel10222416013D

 25 28  0  0  1  0  0  0  0  0999 V2000
  191.4790  176.3280  146.4980 C   0  0  0  0  0  0  0  0  0  0  0  0
  187.8130  178.3540  148.4380 N   0  0  0  0  0  0  0  0  0  0  0  0
  188.6220  177.5130  146.5110 C   0  0  1  0  0  3  0  0  0  0  0  0
  192.5490  175.7370  146.7970 O   0  0  0  0  0  0  0  0  0  0  0  0
  189.0720  178.0780  148.6010 O   0  0  0  0  0  0  0  0  0  0  0  0
  189.5940  177.5570  147.5150 C   0  0  0  0  0  0  0  0  0  0  0  0
  187.4970  177.9950  147.1820 C   0  0  0  0  0  0  0  0  0  0  0  0
  190.1100  177.1690  144.5570 C   0  0  2  0  0  3  0  0  0  0  0  0
  187.7620  176.8840  142.8680 C   0  0  0  0  0  2  0  0  0  0  0  0
  190.0920  176.9000  143.0520 C   0  0  0  0  0  2  0  0  0  0  0  0
  190.8090  177.0880  147.5080 N   0  0  0  0  0  0  0  0  0  0  0  0
  186.2030  178.2110  146.6280 N   0  0  0  0  0  1  0  0  0  0  0  0
  188.9640  177.5680  142.4130 N   0  0  0  0  0  0  0  0  0  0  0  0
  187.4970  177.2220  144.3290 C   0  0  0  0  0  2  0  0  0  0  0  0
  190.9620  176.1820  145.1820 N   0  0  0  0  0  2  0  0  0  0  0  0
  188.7380  177.2120  145.1980 C   0  0  2  0  0  3  0  0  0  0  0  0
  189.0410  177.4770  140.9450 C   0  0  2  0  0  3  0  0  0  0  0  0
  190.4610  177.5910  140.3490 C   0  0  0  0  0  2  0  0  0  0  0  0
  190.8470  176.4060  139.4760 C   0  0  0  0  0  3  0  0  0  0  0  0
  190.9970  176.8790  138.0450 C   0  0  0  0  0  2  0  0  0  0  0  0
  192.2250  176.6470  138.8980 C   0  0  0  0  0  2  0  0  0  0  0  0
  188.0070  178.3830  140.2730 C   0  0  0  0  0  2  0  0  0  0  0  0
  187.7190  177.9330  138.8500 C   0  0  0  0  0  2  0  0  0  0  0  0
  186.2830  178.2460  138.4770 C   0  0  0  0  0  2  0  0  0  0  0  0
  185.6720  178.9370  139.5230 O   0  0  0  0  0  1  0  0  0  0  0  0
  1  4  2  0  0  0  0
  1 11  1  0  0  0  0
  2  5  1  0  0  0  0
  3  7  1  6  0  0  0
  3  6  1  0  0  0  0
  6  5  1  0  0  0  0
  7  2  2  0  0  0  0
  8 10  1  6  0  0  0
  8 15  1  0  0  0  0
  8 16  1  0  0  0  0
  9 14  1  0  0  0  0
 11  6  2  0  0  0  0
 12  7  1  0  0  0  0
 13  9  1  0  0  0  0
 13 10  1  0  0  0  0
 15  1  1  0  0  0  0
 16 14  1  6  0  0  0
 16  3  1  0  0  0  0
 17 22  1  6  0  0  0
 17 13  1  0  0  0  0
 18 17  1  0  0  0  0
 19 18  1  0  0  0  0
 20 21  1  0  0  0  0
 20 19  1  0  0  0  0
 21 19  1  0  0  0  0
 23 22  1  0  0  0  0
 24 23  1  0  0  0  0
 24 25  1  0  0  0  0
M  END
>  <MODEL>
8

>  <REMARK>
 VINA RESULT:      -7.5      1.432      2.455
  Name = 
  6 active torsions:
  status: ('A' for Active; 'I' for Inactive)
    1  A    between atoms: C_3  and  C_4
    2  A    between atoms: C_4  and  C_10
    3  A    between atoms: C_6  and  C_9
    4  A    between atoms: C_6  and  C_16
    5  A    between atoms: C_10  and  C_16
    6  A    between atoms: C_10  and  N_21
                            x       y       z     vdW  Elec       q    Type
                         _______ _______ _______ _____ _____    ______ ____

>  <TORSDO>
F 6

$$$$
=
 OpenBabel10222416013D

 25 28  0  0  1  0  0  0  0  0999 V2000
  186.2320  178.1010  145.2500 C   0  0  0  0  0  0  0  0  0  0  0  0
  189.9020  176.7760  147.7160 N   0  0  0  0  0  0  0  0  0  0  0  0
  189.2150  177.3950  145.6620 C   0  0  1  0  0  3  0  0  0  0  0  0
  185.0550  178.5230  145.3870 O   0  0  0  0  0  0  0  0  0  0  0  0
  188.6050  176.8520  147.7170 O   0  0  0  0  0  0  0  0  0  0  0  0
  188.1450  177.2360  146.5480 C   0  0  0  0  0  0  0  0  0  0  0  0
  190.3100  177.1280  146.4850 C   0  0  0  0  0  0  0  0  0  0  0  0
  187.9430  177.4120  143.5330 C   0  0  2  0  0  3  0  0  0  0  0  0
  190.4080  178.0000  142.1100 C   0  0  0  0  0  2  0  0  0  0  0  0
  188.1040  177.6170  142.0270 C   0  0  0  0  0  2  0  0  0  0  0  0
  186.8830  177.5020  146.3740 N   0  0  0  0  0  0  0  0  0  0  0  0
  191.6810  177.1010  146.0970 N   0  0  0  0  0  1  0  0  0  0  0  0
  189.3920  177.1130  141.5630 N   0  0  0  0  0  0  0  0  0  0  0  0
  190.5400  177.7710  143.6090 C   0  0  0  0  0  2  0  0  0  0  0  0
  186.8780  178.2740  143.9960 N   0  0  0  0  0  2  0  0  0  0  0  0
  189.2160  177.6180  144.3280 C   0  0  2  0  0  3  0  0  0  0  0  0
  189.4830  177.1290  140.0930 C   0  0  2  0  0  3  0  0  0  0  0  0
  190.9150  177.1710  139.5190 C   0  0  0  0  0  2  0  0  0  0  0  0
  191.2540  175.9680  138.6510 C   0  0  0  0  0  3  0  0  0  0  0  0
  191.3710  176.4190  137.2100 C   0  0  0  0  0  2  0  0  0  0  0  0
  192.6190  176.1750  138.0300 C   0  0  0  0  0  2  0  0  0  0  0  0
  188.5370  178.1670  139.4860 C   0  0  0  0  0  2  0  0  0  0  0  0
  187.9820  177.6950  138.1510 C   0  0  0  0  0  2  0  0  0  0  0  0
  188.3830  178.6520  137.0440 C   0  0  0  0  0  2  0  0  0  0  0  0
  189.0550  179.7420  137.5950 O   0  0  0  0  0  1  0  0  0  0  0  0
  1  4  2  0  0  0  0
  1 11  1  0  0  0  0
  2  5  1  0  0  0  0
  3  7  1  6  0  0  0
  3  6  1  0  0  0  0
  6  5  1  0  0  0  0
  7  2  2  0  0  0  0
  8 10  1  6  0  0  0
  8 15  1  0  0  0  0
  8 16  1  0  0  0  0
  9 14  1  0  0  0  0
 11  6  2  0  0  0  0
 12  7  1  0  0  0  0
 13 10  1  0  0  0  0
 13  9  1  0  0  0  0
 15  1  1  0  0  0  0
 16 14  1  6  0  0  0
 16  3  1  0  0  0  0
 17 22  1  1  0  0  0
 17 13  1  0  0  0  0
 18 17  1  0  0  0  0
 19 18  1  0  0  0  0
 20 21  1  0  0  0  0
 20 19  1  0  0  0  0
 21 19  1  0  0  0  0
 23 22  1  0  0  0  0
 24 25  1  0  0  0  0
 24 23  1  0  0  0  0
M  END
>  <MODEL>
9

>  <REMARK>
 VINA RESULT:      -7.4      1.768      3.743
  Name = 
  6 active torsions:
  status: ('A' for Active; 'I' for Inactive)
    1  A    between atoms: C_3  and  C_4
    2  A    between atoms: C_4  and  C_10
    3  A    between atoms: C_6  and  C_9
    4  A    between atoms: C_6  and  C_16
    5  A    between atoms: C_10  and  C_16
    6  A    between atoms: C_10  and  N_21
                            x       y       z     vdW  Elec       q    Type
                         _______ _______ _______ _____ _____    ______ ____

>  <TORSDO>
F 6

$$$$
