=
 OpenBabel10222416023D

 55 62  0  0  1  0  0  0  0  0999 V2000
  182.7680  178.8070  141.6930 C   0  0  0  0  0  3  0  0  0  0  0  0
  187.6630  177.8550  145.6610 C   0  0  0  0  0  2  0  0  0  0  0  0
  188.4830  178.2520  148.1920 C   0  0  1  0  0  3  0  0  0  0  0  0
  182.4140  179.0280  144.1020 C   0  0  0  0  0  3  0  0  0  0  0  0
  184.1050  178.7750  145.7320 O   0  0  0  0  0  0  0  0  0  0  0  0
  184.2500  178.6190  141.8740 C   0  0  0  0  0  2  0  0  0  0  0  0
  185.4300  178.4690  146.0470 C   0  0  0  0  0  0  0  0  0  0  0  0
  183.6890  178.7780  144.3960 C   0  0  0  0  0  0  0  0  0  0  0  0
  185.9660  178.4120  147.4300 C   0  0  0  0  0  2  0  0  0  0  0  0
  186.3230  178.1890  145.1020 C   0  0  0  0  0  0  0  0  0  0  0  0
  187.4020  178.0220  147.1490 C   0  0  1  0  0  0  0  0  0  0  0  0
  184.6740  178.4850  143.3190 C   0  0  0  0  0  0  0  0  0  0  0  0
  185.9550  178.1960  143.6610 C   0  0  0  0  0  0  0  0  0  0  0  0
  181.9250  179.0150  142.7080 C   0  0  0  0  0  0  0  0  0  0  0  0
  187.8870  176.8630  147.9890 C   0  0  0  0  0  2  0  0  0  0  0  0
  189.1070  176.7230  141.8910 C   0  0  0  0  0  3  0  0  0  0  0  0
  186.9910  178.5960  141.4890 C   0  0  0  0  0  3  0  0  0  0  0  0
  188.0010  178.3420  140.4570 C   0  0  0  0  0  0  0  0  0  0  0  0
  186.9950  177.9170  142.6430 C   0  0  0  0  0  0  0  0  0  0  0  0
  187.9120  178.9340  139.3500 O   0  0  0  0  0  0  0  0  0  0  0  0
  189.1180  177.4140  140.7490 C   0  0  0  0  0  0  0  0  0  0  0  0
  187.9660  176.7810  142.8760 C   0  0  0  0  0  2  0  0  0  0  0  0
  191.4760  177.1040  140.3120 N   0  0  0  0  0  0  0  0  0  0  0  0
  190.2740  177.2440  139.8560 C   0  0  0  0  0  3  0  0  0  0  0  0
  193.7220  177.4520  139.7670 O   0  0  0  0  0  0  0  0  0  0  0  0
  192.6110  176.9400  139.4550 C   0  0  0  0  0  0  0  0  0  0  0  0
  192.4980  173.0740  136.1940 C   0  0  0  0  0  3  0  0  0  0  0  0
  191.3040  173.6850  136.6890 N   0  0  0  0  0  2  0  0  0  0  0  0
  192.4760  176.1640  138.2080 C   0  0  0  0  0  0  0  0  0  0  0  0
  193.9670  174.2190  137.8670 C   0  0  1  0  0  3  0  0  0  0  0  0
  193.7110  175.6810  137.5100 C   0  0  0  0  0  2  0  0  0  0  0  0
  191.0250  175.0970  136.4770 C   0  0  0  0  0  2  0  0  0  0  0  0
  193.7090  173.3230  136.6960 C   0  0  0  0  0  3  0  0  0  0  0  0
  191.2600  175.8790  137.7300 C   0  0  0  0  0  3  0  0  0  0  0  0
  195.6740  174.8540  139.4520 O   0  0  0  0  0  1  0  0  0  0  0  0
  195.3880  174.0010  138.3840 C   0  0  1  0  0  3  0  0  0  0  0  0
  195.5690  172.6200  138.7950 N   0  0  0  0  0  1  0  0  0  0  0  0
  189.8710  178.3070  147.5700 C   0  0  0  0  0  2  0  0  0  0  0  0
  191.6400  176.5310  147.7330 C   0  0  0  0  0  1  0  0  0  0  0  0
  190.3060  176.9190  147.1130 C   0  0  2  0  0  3  0  0  0  0  0  0
  190.3270  176.7910  145.6510 N   0  0  0  0  0  2  0  0  0  0  0  0
  191.6830  176.9540  145.1350 C   0  0  0  0  0  2  0  0  0  0  0  0
  191.6740  177.9610  144.0060 C   0  0  0  0  0  1  0  0  0  0  0  0
  180.5710  179.2100  142.4290 O   0  0  0  0  0  0  0  0  0  0  0  0
  180.0570  179.0300  141.1610 N   0  0  0  0  0  2  0  0  0  0  0  0
  180.2630  180.2740  140.4280 C   0  0  0  0  0  2  0  0  0  0  0  0
  179.4440  181.0610  136.9460 O   0  0  0  0  0  0  0  0  0  0  0  0
  180.0410  180.0670  138.9200 C   0  0  2  0  0  0  0  0  0  0  0  0
  180.7530  182.6230  137.8770 O   0  0  0  0  0  0  0  0  0  0  0  0
  179.5250  178.6580  138.6690 C   0  0  0  0  0  1  0  0  0  0  0  0
  181.2910  180.2940  138.0630 C   0  0  1  0  0  3  0  0  0  0  0  0
  179.0870  181.0980  138.2860 C   0  0  1  0  0  3  0  0  0  0  0  0
  179.5830  182.4850  138.6440 C   0  0  0  0  0  2  0  0  0  0  0  0
  180.7800  181.4120  137.1450 C   0  0  1  0  0  3  0  0  0  0  0  0
  182.4000  180.7220  138.8030 O   0  0  0  0  0  1  0  0  0  0  0  0
  1  6  1  0  0  0  0
  1 14  2  0  0  0  0
  3 38  1  6  0  0  0
  4  8  2  0  0  0  0
  5  7  1  0  0  0  0
  6 12  1  0  0  0  0
  7  9  1  0  0  0  0
  8  5  1  0  0  0  0
 10  2  1  0  0  0  0
 10  7  2  0  0  0  0
 11  2  1  6  0  0  0
 11  9  1  0  0  0  0
 11 15  1  0  0  0  0
 11  3  1  0  0  0  0
 12 13  2  0  0  0  0
 12  8  1  0  0  0  0
 13 10  1  0  0  0  0
 14  4  1  0  0  0  0
 15  3  1  0  0  0  0
 16 22  1  0  0  0  0
 17 19  2  0  0  0  0
 18 21  1  0  0  0  0
 18 17  1  0  0  0  0
 19 22  1  0  0  0  0
 19 13  1  0  0  0  0
 20 18  2  0  0  0  0
 21 16  2  0  0  0  0
 24 23  2  0  0  0  0
 24 21  1  0  0  0  0
 26 25  2  0  0  0  0
 26 23  1  0  0  0  0
 27 28  1  0  0  0  0
 27 33  2  0  0  0  0
 29 26  1  0  0  0  0
 30 36  1  6  0  0  0
 31 30  1  0  0  0  0
 31 29  1  0  0  0  0
 32 28  1  0  0  0  0
 32 34  1  0  0  0  0
 33 30  1  0  0  0  0
 34 29  2  0  0  0  0
 36 37  1  1  0  0  0
 36 35  1  0  0  0  0
 40 38  1  0  0  0  0
 40 39  1  6  0  0  0
 41 40  1  0  0  0  0
 42 41  1  0  0  0  0
 43 42  1  0  0  0  0
 44 14  1  0  0  0  0
 45 44  1  0  0  0  0
 46 45  1  0  0  0  0
 47 52  1  0  0  0  0
 48 50  1  6  0  0  0
 48 46  1  0  0  0  0
 49 53  1  0  0  0  0
 51 55  1  1  0  0  0
 51 48  1  0  0  0  0
 52 53  1  1  0  0  0
 52 48  1  0  0  0  0
 54 47  1  1  0  0  0
 54 49  1  0  0  0  0
 54 51  1  0  0  0  0
M  END
>  <MODEL>
1

>  <REMARK>
 VINA RESULT:     -11.4      0.000      0.000
  Name = 
  13 active torsions:
  status: ('A' for Active; 'I' for Inactive)
    1  A    between atoms: C_1  and  C_5
    2  A    between atoms: C_1  and  C_48
    3  A    between atoms: C_11  and  C_38
    4  A    between atoms: O_14  and  N_23
    5  A    between atoms: O_14  and  C_46
    6  A    between atoms: C_18  and  C_44
    7  A    between atoms: C_20  and  C_24
    8  A    between atoms: C_22  and  C_37
    9  A    between atoms: N_23  and  C_37
   10  A    between atoms: N_28  and  C_35
   11  A    between atoms: N_28  and  C_48
   12  A    between atoms: C_32  and  C_39
   13  A    between atoms: N_36  and  C_38
                            x       y       z     vdW  Elec       q    Type
                         _______ _______ _______ _____ _____    ______ ____

>  <TORSDO>
F 13

$$$$
=
 OpenBabel10222416023D

 55 62  0  0  1  0  0  0  0  0999 V2000
  183.3580  178.7200  141.5600 C   0  0  0  0  0  3  0  0  0  0  0  0
  188.2870  177.6150  145.4460 C   0  0  0  0  0  2  0  0  0  0  0  0
  189.1180  177.8890  147.9900 C   0  0  1  0  0  3  0  0  0  0  0  0
  183.0170  178.8140  143.9790 C   0  0  0  0  0  3  0  0  0  0  0  0
  184.7200  178.4950  145.5840 O   0  0  0  0  0  0  0  0  0  0  0  0
  184.8430  178.5380  141.7230 C   0  0  0  0  0  2  0  0  0  0  0  0
  186.0500  178.1860  145.8750 C   0  0  0  0  0  0  0  0  0  0  0  0
  184.2960  178.5610  144.2530 C   0  0  0  0  0  0  0  0  0  0  0  0
  186.5960  178.0630  147.2510 C   0  0  0  0  0  2  0  0  0  0  0  0
  186.9400  177.9630  144.9130 C   0  0  0  0  0  0  0  0  0  0  0  0
  188.0330  177.7020  146.9430 C   0  0  1  0  0  0  0  0  0  0  0  0
  185.2770  178.3340  143.1560 C   0  0  0  0  0  0  0  0  0  0  0  0
  186.5630  178.0410  143.4760 C   0  0  0  0  0  0  0  0  0  0  0  0
  182.5200  178.8670  142.5890 C   0  0  0  0  0  0  0  0  0  0  0  0
  188.5350  176.5070  147.7180 C   0  0  0  0  0  2  0  0  0  0  0  0
  189.7580  176.7490  141.6430 C   0  0  0  0  0  3  0  0  0  0  0  0
  187.5410  178.5110  141.2910 C   0  0  0  0  0  3  0  0  0  0  0  0
  188.5460  178.3200  140.2420 C   0  0  0  0  0  0  0  0  0  0  0  0
  187.5990  177.8250  142.4400 C   0  0  0  0  0  0  0  0  0  0  0  0
  188.4090  178.9140  139.1410 O   0  0  0  0  0  0  0  0  0  0  0  0
  189.7150  177.4490  140.5080 C   0  0  0  0  0  0  0  0  0  0  0  0
  188.6330  176.7390  142.6460 C   0  0  0  0  0  2  0  0  0  0  0  0
  191.2340  176.2160  139.0860 N   0  0  0  0  0  0  0  0  0  0  0  0
  190.8630  177.3460  139.5950 C   0  0  0  0  0  3  0  0  0  0  0  0
  193.4050  176.7610  138.4140 O   0  0  0  0  0  0  0  0  0  0  0  0
  192.3510  176.1000  138.1990 C   0  0  0  0  0  0  0  0  0  0  0  0
  193.3800  172.3970  134.9080 C   0  0  0  0  0  3  0  0  0  0  0  0
  192.3270  172.2890  135.8690 N   0  0  0  0  0  2  0  0  0  0  0  0
  192.2660  175.1970  137.0350 C   0  0  0  0  0  0  0  0  0  0  0  0
  194.3720  174.4250  135.9910 C   0  0  1  0  0  3  0  0  0  0  0  0
  193.2030  175.4000  135.8830 C   0  0  0  0  0  2  0  0  0  0  0  0
  191.2210  173.2340  135.8980 C   0  0  0  0  0  2  0  0  0  0  0  0
  194.2950  173.3680  134.9340 C   0  0  0  0  0  3  0  0  0  0  0  0
  191.3770  174.1990  137.0300 C   0  0  0  0  0  3  0  0  0  0  0  0
  195.5590  176.4830  135.5630 O   0  0  0  0  0  1  0  0  0  0  0  0
  195.7190  175.1400  135.9120 C   0  0  1  0  0  3  0  0  0  0  0  0
  196.4200  175.0420  137.1800 N   0  0  0  0  0  1  0  0  0  0  0  0
  190.5020  177.9900  147.3640 C   0  0  0  0  0  2  0  0  0  0  0  0
  192.2280  177.1340  148.9750 C   0  0  0  0  0  1  0  0  0  0  0  0
  191.3600  176.7970  147.7720 C   0  0  2  0  0  3  0  0  0  0  0  0
  192.1540  176.2700  146.6570 N   0  0  0  0  0  2  0  0  0  0  0  0
  191.6000  176.6970  145.3760 C   0  0  0  0  0  2  0  0  0  0  0  0
  191.8550  175.6290  144.3350 C   0  0  0  0  0  1  0  0  0  0  0  0
  181.1620  179.0630  142.3280 O   0  0  0  0  0  0  0  0  0  0  0  0
  180.3640  178.0530  141.8320 N   0  0  0  0  0  2  0  0  0  0  0  0
  180.6940  177.8900  140.4220 C   0  0  0  0  0  2  0  0  0  0  0  0
  179.4620  175.4100  138.0250 O   0  0  0  0  0  0  0  0  0  0  0  0
  180.1590  176.5530  139.8810 C   0  0  2  0  0  0  0  0  0  0  0  0
  181.2470  176.5180  137.2470 O   0  0  0  0  0  0  0  0  0  0  0  0
  179.2910  175.8870  140.9390 C   0  0  0  0  0  1  0  0  0  0  0  0
  181.2490  175.5670  139.4470 C   0  0  1  0  0  3  0  0  0  0  0  0
  179.3740  176.6850  138.5630 C   0  0  1  0  0  3  0  0  0  0  0  0
  180.2370  177.4400  137.5710 C   0  0  0  0  0  2  0  0  0  0  0  0
  180.8560  175.3700  137.9780 C   0  0  1  0  0  3  0  0  0  0  0  0
  182.5440  176.0920  139.5530 O   0  0  0  0  0  1  0  0  0  0  0  0
  1  6  1  0  0  0  0
  1 14  2  0  0  0  0
  3 38  1  6  0  0  0
  4  8  2  0  0  0  0
  5  7  1  0  0  0  0
  6 12  1  0  0  0  0
  7  9  1  0  0  0  0
  8  5  1  0  0  0  0
 10  2  1  0  0  0  0
 10  7  2  0  0  0  0
 11  2  1  6  0  0  0
 11  9  1  0  0  0  0
 11 15  1  0  0  0  0
 11  3  1  0  0  0  0
 12 13  2  0  0  0  0
 12  8  1  0  0  0  0
 13 10  1  0  0  0  0
 14  4  1  0  0  0  0
 15  3  1  0  0  0  0
 16 22  1  0  0  0  0
 17 19  2  0  0  0  0
 18 21  1  0  0  0  0
 18 17  1  0  0  0  0
 19 22  1  0  0  0  0
 19 13  1  0  0  0  0
 20 18  2  0  0  0  0
 21 16  2  0  0  0  0
 23 24  2  0  0  0  0
 24 21  1  0  0  0  0
 26 25  2  0  0  0  0
 26 23  1  0  0  0  0
 27 33  2  0  0  0  0
 27 28  1  0  0  0  0
 28 32  1  0  0  0  0
 29 26  1  0  0  0  0
 30 36  1  6  0  0  0
 31 30  1  0  0  0  0
 31 29  1  0  0  0  0
 32 34  1  0  0  0  0
 33 30  1  0  0  0  0
 34 29  2  0  0  0  0
 36 35  1  1  0  0  0
 36 37  1  0  0  0  0
 38 40  1  0  0  0  0
 40 39  1  1  0  0  0
 41 40  1  0  0  0  0
 42 41  1  0  0  0  0
 43 42  1  0  0  0  0
 44 14  1  0  0  0  0
 45 44  1  0  0  0  0
 46 45  1  0  0  0  0
 47 52  1  0  0  0  0
 48 46  1  0  0  0  0
 48 50  1  1  0  0  0
 49 53  1  0  0  0  0
 51 55  1  6  0  0  0
 51 48  1  0  0  0  0
 52 53  1  6  0  0  0
 52 48  1  0  0  0  0
 54 49  1  6  0  0  0
 54 47  1  0  0  0  0
 54 51  1  0  0  0  0
M  END
>  <MODEL>
2

>  <REMARK>
 VINA RESULT:     -11.1      2.037      2.442
  Name = 
  13 active torsions:
  status: ('A' for Active; 'I' for Inactive)
    1  A    between atoms: C_1  and  C_5
    2  A    between atoms: C_1  and  C_48
    3  A    between atoms: C_11  and  C_38
    4  A    between atoms: O_14  and  N_23
    5  A    between atoms: O_14  and  C_46
    6  A    between atoms: C_18  and  C_44
    7  A    between atoms: C_20  and  C_24
    8  A    between atoms: C_22  and  C_37
    9  A    between atoms: N_23  and  C_37
   10  A    between atoms: N_28  and  C_35
   11  A    between atoms: N_28  and  C_48
   12  A    between atoms: C_32  and  C_39
   13  A    between atoms: N_36  and  C_38
                            x       y       z     vdW  Elec       q    Type
                         _______ _______ _______ _____ _____    ______ ____

>  <TORSDO>
F 13

$$$$
=
 OpenBabel10222416023D

 55 62  0  0  1  0  0  0  0  0999 V2000
  192.5070  176.0190  135.6710 C   0  0  0  0  0  3  0  0  0  0  0  0
  189.1110  177.4690  140.8650 C   0  0  0  0  0  2  0  0  0  0  0  0
  189.2270  177.5510  143.5510 C   0  0  1  0  0  3  0  0  0  0  0  0
  193.6580  176.3170  137.8070 C   0  0  0  0  0  3  0  0  0  0  0  0
  192.5810  176.7970  139.8530 O   0  0  0  0  0  0  0  0  0  0  0  0
  191.1550  176.1520  136.3200 C   0  0  0  0  0  2  0  0  0  0  0  0
  191.4050  177.0820  140.5500 C   0  0  0  0  0  0  0  0  0  0  0  0
  192.5310  176.5460  138.4780 C   0  0  0  0  0  0  0  0  0  0  0  0
  191.3510  177.3880  142.0020 C   0  0  0  0  0  2  0  0  0  0  0  0
  190.2230  177.1090  139.9420 C   0  0  0  0  0  0  0  0  0  0  0  0
  189.8670  177.6270  142.1750 C   0  0  1  0  0  0  0  0  0  0  0  0
  191.2170  176.5530  137.7760 C   0  0  0  0  0  0  0  0  0  0  0  0
  190.0950  176.8290  138.4870 C   0  0  0  0  0  0  0  0  0  0  0  0
  193.6550  176.0740  136.3500 C   0  0  0  0  0  0  0  0  0  0  0  0
  189.5420  178.9020  142.9180 C   0  0  0  0  0  2  0  0  0  0  0  0
  186.6980  178.0580  137.0080 C   0  0  0  0  0  3  0  0  0  0  0  0
  188.1470  175.6680  137.5870 C   0  0  0  0  0  3  0  0  0  0  0  0
  186.8200  175.6320  136.9650 C   0  0  0  0  0  0  0  0  0  0  0  0
  188.7510  176.8310  137.8620 C   0  0  0  0  0  0  0  0  0  0  0  0
  186.3220  174.5230  136.6380 O   0  0  0  0  0  0  0  0  0  0  0  0
  186.0840  176.9000  136.7550 C   0  0  0  0  0  0  0  0  0  0  0  0
  188.1430  178.1470  137.4300 C   0  0  0  0  0  2  0  0  0  0  0  0
  183.7410  176.3330  136.9570 N   0  0  0  0  0  0  0  0  0  0  0  0
  184.6810  176.9500  136.3160 C   0  0  0  0  0  3  0  0  0  0  0  0
  181.8750  175.4000  135.9020 O   0  0  0  0  0  0  0  0  0  0  0  0
  182.3720  176.3700  136.5400 C   0  0  0  0  0  0  0  0  0  0  0  0
  180.9750  181.1140  137.6070 C   0  0  0  0  0  3  0  0  0  0  0  0
  180.7640  180.5320  136.3190 N   0  0  0  0  0  2  0  0  0  0  0  0
  181.5430  177.5460  136.8670 C   0  0  0  0  0  0  0  0  0  0  0  0
  182.4890  179.2710  138.3670 C   0  0  1  0  0  3  0  0  0  0  0  0
  181.5450  178.0760  138.2690 C   0  0  0  0  0  2  0  0  0  0  0  0
  179.9560  179.3340  136.1460 C   0  0  0  0  0  2  0  0  0  0  0  0
  181.7280  180.5470  138.5510 C   0  0  0  0  0  3  0  0  0  0  0  0
  180.8220  178.1380  135.9100 C   0  0  0  0  0  3  0  0  0  0  0  0
  184.4830  180.0970  139.4500 O   0  0  0  0  0  1  0  0  0  0  0  0
  183.5030  179.1040  139.4980 C   0  0  1  0  0  3  0  0  0  0  0  0
  182.8330  179.1360  140.7860 N   0  0  0  0  0  1  0  0  0  0  0  0
  187.7300  177.2870  143.4690 C   0  0  0  0  0  2  0  0  0  0  0  0
  185.9350  178.2340  144.9490 C   0  0  0  0  0  1  0  0  0  0  0  0
  187.1140  177.2760  144.8650 C   0  0  2  0  0  3  0  0  0  0  0  0
  188.1030  177.5350  145.9170 N   0  0  0  0  0  2  0  0  0  0  0  0
  187.4470  177.9210  147.1630 C   0  0  0  0  0  2  0  0  0  0  0  0
  188.4600  177.9160  148.2870 C   0  0  0  0  0  1  0  0  0  0  0  0
  194.8560  175.9070  135.6550 O   0  0  0  0  0  0  0  0  0  0  0  0
  196.0470  175.6680  136.3090 N   0  0  0  0  0  2  0  0  0  0  0  0
  196.4160  174.2830  136.0470 C   0  0  0  0  0  2  0  0  0  0  0  0
  195.3290  171.9320  138.6370 O   0  0  0  0  0  0  0  0  0  0  0  0
  196.4400  173.4630  137.3490 C   0  0  2  0  0  0  0  0  0  0  0  0
  195.0370  171.1060  136.5750 O   0  0  0  0  0  0  0  0  0  0  0  0
  197.1420  174.2600  138.4390 C   0  0  0  0  0  1  0  0  0  0  0  0
  197.1220  172.0970  137.2210 C   0  0  1  0  0  3  0  0  0  0  0  0
  195.0450  173.0260  137.8330 C   0  0  1  0  0  3  0  0  0  0  0  0
  194.3440  172.3240  136.6870 C   0  0  0  0  0  2  0  0  0  0  0  0
  195.9630  171.1850  137.6420 C   0  0  1  0  0  3  0  0  0  0  0  0
  197.5390  171.8060  135.9160 O   0  0  0  0  0  1  0  0  0  0  0  0
  1  6  1  0  0  0  0
  1 14  2  0  0  0  0
  3 38  1  6  0  0  0
  4  8  2  0  0  0  0
  5  7  1  0  0  0  0
  6 12  1  0  0  0  0
  7  9  1  0  0  0  0
  8  5  1  0  0  0  0
  9 11  1  0  0  0  0
 10  7  2  0  0  0  0
 10  2  1  0  0  0  0
 11  2  1  6  0  0  0
 11 15  1  0  0  0  0
 11  3  1  0  0  0  0
 12  8  1  0  0  0  0
 12 13  2  0  0  0  0
 13 10  1  0  0  0  0
 14  4  1  0  0  0  0
 15  3  1  0  0  0  0
 16 22  1  0  0  0  0
 17 19  2  0  0  0  0
 18 17  1  0  0  0  0
 19 13  1  0  0  0  0
 20 18  2  0  0  0  0
 21 18  1  0  0  0  0
 21 16  2  0  0  0  0
 22 19  1  0  0  0  0
 24 21  1  0  0  0  0
 24 23  2  0  0  0  0
 25 26  2  0  0  0  0
 26 29  1  0  0  0  0
 26 23  1  0  0  0  0
 27 33  2  0  0  0  0
 28 27  1  0  0  0  0
 29 31  1  0  0  0  0
 30 33  1  0  0  0  0
 30 36  1  1  0  0  0
 31 30  1  0  0  0  0
 32 28  1  0  0  0  0
 34 32  1  0  0  0  0
 34 29  2  0  0  0  0
 36 35  1  1  0  0  0
 36 37  1  0  0  0  0
 38 40  1  0  0  0  0
 40 39  1  6  0  0  0
 40 41  1  0  0  0  0
 41 42  1  0  0  0  0
 42 43  1  0  0  0  0
 44 45  1  0  0  0  0
 44 14  1  0  0  0  0
 46 45  1  0  0  0  0
 46 48  1  0  0  0  0
 48 52  1  0  0  0  0
 48 50  1  1  0  0  0
 49 53  1  0  0  0  0
 51 55  1  6  0  0  0
 51 48  1  0  0  0  0
 51 54  1  0  0  0  0
 52 53  1  6  0  0  0
 52 47  1  0  0  0  0
 54 49  1  6  0  0  0
 54 47  1  0  0  0  0
M  END
>  <MODEL>
3

>  <REMARK>
 VINA RESULT:     -10.9      2.887     11.692
  Name = 
  13 active torsions:
  status: ('A' for Active; 'I' for Inactive)
    1  A    between atoms: C_1  and  C_5
    2  A    between atoms: C_1  and  C_48
    3  A    between atoms: C_11  and  C_38
    4  A    between atoms: O_14  and  N_23
    5  A    between atoms: O_14  and  C_46
    6  A    between atoms: C_18  and  C_44
    7  A    between atoms: C_20  and  C_24
    8  A    between atoms: C_22  and  C_37
    9  A    between atoms: N_23  and  C_37
   10  A    between atoms: N_28  and  C_35
   11  A    between atoms: N_28  and  C_48
   12  A    between atoms: C_32  and  C_39
   13  A    between atoms: N_36  and  C_38
                            x       y       z     vdW  Elec       q    Type
                         _______ _______ _______ _____ _____    ______ ____

>  <TORSDO>
F 13

$$$$
=
 OpenBabel10222416023D

 55 62  0  0  1  0  0  0  0  0999 V2000
  190.0820  176.6930  136.3900 C   0  0  0  0  0  3  0  0  0  0  0  0
  189.1310  178.1180  142.5290 C   0  0  0  0  0  2  0  0  0  0  0  0
  190.1100  177.7170  145.0010 C   0  0  1  0  0  3  0  0  0  0  0  0
  191.8820  176.3100  137.9990 C   0  0  0  0  0  3  0  0  0  0  0  0
  191.7130  176.7150  140.3190 O   0  0  0  0  0  0  0  0  0  0  0  0
  189.1170  177.0740  137.4800 C   0  0  0  0  0  2  0  0  0  0  0  0
  190.9680  177.1850  141.4020 C   0  0  0  0  0  0  0  0  0  0  0  0
  191.1550  176.7190  139.0370 C   0  0  0  0  0  0  0  0  0  0  0  0
  191.4740  177.2490  142.7970 C   0  0  0  0  0  2  0  0  0  0  0  0
  189.7240  177.6300  141.2520 C   0  0  0  0  0  0  0  0  0  0  0  0
  190.2710  177.8460  143.4960 C   0  0  1  0  0  0  0  0  0  0  0  0
  189.7580  177.1960  138.8440 C   0  0  0  0  0  0  0  0  0  0  0  0
  189.0620  177.6410  139.9200 C   0  0  0  0  0  0  0  0  0  0  0  0
  191.3440  176.3230  136.6240 C   0  0  0  0  0  0  0  0  0  0  0  0
  190.6110  179.0190  144.3860 C   0  0  0  0  0  2  0  0  0  0  0  0
  185.5710  178.5710  138.4400 C   0  0  0  0  0  3  0  0  0  0  0  0
  187.0500  178.6320  140.8800 C   0  0  0  0  0  3  0  0  0  0  0  0
  185.6620  179.1000  140.8090 C   0  0  0  0  0  0  0  0  0  0  0  0
  187.6600  178.1090  139.8090 C   0  0  0  0  0  0  0  0  0  0  0  0
  185.0920  179.5010  141.8570 O   0  0  0  0  0  0  0  0  0  0  0  0
  184.9690  179.1130  139.5000 C   0  0  0  0  0  0  0  0  0  0  0  0
  186.9040  177.8700  138.5210 C   0  0  0  0  0  2  0  0  0  0  0  0
  182.5540  179.1470  139.6410 N   0  0  0  0  0  0  0  0  0  0  0  0
  183.6530  179.7370  139.2950 C   0  0  0  0  0  3  0  0  0  0  0  0
  180.6230  180.2030  140.4280 O   0  0  0  0  0  0  0  0  0  0  0  0
  181.2670  179.7410  139.4450 C   0  0  0  0  0  0  0  0  0  0  0  0
  180.5350  181.0400  134.6100 C   0  0  0  0  0  3  0  0  0  0  0  0
  181.1240  179.7920  134.9800 N   0  0  0  0  0  2  0  0  0  0  0  0
  180.6980  179.8150  138.0850 C   0  0  0  0  0  0  0  0  0  0  0  0
  180.7290  181.9960  136.9160 C   0  0  1  0  0  3  0  0  0  0  0  0
  179.8730  181.0060  137.7010 C   0  0  0  0  0  2  0  0  0  0  0  0
  180.4150  178.8280  135.8080 C   0  0  0  0  0  2  0  0  0  0  0  0
  180.3270  182.0340  135.4750 C   0  0  0  0  0  3  0  0  0  0  0  0
  180.9440  178.8380  137.2070 C   0  0  0  0  0  3  0  0  0  0  0  0
  181.9130  184.0270  137.4680 O   0  0  0  0  0  1  0  0  0  0  0  0
  180.6650  183.4010  137.5110 C   0  0  1  0  0  3  0  0  0  0  0  0
  179.6860  184.2060  136.8010 N   0  0  0  0  0  1  0  0  0  0  0  0
  188.6600  177.8830  145.4350 C   0  0  0  0  0  2  0  0  0  0  0  0
  189.2790  176.7420  147.5860 C   0  0  0  0  0  1  0  0  0  0  0  0
  188.5600  177.9260  146.9560 C   0  0  2  0  0  3  0  0  0  0  0  0
  187.1740  178.0340  147.4240 N   0  0  0  0  0  2  0  0  0  0  0  0
  186.2380  177.6590  146.3680 C   0  0  0  0  0  2  0  0  0  0  0  0
  185.1010  178.6560  146.3250 C   0  0  0  0  0  1  0  0  0  0  0  0
  192.1480  175.9570  135.5420 O   0  0  0  0  0  0  0  0  0  0  0  0
  193.0090  174.8810  135.6070 N   0  0  0  0  0  2  0  0  0  0  0  0
  194.2270  175.3380  136.2650 C   0  0  0  0  0  2  0  0  0  0  0  0
  197.4240  173.5640  136.0430 O   0  0  0  0  0  0  0  0  0  0  0  0
  195.2500  174.1960  136.3840 C   0  0  2  0  0  0  0  0  0  0  0  0
  197.6640  175.6310  136.8740 O   0  0  0  0  0  0  0  0  0  0  0  0
  194.5530  172.8620  136.1600 C   0  0  0  0  0  1  0  0  0  0  0  0
  195.9860  174.1470  137.7280 C   0  0  1  0  0  3  0  0  0  0  0  0
  196.4480  174.3320  135.4250 C   0  0  1  0  0  3  0  0  0  0  0  0
  197.0510  175.7100  135.6110 C   0  0  0  0  0  2  0  0  0  0  0  0
  197.4340  174.2830  137.2400 C   0  0  1  0  0  3  0  0  0  0  0  0
  195.6450  175.2010  138.5840 O   0  0  0  0  0  1  0  0  0  0  0  0
  1 14  2  0  0  0  0
  1  6  1  0  0  0  0
  3 38  1  6  0  0  0
  4  8  2  0  0  0  0
  5  7  1  0  0  0  0
  6 12  1  0  0  0  0
  7  9  1  0  0  0  0
  8  5  1  0  0  0  0
  9 11  1  0  0  0  0
 10  7  2  0  0  0  0
 10  2  1  0  0  0  0
 11  2  1  6  0  0  0
 11 15  1  0  0  0  0
 11  3  1  0  0  0  0
 12  8  1  0  0  0  0
 12 13  2  0  0  0  0
 13 10  1  0  0  0  0
 14  4  1  0  0  0  0
 15  3  1  0  0  0  0
 16 22  1  0  0  0  0
 16 21  2  0  0  0  0
 18 17  1  0  0  0  0
 18 20  2  0  0  0  0
 19 13  1  0  0  0  0
 19 17  2  0  0  0  0
 21 18  1  0  0  0  0
 22 19  1  0  0  0  0
 24 21  1  0  0  0  0
 24 23  2  0  0  0  0
 26 23  1  0  0  0  0
 26 25  2  0  0  0  0
 27 28  1  0  0  0  0
 27 33  2  0  0  0  0
 28 32  1  0  0  0  0
 29 26  1  0  0  0  0
 30 36  1  1  0  0  0
 30 31  1  0  0  0  0
 31 29  1  0  0  0  0
 32 34  1  0  0  0  0
 33 30  1  0  0  0  0
 34 29  2  0  0  0  0
 35 36  1  0  0  0  0
 36 37  1  6  0  0  0
 38 40  1  0  0  0  0
 40 41  1  0  0  0  0
 40 39  1  1  0  0  0
 42 41  1  0  0  0  0
 43 42  1  0  0  0  0
 44 45  1  0  0  0  0
 44 14  1  0  0  0  0
 45 46  1  0  0  0  0
 46 48  1  0  0  0  0
 48 50  1  6  0  0  0
 48 51  1  0  0  0  0
 49 54  1  0  0  0  0
 51 55  1  1  0  0  0
 52 53  1  1  0  0  0
 52 47  1  0  0  0  0
 52 48  1  0  0  0  0
 53 49  1  0  0  0  0
 54 47  1  6  0  0  0
 54 51  1  0  0  0  0
M  END
>  <MODEL>
4

>  <REMARK>
 VINA RESULT:     -10.4      2.436     11.564
  Name = 
  13 active torsions:
  status: ('A' for Active; 'I' for Inactive)
    1  A    between atoms: C_1  and  C_5
    2  A    between atoms: C_1  and  C_48
    3  A    between atoms: C_11  and  C_38
    4  A    between atoms: O_14  and  N_23
    5  A    between atoms: O_14  and  C_46
    6  A    between atoms: C_18  and  C_44
    7  A    between atoms: C_20  and  C_24
    8  A    between atoms: C_22  and  C_37
    9  A    between atoms: N_23  and  C_37
   10  A    between atoms: N_28  and  C_35
   11  A    between atoms: N_28  and  C_48
   12  A    between atoms: C_32  and  C_39
   13  A    between atoms: N_36  and  C_38
                            x       y       z     vdW  Elec       q    Type
                         _______ _______ _______ _____ _____    ______ ____

>  <TORSDO>
F 13

$$$$
=
 OpenBabel10222416023D

 55 62  0  0  1  0  0  0  0  0999 V2000
  183.2810  179.5080  138.7170 C   0  0  0  0  0  3  0  0  0  0  0  0
  186.5760  177.9520  143.9460 C   0  0  0  0  0  2  0  0  0  0  0  0
  186.5850  178.1860  146.6250 C   0  0  1  0  0  3  0  0  0  0  0  0
  182.2060  179.6870  140.9040 C   0  0  0  0  0  3  0  0  0  0  0  0
  183.2670  179.2170  142.9610 O   0  0  0  0  0  0  0  0  0  0  0  0
  184.6090  179.1680  139.3380 C   0  0  0  0  0  2  0  0  0  0  0  0
  184.3950  178.7710  143.6530 C   0  0  0  0  0  0  0  0  0  0  0  0
  183.2960  179.3030  141.5650 C   0  0  0  0  0  0  0  0  0  0  0  0
  184.4610  178.6180  145.1280 C   0  0  0  0  0  2  0  0  0  0  0  0
  185.5140  178.4340  143.0190 C   0  0  0  0  0  0  0  0  0  0  0  0
  185.8730  178.0970  145.2860 C   0  0  1  0  0  0  0  0  0  0  0  0
  184.5430  178.9470  140.8320 C   0  0  0  0  0  0  0  0  0  0  0  0
  185.6210  178.5230  141.5380 C   0  0  0  0  0  0  0  0  0  0  0  0
  182.1820  179.7660  139.4300 C   0  0  0  0  0  0  0  0  0  0  0  0
  185.9700  176.8700  146.1620 C   0  0  0  0  0  2  0  0  0  0  0  0
  189.3450  177.4910  140.9900 C   0  0  0  0  0  3  0  0  0  0  0  0
  187.0070  178.2620  139.5470 C   0  0  0  0  0  3  0  0  0  0  0  0
  188.2570  177.9200  138.8620 C   0  0  0  0  0  0  0  0  0  0  0  0
  186.9020  178.1750  140.8790 C   0  0  0  0  0  0  0  0  0  0  0  0
  188.2910  177.9270  137.6030 O   0  0  0  0  0  0  0  0  0  0  0  0
  189.4590  177.5990  139.6650 C   0  0  0  0  0  0  0  0  0  0  0  0
  188.0280  177.6060  141.7140 C   0  0  0  0  0  2  0  0  0  0  0  0
  191.1620  176.3260  138.5120 N   0  0  0  0  0  0  0  0  0  0  0  0
  190.7960  177.4310  139.0760 C   0  0  0  0  0  3  0  0  0  0  0  0
  193.4280  176.8660  138.3150 O   0  0  0  0  0  0  0  0  0  0  0  0
  192.4610  176.1470  137.9370 C   0  0  0  0  0  0  0  0  0  0  0  0
  194.0300  171.9480  135.5900 C   0  0  0  0  0  3  0  0  0  0  0  0
  192.6980  172.0860  136.0910 N   0  0  0  0  0  2  0  0  0  0  0  0
  192.6650  175.1120  136.9050 C   0  0  0  0  0  0  0  0  0  0  0  0
  194.8620  173.9800  136.7940 C   0  0  1  0  0  3  0  0  0  0  0  0
  193.9730  175.0550  136.1750 C   0  0  0  0  0  2  0  0  0  0  0  0
  191.8130  173.1440  135.6260 C   0  0  0  0  0  2  0  0  0  0  0  0
  195.0100  172.8070  135.8760 C   0  0  0  0  0  3  0  0  0  0  0  0
  191.6960  174.2270  136.6500 C   0  0  0  0  0  3  0  0  0  0  0  0
  196.5090  175.7190  136.4950 O   0  0  0  0  0  1  0  0  0  0  0  0
  196.2390  174.5250  137.1660 C   0  0  1  0  0  3  0  0  0  0  0  0
  196.3280  174.7370  138.6010 N   0  0  0  0  0  1  0  0  0  0  0  0
  188.0980  178.1230  146.4710 C   0  0  0  0  0  2  0  0  0  0  0  0
  189.2920  178.3330  148.6700 C   0  0  0  0  0  1  0  0  0  0  0  0
  188.7220  177.3690  147.6410 C   0  0  2  0  0  3  0  0  0  0  0  0
  189.7190  176.3850  147.2050 N   0  0  0  0  0  2  0  0  0  0  0  0
  191.0720  176.9150  147.3530 C   0  0  0  0  0  2  0  0  0  0  0  0
  192.0490  176.0030  146.6440 C   0  0  0  0  0  1  0  0  0  0  0  0
  181.0070  180.1030  138.7550 O   0  0  0  0  0  0  0  0  0  0  0  0
  181.0260  180.8010  137.5650 N   0  0  0  0  0  2  0  0  0  0  0  0
  180.9950  182.2210  137.8940 C   0  0  0  0  0  2  0  0  0  0  0  0
  178.9520  184.6390  136.0510 O   0  0  0  0  0  0  0  0  0  0  0  0
  180.4600  183.0490  136.7130 C   0  0  2  0  0  0  0  0  0  0  0  0
  179.6660  185.4600  138.0100 O   0  0  0  0  0  0  0  0  0  0  0  0
  180.5550  182.2310  135.4340 C   0  0  0  0  0  1  0  0  0  0  0  0
  181.1840  184.3830  136.4990 C   0  0  1  0  0  3  0  0  0  0  0  0
  179.0180  183.5520  136.9100 C   0  0  1  0  0  3  0  0  0  0  0  0
  178.9450  184.2750  138.2410 C   0  0  0  0  0  2  0  0  0  0  0  0
  180.0010  185.3490  136.6390 C   0  0  1  0  0  3  0  0  0  0  0  0
  182.1610  184.6440  137.4690 O   0  0  0  0  0  1  0  0  0  0  0  0
  1  6  1  0  0  0  0
  1 14  2  0  0  0  0
  3 38  1  6  0  0  0
  4  8  2  0  0  0  0
  5  7  1  0  0  0  0
  6 12  1  0  0  0  0
  7  9  1  0  0  0  0
  8  5  1  0  0  0  0
  9 11  1  0  0  0  0
 10  7  2  0  0  0  0
 10  2  1  0  0  0  0
 11  2  1  6  0  0  0
 11 15  1  0  0  0  0
 11  3  1  0  0  0  0
 12 13  2  0  0  0  0
 12  8  1  0  0  0  0
 13 10  1  0  0  0  0
 14  4  1  0  0  0  0
 15  3  1  0  0  0  0
 16 22  1  0  0  0  0
 17 19  2  0  0  0  0
 18 17  1  0  0  0  0
 18 21  1  0  0  0  0
 19 13  1  0  0  0  0
 19 22  1  0  0  0  0
 20 18  2  0  0  0  0
 21 16  2  0  0  0  0
 23 24  2  0  0  0  0
 24 21  1  0  0  0  0
 26 25  2  0  0  0  0
 26 23  1  0  0  0  0
 27 33  2  0  0  0  0
 27 28  1  0  0  0  0
 29 26  1  0  0  0  0
 30 36  1  6  0  0  0
 31 30  1  0  0  0  0
 31 29  1  0  0  0  0
 32 28  1  0  0  0  0
 32 34  1  0  0  0  0
 33 30  1  0  0  0  0
 34 29  2  0  0  0  0
 36 35  1  6  0  0  0
 36 37  1  0  0  0  0
 38 40  1  0  0  0  0
 40 39  1  1  0  0  0
 41 42  1  0  0  0  0
 41 40  1  0  0  0  0
 43 42  1  0  0  0  0
 44 14  1  0  0  0  0
 45 46  1  0  0  0  0
 45 44  1  0  0  0  0
 47 52  1  0  0  0  0
 48 50  1  6  0  0  0
 48 52  1  0  0  0  0
 48 46  1  0  0  0  0
 49 53  1  0  0  0  0
 51 54  1  0  0  0  0
 51 48  1  0  0  0  0
 51 55  1  1  0  0  0
 52 53  1  1  0  0  0
 54 47  1  6  0  0  0
 54 49  1  0  0  0  0
M  END
>  <MODEL>
5

>  <REMARK>
 VINA RESULT:     -10.1      1.819      2.657
  Name = 
  13 active torsions:
  status: ('A' for Active; 'I' for Inactive)
    1  A    between atoms: C_1  and  C_5
    2  A    between atoms: C_1  and  C_48
    3  A    between atoms: C_11  and  C_38
    4  A    between atoms: O_14  and  N_23
    5  A    between atoms: O_14  and  C_46
    6  A    between atoms: C_18  and  C_44
    7  A    between atoms: C_20  and  C_24
    8  A    between atoms: C_22  and  C_37
    9  A    between atoms: N_23  and  C_37
   10  A    between atoms: N_28  and  C_35
   11  A    between atoms: N_28  and  C_48
   12  A    between atoms: C_32  and  C_39
   13  A    between atoms: N_36  and  C_38
                            x       y       z     vdW  Elec       q    Type
                         _______ _______ _______ _____ _____    ______ ____

>  <TORSDO>
F 13

$$$$
=
 OpenBabel10222416023D

 55 62  0  0  1  0  0  0  0  0999 V2000
  189.7690  176.3790  136.3070 C   0  0  0  0  0  3  0  0  0  0  0  0
  189.4850  178.2200  142.4020 C   0  0  0  0  0  2  0  0  0  0  0  0
  190.7520  178.0190  144.7650 C   0  0  1  0  0  3  0  0  0  0  0  0
  191.7520  176.1510  137.7180 C   0  0  0  0  0  3  0  0  0  0  0  0
  191.8380  176.7180  140.0090 O   0  0  0  0  0  0  0  0  0  0  0  0
  188.9240  176.8160  137.4730 C   0  0  0  0  0  2  0  0  0  0  0  0
  191.2080  177.2490  141.1360 C   0  0  0  0  0  0  0  0  0  0  0  0
  191.1370  176.6180  138.8030 C   0  0  0  0  0  0  0  0  0  0  0  0
  191.8680  177.4230  142.4540 C   0  0  0  0  0  2  0  0  0  0  0  0
  189.9420  177.6550  141.1010 C   0  0  0  0  0  0  0  0  0  0  0  0
  190.7370  178.0430  143.2460 C   0  0  1  0  0  0  0  0  0  0  0  0
  189.7130  177.0500  138.7410 C   0  0  0  0  0  0  0  0  0  0  0  0
  189.1320  177.5560  139.8580 C   0  0  0  0  0  0  0  0  0  0  0  0
  191.0590  176.0540  136.4170 C   0  0  0  0  0  0  0  0  0  0  0  0
  191.1410  179.2840  144.0070 C   0  0  0  0  0  2  0  0  0  0  0  0
  185.6590  178.8130  141.1210 C   0  0  0  0  0  3  0  0  0  0  0  0
  186.9830  177.9110  138.7590 C   0  0  0  0  0  3  0  0  0  0  0  0
  185.5780  178.3300  138.7420 C   0  0  0  0  0  0  0  0  0  0  0  0
  187.7130  177.9840  139.8790 C   0  0  0  0  0  0  0  0  0  0  0  0
  184.9490  178.3320  137.6510 O   0  0  0  0  0  0  0  0  0  0  0  0
  184.9230  178.7190  140.0120 C   0  0  0  0  0  0  0  0  0  0  0  0
  187.1530  178.6150  141.1340 C   0  0  0  0  0  2  0  0  0  0  0  0
  182.7120  178.2350  140.8640 N   0  0  0  0  0  0  0  0  0  0  0  0
  183.4780  178.9700  140.1250 C   0  0  0  0  0  3  0  0  0  0  0  0
  180.8650  179.3250  141.7950 O   0  0  0  0  0  0  0  0  0  0  0  0
  181.3040  178.4650  140.9810 C   0  0  0  0  0  0  0  0  0  0  0  0
  179.4750  175.4590  137.3440 C   0  0  0  0  0  3  0  0  0  0  0  0
  179.6190  175.0160  138.6950 N   0  0  0  0  0  2  0  0  0  0  0  0
  180.3680  177.6950  140.1390 C   0  0  0  0  0  0  0  0  0  0  0  0
  180.8310  177.5310  137.7140 C   0  0  1  0  0  3  0  0  0  0  0  0
  179.9960  178.2240  138.7860 C   0  0  0  0  0  2  0  0  0  0  0  0
  178.9330  175.6800  139.7940 C   0  0  0  0  0  2  0  0  0  0  0  0
  179.9930  176.6030  136.8920 C   0  0  0  0  0  3  0  0  0  0  0  0
  179.8830  176.5290  140.5770 C   0  0  0  0  0  3  0  0  0  0  0  0
  180.9480  178.5730  135.5380 O   0  0  0  0  0  1  0  0  0  0  0  0
  181.5360  178.5360  136.8050 C   0  0  1  0  0  3  0  0  0  0  0  0
  181.5090  179.8610  137.3980 N   0  0  0  0  0  1  0  0  0  0  0  0
  189.3580  178.1850  145.3520 C   0  0  0  0  0  2  0  0  0  0  0  0
  190.4620  176.7390  147.0840 C   0  0  0  0  0  1  0  0  0  0  0  0
  189.3310  177.7170  146.8040 C   0  0  2  0  0  3  0  0  0  0  0  0
  188.0270  177.1690  147.1920 N   0  0  0  0  0  2  0  0  0  0  0  0
  187.1880  178.2000  147.7950 C   0  0  0  0  0  2  0  0  0  0  0  0
  186.0020  178.4730  146.8960 C   0  0  0  0  0  1  0  0  0  0  0  0
  191.7450  175.6280  135.2770 O   0  0  0  0  0  0  0  0  0  0  0  0
  192.6470  174.5850  135.3180 N   0  0  0  0  0  2  0  0  0  0  0  0
  193.9810  175.1590  135.1840 C   0  0  0  0  0  2  0  0  0  0  0  0
  197.3090  173.7270  135.7230 O   0  0  0  0  0  0  0  0  0  0  0  0
  195.0620  174.1410  135.5870 C   0  0  2  0  0  0  0  0  0  0  0  0
  197.1840  175.8510  136.4230 O   0  0  0  0  0  0  0  0  0  0  0  0
  194.5510  172.7300  135.3360 C   0  0  0  0  0  1  0  0  0  0  0  0
  195.5150  174.2480  137.0470 C   0  0  1  0  0  3  0  0  0  0  0  0
  196.4090  174.3490  134.8700 C   0  0  1  0  0  3  0  0  0  0  0  0
  196.8310  175.7910  135.0630 C   0  0  0  0  0  2  0  0  0  0  0  0
  197.0120  174.5100  136.8400 C   0  0  1  0  0  3  0  0  0  0  0  0
  194.9120  175.3080  137.7380 O   0  0  0  0  0  1  0  0  0  0  0  0
  1 14  2  0  0  0  0
  1  6  1  0  0  0  0
  3 38  1  1  0  0  0
  4  8  2  0  0  0  0
  5  7  1  0  0  0  0
  6 12  1  0  0  0  0
  7  9  1  0  0  0  0
  8  5  1  0  0  0  0
  9 11  1  0  0  0  0
 10  7  2  0  0  0  0
 10  2  1  0  0  0  0
 11  2  1  6  0  0  0
 11 15  1  0  0  0  0
 11  3  1  0  0  0  0
 12  8  1  0  0  0  0
 12 13  2  0  0  0  0
 13 19  1  0  0  0  0
 13 10  1  0  0  0  0
 14  4  1  0  0  0  0
 15  3  1  0  0  0  0
 16 22  1  0  0  0  0
 17 19  2  0  0  0  0
 18 17  1  0  0  0  0
 18 21  1  0  0  0  0
 19 22  1  0  0  0  0
 20 18  2  0  0  0  0
 21 24  1  0  0  0  0
 21 16  2  0  0  0  0
 23 26  1  0  0  0  0
 24 23  2  0  0  0  0
 26 25  2  0  0  0  0
 27 28  1  0  0  0  0
 28 32  1  0  0  0  0
 29 34  2  0  0  0  0
 29 26  1  0  0  0  0
 30 36  1  6  0  0  0
 30 31  1  0  0  0  0
 31 29  1  0  0  0  0
 32 34  1  0  0  0  0
 33 27  2  0  0  0  0
 33 30  1  0  0  0  0
 36 35  1  6  0  0  0
 36 37  1  0  0  0  0
 38 40  1  0  0  0  0
 40 39  1  6  0  0  0
 40 41  1  0  0  0  0
 41 42  1  0  0  0  0
 43 42  1  0  0  0  0
 44 45  1  0  0  0  0
 44 14  1  0  0  0  0
 46 45  1  0  0  0  0
 46 48  1  0  0  0  0
 48 50  1  6  0  0  0
 48 51  1  0  0  0  0
 49 54  1  0  0  0  0
 51 55  1  6  0  0  0
 52 53  1  1  0  0  0
 52 48  1  0  0  0  0
 52 47  1  0  0  0  0
 53 49  1  0  0  0  0
 54 47  1  6  0  0  0
 54 51  1  0  0  0  0
M  END
>  <MODEL>
6

>  <REMARK>
 VINA RESULT:     -10.0      2.403     11.189
  Name = 
  13 active torsions:
  status: ('A' for Active; 'I' for Inactive)
    1  A    between atoms: C_1  and  C_5
    2  A    between atoms: C_1  and  C_48
    3  A    between atoms: C_11  and  C_38
    4  A    between atoms: O_14  and  N_23
    5  A    between atoms: O_14  and  C_46
    6  A    between atoms: C_18  and  C_44
    7  A    between atoms: C_20  and  C_24
    8  A    between atoms: C_22  and  C_37
    9  A    between atoms: N_23  and  C_37
   10  A    between atoms: N_28  and  C_35
   11  A    between atoms: N_28  and  C_48
   12  A    between atoms: C_32  and  C_39
   13  A    between atoms: N_36  and  C_38
                            x       y       z     vdW  Elec       q    Type
                         _______ _______ _______ _____ _____    ______ ____

>  <TORSDO>
F 13

$$$$
=
 OpenBabel10222416023D

 55 62  0  0  1  0  0  0  0  0999 V2000
  194.1120  176.5550  136.9590 C   0  0  0  0  0  3  0  0  0  0  0  0
  188.2260  174.1330  136.6470 C   0  0  0  0  0  2  0  0  0  0  0  0
  186.5920  172.6540  135.1050 C   0  0  1  0  0  3  0  0  0  0  0  0
  193.6330  174.7830  135.3440 C   0  0  0  0  0  3  0  0  0  0  0  0
  191.5100  173.7960  135.0300 O   0  0  0  0  0  0  0  0  0  0  0  0
  192.6650  176.6550  137.3590 C   0  0  0  0  0  3  0  0  0  0  0  0
  190.1720  173.6860  135.4120 C   0  0  0  0  0  0  0  0  0  0  0  0
  192.3460  174.7100  135.6810 C   0  0  1  0  0  3  0  0  0  0  0  0
  189.2090  172.7320  134.8070 C   0  0  0  0  0  2  0  0  0  0  0  0
  189.6580  174.4410  136.3780 C   0  0  0  0  0  0  0  0  0  0  0  0
  187.9690  173.0460  135.6160 C   0  0  1  0  0  0  0  0  0  0  0  0
  191.7910  175.5800  136.7540 C   0  0  0  0  0  0  0  0  0  0  0  0
  190.4850  175.4490  137.0950 C   0  0  0  0  0  0  0  0  0  0  0  0
  194.5580  175.7130  136.0220 C   0  0  0  0  0  0  0  0  0  0  0  0
  187.2860  171.8210  136.1770 C   0  0  0  0  0  2  0  0  0  0  0  0
  189.6750  177.0960  140.5400 C   0  0  0  0  0  3  0  0  0  0  0  0
  188.7970  177.0520  137.8250 C   0  0  0  0  0  3  0  0  0  0  0  0
  188.1540  177.9060  138.8280 C   0  0  0  0  0  0  0  0  0  0  0  0
  189.8570  176.2960  138.1360 C   0  0  0  0  0  0  0  0  0  0  0  0
  187.2170  178.6700  138.4780 O   0  0  0  0  0  0  0  0  0  0  0  0
  188.6040  177.8330  140.2380 C   0  0  0  0  0  0  0  0  0  0  0  0
  190.5050  176.3870  139.5000 C   0  0  0  0  0  2  0  0  0  0  0  0
  186.6980  178.1730  141.6870 N   0  0  0  0  0  0  0  0  0  0  0  0
  187.9000  178.5040  141.3410 C   0  0  0  0  0  3  0  0  0  0  0  0
  185.3080  179.8520  142.5320 O   0  0  0  0  0  0  0  0  0  0  0  0
  185.9990  178.8190  142.7560 C   0  0  0  0  0  0  0  0  0  0  0  0
  187.5670  177.9130  147.4810 C   0  0  0  0  0  3  0  0  0  0  0  0
  186.4290  178.7320  147.2020 N   0  0  0  0  0  2  0  0  0  0  0  0
  186.0850  178.2660  144.1210 C   0  0  0  0  0  0  0  0  0  0  0  0
  188.3270  177.8820  145.0950 C   0  0  1  0  0  3  0  0  0  0  0  0
  187.1220  177.2270  144.4260 C   0  0  0  0  0  2  0  0  0  0  0  0
  185.2740  178.2140  146.4830 C   0  0  0  0  0  2  0  0  0  0  0  0
  188.4170  177.5000  146.5390 C   0  0  0  0  0  3  0  0  0  0  0  0
  185.2590  178.7120  145.0730 C   0  0  0  0  0  3  0  0  0  0  0  0
  190.7250  177.6420  145.2460 O   0  0  0  0  0  1  0  0  0  0  0  0
  189.6320  177.5330  144.3830 C   0  0  1  0  0  3  0  0  0  0  0  0
  189.5670  176.1880  143.8380 N   0  0  0  0  0  1  0  0  0  0  0  0
  185.4900  173.4870  135.7420 C   0  0  0  0  0  2  0  0  0  0  0  0
  185.4710  175.7710  134.6950 C   0  0  0  0  0  1  0  0  0  0  0  0
  184.8340  174.3890  134.7010 C   0  0  2  0  0  3  0  0  0  0  0  0
  183.3770  174.4620  134.8600 N   0  0  0  0  0  2  0  0  0  0  0  0
  182.8880  173.3570  135.6800 C   0  0  0  0  0  2  0  0  0  0  0  0
  181.7200  173.8300  136.5170 C   0  0  0  0  0  1  0  0  0  0  0  0
  195.9180  175.7230  135.7020 O   0  0  0  0  0  0  0  0  0  0  0  0
  196.4600  174.8230  134.8080 N   0  0  0  0  0  2  0  0  0  0  0  0
  197.3750  173.9670  135.5540 C   0  0  0  0  0  2  0  0  0  0  0  0
  197.4190  170.3260  135.9490 O   0  0  0  0  0  0  0  0  0  0  0  0
  196.8600  172.5190  135.6030 C   0  0  2  0  0  0  0  0  0  0  0  0
  198.5710  171.3620  137.5670 O   0  0  0  0  0  0  0  0  0  0  0  0
  195.7340  172.3450  134.5940 C   0  0  0  0  0  1  0  0  0  0  0  0
  196.3580  172.0740  136.9810 C   0  0  1  0  0  3  0  0  0  0  0  0
  197.9530  171.4620  135.3590 C   0  0  1  0  0  3  0  0  0  0  0  0
  199.0960  171.7330  136.3170 C   0  0  0  0  0  2  0  0  0  0  0  0
  197.2860  170.8770  137.2240 C   0  0  1  0  0  3  0  0  0  0  0  0
  196.5280  173.0490  137.9730 O   0  0  0  0  0  1  0  0  0  0  0  0
  1  6  2  0  0  0  0
  3 11  1  0  0  0  0
  3 38  1  1  0  0  0
  3 15  1  0  0  0  0
  4 14  2  0  0  0  0
  5  7  1  0  0  0  0
  5  8  1  0  0  0  0
  7 10  2  0  0  0  0
  8  4  1  1  0  0  0
  8 12  1  0  0  0  0
  9  7  1  0  0  0  0
 10  2  1  0  0  0  0
 10 13  1  0  0  0  0
 11  9  1  6  0  0  0
 11 15  1  0  0  0  0
 11  2  1  0  0  0  0
 12 13  2  0  0  0  0
 12  6  1  0  0  0  0
 13 19  1  0  0  0  0
 14  1  1  0  0  0  0
 17 19  2  0  0  0  0
 17 18  1  0  0  0  0
 18 21  1  0  0  0  0
 19 22  1  0  0  0  0
 20 18  2  0  0  0  0
 21 16  2  0  0  0  0
 21 24  1  0  0  0  0
 22 16  1  0  0  0  0
 23 26  1  0  0  0  0
 24 23  2  0  0  0  0
 25 26  2  0  0  0  0
 26 29  1  0  0  0  0
 28 27  1  0  0  0  0
 29 31  1  0  0  0  0
 29 34  2  0  0  0  0
 30 36  1  6  0  0  0
 30 33  1  0  0  0  0
 31 30  1  0  0  0  0
 32 28  1  0  0  0  0
 33 27  2  0  0  0  0
 34 32  1  0  0  0  0
 36 37  1  1  0  0  0
 36 35  1  0  0  0  0
 40 39  1  1  0  0  0
 40 41  1  0  0  0  0
 40 38  1  0  0  0  0
 41 42  1  0  0  0  0
 42 43  1  0  0  0  0
 44 14  1  0  0  0  0
 45 46  1  0  0  0  0
 45 44  1  0  0  0  0
 46 48  1  0  0  0  0
 48 50  1  6  0  0  0
 48 51  1  0  0  0  0
 51 54  1  0  0  0  0
 51 55  1  1  0  0  0
 52 48  1  0  0  0  0
 52 47  1  0  0  0  0
 52 53  1  1  0  0  0
 53 49  1  0  0  0  0
 54 47  1  6  0  0  0
 54 49  1  0  0  0  0
M  END
>  <MODEL>
7

>  <REMARK>
 VINA RESULT:      -9.9      3.831     13.006
  Name = 
  13 active torsions:
  status: ('A' for Active; 'I' for Inactive)
    1  A    between atoms: C_1  and  C_5
    2  A    between atoms: C_1  and  C_48
    3  A    between atoms: C_11  and  C_38
    4  A    between atoms: O_14  and  N_23
    5  A    between atoms: O_14  and  C_46
    6  A    between atoms: C_18  and  C_44
    7  A    between atoms: C_20  and  C_24
    8  A    between atoms: C_22  and  C_37
    9  A    between atoms: N_23  and  C_37
   10  A    between atoms: N_28  and  C_35
   11  A    between atoms: N_28  and  C_48
   12  A    between atoms: C_32  and  C_39
   13  A    between atoms: N_36  and  C_38
                            x       y       z     vdW  Elec       q    Type
                         _______ _______ _______ _____ _____    ______ ____

>  <TORSDO>
F 13

$$$$
=
 OpenBabel10222416023D

 55 62  0  0  1  0  0  0  0  0999 V2000
  190.9180  176.4520  136.3370 C   0  0  0  0  0  3  0  0  0  0  0  0
  189.4100  177.9790  142.3380 C   0  0  0  0  0  2  0  0  0  0  0  0
  190.2470  177.7560  144.8840 C   0  0  1  0  0  3  0  0  0  0  0  0
  192.6300  176.2980  138.0760 C   0  0  0  0  0  3  0  0  0  0  0  0
  192.2610  176.7600  140.3620 O   0  0  0  0  0  0  0  0  0  0  0  0
  189.8480  176.7740  137.3450 C   0  0  0  0  0  2  0  0  0  0  0  0
  191.4010  177.1920  141.3740 C   0  0  0  0  0  0  0  0  0  0  0  0
  191.7960  176.6690  139.0460 C   0  0  0  0  0  0  0  0  0  0  0  0
  191.8000  177.3500  142.7950 C   0  0  0  0  0  2  0  0  0  0  0  0
  190.1340  177.5100  141.1240 C   0  0  0  0  0  0  0  0  0  0  0  0
  190.5010  177.8500  143.3890 C   0  0  1  0  0  0  0  0  0  0  0  0
  190.3770  177.0020  138.7420 C   0  0  0  0  0  0  0  0  0  0  0  0
  189.5690  177.4120  139.7520 C   0  0  0  0  0  0  0  0  0  0  0  0
  192.1900  176.2140  136.6680 C   0  0  0  0  0  0  0  0  0  0  0  0
  190.6650  179.0790  144.2520 C   0  0  0  0  0  2  0  0  0  0  0  0
  186.0990  177.8770  138.0250 C   0  0  0  0  0  3  0  0  0  0  0  0
  187.4290  178.3040  140.5130 C   0  0  0  0  0  3  0  0  0  0  0  0
  186.0130  178.6350  140.3310 C   0  0  0  0  0  0  0  0  0  0  0  0
  188.1400  177.7390  139.5290 C   0  0  0  0  0  0  0  0  0  0  0  0
  185.3540  179.0810  141.3060 O   0  0  0  0  0  0  0  0  0  0  0  0
  185.3940  178.4610  138.9960 C   0  0  0  0  0  0  0  0  0  0  0  0
  187.4800  177.3110  138.2380 C   0  0  0  0  0  2  0  0  0  0  0  0
  183.4040  179.7610  139.4390 N   0  0  0  0  0  0  0  0  0  0  0  0
  184.0430  178.9410  138.6690 C   0  0  0  0  0  3  0  0  0  0  0  0
  181.9300  181.3160  138.5040 O   0  0  0  0  0  0  0  0  0  0  0  0
  182.0870  180.2340  139.1350 C   0  0  0  0  0  0  0  0  0  0  0  0
  179.2310  176.4840  140.9730 C   0  0  0  0  0  3  0  0  0  0  0  0
  179.4960  177.6730  141.7210 N   0  0  0  0  0  2  0  0  0  0  0  0
  180.9140  179.4460  139.5600 C   0  0  0  0  0  0  0  0  0  0  0  0
  180.9710  176.9920  139.2460 C   0  0  1  0  0  3  0  0  0  0  0  0
  180.4430  178.3150  138.6970 C   0  0  0  0  0  2  0  0  0  0  0  0
  179.1120  178.9870  141.2270 C   0  0  0  0  0  2  0  0  0  0  0  0
  179.8690  176.1750  139.8420 C   0  0  0  0  0  3  0  0  0  0  0  0
  180.3030  179.7310  140.7140 C   0  0  0  0  0  3  0  0  0  0  0  0
  182.8770  175.6250  138.6740 O   0  0  0  0  0  1  0  0  0  0  0  0
  181.6980  176.1820  138.1750 C   0  0  1  0  0  3  0  0  0  0  0  0
  180.8350  175.1310  137.6640 N   0  0  0  0  0  1  0  0  0  0  0  0
  188.7620  177.7950  145.2130 C   0  0  0  0  0  2  0  0  0  0  0  0
  189.2720  176.7360  147.4330 C   0  0  0  0  0  1  0  0  0  0  0  0
  188.5520  177.8720  146.7220 C   0  0  2  0  0  3  0  0  0  0  0  0
  187.1320  177.9310  147.0880 N   0  0  0  0  0  2  0  0  0  0  0  0
  186.2860  177.6120  145.9420 C   0  0  0  0  0  2  0  0  0  0  0  0
  185.5370  178.8530  145.5090 C   0  0  0  0  0  1  0  0  0  0  0  0
  193.0990  175.8920  135.6580 O   0  0  0  0  0  0  0  0  0  0  0  0
  193.5300  174.5970  135.4540 N   0  0  0  0  0  2  0  0  0  0  0  0
  194.9850  174.6320  135.3700 C   0  0  0  0  0  2  0  0  0  0  0  0
  197.3100  172.1600  136.7490 O   0  0  0  0  0  0  0  0  0  0  0  0
  195.6180  173.6570  136.3780 C   0  0  2  0  0  0  0  0  0  0  0  0
  198.3770  173.8120  135.6760 O   0  0  0  0  0  0  0  0  0  0  0  0
  194.5290  173.0400  137.2430 C   0  0  0  0  0  1  0  0  0  0  0  0
  196.6720  174.2920  137.2910 C   0  0  1  0  0  3  0  0  0  0  0  0
  196.4620  172.5470  135.7220 C   0  0  1  0  0  3  0  0  0  0  0  0
  197.4670  173.2010  134.7950 C   0  0  0  0  0  2  0  0  0  0  0  0
  197.8830  173.4180  136.9430 C   0  0  1  0  0  3  0  0  0  0  0  0
  196.9240  175.6380  136.9950 O   0  0  0  0  0  1  0  0  0  0  0  0
  1 14  2  0  0  0  0
  1  6  1  0  0  0  0
  3 38  1  6  0  0  0
  4  8  2  0  0  0  0
  5  7  1  0  0  0  0
  6 12  1  0  0  0  0
  7  9  1  0  0  0  0
  8  5  1  0  0  0  0
  9 11  1  0  0  0  0
 10  7  2  0  0  0  0
 10  2  1  0  0  0  0
 11  2  1  6  0  0  0
 11 15  1  0  0  0  0
 11  3  1  0  0  0  0
 12  8  1  0  0  0  0
 12 13  2  0  0  0  0
 13 10  1  0  0  0  0
 14  4  1  0  0  0  0
 15  3  1  0  0  0  0
 16 22  1  0  0  0  0
 16 21  2  0  0  0  0
 18 17  1  0  0  0  0
 18 20  2  0  0  0  0
 19 13  1  0  0  0  0
 19 17  2  0  0  0  0
 21 18  1  0  0  0  0
 22 19  1  0  0  0  0
 24 21  1  0  0  0  0
 24 23  2  0  0  0  0
 25 26  2  0  0  0  0
 26 23  1  0  0  0  0
 26 29  1  0  0  0  0
 27 28  1  0  0  0  0
 29 34  2  0  0  0  0
 30 36  1  6  0  0  0
 30 33  1  0  0  0  0
 31 30  1  0  0  0  0
 31 29  1  0  0  0  0
 32 28  1  0  0  0  0
 33 27  2  0  0  0  0
 34 32  1  0  0  0  0
 36 37  1  1  0  0  0
 36 35  1  0  0  0  0
 38 40  1  0  0  0  0
 40 41  1  0  0  0  0
 40 39  1  1  0  0  0
 42 41  1  0  0  0  0
 43 42  1  0  0  0  0
 44 14  1  0  0  0  0
 45 44  1  0  0  0  0
 46 45  1  0  0  0  0
 46 48  1  0  0  0  0
 47 54  1  0  0  0  0
 48 50  1  1  0  0  0
 48 51  1  0  0  0  0
 51 55  1  6  0  0  0
 52 53  1  6  0  0  0
 52 48  1  0  0  0  0
 52 47  1  0  0  0  0
 53 49  1  0  0  0  0
 54 49  1  6  0  0  0
 54 51  1  0  0  0  0
M  END
>  <MODEL>
8

>  <REMARK>
 VINA RESULT:      -9.6      2.465     11.519
  Name = 
  13 active torsions:
  status: ('A' for Active; 'I' for Inactive)
    1  A    between atoms: C_1  and  C_5
    2  A    between atoms: C_1  and  C_48
    3  A    between atoms: C_11  and  C_38
    4  A    between atoms: O_14  and  N_23
    5  A    between atoms: O_14  and  C_46
    6  A    between atoms: C_18  and  C_44
    7  A    between atoms: C_20  and  C_24
    8  A    between atoms: C_22  and  C_37
    9  A    between atoms: N_23  and  C_37
   10  A    between atoms: N_28  and  C_35
   11  A    between atoms: N_28  and  C_48
   12  A    between atoms: C_32  and  C_39
   13  A    between atoms: N_36  and  C_38
                            x       y       z     vdW  Elec       q    Type
                         _______ _______ _______ _____ _____    ______ ____

>  <TORSDO>
F 13

$$$$
=
 OpenBabel10222416023D

 55 62  0  0  1  0  0  0  0  0999 V2000
  184.9790  178.6920  138.0760 C   0  0  0  0  0  3  0  0  0  0  0  0
  188.1900  177.6010  143.4720 C   0  0  0  0  0  2  0  0  0  0  0  0
  188.1600  178.0730  146.1200 C   0  0  1  0  0  3  0  0  0  0  0  0
  183.8720  179.0700  140.2220 C   0  0  0  0  0  3  0  0  0  0  0  0
  184.9010  178.7820  142.3280 O   0  0  0  0  0  0  0  0  0  0  0  0
  186.2970  178.4060  138.7450 C   0  0  0  0  0  2  0  0  0  0  0  0
  186.0170  178.3970  143.0750 C   0  0  0  0  0  0  0  0  0  0  0  0
  184.9510  178.7420  140.9310 C   0  0  0  0  0  0  0  0  0  0  0  0
  186.0600  178.3760  144.5580 C   0  0  0  0  0  2  0  0  0  0  0  0
  187.1430  178.0010  142.4900 C   0  0  0  0  0  0  0  0  0  0  0  0
  187.4670  177.8660  144.7830 C   0  0  1  0  0  0  0  0  0  0  0  0
  186.2070  178.3200  140.2520 C   0  0  0  0  0  0  0  0  0  0  0  0
  187.2730  177.9570  141.0090 C   0  0  0  0  0  0  0  0  0  0  0  0
  183.8710  179.0160  138.7460 C   0  0  0  0  0  0  0  0  0  0  0  0
  187.5460  176.7220  145.7670 C   0  0  0  0  0  2  0  0  0  0  0  0
  191.1020  177.5260  140.3820 C   0  0  0  0  0  3  0  0  0  0  0  0
  188.5660  176.8810  139.2420 C   0  0  0  0  0  3  0  0  0  0  0  0
  189.8220  176.4560  138.6170 C   0  0  0  0  0  0  0  0  0  0  0  0
  188.5620  177.5480  140.4040 C   0  0  0  0  0  0  0  0  0  0  0  0
  189.7840  175.7530  137.5730 O   0  0  0  0  0  0  0  0  0  0  0  0
  191.1090  176.8820  139.2140 C   0  0  0  0  0  0  0  0  0  0  0  0
  189.8430  177.7790  141.1730 C   0  0  0  0  0  2  0  0  0  0  0  0
  192.4990  176.3750  137.3010 N   0  0  0  0  0  0  0  0  0  0  0  0
  192.4080  176.6670  138.5580 C   0  0  0  0  0  3  0  0  0  0  0  0
  194.5120  177.1370  136.3870 O   0  0  0  0  0  0  0  0  0  0  0  0
  193.7560  176.1600  136.6490 C   0  0  0  0  0  0  0  0  0  0  0  0
  195.9670  171.6120  136.8150 C   0  0  0  0  0  3  0  0  0  0  0  0
  194.5840  171.7960  137.1270 N   0  0  0  0  0  2  0  0  0  0  0  0
  194.1660  174.7880  136.2920 C   0  0  0  0  0  0  0  0  0  0  0  0
  196.4650  174.0650  136.8530 C   0  0  1  0  0  3  0  0  0  0  0  0
  195.5400  174.5550  135.7420 C   0  0  0  0  0  2  0  0  0  0  0  0
  193.6490  172.3480  136.1570 C   0  0  0  0  0  2  0  0  0  0  0  0
  196.8220  172.6240  136.6630 C   0  0  0  0  0  3  0  0  0  0  0  0
  193.3220  173.7700  136.4850 C   0  0  0  0  0  3  0  0  0  0  0  0
  197.6290  176.0730  136.1870 O   0  0  0  0  0  1  0  0  0  0  0  0
  197.7360  174.9070  136.9480 C   0  0  1  0  0  3  0  0  0  0  0  0
  198.0140  175.2470  138.3330 N   0  0  0  0  0  1  0  0  0  0  0  0
  189.6740  177.9920  145.9950 C   0  0  0  0  0  2  0  0  0  0  0  0
  190.8380  177.4910  148.1640 C   0  0  0  0  0  1  0  0  0  0  0  0
  190.2270  176.8980  146.9030 C   0  0  2  0  0  3  0  0  0  0  0  0
  191.1670  176.0130  146.2070 N   0  0  0  0  0  2  0  0  0  0  0  0
  191.7480  176.6810  145.0460 C   0  0  0  0  0  2  0  0  0  0  0  0
  191.5610  175.8150  143.8200 C   0  0  0  0  0  1  0  0  0  0  0  0
  182.7070  179.2950  138.0260 O   0  0  0  0  0  0  0  0  0  0  0  0
  181.4700  179.3430  138.6350 N   0  0  0  0  0  2  0  0  0  0  0  0
  180.7650  178.1160  138.2840 C   0  0  0  0  0  2  0  0  0  0  0  0
  179.2020  175.5520  140.3810 O   0  0  0  0  0  0  0  0  0  0  0  0
  180.4100  177.3070  139.5430 C   0  0  2  0  0  0  0  0  0  0  0  0
  179.9760  174.7080  138.4560 O   0  0  0  0  0  0  0  0  0  0  0  0
  180.4110  178.2250  140.7570 C   0  0  0  0  0  1  0  0  0  0  0  0
  181.3460  176.1260  139.8190 C   0  0  1  0  0  3  0  0  0  0  0  0
  179.0620  176.5660  139.4450 C   0  0  1  0  0  3  0  0  0  0  0  0
  179.0660  175.7420  138.1740 C   0  0  0  0  0  2  0  0  0  0  0  0
  180.3320  174.9760  139.7990 C   0  0  1  0  0  3  0  0  0  0  0  0
  182.3220  175.9500  138.8280 O   0  0  0  0  0  1  0  0  0  0  0  0
  1  6  1  0  0  0  0
  1 14  2  0  0  0  0
  3 38  1  6  0  0  0
  4  8  2  0  0  0  0
  5  7  1  0  0  0  0
  6 12  1  0  0  0  0
  7  9  1  0  0  0  0
  8  5  1  0  0  0  0
  9 11  1  0  0  0  0
 10  7  2  0  0  0  0
 10  2  1  0  0  0  0
 11  2  1  6  0  0  0
 11 15  1  0  0  0  0
 11  3  1  0  0  0  0
 12  8  1  0  0  0  0
 12 13  2  0  0  0  0
 13 10  1  0  0  0  0
 14  4  1  0  0  0  0
 15  3  1  0  0  0  0
 16 22  1  0  0  0  0
 17 19  2  0  0  0  0
 18 21  1  0  0  0  0
 18 17  1  0  0  0  0
 19 13  1  0  0  0  0
 19 22  1  0  0  0  0
 20 18  2  0  0  0  0
 21 16  2  0  0  0  0
 23 24  2  0  0  0  0
 24 21  1  0  0  0  0
 25 26  2  0  0  0  0
 26 23  1  0  0  0  0
 27 28  1  0  0  0  0
 29 34  2  0  0  0  0
 29 26  1  0  0  0  0
 30 36  1  6  0  0  0
 31 29  1  0  0  0  0
 31 30  1  0  0  0  0
 32 34  1  0  0  0  0
 32 28  1  0  0  0  0
 33 27  2  0  0  0  0
 33 30  1  0  0  0  0
 36 35  1  6  0  0  0
 36 37  1  0  0  0  0
 38 40  1  0  0  0  0
 40 39  1  1  0  0  0
 41 40  1  0  0  0  0
 42 41  1  0  0  0  0
 43 42  1  0  0  0  0
 44 45  1  0  0  0  0
 44 14  1  0  0  0  0
 46 45  1  0  0  0  0
 46 48  1  0  0  0  0
 48 51  1  0  0  0  0
 48 50  1  1  0  0  0
 51 55  1  6  0  0  0
 52 53  1  6  0  0  0
 52 48  1  0  0  0  0
 52 47  1  0  0  0  0
 53 49  1  0  0  0  0
 54 49  1  6  0  0  0
 54 51  1  0  0  0  0
 54 47  1  0  0  0  0
M  END
>  <MODEL>
9

>  <REMARK>
 VINA RESULT:      -9.4      2.417      3.624
  Name = 
  13 active torsions:
  status: ('A' for Active; 'I' for Inactive)
    1  A    between atoms: C_1  and  C_5
    2  A    between atoms: C_1  and  C_48
    3  A    between atoms: C_11  and  C_38
    4  A    between atoms: O_14  and  N_23
    5  A    between atoms: O_14  and  C_46
    6  A    between atoms: C_18  and  C_44
    7  A    between atoms: C_20  and  C_24
    8  A    between atoms: C_22  and  C_37
    9  A    between atoms: N_23  and  C_37
   10  A    between atoms: N_28  and  C_35
   11  A    between atoms: N_28  and  C_48
   12  A    between atoms: C_32  and  C_39
   13  A    between atoms: N_36  and  C_38
                            x       y       z     vdW  Elec       q    Type
                         _______ _______ _______ _____ _____    ______ ____

>  <TORSDO>
F 13

$$$$
