=
 OpenBabel10222419463D

 33 36  0  0  1  0  0  0  0  0999 V2000
  187.2290  178.0890  143.6250 C   0  0  0  0  0  0  0  0  0  0  0  0
  188.4590  176.9060  146.6980 C   0  0  0  0  0  3  0  0  0  0  0  0
  188.9380  177.9530  141.9360 N   0  0  0  0  0  0  0  0  0  0  0  0
  189.5560  176.3400  147.3530 C   0  0  0  0  0  3  0  0  0  0  0  0
  189.9470  177.9360  145.0690 C   0  0  0  0  0  0  0  0  0  0  0  0
  188.6360  177.6740  145.5420 C   0  0  0  0  0  0  0  0  0  0  0  0
  187.4720  178.2070  144.8950 N   0  0  0  0  0  0  0  0  0  0  0  0
  191.4300  179.6750  144.0030 C   0  0  0  0  0  1  0  0  0  0  0  0
  188.0670  177.3290  142.8040 O   0  0  0  0  0  0  0  0  0  0  0  0
  190.8450  176.5460  146.8580 C   0  0  0  0  0  0  0  0  0  0  0  0
  190.2430  178.0000  142.5890 C   0  0  0  0  0  2  0  0  0  0  0  0
  191.0400  177.3430  145.7260 C   0  0  0  0  0  3  0  0  0  0  0  0
  190.1790  178.8230  143.8680 C   0  0  1  0  0  3  0  0  0  0  0  0
  192.8790  175.4720  148.0610 N   0  0  0  0  0  0  0  0  0  0  0  0
  191.9710  175.9530  147.5260 C   0  0  0  0  0  0  0  0  0  0  0  0
  189.0880  177.0630  140.7970 C   0  0  0  0  0  2  0  0  0  0  0  0
  189.0640  177.8540  139.5040 C   0  0  0  0  0  2  0  0  0  0  0  0
  188.2920  177.8810  137.1520 C   0  0  0  0  0  2  0  0  0  0  0  0
  188.4680  177.0160  138.3800 C   0  0  2  0  0  3  0  0  0  0  0  0
  187.0700  177.4620  137.9440 C   0  0  1  0  0  3  0  0  0  0  0  0
  186.5950  178.5670  138.7090 O   0  0  0  0  0  0  0  0  0  0  0  0
  184.9030  179.6310  139.8270 O   0  0  0  0  0  0  0  0  0  0  0  0
  185.2680  178.6460  139.1340 C   0  0  0  0  0  0  0  0  0  0  0  0
  184.3280  177.6230  138.7800 N   0  0  0  0  0  2  0  0  0  0  0  0
  182.4860  176.2250  139.5470 C   0  0  0  0  0  1  0  0  0  0  0  0
  182.9360  177.6360  139.2010 C   0  0  2  0  0  3  0  0  0  0  0  0
  181.1250  177.2220  137.7050 O   0  0  0  0  0  1  0  0  0  0  0  0
  182.0800  178.1720  138.0670 C   0  0  0  0  0  2  0  0  0  0  0  0
  186.0390  178.7660  143.0420 C   0  0  0  0  0  2  0  0  0  0  0  0
  184.7700  178.0160  143.3940 C   0  0  2  0  0  3  0  0  0  0  0  0
  183.6580  178.7300  142.9480 N   0  0  0  0  0  2  0  0  0  0  0  0
  184.1230  178.7040  144.4060 C   0  0  0  0  0  0  0  0  0  0  0  0
  184.0180  179.0810  145.6360 N   0  0  0  0  0  2  0  0  0  0  0  0
  1  7  2  0  0  0  0
  2  4  1  0  0  0  0
  3 11  1  0  0  0  0
  3  9  1  0  0  0  0
  5  6  1  0  0  0  0
  5 12  2  0  0  0  0
  6  2  2  0  0  0  0
  7  6  1  0  0  0  0
  9  1  1  0  0  0  0
 10  4  2  0  0  0  0
 10 15  1  0  0  0  0
 11 13  1  0  0  0  0
 12 10  1  0  0  0  0
 13  8  1  1  0  0  0
 13  5  1  0  0  0  0
 15 14  3  0  0  0  0
 16  3  1  0  0  0  0
 17 16  1  0  0  0  0
 18 20  1  0  0  0  0
 18 19  1  0  0  0  0
 19 17  1  1  0  0  0
 20 19  1  0  0  0  0
 20 21  1  1  0  0  0
 21 23  1  0  0  0  0
 23 22  2  0  0  0  0
 24 23  1  0  0  0  0
 24 26  1  0  0  0  0
 26 25  1  6  0  0  0
 27 28  1  0  0  0  0
 28 26  1  0  0  0  0
 29  1  1  0  0  0  0
 30 29  1  6  0  0  0
 30 32  1  0  0  0  0
 31 30  1  0  0  0  0
 31 32  1  0  0  0  0
 32 33  2  0  0  0  0
M  END
>  <MODEL>
1

>  <REMARK>
 VINA RESULT:      -7.8      0.000      0.000
  Name = 
  10 active torsions:
  status: ('A' for Active; 'I' for Inactive)
    1  A    between atoms: C_3  and  C_23
    2  A    between atoms: C_5  and  C_23
    3  A    between atoms: O_6  and  C_12
    4  A    between atoms: O_6  and  C_30
    5  A    between atoms: C_10  and  C_22
    6  A    between atoms: C_13  and  C_29
    7  A    between atoms: N_14  and  C_20
    8  A    between atoms: CA_16  and  C_26
    9  A    between atoms: CA_16  and  N_27
   10  A    between atoms: C_20  and  C_22
                            x       y       z     vdW  Elec       q    Type
                         _______ _______ _______ _____ _____    ______ ____

>  <TORSDO>
F 10

$$$$
=
 OpenBabel10222419463D

 33 36  0  0  1  0  0  0  0  0999 V2000
  187.3420  178.0040  143.6180 C   0  0  0  0  0  0  0  0  0  0  0  0
  188.5400  176.9730  146.7580 C   0  0  0  0  0  3  0  0  0  0  0  0
  189.0520  177.7420  141.9470 N   0  0  0  0  0  0  0  0  0  0  0  0
  189.6250  176.4250  147.4470 C   0  0  0  0  0  3  0  0  0  0  0  0
  190.0510  177.8820  145.0800 C   0  0  0  0  0  0  0  0  0  0  0  0
  188.7350  177.6710  145.5610 C   0  0  0  0  0  0  0  0  0  0  0  0
  187.5830  178.1890  144.8810 N   0  0  0  0  0  0  0  0  0  0  0  0
  191.5690  179.5320  143.9230 C   0  0  0  0  0  1  0  0  0  0  0  0
  188.1680  177.1840  142.8440 O   0  0  0  0  0  0  0  0  0  0  0  0
  190.9190  176.5780  146.9470 C   0  0  0  0  0  0  0  0  0  0  0  0
  190.3550  177.8020  142.6000 C   0  0  0  0  0  2  0  0  0  0  0  0
  191.1320  177.3070  145.7730 C   0  0  0  0  0  3  0  0  0  0  0  0
  190.3030  178.6960  143.8320 C   0  0  1  0  0  3  0  0  0  0  0  0
  192.9310  175.5420  148.2170 N   0  0  0  0  0  0  0  0  0  0  0  0
  192.0320  176.0030  147.6510 C   0  0  0  0  0  0  0  0  0  0  0  0
  189.1890  176.7880  140.8600 C   0  0  0  0  0  2  0  0  0  0  0  0
  190.3360  177.1840  139.9500 C   0  0  0  0  0  2  0  0  0  0  0  0
  190.0680  175.7040  137.9840 C   0  0  0  0  0  2  0  0  0  0  0  0
  189.9030  177.1190  138.4910 C   0  0  2  0  0  3  0  0  0  0  0  0
  191.0350  176.7740  137.5200 C   0  0  1  0  0  3  0  0  0  0  0  0
  192.2840  176.6100  138.1870 O   0  0  0  0  0  0  0  0  0  0  0  0
  194.1360  176.7510  136.8460 O   0  0  0  0  0  0  0  0  0  0  0  0
  193.3820  176.0300  137.5510 C   0  0  0  0  0  0  0  0  0  0  0  0
  193.6560  174.6300  137.7030 N   0  0  0  0  0  2  0  0  0  0  0  0
  194.2920  172.6850  136.3810 C   0  0  0  0  0  1  0  0  0  0  0  0
  194.7730  173.9590  137.0570 C   0  0  2  0  0  3  0  0  0  0  0  0
  195.2340  172.8310  139.1070 O   0  0  0  0  0  1  0  0  0  0  0  0
  195.8140  173.6100  138.1050 C   0  0  0  0  0  2  0  0  0  0  0  0
  186.1660  178.6690  142.9940 C   0  0  0  0  0  2  0  0  0  0  0  0
  184.8870  177.9320  143.3400 C   0  0  2  0  0  3  0  0  0  0  0  0
  183.7920  178.6010  142.7940 N   0  0  0  0  0  2  0  0  0  0  0  0
  184.1890  178.6830  144.2700 C   0  0  0  0  0  0  0  0  0  0  0  0
  184.0240  179.1450  145.4630 N   0  0  0  0  0  2  0  0  0  0  0  0
  1  7  2  0  0  0  0
  2  4  1  0  0  0  0
  3 11  1  0  0  0  0
  3  9  1  0  0  0  0
  5  6  1  0  0  0  0
  5 12  2  0  0  0  0
  6  2  2  0  0  0  0
  7  6  1  0  0  0  0
  9  1  1  0  0  0  0
 10  4  2  0  0  0  0
 10 15  1  0  0  0  0
 11 13  1  0  0  0  0
 12 10  1  0  0  0  0
 13  8  1  1  0  0  0
 13  5  1  0  0  0  0
 15 14  3  0  0  0  0
 16  3  1  0  0  0  0
 17 16  1  0  0  0  0
 18 19  1  0  0  0  0
 19 17  1  1  0  0  0
 20 18  1  0  0  0  0
 20 21  1  1  0  0  0
 20 19  1  0  0  0  0
 22 23  2  0  0  0  0
 23 24  1  0  0  0  0
 23 21  1  0  0  0  0
 26 25  1  1  0  0  0
 26 24  1  0  0  0  0
 26 28  1  0  0  0  0
 28 27  1  0  0  0  0
 29  1  1  0  0  0  0
 30 29  1  6  0  0  0
 30 32  1  0  0  0  0
 31 30  1  0  0  0  0
 31 32  1  0  0  0  0
 32 33  2  0  0  0  0
M  END
>  <MODEL>
2

>  <REMARK>
 VINA RESULT:      -7.8      3.697      5.750
  Name = 
  10 active torsions:
  status: ('A' for Active; 'I' for Inactive)
    1  A    between atoms: C_3  and  C_23
    2  A    between atoms: C_5  and  C_23
    3  A    between atoms: O_6  and  C_12
    4  A    between atoms: O_6  and  C_30
    5  A    between atoms: C_10  and  C_22
    6  A    between atoms: C_13  and  C_29
    7  A    between atoms: N_14  and  C_20
    8  A    between atoms: CA_16  and  C_26
    9  A    between atoms: CA_16  and  N_27
   10  A    between atoms: C_20  and  C_22
                            x       y       z     vdW  Elec       q    Type
                         _______ _______ _______ _____ _____    ______ ____

>  <TORSDO>
F 10

$$$$
=
 OpenBabel10222419463D

 33 36  0  0  1  0  0  0  0  0999 V2000
  190.0390  177.6710  146.9310 C   0  0  0  0  0  0  0  0  0  0  0  0
  186.6290  178.2850  147.5250 C   0  0  0  0  0  3  0  0  0  0  0  0
  190.5520  178.0040  144.6040 N   0  0  0  0  0  0  0  0  0  0  0  0
  185.4200  178.6890  146.9520 C   0  0  0  0  0  3  0  0  0  0  0  0
  187.3950  177.4690  145.3630 C   0  0  0  0  0  0  0  0  0  0  0  0
  187.6330  177.7080  146.7390 C   0  0  0  0  0  0  0  0  0  0  0  0
  188.8650  177.3380  147.3750 N   0  0  0  0  0  0  0  0  0  0  0  0
  187.8050  175.8620  143.4620 C   0  0  0  0  0  1  0  0  0  0  0  0
  190.1730  178.5160  145.8270 O   0  0  0  0  0  0  0  0  0  0  0  0
  185.2030  178.5100  145.5850 C   0  0  0  0  0  0  0  0  0  0  0  0
  189.3370  177.7940  143.8250 C   0  0  0  0  0  2  0  0  0  0  0  0
  186.1820  177.8990  144.7960 C   0  0  0  0  0  3  0  0  0  0  0  0
  188.4270  176.7780  144.5020 C   0  0  1  0  0  3  0  0  0  0  0  0
  182.9660  179.2820  144.5170 N   0  0  0  0  0  0  0  0  0  0  0  0
  183.9640  178.9360  144.9950 C   0  0  0  0  0  0  0  0  0  0  0  0
  191.2890  179.0590  143.9290 C   0  0  0  0  0  2  0  0  0  0  0  0
  191.2060  178.8810  142.4260 C   0  0  0  0  0  2  0  0  0  0  0  0
  192.1900  177.4870  140.6320 C   0  0  0  0  0  2  0  0  0  0  0  0
  191.6230  177.4690  142.0340 C   0  0  2  0  0  3  0  0  0  0  0  0
  190.8210  176.8830  140.8690 C   0  0  1  0  0  3  0  0  0  0  0  0
  189.8160  177.7800  140.4030 O   0  0  0  0  0  0  0  0  0  0  0  0
  189.3260  176.5160  138.5570 O   0  0  0  0  0  0  0  0  0  0  0  0
  188.9960  177.4610  139.3200 C   0  0  0  0  0  0  0  0  0  0  0  0
  187.7880  178.1960  139.0810 N   0  0  0  0  0  2  0  0  0  0  0  0
  187.3570  178.6980  136.7360 C   0  0  0  0  0  1  0  0  0  0  0  0
  186.8960  177.9270  137.9630 C   0  0  2  0  0  3  0  0  0  0  0  0
  185.5170  179.0690  139.5390 O   0  0  0  0  0  1  0  0  0  0  0  0
  185.4910  178.3650  138.3340 C   0  0  0  0  0  2  0  0  0  0  0  0
  191.2530  177.1500  147.6160 C   0  0  0  0  0  2  0  0  0  0  0  0
  191.3790  175.6530  147.4200 C   0  0  2  0  0  3  0  0  0  0  0  0
  192.7070  175.2620  147.5930 N   0  0  0  0  0  2  0  0  0  0  0  0
  192.0400  175.4230  146.2250 C   0  0  0  0  0  0  0  0  0  0  0  0
  192.0810  175.4070  144.9350 N   0  0  0  0  0  2  0  0  0  0  0  0
  1  7  2  0  0  0  0
  1 29  1  0  0  0  0
  3  9  1  0  0  0  0
  4  2  1  0  0  0  0
  5  6  1  0  0  0  0
  6  7  1  0  0  0  0
  6  2  2  0  0  0  0
  9  1  1  0  0  0  0
 10  4  2  0  0  0  0
 11 13  1  0  0  0  0
 11  3  1  0  0  0  0
 12  5  2  0  0  0  0
 12 10  1  0  0  0  0
 13  8  1  6  0  0  0
 13  5  1  0  0  0  0
 14 15  3  0  0  0  0
 15 10  1  0  0  0  0
 16  3  1  0  0  0  0
 17 16  1  0  0  0  0
 18 20  1  0  0  0  0
 18 19  1  0  0  0  0
 19 17  1  6  0  0  0
 20 21  1  6  0  0  0
 20 19  1  0  0  0  0
 22 23  2  0  0  0  0
 23 21  1  0  0  0  0
 24 23  1  0  0  0  0
 26 25  1  6  0  0  0
 26 28  1  0  0  0  0
 26 24  1  0  0  0  0
 28 27  1  0  0  0  0
 30 31  1  0  0  0  0
 30 29  1  6  0  0  0
 32 30  1  0  0  0  0
 32 31  1  0  0  0  0
 33 32  2  0  0  0  0
M  END
>  <MODEL>
3

>  <REMARK>
 VINA RESULT:      -7.2      2.069      5.654
  Name = 
  10 active torsions:
  status: ('A' for Active; 'I' for Inactive)
    1  A    between atoms: C_3  and  C_23
    2  A    between atoms: C_5  and  C_23
    3  A    between atoms: O_6  and  C_12
    4  A    between atoms: O_6  and  C_30
    5  A    between atoms: C_10  and  C_22
    6  A    between atoms: C_13  and  C_29
    7  A    between atoms: N_14  and  C_20
    8  A    between atoms: CA_16  and  C_26
    9  A    between atoms: CA_16  and  N_27
   10  A    between atoms: C_20  and  C_22
                            x       y       z     vdW  Elec       q    Type
                         _______ _______ _______ _____ _____    ______ ____

>  <TORSDO>
F 10

$$$$
=
 OpenBabel10222419463D

 33 36  0  0  1  0  0  0  0  0999 V2000
  190.8120  177.3940  141.1440 C   0  0  0  0  0  0  0  0  0  0  0  0
  191.3740  175.3520  138.3390 C   0  0  0  0  0  3  0  0  0  0  0  0
  188.5250  178.1380  141.1870 N   0  0  0  0  0  0  0  0  0  0  0  0
  190.7870  174.7500  137.2220 C   0  0  0  0  0  3  0  0  0  0  0  0
  189.6950  177.1130  138.2870 C   0  0  0  0  0  0  0  0  0  0  0  0
  190.8210  176.5090  138.8980 C   0  0  0  0  0  0  0  0  0  0  0  0
  191.4490  177.0690  140.0610 N   0  0  0  0  0  0  0  0  0  0  0  0
  188.6110  179.3190  137.7170 C   0  0  0  0  0  1  0  0  0  0  0  0
  189.4490  177.1200  141.2820 O   0  0  0  0  0  0  0  0  0  0  0  0
  189.6430  175.3070  136.6510 C   0  0  0  0  0  0  0  0  0  0  0  0
  188.0060  178.1300  139.8230 C   0  0  0  0  0  2  0  0  0  0  0  0
  189.1020  176.4850  137.1770 C   0  0  0  0  0  3  0  0  0  0  0  0
  189.1180  178.4050  138.8190 C   0  0  1  0  0  3  0  0  0  0  0  0
  188.5410  174.1710  134.5940 N   0  0  0  0  0  0  0  0  0  0  0  0
  189.0330  174.6800  135.5110 C   0  0  0  0  0  0  0  0  0  0  0  0
  187.4130  177.7640  142.0440 C   0  0  0  0  0  2  0  0  0  0  0  0
  186.3480  178.8440  142.0300 C   0  0  0  0  0  2  0  0  0  0  0  0
  184.2530  179.3890  143.2300 C   0  0  0  0  0  2  0  0  0  0  0  0
  185.0220  178.2890  142.5340 C   0  0  2  0  0  3  0  0  0  0  0  0
  184.8850  178.2900  144.0590 C   0  0  1  0  0  3  0  0  0  0  0  0
  186.0540  178.7900  144.7030 O   0  0  0  0  0  0  0  0  0  0  0  0
  185.6520  178.3170  146.9080 O   0  0  0  0  0  0  0  0  0  0  0  0
  186.4660  178.3110  145.9480 C   0  0  0  0  0  0  0  0  0  0  0  0
  187.7980  177.8120  146.1320 N   0  0  0  0  0  2  0  0  0  0  0  0
  188.5630  178.4750  148.3480 C   0  0  0  0  0  1  0  0  0  0  0  0
  188.2960  177.3130  147.4040 C   0  0  2  0  0  3  0  0  0  0  0  0
  190.6530  177.2330  147.7550 O   0  0  0  0  0  1  0  0  0  0  0  0
  189.5870  176.5510  147.1660 C   0  0  0  0  0  2  0  0  0  0  0  0
  191.5490  178.0580  142.2540 C   0  0  0  0  0  2  0  0  0  0  0  0
  190.9380  177.6980  143.5930 C   0  0  2  0  0  3  0  0  0  0  0  0
  191.8160  178.0400  144.6220 N   0  0  0  0  0  2  0  0  0  0  0  0
  191.6260  176.6110  144.1080 C   0  0  0  0  0  0  0  0  0  0  0  0
  191.9230  175.3550  144.1160 N   0  0  0  0  0  2  0  0  0  0  0  0
  1  9  1  0  0  0  0
  1 29  1  0  0  0  0
  2  6  1  0  0  0  0
  3  9  1  0  0  0  0
  3 16  1  0  0  0  0
  4  2  2  0  0  0  0
  5 13  1  0  0  0  0
  5  6  2  0  0  0  0
  6  7  1  0  0  0  0
  7  1  2  0  0  0  0
 10 12  2  0  0  0  0
 10  4  1  0  0  0  0
 11  3  1  0  0  0  0
 12  5  1  0  0  0  0
 13  8  1  6  0  0  0
 13 11  1  0  0  0  0
 14 15  3  0  0  0  0
 15 10  1  0  0  0  0
 17 16  1  0  0  0  0
 18 20  1  0  0  0  0
 19 17  1  1  0  0  0
 19 18  1  0  0  0  0
 19 20  1  0  0  0  0
 20 21  1  1  0  0  0
 21 23  1  0  0  0  0
 23 24  1  0  0  0  0
 23 22  2  0  0  0  0
 24 26  1  0  0  0  0
 26 25  1  1  0  0  0
 28 26  1  0  0  0  0
 28 27  1  0  0  0  0
 30 29  1  6  0  0  0
 30 32  1  0  0  0  0
 30 31  1  0  0  0  0
 32 33  2  0  0  0  0
 32 31  1  0  0  0  0
M  END
>  <MODEL>
4

>  <REMARK>
 VINA RESULT:      -6.9      3.143      8.085
  Name = 
  10 active torsions:
  status: ('A' for Active; 'I' for Inactive)
    1  A    between atoms: C_3  and  C_23
    2  A    between atoms: C_5  and  C_23
    3  A    between atoms: O_6  and  C_12
    4  A    between atoms: O_6  and  C_30
    5  A    between atoms: C_10  and  C_22
    6  A    between atoms: C_13  and  C_29
    7  A    between atoms: N_14  and  C_20
    8  A    between atoms: CA_16  and  C_26
    9  A    between atoms: CA_16  and  N_27
   10  A    between atoms: C_20  and  C_22
                            x       y       z     vdW  Elec       q    Type
                         _______ _______ _______ _____ _____    ______ ____

>  <TORSDO>
F 10

$$$$
=
 OpenBabel10222419463D

 33 36  0  0  1  0  0  0  0  0999 V2000
  190.2890  175.0350  137.5570 C   0  0  0  0  0  0  0  0  0  0  0  0
  186.8390  174.9900  136.8830 C   0  0  0  0  0  3  0  0  0  0  0  0
  190.8230  176.8490  139.0440 N   0  0  0  0  0  0  0  0  0  0  0  0
  185.6090  175.5920  137.1600 C   0  0  0  0  0  3  0  0  0  0  0  0
  187.9870  177.0760  137.3890 C   0  0  0  0  0  0  0  0  0  0  0  0
  188.0320  175.7070  137.0250 C   0  0  0  0  0  0  0  0  0  0  0  0
  189.2680  175.0310  136.7540 N   0  0  0  0  0  0  0  0  0  0  0  0
  189.0510  179.3320  137.0100 C   0  0  0  0  0  1  0  0  0  0  0  0
  190.2070  175.6380  138.8150 O   0  0  0  0  0  0  0  0  0  0  0  0
  185.5630  176.9240  137.5750 C   0  0  0  0  0  0  0  0  0  0  0  0
  189.8090  177.8880  138.8950 C   0  0  0  0  0  2  0  0  0  0  0  0
  186.7440  177.6630  137.6850 C   0  0  0  0  0  3  0  0  0  0  0  0
  189.2510  177.9010  137.4780 C   0  0  1  0  0  3  0  0  0  0  0  0
  183.2790  178.0350  138.1110 N   0  0  0  0  0  0  0  0  0  0  0  0
  184.2970  177.5370  137.8720 C   0  0  0  0  0  0  0  0  0  0  0  0
  191.2060  176.8560  140.4460 C   0  0  0  0  0  2  0  0  0  0  0  0
  190.0340  177.2780  141.3110 C   0  0  0  0  0  2  0  0  0  0  0  0
  189.2990  175.8860  143.2220 C   0  0  0  0  0  2  0  0  0  0  0  0
  190.2970  176.9280  142.7700 C   0  0  2  0  0  3  0  0  0  0  0  0
  189.1580  177.3100  143.7180 C   0  0  1  0  0  3  0  0  0  0  0  0
  188.0820  177.9490  143.0360 O   0  0  0  0  0  0  0  0  0  0  0  0
  186.5170  177.1480  144.5040 O   0  0  0  0  0  0  0  0  0  0  0  0
  186.7650  177.8460  143.4870 C   0  0  0  0  0  0  0  0  0  0  0  0
  185.7060  178.5310  142.8040 N   0  0  0  0  0  2  0  0  0  0  0  0
  183.4090  178.6290  142.0000 C   0  0  0  0  0  1  0  0  0  0  0  0
  184.3120  178.4550  143.2110 C   0  0  2  0  0  3  0  0  0  0  0  0
  183.7620  179.0020  145.4660 O   0  0  0  0  0  1  0  0  0  0  0  0
  184.0270  179.5580  144.2130 C   0  0  0  0  0  2  0  0  0  0  0  0
  191.5560  174.3810  137.1310 C   0  0  0  0  0  2  0  0  0  0  0  0
  192.2340  175.1850  136.0400 C   0  0  2  0  0  3  0  0  0  0  0  0
  193.4380  174.5780  135.6840 N   0  0  0  0  0  2  0  0  0  0  0  0
  193.3430  175.8110  136.5860 C   0  0  0  0  0  0  0  0  0  0  0  0
  193.8840  176.7150  137.3310 N   0  0  0  0  0  2  0  0  0  0  0  0
  1  9  1  0  0  0  0
  2  6  2  0  0  0  0
  2  4  1  0  0  0  0
  3 16  1  0  0  0  0
  4 10  2  0  0  0  0
  5 13  1  0  0  0  0
  5 12  2  0  0  0  0
  6  5  1  0  0  0  0
  7  6  1  0  0  0  0
  7  1  2  0  0  0  0
  9  3  1  0  0  0  0
 10 12  1  0  0  0  0
 10 15  1  0  0  0  0
 11  3  1  0  0  0  0
 13  8  1  1  0  0  0
 13 11  1  0  0  0  0
 15 14  3  0  0  0  0
 16 17  1  0  0  0  0
 18 20  1  0  0  0  0
 19 17  1  6  0  0  0
 19 18  1  0  0  0  0
 19 20  1  0  0  0  0
 20 21  1  6  0  0  0
 21 23  1  0  0  0  0
 23 22  2  0  0  0  0
 24 26  1  0  0  0  0
 24 23  1  0  0  0  0
 26 25  1  6  0  0  0
 26 28  1  0  0  0  0
 28 27  1  0  0  0  0
 29  1  1  0  0  0  0
 30 32  1  0  0  0  0
 30 29  1  1  0  0  0
 31 30  1  0  0  0  0
 31 32  1  0  0  0  0
 32 33  2  0  0  0  0
M  END
>  <MODEL>
5

>  <REMARK>
 VINA RESULT:      -6.7      3.291      8.237
  Name = 
  10 active torsions:
  status: ('A' for Active; 'I' for Inactive)
    1  A    between atoms: C_3  and  C_23
    2  A    between atoms: C_5  and  C_23
    3  A    between atoms: O_6  and  C_12
    4  A    between atoms: O_6  and  C_30
    5  A    between atoms: C_10  and  C_22
    6  A    between atoms: C_13  and  C_29
    7  A    between atoms: N_14  and  C_20
    8  A    between atoms: CA_16  and  C_26
    9  A    between atoms: CA_16  and  N_27
   10  A    between atoms: C_20  and  C_22
                            x       y       z     vdW  Elec       q    Type
                         _______ _______ _______ _____ _____    ______ ____

>  <TORSDO>
F 10

$$$$
=
 OpenBabel10222419463D

 33 36  0  0  1  0  0  0  0  0999 V2000
  190.7360  175.2540  137.5890 C   0  0  0  0  0  0  0  0  0  0  0  0
  187.8180  174.9200  135.6580 C   0  0  0  0  0  3  0  0  0  0  0  0
  190.3620  176.7880  139.4050 N   0  0  0  0  0  0  0  0  0  0  0  0
  186.4790  175.2990  135.5290 C   0  0  0  0  0  3  0  0  0  0  0  0
  188.3010  176.9890  136.8480 C   0  0  0  0  0  0  0  0  0  0  0  0
  188.7270  175.7360  136.3410 C   0  0  0  0  0  0  0  0  0  0  0  0
  190.0830  175.2840  136.4680 N   0  0  0  0  0  0  0  0  0  0  0  0
  188.9850  179.3890  137.2180 C   0  0  0  0  0  1  0  0  0  0  0  0
  190.1060  175.5800  138.7940 O   0  0  0  0  0  0  0  0  0  0  0  0
  186.0400  176.5050  136.0770 C   0  0  0  0  0  0  0  0  0  0  0  0
  189.2900  177.7030  139.0290 C   0  0  0  0  0  2  0  0  0  0  0  0
  186.9460  177.3480  136.7280 C   0  0  0  0  0  3  0  0  0  0  0  0
  189.2730  177.9280  137.5230 C   0  0  1  0  0  3  0  0  0  0  0  0
  183.5470  177.1930  135.8530 N   0  0  0  0  0  0  0  0  0  0  0  0
  184.6600  176.8880  135.9540 C   0  0  0  0  0  0  0  0  0  0  0  0
  190.2190  176.5630  140.8330 C   0  0  0  0  0  2  0  0  0  0  0  0
  190.7650  177.7440  141.6110 C   0  0  0  0  0  2  0  0  0  0  0  0
  191.0050  176.0920  143.4390 C   0  0  0  0  0  2  0  0  0  0  0  0
  191.6610  177.2650  142.7460 C   0  0  2  0  0  3  0  0  0  0  0  0
  191.0490  177.4350  144.1390 C   0  0  1  0  0  3  0  0  0  0  0  0
  189.7610  178.0420  144.0890 O   0  0  0  0  0  0  0  0  0  0  0  0
  187.8870  176.7580  144.3850 O   0  0  0  0  0  0  0  0  0  0  0  0
  188.7030  177.5810  144.8750 C   0  0  0  0  0  0  0  0  0  0  0  0
  188.5500  178.0330  146.2270 N   0  0  0  0  0  2  0  0  0  0  0  0
  186.2640  178.5210  146.9130 C   0  0  0  0  0  1  0  0  0  0  0  0
  187.4640  177.6050  147.0950 C   0  0  2  0  0  3  0  0  0  0  0  0
  189.1980  178.2480  148.6020 O   0  0  0  0  0  1  0  0  0  0  0  0
  187.9300  177.6680  148.5390 C   0  0  0  0  0  2  0  0  0  0  0  0
  192.1710  174.8590  137.5890 C   0  0  0  0  0  2  0  0  0  0  0  0
  193.0510  176.0340  137.2140 C   0  0  2  0  0  3  0  0  0  0  0  0
  194.3930  175.6630  137.2860 N   0  0  0  0  0  2  0  0  0  0  0  0
  193.6820  176.4890  138.3600 C   0  0  0  0  0  0  0  0  0  0  0  0
  193.6700  177.1000  139.4960 N   0  0  0  0  0  2  0  0  0  0  0  0
  1  9  1  0  0  0  0
  2  6  1  0  0  0  0
  3 16  1  0  0  0  0
  4  2  2  0  0  0  0
  4 10  1  0  0  0  0
  5 13  1  0  0  0  0
  6  7  1  0  0  0  0
  6  5  2  0  0  0  0
  7  1  2  0  0  0  0
  9  3  1  0  0  0  0
 10 12  2  0  0  0  0
 11  3  1  0  0  0  0
 12  5  1  0  0  0  0
 13  8  1  1  0  0  0
 13 11  1  0  0  0  0
 14 15  3  0  0  0  0
 15 10  1  0  0  0  0
 16 17  1  0  0  0  0
 18 20  1  0  0  0  0
 19 17  1  6  0  0  0
 19 18  1  0  0  0  0
 19 20  1  0  0  0  0
 20 21  1  6  0  0  0
 21 23  1  0  0  0  0
 22 23  2  0  0  0  0
 23 24  1  0  0  0  0
 24 26  1  0  0  0  0
 26 25  1  1  0  0  0
 26 28  1  0  0  0  0
 28 27  1  0  0  0  0
 29  1  1  0  0  0  0
 30 31  1  0  0  0  0
 30 29  1  1  0  0  0
 30 32  1  0  0  0  0
 31 32  1  0  0  0  0
 32 33  2  0  0  0  0
M  END
>  <MODEL>
6

>  <REMARK>
 VINA RESULT:      -6.7      3.487      9.255
  Name = 
  10 active torsions:
  status: ('A' for Active; 'I' for Inactive)
    1  A    between atoms: C_3  and  C_23
    2  A    between atoms: C_5  and  C_23
    3  A    between atoms: O_6  and  C_12
    4  A    between atoms: O_6  and  C_30
    5  A    between atoms: C_10  and  C_22
    6  A    between atoms: C_13  and  C_29
    7  A    between atoms: N_14  and  C_20
    8  A    between atoms: CA_16  and  C_26
    9  A    between atoms: CA_16  and  N_27
   10  A    between atoms: C_20  and  C_22
                            x       y       z     vdW  Elec       q    Type
                         _______ _______ _______ _____ _____    ______ ____

>  <TORSDO>
F 10

$$$$
=
 OpenBabel10222419463D

 33 36  0  0  1  0  0  0  0  0999 V2000
  187.5900  178.2790  140.3030 C   0  0  0  0  0  0  0  0  0  0  0  0
  184.2790  178.4050  139.1280 C   0  0  0  0  0  3  0  0  0  0  0  0
  187.6320  177.5640  142.6000 N   0  0  0  0  0  0  0  0  0  0  0  0
  182.9390  178.1700  139.4480 C   0  0  0  0  0  3  0  0  0  0  0  0
  184.7870  178.7820  141.4790 C   0  0  0  0  0  0  0  0  0  0  0  0
  185.2150  178.6770  140.1320 C   0  0  0  0  0  0  0  0  0  0  0  0
  186.5820  178.8820  139.7490 N   0  0  0  0  0  0  0  0  0  0  0  0
  185.1270  180.0280  143.6450 C   0  0  0  0  0  1  0  0  0  0  0  0
  187.3880  177.2910  141.2710 O   0  0  0  0  0  0  0  0  0  0  0  0
  182.5230  178.2140  140.7790 C   0  0  0  0  0  0  0  0  0  0  0  0
  186.3530  177.9010  143.2160 C   0  0  0  0  0  2  0  0  0  0  0  0
  183.4400  178.5220  141.7890 C   0  0  0  0  0  3  0  0  0  0  0  0
  185.7570  179.1490  142.5780 C   0  0  1  0  0  3  0  0  0  0  0  0
  180.0380  177.7510  141.3720 N   0  0  0  0  0  0  0  0  0  0  0  0
  181.1470  177.9600  141.1080 C   0  0  0  0  0  0  0  0  0  0  0  0
  188.0540  176.3110  143.2040 C   0  0  0  0  0  2  0  0  0  0  0  0
  189.5670  176.2250  143.2360 C   0  0  0  0  0  2  0  0  0  0  0  0
  191.6800  177.5150  143.3040 C   0  0  0  0  0  2  0  0  0  0  0  0
  190.1810  177.6150  143.1250 C   0  0  2  0  0  3  0  0  0  0  0  0
  190.8390  178.1120  144.4140 C   0  0  1  0  0  3  0  0  0  0  0  0
  190.7150  177.1710  145.4780 O   0  0  0  0  0  0  0  0  0  0  0  0
  190.3420  177.1680  147.7380 O   0  0  0  0  0  0  0  0  0  0  0  0
  189.9040  177.4210  146.5850 C   0  0  0  0  0  0  0  0  0  0  0  0
  188.5880  177.9650  146.4150 N   0  0  0  0  0  2  0  0  0  0  0  0
  187.8150  177.1440  148.5750 C   0  0  0  0  0  1  0  0  0  0  0  0
  187.6850  178.2350  147.5230 C   0  0  2  0  0  3  0  0  0  0  0  0
  185.6960  179.5200  147.2430 O   0  0  0  0  0  1  0  0  0  0  0  0
  186.2590  178.2650  147.0050 C   0  0  0  0  0  2  0  0  0  0  0  0
  188.9740  178.6410  139.8920 C   0  0  0  0  0  2  0  0  0  0  0  0
  189.3120  178.0280  138.5480 C   0  0  2  0  0  3  0  0  0  0  0  0
  188.4480  176.9660  138.2810 N   0  0  0  0  0  2  0  0  0  0  0  0
  189.8890  176.7880  138.7670 C   0  0  0  0  0  0  0  0  0  0  0  0
  190.8740  176.0450  139.1450 N   0  0  0  0  0  2  0  0  0  0  0  0
  1  9  1  0  0  0  0
  2  4  2  0  0  0  0
  2  6  1  0  0  0  0
  3 16  1  0  0  0  0
  3 11  1  0  0  0  0
  4 10  1  0  0  0  0
  5 12  1  0  0  0  0
  5 13  1  0  0  0  0
  6  5  2  0  0  0  0
  7  6  1  0  0  0  0
  7  1  2  0  0  0  0
  9  3  1  0  0  0  0
 10 15  1  0  0  0  0
 10 12  2  0  0  0  0
 13 11  1  0  0  0  0
 13  8  1  1  0  0  0
 15 14  3  0  0  0  0
 16 17  1  0  0  0  0
 18 20  1  0  0  0  0
 19 17  1  1  0  0  0
 19 18  1  0  0  0  0
 19 20  1  0  0  0  0
 20 21  1  1  0  0  0
 21 23  1  0  0  0  0
 23 22  2  0  0  0  0
 24 23  1  0  0  0  0
 24 26  1  0  0  0  0
 26 25  1  1  0  0  0
 28 27  1  0  0  0  0
 28 26  1  0  0  0  0
 29  1  1  0  0  0  0
 30 32  1  0  0  0  0
 30 29  1  1  0  0  0
 31 30  1  0  0  0  0
 31 32  1  0  0  0  0
 32 33  2  0  0  0  0
M  END
>  <MODEL>
7

>  <REMARK>
 VINA RESULT:      -6.5      2.530      8.014
  Name = 
  10 active torsions:
  status: ('A' for Active; 'I' for Inactive)
    1  A    between atoms: C_3  and  C_23
    2  A    between atoms: C_5  and  C_23
    3  A    between atoms: O_6  and  C_12
    4  A    between atoms: O_6  and  C_30
    5  A    between atoms: C_10  and  C_22
    6  A    between atoms: C_13  and  C_29
    7  A    between atoms: N_14  and  C_20
    8  A    between atoms: CA_16  and  C_26
    9  A    between atoms: CA_16  and  N_27
   10  A    between atoms: C_20  and  C_22
                            x       y       z     vdW  Elec       q    Type
                         _______ _______ _______ _____ _____    ______ ____

>  <TORSDO>
F 10

$$$$
=
 OpenBabel10222419463D

 33 36  0  0  1  0  0  0  0  0999 V2000
  190.0850  177.6720  146.8710 C   0  0  0  0  0  0  0  0  0  0  0  0
  186.7020  178.3750  147.5230 C   0  0  0  0  0  3  0  0  0  0  0  0
  190.5500  177.9240  144.5240 N   0  0  0  0  0  0  0  0  0  0  0  0
  185.4880  178.7860  146.9650 C   0  0  0  0  0  3  0  0  0  0  0  0
  187.4010  177.4770  145.3700 C   0  0  0  0  0  0  0  0  0  0  0  0
  187.6760  177.7530  146.7330 C   0  0  0  0  0  0  0  0  0  0  0  0
  188.9150  177.3780  147.3520 N   0  0  0  0  0  0  0  0  0  0  0  0
  187.7340  175.8050  143.5110 C   0  0  0  0  0  1  0  0  0  0  0  0
  190.2100  178.4810  145.7380 O   0  0  0  0  0  0  0  0  0  0  0  0
  185.2360  178.5700  145.6100 C   0  0  0  0  0  0  0  0  0  0  0  0
  189.3130  177.7160  143.7790 C   0  0  0  0  0  2  0  0  0  0  0  0
  186.1840  177.9150  144.8180 C   0  0  0  0  0  3  0  0  0  0  0  0
  188.3990  176.7400  144.5080 C   0  0  1  0  0  3  0  0  0  0  0  0
  182.9890  179.3570  144.5750 N   0  0  0  0  0  0  0  0  0  0  0  0
  183.9920  179.0040  145.0360 C   0  0  0  0  0  0  0  0  0  0  0  0
  191.2920  178.9420  143.8000 C   0  0  0  0  0  2  0  0  0  0  0  0
  191.0730  178.7920  142.3070 C   0  0  0  0  0  2  0  0  0  0  0  0
  192.1850  177.5140  140.5010 C   0  0  0  0  0  2  0  0  0  0  0  0
  191.4980  177.4040  141.8440 C   0  0  2  0  0  3  0  0  0  0  0  0
  190.7900  176.9260  140.5740 C   0  0  1  0  0  3  0  0  0  0  0  0
  189.8450  177.8790  140.0950 O   0  0  0  0  0  0  0  0  0  0  0  0
  189.3780  178.7650  138.0350 O   0  0  0  0  0  0  0  0  0  0  0  0
  189.2930  177.7830  138.8170 C   0  0  0  0  0  0  0  0  0  0  0  0
  188.6410  176.5770  138.3940 N   0  0  0  0  0  2  0  0  0  0  0  0
  186.5170  176.3920  137.2150 C   0  0  0  0  0  1  0  0  0  0  0  0
  188.0320  176.4150  137.0830 C   0  0  2  0  0  3  0  0  0  0  0  0
  189.7210  174.7320  137.0460 O   0  0  0  0  0  1  0  0  0  0  0  0
  188.5030  175.1060  136.4760 C   0  0  0  0  0  2  0  0  0  0  0  0
  191.3040  177.1480  147.5440 C   0  0  0  0  0  2  0  0  0  0  0  0
  191.4070  175.6460  147.3720 C   0  0  2  0  0  3  0  0  0  0  0  0
  192.7320  175.2410  147.5270 N   0  0  0  0  0  2  0  0  0  0  0  0
  192.0430  175.3870  146.1690 C   0  0  0  0  0  0  0  0  0  0  0  0
  192.0600  175.3480  144.8790 N   0  0  0  0  0  2  0  0  0  0  0  0
  1  7  2  0  0  0  0
  1 29  1  0  0  0  0
  3  9  1  0  0  0  0
  4  2  1  0  0  0  0
  5  6  1  0  0  0  0
  6  7  1  0  0  0  0
  6  2  2  0  0  0  0
  9  1  1  0  0  0  0
 10  4  2  0  0  0  0
 11 13  1  0  0  0  0
 11  3  1  0  0  0  0
 12  5  2  0  0  0  0
 12 10  1  0  0  0  0
 13  8  1  6  0  0  0
 13  5  1  0  0  0  0
 14 15  3  0  0  0  0
 15 10  1  0  0  0  0
 16  3  1  0  0  0  0
 17 16  1  0  0  0  0
 18 20  1  0  0  0  0
 18 19  1  0  0  0  0
 19 17  1  6  0  0  0
 20 21  1  6  0  0  0
 20 19  1  0  0  0  0
 22 23  2  0  0  0  0
 23 21  1  0  0  0  0
 24 23  1  0  0  0  0
 26 25  1  1  0  0  0
 26 24  1  0  0  0  0
 28 27  1  0  0  0  0
 28 26  1  0  0  0  0
 30 31  1  0  0  0  0
 30 29  1  6  0  0  0
 32 30  1  0  0  0  0
 32 31  1  0  0  0  0
 33 32  2  0  0  0  0
M  END
>  <MODEL>
8

>  <REMARK>
 VINA RESULT:      -6.5      2.840      5.883
  Name = 
  10 active torsions:
  status: ('A' for Active; 'I' for Inactive)
    1  A    between atoms: C_3  and  C_23
    2  A    between atoms: C_5  and  C_23
    3  A    between atoms: O_6  and  C_12
    4  A    between atoms: O_6  and  C_30
    5  A    between atoms: C_10  and  C_22
    6  A    between atoms: C_13  and  C_29
    7  A    between atoms: N_14  and  C_20
    8  A    between atoms: CA_16  and  C_26
    9  A    between atoms: CA_16  and  N_27
   10  A    between atoms: C_20  and  C_22
                            x       y       z     vdW  Elec       q    Type
                         _______ _______ _______ _____ _____    ______ ____

>  <TORSDO>
F 10

$$$$
=
 OpenBabel10222419463D

 33 36  0  0  1  0  0  0  0  0999 V2000
  190.6240  174.8630  137.7330 C   0  0  0  0  0  0  0  0  0  0  0  0
  187.8770  172.7340  137.2020 C   0  0  0  0  0  3  0  0  0  0  0  0
  189.8670  177.0560  138.3680 N   0  0  0  0  0  0  0  0  0  0  0  0
  186.4840  172.6280  137.2430 C   0  0  0  0  0  3  0  0  0  0  0  0
  187.6940  175.1310  136.8170 C   0  0  0  0  0  0  0  0  0  0  0  0
  188.4920  173.9780  137.0250 C   0  0  0  0  0  0  0  0  0  0  0  0
  189.9260  174.0330  137.0190 N   0  0  0  0  0  0  0  0  0  0  0  0
  187.5310  177.3080  135.5540 C   0  0  0  0  0  1  0  0  0  0  0  0
  190.0030  175.7140  138.6510 O   0  0  0  0  0  0  0  0  0  0  0  0
  185.6940  173.7690  137.0980 C   0  0  0  0  0  0  0  0  0  0  0  0
  188.5210  177.2560  137.8410 C   0  0  0  0  0  2  0  0  0  0  0  0
  186.2940  175.0120  136.8810 C   0  0  0  0  0  3  0  0  0  0  0  0
  188.3250  176.4770  136.5470 C   0  0  1  0  0  3  0  0  0  0  0  0
  183.1070  173.5720  137.1930 N   0  0  0  0  0  0  0  0  0  0  0  0
  184.2620  173.6590  137.1520 C   0  0  0  0  0  0  0  0  0  0  0  0
  189.9070  177.7500  139.6450 C   0  0  0  0  0  2  0  0  0  0  0  0
  190.1100  176.7610  140.7760 C   0  0  0  0  0  2  0  0  0  0  0  0
  191.1050  176.4520  143.0220 C   0  0  0  0  0  2  0  0  0  0  0  0
  191.1460  177.2870  141.7610 C   0  0  2  0  0  3  0  0  0  0  0  0
  190.5470  177.8610  143.0480 C   0  0  1  0  0  3  0  0  0  0  0  0
  189.1230  177.8110  143.0470 O   0  0  0  0  0  0  0  0  0  0  0  0
  187.5990  176.3860  143.9940 O   0  0  0  0  0  0  0  0  0  0  0  0
  188.4070  177.3390  144.1480 C   0  0  0  0  0  0  0  0  0  0  0  0
  188.5910  177.9280  145.4430 N   0  0  0  0  0  2  0  0  0  0  0  0
  186.5640  178.2720  146.7500 C   0  0  0  0  0  1  0  0  0  0  0  0
  187.8660  177.4960  146.6280 C   0  0  2  0  0  3  0  0  0  0  0  0
  187.9280  177.7240  149.0010 O   0  0  0  0  0  1  0  0  0  0  0  0
  188.7230  177.7550  147.8540 C   0  0  0  0  0  2  0  0  0  0  0  0
  192.1030  174.8980  137.5750 C   0  0  0  0  0  2  0  0  0  0  0  0
  192.5760  176.3040  137.2680 C   0  0  2  0  0  3  0  0  0  0  0  0
  193.9310  176.2870  136.9380 N   0  0  0  0  0  2  0  0  0  0  0  0
  193.3950  176.7240  138.3030 C   0  0  0  0  0  0  0  0  0  0  0  0
  193.5760  177.1280  139.5150 N   0  0  0  0  0  2  0  0  0  0  0  0
  1  9  1  0  0  0  0
  2  4  1  0  0  0  0
  3  9  1  0  0  0  0
  3 16  1  0  0  0  0
  5 12  2  0  0  0  0
  5  6  1  0  0  0  0
  6  2  2  0  0  0  0
  7  6  1  0  0  0  0
  7  1  2  0  0  0  0
 10 15  1  0  0  0  0
 10  4  2  0  0  0  0
 11  3  1  0  0  0  0
 12 10  1  0  0  0  0
 13  8  1  6  0  0  0
 13  5  1  0  0  0  0
 13 11  1  0  0  0  0
 15 14  3  0  0  0  0
 16 17  1  0  0  0  0
 18 20  1  0  0  0  0
 19 17  1  6  0  0  0
 19 18  1  0  0  0  0
 19 20  1  0  0  0  0
 20 21  1  6  0  0  0
 21 23  1  0  0  0  0
 22 23  2  0  0  0  0
 23 24  1  0  0  0  0
 24 26  1  0  0  0  0
 26 25  1  1  0  0  0
 26 28  1  0  0  0  0
 28 27  1  0  0  0  0
 29  1  1  0  0  0  0
 30 29  1  1  0  0  0
 30 32  1  0  0  0  0
 31 30  1  0  0  0  0
 31 32  1  0  0  0  0
 32 33  2  0  0  0  0
M  END
>  <MODEL>
9

>  <REMARK>
 VINA RESULT:      -6.5      3.560      9.065
  Name = 
  10 active torsions:
  status: ('A' for Active; 'I' for Inactive)
    1  A    between atoms: C_3  and  C_23
    2  A    between atoms: C_5  and  C_23
    3  A    between atoms: O_6  and  C_12
    4  A    between atoms: O_6  and  C_30
    5  A    between atoms: C_10  and  C_22
    6  A    between atoms: C_13  and  C_29
    7  A    between atoms: N_14  and  C_20
    8  A    between atoms: CA_16  and  C_26
    9  A    between atoms: CA_16  and  N_27
   10  A    between atoms: C_20  and  C_22
                            x       y       z     vdW  Elec       q    Type
                         _______ _______ _______ _____ _____    ______ ____

>  <TORSDO>
F 10

$$$$
