=
 OpenBabel10222416163D

 44 47  0  0  1  0  0  0  0  0999 V2000
  190.5580  177.0390  141.5890 C   0  0  0  0  0  0  0  0  0  0  0  0
  190.6960  176.9410  140.2030 O   0  0  0  0  0  0  0  0  0  0  0  0
  186.4450  178.0780  139.0190 N   0  0  0  0  0  0  0  0  0  0  0  0
  188.6520  177.2430  138.2560 C   0  0  0  0  0  0  0  0  0  0  0  0
  191.6180  177.1280  143.7710 C   0  0  0  0  0  3  0  0  0  0  0  0
  190.6360  178.0160  139.3920 O   0  0  0  0  0  0  0  0  0  0  0  0
  189.2070  177.0530  143.6090 C   0  0  0  0  0  3  0  0  0  0  0  0
  187.3010  177.1820  138.2740 C   0  0  0  0  0  0  0  0  0  0  0  0
  186.5570  178.6750  140.1760 C   0  0  0  0  0  0  0  0  0  0  0  0
  191.7130  177.0890  142.3760 C   0  0  0  0  0  3  0  0  0  0  0  0
  188.0280  177.0480  141.4280 C   0  0  0  0  0  2  0  0  0  0  0  0
  190.3620  177.1050  144.4000 C   0  0  0  0  0  0  0  0  0  0  0  0
  189.2940  177.0170  142.2140 C   0  0  0  0  0  0  0  0  0  0  0  0
  187.7260  178.5010  141.1000 C   0  0  0  0  0  2  0  0  0  0  0  0
  189.3340  178.1610  139.0660 O   0  0  0  0  0  0  0  0  0  0  0  0
  186.5910  176.2460  137.3440 C   0  0  0  0  0  1  0  0  0  0  0  0
  190.2610  177.1140  145.8750 C   0  0  0  0  0  0  0  0  0  0  0  0
  189.2390  177.6520  146.4620 N   0  0  0  0  0  2  0  0  0  0  0  0
  192.1980  176.7180  147.7300 N   0  0  0  0  0  0  0  0  0  0  0  0
  192.2390  175.5660  146.9750 N   0  0  0  0  0  2  0  0  0  0  0  0
  191.3490  176.5810  146.6980 C   0  0  0  0  0  0  0  0  0  0  0  0
  190.0630  175.1840  138.0720 C   0  0  0  0  0  1  0  0  0  0  0  0
  189.4250  176.3400  137.3200 C   0  0  2  0  0  3  0  0  0  0  0  0
  189.8340  177.5300  135.2720 O   0  0  0  0  0  1  0  0  0  0  0  0
  190.4330  177.1220  136.4660 C   0  0  2  0  0  3  0  0  0  0  0  0
  194.7870  175.4390  137.7220 O   0  0  0  0  0  0  0  0  0  0  0  0
  191.6910  175.5930  135.1150 O   0  0  0  0  0  0  0  0  0  0  0  0
  194.0950  175.8830  136.7620 C   0  0  0  0  0  0  0  0  0  0  0  0
  192.7750  176.3730  137.0360 N   0  0  0  0  0  2  0  0  0  0  0  0
  191.6530  176.3150  136.1500 C   0  0  0  0  0  0  0  0  0  0  0  0
  194.6950  175.9390  135.4110 C   0  0  0  0  0  0  0  0  0  0  0  0
  194.7800  177.0440  134.8140 O   0  0  0  0  0  0  0  0  0  0  0  0
  195.1350  174.7070  134.7010 C   0  0  0  0  0  1  0  0  0  0  0  0
  185.5310  179.5530  140.5490 O   0  0  0  0  0  0  0  0  0  0  0  0
  184.5090  179.2090  141.4820 C   0  0  1  0  0  3  0  0  0  0  0  0
  182.2390  178.5000  140.8890 C   0  0  0  0  0  2  0  0  0  0  0  0
  183.0470  178.4560  139.7330 O   0  0  0  0  0  0  0  0  0  0  0  0
  183.6560  178.0690  140.9480 C   0  0  1  0  0  3  0  0  0  0  0  0
  185.1300  178.7800  142.8030 C   0  0  0  0  0  2  0  0  0  0  0  0
  184.6050  179.5760  143.8530 O   0  0  0  0  0  0  0  0  0  0  0  0
  183.7250  179.0510  144.7960 C   0  0  0  0  0  0  0  0  0  0  0  0
  182.5360  178.8100  144.4570 O   0  0  0  0  0  0  0  0  0  0  0  0
  184.1580  178.7880  146.0980 O   0  0  0  0  0  0  0  0  0  0  0  0
  185.5220  178.8780  146.4620 C   0  0  0  0  0  1  0  0  0  0  0  0
  1 13  2  0  0  0  0
  1 10  1  0  0  0  0
  2  1  1  0  0  0  0
  3  9  2  0  0  0  0
  4  8  2  0  0  0  0
  4 15  1  0  0  0  0
  5 12  1  0  0  0  0
  6  2  1  0  0  0  0
  7 12  2  0  0  0  0
  8  3  1  0  0  0  0
  9 34  1  0  0  0  0
  9 14  1  0  0  0  0
 10  5  2  0  0  0  0
 11 13  1  0  0  0  0
 12 17  1  0  0  0  0
 13  7  1  0  0  0  0
 14 11  1  0  0  0  0
 15  6  1  0  0  0  0
 16  8  1  0  0  0  0
 17 18  2  0  0  0  0
 17 21  1  0  0  0  0
 20 19  1  0  0  0  0
 21 20  1  0  0  0  0
 21 19  2  0  0  0  0
 23 22  1  1  0  0  0
 23  4  1  0  0  0  0
 25 24  1  6  0  0  0
 25 23  1  0  0  0  0
 27 30  2  0  0  0  0
 28 29  1  0  0  0  0
 28 26  2  0  0  0  0
 30 25  1  0  0  0  0
 30 29  1  0  0  0  0
 31 28  1  0  0  0  0
 32 31  2  0  0  0  0
 33 31  1  0  0  0  0
 34 35  1  0  0  0  0
 35 39  1  1  0  0  0
 36 38  1  0  0  0  0
 37 36  1  0  0  0  0
 37 38  1  0  0  0  0
 38 35  1  1  0  0  0
 39 40  1  0  0  0  0
 40 41  1  0  0  0  0
 41 43  1  0  0  0  0
 42 41  2  0  0  0  0
 43 44  1  0  0  0  0
M  END
>  <MODEL>
1

>  <REMARK>
 VINA RESULT:      -7.6      0.000      0.000
  Name = 
  13 active torsions:
  status: ('A' for Active; 'I' for Inactive)
    1  A    between atoms: C_7  and  C_37
    2  A    between atoms: C_9  and  O_12
    3  A    between atoms: C_9  and  O_19
    4  A    between atoms: C_11  and  C_20
    5  A    between atoms: O_12  and  C_34
    6  A    between atoms: C_17  and  C_29
    7  A    between atoms: C_17  and  C_44
    8  A    between atoms: C_21  and  O_41
    9  A    between atoms: C_23  and  C_32
   10  A    between atoms: C_23  and  C_34
   11  A    between atoms: C_23  and  O_41
   12  A    between atoms: C_31  and  C_40
   13  A    between atoms: C_37  and  C_40
                            x       y       z     vdW  Elec       q    Type
                         _______ _______ _______ _____ _____    ______ ____

>  <TORSDO>
F 13

$$$$
=
 OpenBabel10222416163D

 44 47  0  0  1  0  0  0  0  0999 V2000
  187.6170  177.1760  137.8190 C   0  0  0  0  0  0  0  0  0  0  0  0
  188.7650  176.5700  137.3040 O   0  0  0  0  0  0  0  0  0  0  0  0
  191.4060  176.8690  141.0050 N   0  0  0  0  0  0  0  0  0  0  0  0
  191.2750  176.2840  138.5980 C   0  0  0  0  0  0  0  0  0  0  0  0
  185.2500  177.6610  137.5800 C   0  0  0  0  0  3  0  0  0  0  0  0
  189.2090  175.3750  137.7410 O   0  0  0  0  0  0  0  0  0  0  0  0
  186.4960  178.6320  139.4100 C   0  0  0  0  0  3  0  0  0  0  0  0
  191.8850  176.8920  139.6410 C   0  0  0  0  0  0  0  0  0  0  0  0
  190.2130  176.8750  141.5400 C   0  0  0  0  0  0  0  0  0  0  0  0
  186.4090  177.0210  137.1300 C   0  0  0  0  0  3  0  0  0  0  0  0
  188.8940  178.1290  139.7890 C   0  0  0  0  0  2  0  0  0  0  0  0
  185.2850  178.4770  138.7230 C   0  0  0  0  0  0  0  0  0  0  0  0
  187.6590  177.9930  138.9680 C   0  0  0  0  0  0  0  0  0  0  0  0
  188.9400  176.9530  140.7510 C   0  0  0  0  0  2  0  0  0  0  0  0
  190.0400  175.6440  138.7710 O   0  0  0  0  0  0  0  0  0  0  0  0
  193.2400  177.5030  139.4500 C   0  0  0  0  0  1  0  0  0  0  0  0
  184.0680  179.1790  139.1820 C   0  0  0  0  0  0  0  0  0  0  0  0
  183.9270  180.4510  138.9830 N   0  0  0  0  0  2  0  0  0  0  0  0
  182.1490  178.4230  140.9420 N   0  0  0  0  0  0  0  0  0  0  0  0
  182.2620  177.3330  140.1060 N   0  0  0  0  0  2  0  0  0  0  0  0
  183.0350  178.4620  139.9330 C   0  0  0  0  0  0  0  0  0  0  0  0
  191.0630  176.8490  136.1700 C   0  0  0  0  0  1  0  0  0  0  0  0
  191.9560  176.2590  137.2480 C   0  0  2  0  0  3  0  0  0  0  0  0
  191.7590  173.8880  137.5910 O   0  0  0  0  0  1  0  0  0  0  0  0
  192.4760  174.8610  136.8900 C   0  0  2  0  0  3  0  0  0  0  0  0
  196.1780  172.1390  138.3930 O   0  0  0  0  0  0  0  0  0  0  0  0
  194.7510  175.6150  136.8800 O   0  0  0  0  0  0  0  0  0  0  0  0
  195.6810  173.3010  138.4150 C   0  0  0  0  0  0  0  0  0  0  0  0
  194.3880  173.5080  137.8290 N   0  0  0  0  0  2  0  0  0  0  0  0
  193.9340  174.7040  137.1890 C   0  0  0  0  0  0  0  0  0  0  0  0
  196.4220  174.3840  139.0990 C   0  0  0  0  0  0  0  0  0  0  0  0
  195.8440  175.0700  139.9820 O   0  0  0  0  0  0  0  0  0  0  0  0
  197.8160  174.7380  138.7170 C   0  0  0  0  0  1  0  0  0  0  0  0
  190.1330  176.7660  142.9340 O   0  0  0  0  0  0  0  0  0  0  0  0
  189.4450  177.7100  143.7520 C   0  0  1  0  0  3  0  0  0  0  0  0
  187.0180  177.6040  144.0770 C   0  0  0  0  0  2  0  0  0  0  0  0
  187.4710  176.3510  143.6140 O   0  0  0  0  0  0  0  0  0  0  0  0
  188.3150  177.0370  144.5160 C   0  0  1  0  0  3  0  0  0  0  0  0
  190.4070  178.3360  144.7510 C   0  0  0  0  0  2  0  0  0  0  0  0
  190.3490  177.6200  145.9760 O   0  0  0  0  0  0  0  0  0  0  0  0
  191.3810  176.7770  146.3770 C   0  0  0  0  0  0  0  0  0  0  0  0
  191.9590  176.0630  145.5140 O   0  0  0  0  0  0  0  0  0  0  0  0
  191.7750  176.7290  147.7160 O   0  0  0  0  0  0  0  0  0  0  0  0
  192.7680  175.8300  148.1690 C   0  0  0  0  0  1  0  0  0  0  0  0
  1 13  1  0  0  0  0
  2  6  1  0  0  0  0
  2  1  1  0  0  0  0
  3  9  2  0  0  0  0
  4 15  1  0  0  0  0
  4  8  2  0  0  0  0
  5 12  2  0  0  0  0
  6 15  1  0  0  0  0
  8  3  1  0  0  0  0
  9 34  1  0  0  0  0
 10  5  1  0  0  0  0
 10  1  2  0  0  0  0
 11 14  1  0  0  0  0
 12 17  1  0  0  0  0
 12  7  1  0  0  0  0
 13  7  2  0  0  0  0
 13 11  1  0  0  0  0
 14  9  1  0  0  0  0
 16  8  1  0  0  0  0
 17 21  1  0  0  0  0
 18 17  2  0  0  0  0
 20 19  1  0  0  0  0
 21 20  1  0  0  0  0
 21 19  2  0  0  0  0
 23 22  1  6  0  0  0
 23  4  1  0  0  0  0
 25 30  1  0  0  0  0
 25 23  1  0  0  0  0
 25 24  1  1  0  0  0
 26 28  2  0  0  0  0
 27 30  2  0  0  0  0
 28 31  1  0  0  0  0
 29 28  1  0  0  0  0
 30 29  1  0  0  0  0
 31 32  2  0  0  0  0
 33 31  1  0  0  0  0
 34 35  1  0  0  0  0
 35 39  1  1  0  0  0
 36 38  1  0  0  0  0
 37 36  1  0  0  0  0
 37 38  1  0  0  0  0
 38 35  1  6  0  0  0
 39 40  1  0  0  0  0
 40 41  1  0  0  0  0
 41 43  1  0  0  0  0
 42 41  2  0  0  0  0
 43 44  1  0  0  0  0
M  END
>  <MODEL>
2

>  <REMARK>
 VINA RESULT:      -7.3      3.003      6.297
  Name = 
  13 active torsions:
  status: ('A' for Active; 'I' for Inactive)
    1  A    between atoms: C_7  and  C_37
    2  A    between atoms: C_9  and  O_12
    3  A    between atoms: C_9  and  O_19
    4  A    between atoms: C_11  and  C_20
    5  A    between atoms: O_12  and  C_34
    6  A    between atoms: C_17  and  C_29
    7  A    between atoms: C_17  and  C_44
    8  A    between atoms: C_21  and  O_41
    9  A    between atoms: C_23  and  C_32
   10  A    between atoms: C_23  and  C_34
   11  A    between atoms: C_23  and  O_41
   12  A    between atoms: C_31  and  C_40
   13  A    between atoms: C_37  and  C_40
                            x       y       z     vdW  Elec       q    Type
                         _______ _______ _______ _____ _____    ______ ____

>  <TORSDO>
F 13

$$$$
=
 OpenBabel10222416163D

 44 47  0  0  1  0  0  0  0  0999 V2000
  188.1380  177.8050  141.9470 C   0  0  0  0  0  0  0  0  0  0  0  0
  188.5770  177.7190  140.6240 O   0  0  0  0  0  0  0  0  0  0  0  0
  184.6310  178.6430  138.5410 N   0  0  0  0  0  0  0  0  0  0  0  0
  186.9900  177.9240  138.2790 C   0  0  0  0  0  0  0  0  0  0  0  0
  188.6940  177.9400  144.3060 C   0  0  0  0  0  3  0  0  0  0  0  0
  188.6390  178.7930  139.8130 O   0  0  0  0  0  0  0  0  0  0  0  0
  186.3820  177.7420  143.6270 C   0  0  0  0  0  3  0  0  0  0  0  0
  185.6720  177.7950  138.0050 C   0  0  0  0  0  0  0  0  0  0  0  0
  184.4590  179.2400  139.6910 C   0  0  0  0  0  0  0  0  0  0  0  0
  189.0900  177.9110  142.9650 C   0  0  0  0  0  3  0  0  0  0  0  0
  185.7050  177.6860  141.2430 C   0  0  0  0  0  2  0  0  0  0  0  0
  187.3350  177.8500  144.6490 C   0  0  0  0  0  0  0  0  0  0  0  0
  186.7710  177.7170  142.2840 C   0  0  0  0  0  0  0  0  0  0  0  0
  185.4080  179.1230  140.8460 C   0  0  0  0  0  2  0  0  0  0  0  0
  187.4330  178.8730  139.2110 O   0  0  0  0  0  0  0  0  0  0  0  0
  185.2280  176.8270  136.9500 C   0  0  0  0  0  1  0  0  0  0  0  0
  186.9170  177.8480  146.0670 C   0  0  0  0  0  0  0  0  0  0  0  0
  185.6930  178.1220  146.3930 N   0  0  0  0  0  2  0  0  0  0  0  0
  188.8730  176.8570  147.6600 N   0  0  0  0  0  0  0  0  0  0  0  0
  188.4830  178.0060  148.3120 N   0  0  0  0  0  2  0  0  0  0  0  0
  187.8950  177.6100  147.1300 C   0  0  0  0  0  0  0  0  0  0  0  0
  188.3370  175.8160  138.3310 C   0  0  0  0  0  1  0  0  0  0  0  0
  187.9920  177.0660  137.5390 C   0  0  2  0  0  3  0  0  0  0  0  0
  189.0370  178.4240  135.8540 O   0  0  0  0  0  1  0  0  0  0  0  0
  189.2340  177.8630  137.1170 C   0  0  2  0  0  3  0  0  0  0  0  0
  192.2930  174.9890  134.7180 O   0  0  0  0  0  0  0  0  0  0  0  0
  191.2520  176.9980  138.0770 O   0  0  0  0  0  0  0  0  0  0  0  0
  191.7210  175.1820  135.8280 C   0  0  0  0  0  0  0  0  0  0  0  0
  190.7460  176.2290  135.9270 N   0  0  0  0  0  2  0  0  0  0  0  0
  190.4680  177.0160  137.0890 C   0  0  0  0  0  0  0  0  0  0  0  0
  192.0330  174.2820  136.9610 C   0  0  0  0  0  0  0  0  0  0  0  0
  191.1040  173.6510  137.5270 O   0  0  0  0  0  0  0  0  0  0  0  0
  193.4140  174.1600  137.5020 C   0  0  0  0  0  1  0  0  0  0  0  0
  183.3340  180.0640  139.8260 O   0  0  0  0  0  0  0  0  0  0  0  0
  182.0030  179.5590  139.9100 C   0  0  1  0  0  3  0  0  0  0  0  0
  180.3540  180.2200  138.2220 C   0  0  0  0  0  2  0  0  0  0  0  0
  181.6470  180.3890  137.6860 O   0  0  0  0  0  0  0  0  0  0  0  0
  181.4490  179.2690  138.5240 C   0  0  1  0  0  3  0  0  0  0  0  0
  181.9820  178.2740  140.7260 C   0  0  0  0  0  2  0  0  0  0  0  0
  180.9680  178.3580  141.7150 O   0  0  0  0  0  0  0  0  0  0  0  0
  181.0950  179.1960  142.8190 C   0  0  0  0  0  0  0  0  0  0  0  0
  180.4630  180.2860  142.8370 O   0  0  0  0  0  0  0  0  0  0  0  0
  181.9050  178.8290  143.8970 O   0  0  0  0  0  0  0  0  0  0  0  0
  183.2220  179.3240  144.0410 C   0  0  0  0  0  1  0  0  0  0  0  0
  1 13  2  0  0  0  0
  1 10  1  0  0  0  0
  2  1  1  0  0  0  0
  3  9  2  0  0  0  0
  4 15  1  0  0  0  0
  5 12  1  0  0  0  0
  6  2  1  0  0  0  0
  7 12  2  0  0  0  0
  8  4  2  0  0  0  0
  8  3  1  0  0  0  0
  9 34  1  0  0  0  0
  9 14  1  0  0  0  0
 10  5  2  0  0  0  0
 11 13  1  0  0  0  0
 12 17  1  0  0  0  0
 13  7  1  0  0  0  0
 14 11  1  0  0  0  0
 15  6  1  0  0  0  0
 16  8  1  0  0  0  0
 17 18  2  0  0  0  0
 17 21  1  0  0  0  0
 19 20  1  0  0  0  0
 21 19  2  0  0  0  0
 21 20  1  0  0  0  0
 23  4  1  0  0  0  0
 23 22  1  1  0  0  0
 25 24  1  6  0  0  0
 25 23  1  0  0  0  0
 26 28  2  0  0  0  0
 28 29  1  0  0  0  0
 28 31  1  0  0  0  0
 29 30  1  0  0  0  0
 30 25  1  0  0  0  0
 30 27  2  0  0  0  0
 31 33  1  0  0  0  0
 31 32  2  0  0  0  0
 34 35  1  0  0  0  0
 35 39  1  1  0  0  0
 36 38  1  0  0  0  0
 37 36  1  0  0  0  0
 37 38  1  0  0  0  0
 38 35  1  1  0  0  0
 39 40  1  0  0  0  0
 40 41  1  0  0  0  0
 41 42  2  0  0  0  0
 41 43  1  0  0  0  0
 43 44  1  0  0  0  0
M  END
>  <MODEL>
3

>  <REMARK>
 VINA RESULT:      -6.9      2.113      2.999
  Name = 
  13 active torsions:
  status: ('A' for Active; 'I' for Inactive)
    1  A    between atoms: C_7  and  C_37
    2  A    between atoms: C_9  and  O_12
    3  A    between atoms: C_9  and  O_19
    4  A    between atoms: C_11  and  C_20
    5  A    between atoms: O_12  and  C_34
    6  A    between atoms: C_17  and  C_29
    7  A    between atoms: C_17  and  C_44
    8  A    between atoms: C_21  and  O_41
    9  A    between atoms: C_23  and  C_32
   10  A    between atoms: C_23  and  C_34
   11  A    between atoms: C_23  and  O_41
   12  A    between atoms: C_31  and  C_40
   13  A    between atoms: C_37  and  C_40
                            x       y       z     vdW  Elec       q    Type
                         _______ _______ _______ _____ _____    ______ ____

>  <TORSDO>
F 13

$$$$
=
 OpenBabel10222416163D

 44 47  0  0  1  0  0  0  0  0999 V2000
  190.2370  177.4580  139.9960 C   0  0  0  0  0  0  0  0  0  0  0  0
  189.9600  177.7270  138.6540 O   0  0  0  0  0  0  0  0  0  0  0  0
  185.5150  178.6470  139.0530 N   0  0  0  0  0  0  0  0  0  0  0  0
  187.4220  178.2810  137.5100 C   0  0  0  0  0  0  0  0  0  0  0  0
  191.8940  177.1110  141.7360 C   0  0  0  0  0  3  0  0  0  0  0  0
  189.6280  178.9580  138.2180 O   0  0  0  0  0  0  0  0  0  0  0  0
  189.5470  176.8130  142.2350 C   0  0  0  0  0  3  0  0  0  0  0  0
  186.1400  178.0690  137.8850 C   0  0  0  0  0  0  0  0  0  0  0  0
  185.9470  178.9420  140.2510 C   0  0  0  0  0  0  0  0  0  0  0  0
  191.5720  177.4360  140.4150 C   0  0  0  0  0  3  0  0  0  0  0  0
  187.7750  177.2270  140.5520 C   0  0  0  0  0  2  0  0  0  0  0  0
  190.8830  176.7920  142.6580 C   0  0  0  0  0  0  0  0  0  0  0  0
  189.2170  177.1390  140.9160 C   0  0  0  0  0  0  0  0  0  0  0  0
  187.3420  178.6730  140.7300 C   0  0  0  0  0  2  0  0  0  0  0  0
  188.2840  179.0350  138.3170 O   0  0  0  0  0  0  0  0  0  0  0  0
  185.2160  177.3240  136.9700 C   0  0  0  0  0  1  0  0  0  0  0  0
  191.2240  176.4180  144.0470 C   0  0  0  0  0  0  0  0  0  0  0  0
  192.0410  175.4400  144.2840 N   0  0  0  0  0  2  0  0  0  0  0  0
  189.9290  178.1600  145.6720 N   0  0  0  0  0  0  0  0  0  0  0  0
  190.2290  177.1070  146.5080 N   0  0  0  0  0  2  0  0  0  0  0  0
  190.5890  177.0990  145.1770 C   0  0  0  0  0  0  0  0  0  0  0  0
  186.9730  178.1160  135.0530 C   0  0  0  0  0  1  0  0  0  0  0  0
  187.9110  177.7340  136.1870 C   0  0  2  0  0  3  0  0  0  0  0  0
  187.9490  175.7510  137.5440 O   0  0  0  0  0  1  0  0  0  0  0  0
  188.1820  176.2250  136.2510 C   0  0  2  0  0  3  0  0  0  0  0  0
  192.0420  173.3310  136.5570 O   0  0  0  0  0  0  0  0  0  0  0  0
  190.1560  176.5230  134.9260 O   0  0  0  0  0  0  0  0  0  0  0  0
  191.6640  174.5330  136.4560 C   0  0  0  0  0  0  0  0  0  0  0  0
  190.2610  174.8210  136.5280 N   0  0  0  0  0  2  0  0  0  0  0  0
  189.5820  175.8830  135.8500 C   0  0  0  0  0  0  0  0  0  0  0  0
  192.6850  175.5970  136.3350 C   0  0  0  0  0  0  0  0  0  0  0  0
  192.7890  176.4650  137.2400 O   0  0  0  0  0  0  0  0  0  0  0  0
  193.5470  175.7160  135.1270 C   0  0  0  0  0  1  0  0  0  0  0  0
  185.0500  179.5800  141.1190 O   0  0  0  0  0  0  0  0  0  0  0  0
  184.1630  178.8720  141.9830 C   0  0  1  0  0  3  0  0  0  0  0  0
  181.7490  178.6990  141.5960 C   0  0  0  0  0  2  0  0  0  0  0  0
  182.3720  179.1260  140.4040 O   0  0  0  0  0  0  0  0  0  0  0  0
  183.0730  178.1770  141.1820 C   0  0  1  0  0  3  0  0  0  0  0  0
  184.9320  177.8250  142.7770 C   0  0  0  0  0  2  0  0  0  0  0  0
  185.2250  178.3330  144.0690 O   0  0  0  0  0  0  0  0  0  0  0  0
  186.2940  177.8480  144.8170 C   0  0  0  0  0  0  0  0  0  0  0  0
  186.9800  176.8960  144.3590 O   0  0  0  0  0  0  0  0  0  0  0  0
  186.6050  178.4140  146.0560 O   0  0  0  0  0  0  0  0  0  0  0  0
  185.5990  178.7800  146.9810 C   0  0  0  0  0  1  0  0  0  0  0  0
  1 10  2  0  0  0  0
  1 13  1  0  0  0  0
  2  1  1  0  0  0  0
  3  9  2  0  0  0  0
  4  8  2  0  0  0  0
  4 15  1  0  0  0  0
  5 12  2  0  0  0  0
  6 15  1  0  0  0  0
  6  2  1  0  0  0  0
  7 12  1  0  0  0  0
  8  3  1  0  0  0  0
  9 14  1  0  0  0  0
  9 34  1  0  0  0  0
 10  5  1  0  0  0  0
 11 14  1  0  0  0  0
 11 13  1  0  0  0  0
 12 17  1  0  0  0  0
 13  7  2  0  0  0  0
 16  8  1  0  0  0  0
 17 18  2  0  0  0  0
 17 21  1  0  0  0  0
 19 20  1  0  0  0  0
 21 19  2  0  0  0  0
 21 20  1  0  0  0  0
 23 22  1  6  0  0  0
 23 25  1  0  0  0  0
 23  4  1  0  0  0  0
 25 24  1  1  0  0  0
 27 30  2  0  0  0  0
 28 29  1  0  0  0  0
 28 26  2  0  0  0  0
 30 25  1  0  0  0  0
 30 29  1  0  0  0  0
 31 28  1  0  0  0  0
 31 32  2  0  0  0  0
 33 31  1  0  0  0  0
 34 35  1  0  0  0  0
 35 39  1  6  0  0  0
 37 38  1  0  0  0  0
 37 36  1  0  0  0  0
 38 36  1  0  0  0  0
 38 35  1  1  0  0  0
 39 40  1  0  0  0  0
 40 41  1  0  0  0  0
 41 43  1  0  0  0  0
 42 41  2  0  0  0  0
 43 44  1  0  0  0  0
M  END
>  <MODEL>
4

>  <REMARK>
 VINA RESULT:      -6.9      1.672      2.307
  Name = 
  13 active torsions:
  status: ('A' for Active; 'I' for Inactive)
    1  A    between atoms: C_7  and  C_37
    2  A    between atoms: C_9  and  O_12
    3  A    between atoms: C_9  and  O_19
    4  A    between atoms: C_11  and  C_20
    5  A    between atoms: O_12  and  C_34
    6  A    between atoms: C_17  and  C_29
    7  A    between atoms: C_17  and  C_44
    8  A    between atoms: C_21  and  O_41
    9  A    between atoms: C_23  and  C_32
   10  A    between atoms: C_23  and  C_34
   11  A    between atoms: C_23  and  O_41
   12  A    between atoms: C_31  and  C_40
   13  A    between atoms: C_37  and  C_40
                            x       y       z     vdW  Elec       q    Type
                         _______ _______ _______ _____ _____    ______ ____

>  <TORSDO>
F 13

$$$$
=
 OpenBabel10222416163D

 44 47  0  0  1  0  0  0  0  0999 V2000
  188.6770  177.6800  142.1330 C   0  0  0  0  0  0  0  0  0  0  0  0
  189.1320  177.5650  140.8180 O   0  0  0  0  0  0  0  0  0  0  0  0
  185.2340  178.5370  138.6680 N   0  0  0  0  0  0  0  0  0  0  0  0
  187.5800  177.7660  138.4490 C   0  0  0  0  0  0  0  0  0  0  0  0
  189.2060  177.8380  144.4970 C   0  0  0  0  0  3  0  0  0  0  0  0
  189.2270  178.6240  139.9910 O   0  0  0  0  0  0  0  0  0  0  0  0
  186.8990  177.6780  143.7900 C   0  0  0  0  0  3  0  0  0  0  0  0
  186.2640  177.6600  138.1590 C   0  0  0  0  0  0  0  0  0  0  0  0
  185.0600  179.1550  139.8070 C   0  0  0  0  0  0  0  0  0  0  0  0
  189.6190  177.7810  143.1620 C   0  0  0  0  0  3  0  0  0  0  0  0
  186.2530  177.6000  141.3980 C   0  0  0  0  0  2  0  0  0  0  0  0
  187.8400  177.7820  144.8230 C   0  0  0  0  0  0  0  0  0  0  0  0
  187.3050  177.6240  142.4530 C   0  0  0  0  0  0  0  0  0  0  0  0
  185.9900  179.0360  140.9760 C   0  0  0  0  0  2  0  0  0  0  0  0
  188.0310  178.7190  139.3720 O   0  0  0  0  0  0  0  0  0  0  0  0
  185.8140  176.6860  137.1130 C   0  0  0  0  0  1  0  0  0  0  0  0
  187.4040  177.8110  146.2350 C   0  0  0  0  0  0  0  0  0  0  0  0
  188.0700  177.1700  147.1430 N   0  0  0  0  0  2  0  0  0  0  0  0
  185.5560  179.5010  147.2730 N   0  0  0  0  0  0  0  0  0  0  0  0
  184.7980  178.5990  146.5590 N   0  0  0  0  0  2  0  0  0  0  0  0
  186.1710  178.5020  146.6180 C   0  0  0  0  0  0  0  0  0  0  0  0
  188.9200  175.6560  138.5720 C   0  0  0  0  0  1  0  0  0  0  0  0
  188.5740  176.8760  137.7350 C   0  0  2  0  0  3  0  0  0  0  0  0
  189.4970  178.4620  136.1830 O   0  0  0  0  0  1  0  0  0  0  0  0
  189.8160  177.6510  137.2750 C   0  0  2  0  0  3  0  0  0  0  0  0
  194.0860  175.6230  138.2840 O   0  0  0  0  0  0  0  0  0  0  0  0
  190.8550  176.0090  135.8720 O   0  0  0  0  0  0  0  0  0  0  0  0
  193.3740  176.1140  137.3630 C   0  0  0  0  0  0  0  0  0  0  0  0
  192.1190  176.7160  137.7100 N   0  0  0  0  0  2  0  0  0  0  0  0
  190.9430  176.7420  136.8960 C   0  0  0  0  0  0  0  0  0  0  0  0
  193.8910  176.1060  135.9760 C   0  0  0  0  0  0  0  0  0  0  0  0
  194.2190  177.1910  135.4290 O   0  0  0  0  0  0  0  0  0  0  0  0
  193.9620  174.8520  135.1780 C   0  0  0  0  0  1  0  0  0  0  0  0
  183.9500  180.0040  139.9150 O   0  0  0  0  0  0  0  0  0  0  0  0
  182.6140  179.5270  140.0600 C   0  0  1  0  0  3  0  0  0  0  0  0
  180.8250  180.8180  138.9910 C   0  0  0  0  0  2  0  0  0  0  0  0
  182.0330  181.0570  138.3030 O   0  0  0  0  0  0  0  0  0  0  0  0
  181.8240  179.7430  138.7790 C   0  0  1  0  0  3  0  0  0  0  0  0
  182.6220  178.0410  140.3860 C   0  0  0  0  0  2  0  0  0  0  0  0
  181.9910  177.3220  139.3380 O   0  0  0  0  0  0  0  0  0  0  0  0
  182.0210  175.9320  139.2860 C   0  0  0  0  0  0  0  0  0  0  0  0
  182.9670  175.3620  138.6780 O   0  0  0  0  0  0  0  0  0  0  0  0
  181.0210  175.1790  139.9050 O   0  0  0  0  0  0  0  0  0  0  0  0
  179.7050  175.6730  140.0610 C   0  0  0  0  0  1  0  0  0  0  0  0
  1 13  2  0  0  0  0
  1 10  1  0  0  0  0
  2  1  1  0  0  0  0
  3  9  2  0  0  0  0
  4 15  1  0  0  0  0
  5 12  1  0  0  0  0
  6  2  1  0  0  0  0
  7 12  2  0  0  0  0
  8  4  2  0  0  0  0
  8  3  1  0  0  0  0
  9 34  1  0  0  0  0
  9 14  1  0  0  0  0
 10  5  2  0  0  0  0
 11 13  1  0  0  0  0
 12 17  1  0  0  0  0
 13  7  1  0  0  0  0
 14 11  1  0  0  0  0
 15  6  1  0  0  0  0
 16  8  1  0  0  0  0
 17 21  1  0  0  0  0
 17 18  2  0  0  0  0
 20 21  1  0  0  0  0
 20 19  1  0  0  0  0
 21 19  2  0  0  0  0
 23  4  1  0  0  0  0
 23 22  1  1  0  0  0
 25 24  1  6  0  0  0
 25 23  1  0  0  0  0
 27 30  2  0  0  0  0
 28 29  1  0  0  0  0
 28 26  2  0  0  0  0
 30 25  1  0  0  0  0
 30 29  1  0  0  0  0
 31 28  1  0  0  0  0
 32 31  2  0  0  0  0
 33 31  1  0  0  0  0
 34 35  1  0  0  0  0
 35 39  1  6  0  0  0
 37 38  1  0  0  0  0
 37 36  1  0  0  0  0
 38 36  1  0  0  0  0
 38 35  1  1  0  0  0
 40 39  1  0  0  0  0
 41 40  1  0  0  0  0
 41 43  1  0  0  0  0
 42 41  2  0  0  0  0
 43 44  1  0  0  0  0
M  END
>  <MODEL>
5

>  <REMARK>
 VINA RESULT:      -6.7      2.163      3.535
  Name = 
  13 active torsions:
  status: ('A' for Active; 'I' for Inactive)
    1  A    between atoms: C_7  and  C_37
    2  A    between atoms: C_9  and  O_12
    3  A    between atoms: C_9  and  O_19
    4  A    between atoms: C_11  and  C_20
    5  A    between atoms: O_12  and  C_34
    6  A    between atoms: C_17  and  C_29
    7  A    between atoms: C_17  and  C_44
    8  A    between atoms: C_21  and  O_41
    9  A    between atoms: C_23  and  C_32
   10  A    between atoms: C_23  and  C_34
   11  A    between atoms: C_23  and  O_41
   12  A    between atoms: C_31  and  C_40
   13  A    between atoms: C_37  and  C_40
                            x       y       z     vdW  Elec       q    Type
                         _______ _______ _______ _____ _____    ______ ____

>  <TORSDO>
F 13

$$$$
=
 OpenBabel10222416163D

 44 47  0  0  1  0  0  0  0  0999 V2000
  190.0780  177.5930  140.7730 C   0  0  0  0  0  0  0  0  0  0  0  0
  189.8880  177.8080  139.4060 O   0  0  0  0  0  0  0  0  0  0  0  0
  185.3810  178.4810  139.4480 N   0  0  0  0  0  0  0  0  0  0  0  0
  187.4150  178.1810  138.0620 C   0  0  0  0  0  0  0  0  0  0  0  0
  191.6160  177.3930  142.6400 C   0  0  0  0  0  3  0  0  0  0  0  0
  189.5210  179.0050  138.9070 O   0  0  0  0  0  0  0  0  0  0  0  0
  189.2590  176.9740  142.9760 C   0  0  0  0  0  3  0  0  0  0  0  0
  186.1230  177.9060  138.3490 C   0  0  0  0  0  0  0  0  0  0  0  0
  185.7050  178.8340  140.6650 C   0  0  0  0  0  0  0  0  0  0  0  0
  191.3760  177.6600  141.2890 C   0  0  0  0  0  3  0  0  0  0  0  0
  187.5980  177.2360  141.1540 C   0  0  0  0  0  2  0  0  0  0  0  0
  190.5580  177.0420  143.4950 C   0  0  0  0  0  0  0  0  0  0  0  0
  189.0110  177.2430  141.6260 C   0  0  0  0  0  0  0  0  0  0  0  0
  187.0730  178.6590  141.2530 C   0  0  0  0  0  2  0  0  0  0  0  0
  188.1710  179.0070  138.9050 O   0  0  0  0  0  0  0  0  0  0  0  0
  185.3130  177.0840  137.3930 C   0  0  0  0  0  1  0  0  0  0  0  0
  190.8150  176.7280  144.9170 C   0  0  0  0  0  0  0  0  0  0  0  0
  191.8400  176.0140  145.2590 N   0  0  0  0  0  2  0  0  0  0  0  0
  188.7720  177.8360  146.3130 N   0  0  0  0  0  0  0  0  0  0  0  0
  189.4790  177.1470  147.2750 N   0  0  0  0  0  2  0  0  0  0  0  0
  189.8740  177.1570  145.9540 C   0  0  0  0  0  0  0  0  0  0  0  0
  187.1210  177.8440  135.6000 C   0  0  0  0  0  1  0  0  0  0  0  0
  188.0320  177.6270  136.7970 C   0  0  2  0  0  3  0  0  0  0  0  0
  188.2600  175.7460  138.2760 O   0  0  0  0  0  1  0  0  0  0  0  0
  188.4600  176.1620  136.9580 C   0  0  2  0  0  3  0  0  0  0  0  0
  192.4460  173.4280  137.0440 O   0  0  0  0  0  0  0  0  0  0  0  0
  190.4810  176.7470  135.8100 O   0  0  0  0  0  0  0  0  0  0  0  0
  192.0120  174.6130  137.1050 C   0  0  0  0  0  0  0  0  0  0  0  0
  190.5940  174.8250  137.1380 N   0  0  0  0  0  2  0  0  0  0  0  0
  189.8960  175.9480  136.5920 C   0  0  0  0  0  0  0  0  0  0  0  0
  192.9800  175.7270  137.2050 C   0  0  0  0  0  0  0  0  0  0  0  0
  192.9380  176.5000  138.1970 O   0  0  0  0  0  0  0  0  0  0  0  0
  193.9610  176.0080  136.1210 C   0  0  0  0  0  1  0  0  0  0  0  0
  184.7110  179.4430  141.4430 O   0  0  0  0  0  0  0  0  0  0  0  0
  183.8460  178.7160  142.3130 C   0  0  1  0  0  3  0  0  0  0  0  0
  184.4590  178.6000  144.6830 C   0  0  0  0  0  2  0  0  0  0  0  0
  185.0300  179.7610  144.1210 O   0  0  0  0  0  0  0  0  0  0  0  0
  183.7410  179.4030  143.6650 C   0  0  1  0  0  3  0  0  0  0  0  0
  182.4550  178.6170  141.7030 C   0  0  0  0  0  2  0  0  0  0  0  0
  181.4880  179.0030  142.6670 O   0  0  0  0  0  0  0  0  0  0  0  0
  180.2530  179.5240  142.2930 C   0  0  0  0  0  0  0  0  0  0  0  0
  179.2220  178.8130  142.4230 O   0  0  0  0  0  0  0  0  0  0  0  0
  180.1580  180.8230  141.7860 O   0  0  0  0  0  0  0  0  0  0  0  0
  178.9360  181.3480  141.3060 C   0  0  0  0  0  1  0  0  0  0  0  0
  1 10  2  0  0  0  0
  1 13  1  0  0  0  0
  2  1  1  0  0  0  0
  3  9  2  0  0  0  0
  4  8  2  0  0  0  0
  4 15  1  0  0  0  0
  5 12  2  0  0  0  0
  6  2  1  0  0  0  0
  7 12  1  0  0  0  0
  8  3  1  0  0  0  0
  9 14  1  0  0  0  0
  9 34  1  0  0  0  0
 10  5  1  0  0  0  0
 11 14  1  0  0  0  0
 11 13  1  0  0  0  0
 12 17  1  0  0  0  0
 13  7  2  0  0  0  0
 15  6  1  0  0  0  0
 16  8  1  0  0  0  0
 17 18  2  0  0  0  0
 17 21  1  0  0  0  0
 19 20  1  0  0  0  0
 21 19  2  0  0  0  0
 21 20  1  0  0  0  0
 23 22  1  6  0  0  0
 23 25  1  0  0  0  0
 23  4  1  0  0  0  0
 25 24  1  1  0  0  0
 26 28  2  0  0  0  0
 27 30  2  0  0  0  0
 28 29  1  0  0  0  0
 28 31  1  0  0  0  0
 30 25  1  0  0  0  0
 30 29  1  0  0  0  0
 31 32  2  0  0  0  0
 33 31  1  0  0  0  0
 34 35  1  0  0  0  0
 35 39  1  6  0  0  0
 37 36  1  0  0  0  0
 38 35  1  6  0  0  0
 38 37  1  0  0  0  0
 38 36  1  0  0  0  0
 39 40  1  0  0  0  0
 41 42  2  0  0  0  0
 41 40  1  0  0  0  0
 43 41  1  0  0  0  0
 44 43  1  0  0  0  0
M  END
>  <MODEL>
6

>  <REMARK>
 VINA RESULT:      -6.6      1.760      2.975
  Name = 
  13 active torsions:
  status: ('A' for Active; 'I' for Inactive)
    1  A    between atoms: C_7  and  C_37
    2  A    between atoms: C_9  and  O_12
    3  A    between atoms: C_9  and  O_19
    4  A    between atoms: C_11  and  C_20
    5  A    between atoms: O_12  and  C_34
    6  A    between atoms: C_17  and  C_29
    7  A    between atoms: C_17  and  C_44
    8  A    between atoms: C_21  and  O_41
    9  A    between atoms: C_23  and  C_32
   10  A    between atoms: C_23  and  C_34
   11  A    between atoms: C_23  and  O_41
   12  A    between atoms: C_31  and  C_40
   13  A    between atoms: C_37  and  C_40
                            x       y       z     vdW  Elec       q    Type
                         _______ _______ _______ _____ _____    ______ ____

>  <TORSDO>
F 13

$$$$
=
 OpenBabel10222416163D

 44 47  0  0  1  0  0  0  0  0999 V2000
  187.8110  176.8230  137.4830 C   0  0  0  0  0  0  0  0  0  0  0  0
  188.9820  176.1850  137.0700 O   0  0  0  0  0  0  0  0  0  0  0  0
  191.6370  177.2870  140.6050 N   0  0  0  0  0  0  0  0  0  0  0  0
  191.5140  176.2600  138.3510 C   0  0  0  0  0  0  0  0  0  0  0  0
  185.4220  177.1460  137.2010 C   0  0  0  0  0  3  0  0  0  0  0  0
  189.4880  175.1140  137.7130 O   0  0  0  0  0  0  0  0  0  0  0  0
  186.6350  178.4960  138.7970 C   0  0  0  0  0  3  0  0  0  0  0  0
  192.1030  177.0780  139.2530 C   0  0  0  0  0  0  0  0  0  0  0  0
  190.4500  177.3370  141.1500 C   0  0  0  0  0  0  0  0  0  0  0  0
  186.6060  176.4880  136.8560 C   0  0  0  0  0  3  0  0  0  0  0  0
  189.0580  178.1830  139.2210 C   0  0  0  0  0  2  0  0  0  0  0  0
  185.4270  178.1610  138.1720 C   0  0  0  0  0  0  0  0  0  0  0  0
  187.8230  177.8400  138.4610 C   0  0  0  0  0  0  0  0  0  0  0  0
  189.1690  177.2090  140.3830 C   0  0  0  0  0  2  0  0  0  0  0  0
  190.3130  175.6070  138.6600 O   0  0  0  0  0  0  0  0  0  0  0  0
  193.4250  177.7040  138.9280 C   0  0  0  0  0  1  0  0  0  0  0  0
  184.1810  178.8790  138.5140 C   0  0  0  0  0  0  0  0  0  0  0  0
  184.2260  180.0400  139.0880 N   0  0  0  0  0  2  0  0  0  0  0  0
  181.5420  178.2620  138.4370 N   0  0  0  0  0  0  0  0  0  0  0  0
  182.1290  177.2430  137.7190 N   0  0  0  0  0  2  0  0  0  0  0  0
  182.8760  178.2580  138.2770 C   0  0  0  0  0  0  0  0  0  0  0  0
  191.2420  176.3190  135.8640 C   0  0  0  0  0  1  0  0  0  0  0  0
  192.1850  176.0160  137.0170 C   0  0  2  0  0  3  0  0  0  0  0  0
  192.2830  173.7980  137.9380 O   0  0  0  0  0  1  0  0  0  0  0  0
  192.8000  174.6130  136.9280 C   0  0  2  0  0  3  0  0  0  0  0  0
  196.9850  172.3390  137.7570 O   0  0  0  0  0  0  0  0  0  0  0  0
  194.9380  175.6730  136.7050 O   0  0  0  0  0  0  0  0  0  0  0  0
  196.3490  173.4180  137.9300 C   0  0  0  0  0  0  0  0  0  0  0  0
  194.9760  173.4810  137.5220 N   0  0  0  0  0  2  0  0  0  0  0  0
  194.2920  174.6410  137.0370 C   0  0  0  0  0  0  0  0  0  0  0  0
  197.0260  174.5480  138.6040 C   0  0  0  0  0  0  0  0  0  0  0  0
  197.9350  175.1770  138.0020 O   0  0  0  0  0  0  0  0  0  0  0  0
  196.7150  174.9170  140.0120 C   0  0  0  0  0  1  0  0  0  0  0  0
  190.3880  177.4860  142.5420 O   0  0  0  0  0  0  0  0  0  0  0  0
  190.1230  176.4030  143.4320 C   0  0  1  0  0  3  0  0  0  0  0  0
  191.7330  176.2330  145.2720 C   0  0  0  0  0  2  0  0  0  0  0  0
  191.5970  177.5890  144.9090 O   0  0  0  0  0  0  0  0  0  0  0  0
  190.4250  176.8010  144.8680 C   0  0  1  0  0  3  0  0  0  0  0  0
  188.6610  175.9920  143.3340 C   0  0  0  0  0  2  0  0  0  0  0  0
  187.9080  176.6840  144.3180 O   0  0  0  0  0  0  0  0  0  0  0  0
  186.9510  177.6330  143.9700 C   0  0  0  0  0  0  0  0  0  0  0  0
  186.6720  177.8050  142.7530 O   0  0  0  0  0  0  0  0  0  0  0  0
  186.3030  178.3800  144.9570 O   0  0  0  0  0  0  0  0  0  0  0  0
  184.9310  178.7090  144.8620 C   0  0  0  0  0  1  0  0  0  0  0  0
  1 13  1  0  0  0  0
  2  1  1  0  0  0  0
  2  6  1  0  0  0  0
  3  9  2  0  0  0  0
  4 15  1  0  0  0  0
  4  8  2  0  0  0  0
  5 12  2  0  0  0  0
  6 15  1  0  0  0  0
  8  3  1  0  0  0  0
  9 34  1  0  0  0  0
 10  5  1  0  0  0  0
 10  1  2  0  0  0  0
 11 14  1  0  0  0  0
 12 17  1  0  0  0  0
 12  7  1  0  0  0  0
 13  7  2  0  0  0  0
 13 11  1  0  0  0  0
 14  9  1  0  0  0  0
 16  8  1  0  0  0  0
 17 18  2  0  0  0  0
 20 21  1  0  0  0  0
 20 19  1  0  0  0  0
 21 19  2  0  0  0  0
 21 17  1  0  0  0  0
 23 22  1  6  0  0  0
 23  4  1  0  0  0  0
 25 23  1  0  0  0  0
 25 30  1  0  0  0  0
 25 24  1  1  0  0  0
 26 28  2  0  0  0  0
 27 30  2  0  0  0  0
 28 31  1  0  0  0  0
 29 28  1  0  0  0  0
 30 29  1  0  0  0  0
 31 33  1  0  0  0  0
 32 31  2  0  0  0  0
 34 35  1  0  0  0  0
 35 39  1  1  0  0  0
 37 36  1  0  0  0  0
 38 35  1  6  0  0  0
 38 37  1  0  0  0  0
 38 36  1  0  0  0  0
 39 40  1  0  0  0  0
 41 40  1  0  0  0  0
 41 43  1  0  0  0  0
 42 41  2  0  0  0  0
 44 43  1  0  0  0  0
M  END
>  <MODEL>
7

>  <REMARK>
 VINA RESULT:      -6.4      2.759      6.393
  Name = 
  13 active torsions:
  status: ('A' for Active; 'I' for Inactive)
    1  A    between atoms: C_7  and  C_37
    2  A    between atoms: C_9  and  O_12
    3  A    between atoms: C_9  and  O_19
    4  A    between atoms: C_11  and  C_20
    5  A    between atoms: O_12  and  C_34
    6  A    between atoms: C_17  and  C_29
    7  A    between atoms: C_17  and  C_44
    8  A    between atoms: C_21  and  O_41
    9  A    between atoms: C_23  and  C_32
   10  A    between atoms: C_23  and  C_34
   11  A    between atoms: C_23  and  O_41
   12  A    between atoms: C_31  and  C_40
   13  A    between atoms: C_37  and  C_40
                            x       y       z     vdW  Elec       q    Type
                         _______ _______ _______ _____ _____    ______ ____

>  <TORSDO>
F 13

$$$$
=
 OpenBabel10222416163D

 44 47  0  0  1  0  0  0  0  0999 V2000
  182.3070  178.7760  142.3820 C   0  0  0  0  0  0  0  0  0  0  0  0
  181.1220  179.0310  141.6880 O   0  0  0  0  0  0  0  0  0  0  0  0
  182.2900  177.2190  137.6730 N   0  0  0  0  0  0  0  0  0  0  0  0
  180.6100  178.5300  138.9410 C   0  0  0  0  0  0  0  0  0  0  0  0
  183.4800  178.6840  144.5050 C   0  0  0  0  0  3  0  0  0  0  0  0
  180.2950  178.0460  141.2850 O   0  0  0  0  0  0  0  0  0  0  0  0
  184.6910  178.3110  142.4470 C   0  0  0  0  0  3  0  0  0  0  0  0
  181.3800  178.3290  137.8480 C   0  0  0  0  0  0  0  0  0  0  0  0
  183.0570  176.5470  138.4910 C   0  0  0  0  0  0  0  0  0  0  0  0
  182.3010  178.8730  143.7780 C   0  0  0  0  0  3  0  0  0  0  0  0
  183.5690  178.2980  140.2360 C   0  0  0  0  0  2  0  0  0  0  0  0
  184.6880  178.4060  143.8450 C   0  0  0  0  0  0  0  0  0  0  0  0
  183.5160  178.4960  141.7120 C   0  0  0  0  0  0  0  0  0  0  0  0
  183.1960  176.8520  139.9520 C   0  0  0  0  0  2  0  0  0  0  0  0
  180.7200  177.6870  140.0550 O   0  0  0  0  0  0  0  0  0  0  0  0
  181.1910  179.1960  136.6410 C   0  0  0  0  0  1  0  0  0  0  0  0
  185.9410  178.2370  144.6110 C   0  0  0  0  0  0  0  0  0  0  0  0
  187.0060  177.7720  144.0370 N   0  0  0  0  0  2  0  0  0  0  0  0
  186.6590  178.5690  147.2040 N   0  0  0  0  0  0  0  0  0  0  0  0
  185.3350  178.9500  147.1880 N   0  0  0  0  0  2  0  0  0  0  0  0
  185.9790  178.5230  146.0460 C   0  0  0  0  0  0  0  0  0  0  0  0
  178.9310  179.7890  137.5770 C   0  0  0  0  0  1  0  0  0  0  0  0
  179.5920  179.6490  138.9380 C   0  0  2  0  0  3  0  0  0  0  0  0
  179.6110  181.3100  140.6760 O   0  0  0  0  0  1  0  0  0  0  0  0
  180.1840  180.9700  139.4480 C   0  0  2  0  0  3  0  0  0  0  0  0
  180.9310  182.9610  135.1070 O   0  0  0  0  0  0  0  0  0  0  0  0
  179.1690  183.0270  138.7540 O   0  0  0  0  0  0  0  0  0  0  0  0
  180.8230  183.2020  136.3430 C   0  0  0  0  0  0  0  0  0  0  0  0
  180.7030  182.0980  137.2510 N   0  0  0  0  0  2  0  0  0  0  0  0
  179.9760  182.0950  138.4830 C   0  0  0  0  0  0  0  0  0  0  0  0
  180.8900  184.6050  136.8080 C   0  0  0  0  0  0  0  0  0  0  0  0
  181.9040  185.0030  137.4390 O   0  0  0  0  0  0  0  0  0  0  0  0
  179.7520  185.5450  136.6180 C   0  0  0  0  0  1  0  0  0  0  0  0
  183.7610  175.4570  137.9620 O   0  0  0  0  0  0  0  0  0  0  0  0
  185.0800  175.5630  137.4300 C   0  0  1  0  0  3  0  0  0  0  0  0
  185.7700  173.2170  137.2630 C   0  0  0  0  0  2  0  0  0  0  0  0
  184.4720  173.3500  136.7270 O   0  0  0  0  0  0  0  0  0  0  0  0
  185.3710  174.4120  136.4810 C   0  0  1  0  0  3  0  0  0  0  0  0
  185.2340  176.8740  136.6730 C   0  0  0  0  0  2  0  0  0  0  0  0
  185.8230  177.8450  137.5240 O   0  0  0  0  0  0  0  0  0  0  0  0
  187.2030  177.9400  137.6760 C   0  0  0  0  0  0  0  0  0  0  0  0
  187.9530  177.4050  136.8170 O   0  0  0  0  0  0  0  0  0  0  0  0
  187.7490  178.6260  138.7640 O   0  0  0  0  0  0  0  0  0  0  0  0
  188.9290  178.1850  139.4070 C   0  0  0  0  0  1  0  0  0  0  0  0
  1 10  1  0  0  0  0
  2  1  1  0  0  0  0
  3  8  1  0  0  0  0
  3  9  2  0  0  0  0
  4 15  1  0  0  0  0
  6  2  1  0  0  0  0
  7 12  2  0  0  0  0
  8  4  2  0  0  0  0
  9 14  1  0  0  0  0
 10  5  2  0  0  0  0
 11 13  1  0  0  0  0
 12  5  1  0  0  0  0
 12 17  1  0  0  0  0
 13  1  2  0  0  0  0
 13  7  1  0  0  0  0
 14 11  1  0  0  0  0
 15  6  1  0  0  0  0
 16  8  1  0  0  0  0
 17 21  1  0  0  0  0
 18 17  2  0  0  0  0
 20 19  1  0  0  0  0
 21 20  1  0  0  0  0
 21 19  2  0  0  0  0
 23 22  1  6  0  0  0
 23  4  1  0  0  0  0
 23 25  1  0  0  0  0
 25 24  1  1  0  0  0
 26 28  2  0  0  0  0
 28 31  1  0  0  0  0
 28 29  1  0  0  0  0
 29 30  1  0  0  0  0
 30 27  2  0  0  0  0
 30 25  1  0  0  0  0
 31 32  2  0  0  0  0
 33 31  1  0  0  0  0
 34  9  1  0  0  0  0
 35 39  1  6  0  0  0
 35 34  1  0  0  0  0
 37 36  1  0  0  0  0
 38 37  1  0  0  0  0
 38 36  1  0  0  0  0
 38 35  1  1  0  0  0
 39 40  1  0  0  0  0
 40 41  1  0  0  0  0
 41 43  1  0  0  0  0
 42 41  2  0  0  0  0
 43 44  1  0  0  0  0
M  END
>  <MODEL>
8

>  <REMARK>
 VINA RESULT:      -6.4      4.289      9.546
  Name = 
  13 active torsions:
  status: ('A' for Active; 'I' for Inactive)
    1  A    between atoms: C_7  and  C_37
    2  A    between atoms: C_9  and  O_12
    3  A    between atoms: C_9  and  O_19
    4  A    between atoms: C_11  and  C_20
    5  A    between atoms: O_12  and  C_34
    6  A    between atoms: C_17  and  C_29
    7  A    between atoms: C_17  and  C_44
    8  A    between atoms: C_21  and  O_41
    9  A    between atoms: C_23  and  C_32
   10  A    between atoms: C_23  and  C_34
   11  A    between atoms: C_23  and  O_41
   12  A    between atoms: C_31  and  C_40
   13  A    between atoms: C_37  and  C_40
                            x       y       z     vdW  Elec       q    Type
                         _______ _______ _______ _____ _____    ______ ____

>  <TORSDO>
F 13

$$$$
=
 OpenBabel10222416163D

 44 47  0  0  1  0  0  0  0  0999 V2000
  183.0950  178.0360  137.6730 C   0  0  0  0  0  0  0  0  0  0  0  0
  184.1270  177.3510  137.0280 O   0  0  0  0  0  0  0  0  0  0  0  0
  187.5520  178.5310  139.7910 N   0  0  0  0  0  0  0  0  0  0  0  0
  186.8890  177.4140  137.6790 C   0  0  0  0  0  0  0  0  0  0  0  0
  180.7110  178.4090  137.9400 C   0  0  0  0  0  3  0  0  0  0  0  0
  184.7520  176.2960  137.5840 O   0  0  0  0  0  0  0  0  0  0  0  0
  182.2850  179.7920  139.1450 C   0  0  0  0  0  3  0  0  0  0  0  0
  187.6850  178.2540  138.3790 C   0  0  0  0  0  0  0  0  0  0  0  0
  186.5270  178.6340  140.5960 C   0  0  0  0  0  0  0  0  0  0  0  0
  181.7720  177.7060  137.3610 C   0  0  0  0  0  3  0  0  0  0  0  0
  184.7350  179.4350  139.0070 C   0  0  0  0  0  2  0  0  0  0  0  0
  180.9600  179.4630  138.8350 C   0  0  0  0  0  0  0  0  0  0  0  0
  183.3520  179.0920  138.5720 C   0  0  0  0  0  0  0  0  0  0  0  0
  185.0990  178.5070  140.1550 C   0  0  0  0  0  2  0  0  0  0  0  0
  185.7840  176.8070  138.2900 O   0  0  0  0  0  0  0  0  0  0  0  0
  188.9040  178.8310  137.7270 C   0  0  0  0  0  1  0  0  0  0  0  0
  179.8390  180.2270  139.4250 C   0  0  0  0  0  0  0  0  0  0  0  0
  179.0660  180.9460  138.6740 N   0  0  0  0  0  2  0  0  0  0  0  0
  179.7270  180.8750  142.0550 N   0  0  0  0  0  0  0  0  0  0  0  0
  179.1840  179.6090  142.0150 N   0  0  0  0  0  2  0  0  0  0  0  0
  179.6310  180.2410  140.8740 C   0  0  0  0  0  0  0  0  0  0  0  0
  186.0570  177.4140  135.3190 C   0  0  0  0  0  1  0  0  0  0  0  0
  187.2250  177.0980  136.2380 C   0  0  2  0  0  3  0  0  0  0  0  0
  187.4170  174.8990  137.1910 O   0  0  0  0  0  1  0  0  0  0  0  0
  187.7430  175.6630  136.0680 C   0  0  2  0  0  3  0  0  0  0  0  0
  191.9580  173.3260  136.4440 O   0  0  0  0  0  0  0  0  0  0  0  0
  189.8050  176.5250  135.2030 O   0  0  0  0  0  0  0  0  0  0  0  0
  191.3980  174.4560  136.5290 C   0  0  0  0  0  0  0  0  0  0  0  0
  189.9710  174.5280  136.4100 N   0  0  0  0  0  2  0  0  0  0  0  0
  189.2240  175.6160  135.8580 C   0  0  0  0  0  0  0  0  0  0  0  0
  192.2290  175.6480  136.8120 C   0  0  0  0  0  0  0  0  0  0  0  0
  193.0890  176.0190  135.9720 O   0  0  0  0  0  0  0  0  0  0  0  0
  192.1280  176.3800  138.1040 C   0  0  0  0  0  1  0  0  0  0  0  0
  186.7940  178.8420  141.9550 O   0  0  0  0  0  0  0  0  0  0  0  0
  186.6480  177.8250  142.9440 C   0  0  1  0  0  3  0  0  0  0  0  0
  188.5080  176.2520  143.2160 C   0  0  0  0  0  2  0  0  0  0  0  0
  189.0080  177.4630  142.6930 O   0  0  0  0  0  0  0  0  0  0  0  0
  187.9710  177.5650  143.6470 C   0  0  1  0  0  3  0  0  0  0  0  0
  185.6170  178.2490  143.9800 C   0  0  0  0  0  2  0  0  0  0  0  0
  185.9980  177.7570  145.2560 O   0  0  0  0  0  0  0  0  0  0  0  0
  185.7120  178.4580  146.4230 C   0  0  0  0  0  0  0  0  0  0  0  0
  184.5500  178.9160  146.5930 O   0  0  0  0  0  0  0  0  0  0  0  0
  186.6970  178.6460  147.3960 O   0  0  0  0  0  0  0  0  0  0  0  0
  187.8230  177.7950  147.4890 C   0  0  0  0  0  1  0  0  0  0  0  0
  1 13  1  0  0  0  0
  2  6  1  0  0  0  0
  2  1  1  0  0  0  0
  3  9  2  0  0  0  0
  4 15  1  0  0  0  0
  4  8  2  0  0  0  0
  5 12  2  0  0  0  0
  6 15  1  0  0  0  0
  8  3  1  0  0  0  0
  9 34  1  0  0  0  0
 10  1  2  0  0  0  0
 10  5  1  0  0  0  0
 11 14  1  0  0  0  0
 12  7  1  0  0  0  0
 12 17  1  0  0  0  0
 13 11  1  0  0  0  0
 13  7  2  0  0  0  0
 14  9  1  0  0  0  0
 16  8  1  0  0  0  0
 17 21  1  0  0  0  0
 18 17  2  0  0  0  0
 20 19  1  0  0  0  0
 21 20  1  0  0  0  0
 21 19  2  0  0  0  0
 23 22  1  6  0  0  0
 23  4  1  0  0  0  0
 25 23  1  0  0  0  0
 25 24  1  1  0  0  0
 26 28  2  0  0  0  0
 27 30  2  0  0  0  0
 28 31  1  0  0  0  0
 29 28  1  0  0  0  0
 30 25  1  0  0  0  0
 30 29  1  0  0  0  0
 31 33  1  0  0  0  0
 32 31  2  0  0  0  0
 34 35  1  0  0  0  0
 35 39  1  1  0  0  0
 36 38  1  0  0  0  0
 37 36  1  0  0  0  0
 37 38  1  0  0  0  0
 38 35  1  6  0  0  0
 39 40  1  0  0  0  0
 40 41  1  0  0  0  0
 41 42  2  0  0  0  0
 41 43  1  0  0  0  0
 43 44  1  0  0  0  0
M  END
>  <MODEL>
9

>  <REMARK>
 VINA RESULT:      -6.4      3.171      6.771
  Name = 
  13 active torsions:
  status: ('A' for Active; 'I' for Inactive)
    1  A    between atoms: C_7  and  C_37
    2  A    between atoms: C_9  and  O_12
    3  A    between atoms: C_9  and  O_19
    4  A    between atoms: C_11  and  C_20
    5  A    between atoms: O_12  and  C_34
    6  A    between atoms: C_17  and  C_29
    7  A    between atoms: C_17  and  C_44
    8  A    between atoms: C_21  and  O_41
    9  A    between atoms: C_23  and  C_32
   10  A    between atoms: C_23  and  C_34
   11  A    between atoms: C_23  and  O_41
   12  A    between atoms: C_31  and  C_40
   13  A    between atoms: C_37  and  C_40
                            x       y       z     vdW  Elec       q    Type
                         _______ _______ _______ _____ _____    ______ ____

>  <TORSDO>
F 13

$$$$
