=
 OpenBabel10222417093D

 25 27  0  0  1  0  0  0  0  0999 V2000
  188.2590  177.5560  144.6310 C   0  0  0  0  0  0  0  0  0  0  0  0
  189.4900  177.3300  146.7210 C   0  0  0  0  0  3  0  0  0  0  0  0
  188.3830  177.7130  148.8260 O   0  0  0  0  0  1  0  0  0  0  0  0
  188.3430  177.6620  147.4400 C   0  0  0  0  0  0  0  0  0  0  0  0
  189.4450  177.2740  145.3290 C   0  0  0  0  0  3  0  0  0  0  0  0
  187.0910  177.9020  145.3610 C   0  0  0  0  0  0  0  0  0  0  0  0
  187.1560  177.9430  146.7650 C   0  0  0  0  0  3  0  0  0  0  0  0
  188.2100  177.4400  143.1990 N   0  0  0  0  0  2  0  0  0  0  0  0
  191.4130  177.2510  140.4230 C   0  0  0  0  0  0  0  0  0  0  0  0
  190.5280  177.6100  142.6830 N   0  0  0  0  0  0  0  0  0  0  0  0
  190.2080  177.0650  139.9810 N   0  0  0  0  0  0  0  0  0  0  0  0
  191.6160  177.5730  141.7980 N   0  0  0  0  0  2  0  0  0  0  0  0
  189.3090  177.4190  142.2740 C   0  0  0  0  0  0  0  0  0  0  0  0
  189.0070  177.2240  140.8060 C   0  0  1  0  0  3  0  0  0  0  0  0
  188.1920  178.3920  140.2850 C   0  0  0  0  0  1  0  0  0  0  0  0
  192.5660  177.1080  139.5260 C   0  0  0  0  0  0  0  0  0  0  0  0
  193.7270  177.3880  139.9280 O   0  0  0  0  0  1  0  0  0  0  0  0
  192.3820  176.6610  138.2230 O   0  0  0  0  0  0  0  0  0  0  0  0
  183.3480  178.9050  143.4920 C   0  0  0  0  0  0  0  0  0  0  0  0
  184.4090  178.4380  142.7130 C   0  0  0  0  0  3  0  0  0  0  0  0
  184.7210  178.7110  145.4740 C   0  0  0  0  0  3  0  0  0  0  0  0
  183.5040  179.0440  144.8720 C   0  0  0  0  0  3  0  0  0  0  0  0
  185.7940  178.2290  144.7060 C   0  0  0  0  0  0  0  0  0  0  0  0
  182.1690  179.2270  142.9070 F   0  0  0  0  0  0  0  0  0  0  0  0
  185.6240  178.1050  143.3170 C   0  0  0  0  0  3  0  0  0  0  0  0
  1  5  2  0  0  0  0
  1  6  1  0  0  0  0
  2  4  2  0  0  0  0
  4  3  1  0  0  0  0
  5  2  1  0  0  0  0
  6  7  2  0  0  0  0
  7  4  1  0  0  0  0
  8  1  1  0  0  0  0
  9 12  1  0  0  0  0
 11  9  2  0  0  0  0
 11 14  1  0  0  0  0
 12 10  1  0  0  0  0
 13 10  2  0  0  0  0
 13  8  1  0  0  0  0
 14 15  1  6  0  0  0
 14 13  1  0  0  0  0
 16 17  1  0  0  0  0
 16  9  1  0  0  0  0
 18 16  2  0  0  0  0
 19 22  1  0  0  0  0
 20 25  1  0  0  0  0
 20 19  2  0  0  0  0
 22 21  2  0  0  0  0
 23  6  1  0  0  0  0
 23 21  1  0  0  0  0
 24 19  1  0  0  0  0
 25 23  2  0  0  0  0
M  END
>  <MODEL>
1

>  <REMARK>
 VINA RESULT:     -10.3      0.000      0.000
  Name = 
  3 active torsions:
  status: ('A' for Active; 'I' for Inactive)
    1  A    between atoms: C_1  and  N_7
    2  A    between atoms: C_3  and  C_11
    3  A    between atoms: C_15  and  C_21
                            x       y       z     vdW  Elec       q    Type
                         _______ _______ _______ _____ _____    ______ ____

>  <TORSDO>
F 3

$$$$
=
 OpenBabel10222417093D

 25 27  0  0  1  0  0  0  0  0999 V2000
  189.7470  177.1380  144.3400 C   0  0  0  0  0  0  0  0  0  0  0  0
  191.7580  176.6640  145.6330 C   0  0  0  0  0  3  0  0  0  0  0  0
  191.7090  176.7900  148.0380 O   0  0  0  0  0  1  0  0  0  0  0  0
  191.0630  176.9060  146.8160 C   0  0  0  0  0  0  0  0  0  0  0  0
  191.1030  176.7750  144.4070 C   0  0  0  0  0  3  0  0  0  0  0  0
  189.0390  177.3930  145.5440 C   0  0  0  0  0  0  0  0  0  0  0  0
  189.7160  177.2650  146.7700 C   0  0  0  0  0  3  0  0  0  0  0  0
  189.0690  177.1950  143.0750 N   0  0  0  0  0  2  0  0  0  0  0  0
  190.6920  176.9740  139.1610 C   0  0  0  0  0  0  0  0  0  0  0  0
  190.9330  177.1650  141.5950 N   0  0  0  0  0  0  0  0  0  0  0  0
  189.4010  176.9760  139.2890 N   0  0  0  0  0  0  0  0  0  0  0  0
  191.5130  177.1110  140.3180 N   0  0  0  0  0  2  0  0  0  0  0  0
  189.6440  177.1600  141.7590 C   0  0  0  0  0  0  0  0  0  0  0  0
  188.7120  177.1700  140.5690 C   0  0  1  0  0  3  0  0  0  0  0  0
  187.9380  178.4740  140.5280 C   0  0  0  0  0  1  0  0  0  0  0  0
  191.3080  176.8090  137.8390 C   0  0  0  0  0  0  0  0  0  0  0  0
  190.5920  176.7600  136.8030 O   0  0  0  0  0  0  0  0  0  0  0  0
  192.6890  176.7070  137.7230 O   0  0  0  0  0  1  0  0  0  0  0  0
  184.9130  178.6090  145.6440 C   0  0  0  0  0  0  0  0  0  0  0  0
  185.4930  178.2210  144.4340 C   0  0  0  0  0  3  0  0  0  0  0  0
  187.0110  178.1990  146.7780 C   0  0  0  0  0  3  0  0  0  0  0  0
  185.6720  178.6000  146.8150 C   0  0  0  0  0  3  0  0  0  0  0  0
  187.6050  177.7940  145.5700 C   0  0  0  0  0  0  0  0  0  0  0  0
  183.6160  178.9980  145.6790 F   0  0  0  0  0  0  0  0  0  0  0  0
  186.8310  177.8190  144.3980 C   0  0  0  0  0  3  0  0  0  0  0  0
  1  5  2  0  0  0  0
  1  6  1  0  0  0  0
  2  4  2  0  0  0  0
  4  3  1  0  0  0  0
  5  2  1  0  0  0  0
  6 23  1  0  0  0  0
  6  7  2  0  0  0  0
  7  4  1  0  0  0  0
  8  1  1  0  0  0  0
  9 11  2  0  0  0  0
  9 12  1  0  0  0  0
 10 13  2  0  0  0  0
 11 14  1  0  0  0  0
 12 10  1  0  0  0  0
 13  8  1  0  0  0  0
 14 15  1  6  0  0  0
 14 13  1  0  0  0  0
 16  9  1  0  0  0  0
 17 16  2  0  0  0  0
 18 16  1  0  0  0  0
 19 24  1  0  0  0  0
 19 22  1  0  0  0  0
 20 19  2  0  0  0  0
 21 22  2  0  0  0  0
 23 21  1  0  0  0  0
 25 20  1  0  0  0  0
 25 23  2  0  0  0  0
M  END
>  <MODEL>
2

>  <REMARK>
 VINA RESULT:      -9.8      1.534      2.216
  Name = 
  3 active torsions:
  status: ('A' for Active; 'I' for Inactive)
    1  A    between atoms: C_1  and  N_7
    2  A    between atoms: C_3  and  C_11
    3  A    between atoms: C_15  and  C_21
                            x       y       z     vdW  Elec       q    Type
                         _______ _______ _______ _____ _____    ______ ____

>  <TORSDO>
F 3

$$$$
=
 OpenBabel10222417093D

 25 27  0  0  1  0  0  0  0  0999 V2000
  187.4660  177.9510  143.6870 C   0  0  0  0  0  0  0  0  0  0  0  0
  185.1550  178.5240  144.2040 C   0  0  0  0  0  3  0  0  0  0  0  0
  184.3840  178.5090  146.4860 O   0  0  0  0  0  1  0  0  0  0  0  0
  185.4010  178.3240  145.5610 C   0  0  0  0  0  0  0  0  0  0  0  0
  186.1810  178.3440  143.2770 C   0  0  0  0  0  3  0  0  0  0  0  0
  187.7170  177.7380  145.0690 C   0  0  0  0  0  0  0  0  0  0  0  0
  186.6710  177.9360  145.9870 C   0  0  0  0  0  3  0  0  0  0  0  0
  188.5300  177.8220  142.7290 N   0  0  0  0  0  2  0  0  0  0  0  0
  188.4350  178.4370  138.5330 C   0  0  0  0  0  0  0  0  0  0  0  0
  187.3290  178.2120  140.7110 N   0  0  0  0  0  0  0  0  0  0  0  0
  189.5840  178.2150  139.0930 N   0  0  0  0  0  0  0  0  0  0  0  0
  187.2490  178.4040  139.3230 N   0  0  0  0  0  2  0  0  0  0  0  0
  188.4650  177.9950  141.3050 C   0  0  0  0  0  0  0  0  0  0  0  0
  189.7430  177.8660  140.5090 C   0  0  1  0  0  3  0  0  0  0  0  0
  190.2830  176.4540  140.6190 C   0  0  0  0  0  1  0  0  0  0  0  0
  188.3530  178.7460  137.1000 C   0  0  0  0  0  0  0  0  0  0  0  0
  187.4700  179.5330  136.6660 O   0  0  0  0  0  1  0  0  0  0  0  0
  189.2530  178.1700  136.2120 O   0  0  0  0  0  0  0  0  0  0  0  0
  191.5220  176.4480  146.6100 C   0  0  0  0  0  0  0  0  0  0  0  0
  191.3720  176.6890  145.2420 C   0  0  0  0  0  3  0  0  0  0  0  0
  189.2060  177.0520  146.9650 C   0  0  0  0  0  3  0  0  0  0  0  0
  190.4380  176.6270  147.4710 C   0  0  0  0  0  3  0  0  0  0  0  0
  189.0430  177.3100  145.5940 C   0  0  0  0  0  0  0  0  0  0  0  0
  192.7160  176.0360  147.0980 F   0  0  0  0  0  0  0  0  0  0  0  0
  190.1410  177.1140  144.7380 C   0  0  0  0  0  3  0  0  0  0  0  0
  1  6  1  0  0  0  0
  2  4  2  0  0  0  0
  4  7  1  0  0  0  0
  4  3  1  0  0  0  0
  5  1  2  0  0  0  0
  5  2  1  0  0  0  0
  6 23  1  0  0  0  0
  6  7  2  0  0  0  0
  8  1  1  0  0  0  0
  9 11  2  0  0  0  0
  9 12  1  0  0  0  0
 10 13  2  0  0  0  0
 11 14  1  0  0  0  0
 12 10  1  0  0  0  0
 13  8  1  0  0  0  0
 14 15  1  6  0  0  0
 14 13  1  0  0  0  0
 16  9  1  0  0  0  0
 17 16  1  0  0  0  0
 18 16  2  0  0  0  0
 19 24  1  0  0  0  0
 19 22  1  0  0  0  0
 20 19  2  0  0  0  0
 21 22  2  0  0  0  0
 23 21  1  0  0  0  0
 25 20  1  0  0  0  0
 25 23  2  0  0  0  0
M  END
>  <MODEL>
3

>  <REMARK>
 VINA RESULT:      -9.8      3.273      5.085
  Name = 
  3 active torsions:
  status: ('A' for Active; 'I' for Inactive)
    1  A    between atoms: C_1  and  N_7
    2  A    between atoms: C_3  and  C_11
    3  A    between atoms: C_15  and  C_21
                            x       y       z     vdW  Elec       q    Type
                         _______ _______ _______ _____ _____    ______ ____

>  <TORSDO>
F 3

$$$$
=
 OpenBabel10222417093D

 25 27  0  0  1  0  0  0  0  0999 V2000
  185.6630  178.3030  143.2190 C   0  0  0  0  0  0  0  0  0  0  0  0
  183.3360  178.6580  142.5920 C   0  0  0  0  0  3  0  0  0  0  0  0
  181.6620  178.9940  144.2910 O   0  0  0  0  0  1  0  0  0  0  0  0
  182.9830  178.7650  143.9350 C   0  0  0  0  0  0  0  0  0  0  0  0
  184.6660  178.4340  142.2380 C   0  0  0  0  0  3  0  0  0  0  0  0
  185.3050  178.4030  144.5890 C   0  0  0  0  0  0  0  0  0  0  0  0
  183.9600  178.6400  144.9230 C   0  0  0  0  0  3  0  0  0  0  0  0
  187.0390  178.1270  142.8410 N   0  0  0  0  0  2  0  0  0  0  0  0
  188.7870  178.2660  138.9780 C   0  0  0  0  0  0  0  0  0  0  0  0
  186.8410  178.2230  140.4700 N   0  0  0  0  0  0  0  0  0  0  0  0
  189.5760  178.1710  140.0030 N   0  0  0  0  0  0  0  0  0  0  0  0
  187.3750  178.2540  139.1730 N   0  0  0  0  0  2  0  0  0  0  0  0
  187.6030  178.1370  141.5200 C   0  0  0  0  0  0  0  0  0  0  0  0
  189.1010  177.9920  141.3790 C   0  0  1  0  0  3  0  0  0  0  0  0
  189.5400  176.6330  141.8880 C   0  0  0  0  0  1  0  0  0  0  0  0
  189.3400  178.4080  137.6250 C   0  0  0  0  0  0  0  0  0  0  0  0
  189.0550  179.4140  136.9220 O   0  0  0  0  0  0  0  0  0  0  0  0
  190.1820  177.4300  137.1110 O   0  0  0  0  0  1  0  0  0  0  0  0
  188.1120  177.9760  147.8220 C   0  0  0  0  0  0  0  0  0  0  0  0
  188.4170  177.4520  146.5640 C   0  0  0  0  0  3  0  0  0  0  0  0
  185.9930  178.7770  146.9700 C   0  0  0  0  0  3  0  0  0  0  0  0
  186.8990  178.6360  148.0260 C   0  0  0  0  0  3  0  0  0  0  0  0
  186.2910  178.2650  145.6960 C   0  0  0  0  0  0  0  0  0  0  0  0
  188.9900  177.8390  148.8440 F   0  0  0  0  0  0  0  0  0  0  0  0
  187.5120  177.5940  145.5100 C   0  0  0  0  0  3  0  0  0  0  0  0
  1  6  1  0  0  0  0
  2  4  2  0  0  0  0
  4  3  1  0  0  0  0
  4  7  1  0  0  0  0
  5  2  1  0  0  0  0
  5  1  2  0  0  0  0
  6  7  2  0  0  0  0
  6 23  1  0  0  0  0
  8  1  1  0  0  0  0
  9 12  1  0  0  0  0
  9 11  2  0  0  0  0
 10 13  2  0  0  0  0
 11 14  1  0  0  0  0
 12 10  1  0  0  0  0
 13  8  1  0  0  0  0
 14 13  1  0  0  0  0
 14 15  1  6  0  0  0
 16  9  1  0  0  0  0
 17 16  2  0  0  0  0
 18 16  1  0  0  0  0
 19 22  1  0  0  0  0
 19 24  1  0  0  0  0
 20 19  2  0  0  0  0
 21 22  2  0  0  0  0
 23 21  1  0  0  0  0
 25 23  2  0  0  0  0
 25 20  1  0  0  0  0
M  END
>  <MODEL>
4

>  <REMARK>
 VINA RESULT:      -9.4      3.049      4.683
  Name = 
  3 active torsions:
  status: ('A' for Active; 'I' for Inactive)
    1  A    between atoms: C_1  and  N_7
    2  A    between atoms: C_3  and  C_11
    3  A    between atoms: C_15  and  C_21
                            x       y       z     vdW  Elec       q    Type
                         _______ _______ _______ _____ _____    ______ ____

>  <TORSDO>
F 3

$$$$
=
 OpenBabel10222417093D

 25 27  0  0  1  0  0  0  0  0999 V2000
  189.6110  177.1490  144.0490 C   0  0  0  0  0  0  0  0  0  0  0  0
  191.4160  176.7470  145.6360 C   0  0  0  0  0  3  0  0  0  0  0  0
  191.0230  176.9730  148.0010 O   0  0  0  0  0  1  0  0  0  0  0  0
  190.5580  177.0320  146.6950 C   0  0  0  0  0  0  0  0  0  0  0  0
  190.9430  176.8010  144.3250 C   0  0  0  0  0  3  0  0  0  0  0  0
  188.7360  177.4480  145.1270 C   0  0  0  0  0  0  0  0  0  0  0  0
  189.2310  177.3770  146.4420 C   0  0  0  0  0  3  0  0  0  0  0  0
  189.1210  177.1470  142.6980 N   0  0  0  0  0  2  0  0  0  0  0  0
  191.2960  176.8510  139.0670 C   0  0  0  0  0  0  0  0  0  0  0  0
  191.1800  177.1240  141.5030 N   0  0  0  0  0  0  0  0  0  0  0  0
  190.0010  176.8200  139.0090 N   0  0  0  0  0  0  0  0  0  0  0  0
  191.9390  177.0470  140.3250 N   0  0  0  0  0  2  0  0  0  0  0  0
  189.8800  177.0870  141.4800 C   0  0  0  0  0  0  0  0  0  0  0  0
  189.1300  177.0340  140.1700 C   0  0  1  0  0  3  0  0  0  0  0  0
  188.3390  178.3130  139.9730 C   0  0  0  0  0  1  0  0  0  0  0  0
  192.1010  176.6630  137.8540 C   0  0  0  0  0  0  0  0  0  0  0  0
  193.3500  176.8230  137.8860 O   0  0  0  0  0  1  0  0  0  0  0  0
  191.4860  176.3060  136.6610 O   0  0  0  0  0  0  0  0  0  0  0  0
  184.6120  178.5190  144.5320 C   0  0  0  0  0  0  0  0  0  0  0  0
  185.1610  178.5600  145.8160 C   0  0  0  0  0  3  0  0  0  0  0  0
  186.7430  177.7910  143.6470 C   0  0  0  0  0  3  0  0  0  0  0  0
  185.4010  178.1320  143.4480 C   0  0  0  0  0  3  0  0  0  0  0  0
  187.3130  177.8380  144.9300 C   0  0  0  0  0  0  0  0  0  0  0  0
  183.3120  178.8500  144.3410 F   0  0  0  0  0  0  0  0  0  0  0  0
  186.5020  178.2190  146.0120 C   0  0  0  0  0  3  0  0  0  0  0  0
  1  5  2  0  0  0  0
  1  6  1  0  0  0  0
  2  4  2  0  0  0  0
  4  3  1  0  0  0  0
  5  2  1  0  0  0  0
  6  7  2  0  0  0  0
  7  4  1  0  0  0  0
  8  1  1  0  0  0  0
  9 12  1  0  0  0  0
 11  9  2  0  0  0  0
 11 14  1  0  0  0  0
 12 10  1  0  0  0  0
 13 10  2  0  0  0  0
 13  8  1  0  0  0  0
 14 15  1  6  0  0  0
 14 13  1  0  0  0  0
 16 17  1  0  0  0  0
 16  9  1  0  0  0  0
 18 16  2  0  0  0  0
 19 20  1  0  0  0  0
 20 25  2  0  0  0  0
 21 23  2  0  0  0  0
 22 21  1  0  0  0  0
 22 19  2  0  0  0  0
 23  6  1  0  0  0  0
 23 25  1  0  0  0  0
 24 19  1  0  0  0  0
M  END
>  <MODEL>
5

>  <REMARK>
 VINA RESULT:      -9.4      1.316      1.963
  Name = 
  3 active torsions:
  status: ('A' for Active; 'I' for Inactive)
    1  A    between atoms: C_1  and  N_7
    2  A    between atoms: C_3  and  C_11
    3  A    between atoms: C_15  and  C_21
                            x       y       z     vdW  Elec       q    Type
                         _______ _______ _______ _____ _____    ______ ____

>  <TORSDO>
F 3

$$$$
=
 OpenBabel10222417093D

 25 27  0  0  1  0  0  0  0  0999 V2000
  188.1590  177.7210  142.5420 C   0  0  0  0  0  0  0  0  0  0  0  0
  189.9720  177.5620  140.9220 C   0  0  0  0  0  3  0  0  0  0  0  0
  192.2400  177.2440  141.6700 O   0  0  0  0  0  1  0  0  0  0  0  0
  190.8920  177.4030  141.9560 C   0  0  0  0  0  0  0  0  0  0  0  0
  188.6170  177.7150  141.2140 C   0  0  0  0  0  3  0  0  0  0  0  0
  189.0950  177.5670  143.5980 C   0  0  0  0  0  0  0  0  0  0  0  0
  190.4560  177.4040  143.2810 C   0  0  0  0  0  3  0  0  0  0  0  0
  186.7540  177.8240  142.8280 N   0  0  0  0  0  2  0  0  0  0  0  0
  183.6140  179.2140  140.3360 C   0  0  0  0  0  0  0  0  0  0  0  0
  185.9930  178.8760  140.8330 N   0  0  0  0  0  0  0  0  0  0  0  0
  183.3010  178.6890  141.4810 N   0  0  0  0  0  0  0  0  0  0  0  0
  184.9880  179.3640  139.9840 N   0  0  0  0  0  2  0  0  0  0  0  0
  185.7130  178.3370  141.9820 C   0  0  0  0  0  0  0  0  0  0  0  0
  184.2890  178.2830  142.4850 C   0  0  1  0  0  3  0  0  0  0  0  0
  184.1400  179.1570  143.7160 C   0  0  0  0  0  1  0  0  0  0  0  0
  182.5660  179.6280  139.3960 C   0  0  0  0  0  0  0  0  0  0  0  0
  181.5090  178.9530  139.2810 O   0  0  0  0  0  1  0  0  0  0  0  0
  182.7360  180.7720  138.6250 O   0  0  0  0  0  0  0  0  0  0  0  0
  188.0090  177.6290  147.7610 C   0  0  0  0  0  0  0  0  0  0  0  0
  187.0580  177.9560  146.7910 C   0  0  0  0  0  3  0  0  0  0  0  0
  189.6510  177.2590  146.0230 C   0  0  0  0  0  3  0  0  0  0  0  0
  189.3060  177.2830  147.3770 C   0  0  0  0  0  3  0  0  0  0  0  0
  188.7030  177.5740  145.0350 C   0  0  0  0  0  0  0  0  0  0  0  0
  187.6720  177.6520  149.0730 F   0  0  0  0  0  0  0  0  0  0  0  0
  187.4050  177.9310  145.4380 C   0  0  0  0  0  3  0  0  0  0  0  0
  1  8  1  0  0  0  0
  1  6  1  0  0  0  0
  2  5  1  0  0  0  0
  2  4  2  0  0  0  0
  3  4  1  0  0  0  0
  4  7  1  0  0  0  0
  5  1  2  0  0  0  0
  6 23  1  0  0  0  0
  7  6  2  0  0  0  0
  9 11  2  0  0  0  0
 10 13  2  0  0  0  0
 11 14  1  0  0  0  0
 12  9  1  0  0  0  0
 12 10  1  0  0  0  0
 13 14  1  0  0  0  0
 13  8  1  0  0  0  0
 14 15  1  1  0  0  0
 16  9  1  0  0  0  0
 17 16  1  0  0  0  0
 18 16  2  0  0  0  0
 19 24  1  0  0  0  0
 20 19  2  0  0  0  0
 21 22  2  0  0  0  0
 22 19  1  0  0  0  0
 23 25  2  0  0  0  0
 23 21  1  0  0  0  0
 25 20  1  0  0  0  0
M  END
>  <MODEL>
6

>  <REMARK>
 VINA RESULT:      -9.4      4.077      6.467
  Name = 
  3 active torsions:
  status: ('A' for Active; 'I' for Inactive)
    1  A    between atoms: C_1  and  N_7
    2  A    between atoms: C_3  and  C_11
    3  A    between atoms: C_15  and  C_21
                            x       y       z     vdW  Elec       q    Type
                         _______ _______ _______ _____ _____    ______ ____

>  <TORSDO>
F 3

$$$$
=
 OpenBabel10222417093D

 25 27  0  0  1  0  0  0  0  0999 V2000
  187.0490  178.2760  142.5020 C   0  0  0  0  0  0  0  0  0  0  0  0
  185.0820  178.6270  141.1060 C   0  0  0  0  0  3  0  0  0  0  0  0
  182.8920  178.7320  142.1040 O   0  0  0  0  0  1  0  0  0  0  0  0
  184.2650  178.5810  142.2340 C   0  0  0  0  0  0  0  0  0  0  0  0
  186.4620  178.4800  141.2420 C   0  0  0  0  0  3  0  0  0  0  0  0
  186.2170  178.2200  143.6520 C   0  0  0  0  0  0  0  0  0  0  0  0
  184.8290  178.3810  143.4940 C   0  0  0  0  0  3  0  0  0  0  0  0
  188.4770  178.1820  142.6350 N   0  0  0  0  0  2  0  0  0  0  0  0
  191.3630  177.0650  139.7330 C   0  0  0  0  0  0  0  0  0  0  0  0
  189.0440  177.3090  140.4940 N   0  0  0  0  0  0  0  0  0  0  0  0
  191.7850  177.5030  140.8790 N   0  0  0  0  0  0  0  0  0  0  0  0
  189.9630  176.9120  139.5110 N   0  0  0  0  0  2  0  0  0  0  0  0
  189.4330  177.7610  141.6490 C   0  0  0  0  0  0  0  0  0  0  0  0
  190.9000  177.8060  142.0080 C   0  0  1  0  0  3  0  0  0  0  0  0
  191.1860  176.8410  143.1420 C   0  0  0  0  0  1  0  0  0  0  0  0
  192.3150  176.7490  138.6610 C   0  0  0  0  0  0  0  0  0  0  0  0
  193.5550  176.8000  138.8730 O   0  0  0  0  0  1  0  0  0  0  0  0
  191.8500  176.3910  137.4020 O   0  0  0  0  0  0  0  0  0  0  0  0
  187.8060  177.6010  147.6020 C   0  0  0  0  0  0  0  0  0  0  0  0
  186.5930  178.2750  147.4390 C   0  0  0  0  0  3  0  0  0  0  0  0
  187.9730  177.3300  145.2030 C   0  0  0  0  0  3  0  0  0  0  0  0
  188.4970  177.1300  146.4840 C   0  0  0  0  0  3  0  0  0  0  0  0
  186.7490  177.9960  145.0240 C   0  0  0  0  0  0  0  0  0  0  0  0
  188.3120  177.4080  148.8430 F   0  0  0  0  0  0  0  0  0  0  0  0
  186.0710  178.4720  146.1590 C   0  0  0  0  0  3  0  0  0  0  0  0
  1  8  1  0  0  0  0
  1  6  1  0  0  0  0
  2  5  1  0  0  0  0
  2  4  2  0  0  0  0
  3  4  1  0  0  0  0
  4  7  1  0  0  0  0
  5  1  2  0  0  0  0
  6 23  1  0  0  0  0
  7  6  2  0  0  0  0
  9 11  2  0  0  0  0
 10 13  2  0  0  0  0
 11 14  1  0  0  0  0
 12  9  1  0  0  0  0
 12 10  1  0  0  0  0
 13 14  1  0  0  0  0
 13  8  1  0  0  0  0
 14 15  1  1  0  0  0
 16 17  1  0  0  0  0
 16  9  1  0  0  0  0
 18 16  2  0  0  0  0
 19 24  1  0  0  0  0
 20 19  1  0  0  0  0
 21 22  1  0  0  0  0
 22 19  2  0  0  0  0
 23 21  2  0  0  0  0
 23 25  1  0  0  0  0
 25 20  2  0  0  0  0
M  END
>  <MODEL>
7

>  <REMARK>
 VINA RESULT:      -9.3      2.718      4.343
  Name = 
  3 active torsions:
  status: ('A' for Active; 'I' for Inactive)
    1  A    between atoms: C_1  and  N_7
    2  A    between atoms: C_3  and  C_11
    3  A    between atoms: C_15  and  C_21
                            x       y       z     vdW  Elec       q    Type
                         _______ _______ _______ _____ _____    ______ ____

>  <TORSDO>
F 3

$$$$
=
 OpenBabel10222417093D

 25 27  0  0  1  0  0  0  0  0999 V2000
  186.9490  178.5630  141.8770 C   0  0  0  0  0  0  0  0  0  0  0  0
  184.6720  179.1150  142.5460 C   0  0  0  0  0  3  0  0  0  0  0  0
  183.8810  178.5320  144.7450 O   0  0  0  0  0  1  0  0  0  0  0  0
  184.8930  178.5420  143.7970 C   0  0  0  0  0  0  0  0  0  0  0  0
  185.6940  179.1290  141.5970 C   0  0  0  0  0  3  0  0  0  0  0  0
  187.1740  177.9720  143.1480 C   0  0  0  0  0  0  0  0  0  0  0  0
  186.1330  177.9780  144.0940 C   0  0  0  0  0  3  0  0  0  0  0  0
  188.0120  178.6330  140.9120 N   0  0  0  0  0  2  0  0  0  0  0  0
  187.8750  177.9230  136.7320 C   0  0  0  0  0  0  0  0  0  0  0  0
  186.8650  177.8790  138.9670 N   0  0  0  0  0  0  0  0  0  0  0  0
  188.9770  178.3820  137.2390 N   0  0  0  0  0  0  0  0  0  0  0  0
  186.7800  177.6140  137.5920 N   0  0  0  0  0  2  0  0  0  0  0  0
  187.9510  178.3470  139.5060 C   0  0  0  0  0  0  0  0  0  0  0  0
  189.1980  178.5550  138.6780 C   0  0  1  0  0  3  0  0  0  0  0  0
  190.2880  177.6040  139.1350 C   0  0  0  0  0  1  0  0  0  0  0  0
  187.7410  177.7440  135.2810 C   0  0  0  0  0  0  0  0  0  0  0  0
  188.5550  177.0190  134.6490 O   0  0  0  0  0  1  0  0  0  0  0  0
  186.7110  178.3760  134.5940 O   0  0  0  0  0  0  0  0  0  0  0  0
  190.9320  176.1520  144.1890 C   0  0  0  0  0  0  0  0  0  0  0  0
  190.4590  177.2390  144.9280 C   0  0  0  0  0  3  0  0  0  0  0  0
  188.9620  176.2510  142.7880 C   0  0  0  0  0  3  0  0  0  0  0  0
  190.1840  175.6600  143.1180 C   0  0  0  0  0  3  0  0  0  0  0  0
  188.4670  177.3380  143.5290 C   0  0  0  0  0  0  0  0  0  0  0  0
  192.1160  175.5790  144.5100 F   0  0  0  0  0  0  0  0  0  0  0  0
  189.2360  177.8290  144.5970 C   0  0  0  0  0  3  0  0  0  0  0  0
  1  6  1  0  0  0  0
  2  4  2  0  0  0  0
  4  7  1  0  0  0  0
  4  3  1  0  0  0  0
  5  1  2  0  0  0  0
  5  2  1  0  0  0  0
  6 23  1  0  0  0  0
  6  7  2  0  0  0  0
  8  1  1  0  0  0  0
  9 11  2  0  0  0  0
  9 12  1  0  0  0  0
 10 13  2  0  0  0  0
 11 14  1  0  0  0  0
 12 10  1  0  0  0  0
 13  8  1  0  0  0  0
 14 15  1  1  0  0  0
 14 13  1  0  0  0  0
 16  9  1  0  0  0  0
 17 16  1  0  0  0  0
 18 16  2  0  0  0  0
 19 24  1  0  0  0  0
 19 20  1  0  0  0  0
 21 22  1  0  0  0  0
 21 23  2  0  0  0  0
 22 19  2  0  0  0  0
 23 25  1  0  0  0  0
 25 20  2  0  0  0  0
M  END
>  <MODEL>
8

>  <REMARK>
 VINA RESULT:      -9.0      3.735      5.587
  Name = 
  3 active torsions:
  status: ('A' for Active; 'I' for Inactive)
    1  A    between atoms: C_1  and  N_7
    2  A    between atoms: C_3  and  C_11
    3  A    between atoms: C_15  and  C_21
                            x       y       z     vdW  Elec       q    Type
                         _______ _______ _______ _____ _____    ______ ____

>  <TORSDO>
F 3

$$$$
=
 OpenBabel10222417093D

 25 27  0  0  1  0  0  0  0  0999 V2000
  186.1270  178.1610  144.7970 C   0  0  0  0  0  0  0  0  0  0  0  0
  186.1300  178.3330  147.2270 C   0  0  0  0  0  3  0  0  0  0  0  0
  188.1190  177.8000  148.4770 O   0  0  0  0  0  1  0  0  0  0  0  0
  187.4590  177.9190  147.2620 C   0  0  0  0  0  0  0  0  0  0  0  0
  185.4720  178.4570  146.0040 C   0  0  0  0  0  3  0  0  0  0  0  0
  187.4790  177.7300  144.8300 C   0  0  0  0  0  0  0  0  0  0  0  0
  188.1260  177.6220  146.0740 C   0  0  0  0  0  3  0  0  0  0  0  0
  185.4560  178.3460  143.5390 N   0  0  0  0  0  2  0  0  0  0  0  0
  181.3670  179.1950  142.7910 C   0  0  0  0  0  0  0  0  0  0  0  0
  183.2080  178.5760  144.2890 N   0  0  0  0  0  0  0  0  0  0  0  0
  182.1890  179.2100  141.7870 N   0  0  0  0  0  0  0  0  0  0  0  0
  181.8440  178.8340  144.0850 N   0  0  0  0  0  2  0  0  0  0  0  0
  184.0600  178.5920  143.3070 C   0  0  0  0  0  0  0  0  0  0  0  0
  183.5980  178.8170  141.8860 C   0  0  1  0  0  3  0  0  0  0  0  0
  183.8280  177.5650  141.0620 C   0  0  0  0  0  1  0  0  0  0  0  0
  179.9590  179.5680  142.6060 C   0  0  0  0  0  0  0  0  0  0  0  0
  179.6340  180.7770  142.4590 O   0  0  0  0  0  0  0  0  0  0  0  0
  178.9760  178.5880  142.5910 O   0  0  0  0  0  1  0  0  0  0  0  0
  189.7200  176.7860  141.2810 C   0  0  0  0  0  0  0  0  0  0  0  0
  189.9850  176.1040  142.4710 C   0  0  0  0  0  3  0  0  0  0  0  0
  188.0010  178.0680  142.4020 C   0  0  0  0  0  3  0  0  0  0  0  0
  188.7300  177.7700  141.2470 C   0  0  0  0  0  3  0  0  0  0  0  0
  188.2480  177.3830  143.6030 C   0  0  0  0  0  0  0  0  0  0  0  0
  190.4270  176.4960  140.1620 F   0  0  0  0  0  0  0  0  0  0  0  0
  189.2550  176.4030  143.6240 C   0  0  0  0  0  3  0  0  0  0  0  0
  1  6  2  0  0  0  0
  1  5  1  0  0  0  0
  2  4  1  0  0  0  0
  4  3  1  0  0  0  0
  5  2  2  0  0  0  0
  6  7  1  0  0  0  0
  7  4  2  0  0  0  0
  8  1  1  0  0  0  0
  9 12  1  0  0  0  0
 11 14  1  0  0  0  0
 11  9  2  0  0  0  0
 12 10  1  0  0  0  0
 13  8  1  0  0  0  0
 13 10  2  0  0  0  0
 14 15  1  6  0  0  0
 14 13  1  0  0  0  0
 16  9  1  0  0  0  0
 17 16  2  0  0  0  0
 18 16  1  0  0  0  0
 19 20  1  0  0  0  0
 20 25  2  0  0  0  0
 21 23  2  0  0  0  0
 22 19  2  0  0  0  0
 22 21  1  0  0  0  0
 23 25  1  0  0  0  0
 23  6  1  0  0  0  0
 24 19  1  0  0  0  0
M  END
>  <MODEL>
9

>  <REMARK>
 VINA RESULT:      -8.9      4.455      7.272
  Name = 
  3 active torsions:
  status: ('A' for Active; 'I' for Inactive)
    1  A    between atoms: C_1  and  N_7
    2  A    between atoms: C_3  and  C_11
    3  A    between atoms: C_15  and  C_21
                            x       y       z     vdW  Elec       q    Type
                         _______ _______ _______ _____ _____    ______ ____

>  <TORSDO>
F 3

$$$$
