=
 OpenBabel10222416533D

 28 30  0  0  1  0  0  0  0  0999 V2000
  188.8890  177.8800  141.8790 C   0  0  2  0  0  3  0  0  0  0  0  0
  187.5460  178.6060  141.7560 C   0  0  1  0  0  3  0  0  0  0  0  0
  188.1050  177.8280  140.5820 C   0  0  1  0  0  3  0  0  0  0  0  0
  189.6600  177.9750  139.0190 C   0  0  0  0  0  1  0  0  0  0  0  0
  188.6700  178.7160  139.6660 O   0  0  0  0  0  0  0  0  0  0  0  0
  186.4370  177.8600  142.3560 N   0  0  0  0  0  2  0  0  0  0  0  0
  185.7390  178.6840  143.3520 C   0  0  1  0  0  3  0  0  0  0  0  0
  184.9790  178.2900  145.6950 C   0  0  0  0  0  3  0  0  0  0  0  0
  187.1060  177.5030  145.0980 O   0  0  0  0  0  1  0  0  0  0  0  0
  181.9390  178.8280  143.7880 C   0  0  0  0  0  3  0  0  0  0  0  0
  183.2520  178.9090  144.0260 C   0  0  0  0  0  0  0  0  0  0  0  0
  184.2950  178.9250  142.9720 C   0  0  0  0  0  0  0  0  0  0  0  0
  184.0070  179.1930  141.7720 O   0  0  0  0  0  0  0  0  0  0  0  0
  183.6990  179.0380  145.4470 C   0  0  0  0  0  2  0  0  0  0  0  0
  185.9220  178.1480  144.7590 C   0  0  0  0  0  0  0  0  0  0  0  0
  181.3320  178.6980  142.4290 C   0  0  0  0  0  2  0  0  0  0  0  0
  179.7510  180.7380  141.9680 N   0  0  0  0  0  0  0  0  0  0  0  0
  180.4480  179.8360  142.1730 C   0  0  0  0  0  0  0  0  0  0  0  0
  188.8150  176.5160  142.5600 C   0  0  0  0  0  2  0  0  0  0  0  0
  190.0520  176.2850  143.4090 C   0  0  0  0  0  2  0  0  0  0  0  0
  190.6130  177.6010  143.9210 C   0  0  1  0  0  3  0  0  0  0  0  0
  191.1990  177.3950  145.2470 N   0  0  0  0  0  0  0  0  0  0  0  0
  192.0910  176.7010  147.2780 O   0  0  0  0  0  0  0  0  0  0  0  0
  191.0650  176.9180  146.5830 C   0  0  0  0  0  0  0  0  0  0  0  0
  191.9070  177.5190  144.0410 O   0  0  0  0  0  0  0  0  0  0  0  0
  189.7130  176.7410  147.1780 C   0  0  0  0  0  2  0  0  0  0  0  0
  189.4040  177.8730  148.0350 N   0  0  0  0  0  2  0  0  0  0  0  0
  188.0440  177.6800  148.5040 C   0  0  0  0  0  1  0  0  0  0  0  0
  1 19  1  1  0  0  0
  2  1  1  0  0  0  0
  2  6  1  1  0  0  0
  3  5  1  6  0  0  0
  3  2  1  0  0  0  0
  3  1  1  0  0  0  0
  4  5  1  0  0  0  0
  7  6  1  6  0  0  0
  7 15  1  0  0  0  0
 10 11  2  0  0  0  0
 11 14  1  0  0  0  0
 12  7  1  0  0  0  0
 12 11  1  0  0  0  0
 13 12  2  0  0  0  0
 14  8  1  0  0  0  0
 15  9  1  0  0  0  0
 15  8  2  0  0  0  0
 16 10  1  0  0  0  0
 17 18  3  0  0  0  0
 18 16  1  0  0  0  0
 19 20  1  0  0  0  0
 21 20  1  6  0  0  0
 21 25  1  0  0  0  0
 21 22  1  0  0  0  0
 22 24  1  0  0  0  0
 24 26  1  0  0  0  0
 24 23  2  0  0  0  0
 25 22  1  0  0  0  0
 26 27  1  0  0  0  0
 27 28  1  0  0  0  0
M  END
>  <MODEL>
1

>  <REMARK>
 VINA RESULT:      -7.5      0.000      0.000
  Name = 
  10 active torsions:
  status: ('A' for Active; 'I' for Inactive)
    1  A    between atoms: C_1  and  N_8
    2  A    between atoms: C_4  and  C_21
    3  A    between atoms: C_5  and  C_27
    4  A    between atoms: N_8  and  C_9
    5  A    between atoms: C_10  and  C_19
    6  A    between atoms: N_11  and  C_18
    7  A    between atoms: O_17  and  C_26
    8  A    between atoms: C_18  and  C_20
    9  A    between atoms: C_19  and  C_28
   10  A    between atoms: C_21  and  C_27
                            x       y       z     vdW  Elec       q    Type
                         _______ _______ _______ _____ _____    ______ ____

>  <TORSDO>
F 10

$$$$
=
 OpenBabel10222416533D

 28 30  0  0  1  0  0  0  0  0999 V2000
  190.0650  176.6350  143.7890 C   0  0  2  0  0  3  0  0  0  0  0  0
  188.9910  176.9260  144.8410 C   0  0  1  0  0  3  0  0  0  0  0  0
  189.6370  178.0620  144.0740 C   0  0  1  0  0  3  0  0  0  0  0  0
  191.4380  179.3380  143.9860 C   0  0  0  0  0  1  0  0  0  0  0  0
  190.5940  178.6780  144.8810 O   0  0  0  0  0  0  0  0  0  0  0  0
  187.6310  176.7070  144.3420 N   0  0  0  0  0  2  0  0  0  0  0  0
  186.8370  177.9390  144.4480 C   0  0  1  0  0  3  0  0  0  0  0  0
  184.8950  178.6270  145.8540 C   0  0  0  0  0  3  0  0  0  0  0  0
  186.6220  177.4350  146.9000 O   0  0  0  0  0  1  0  0  0  0  0  0
  183.6600  178.6680  142.4410 C   0  0  0  0  0  3  0  0  0  0  0  0
  184.6000  178.6930  143.3920 C   0  0  0  0  0  0  0  0  0  0  0  0
  185.9740  178.1600  143.2260 C   0  0  0  0  0  0  0  0  0  0  0  0
  186.4550  177.9430  142.0800 O   0  0  0  0  0  0  0  0  0  0  0  0
  184.2610  179.3440  144.6950 C   0  0  0  0  0  2  0  0  0  0  0  0
  186.0760  178.0100  145.7580 C   0  0  0  0  0  0  0  0  0  0  0  0
  183.8410  178.0600  141.0890 C   0  0  0  0  0  2  0  0  0  0  0  0
  184.2950  179.9490  139.3280 N   0  0  0  0  0  0  0  0  0  0  0  0
  184.0920  179.1140  140.1050 C   0  0  0  0  0  0  0  0  0  0  0  0
  189.5240  176.2160  142.4250 C   0  0  0  0  0  2  0  0  0  0  0  0
  189.7320  177.3280  141.4120 C   0  0  0  0  0  2  0  0  0  0  0  0
  190.1680  176.7650  140.0700 C   0  0  1  0  0  3  0  0  0  0  0  0
  189.7770  177.6910  139.0050 N   0  0  0  0  0  0  0  0  0  0  0  0
  189.0850  179.4040  137.5950 O   0  0  0  0  0  0  0  0  0  0  0  0
  188.7650  178.4640  138.3670 C   0  0  0  0  0  0  0  0  0  0  0  0
  191.0690  177.5360  139.5330 O   0  0  0  0  0  0  0  0  0  0  0  0
  187.3300  178.1160  138.5600 C   0  0  0  0  0  2  0  0  0  0  0  0
  186.6730  178.0180  137.2680 N   0  0  0  0  0  2  0  0  0  0  0  0
  186.9190  176.6740  136.7790 C   0  0  0  0  0  1  0  0  0  0  0  0
  1 19  1  6  0  0  0
  1  3  1  0  0  0  0
  1  2  1  0  0  0  0
  2  6  1  6  0  0  0
  3  2  1  0  0  0  0
  3  5  1  1  0  0  0
  4  5  1  0  0  0  0
  7  6  1  6  0  0  0
  7 15  1  0  0  0  0
 10 11  2  0  0  0  0
 11 14  1  0  0  0  0
 12 11  1  0  0  0  0
 12  7  1  0  0  0  0
 13 12  2  0  0  0  0
 14  8  1  0  0  0  0
 15  8  2  0  0  0  0
 15  9  1  0  0  0  0
 16 10  1  0  0  0  0
 17 18  3  0  0  0  0
 18 16  1  0  0  0  0
 20 19  1  0  0  0  0
 21 20  1  1  0  0  0
 22 25  1  0  0  0  0
 22 21  1  0  0  0  0
 23 24  2  0  0  0  0
 24 26  1  0  0  0  0
 24 22  1  0  0  0  0
 25 21  1  0  0  0  0
 27 26  1  0  0  0  0
 28 27  1  0  0  0  0
M  END
>  <MODEL>
2

>  <REMARK>
 VINA RESULT:      -7.3      2.415      5.340
  Name = 
  10 active torsions:
  status: ('A' for Active; 'I' for Inactive)
    1  A    between atoms: C_1  and  N_8
    2  A    between atoms: C_4  and  C_21
    3  A    between atoms: C_5  and  C_27
    4  A    between atoms: N_8  and  C_9
    5  A    between atoms: C_10  and  C_19
    6  A    between atoms: N_11  and  C_18
    7  A    between atoms: O_17  and  C_26
    8  A    between atoms: C_18  and  C_20
    9  A    between atoms: C_19  and  C_28
   10  A    between atoms: C_21  and  C_27
                            x       y       z     vdW  Elec       q    Type
                         _______ _______ _______ _____ _____    ______ ____

>  <TORSDO>
F 10

$$$$
=
 OpenBabel10222416533D

 28 30  0  0  1  0  0  0  0  0999 V2000
  190.7670  176.4450  143.4310 C   0  0  2  0  0  3  0  0  0  0  0  0
  190.2300  176.8520  144.8060 C   0  0  1  0  0  3  0  0  0  0  0  0
  190.5080  177.9050  143.7520 C   0  0  1  0  0  3  0  0  0  0  0  0
  191.3830  179.8800  144.2130 C   0  0  0  0  0  1  0  0  0  0  0  0
  191.7180  178.5370  144.0370 O   0  0  0  0  0  0  0  0  0  0  0  0
  188.7840  176.6540  144.9340 N   0  0  0  0  0  2  0  0  0  0  0  0
  188.1530  177.8350  145.5390 C   0  0  1  0  0  3  0  0  0  0  0  0
  186.9450  178.2420  147.6840 C   0  0  0  0  0  3  0  0  0  0  0  0
  188.8850  176.9270  147.7640 O   0  0  0  0  0  1  0  0  0  0  0  0
  184.4830  178.8240  145.0820 C   0  0  0  0  0  3  0  0  0  0  0  0
  185.7190  178.7100  145.5790 C   0  0  0  0  0  0  0  0  0  0  0  0
  186.8940  178.2390  144.8050 C   0  0  0  0  0  0  0  0  0  0  0  0
  186.8810  178.2250  143.5430 O   0  0  0  0  0  0  0  0  0  0  0  0
  185.9440  179.1280  146.9970 C   0  0  0  0  0  2  0  0  0  0  0  0
  187.9660  177.6730  147.0360 C   0  0  0  0  0  0  0  0  0  0  0  0
  184.0960  178.4530  143.6880 C   0  0  0  0  0  2  0  0  0  0  0  0
  181.6410  179.2430  143.2170 N   0  0  0  0  0  0  0  0  0  0  0  0
  182.7260  178.8950  143.4230 C   0  0  0  0  0  0  0  0  0  0  0  0
  189.7040  175.9550  142.4520 C   0  0  0  0  0  2  0  0  0  0  0  0
  189.4190  177.0190  141.4080 C   0  0  0  0  0  2  0  0  0  0  0  0
  190.2270  176.7700  140.1450 C   0  0  1  0  0  3  0  0  0  0  0  0
  189.8370  177.7410  139.1210 N   0  0  0  0  0  0  0  0  0  0  0  0
  189.0390  179.4600  137.7750 O   0  0  0  0  0  0  0  0  0  0  0  0
  188.8110  178.3670  138.3570 C   0  0  0  0  0  0  0  0  0  0  0  0
  191.0020  177.7880  139.9030 O   0  0  0  0  0  0  0  0  0  0  0  0
  187.4930  177.6970  138.1900 C   0  0  0  0  0  2  0  0  0  0  0  0
  186.4300  178.5990  138.6000 N   0  0  0  0  0  2  0  0  0  0  0  0
  186.3580  178.5240  140.0480 C   0  0  0  0  0  1  0  0  0  0  0  0
  1 19  1  6  0  0  0
  1  3  1  0  0  0  0
  1  2  1  0  0  0  0
  2  6  1  6  0  0  0
  3  5  1  1  0  0  0
  3  2  1  0  0  0  0
  5  4  1  0  0  0  0
  7  6  1  6  0  0  0
  7 15  1  0  0  0  0
 10 11  2  0  0  0  0
 11 14  1  0  0  0  0
 12  7  1  0  0  0  0
 12 11  1  0  0  0  0
 13 12  2  0  0  0  0
 14  8  1  0  0  0  0
 15  8  2  0  0  0  0
 15  9  1  0  0  0  0
 16 10  1  0  0  0  0
 17 18  3  0  0  0  0
 18 16  1  0  0  0  0
 20 19  1  0  0  0  0
 21 20  1  1  0  0  0
 22 25  1  0  0  0  0
 22 21  1  0  0  0  0
 23 24  2  0  0  0  0
 24 22  1  0  0  0  0
 25 21  1  0  0  0  0
 26 24  1  0  0  0  0
 26 27  1  0  0  0  0
 27 28  1  0  0  0  0
M  END
>  <MODEL>
3

>  <REMARK>
 VINA RESULT:      -7.3      2.045      5.177
  Name = 
  10 active torsions:
  status: ('A' for Active; 'I' for Inactive)
    1  A    between atoms: C_1  and  N_8
    2  A    between atoms: C_4  and  C_21
    3  A    between atoms: C_5  and  C_27
    4  A    between atoms: N_8  and  C_9
    5  A    between atoms: C_10  and  C_19
    6  A    between atoms: N_11  and  C_18
    7  A    between atoms: O_17  and  C_26
    8  A    between atoms: C_18  and  C_20
    9  A    between atoms: C_19  and  C_28
   10  A    between atoms: C_21  and  C_27
                            x       y       z     vdW  Elec       q    Type
                         _______ _______ _______ _____ _____    ______ ____

>  <TORSDO>
F 10

$$$$
=
 OpenBabel10222416533D

 28 30  0  0  1  0  0  0  0  0999 V2000
  189.3320  177.6230  143.3590 C   0  0  2  0  0  3  0  0  0  0  0  0
  189.7450  178.1030  141.9640 C   0  0  1  0  0  3  0  0  0  0  0  0
  190.6660  177.2080  142.7680 C   0  0  1  0  0  3  0  0  0  0  0  0
  191.0160  179.0290  143.9680 C   0  0  0  0  0  1  0  0  0  0  0  0
  191.6810  177.9790  143.3340 O   0  0  0  0  0  0  0  0  0  0  0  0
  189.1220  177.3280  140.8870 N   0  0  0  0  0  2  0  0  0  0  0  0
  189.3710  177.9610  139.5850 C   0  0  1  0  0  3  0  0  0  0  0  0
  188.0470  178.1650  137.4810 C   0  0  0  0  0  3  0  0  0  0  0  0
  186.9140  178.4760  139.5100 O   0  0  0  0  0  1  0  0  0  0  0  0
  190.9690  176.2100  136.5780 C   0  0  0  0  0  3  0  0  0  0  0  0
  190.2640  177.0640  137.3290 C   0  0  0  0  0  0  0  0  0  0  0  0
  190.4300  177.2250  138.7940 C   0  0  0  0  0  0  0  0  0  0  0  0
  191.4670  176.8090  139.3830 O   0  0  0  0  0  0  0  0  0  0  0  0
  189.2750  177.9490  136.6410 C   0  0  0  0  0  2  0  0  0  0  0  0
  188.0860  178.1980  138.8160 C   0  0  0  0  0  0  0  0  0  0  0  0
  191.9950  175.2640  137.1110 C   0  0  0  0  0  2  0  0  0  0  0  0
  194.3950  176.1820  136.5920 N   0  0  0  0  0  0  0  0  0  0  0  0
  193.3350  175.7770  136.8240 C   0  0  0  0  0  0  0  0  0  0  0  0
  188.3950  176.4200  143.3660 C   0  0  0  0  0  2  0  0  0  0  0  0
  187.1780  176.7050  144.2280 C   0  0  0  0  0  2  0  0  0  0  0  0
  187.4460  177.8590  145.1790 C   0  0  1  0  0  3  0  0  0  0  0  0
  186.1720  178.4120  145.6430 N   0  0  0  0  0  0  0  0  0  0  0  0
  183.9960  178.9820  146.2260 O   0  0  0  0  0  0  0  0  0  0  0  0
  184.8870  178.9450  145.3390 C   0  0  0  0  0  0  0  0  0  0  0  0
  187.0200  177.5630  146.3730 O   0  0  0  0  0  0  0  0  0  0  0  0
  184.6200  179.5220  143.9920 C   0  0  0  0  0  2  0  0  0  0  0  0
  183.7410  178.6370  143.2480 N   0  0  0  0  0  2  0  0  0  0  0  0
  184.4730  178.2220  142.0650 C   0  0  0  0  0  1  0  0  0  0  0  0
  1 19  1  6  0  0  0
  2  6  1  6  0  0  0
  2  3  1  0  0  0  0
  2  1  1  0  0  0  0
  3  5  1  1  0  0  0
  3  1  1  0  0  0  0
  5  4  1  0  0  0  0
  7  6  1  1  0  0  0
  8 15  2  0  0  0  0
 10 16  1  0  0  0  0
 10 11  2  0  0  0  0
 11 12  1  0  0  0  0
 12 13  2  0  0  0  0
 12  7  1  0  0  0  0
 14 11  1  0  0  0  0
 14  8  1  0  0  0  0
 15  9  1  0  0  0  0
 15  7  1  0  0  0  0
 17 18  3  0  0  0  0
 18 16  1  0  0  0  0
 19 20  1  0  0  0  0
 21 20  1  6  0  0  0
 21 22  1  0  0  0  0
 21 25  1  0  0  0  0
 22 25  1  0  0  0  0
 24 22  1  0  0  0  0
 24 23  2  0  0  0  0
 26 24  1  0  0  0  0
 27 26  1  0  0  0  0
 28 27  1  0  0  0  0
M  END
>  <MODEL>
4

>  <REMARK>
 VINA RESULT:      -7.0      2.884      7.804
  Name = 
  10 active torsions:
  status: ('A' for Active; 'I' for Inactive)
    1  A    between atoms: C_1  and  N_8
    2  A    between atoms: C_4  and  C_21
    3  A    between atoms: C_5  and  C_27
    4  A    between atoms: N_8  and  C_9
    5  A    between atoms: C_10  and  C_19
    6  A    between atoms: N_11  and  C_18
    7  A    between atoms: O_17  and  C_26
    8  A    between atoms: C_18  and  C_20
    9  A    between atoms: C_19  and  C_28
   10  A    between atoms: C_21  and  C_27
                            x       y       z     vdW  Elec       q    Type
                         _______ _______ _______ _____ _____    ______ ____

>  <TORSDO>
F 10

$$$$
=
 OpenBabel10222416533D

 28 30  0  0  1  0  0  0  0  0999 V2000
  190.0150  176.9790  142.5700 C   0  0  2  0  0  3  0  0  0  0  0  0
  189.5800  176.7570  144.0220 C   0  0  1  0  0  3  0  0  0  0  0  0
  189.9810  178.1390  143.5460 C   0  0  1  0  0  3  0  0  0  0  0  0
  191.5330  177.4680  144.9690 C   0  0  0  0  0  1  0  0  0  0  0  0
  191.2780  178.4170  143.9770 O   0  0  0  0  0  0  0  0  0  0  0  0
  188.1250  176.6940  144.1770 N   0  0  0  0  0  2  0  0  0  0  0  0
  187.6380  177.8450  144.9490 C   0  0  1  0  0  3  0  0  0  0  0  0
  186.8030  178.1330  147.2830 C   0  0  0  0  0  3  0  0  0  0  0  0
  188.6880  176.7740  146.9640 O   0  0  0  0  0  1  0  0  0  0  0  0
  183.9750  178.9410  145.1560 C   0  0  0  0  0  3  0  0  0  0  0  0
  185.2710  178.7670  145.4380 C   0  0  0  0  0  0  0  0  0  0  0  0
  186.2900  178.3240  144.4560 C   0  0  0  0  0  0  0  0  0  0  0  0
  186.0740  178.3950  143.2140 O   0  0  0  0  0  0  0  0  0  0  0  0
  185.7340  179.0840  146.8240 C   0  0  0  0  0  2  0  0  0  0  0  0
  187.6880  177.5860  146.4430 C   0  0  0  0  0  0  0  0  0  0  0  0
  183.3570  178.6720  143.8230 C   0  0  0  0  0  2  0  0  0  0  0  0
  180.7450  178.7230  144.0360 N   0  0  0  0  0  0  0  0  0  0  0  0
  181.8990  178.7030  143.9410 C   0  0  0  0  0  0  0  0  0  0  0  0
  188.8660  177.1300  141.5770 C   0  0  0  0  0  2  0  0  0  0  0  0
  189.4070  177.3240  140.1720 C   0  0  0  0  0  2  0  0  0  0  0  0
  188.7890  178.5480  139.5180 C   0  0  1  0  0  3  0  0  0  0  0  0
  188.1640  178.1580  138.2520 N   0  0  0  0  0  0  0  0  0  0  0  0
  187.2230  177.1860  136.3630 O   0  0  0  0  0  0  0  0  0  0  0  0
  188.2660  177.5160  136.9850 C   0  0  0  0  0  0  0  0  0  0  0  0
  187.4950  178.4190  139.4590 O   0  0  0  0  0  0  0  0  0  0  0  0
  189.6020  177.2980  136.3650 C   0  0  0  0  0  2  0  0  0  0  0  0
  190.1260  176.0070  136.7770 N   0  0  0  0  0  2  0  0  0  0  0  0
  191.4740  176.2410  137.2610 C   0  0  0  0  0  1  0  0  0  0  0  0
  1 19  1  6  0  0  0
  1  3  1  0  0  0  0
  1  2  1  0  0  0  0
  2  6  1  6  0  0  0
  3  5  1  1  0  0  0
  3  2  1  0  0  0  0
  5  4  1  0  0  0  0
  7  6  1  6  0  0  0
  7 15  1  0  0  0  0
 10 11  2  0  0  0  0
 11 14  1  0  0  0  0
 12  7  1  0  0  0  0
 12 11  1  0  0  0  0
 13 12  2  0  0  0  0
 14  8  1  0  0  0  0
 15  9  1  0  0  0  0
 15  8  2  0  0  0  0
 16 18  1  0  0  0  0
 16 10  1  0  0  0  0
 18 17  3  0  0  0  0
 20 19  1  0  0  0  0
 21 20  1  1  0  0  0
 22 25  1  0  0  0  0
 22 21  1  0  0  0  0
 23 24  2  0  0  0  0
 24 22  1  0  0  0  0
 25 21  1  0  0  0  0
 26 27  1  0  0  0  0
 26 24  1  0  0  0  0
 27 28  1  0  0  0  0
M  END
>  <MODEL>
5

>  <REMARK>
 VINA RESULT:      -6.9      2.397      5.817
  Name = 
  10 active torsions:
  status: ('A' for Active; 'I' for Inactive)
    1  A    between atoms: C_1  and  N_8
    2  A    between atoms: C_4  and  C_21
    3  A    between atoms: C_5  and  C_27
    4  A    between atoms: N_8  and  C_9
    5  A    between atoms: C_10  and  C_19
    6  A    between atoms: N_11  and  C_18
    7  A    between atoms: O_17  and  C_26
    8  A    between atoms: C_18  and  C_20
    9  A    between atoms: C_19  and  C_28
   10  A    between atoms: C_21  and  C_27
                            x       y       z     vdW  Elec       q    Type
                         _______ _______ _______ _____ _____    ______ ____

>  <TORSDO>
F 10

$$$$
=
 OpenBabel10222416533D

 28 30  0  0  1  0  0  0  0  0999 V2000
  184.0370  178.3860  142.6820 C   0  0  2  0  0  3  0  0  0  0  0  0
  185.5020  178.1780  143.0790 C   0  0  1  0  0  3  0  0  0  0  0  0
  185.1340  179.2000  142.0230 C   0  0  1  0  0  3  0  0  0  0  0  0
  186.7900  178.5280  140.7240 C   0  0  0  0  0  1  0  0  0  0  0  0
  185.4020  178.6750  140.7580 O   0  0  0  0  0  0  0  0  0  0  0  0
  185.8570  178.8640  144.3240 N   0  0  0  0  0  2  0  0  0  0  0  0
  186.4340  177.9180  145.2880 C   0  0  1  0  0  3  0  0  0  0  0  0
  187.0330  178.0640  147.7060 C   0  0  0  0  0  3  0  0  0  0  0  0
  185.0010  179.0200  147.0320 O   0  0  0  0  0  1  0  0  0  0  0  0
  190.1790  177.5200  145.9790 C   0  0  0  0  0  3  0  0  0  0  0  0
  188.8480  177.4940  146.1150 C   0  0  0  0  0  0  0  0  0  0  0  0
  187.8890  177.6290  144.9920 C   0  0  0  0  0  0  0  0  0  0  0  0
  188.2550  177.4500  143.7970 O   0  0  0  0  0  0  0  0  0  0  0  0
  188.2890  177.2680  147.4830 C   0  0  0  0  0  2  0  0  0  0  0  0
  186.1730  178.3410  146.7210 C   0  0  0  0  0  0  0  0  0  0  0  0
  190.8930  177.7320  144.6850 C   0  0  0  0  0  2  0  0  0  0  0  0
  191.8680  175.4510  143.8360 N   0  0  0  0  0  0  0  0  0  0  0  0
  191.4380  176.4600  144.2080 C   0  0  0  0  0  0  0  0  0  0  0  0
  183.2450  179.2890  143.6220 C   0  0  0  0  0  2  0  0  0  0  0  0
  181.9250  178.6350  143.9920 C   0  0  0  0  0  2  0  0  0  0  0  0
  180.7560  179.3860  143.3780 C   0  0  1  0  0  3  0  0  0  0  0  0
  180.0170  178.4890  142.4880 N   0  0  0  0  0  0  0  0  0  0  0  0
  179.0500  176.7900  141.2310 O   0  0  0  0  0  0  0  0  0  0  0  0
  180.0200  177.5740  141.3960 C   0  0  0  0  0  0  0  0  0  0  0  0
  179.6310  178.8700  143.7830 O   0  0  0  0  0  0  0  0  0  0  0  0
  181.1370  177.5920  140.4120 C   0  0  0  0  0  2  0  0  0  0  0  0
  181.4100  178.9610  140.0090 N   0  0  0  0  0  2  0  0  0  0  0  0
  182.3270  178.8880  138.8860 C   0  0  0  0  0  1  0  0  0  0  0  0
  1  2  1  0  0  0  0
  1 19  1  1  0  0  0
  2  6  1  1  0  0  0
  3  5  1  6  0  0  0
  3  1  1  0  0  0  0
  3  2  1  0  0  0  0
  4  5  1  0  0  0  0
  7  6  1  6  0  0  0
  7 15  1  0  0  0  0
 10 11  2  0  0  0  0
 11 14  1  0  0  0  0
 12  7  1  0  0  0  0
 12 11  1  0  0  0  0
 13 12  2  0  0  0  0
 14  8  1  0  0  0  0
 15  9  1  0  0  0  0
 15  8  2  0  0  0  0
 16 10  1  0  0  0  0
 17 18  3  0  0  0  0
 18 16  1  0  0  0  0
 19 20  1  0  0  0  0
 21 25  1  0  0  0  0
 21 20  1  1  0  0  0
 22 21  1  0  0  0  0
 22 25  1  0  0  0  0
 23 24  2  0  0  0  0
 24 22  1  0  0  0  0
 26 24  1  0  0  0  0
 27 26  1  0  0  0  0
 28 27  1  0  0  0  0
M  END
>  <MODEL>
6

>  <REMARK>
 VINA RESULT:      -6.8      2.332      8.295
  Name = 
  10 active torsions:
  status: ('A' for Active; 'I' for Inactive)
    1  A    between atoms: C_1  and  N_8
    2  A    between atoms: C_4  and  C_21
    3  A    between atoms: C_5  and  C_27
    4  A    between atoms: N_8  and  C_9
    5  A    between atoms: C_10  and  C_19
    6  A    between atoms: N_11  and  C_18
    7  A    between atoms: O_17  and  C_26
    8  A    between atoms: C_18  and  C_20
    9  A    between atoms: C_19  and  C_28
   10  A    between atoms: C_21  and  C_27
                            x       y       z     vdW  Elec       q    Type
                         _______ _______ _______ _____ _____    ______ ____

>  <TORSDO>
F 10

$$$$
=
 OpenBabel10222416533D

 28 30  0  0  1  0  0  0  0  0999 V2000
  190.3200  177.2940  138.4700 C   0  0  2  0  0  3  0  0  0  0  0  0
  189.4380  177.8370  139.5990 C   0  0  1  0  0  3  0  0  0  0  0  0
  188.8300  177.0100  138.4840 C   0  0  1  0  0  3  0  0  0  0  0  0
  188.9790  179.0060  137.5510 C   0  0  0  0  0  1  0  0  0  0  0  0
  188.1900  177.8550  137.5780 O   0  0  0  0  0  0  0  0  0  0  0  0
  189.5180  177.0320  140.8210 N   0  0  0  0  0  2  0  0  0  0  0  0
  189.7850  177.8860  141.9850 C   0  0  1  0  0  3  0  0  0  0  0  0
  191.3400  177.7220  143.9290 C   0  0  0  0  0  3  0  0  0  0  0  0
  192.1800  177.1460  141.8170 O   0  0  0  0  0  1  0  0  0  0  0  0
  188.0080  177.5880  145.3630 C   0  0  0  0  0  3  0  0  0  0  0  0
  188.9130  177.8720  144.4200 C   0  0  0  0  0  0  0  0  0  0  0  0
  188.6320  177.8800  142.9640 C   0  0  0  0  0  0  0  0  0  0  0  0
  187.4480  177.9410  142.5290 O   0  0  0  0  0  0  0  0  0  0  0  0
  190.2890  178.2540  144.8640 C   0  0  0  0  0  2  0  0  0  0  0  0
  191.1280  177.5770  142.6180 C   0  0  0  0  0  0  0  0  0  0  0  0
  186.5940  177.1940  145.0860 C   0  0  0  0  0  2  0  0  0  0  0  0
  184.9720  178.6630  146.5300 N   0  0  0  0  0  0  0  0  0  0  0  0
  185.6880  178.0150  145.8900 C   0  0  0  0  0  0  0  0  0  0  0  0
  191.0740  176.0120  138.8110 C   0  0  0  0  0  2  0  0  0  0  0  0
  192.5440  176.1570  138.4580 C   0  0  0  0  0  2  0  0  0  0  0  0
  192.9000  175.2960  137.2570 C   0  0  1  0  0  3  0  0  0  0  0  0
  193.7710  174.2010  137.6870 N   0  0  0  0  0  0  0  0  0  0  0  0
  195.0620  172.5670  138.7200 O   0  0  0  0  0  0  0  0  0  0  0  0
  194.9480  173.7680  138.3630 C   0  0  0  0  0  0  0  0  0  0  0  0
  192.4010  174.1020  137.4000 O   0  0  0  0  0  0  0  0  0  0  0  0
  196.0710  174.7190  138.5860 C   0  0  0  0  0  2  0  0  0  0  0  0
  195.8850  175.4060  139.8530 N   0  0  0  0  0  2  0  0  0  0  0  0
  197.1250  175.2570  140.5920 C   0  0  0  0  0  1  0  0  0  0  0  0
  1  3  1  0  0  0  0
  1 19  1  1  0  0  0
  1  2  1  0  0  0  0
  2  6  1  1  0  0  0
  3  5  1  6  0  0  0
  3  2  1  0  0  0  0
  4  5  1  0  0  0  0
  7  6  1  6  0  0  0
  7 15  1  0  0  0  0
  7 12  1  0  0  0  0
  8 14  1  0  0  0  0
  9 15  1  0  0  0  0
 11 14  1  0  0  0  0
 11 10  2  0  0  0  0
 12 11  1  0  0  0  0
 13 12  2  0  0  0  0
 15  8  2  0  0  0  0
 16 10  1  0  0  0  0
 16 18  1  0  0  0  0
 18 17  3  0  0  0  0
 20 19  1  0  0  0  0
 21 25  1  0  0  0  0
 21 22  1  0  0  0  0
 21 20  1  1  0  0  0
 22 24  1  0  0  0  0
 24 26  1  0  0  0  0
 24 23  2  0  0  0  0
 25 22  1  0  0  0  0
 26 27  1  0  0  0  0
 27 28  1  0  0  0  0
M  END
>  <MODEL>
7

>  <REMARK>
 VINA RESULT:      -6.8      4.231      6.758
  Name = 
  10 active torsions:
  status: ('A' for Active; 'I' for Inactive)
    1  A    between atoms: C_1  and  N_8
    2  A    between atoms: C_4  and  C_21
    3  A    between atoms: C_5  and  C_27
    4  A    between atoms: N_8  and  C_9
    5  A    between atoms: C_10  and  C_19
    6  A    between atoms: N_11  and  C_18
    7  A    between atoms: O_17  and  C_26
    8  A    between atoms: C_18  and  C_20
    9  A    between atoms: C_19  and  C_28
   10  A    between atoms: C_21  and  C_27
                            x       y       z     vdW  Elec       q    Type
                         _______ _______ _______ _____ _____    ______ ____

>  <TORSDO>
F 10

$$$$
=
 OpenBabel10222416533D

 28 30  0  0  1  0  0  0  0  0999 V2000
  189.7400  177.4480  143.1170 C   0  0  2  0  0  3  0  0  0  0  0  0
  190.5110  177.0960  141.8400 C   0  0  1  0  0  3  0  0  0  0  0  0
  190.4540  176.1150  142.9940 C   0  0  1  0  0  3  0  0  0  0  0  0
  191.5030  177.2470  144.5740 C   0  0  0  0  0  1  0  0  0  0  0  0
  191.6540  176.1660  143.7040 O   0  0  0  0  0  0  0  0  0  0  0  0
  189.6380  176.6330  140.7580 N   0  0  0  0  0  2  0  0  0  0  0  0
  189.9880  177.2940  139.4940 C   0  0  1  0  0  3  0  0  0  0  0  0
  188.6780  178.5360  137.7720 C   0  0  0  0  0  3  0  0  0  0  0  0
  188.1970  178.9730  140.0250 O   0  0  0  0  0  1  0  0  0  0  0  0
  189.9520  175.5980  136.0620 C   0  0  0  0  0  3  0  0  0  0  0  0
  189.9260  176.5260  137.0250 C   0  0  0  0  0  0  0  0  0  0  0  0
  190.3660  176.2960  138.4220 C   0  0  0  0  0  0  0  0  0  0  0  0
  191.0990  175.3130  138.7220 O   0  0  0  0  0  0  0  0  0  0  0  0
  189.4660  177.9010  136.6600 C   0  0  0  0  0  2  0  0  0  0  0  0
  188.9260  178.2870  139.0610 C   0  0  0  0  0  0  0  0  0  0  0  0
  190.3870  174.1840  136.2630 C   0  0  0  0  0  2  0  0  0  0  0  0
  188.3120  172.6940  136.8550 N   0  0  0  0  0  0  0  0  0  0  0  0
  189.2270  173.3540  136.5940 C   0  0  0  0  0  0  0  0  0  0  0  0
  188.2350  177.2160  143.0360 C   0  0  0  0  0  2  0  0  0  0  0  0
  187.6950  176.7880  144.3890 C   0  0  0  0  0  2  0  0  0  0  0  0
  187.9270  177.8680  145.4320 C   0  0  1  0  0  3  0  0  0  0  0  0
  186.6450  178.2580  146.0210 N   0  0  0  0  0  0  0  0  0  0  0  0
  184.4710  178.5730  146.7800 O   0  0  0  0  0  0  0  0  0  0  0  0
  185.3020  178.7000  145.8440 C   0  0  0  0  0  0  0  0  0  0  0  0
  187.6070  177.4250  146.6140 O   0  0  0  0  0  0  0  0  0  0  0  0
  184.9000  179.3720  144.5780 C   0  0  0  0  0  2  0  0  0  0  0  0
  184.0830  178.4700  143.7840 N   0  0  0  0  0  2  0  0  0  0  0  0
  182.7410  179.0230  143.7770 C   0  0  0  0  0  1  0  0  0  0  0  0
  1 19  1  6  0  0  0
  2  6  1  6  0  0  0
  2  3  1  0  0  0  0
  2  1  1  0  0  0  0
  3  1  1  0  0  0  0
  3  5  1  1  0  0  0
  5  4  1  0  0  0  0
  7  6  1  1  0  0  0
  8 15  2  0  0  0  0
 10 16  1  0  0  0  0
 10 11  2  0  0  0  0
 11 12  1  0  0  0  0
 12 13  2  0  0  0  0
 12  7  1  0  0  0  0
 14 11  1  0  0  0  0
 14  8  1  0  0  0  0
 15  7  1  0  0  0  0
 15  9  1  0  0  0  0
 16 18  1  0  0  0  0
 18 17  3  0  0  0  0
 19 20  1  0  0  0  0
 21 20  1  6  0  0  0
 21 22  1  0  0  0  0
 21 25  1  0  0  0  0
 22 25  1  0  0  0  0
 24 22  1  0  0  0  0
 24 23  2  0  0  0  0
 26 24  1  0  0  0  0
 27 26  1  0  0  0  0
 28 27  1  0  0  0  0
M  END
>  <MODEL>
8

>  <REMARK>
 VINA RESULT:      -6.7      2.882      7.390
  Name = 
  10 active torsions:
  status: ('A' for Active; 'I' for Inactive)
    1  A    between atoms: C_1  and  N_8
    2  A    between atoms: C_4  and  C_21
    3  A    between atoms: C_5  and  C_27
    4  A    between atoms: N_8  and  C_9
    5  A    between atoms: C_10  and  C_19
    6  A    between atoms: N_11  and  C_18
    7  A    between atoms: O_17  and  C_26
    8  A    between atoms: C_18  and  C_20
    9  A    between atoms: C_19  and  C_28
   10  A    between atoms: C_21  and  C_27
                            x       y       z     vdW  Elec       q    Type
                         _______ _______ _______ _____ _____    ______ ____

>  <TORSDO>
F 10

$$$$
=
 OpenBabel10222416533D

 28 30  0  0  1  0  0  0  0  0999 V2000
  189.3990  177.2890  143.6440 C   0  0  2  0  0  3  0  0  0  0  0  0
  189.9350  177.4220  142.2150 C   0  0  1  0  0  3  0  0  0  0  0  0
  190.1870  176.1580  143.0110 C   0  0  1  0  0  3  0  0  0  0  0  0
  191.6800  177.4770  143.9660 C   0  0  0  0  0  1  0  0  0  0  0  0
  191.4920  176.1730  143.5030 O   0  0  0  0  0  0  0  0  0  0  0  0
  188.9130  177.1670  141.1970 N   0  0  0  0  0  2  0  0  0  0  0  0
  189.2170  177.9050  139.9640 C   0  0  1  0  0  3  0  0  0  0  0  0
  187.9580  178.3390  137.8540 C   0  0  0  0  0  3  0  0  0  0  0  0
  186.7800  178.5060  139.8750 O   0  0  0  0  0  1  0  0  0  0  0  0
  190.8430  176.3780  136.8520 C   0  0  0  0  0  3  0  0  0  0  0  0
  190.1440  177.1830  137.6590 C   0  0  0  0  0  0  0  0  0  0  0  0
  190.2740  177.2070  139.1360 C   0  0  0  0  0  0  0  0  0  0  0  0
  191.2810  176.7070  139.7110 O   0  0  0  0  0  0  0  0  0  0  0  0
  189.2020  178.1590  137.0290 C   0  0  0  0  0  2  0  0  0  0  0  0
  187.9610  178.2520  139.1880 C   0  0  0  0  0  0  0  0  0  0  0  0
  191.8240  175.3540  137.3220 C   0  0  0  0  0  2  0  0  0  0  0  0
  194.2630  176.1780  136.8250 N   0  0  0  0  0  0  0  0  0  0  0  0
  193.1850  175.8120  137.0430 C   0  0  0  0  0  0  0  0  0  0  0  0
  187.9310  176.8820  143.7370 C   0  0  0  0  0  2  0  0  0  0  0  0
  187.1260  177.9710  144.4230 C   0  0  0  0  0  2  0  0  0  0  0  0
  186.3810  177.4190  145.6270 C   0  0  1  0  0  3  0  0  0  0  0  0
  187.1200  177.7490  146.8470 N   0  0  0  0  0  0  0  0  0  0  0  0
  188.4940  178.5010  148.5640 O   0  0  0  0  0  0  0  0  0  0  0  0
  188.3420  177.7320  147.5800 C   0  0  0  0  0  0  0  0  0  0  0  0
  185.9640  178.3950  146.3810 O   0  0  0  0  0  0  0  0  0  0  0  0
  189.4100  176.7590  147.2230 C   0  0  0  0  0  2  0  0  0  0  0  0
  190.6910  177.2400  147.7120 N   0  0  0  0  0  2  0  0  0  0  0  0
  191.6800  176.2500  147.3260 C   0  0  0  0  0  1  0  0  0  0  0  0
  1 19  1  6  0  0  0
  2  6  1  6  0  0  0
  2  3  1  0  0  0  0
  2  1  1  0  0  0  0
  3  5  1  1  0  0  0
  3  1  1  0  0  0  0
  5  4  1  0  0  0  0
  7  6  1  1  0  0  0
  8 15  2  0  0  0  0
 10 16  1  0  0  0  0
 10 11  2  0  0  0  0
 11 12  1  0  0  0  0
 12 13  2  0  0  0  0
 12  7  1  0  0  0  0
 14 11  1  0  0  0  0
 14  8  1  0  0  0  0
 15  9  1  0  0  0  0
 15  7  1  0  0  0  0
 17 18  3  0  0  0  0
 18 16  1  0  0  0  0
 19 20  1  0  0  0  0
 21 20  1  6  0  0  0
 21 25  1  0  0  0  0
 21 22  1  0  0  0  0
 22 24  1  0  0  0  0
 24 23  2  0  0  0  0
 25 22  1  0  0  0  0
 26 24  1  0  0  0  0
 26 27  1  0  0  0  0
 28 27  1  0  0  0  0
M  END
>  <MODEL>
9

>  <REMARK>
 VINA RESULT:      -6.7      3.354      7.180
  Name = 
  10 active torsions:
  status: ('A' for Active; 'I' for Inactive)
    1  A    between atoms: C_1  and  N_8
    2  A    between atoms: C_4  and  C_21
    3  A    between atoms: C_5  and  C_27
    4  A    between atoms: N_8  and  C_9
    5  A    between atoms: C_10  and  C_19
    6  A    between atoms: N_11  and  C_18
    7  A    between atoms: O_17  and  C_26
    8  A    between atoms: C_18  and  C_20
    9  A    between atoms: C_19  and  C_28
   10  A    between atoms: C_21  and  C_27
                            x       y       z     vdW  Elec       q    Type
                         _______ _______ _______ _____ _____    ______ ____

>  <TORSDO>
F 10

$$$$
