=
 OpenBabel10222420503D

 68 77  0  0  1  0  0  0  0  0999 V2000
  185.6060  177.9740  139.8600 C   0  0  1  0  0  3  0  0  0  0  0  0
  185.7010  177.1710  138.5680 C   0  0  0  0  0  2  0  0  0  0  0  0
  186.9730  177.3220  138.0090 O   0  0  0  0  0  0  0  0  0  0  0  0
  186.7880  177.1330  136.6340 C   0  0  1  0  0  3  0  0  0  0  0  0
  187.1390  178.4280  135.9130 C   0  0  0  0  0  1  0  0  0  0  0  0
  187.6860  175.9860  136.1410 C   0  0  1  0  0  3  0  0  0  0  0  0
  186.4170  174.6920  134.7340 C   0  0  0  0  0  1  0  0  0  0  0  0
  187.4540  175.6360  134.7910 O   0  0  0  0  0  0  0  0  0  0  0  0
  189.1730  176.1920  136.4600 C   0  0  0  0  0  2  0  0  0  0  0  0
  189.8890  174.8550  136.6010 C   0  0  0  0  0  2  0  0  0  0  0  0
  190.8980  174.8220  137.7460 C   0  0  2  0  0  3  0  0  0  0  0  0
  190.5110  175.6670  138.7900 O   0  0  0  0  0  0  0  0  0  0  0  0
  191.3610  176.6700  138.7460 O   0  0  0  0  0  1  0  0  0  0  0  0
  192.2960  175.1770  137.2640 C   0  0  0  0  0  2  0  0  0  0  0  0
  195.0870  171.9890  138.0190 C   0  0  0  0  0  2  0  0  0  0  0  0
  193.7610  171.2080  134.6030 C   0  0  0  0  0  2  0  0  0  0  0  0
  195.7030  173.1940  137.2830 C   0  0  1  0  0  0  0  0  0  0  0  0
  193.1450  170.5370  135.8200 C   0  0  0  0  0  2  0  0  0  0  0  0
  195.0120  175.1570  138.4770 O   0  0  0  0  0  1  0  0  0  0  0  0
  195.4980  174.2680  136.1590 C   0  0  2  0  0  0  0  0  0  0  0  0
  195.7780  175.7430  136.0250 C   0  0  0  0  0  2  0  0  0  0  0  0
  195.2330  171.8960  136.5510 C   0  0  2  0  0  3  0  0  0  0  0  0
  196.8000  174.8430  136.1910 O   0  0  0  0  0  0  0  0  0  0  0  0
  194.6670  174.2730  137.4430 C   0  0  1  0  0  0  0  0  0  0  0  0
  193.8150  171.8910  135.9490 C   0  0  0  0  0  0  0  0  0  0  0  0
  192.8780  173.0920  136.0340 C   0  0  0  0  0  2  0  0  0  0  0  0
  193.1630  173.9300  137.2830 C   0  0  2  0  0  3  0  0  0  0  0  0
  186.6920  178.8480  139.9730 O   0  0  0  0  0  0  0  0  0  0  0  0
  186.8560  179.0380  141.3470 C   0  0  0  0  0  2  0  0  0  0  0  0
  187.0090  177.7020  142.0490 C   0  0  0  0  0  2  0  0  0  0  0  0
  188.3390  177.8070  145.6440 C   0  0  0  0  0  0  0  0  0  0  0  0
  187.4280  177.7440  144.5560 C   0  0  0  0  0  0  0  0  0  0  0  0
  187.9210  177.8190  143.2310 C   0  0  0  0  0  0  0  0  0  0  0  0
  189.7060  177.9860  145.3750 C   0  0  0  0  0  3  0  0  0  0  0  0
  189.2860  177.9970  143.0000 C   0  0  0  0  0  3  0  0  0  0  0  0
  190.1760  178.0880  144.0680 C   0  0  0  0  0  0  0  0  0  0  0  0
  191.6280  178.2780  143.8150 C   0  0  0  0  0  1  0  0  0  0  0  0
  187.9310  177.6760  147.0680 C   0  0  0  0  0  0  0  0  0  0  0  0
  186.7540  178.2460  147.5410 O   0  0  0  0  0  0  0  0  0  0  0  0
  188.6500  177.0220  147.8700 O   0  0  0  0  0  1  0  0  0  0  0  0
  185.9460  177.6320  144.7780 C   0  0  0  0  0  2  0  0  0  0  0  0
  185.3110  178.9310  144.5960 N   0  0  0  0  0  2  0  0  0  0  0  0
  183.9960  178.8760  145.2160 C   0  0  0  0  0  2  0  0  0  0  0  0
  182.9360  179.4400  144.2830 C   0  0  0  0  0  2  0  0  0  0  0  0
  181.8970  178.3810  143.9720 C   0  0  0  0  0  2  0  0  0  0  0  0
  180.7140  179.0220  143.2750 C   0  0  0  0  0  3  0  0  0  0  0  0
  179.8410  179.7030  144.3060 C   0  0  0  0  0  2  0  0  0  0  0  0
  179.4430  178.3510  143.7520 C   0  0  0  0  0  2  0  0  0  0  0  0
  184.2920  178.7460  139.9180 C   0  0  0  0  0  2  0  0  0  0  0  0
  183.7010  178.9550  138.5320 C   0  0  0  0  0  2  0  0  0  0  0  0
  181.6980  176.6510  135.3110 N   0  0  1  0  0  0  0  0  0  0  0  0
  180.9760  180.2090  139.2030 N   0  0  0  0  0  0  0  0  0  0  0  0
  179.2880  178.2760  137.3170 N   0  0  0  0  0  0  0  0  0  0  0  0
  182.3980  178.1850  138.4130 C   0  0  2  0  0  3  0  0  0  0  0  0
  181.7620  178.4290  137.0310 C   0  0  2  0  0  3  0  0  0  0  0  0
  180.4900  176.7120  136.0200 N   0  0  0  0  0  2  0  0  0  0  0  0
  179.0490  179.4940  137.9880 N   0  0  0  0  0  2  0  0  0  0  0  0
  180.4290  177.8050  136.9040 C   0  0  0  0  0  0  0  0  0  0  0  0
  181.2990  178.5850  139.8140 S   0  0  0  0  0  0  0  0  0  0  0  0
  182.5740  177.6790  135.9420 C   0  0  1  0  0  3  0  0  0  0  0  0
  180.0160  180.4800  138.3790 C   0  0  0  0  0  0  0  0  0  0  0  0
  182.7620  176.2500  136.2440 C   0  0  0  0  0  2  0  0  0  0  0  0
  179.7580  181.9050  138.0330 C   0  0  0  0  0  2  0  0  0  0  0  0
  180.2970  182.1930  136.7680 O   0  0  0  0  0  0  0  0  0  0  0  0
  181.7340  183.6740  137.7760 F   0  0  0  0  0  0  0  0  0  0  0  0
  181.3600  183.7910  135.5650 F   0  0  0  0  0  0  0  0  0  0  0  0
  179.7420  184.4220  136.9890 F   0  0  0  0  0  0  0  0  0  0  0  0
  180.7750  183.5160  136.7860 C   0  0  0  0  0  0  0  0  0  0  0  0
  1  2  1  6  0  0  0
  1 49  1  0  0  0  0
  1 28  1  0  0  0  0
  3  2  1  0  0  0  0
  4  5  1  6  0  0  0
  4  3  1  0  0  0  0
  6  9  1  6  0  0  0
  6  4  1  0  0  0  0
  7  8  1  0  0  0  0
  8  6  1  0  0  0  0
  9 10  1  0  0  0  0
 11 10  1  6  0  0  0
 11 12  1  0  0  0  0
 13 12  1  0  0  0  0
 14 11  1  0  0  0  0
 16 18  1  0  0  0  0
 16 25  1  0  0  0  0
 17 24  1  0  0  0  0
 17 15  1  1  0  0  0
 18 25  1  0  0  0  0
 20 21  1  6  0  0  0
 20 23  1  0  0  0  0
 20 17  1  0  0  0  0
 20 24  1  0  0  0  0
 21 23  1  0  0  0  0
 22 17  1  0  0  0  0
 22 15  1  1  0  0  0
 24 19  1  1  0  0  0
 25 26  1  0  0  0  0
 25 22  1  0  0  0  0
 26 27  1  0  0  0  0
 27 14  1  6  0  0  0
 27 24  1  0  0  0  0
 28 29  1  0  0  0  0
 29 30  1  0  0  0  0
 30 33  1  0  0  0  0
 31 38  1  0  0  0  0
 32 41  1  0  0  0  0
 32 31  2  0  0  0  0
 33 32  1  0  0  0  0
 34 31  1  0  0  0  0
 35 33  2  0  0  0  0
 35 36  1  0  0  0  0
 36 34  2  0  0  0  0
 37 36  1  0  0  0  0
 38 39  2  0  0  0  0
 38 40  1  0  0  0  0
 42 41  1  0  0  0  0
 42 43  1  0  0  0  0
 44 43  1  0  0  0  0
 45 44  1  0  0  0  0
 46 48  1  0  0  0  0
 46 45  1  0  0  0  0
 46 47  1  0  0  0  0
 48 47  1  0  0  0  0
 50 49  1  0  0  0  0
 51 60  1  0  0  0  0
 51 56  1  0  0  0  0
 51 62  1  1  0  0  0
 52 59  1  0  0  0  0
 53 57  1  0  0  0  0
 54 50  1  1  0  0  0
 54 59  1  0  0  0  0
 55 58  1  1  0  0  0
 55 54  1  0  0  0  0
 56 58  1  0  0  0  0
 57 61  1  0  0  0  0
 58 53  2  0  0  0  0
 60 62  1  1  0  0  0
 60 55  1  0  0  0  0
 61 52  2  0  0  0  0
 63 61  1  0  0  0  0
 64 68  1  0  0  0  0
 64 63  1  0  0  0  0
 66 68  1  0  0  0  0
 68 67  1  0  0  0  0
 68 65  1  0  0  0  0
M  END
>  <MODEL>
1

>  <REMARK>
 VINA RESULT:      -6.1      0.000      0.000
  Name = 
  28 active torsions:
  status: ('A' for Active; 'I' for Inactive)
    1  A    between atoms: C_5  and  C_13
    2  A    between atoms: C_7  and  C_9
    3  A    between atoms: C_7  and  C_12
    4  A    between atoms: C_8  and  C_18
    5  A    between atoms: C_8  and  C_48
    6  A    between atoms: C_8  and  O_62
    7  A    between atoms: C_11  and  C_25
    8  A    between atoms: C_12  and  C_15
    9  A    between atoms: C_14  and  C_64
   10  A    between atoms: C_15  and  C_59
   11  A    between atoms: C_15  and  O_60
   12  A    between atoms: C_18  and  O_26
   13  A    between atoms: C_21  and  C_33
   14  A    between atoms: C_22  and  C_23
   15  A    between atoms: C_22  and  O_30
   16  A    between atoms: C_22  and  C_37
   17  A    between atoms: C_23  and  C_66
   18  A    between atoms: C_25  and  C_36
   19  A    between atoms: O_26  and  C_59
   20  A    between atoms: C_33  and  C_61
   21  A    between atoms: C_36  and  C_50
   22  A    between atoms: C_37  and  C_48
   23  A    between atoms: N_43  and  C_50
   24  A    between atoms: N_43  and  C_64
   25  A    between atoms: C_47  and  O_58
   26  A    between atoms: C_47  and  C_63
   27  A    between atoms: O_58  and  C_68
   28  A    between atoms: O_60  and  C_61
                            x       y       z     vdW  Elec       q    Type
                         _______ _______ _______ _____ _____    ______ ____

>  <TORSDO>
F 28

$$$$
=
 OpenBabel10222420503D

 68 77  0  0  1  0  0  0  0  0999 V2000
  190.2510  176.2170  137.2540 C   0  0  1  0  0  3  0  0  0  0  0  0
  189.1370  175.1780  137.2900 C   0  0  0  0  0  2  0  0  0  0  0  0
  188.2210  175.4300  136.2650 O   0  0  0  0  0  0  0  0  0  0  0  0
  188.2560  176.8170  136.0810 C   0  0  1  0  0  3  0  0  0  0  0  0
  188.4160  177.1070  134.5940 C   0  0  0  0  0  1  0  0  0  0  0  0
  186.9580  177.4460  136.6120 C   0  0  1  0  0  3  0  0  0  0  0  0
  188.4170  179.1650  137.0390 C   0  0  0  0  0  1  0  0  0  0  0  0
  187.1760  178.6100  137.3860 O   0  0  0  0  0  0  0  0  0  0  0  0
  185.8830  177.6350  135.5320 C   0  0  0  0  0  2  0  0  0  0  0  0
  184.6660  176.7660  135.8190 C   0  0  0  0  0  2  0  0  0  0  0  0
  184.6130  176.2470  137.2550 C   0  0  2  0  0  3  0  0  0  0  0  0
  184.1660  174.9240  137.3000 O   0  0  0  0  0  0  0  0  0  0  0  0
  185.1670  174.2130  136.8260 O   0  0  0  0  0  1  0  0  0  0  0  0
  183.7430  177.1340  138.1330 C   0  0  0  0  0  2  0  0  0  0  0  0
  179.7030  176.2700  136.9270 C   0  0  0  0  0  2  0  0  0  0  0  0
  179.6960  175.5600  140.6060 C   0  0  0  0  0  2  0  0  0  0  0  0
  179.9120  177.7170  137.4120 C   0  0  1  0  0  0  0  0  0  0  0  0
  179.9010  174.4210  139.6210 C   0  0  0  0  0  2  0  0  0  0  0  0
  181.8710  178.5410  136.2990 O   0  0  0  0  0  1  0  0  0  0  0  0
  180.5950  178.6390  138.4820 C   0  0  2  0  0  0  0  0  0  0  0  0
  181.3180  179.9610  138.4480 C   0  0  0  0  0  2  0  0  0  0  0  0
  179.3190  176.5900  138.3180 C   0  0  2  0  0  3  0  0  0  0  0  0
  179.9950  179.8710  138.0970 O   0  0  0  0  0  0  0  0  0  0  0  0
  181.4090  177.8670  137.4400 C   0  0  1  0  0  0  0  0  0  0  0  0
  180.2910  175.8370  139.2460 C   0  0  0  0  0  0  0  0  0  0  0  0
  181.7820  176.1570  139.3150 C   0  0  0  0  0  2  0  0  0  0  0  0
  182.2910  176.7140  137.9840 C   0  0  2  0  0  3  0  0  0  0  0  0
  190.8370  176.3500  138.5180 O   0  0  0  0  0  0  0  0  0  0  0  0
  189.7600  176.4110  139.4060 C   0  0  0  0  0  2  0  0  0  0  0  0
  189.6730  177.7880  140.0350 C   0  0  0  0  0  2  0  0  0  0  0  0
  187.3420  177.6060  143.0740 C   0  0  0  0  0  0  0  0  0  0  0  0
  188.4910  177.4320  142.2560 C   0  0  0  0  0  0  0  0  0  0  0  0
  188.4700  177.8980  140.9200 C   0  0  0  0  0  0  0  0  0  0  0  0
  186.1980  178.2010  142.5180 C   0  0  0  0  0  3  0  0  0  0  0  0
  187.3160  178.4850  140.3990 C   0  0  0  0  0  3  0  0  0  0  0  0
  186.1790  178.6300  141.1920 C   0  0  0  0  0  0  0  0  0  0  0  0
  184.9530  179.2550  140.6330 C   0  0  0  0  0  1  0  0  0  0  0  0
  187.2820  177.2080  144.5050 C   0  0  0  0  0  0  0  0  0  0  0  0
  188.3950  176.6950  145.1630 O   0  0  0  0  0  1  0  0  0  0  0  0
  186.2100  177.3480  145.1520 O   0  0  0  0  0  0  0  0  0  0  0  0
  189.7190  176.7320  142.7670 C   0  0  0  0  0  2  0  0  0  0  0  0
  190.7880  177.6960  142.9960 N   0  0  0  0  0  2  0  0  0  0  0  0
  191.9930  176.9550  143.3370 C   0  0  0  0  0  2  0  0  0  0  0  0
  191.7670  176.0990  144.5730 C   0  0  0  0  0  2  0  0  0  0  0  0
  191.7340  176.9720  145.8130 C   0  0  0  0  0  2  0  0  0  0  0  0
  191.3120  176.1400  147.0070 C   0  0  0  0  0  3  0  0  0  0  0  0
  191.8850  176.7560  148.2650 C   0  0  0  0  0  2  0  0  0  0  0  0
  192.5470  175.5420  147.6470 C   0  0  0  0  0  2  0  0  0  0  0  0
  191.3050  175.8430  136.2160 C   0  0  0  0  0  2  0  0  0  0  0  0
  192.6540  175.5620  136.8600 C   0  0  0  0  0  2  0  0  0  0  0  0
  192.7820  171.5060  135.0640 N   0  0  1  0  0  0  0  0  0  0  0  0
  195.7020  175.3970  137.2230 N   0  0  0  0  0  0  0  0  0  0  0  0
  196.0610  172.7410  135.5030 N   0  0  0  0  0  0  0  0  0  0  0  0
  193.5560  174.8560  135.8640 C   0  0  2  0  0  3  0  0  0  0  0  0
  193.7900  173.3970  136.3000 C   0  0  2  0  0  3  0  0  0  0  0  0
  194.1040  171.7300  134.6540 N   0  0  0  0  0  2  0  0  0  0  0  0
  196.8540  173.4680  136.4160 N   0  0  0  0  0  2  0  0  0  0  0  0
  194.7620  172.6970  135.4360 C   0  0  0  0  0  0  0  0  0  0  0  0
  195.0920  175.8100  135.6190 S   0  0  0  0  0  0  0  0  0  0  0  0
  192.4980  172.5690  136.0690 C   0  0  1  0  0  3  0  0  0  0  0  0
  196.4040  174.3360  137.4650 C   0  0  0  0  0  0  0  0  0  0  0  0
  191.9790  172.6820  134.6960 C   0  0  0  0  0  2  0  0  0  0  0  0
  196.9720  174.1580  138.8300 C   0  0  0  0  0  2  0  0  0  0  0  0
  197.5070  175.3740  139.2860 O   0  0  0  0  0  0  0  0  0  0  0  0
  197.0260  176.8990  140.9350 F   0  0  0  0  0  0  0  0  0  0  0  0
  195.8700  174.9790  140.8010 F   0  0  0  0  0  0  0  0  0  0  0  0
  198.0040  174.9310  141.4960 F   0  0  0  0  0  0  0  0  0  0  0  0
  197.1160  175.5500  140.6260 C   0  0  0  0  0  0  0  0  0  0  0  0
  1 49  1  6  0  0  0
  1  2  1  0  0  0  0
  1 28  1  0  0  0  0
  3  2  1  0  0  0  0
  4  5  1  6  0  0  0
  4  3  1  0  0  0  0
  4  6  1  0  0  0  0
  6  9  1  6  0  0  0
  6  8  1  0  0  0  0
  7  8  1  0  0  0  0
  9 10  1  0  0  0  0
 11 10  1  6  0  0  0
 11 12  1  0  0  0  0
 11 14  1  0  0  0  0
 13 12  1  0  0  0  0
 17 15  1  6  0  0  0
 17 24  1  0  0  0  0
 17 22  1  0  0  0  0
 17 20  1  0  0  0  0
 18 16  1  0  0  0  0
 20 21  1  1  0  0  0
 22 15  1  6  0  0  0
 22 25  1  0  0  0  0
 23 21  1  0  0  0  0
 23 20  1  0  0  0  0
 24 19  1  6  0  0  0
 24 27  1  0  0  0  0
 24 20  1  0  0  0  0
 25 26  1  0  0  0  0
 25 18  1  0  0  0  0
 25 16  1  0  0  0  0
 27 14  1  1  0  0  0
 27 26  1  0  0  0  0
 28 29  1  0  0  0  0
 29 30  1  0  0  0  0
 30 33  1  0  0  0  0
 31 38  1  0  0  0  0
 32 41  1  0  0  0  0
 32 31  2  0  0  0  0
 33 32  1  0  0  0  0
 34 31  1  0  0  0  0
 35 33  2  0  0  0  0
 35 36  1  0  0  0  0
 36 34  2  0  0  0  0
 37 36  1  0  0  0  0
 38 40  2  0  0  0  0
 38 39  1  0  0  0  0
 41 42  1  0  0  0  0
 42 43  1  0  0  0  0
 43 44  1  0  0  0  0
 44 45  1  0  0  0  0
 45 46  1  0  0  0  0
 46 48  1  0  0  0  0
 46 47  1  0  0  0  0
 48 47  1  0  0  0  0
 49 50  1  0  0  0  0
 51 62  1  6  0  0  0
 51 60  1  0  0  0  0
 52 61  2  0  0  0  0
 53 57  1  0  0  0  0
 54 55  1  0  0  0  0
 54 50  1  1  0  0  0
 55 58  1  6  0  0  0
 56 51  1  0  0  0  0
 56 58  1  0  0  0  0
 57 61  1  0  0  0  0
 58 53  2  0  0  0  0
 59 54  1  0  0  0  0
 59 52  1  0  0  0  0
 60 62  1  6  0  0  0
 60 55  1  0  0  0  0
 61 63  1  0  0  0  0
 63 64  1  0  0  0  0
 64 68  1  0  0  0  0
 68 66  1  0  0  0  0
 68 65  1  0  0  0  0
 68 67  1  0  0  0  0
M  END
>  <MODEL>
2

>  <REMARK>
 VINA RESULT:      -5.9      5.966     11.598
  Name = 
  28 active torsions:
  status: ('A' for Active; 'I' for Inactive)
    1  A    between atoms: C_5  and  C_13
    2  A    between atoms: C_7  and  C_9
    3  A    between atoms: C_7  and  C_12
    4  A    between atoms: C_8  and  C_18
    5  A    between atoms: C_8  and  C_48
    6  A    between atoms: C_8  and  O_62
    7  A    between atoms: C_11  and  C_25
    8  A    between atoms: C_12  and  C_15
    9  A    between atoms: C_14  and  C_64
   10  A    between atoms: C_15  and  C_59
   11  A    between atoms: C_15  and  O_60
   12  A    between atoms: C_18  and  O_26
   13  A    between atoms: C_21  and  C_33
   14  A    between atoms: C_22  and  C_23
   15  A    between atoms: C_22  and  O_30
   16  A    between atoms: C_22  and  C_37
   17  A    between atoms: C_23  and  C_66
   18  A    between atoms: C_25  and  C_36
   19  A    between atoms: O_26  and  C_59
   20  A    between atoms: C_33  and  C_61
   21  A    between atoms: C_36  and  C_50
   22  A    between atoms: C_37  and  C_48
   23  A    between atoms: N_43  and  C_50
   24  A    between atoms: N_43  and  C_64
   25  A    between atoms: C_47  and  O_58
   26  A    between atoms: C_47  and  C_63
   27  A    between atoms: O_58  and  C_68
   28  A    between atoms: O_60  and  C_61
                            x       y       z     vdW  Elec       q    Type
                         _______ _______ _______ _____ _____    ______ ____

>  <TORSDO>
F 28

$$$$
=
 OpenBabel10222420503D

 68 77  0  0  1  0  0  0  0  0999 V2000
  191.2800  177.0150  138.8330 C   0  0  1  0  0  3  0  0  0  0  0  0
  190.1470  176.0430  138.5260 C   0  0  0  0  0  2  0  0  0  0  0  0
  188.9440  176.7420  138.3970 O   0  0  0  0  0  0  0  0  0  0  0  0
  188.9030  177.1470  137.0570 C   0  0  1  0  0  3  0  0  0  0  0  0
  189.3720  175.9900  136.1840 C   0  0  0  0  0  1  0  0  0  0  0  0
  187.4680  177.5540  136.6800 C   0  0  1  0  0  3  0  0  0  0  0  0
  185.8070  177.3310  135.1140 C   0  0  0  0  0  1  0  0  0  0  0  0
  186.8590  176.6670  135.7620 O   0  0  0  0  0  0  0  0  0  0  0  0
  186.5810  177.8650  137.8940 C   0  0  0  0  0  2  0  0  0  0  0  0
  185.1190  177.5720  137.5860 C   0  0  0  0  0  2  0  0  0  0  0  0
  184.1920  177.7700  138.7840 C   0  0  2  0  0  3  0  0  0  0  0  0
  183.3160  176.6920  138.9320 O   0  0  0  0  0  0  0  0  0  0  0  0
  183.7090  175.8120  138.0360 O   0  0  0  0  0  1  0  0  0  0  0  0
  183.4190  179.0750  138.6760 C   0  0  0  0  0  2  0  0  0  0  0  0
  179.2320  178.0880  138.8070 C   0  0  0  0  0  2  0  0  0  0  0  0
  179.8100  179.9010  142.0340 C   0  0  0  0  0  2  0  0  0  0  0  0
  179.5250  179.4760  138.2090 C   0  0  1  0  0  0  0  0  0  0  0  0
  179.8480  178.3820  142.0090 C   0  0  0  0  0  2  0  0  0  0  0  0
  181.2850  179.1770  136.6060 O   0  0  0  0  0  1  0  0  0  0  0  0
  180.3770  180.7870  138.3340 C   0  0  2  0  0  0  0  0  0  0  0  0
  181.0940  181.6930  137.3650 C   0  0  0  0  0  2  0  0  0  0  0  0
  179.0780  179.2620  139.6900 C   0  0  2  0  0  3  0  0  0  0  0  0
  179.7310  181.5440  137.3150 O   0  0  0  0  0  0  0  0  0  0  0  0
  181.0080  179.4450  137.9560 C   0  0  1  0  0  0  0  0  0  0  0  0
  180.1820  179.1770  140.7620 C   0  0  0  0  0  0  0  0  0  0  0  0
  181.6660  179.3020  140.4300 C   0  0  0  0  0  2  0  0  0  0  0  0
  181.9580  178.8190  139.0080 C   0  0  2  0  0  3  0  0  0  0  0  0
  191.9450  176.6350  140.0040 O   0  0  0  0  0  0  0  0  0  0  0  0
  190.9600  176.6450  140.9940 C   0  0  0  0  0  2  0  0  0  0  0  0
  191.1290  177.8550  141.8930 C   0  0  0  0  0  2  0  0  0  0  0  0
  188.9230  177.5460  145.0150 C   0  0  0  0  0  0  0  0  0  0  0  0
  189.3450  177.8920  143.7020 C   0  0  0  0  0  0  0  0  0  0  0  0
  190.6550  177.5620  143.2830 C   0  0  0  0  0  0  0  0  0  0  0  0
  189.8380  176.9200  145.8770 C   0  0  0  0  0  3  0  0  0  0  0  0
  191.5390  176.9390  144.1660 C   0  0  0  0  0  3  0  0  0  0  0  0
  191.1350  176.6260  145.4630 C   0  0  0  0  0  0  0  0  0  0  0  0
  192.0800  175.9630  146.3990 C   0  0  0  0  0  1  0  0  0  0  0  0
  187.5510  177.7930  145.5310 C   0  0  0  0  0  0  0  0  0  0  0  0
  186.4820  176.9800  145.1690 O   0  0  0  0  0  0  0  0  0  0  0  0
  187.3420  178.7480  146.3260 O   0  0  0  0  0  1  0  0  0  0  0  0
  188.4400  178.6330  142.7580 C   0  0  0  0  0  2  0  0  0  0  0  0
  187.5740  177.6970  142.0530 N   0  0  0  0  0  2  0  0  0  0  0  0
  186.5530  178.4680  141.3600 C   0  0  0  0  0  2  0  0  0  0  0  0
  185.5620  179.0610  142.3490 C   0  0  0  0  0  2  0  0  0  0  0  0
  184.3850  178.1230  142.5350 C   0  0  0  0  0  2  0  0  0  0  0  0
  183.3780  178.7540  143.4750 C   0  0  0  0  0  3  0  0  0  0  0  0
  183.9470  180.0500  144.0110 C   0  0  0  0  0  2  0  0  0  0  0  0
  183.9720  178.8020  144.8680 C   0  0  0  0  0  2  0  0  0  0  0  0
  192.2580  177.0900  137.6650 C   0  0  0  0  0  2  0  0  0  0  0  0
  193.3400  176.0260  137.7700 C   0  0  0  0  0  2  0  0  0  0  0  0
  192.7470  171.9360  136.1540 N   0  0  1  0  0  0  0  0  0  0  0  0
  196.0120  176.1370  136.2550 N   0  0  0  0  0  0  0  0  0  0  0  0
  195.5240  173.4640  134.5950 N   0  0  0  0  0  0  0  0  0  0  0  0
  193.5380  175.3660  136.4160 C   0  0  2  0  0  3  0  0  0  0  0  0
  194.1150  173.9490  136.5970 C   0  0  2  0  0  3  0  0  0  0  0  0
  193.5440  172.2590  135.0460 N   0  0  0  0  0  2  0  0  0  0  0  0
  196.6330  174.2890  134.8780 N   0  0  0  0  0  2  0  0  0  0  0  0
  194.4460  173.3060  135.3090 C   0  0  0  0  0  0  0  0  0  0  0  0
  194.5380  176.4400  135.3320 S   0  0  0  0  0  0  0  0  0  0  0  0
  193.0180  173.0050  137.1560 C   0  0  1  0  0  3  0  0  0  0  0  0
  196.8140  175.1510  136.0100 C   0  0  0  0  0  0  0  0  0  0  0  0
  191.7800  173.0240  136.3590 C   0  0  0  0  0  2  0  0  0  0  0  0
  198.0920  175.0700  136.7690 C   0  0  0  0  0  2  0  0  0  0  0  0
  197.9220  175.6240  138.0490 O   0  0  0  0  0  0  0  0  0  0  0  0
  199.0330  173.7270  138.7140 F   0  0  0  0  0  0  0  0  0  0  0  0
  198.1650  175.1220  140.2440 F   0  0  0  0  0  0  0  0  0  0  0  0
  196.7860  173.8560  139.0040 F   0  0  0  0  0  0  0  0  0  0  0  0
  197.9720  174.5780  138.9890 C   0  0  0  0  0  0  0  0  0  0  0  0
  1 49  1  6  0  0  0
  1 28  1  0  0  0  0
  2  1  1  0  0  0  0
  3  2  1  0  0  0  0
  4  5  1  6  0  0  0
  4  3  1  0  0  0  0
  6  4  1  0  0  0  0
  6  9  1  1  0  0  0
  7  8  1  0  0  0  0
  8  6  1  0  0  0  0
 10  9  1  0  0  0  0
 11 10  1  6  0  0  0
 11 12  1  0  0  0  0
 13 12  1  0  0  0  0
 14 11  1  0  0  0  0
 17 20  1  0  0  0  0
 17 15  1  6  0  0  0
 17 22  1  0  0  0  0
 18 16  1  0  0  0  0
 20 21  1  1  0  0  0
 22 15  1  6  0  0  0
 22 25  1  0  0  0  0
 23 21  1  0  0  0  0
 23 20  1  0  0  0  0
 24 19  1  6  0  0  0
 24 17  1  0  0  0  0
 24 20  1  0  0  0  0
 24 27  1  0  0  0  0
 25 18  1  0  0  0  0
 25 16  1  0  0  0  0
 26 25  1  0  0  0  0
 27 14  1  6  0  0  0
 27 26  1  0  0  0  0
 28 29  1  0  0  0  0
 29 30  1  0  0  0  0
 30 33  1  0  0  0  0
 31 38  1  0  0  0  0
 31 34  1  0  0  0  0
 32 31  2  0  0  0  0
 33 32  1  0  0  0  0
 33 35  2  0  0  0  0
 35 36  1  0  0  0  0
 36 34  2  0  0  0  0
 36 37  1  0  0  0  0
 38 40  1  0  0  0  0
 39 38  2  0  0  0  0
 41 32  1  0  0  0  0
 42 41  1  0  0  0  0
 43 42  1  0  0  0  0
 43 44  1  0  0  0  0
 44 45  1  0  0  0  0
 45 46  1  0  0  0  0
 46 47  1  0  0  0  0
 46 48  1  0  0  0  0
 47 48  1  0  0  0  0
 49 50  1  0  0  0  0
 51 62  1  6  0  0  0
 51 60  1  0  0  0  0
 53 57  1  0  0  0  0
 53 58  2  0  0  0  0
 54 55  1  0  0  0  0
 54 50  1  1  0  0  0
 55 58  1  6  0  0  0
 55 60  1  0  0  0  0
 56 58  1  0  0  0  0
 56 51  1  0  0  0  0
 57 61  1  0  0  0  0
 59 52  1  0  0  0  0
 59 54  1  0  0  0  0
 60 62  1  6  0  0  0
 61 52  2  0  0  0  0
 61 63  1  0  0  0  0
 63 64  1  0  0  0  0
 64 68  1  0  0  0  0
 65 68  1  0  0  0  0
 68 67  1  0  0  0  0
 68 66  1  0  0  0  0
M  END
>  <MODEL>
3

>  <REMARK>
 VINA RESULT:      -5.9      5.951     11.512
  Name = 
  28 active torsions:
  status: ('A' for Active; 'I' for Inactive)
    1  A    between atoms: C_5  and  C_13
    2  A    between atoms: C_7  and  C_9
    3  A    between atoms: C_7  and  C_12
    4  A    between atoms: C_8  and  C_18
    5  A    between atoms: C_8  and  C_48
    6  A    between atoms: C_8  and  O_62
    7  A    between atoms: C_11  and  C_25
    8  A    between atoms: C_12  and  C_15
    9  A    between atoms: C_14  and  C_64
   10  A    between atoms: C_15  and  C_59
   11  A    between atoms: C_15  and  O_60
   12  A    between atoms: C_18  and  O_26
   13  A    between atoms: C_21  and  C_33
   14  A    between atoms: C_22  and  C_23
   15  A    between atoms: C_22  and  O_30
   16  A    between atoms: C_22  and  C_37
   17  A    between atoms: C_23  and  C_66
   18  A    between atoms: C_25  and  C_36
   19  A    between atoms: O_26  and  C_59
   20  A    between atoms: C_33  and  C_61
   21  A    between atoms: C_36  and  C_50
   22  A    between atoms: C_37  and  C_48
   23  A    between atoms: N_43  and  C_50
   24  A    between atoms: N_43  and  C_64
   25  A    between atoms: C_47  and  O_58
   26  A    between atoms: C_47  and  C_63
   27  A    between atoms: O_58  and  C_68
   28  A    between atoms: O_60  and  C_61
                            x       y       z     vdW  Elec       q    Type
                         _______ _______ _______ _____ _____    ______ ____

>  <TORSDO>
F 28

$$$$
=
 OpenBabel10222420503D

 68 77  0  0  1  0  0  0  0  0999 V2000
  187.1250  178.3480  139.5510 C   0  0  1  0  0  3  0  0  0  0  0  0
  188.4230  177.6990  140.0190 C   0  0  0  0  0  2  0  0  0  0  0  0
  189.4510  177.9940  139.1190 O   0  0  0  0  0  0  0  0  0  0  0  0
  190.6040  177.4510  139.6970 C   0  0  1  0  0  3  0  0  0  0  0  0
  190.1890  176.5110  140.8220 C   0  0  0  0  0  1  0  0  0  0  0  0
  191.4110  176.6880  138.6330 C   0  0  1  0  0  3  0  0  0  0  0  0
  193.2380  177.4160  139.8150 C   0  0  0  0  0  1  0  0  0  0  0  0
  192.7190  176.3570  139.0550 O   0  0  0  0  0  0  0  0  0  0  0  0
  190.6540  175.4960  138.0300 C   0  0  0  0  0  2  0  0  0  0  0  0
  191.6150  174.5390  137.3370 C   0  0  0  0  0  2  0  0  0  0  0  0
  191.7040  174.7530  135.8270 C   0  0  2  0  0  3  0  0  0  0  0  0
  190.7010  174.0500  135.1550 O   0  0  0  0  0  0  0  0  0  0  0  0
  190.9190  172.7860  135.4490 O   0  0  0  0  0  1  0  0  0  0  0  0
  193.0750  174.3690  135.2930 C   0  0  0  0  0  2  0  0  0  0  0  0
  195.4480  173.9800  138.8620 C   0  0  0  0  0  2  0  0  0  0  0  0
  196.2870  170.8960  136.9060 C   0  0  0  0  0  2  0  0  0  0  0  0
  196.1830  174.6720  137.6990 C   0  0  1  0  0  0  0  0  0  0  0  0
  195.2180  170.8340  137.9850 C   0  0  0  0  0  2  0  0  0  0  0  0
  194.6880  176.3370  136.8330 O   0  0  0  0  0  1  0  0  0  0  0  0
  196.4620  174.6650  136.1560 C   0  0  2  0  0  0  0  0  0  0  0  0
  196.5550  175.7180  135.0810 C   0  0  0  0  0  2  0  0  0  0  0  0
  196.3700  173.1610  138.0470 C   0  0  2  0  0  3  0  0  0  0  0  0
  197.4450  175.6940  136.1240 O   0  0  0  0  0  0  0  0  0  0  0  0
  195.0800  174.9940  136.7270 C   0  0  1  0  0  0  0  0  0  0  0  0
  195.5130  172.1400  137.2740 C   0  0  0  0  0  0  0  0  0  0  0  0
  194.5160  172.5490  136.1930 C   0  0  0  0  0  2  0  0  0  0  0  0
  193.9650  173.9530  136.4520 C   0  0  2  0  0  3  0  0  0  0  0  0
  186.3420  177.4240  138.8510 O   0  0  0  0  0  0  0  0  0  0  0  0
  186.5980  177.6870  137.5030 C   0  0  0  0  0  2  0  0  0  0  0  0
  185.4450  177.2060  136.6440 C   0  0  0  0  0  2  0  0  0  0  0  0
  184.1550  173.6070  136.3470 C   0  0  0  0  0  0  0  0  0  0  0  0
  184.1580  175.0260  136.4090 C   0  0  0  0  0  0  0  0  0  0  0  0
  185.3790  175.7100  136.6250 C   0  0  0  0  0  0  0  0  0  0  0  0
  185.3610  172.9160  136.5450 C   0  0  0  0  0  3  0  0  0  0  0  0
  186.5610  174.9910  136.8180 C   0  0  0  0  0  3  0  0  0  0  0  0
  186.5520  173.5990  136.7860 C   0  0  0  0  0  0  0  0  0  0  0  0
  187.8130  172.8400  136.9920 C   0  0  0  0  0  1  0  0  0  0  0  0
  182.9390  172.7990  136.0650 C   0  0  0  0  0  0  0  0  0  0  0  0
  182.2400  172.1590  137.0820 O   0  0  0  0  0  1  0  0  0  0  0  0
  182.5140  172.6960  134.8820 O   0  0  0  0  0  0  0  0  0  0  0  0
  182.8890  175.8200  136.2840 C   0  0  0  0  0  2  0  0  0  0  0  0
  182.0830  175.6730  137.4890 N   0  0  0  0  0  2  0  0  0  0  0  0
  182.0570  176.9600  138.1690 C   0  0  0  0  0  2  0  0  0  0  0  0
  180.9830  177.8590  137.5780 C   0  0  0  0  0  2  0  0  0  0  0  0
  181.5360  179.2520  137.3510 C   0  0  0  0  0  2  0  0  0  0  0  0
  180.5250  180.2810  137.8160 C   0  0  0  0  0  3  0  0  0  0  0  0
  181.1990  181.6340  137.8980 C   0  0  0  0  0  2  0  0  0  0  0  0
  180.9650  180.8270  139.1580 C   0  0  0  0  0  2  0  0  0  0  0  0
  186.3490  178.9140  140.7360 C   0  0  0  0  0  2  0  0  0  0  0  0
  186.2720  177.9200  141.8850 C   0  0  0  0  0  2  0  0  0  0  0  0
  187.9910  176.9280  145.8530 N   0  0  1  0  0  0  0  0  0  0  0  0
  183.8850  179.1980  143.3400 N   0  0  0  0  0  0  0  0  0  0  0  0
  185.1920  179.0470  146.2410 N   0  0  0  0  0  0  0  0  0  0  0  0
  186.4210  178.6550  143.2050 C   0  0  2  0  0  3  0  0  0  0  0  0
  186.1570  177.6940  144.3790 C   0  0  2  0  0  3  0  0  0  0  0  0
  187.3070  178.0130  146.4200 N   0  0  0  0  0  2  0  0  0  0  0  0
  183.8970  179.2710  145.7260 N   0  0  0  0  0  2  0  0  0  0  0  0
  186.1650  178.3830  145.6860 C   0  0  0  0  0  0  0  0  0  0  0  0
  185.3690  180.1460  143.2180 S   0  0  0  0  0  0  0  0  0  0  0  0
  187.3470  176.7090  144.5270 C   0  0  1  0  0  3  0  0  0  0  0  0
  183.3680  178.8290  144.4680 C   0  0  0  0  0  0  0  0  0  0  0  0
  188.6500  177.3890  144.6230 C   0  0  0  0  0  2  0  0  0  0  0  0
  182.0470  178.1440  144.4530 C   0  0  0  0  0  2  0  0  0  0  0  0
  181.2370  178.6930  143.4450 O   0  0  0  0  0  0  0  0  0  0  0  0
  179.0920  178.4990  142.6470 F   0  0  0  0  0  0  0  0  0  0  0  0
  179.7980  177.1800  144.3210 F   0  0  0  0  0  0  0  0  0  0  0  0
  179.4320  179.3590  144.7190 F   0  0  0  0  0  0  0  0  0  0  0  0
  179.8930  178.4470  143.7790 C   0  0  0  0  0  0  0  0  0  0  0  0
  1  2  1  1  0  0  0
  1 49  1  0  0  0  0
  3  4  1  0  0  0  0
  3  2  1  0  0  0  0
  4  5  1  1  0  0  0
  6  9  1  1  0  0  0
  6  8  1  0  0  0  0
  6  4  1  0  0  0  0
  8  7  1  0  0  0  0
 10  9  1  0  0  0  0
 11 14  1  6  0  0  0
 11 10  1  0  0  0  0
 12 13  1  0  0  0  0
 12 11  1  0  0  0  0
 16 25  1  0  0  0  0
 16 18  1  0  0  0  0
 17 22  1  0  0  0  0
 17 15  1  1  0  0  0
 20 21  1  6  0  0  0
 20 24  1  0  0  0  0
 20 17  1  0  0  0  0
 21 23  1  0  0  0  0
 22 15  1  1  0  0  0
 23 20  1  0  0  0  0
 24 19  1  6  0  0  0
 24 17  1  0  0  0  0
 25 18  1  0  0  0  0
 25 22  1  0  0  0  0
 26 27  1  0  0  0  0
 26 25  1  0  0  0  0
 27 14  1  6  0  0  0
 27 24  1  0  0  0  0
 28  1  1  0  0  0  0
 29 28  1  0  0  0  0
 30 29  1  0  0  0  0
 31 32  2  0  0  0  0
 31 34  1  0  0  0  0
 32 33  1  0  0  0  0
 33 30  1  0  0  0  0
 33 35  2  0  0  0  0
 34 36  2  0  0  0  0
 36 35  1  0  0  0  0
 36 37  1  0  0  0  0
 38 31  1  0  0  0  0
 38 39  1  0  0  0  0
 40 38  2  0  0  0  0
 41 32  1  0  0  0  0
 41 42  1  0  0  0  0
 42 43  1  0  0  0  0
 44 43  1  0  0  0  0
 45 44  1  0  0  0  0
 45 46  1  0  0  0  0
 46 47  1  0  0  0  0
 46 48  1  0  0  0  0
 47 48  1  0  0  0  0
 49 50  1  0  0  0  0
 51 62  1  6  0  0  0
 51 56  1  0  0  0  0
 52 61  2  0  0  0  0
 54 50  1  6  0  0  0
 54 59  1  0  0  0  0
 54 55  1  0  0  0  0
 55 60  1  0  0  0  0
 55 58  1  1  0  0  0
 57 53  1  0  0  0  0
 58 53  2  0  0  0  0
 58 56  1  0  0  0  0
 59 52  1  0  0  0  0
 60 62  1  6  0  0  0
 60 51  1  0  0  0  0
 61 57  1  0  0  0  0
 63 61  1  0  0  0  0
 64 68  1  0  0  0  0
 64 63  1  0  0  0  0
 65 68  1  0  0  0  0
 68 66  1  0  0  0  0
 68 67  1  0  0  0  0
M  END
>  <MODEL>
4

>  <REMARK>
 VINA RESULT:      -5.8      3.065      7.184
  Name = 
  28 active torsions:
  status: ('A' for Active; 'I' for Inactive)
    1  A    between atoms: C_5  and  C_13
    2  A    between atoms: C_7  and  C_9
    3  A    between atoms: C_7  and  C_12
    4  A    between atoms: C_8  and  C_18
    5  A    between atoms: C_8  and  C_48
    6  A    between atoms: C_8  and  O_62
    7  A    between atoms: C_11  and  C_25
    8  A    between atoms: C_12  and  C_15
    9  A    between atoms: C_14  and  C_64
   10  A    between atoms: C_15  and  C_59
   11  A    between atoms: C_15  and  O_60
   12  A    between atoms: C_18  and  O_26
   13  A    between atoms: C_21  and  C_33
   14  A    between atoms: C_22  and  C_23
   15  A    between atoms: C_22  and  O_30
   16  A    between atoms: C_22  and  C_37
   17  A    between atoms: C_23  and  C_66
   18  A    between atoms: C_25  and  C_36
   19  A    between atoms: O_26  and  C_59
   20  A    between atoms: C_33  and  C_61
   21  A    between atoms: C_36  and  C_50
   22  A    between atoms: C_37  and  C_48
   23  A    between atoms: N_43  and  C_50
   24  A    between atoms: N_43  and  C_64
   25  A    between atoms: C_47  and  O_58
   26  A    between atoms: C_47  and  C_63
   27  A    between atoms: O_58  and  C_68
   28  A    between atoms: O_60  and  C_61
                            x       y       z     vdW  Elec       q    Type
                         _______ _______ _______ _____ _____    ______ ____

>  <TORSDO>
F 28

$$$$
=
 OpenBabel10222420503D

 68 77  0  0  1  0  0  0  0  0999 V2000
  184.3790  179.2730  139.3700 C   0  0  1  0  0  3  0  0  0  0  0  0
  185.1900  179.1310  140.6530 C   0  0  0  0  0  2  0  0  0  0  0  0
  184.6120  178.1600  141.4740 O   0  0  0  0  0  0  0  0  0  0  0  0
  185.3740  178.1800  142.6480 C   0  0  1  0  0  3  0  0  0  0  0  0
  186.8390  178.3710  142.2760 C   0  0  0  0  0  1  0  0  0  0  0  0
  184.8990  179.3250  143.5580 C   0  0  1  0  0  3  0  0  0  0  0  0
  182.8590  178.8540  144.4960 C   0  0  0  0  0  1  0  0  0  0  0  0
  183.5080  179.5640  143.4750 O   0  0  0  0  0  0  0  0  0  0  0  0
  185.4040  179.2080  145.0030 C   0  0  0  0  0  2  0  0  0  0  0  0
  186.0150  177.8350  145.2550 C   0  0  0  0  0  2  0  0  0  0  0  0
  186.5700  177.6650  146.6670 C   0  0  2  0  0  3  0  0  0  0  0  0
  185.6960  178.1910  147.6230 O   0  0  0  0  0  0  0  0  0  0  0  0
  184.5120  178.1650  147.0490 O   0  0  0  0  0  1  0  0  0  0  0  0
  187.9480  178.2940  146.8010 C   0  0  0  0  0  2  0  0  0  0  0  0
  190.4330  175.6740  144.4600 C   0  0  0  0  0  2  0  0  0  0  0  0
  191.5150  179.0980  143.3940 C   0  0  0  0  0  2  0  0  0  0  0  0
  191.0700  176.1080  145.7930 C   0  0  1  0  0  0  0  0  0  0  0  0
  190.4840  178.3460  142.5700 C   0  0  0  0  0  2  0  0  0  0  0  0
  189.4020  175.7920  147.4890 O   0  0  0  0  0  1  0  0  0  0  0  0
  191.3110  177.2970  146.7870 C   0  0  2  0  0  0  0  0  0  0  0  0
  191.2770  177.4620  148.2850 C   0  0  0  0  0  2  0  0  0  0  0  0
  191.4090  176.7830  144.4260 C   0  0  2  0  0  3  0  0  0  0  0  0
  192.1900  176.6320  147.6870 O   0  0  0  0  0  0  0  0  0  0  0  0
  189.9190  176.7050  146.5560 C   0  0  1  0  0  0  0  0  0  0  0  0
  190.6360  178.0620  144.0510 C   0  0  0  0  0  0  0  0  0  0  0  0
  189.5780  178.6830  144.9600 C   0  0  0  0  0  2  0  0  0  0  0  0
  188.9010  177.6210  145.8280 C   0  0  2  0  0  3  0  0  0  0  0  0
  185.1870  179.0390  138.2520 O   0  0  0  0  0  0  0  0  0  0  0  0
  185.2000  177.6500  138.1050 C   0  0  0  0  0  2  0  0  0  0  0  0
  186.1260  177.2500  136.9730 C   0  0  0  0  0  2  0  0  0  0  0  0
  187.6570  173.7440  136.6990 C   0  0  0  0  0  0  0  0  0  0  0  0
  187.5480  175.1610  136.6960 C   0  0  0  0  0  0  0  0  0  0  0  0
  186.2850  175.7610  136.9110 C   0  0  0  0  0  0  0  0  0  0  0  0
  186.4950  172.9750  136.8720 C   0  0  0  0  0  3  0  0  0  0  0  0
  185.1490  174.9670  137.0800 C   0  0  0  0  0  3  0  0  0  0  0  0
  185.2510  173.5770  137.0530 C   0  0  0  0  0  0  0  0  0  0  0  0
  184.0400  172.7360  137.2340 C   0  0  0  0  0  1  0  0  0  0  0  0
  188.9450  173.0180  136.5440 C   0  0  0  0  0  0  0  0  0  0  0  0
  189.1200  172.0530  135.5580 O   0  0  0  0  0  0  0  0  0  0  0  0
  189.9110  173.2840  137.3080 O   0  0  0  0  0  1  0  0  0  0  0  0
  188.7400  176.0390  136.4380 C   0  0  0  0  0  2  0  0  0  0  0  0
  189.3440  176.4500  137.6990 N   0  0  0  0  0  2  0  0  0  0  0  0
  190.6900  176.9250  137.4150 C   0  0  0  0  0  2  0  0  0  0  0  0
  191.6810  176.3740  138.4280 C   0  0  0  0  0  2  0  0  0  0  0  0
  193.0710  176.3260  137.8270 C   0  0  0  0  0  2  0  0  0  0  0  0
  193.1810  175.1360  136.8960 C   0  0  0  0  0  3  0  0  0  0  0  0
  193.8720  174.0020  137.6230 C   0  0  0  0  0  2  0  0  0  0  0  0
  194.6450  174.8510  136.6360 C   0  0  0  0  0  2  0  0  0  0  0  0
  183.1900  178.3180  139.3770 C   0  0  0  0  0  2  0  0  0  0  0  0
  182.0040  178.9020  140.1300 C   0  0  0  0  0  2  0  0  0  0  0  0
  180.8990  176.0660  136.9010 N   0  0  1  0  0  0  0  0  0  0  0  0
  180.2410  181.0110  138.7550 N   0  0  0  0  0  0  0  0  0  0  0  0
  178.9310  178.9890  136.6720 N   0  0  0  0  0  0  0  0  0  0  0  0
  180.7160  178.5440  139.4090 C   0  0  2  0  0  3  0  0  0  0  0  0
  180.9920  178.3230  137.9090 C   0  0  2  0  0  3  0  0  0  0  0  0
  179.6930  176.7550  136.7090 N   0  0  0  0  0  2  0  0  0  0  0  0
  179.0180  180.3920  136.8000 N   0  0  0  0  0  2  0  0  0  0  0  0
  179.7560  178.0950  137.1350 C   0  0  0  0  0  0  0  0  0  0  0  0
  179.4340  179.7960  139.7490 S   0  0  0  0  0  0  0  0  0  0  0  0
  181.7500  176.9840  137.7080 C   0  0  1  0  0  3  0  0  0  0  0  0
  180.0290  181.1450  137.4850 C   0  0  0  0  0  0  0  0  0  0  0  0
  181.0770  175.8390  138.3430 C   0  0  0  0  0  2  0  0  0  0  0  0
  180.6680  182.2870  136.7750 C   0  0  0  0  0  2  0  0  0  0  0  0
  181.4110  183.0580  137.6850 O   0  0  0  0  0  0  0  0  0  0  0  0
  180.2140  185.0180  137.6980 F   0  0  0  0  0  0  0  0  0  0  0  0
  182.4560  185.0640  137.7990 F   0  0  0  0  0  0  0  0  0  0  0  0
  181.4550  184.4870  135.8740 F   0  0  0  0  0  0  0  0  0  0  0  0
  181.3740  184.3980  137.2570 C   0  0  0  0  0  0  0  0  0  0  0  0
  1 49  1  1  0  0  0
  1  2  1  0  0  0  0
  2  3  1  0  0  0  0
  3  4  1  0  0  0  0
  4  5  1  6  0  0  0
  4  6  1  0  0  0  0
  6  9  1  1  0  0  0
  8  6  1  0  0  0  0
  8  7  1  0  0  0  0
  9 10  1  0  0  0  0
 11 10  1  6  0  0  0
 11 14  1  0  0  0  0
 11 12  1  0  0  0  0
 13 12  1  0  0  0  0
 16 25  1  0  0  0  0
 17 15  1  1  0  0  0
 17 24  1  0  0  0  0
 17 20  1  0  0  0  0
 18 16  1  0  0  0  0
 18 25  1  0  0  0  0
 20 23  1  0  0  0  0
 20 21  1  6  0  0  0
 22 15  1  6  0  0  0
 22 17  1  0  0  0  0
 23 21  1  0  0  0  0
 24 20  1  0  0  0  0
 24 19  1  1  0  0  0
 25 22  1  0  0  0  0
 25 26  1  0  0  0  0
 26 27  1  0  0  0  0
 27 24  1  0  0  0  0
 27 14  1  1  0  0  0
 28  1  1  0  0  0  0
 29 28  1  0  0  0  0
 30 29  1  0  0  0  0
 31 34  1  0  0  0  0
 32 31  2  0  0  0  0
 32 33  1  0  0  0  0
 33 30  1  0  0  0  0
 33 35  2  0  0  0  0
 34 36  2  0  0  0  0
 36 35  1  0  0  0  0
 36 37  1  0  0  0  0
 38 31  1  0  0  0  0
 38 40  1  0  0  0  0
 39 38  2  0  0  0  0
 41 32  1  0  0  0  0
 41 42  1  0  0  0  0
 43 42  1  0  0  0  0
 43 44  1  0  0  0  0
 45 44  1  0  0  0  0
 46 47  1  0  0  0  0
 46 45  1  0  0  0  0
 48 46  1  0  0  0  0
 48 47  1  0  0  0  0
 49 50  1  0  0  0  0
 51 60  1  0  0  0  0
 51 62  1  1  0  0  0
 52 59  1  0  0  0  0
 53 57  1  0  0  0  0
 53 58  2  0  0  0  0
 54 59  1  0  0  0  0
 54 50  1  1  0  0  0
 55 58  1  6  0  0  0
 55 54  1  0  0  0  0
 56 51  1  0  0  0  0
 56 58  1  0  0  0  0
 57 61  1  0  0  0  0
 60 55  1  0  0  0  0
 60 62  1  1  0  0  0
 61 52  2  0  0  0  0
 63 61  1  0  0  0  0
 63 64  1  0  0  0  0
 67 68  1  0  0  0  0
 68 64  1  0  0  0  0
 68 65  1  0  0  0  0
 68 66  1  0  0  0  0
M  END
>  <MODEL>
5

>  <REMARK>
 VINA RESULT:      -5.6      2.332      8.682
  Name = 
  28 active torsions:
  status: ('A' for Active; 'I' for Inactive)
    1  A    between atoms: C_5  and  C_13
    2  A    between atoms: C_7  and  C_9
    3  A    between atoms: C_7  and  C_12
    4  A    between atoms: C_8  and  C_18
    5  A    between atoms: C_8  and  C_48
    6  A    between atoms: C_8  and  O_62
    7  A    between atoms: C_11  and  C_25
    8  A    between atoms: C_12  and  C_15
    9  A    between atoms: C_14  and  C_64
   10  A    between atoms: C_15  and  C_59
   11  A    between atoms: C_15  and  O_60
   12  A    between atoms: C_18  and  O_26
   13  A    between atoms: C_21  and  C_33
   14  A    between atoms: C_22  and  C_23
   15  A    between atoms: C_22  and  O_30
   16  A    between atoms: C_22  and  C_37
   17  A    between atoms: C_23  and  C_66
   18  A    between atoms: C_25  and  C_36
   19  A    between atoms: O_26  and  C_59
   20  A    between atoms: C_33  and  C_61
   21  A    between atoms: C_36  and  C_50
   22  A    between atoms: C_37  and  C_48
   23  A    between atoms: N_43  and  C_50
   24  A    between atoms: N_43  and  C_64
   25  A    between atoms: C_47  and  O_58
   26  A    between atoms: C_47  and  C_63
   27  A    between atoms: O_58  and  C_68
   28  A    between atoms: O_60  and  C_61
                            x       y       z     vdW  Elec       q    Type
                         _______ _______ _______ _____ _____    ______ ____

>  <TORSDO>
F 28

$$$$
=
 OpenBabel10222420503D

 68 77  0  0  1  0  0  0  0  0999 V2000
  189.5960  177.5540  138.8220 C   0  0  1  0  0  3  0  0  0  0  0  0
  188.1160  177.7640  138.5250 C   0  0  0  0  0  2  0  0  0  0  0  0
  187.6980  176.8680  137.5380 O   0  0  0  0  0  0  0  0  0  0  0  0
  187.0760  177.6620  136.5680 C   0  0  1  0  0  3  0  0  0  0  0  0
  187.9560  177.6910  135.3250 C   0  0  0  0  0  1  0  0  0  0  0  0
  185.6920  177.0820  136.2300 C   0  0  1  0  0  3  0  0  0  0  0  0
  184.1390  177.5040  134.5950 C   0  0  0  0  0  1  0  0  0  0  0  0
  185.4340  177.0250  134.8410 O   0  0  0  0  0  0  0  0  0  0  0  0
  185.3890  175.7620  136.9520 C   0  0  0  0  0  2  0  0  0  0  0  0
  184.1050  175.1360  136.4230 C   0  0  0  0  0  2  0  0  0  0  0  0
  183.3120  174.3800  137.4860 C   0  0  2  0  0  3  0  0  0  0  0  0
  183.2180  173.0200  137.1770 O   0  0  0  0  0  0  0  0  0  0  0  0
  181.9590  172.7090  137.4010 O   0  0  0  0  0  1  0  0  0  0  0  0
  181.9280  174.9800  137.6790 C   0  0  0  0  0  2  0  0  0  0  0  0
  182.8300  179.1150  138.4600 C   0  0  0  0  0  2  0  0  0  0  0  0
  179.8380  179.2760  136.2110 C   0  0  0  0  0  2  0  0  0  0  0  0
  181.8090  178.5060  139.4390 C   0  0  1  0  0  0  0  0  0  0  0  0
  181.2310  179.4080  135.6180 C   0  0  0  0  0  2  0  0  0  0  0  0
  182.7200  176.4080  140.1660 O   0  0  0  0  0  1  0  0  0  0  0  0
  180.5520  177.5800  139.5890 C   0  0  2  0  0  0  0  0  0  0  0  0
  180.1180  176.5170  140.5660 C   0  0  0  0  0  2  0  0  0  0  0  0
  181.3970  179.3780  138.2100 C   0  0  2  0  0  3  0  0  0  0  0  0
  180.2920  177.8160  140.9690 O   0  0  0  0  0  0  0  0  0  0  0  0
  181.9220  177.0260  139.1900 C   0  0  1  0  0  0  0  0  0  0  0  0
  181.0180  178.6430  136.9100 C   0  0  0  0  0  0  0  0  0  0  0  0
  181.0210  177.1210  136.7900 C   0  0  0  0  0  2  0  0  0  0  0  0
  182.0440  176.4940  137.7390 C   0  0  2  0  0  3  0  0  0  0  0  0
  189.9710  178.2660  139.9670 O   0  0  0  0  0  0  0  0  0  0  0  0
  190.2930  177.2860  140.9080 C   0  0  0  0  0  2  0  0  0  0  0  0
  191.2020  177.8610  141.9770 C   0  0  0  0  0  2  0  0  0  0  0  0
  188.8770  177.5690  145.0140 C   0  0  0  0  0  0  0  0  0  0  0  0
  189.3520  177.9160  143.7200 C   0  0  0  0  0  0  0  0  0  0  0  0
  190.6720  177.5660  143.3470 C   0  0  0  0  0  0  0  0  0  0  0  0
  189.7490  176.9210  145.9050 C   0  0  0  0  0  3  0  0  0  0  0  0
  191.5120  176.9230  144.2580 C   0  0  0  0  0  3  0  0  0  0  0  0
  191.0550  176.6080  145.5360 C   0  0  0  0  0  0  0  0  0  0  0  0
  191.9540  175.9230  146.5020 C   0  0  0  0  0  1  0  0  0  0  0  0
  187.4910  177.8360  145.4800 C   0  0  0  0  0  0  0  0  0  0  0  0
  186.5850  176.8030  145.6940 O   0  0  0  0  0  0  0  0  0  0  0  0
  187.1220  179.0190  145.7060 O   0  0  0  0  0  1  0  0  0  0  0  0
  188.4960  178.6790  142.7490 C   0  0  0  0  0  2  0  0  0  0  0  0
  187.2930  177.9190  142.4350 N   0  0  0  0  0  2  0  0  0  0  0  0
  186.6030  178.6010  141.3510 C   0  0  0  0  0  2  0  0  0  0  0  0
  185.0990  178.5850  141.5740 C   0  0  0  0  0  2  0  0  0  0  0  0
  184.7910  178.6340  143.0570 C   0  0  0  0  0  2  0  0  0  0  0  0
  183.3420  178.2550  143.2870 C   0  0  0  0  0  3  0  0  0  0  0  0
  182.5240  179.5150  143.4680 C   0  0  0  0  0  2  0  0  0  0  0  0
  182.9340  178.6990  144.6760 C   0  0  0  0  0  2  0  0  0  0  0  0
  189.9050  176.0700  138.9930 C   0  0  0  0  0  2  0  0  0  0  0  0
  191.3740  175.7690  138.7350 C   0  0  0  0  0  2  0  0  0  0  0  0
  189.9270  173.0500  135.5400 N   0  0  1  0  0  0  0  0  0  0  0  0
  194.1910  175.5370  137.5280 N   0  0  0  0  0  0  0  0  0  0  0  0
  193.2580  174.0220  134.8870 N   0  0  0  0  0  0  0  0  0  0  0  0
  191.6130  175.6440  137.2410 C   0  0  2  0  0  3  0  0  0  0  0  0
  191.7140  174.1590  136.8420 C   0  0  2  0  0  3  0  0  0  0  0  0
  190.9680  173.4780  134.7050 N   0  0  0  0  0  2  0  0  0  0  0  0
  194.4890  174.2530  135.5380 N   0  0  0  0  0  2  0  0  0  0  0  0
  192.0720  173.9790  135.4200 C   0  0  0  0  0  0  0  0  0  0  0  0
  193.0570  176.6430  136.7480 S   0  0  0  0  0  0  0  0  0  0  0  0
  190.3100  173.5020  136.9080 C   0  0  1  0  0  3  0  0  0  0  0  0
  194.7050  174.5090  136.9330 C   0  0  0  0  0  0  0  0  0  0  0  0
  189.2940  174.2370  136.1350 C   0  0  0  0  0  2  0  0  0  0  0  0
  195.7470  173.7230  137.6470 C   0  0  0  0  0  2  0  0  0  0  0  0
  195.2750  172.4230  137.8990 O   0  0  0  0  0  0  0  0  0  0  0  0
  196.8440  170.7530  138.0520 F   0  0  0  0  0  0  0  0  0  0  0  0
  195.2570  170.6710  136.4650 F   0  0  0  0  0  0  0  0  0  0  0  0
  196.9100  172.1800  136.2890 F   0  0  0  0  0  0  0  0  0  0  0  0
  196.0790  171.5180  137.1830 C   0  0  0  0  0  0  0  0  0  0  0  0
  1  2  1  1  0  0  0
  1 49  1  0  0  0  0
  1 28  1  0  0  0  0
  3  2  1  0  0  0  0
  4  5  1  6  0  0  0
  4  3  1  0  0  0  0
  6  4  1  0  0  0  0
  6  9  1  6  0  0  0
  7  8  1  0  0  0  0
  8  6  1  0  0  0  0
 10  9  1  0  0  0  0
 11 10  1  6  0  0  0
 11 14  1  0  0  0  0
 12 13  1  0  0  0  0
 12 11  1  0  0  0  0
 16 25  1  0  0  0  0
 17 15  1  1  0  0  0
 17 20  1  0  0  0  0
 18 16  1  0  0  0  0
 18 25  1  0  0  0  0
 20 21  1  6  0  0  0
 20 23  1  0  0  0  0
 21 23  1  0  0  0  0
 22 15  1  6  0  0  0
 22 17  1  0  0  0  0
 24 17  1  0  0  0  0
 24 20  1  0  0  0  0
 24 19  1  1  0  0  0
 25 22  1  0  0  0  0
 26 25  1  0  0  0  0
 26 27  1  0  0  0  0
 27 14  1  1  0  0  0
 27 24  1  0  0  0  0
 28 29  1  0  0  0  0
 29 30  1  0  0  0  0
 30 33  1  0  0  0  0
 31 38  1  0  0  0  0
 31 34  1  0  0  0  0
 32 31  2  0  0  0  0
 33 32  1  0  0  0  0
 33 35  2  0  0  0  0
 35 36  1  0  0  0  0
 36 34  2  0  0  0  0
 36 37  1  0  0  0  0
 38 39  2  0  0  0  0
 38 40  1  0  0  0  0
 41 32  1  0  0  0  0
 42 41  1  0  0  0  0
 43 44  1  0  0  0  0
 43 42  1  0  0  0  0
 44 45  1  0  0  0  0
 45 46  1  0  0  0  0
 46 47  1  0  0  0  0
 46 48  1  0  0  0  0
 47 48  1  0  0  0  0
 50 49  1  0  0  0  0
 51 62  1  6  0  0  0
 51 60  1  0  0  0  0
 53 58  2  0  0  0  0
 53 57  1  0  0  0  0
 54 50  1  1  0  0  0
 55 58  1  6  0  0  0
 55 60  1  0  0  0  0
 55 54  1  0  0  0  0
 56 58  1  0  0  0  0
 56 51  1  0  0  0  0
 57 61  1  0  0  0  0
 59 54  1  0  0  0  0
 59 52  1  0  0  0  0
 60 62  1  6  0  0  0
 61 52  2  0  0  0  0
 61 63  1  0  0  0  0
 63 64  1  0  0  0  0
 66 68  1  0  0  0  0
 67 68  1  0  0  0  0
 68 64  1  0  0  0  0
 68 65  1  0  0  0  0
M  END
>  <MODEL>
6

>  <REMARK>
 VINA RESULT:      -5.2      5.688     10.541
  Name = 
  28 active torsions:
  status: ('A' for Active; 'I' for Inactive)
    1  A    between atoms: C_5  and  C_13
    2  A    between atoms: C_7  and  C_9
    3  A    between atoms: C_7  and  C_12
    4  A    between atoms: C_8  and  C_18
    5  A    between atoms: C_8  and  C_48
    6  A    between atoms: C_8  and  O_62
    7  A    between atoms: C_11  and  C_25
    8  A    between atoms: C_12  and  C_15
    9  A    between atoms: C_14  and  C_64
   10  A    between atoms: C_15  and  C_59
   11  A    between atoms: C_15  and  O_60
   12  A    between atoms: C_18  and  O_26
   13  A    between atoms: C_21  and  C_33
   14  A    between atoms: C_22  and  C_23
   15  A    between atoms: C_22  and  O_30
   16  A    between atoms: C_22  and  C_37
   17  A    between atoms: C_23  and  C_66
   18  A    between atoms: C_25  and  C_36
   19  A    between atoms: O_26  and  C_59
   20  A    between atoms: C_33  and  C_61
   21  A    between atoms: C_36  and  C_50
   22  A    between atoms: C_37  and  C_48
   23  A    between atoms: N_43  and  C_50
   24  A    between atoms: N_43  and  C_64
   25  A    between atoms: C_47  and  O_58
   26  A    between atoms: C_47  and  C_63
   27  A    between atoms: O_58  and  C_68
   28  A    between atoms: O_60  and  C_61
                            x       y       z     vdW  Elec       q    Type
                         _______ _______ _______ _____ _____    ______ ____

>  <TORSDO>
F 28

$$$$
=
 OpenBabel10222420503D

 68 77  0  0  1  0  0  0  0  0999 V2000
  184.8160  178.1080  139.7140 C   0  0  1  0  0  3  0  0  0  0  0  0
  185.0710  177.7390  138.2580 C   0  0  0  0  0  2  0  0  0  0  0  0
  186.2340  178.3670  137.8060 O   0  0  0  0  0  0  0  0  0  0  0  0
  186.6780  177.5790  136.7370 C   0  0  1  0  0  3  0  0  0  0  0  0
  185.8160  177.8810  135.5180 C   0  0  0  0  0  1  0  0  0  0  0  0
  188.1540  177.8910  136.4390 C   0  0  1  0  0  3  0  0  0  0  0  0
  189.1040  178.8630  138.2870 C   0  0  0  0  0  1  0  0  0  0  0  0
  188.5940  179.1100  137.0040 O   0  0  0  0  0  0  0  0  0  0  0  0
  189.0990  176.7170  136.7330 C   0  0  0  0  0  2  0  0  0  0  0  0
  189.7790  176.2340  135.4580 C   0  0  0  0  0  2  0  0  0  0  0  0
  190.7990  175.1230  135.6950 C   0  0  2  0  0  3  0  0  0  0  0  0
  190.3260  174.1890  136.6200 O   0  0  0  0  0  0  0  0  0  0  0  0
  189.2940  173.6230  136.0320 O   0  0  0  0  0  1  0  0  0  0  0  0
  192.1390  175.6860  136.1410 C   0  0  0  0  0  2  0  0  0  0  0  0
  194.8010  172.9140  138.0790 C   0  0  0  0  0  2  0  0  0  0  0  0
  194.5110  171.5670  134.5950 C   0  0  0  0  0  2  0  0  0  0  0  0
  195.5220  174.0670  137.3570 C   0  0  1  0  0  0  0  0  0  0  0  0
  193.6270  171.0030  135.6950 C   0  0  0  0  0  2  0  0  0  0  0  0
  194.4140  176.0920  138.0150 O   0  0  0  0  0  1  0  0  0  0  0  0
  195.5700  174.9600  136.0680 C   0  0  2  0  0  0  0  0  0  0  0  0
  195.7870  176.4260  135.7900 C   0  0  0  0  0  2  0  0  0  0  0  0
  195.3500  172.6450  136.7340 C   0  0  2  0  0  3  0  0  0  0  0  0
  196.7760  175.6600  136.3540 O   0  0  0  0  0  0  0  0  0  0  0  0
  194.4190  175.0500  137.0730 C   0  0  1  0  0  0  0  0  0  0  0  0
  194.1540  172.4220  135.7880 C   0  0  0  0  0  0  0  0  0  0  0  0
  193.1590  173.5260  135.4400 C   0  0  0  0  0  2  0  0  0  0  0  0
  193.0410  174.5430  136.5770 C   0  0  2  0  0  3  0  0  0  0  0  0
  185.9900  178.5800  140.3110 O   0  0  0  0  0  0  0  0  0  0  0  0
  186.1770  177.7640  141.4290 C   0  0  0  0  0  2  0  0  0  0  0  0
  187.1920  178.3830  142.3700 C   0  0  0  0  0  2  0  0  0  0  0  0
  187.2000  177.8600  146.1690 C   0  0  0  0  0  0  0  0  0  0  0  0
  187.6570  177.9160  144.8250 C   0  0  0  0  0  0  0  0  0  0  0  0
  186.7490  178.2570  143.7950 C   0  0  0  0  0  0  0  0  0  0  0  0
  185.8430  178.1040  146.4350 C   0  0  0  0  0  3  0  0  0  0  0  0
  185.4050  178.4940  144.0940 C   0  0  0  0  0  3  0  0  0  0  0  0
  184.9510  178.4110  145.4090 C   0  0  0  0  0  0  0  0  0  0  0  0
  183.5200  178.6640  145.7210 C   0  0  0  0  0  1  0  0  0  0  0  0
  188.0850  177.5720  147.3280 C   0  0  0  0  0  0  0  0  0  0  0  0
  188.4430  178.5650  148.2340 O   0  0  0  0  0  1  0  0  0  0  0  0
  188.5160  176.4020  147.5140 O   0  0  0  0  0  0  0  0  0  0  0  0
  189.0790  177.5870  144.4650 C   0  0  0  0  0  2  0  0  0  0  0  0
  189.6720  178.6840  143.7110 N   0  0  0  0  0  2  0  0  0  0  0  0
  191.0740  178.7810  144.0910 C   0  0  0  0  0  2  0  0  0  0  0  0
  191.9690  178.2170  142.9990 C   0  0  0  0  0  2  0  0  0  0  0  0
  191.3680  176.9430  142.4380 C   0  0  0  0  0  2  0  0  0  0  0  0
  192.0550  176.5910  141.1340 C   0  0  0  0  0  3  0  0  0  0  0  0
  192.1530  177.8340  140.2760 C   0  0  0  0  0  2  0  0  0  0  0  0
  191.0800  176.8030  139.9940 C   0  0  0  0  0  2  0  0  0  0  0  0
  183.7090  179.1520  139.8200 C   0  0  0  0  0  2  0  0  0  0  0  0
  183.5400  179.9260  138.5210 C   0  0  0  0  0  2  0  0  0  0  0  0
  180.1310  182.7390  138.1210 N   0  0  1  0  0  0  0  0  0  0  0  0
  181.5790  177.8570  139.6690 N   0  0  0  0  0  0  0  0  0  0  0  0
  178.9530  179.5210  138.9760 N   0  0  0  0  0  0  0  0  0  0  0  0
  182.1030  179.8120  138.0430 C   0  0  2  0  0  3  0  0  0  0  0  0
  181.1770  180.6520  138.9420 C   0  0  2  0  0  3  0  0  0  0  0  0
  179.2500  181.6540  138.0080 N   0  0  0  0  0  2  0  0  0  0  0  0
  179.2610  178.4140  139.7960 N   0  0  0  0  0  2  0  0  0  0  0  0
  179.7500  180.4800  138.6020 C   0  0  0  0  0  0  0  0  0  0  0  0
  181.6190  178.0580  137.9160 S   0  0  0  0  0  0  0  0  0  0  0  0
  181.3970  182.1610  138.6550 C   0  0  1  0  0  3  0  0  0  0  0  0
  180.5270  178.0900  140.3870 C   0  0  0  0  0  0  0  0  0  0  0  0
  181.2740  182.5010  137.2270 C   0  0  0  0  0  2  0  0  0  0  0  0
  180.5720  177.7630  141.8380 C   0  0  0  0  0  2  0  0  0  0  0  0
  179.5850  178.4940  142.5220 O   0  0  0  0  0  0  0  0  0  0  0  0
  179.7300  177.6250  144.6430 F   0  0  0  0  0  0  0  0  0  0  0  0
  181.4070  178.8670  143.8150 F   0  0  0  0  0  0  0  0  0  0  0  0
  179.4750  179.8640  144.3760 F   0  0  0  0  0  0  0  0  0  0  0  0
  180.0350  178.7130  143.8370 C   0  0  0  0  0  0  0  0  0  0  0  0
  1  2  1  6  0  0  0
  1 49  1  0  0  0  0
  1 28  1  0  0  0  0
  3  2  1  0  0  0  0
  4  5  1  6  0  0  0
  4  3  1  0  0  0  0
  6  9  1  1  0  0  0
  6  4  1  0  0  0  0
  6  8  1  0  0  0  0
  8  7  1  0  0  0  0
 10  9  1  0  0  0  0
 11 10  1  1  0  0  0
 11 14  1  0  0  0  0
 11 12  1  0  0  0  0
 13 12  1  0  0  0  0
 16 18  1  0  0  0  0
 16 25  1  0  0  0  0
 17 15  1  1  0  0  0
 18 25  1  0  0  0  0
 20 21  1  6  0  0  0
 20 23  1  0  0  0  0
 20 24  1  0  0  0  0
 20 17  1  0  0  0  0
 21 23  1  0  0  0  0
 22 17  1  0  0  0  0
 22 15  1  1  0  0  0
 24 17  1  0  0  0  0
 24 19  1  1  0  0  0
 25 22  1  0  0  0  0
 26 25  1  0  0  0  0
 26 27  1  0  0  0  0
 27 14  1  6  0  0  0
 27 24  1  0  0  0  0
 28 29  1  0  0  0  0
 29 30  1  0  0  0  0
 30 33  1  0  0  0  0
 31 34  1  0  0  0  0
 31 38  1  0  0  0  0
 32 31  2  0  0  0  0
 33 35  2  0  0  0  0
 33 32  1  0  0  0  0
 35 36  1  0  0  0  0
 36 37  1  0  0  0  0
 36 34  2  0  0  0  0
 38 40  2  0  0  0  0
 38 39  1  0  0  0  0
 41 32  1  0  0  0  0
 42 43  1  0  0  0  0
 42 41  1  0  0  0  0
 44 43  1  0  0  0  0
 45 44  1  0  0  0  0
 46 45  1  0  0  0  0
 47 46  1  0  0  0  0
 48 47  1  0  0  0  0
 48 46  1  0  0  0  0
 50 49  1  0  0  0  0
 51 62  1  6  0  0  0
 51 60  1  0  0  0  0
 52 61  2  0  0  0  0
 53 57  1  0  0  0  0
 54 50  1  1  0  0  0
 54 55  1  0  0  0  0
 55 58  1  6  0  0  0
 56 51  1  0  0  0  0
 56 58  1  0  0  0  0
 57 61  1  0  0  0  0
 58 53  2  0  0  0  0
 59 54  1  0  0  0  0
 59 52  1  0  0  0  0
 60 62  1  6  0  0  0
 60 55  1  0  0  0  0
 61 63  1  0  0  0  0
 63 64  1  0  0  0  0
 64 68  1  0  0  0  0
 66 68  1  0  0  0  0
 68 67  1  0  0  0  0
 68 65  1  0  0  0  0
M  END
>  <MODEL>
7

>  <REMARK>
 VINA RESULT:      -4.6      2.640      4.830
  Name = 
  28 active torsions:
  status: ('A' for Active; 'I' for Inactive)
    1  A    between atoms: C_5  and  C_13
    2  A    between atoms: C_7  and  C_9
    3  A    between atoms: C_7  and  C_12
    4  A    between atoms: C_8  and  C_18
    5  A    between atoms: C_8  and  C_48
    6  A    between atoms: C_8  and  O_62
    7  A    between atoms: C_11  and  C_25
    8  A    between atoms: C_12  and  C_15
    9  A    between atoms: C_14  and  C_64
   10  A    between atoms: C_15  and  C_59
   11  A    between atoms: C_15  and  O_60
   12  A    between atoms: C_18  and  O_26
   13  A    between atoms: C_21  and  C_33
   14  A    between atoms: C_22  and  C_23
   15  A    between atoms: C_22  and  O_30
   16  A    between atoms: C_22  and  C_37
   17  A    between atoms: C_23  and  C_66
   18  A    between atoms: C_25  and  C_36
   19  A    between atoms: O_26  and  C_59
   20  A    between atoms: C_33  and  C_61
   21  A    between atoms: C_36  and  C_50
   22  A    between atoms: C_37  and  C_48
   23  A    between atoms: N_43  and  C_50
   24  A    between atoms: N_43  and  C_64
   25  A    between atoms: C_47  and  O_58
   26  A    between atoms: C_47  and  C_63
   27  A    between atoms: O_58  and  C_68
   28  A    between atoms: O_60  and  C_61
                            x       y       z     vdW  Elec       q    Type
                         _______ _______ _______ _____ _____    ______ ____

>  <TORSDO>
F 28

$$$$
=
 OpenBabel10222420503D

 68 77  0  0  1  0  0  0  0  0999 V2000
  189.9580  177.6150  139.0600 C   0  0  1  0  0  3  0  0  0  0  0  0
  188.5010  177.9810  138.8030 C   0  0  0  0  0  2  0  0  0  0  0  0
  187.9660  177.1360  137.8280 O   0  0  0  0  0  0  0  0  0  0  0  0
  187.6580  177.9760  136.7510 C   0  0  1  0  0  3  0  0  0  0  0  0
  188.6670  177.7290  135.6360 C   0  0  0  0  0  1  0  0  0  0  0  0
  186.2320  177.6850  136.2540 C   0  0  1  0  0  3  0  0  0  0  0  0
  186.4680  175.9260  134.8000 C   0  0  0  0  0  1  0  0  0  0  0  0
  186.1810  177.2960  134.8960 O   0  0  0  0  0  0  0  0  0  0  0  0
  185.4420  176.7460  137.1780 C   0  0  0  0  0  2  0  0  0  0  0  0
  184.2180  176.1860  136.4640 C   0  0  0  0  0  2  0  0  0  0  0  0
  183.3110  175.3570  137.3700 C   0  0  2  0  0  3  0  0  0  0  0  0
  183.8480  174.0860  137.5990 O   0  0  0  0  0  0  0  0  0  0  0  0
  185.0110  174.0950  136.9840 O   0  0  0  0  0  1  0  0  0  0  0  0
  181.9060  175.2470  136.7980 C   0  0  0  0  0  2  0  0  0  0  0  0
  178.9540  178.2450  137.7010 C   0  0  0  0  0  2  0  0  0  0  0  0
  181.9540  179.3460  139.6570 C   0  0  0  0  0  2  0  0  0  0  0  0
  179.8550  178.6010  136.5050 C   0  0  1  0  0  0  0  0  0  0  0  0
  180.8730  178.5230  140.3390 C   0  0  0  0  0  2  0  0  0  0  0  0
  179.9210  176.6620  135.0920 O   0  0  0  0  0  1  0  0  0  0  0  0
  181.3170  178.5950  135.9380 C   0  0  2  0  0  0  0  0  0  0  0  0
  181.9470  178.2750  134.6060 C   0  0  0  0  0  2  0  0  0  0  0  0
  180.0900  179.1570  137.9450 C   0  0  2  0  0  3  0  0  0  0  0  0
  181.0700  179.3220  134.7380 O   0  0  0  0  0  0  0  0  0  0  0  0
  180.5390  177.3000  136.1800 C   0  0  1  0  0  0  0  0  0  0  0  0
  181.0940  178.4080  138.8430 C   0  0  0  0  0  0  0  0  0  0  0  0
  181.8570  177.1720  138.3760 C   0  0  0  0  0  2  0  0  0  0  0  0
  181.0620  176.3950  137.3250 C   0  0  2  0  0  3  0  0  0  0  0  0
  190.4280  178.2590  140.2100 O   0  0  0  0  0  0  0  0  0  0  0  0
  190.4180  177.2730  141.2000 C   0  0  0  0  0  2  0  0  0  0  0  0
  191.4170  177.6110  142.2900 C   0  0  0  0  0  2  0  0  0  0  0  0
  189.0170  177.3300  145.2680 C   0  0  0  0  0  0  0  0  0  0  0  0
  189.5260  177.6760  143.9870 C   0  0  0  0  0  0  0  0  0  0  0  0
  190.8520  177.3180  143.6460 C   0  0  0  0  0  0  0  0  0  0  0  0
  189.8620  176.6760  146.1790 C   0  0  0  0  0  3  0  0  0  0  0  0
  191.6650  176.6680  144.5760 C   0  0  0  0  0  3  0  0  0  0  0  0
  191.1760  176.3550  145.8420 C   0  0  0  0  0  0  0  0  0  0  0  0
  192.0460  175.6630  146.8290 C   0  0  0  0  0  1  0  0  0  0  0  0
  187.6220  177.6050  145.7010 C   0  0  0  0  0  0  0  0  0  0  0  0
  186.5930  176.7020  145.4550 O   0  0  0  0  0  0  0  0  0  0  0  0
  187.3550  178.6700  146.3190 O   0  0  0  0  0  1  0  0  0  0  0  0
  188.6980  178.4450  142.9960 C   0  0  0  0  0  2  0  0  0  0  0  0
  187.4920  177.6990  142.6630 N   0  0  0  0  0  2  0  0  0  0  0  0
  186.8420  178.3750  141.5490 C   0  0  0  0  0  2  0  0  0  0  0  0
  185.4250  178.7840  141.9200 C   0  0  0  0  0  2  0  0  0  0  0  0
  185.2250  178.6710  143.4190 C   0  0  0  0  0  2  0  0  0  0  0  0
  184.0600  179.5430  143.8410 C   0  0  0  0  0  3  0  0  0  0  0  0
  183.4340  178.9610  145.0900 C   0  0  0  0  0  2  0  0  0  0  0  0
  182.7830  178.7350  143.7420 C   0  0  0  0  0  2  0  0  0  0  0  0
  190.1190  176.1040  139.1920 C   0  0  0  0  0  2  0  0  0  0  0  0
  191.5190  175.6520  138.8030 C   0  0  0  0  0  2  0  0  0  0  0  0
  189.9390  173.0240  135.5950 N   0  0  1  0  0  0  0  0  0  0  0  0
  194.2340  175.6220  137.3630 N   0  0  0  0  0  0  0  0  0  0  0  0
  193.1570  174.1930  134.7280 N   0  0  0  0  0  0  0  0  0  0  0  0
  191.6390  175.6130  137.2890 C   0  0  2  0  0  3  0  0  0  0  0  0
  191.7750  174.1560  136.8060 C   0  0  2  0  0  3  0  0  0  0  0  0
  190.8870  173.5450  134.7020 N   0  0  0  0  0  2  0  0  0  0  0  0
  194.4250  174.4540  135.2900 N   0  0  0  0  0  2  0  0  0  0  0  0
  192.0220  174.0640  135.3520 C   0  0  0  0  0  0  0  0  0  0  0  0
  192.9900  176.7060  136.7360 S   0  0  0  0  0  0  0  0  0  0  0  0
  190.4130  173.4280  136.9490 C   0  0  1  0  0  3  0  0  0  0  0  0
  194.7440  174.6510  136.6750 C   0  0  0  0  0  0  0  0  0  0  0  0
  189.3030  174.1470  136.3000 C   0  0  0  0  0  2  0  0  0  0  0  0
  195.8770  173.8840  137.2600 C   0  0  0  0  0  2  0  0  0  0  0  0
  196.9200  174.7610  137.6010 O   0  0  0  0  0  0  0  0  0  0  0  0
  197.6230  173.6370  135.7250 F   0  0  0  0  0  0  0  0  0  0  0  0
  197.9400  175.8530  135.8990 F   0  0  0  0  0  0  0  0  0  0  0  0
  199.1680  174.4650  137.1660 F   0  0  0  0  0  0  0  0  0  0  0  0
  197.9130  174.6680  136.6070 C   0  0  0  0  0  0  0  0  0  0  0  0
  1  2  1  1  0  0  0
  1 49  1  0  0  0  0
  1 28  1  0  0  0  0
  3  2  1  0  0  0  0
  4  5  1  6  0  0  0
  4  3  1  0  0  0  0
  6  4  1  0  0  0  0
  6  9  1  1  0  0  0
  7  8  1  0  0  0  0
  8  6  1  0  0  0  0
 10  9  1  0  0  0  0
 11 10  1  6  0  0  0
 11 12  1  0  0  0  0
 13 12  1  0  0  0  0
 14 11  1  0  0  0  0
 16 18  1  0  0  0  0
 17 15  1  6  0  0  0
 17 22  1  0  0  0  0
 20 21  1  1  0  0  0
 20 24  1  0  0  0  0
 20 17  1  0  0  0  0
 21 23  1  0  0  0  0
 22 15  1  1  0  0  0
 22 25  1  0  0  0  0
 23 20  1  0  0  0  0
 24 19  1  6  0  0  0
 24 17  1  0  0  0  0
 24 27  1  0  0  0  0
 25 16  1  0  0  0  0
 25 18  1  0  0  0  0
 26 25  1  0  0  0  0
 27 14  1  6  0  0  0
 27 26  1  0  0  0  0
 28 29  1  0  0  0  0
 29 30  1  0  0  0  0
 30 33  1  0  0  0  0
 31 38  1  0  0  0  0
 31 34  1  0  0  0  0
 32 31  2  0  0  0  0
 33 32  1  0  0  0  0
 33 35  2  0  0  0  0
 35 36  1  0  0  0  0
 36 34  2  0  0  0  0
 36 37  1  0  0  0  0
 38 40  1  0  0  0  0
 39 38  2  0  0  0  0
 41 32  1  0  0  0  0
 42 41  1  0  0  0  0
 43 44  1  0  0  0  0
 43 42  1  0  0  0  0
 44 45  1  0  0  0  0
 45 46  1  0  0  0  0
 46 47  1  0  0  0  0
 48 46  1  0  0  0  0
 48 47  1  0  0  0  0
 50 49  1  0  0  0  0
 51 62  1  6  0  0  0
 51 60  1  0  0  0  0
 53 57  1  0  0  0  0
 53 58  2  0  0  0  0
 54 50  1  1  0  0  0
 55 58  1  6  0  0  0
 55 60  1  0  0  0  0
 55 54  1  0  0  0  0
 56 58  1  0  0  0  0
 56 51  1  0  0  0  0
 57 61  1  0  0  0  0
 59 54  1  0  0  0  0
 59 52  1  0  0  0  0
 60 62  1  6  0  0  0
 61 63  1  0  0  0  0
 61 52  2  0  0  0  0
 63 64  1  0  0  0  0
 65 68  1  0  0  0  0
 66 68  1  0  0  0  0
 68 67  1  0  0  0  0
 68 64  1  0  0  0  0
M  END
>  <MODEL>
8

>  <REMARK>
 VINA RESULT:      -4.6      5.534     10.608
  Name = 
  28 active torsions:
  status: ('A' for Active; 'I' for Inactive)
    1  A    between atoms: C_5  and  C_13
    2  A    between atoms: C_7  and  C_9
    3  A    between atoms: C_7  and  C_12
    4  A    between atoms: C_8  and  C_18
    5  A    between atoms: C_8  and  C_48
    6  A    between atoms: C_8  and  O_62
    7  A    between atoms: C_11  and  C_25
    8  A    between atoms: C_12  and  C_15
    9  A    between atoms: C_14  and  C_64
   10  A    between atoms: C_15  and  C_59
   11  A    between atoms: C_15  and  O_60
   12  A    between atoms: C_18  and  O_26
   13  A    between atoms: C_21  and  C_33
   14  A    between atoms: C_22  and  C_23
   15  A    between atoms: C_22  and  O_30
   16  A    between atoms: C_22  and  C_37
   17  A    between atoms: C_23  and  C_66
   18  A    between atoms: C_25  and  C_36
   19  A    between atoms: O_26  and  C_59
   20  A    between atoms: C_33  and  C_61
   21  A    between atoms: C_36  and  C_50
   22  A    between atoms: C_37  and  C_48
   23  A    between atoms: N_43  and  C_50
   24  A    between atoms: N_43  and  C_64
   25  A    between atoms: C_47  and  O_58
   26  A    between atoms: C_47  and  C_63
   27  A    between atoms: O_58  and  C_68
   28  A    between atoms: O_60  and  C_61
                            x       y       z     vdW  Elec       q    Type
                         _______ _______ _______ _____ _____    ______ ____

>  <TORSDO>
F 28

$$$$
=
 OpenBabel10222420503D

 68 77  0  0  1  0  0  0  0  0999 V2000
  185.4580  177.9680  139.8620 C   0  0  1  0  0  3  0  0  0  0  0  0
  185.6570  177.1160  138.6140 C   0  0  0  0  0  2  0  0  0  0  0  0
  186.9930  177.1730  138.2090 O   0  0  0  0  0  0  0  0  0  0  0  0
  187.0180  176.5530  136.9540 C   0  0  1  0  0  3  0  0  0  0  0  0
  187.0020  177.6310  135.8780 C   0  0  0  0  0  1  0  0  0  0  0  0
  188.2820  175.6870  136.8260 C   0  0  1  0  0  3  0  0  0  0  0  0
  188.2840  173.6750  135.7230 C   0  0  0  0  0  1  0  0  0  0  0  0
  188.4060  175.0640  135.5630 O   0  0  0  0  0  0  0  0  0  0  0  0
  189.5640  176.4060  137.2690 C   0  0  0  0  0  2  0  0  0  0  0  0
  190.6980  175.4120  137.4810 C   0  0  0  0  0  2  0  0  0  0  0  0
  192.0380  176.0740  137.7950 C   0  0  2  0  0  3  0  0  0  0  0  0
  191.8680  177.2110  138.5900 O   0  0  0  0  0  0  0  0  0  0  0  0
  192.2160  176.8310  139.8010 O   0  0  0  0  0  1  0  0  0  0  0  0
  192.7970  176.4200  136.5240 C   0  0  0  0  0  2  0  0  0  0  0  0
  195.9030  173.6720  135.3750 C   0  0  0  0  0  2  0  0  0  0  0  0
  196.4560  174.1390  139.0510 C   0  0  0  0  0  2  0  0  0  0  0  0
  194.6140  172.9850  135.8610 C   0  0  1  0  0  0  0  0  0  0  0  0
  197.2550  174.9690  138.0600 C   0  0  0  0  0  2  0  0  0  0  0  0
  192.7920  174.0530  134.7220 O   0  0  0  0  0  1  0  0  0  0  0  0
  193.4600  173.0000  136.9230 C   0  0  2  0  0  0  0  0  0  0  0  0
  191.9670  172.7940  136.8840 C   0  0  0  0  0  2  0  0  0  0  0  0
  195.8660  173.1920  136.7720 C   0  0  2  0  0  3  0  0  0  0  0  0
  192.8290  171.7790  136.5510 O   0  0  0  0  0  0  0  0  0  0  0  0
  193.6020  174.0990  135.8680 C   0  0  1  0  0  0  0  0  0  0  0  0
  195.8870  174.4340  137.6830 C   0  0  0  0  0  0  0  0  0  0  0  0
  194.7420  175.4420  137.7310 C   0  0  0  0  0  2  0  0  0  0  0  0
  194.0000  175.5010  136.3940 C   0  0  2  0  0  3  0  0  0  0  0  0
  186.5830  178.7680  140.0920 O   0  0  0  0  0  0  0  0  0  0  0  0
  186.6780  178.8590  141.4820 C   0  0  0  0  0  2  0  0  0  0  0  0
  186.7460  177.4740  142.0970 C   0  0  0  0  0  2  0  0  0  0  0  0
  188.5950  177.4940  145.4560 C   0  0  0  0  0  0  0  0  0  0  0  0
  187.5500  177.6280  144.5030 C   0  0  0  0  0  0  0  0  0  0  0  0
  187.8240  177.3990  143.1340 C   0  0  0  0  0  0  0  0  0  0  0  0
  189.8880  177.1790  145.0060 C   0  0  0  0  0  3  0  0  0  0  0  0
  189.1210  177.0880  142.7200 C   0  0  0  0  0  3  0  0  0  0  0  0
  190.1520  176.9850  143.6510 C   0  0  0  0  0  0  0  0  0  0  0  0
  191.5300  176.6530  143.2050 C   0  0  0  0  0  1  0  0  0  0  0  0
  188.3980  177.6520  146.9210 C   0  0  0  0  0  0  0  0  0  0  0  0
  187.8350  178.8040  147.4580 O   0  0  0  0  0  0  0  0  0  0  0  0
  188.7310  176.7210  147.7040 O   0  0  0  0  0  1  0  0  0  0  0  0
  186.1630  178.0390  144.9120 C   0  0  0  0  0  2  0  0  0  0  0  0
  186.0380  179.4910  144.8730 N   0  0  0  0  0  2  0  0  0  0  0  0
  184.6230  179.8200  144.9650 C   0  0  0  0  0  2  0  0  0  0  0  0
  183.7850  178.8120  144.1950 C   0  0  0  0  0  2  0  0  0  0  0  0
  182.3100  179.1090  144.3810 C   0  0  0  0  0  2  0  0  0  0  0  0
  181.6700  179.3650  143.0310 C   0  0  0  0  0  3  0  0  0  0  0  0
  180.3430  180.0620  143.2380 C   0  0  0  0  0  2  0  0  0  0  0  0
  180.3800  178.5760  142.9450 C   0  0  0  0  0  2  0  0  0  0  0  0
  184.2080  178.8330  139.7300 C   0  0  0  0  0  2  0  0  0  0  0  0
  183.7080  178.8820  138.2940 C   0  0  0  0  0  2  0  0  0  0  0  0
  181.0420  176.4040  135.7550 N   0  0  1  0  0  0  0  0  0  0  0  0
  181.5940  181.1110  138.1770 N   0  0  0  0  0  0  0  0  0  0  0  0
  179.3460  179.3160  136.8120 N   0  0  0  0  0  0  0  0  0  0  0  0
  182.2170  178.5920  138.2640 C   0  0  2  0  0  3  0  0  0  0  0  0
  181.7170  178.5390  136.8080 C   0  0  2  0  0  3  0  0  0  0  0  0
  179.9280  177.0980  136.2490 N   0  0  0  0  0  2  0  0  0  0  0  0
  179.5470  180.6970  137.0210 N   0  0  0  0  0  2  0  0  0  0  0  0
  180.2510  178.3840  136.7200 C   0  0  0  0  0  0  0  0  0  0  0  0
  181.3220  179.7870  139.3110 S   0  0  0  0  0  0  0  0  0  0  0  0
  182.2200  177.2370  136.1290 C   0  0  1  0  0  3  0  0  0  0  0  0
  180.7960  181.3810  137.1940 C   0  0  0  0  0  0  0  0  0  0  0  0
  181.8900  176.0230  136.8940 C   0  0  0  0  0  2  0  0  0  0  0  0
  181.0590  182.5990  136.3800 C   0  0  0  0  0  2  0  0  0  0  0  0
  179.8850  183.3640  136.2750 O   0  0  0  0  0  0  0  0  0  0  0  0
  179.3150  185.5880  136.2160 F   0  0  0  0  0  0  0  0  0  0  0  0
  179.8960  184.6230  138.1580 F   0  0  0  0  0  0  0  0  0  0  0  0
  181.4730  185.0050  136.6060 F   0  0  0  0  0  0  0  0  0  0  0  0
  180.1460  184.6430  136.8000 C   0  0  0  0  0  0  0  0  0  0  0  0
  1  2  1  6  0  0  0
  1 28  1  0  0  0  0
  3  2  1  0  0  0  0
  4  5  1  6  0  0  0
  4  3  1  0  0  0  0
  6  4  1  0  0  0  0
  6  9  1  6  0  0  0
  8  7  1  0  0  0  0
  8  6  1  0  0  0  0
  9 10  1  0  0  0  0
 10 11  1  0  0  0  0
 11 14  1  6  0  0  0
 11 12  1  0  0  0  0
 12 13  1  0  0  0  0
 17 15  1  6  0  0  0
 17 24  1  0  0  0  0
 17 22  1  0  0  0  0
 17 20  1  0  0  0  0
 18 16  1  0  0  0  0
 20 21  1  1  0  0  0
 22 15  1  6  0  0  0
 22 25  1  0  0  0  0
 23 21  1  0  0  0  0
 23 20  1  0  0  0  0
 24 19  1  6  0  0  0
 24 27  1  0  0  0  0
 24 20  1  0  0  0  0
 25 26  1  0  0  0  0
 25 18  1  0  0  0  0
 25 16  1  0  0  0  0
 27 14  1  1  0  0  0
 27 26  1  0  0  0  0
 28 29  1  0  0  0  0
 29 30  1  0  0  0  0
 30 33  1  0  0  0  0
 31 38  1  0  0  0  0
 32 41  1  0  0  0  0
 32 31  2  0  0  0  0
 33 32  1  0  0  0  0
 34 31  1  0  0  0  0
 35 33  2  0  0  0  0
 35 36  1  0  0  0  0
 36 34  2  0  0  0  0
 37 36  1  0  0  0  0
 38 39  2  0  0  0  0
 38 40  1  0  0  0  0
 42 41  1  0  0  0  0
 42 43  1  0  0  0  0
 44 45  1  0  0  0  0
 44 43  1  0  0  0  0
 46 47  1  0  0  0  0
 46 45  1  0  0  0  0
 48 46  1  0  0  0  0
 48 47  1  0  0  0  0
 49  1  1  0  0  0  0
 50 49  1  0  0  0  0
 51 60  1  0  0  0  0
 51 56  1  0  0  0  0
 51 62  1  1  0  0  0
 52 59  1  0  0  0  0
 53 57  1  0  0  0  0
 54 50  1  6  0  0  0
 54 59  1  0  0  0  0
 55 58  1  1  0  0  0
 55 54  1  0  0  0  0
 56 58  1  0  0  0  0
 57 61  1  0  0  0  0
 58 53  2  0  0  0  0
 60 55  1  0  0  0  0
 60 62  1  1  0  0  0
 61 52  2  0  0  0  0
 63 61  1  0  0  0  0
 64 63  1  0  0  0  0
 64 68  1  0  0  0  0
 65 68  1  0  0  0  0
 67 68  1  0  0  0  0
 68 66  1  0  0  0  0
M  END
>  <MODEL>
9

>  <REMARK>
 VINA RESULT:      -4.6      1.327      2.067
  Name = 
  28 active torsions:
  status: ('A' for Active; 'I' for Inactive)
    1  A    between atoms: C_5  and  C_13
    2  A    between atoms: C_7  and  C_9
    3  A    between atoms: C_7  and  C_12
    4  A    between atoms: C_8  and  C_18
    5  A    between atoms: C_8  and  C_48
    6  A    between atoms: C_8  and  O_62
    7  A    between atoms: C_11  and  C_25
    8  A    between atoms: C_12  and  C_15
    9  A    between atoms: C_14  and  C_64
   10  A    between atoms: C_15  and  C_59
   11  A    between atoms: C_15  and  O_60
   12  A    between atoms: C_18  and  O_26
   13  A    between atoms: C_21  and  C_33
   14  A    between atoms: C_22  and  C_23
   15  A    between atoms: C_22  and  O_30
   16  A    between atoms: C_22  and  C_37
   17  A    between atoms: C_23  and  C_66
   18  A    between atoms: C_25  and  C_36
   19  A    between atoms: O_26  and  C_59
   20  A    between atoms: C_33  and  C_61
   21  A    between atoms: C_36  and  C_50
   22  A    between atoms: C_37  and  C_48
   23  A    between atoms: N_43  and  C_50
   24  A    between atoms: N_43  and  C_64
   25  A    between atoms: C_47  and  O_58
   26  A    between atoms: C_47  and  C_63
   27  A    between atoms: O_58  and  C_68
   28  A    between atoms: O_60  and  C_61
                            x       y       z     vdW  Elec       q    Type
                         _______ _______ _______ _____ _____    ______ ____

>  <TORSDO>
F 28

$$$$
