=
 OpenBabel10222420163D

 52 54  0  0  1  0  0  0  0  0999 V2000
  188.7250  178.6000  139.2180 F   0  0  0  0  0  0  0  0  0  0  0  0
  185.4390  177.8030  137.8040 C   0  0  0  0  0  0  0  0  0  0  0  0
  185.8280  177.1170  136.6270 C   0  0  0  0  0  0  0  0  0  0  0  0
  186.4360  178.2870  138.6620 C   0  0  0  0  0  3  0  0  0  0  0  0
  187.1860  176.9430  136.3430 C   0  0  0  0  0  3  0  0  0  0  0  0
  187.7890  178.1110  138.3660 C   0  0  0  0  0  0  0  0  0  0  0  0
  188.1750  177.4390  137.2020 C   0  0  0  0  0  0  0  0  0  0  0  0
  189.5720  177.2710  136.9180 N   0  0  0  0  0  2  0  0  0  0  0  0
  190.0420  175.5070  138.3920 O   0  0  0  0  0  0  0  0  0  0  0  0
  191.8120  176.2530  137.0780 N   0  0  0  0  0  2  0  0  0  0  0  0
  190.4530  176.3060  137.5100 C   0  0  0  0  0  0  0  0  0  0  0  0
  192.7350  175.2570  137.5980 C   0  0  0  0  0  2  0  0  0  0  0  0
  196.9660  172.4250  137.6100 N   0  0  0  0  0  2  0  0  0  0  0  0
  196.4900  174.7590  136.7450 C   0  0  2  0  0  3  0  0  0  0  0  0
  198.6250  174.0580  137.5800 O   0  0  0  0  0  0  0  0  0  0  0  0
  194.6820  173.0690  137.2770 C   0  0  0  0  0  3  0  0  0  0  0  0
  194.3760  176.6020  136.5340 O   0  0  0  0  0  0  0  0  0  0  0  0
  195.1160  170.7120  137.7280 C   0  0  0  0  0  1  0  0  0  0  0  0
  194.1010  175.4790  137.0340 C   0  0  0  0  0  0  0  0  0  0  0  0
  195.5750  172.1090  137.5110 C   0  0  0  0  0  0  0  0  0  0  0  0
  197.4270  173.7500  137.3430 C   0  0  0  0  0  0  0  0  0  0  0  0
  195.0910  174.4310  137.0540 N   0  0  0  0  0  0  0  0  0  0  0  0
  197.3300  176.1460  134.8480 C   0  0  0  0  0  1  0  0  0  0  0  0
  196.6850  174.8280  135.2360 C   0  0  0  0  0  2  0  0  0  0  0  0
  183.1020  177.3640  137.6300 O   0  0  0  0  0  0  0  0  0  0  0  0
  184.0200  178.0440  138.1590 C   0  0  0  0  0  0  0  0  0  0  0  0
  183.5670  179.3070  139.3520 S   0  0  0  0  0  0  0  0  0  0  0  0
  182.5350  178.1620  140.3160 C   0  0  0  0  0  2  0  0  0  0  0  0
  182.1360  178.8510  142.6560 C   0  0  0  0  0  2  0  0  0  0  0  0
  184.3410  178.5800  141.8450 O   0  0  0  0  0  0  0  0  0  0  0  0
  183.0630  179.3620  143.7130 C   0  0  0  0  0  2  0  0  0  0  0  0
  184.4450  179.1590  143.1230 C   0  0  1  0  0  3  0  0  0  0  0  0
  183.0370  178.0630  141.7440 C   0  0  2  0  0  3  0  0  0  0  0  0
  185.3180  178.3020  144.0330 C   0  0  0  0  0  2  0  0  0  0  0  0
  186.3460  177.6750  143.2990 O   0  0  0  0  0  0  0  0  0  0  0  0
  187.4720  177.4870  144.1320 C   0  0  2  0  0  3  0  0  0  0  0  0
  188.3760  176.4550  143.6180 N   0  0  0  0  0  2  0  0  0  0  0  0
  189.0280  176.9860  142.4310 C   0  0  0  0  0  2  0  0  0  0  0  0
  191.0640  176.0820  143.5090 C   0  0  0  0  0  1  0  0  0  0  0  0
  190.3340  176.2490  142.1900 C   0  0  0  0  0  2  0  0  0  0  0  0
  187.0810  177.2170  145.5910 C   0  0  0  0  0  2  0  0  0  0  0  0
  188.0250  177.9250  146.5490 C   0  0  0  0  0  2  0  0  0  0  0  0
  189.0260  176.9510  147.1290 C   0  0  0  0  0  1  0  0  0  0  0  0
  184.8410  176.4770  135.7000 C   0  0  0  0  0  2  0  0  0  0  0  0
  185.2770  175.0700  135.3180 C   0  0  0  0  0  2  0  0  0  0  0  0
  184.0890  174.2440  134.8600 C   0  0  0  0  0  2  0  0  0  0  0  0
  182.8490  174.6470  135.6360 C   0  0  0  0  0  2  0  0  0  0  0  0
  182.7450  173.8610  136.8550 N   0  0  0  0  0  2  0  0  0  0  0  0
  180.5160  172.3840  137.7400 O   0  0  0  0  0  1  0  0  0  0  0  0
  181.0760  173.9390  137.3810 P   0  0  0  0  0  0  0  0  0  0  0  0
  180.2320  174.5330  136.2800 O   0  0  0  0  0  0  0  0  0  0  0  0
  180.9600  174.9150  138.7580 O   0  0  0  0  0  1  0  0  0  0  0  0
  2 26  1  0  0  0  0
  2  4  1  0  0  0  0
  3  2  2  0  0  0  0
  5  3  1  0  0  0  0
  5  7  2  0  0  0  0
  6  4  2  0  0  0  0
  6  1  1  0  0  0  0
  7  6  1  0  0  0  0
  8  7  1  0  0  0  0
  8 11  1  0  0  0  0
 10 11  1  0  0  0  0
 10 12  1  0  0  0  0
 11  9  2  0  0  0  0
 14 24  1  6  0  0  0
 14 22  1  0  0  0  0
 14 21  1  0  0  0  0
 16 20  2  0  0  0  0
 17 19  2  0  0  0  0
 19 22  1  0  0  0  0
 19 12  1  0  0  0  0
 20 13  1  0  0  0  0
 20 18  1  0  0  0  0
 21 15  2  0  0  0  0
 21 13  1  0  0  0  0
 22 16  1  0  0  0  0
 23 24  1  0  0  0  0
 25 26  2  0  0  0  0
 26 27  1  0  0  0  0
 27 28  1  0  0  0  0
 29 31  1  0  0  0  0
 30 32  1  0  0  0  0
 32 31  1  0  0  0  0
 32 34  1  1  0  0  0
 33 28  1  6  0  0  0
 33 30  1  0  0  0  0
 33 29  1  0  0  0  0
 35 34  1  0  0  0  0
 35 36  1  0  0  0  0
 36 41  1  1  0  0  0
 37 36  1  0  0  0  0
 38 37  1  0  0  0  0
 40 38  1  0  0  0  0
 40 39  1  0  0  0  0
 41 42  1  0  0  0  0
 42 43  1  0  0  0  0
 44  3  1  0  0  0  0
 45 44  1  0  0  0  0
 46 45  1  0  0  0  0
 46 47  1  0  0  0  0
 47 48  1  0  0  0  0
 48 50  1  0  0  0  0
 50 49  1  0  0  0  0
 50 52  1  0  0  0  0
 51 50  2  0  0  0  0
M  END
>  <MODEL>
1

>  <REMARK>
 VINA RESULT:      -6.3      0.000      0.000
  Name = 
  22 active torsions:
  status: ('A' for Active; 'I' for Inactive)
    1  A    between atoms: C_5  and  C_10
    2  A    between atoms: C_5  and  C_19
    3  A    between atoms: N_6  and  C_44
    4  A    between atoms: C_8  and  C_40
    5  A    between atoms: C_9  and  C_48
    6  A    between atoms: C_12  and  C_51
    7  A    between atoms: S_13  and  C_37
    8  A    between atoms: S_13  and  C_40
    9  A    between atoms: C_14  and  C_45
   10  A    between atoms: C_14  and  N_50
   11  A    between atoms: N_16  and  C_36
   12  A    between atoms: C_17  and  C_31
   13  A    between atoms: C_19  and  C_45
   14  A    between atoms: N_20  and  C_28
   15  A    between atoms: N_20  and  C_39
   16  A    between atoms: C_28  and  C_48
   17  A    between atoms: C_28  and  O_49
   18  A    between atoms: C_31  and  O_49
   19  A    between atoms: C_33  and  C_36
   20  A    between atoms: C_34  and  C_39
   21  A    between atoms: C_37  and  C_41
   22  A    between atoms: P_42  and  N_50
                            x       y       z     vdW  Elec       q    Type
                         _______ _______ _______ _____ _____    ______ ____

>  <TORSDO>
F 22

$$$$
=
 OpenBabel10222420163D

 52 54  0  0  1  0  0  0  0  0999 V2000
  189.3440  177.9100  139.1990 F   0  0  0  0  0  0  0  0  0  0  0  0
  186.0320  177.7110  137.6460 C   0  0  0  0  0  0  0  0  0  0  0  0
  186.3660  177.1050  136.4100 C   0  0  0  0  0  0  0  0  0  0  0  0
  187.0540  177.9660  138.5690 C   0  0  0  0  0  3  0  0  0  0  0  0
  187.6980  176.7810  136.1340 C   0  0  0  0  0  3  0  0  0  0  0  0
  188.3810  177.6420  138.2820 C   0  0  0  0  0  0  0  0  0  0  0  0
  188.7140  177.0490  137.0600 C   0  0  0  0  0  0  0  0  0  0  0  0
  190.0860  176.7250  136.7860 N   0  0  0  0  0  2  0  0  0  0  0  0
  190.3830  175.0060  138.3550 O   0  0  0  0  0  0  0  0  0  0  0  0
  192.2130  175.4970  137.0020 N   0  0  0  0  0  2  0  0  0  0  0  0
  190.8680  175.7100  137.4300 C   0  0  0  0  0  0  0  0  0  0  0  0
  193.0340  174.4430  137.5760 C   0  0  0  0  0  2  0  0  0  0  0  0
  198.0580  175.1740  137.9620 N   0  0  0  0  0  0  0  0  0  0  0  0
  196.6160  174.2510  136.0920 C   0  0  2  0  0  3  0  0  0  0  0  0
  198.6670  175.4400  135.7310 O   0  0  0  0  0  0  0  0  0  0  0  0
  195.8350  174.4530  138.4920 C   0  0  0  0  0  2  0  0  0  0  0  0
  193.9240  173.6860  135.5110 O   0  0  0  0  0  0  0  0  0  0  0  0
  197.3120  174.9610  140.3650 C   0  0  0  0  0  1  0  0  0  0  0  0
  194.1740  174.1260  136.6640 C   0  0  0  0  0  0  0  0  0  0  0  0
  197.0410  174.8330  138.9080 C   0  0  0  0  0  0  0  0  0  0  0  0
  197.8320  174.9970  136.5630 C   0  0  0  0  0  0  0  0  0  0  0  0
  195.5390  174.3120  137.0900 N   0  0  0  0  0  0  0  0  0  0  0  0
  196.9310  171.9800  137.0770 C   0  0  0  0  0  1  0  0  0  0  0  0
  196.9710  172.7990  135.8010 C   0  0  0  0  0  2  0  0  0  0  0  0
  183.6610  177.4840  137.5110 O   0  0  0  0  0  0  0  0  0  0  0  0
  184.6460  178.1010  137.9970 C   0  0  0  0  0  0  0  0  0  0  0  0
  184.3260  179.4610  139.1260 S   0  0  0  0  0  0  0  0  0  0  0  0
  183.2040  178.4680  140.1560 C   0  0  0  0  0  2  0  0  0  0  0  0
  183.2170  178.7450  142.6130 C   0  0  0  0  0  2  0  0  0  0  0  0
  185.2410  178.4320  141.4290 O   0  0  0  0  0  0  0  0  0  0  0  0
  184.3350  178.9650  143.5810 C   0  0  0  0  0  2  0  0  0  0  0  0
  185.5890  178.7520  142.7550 C   0  0  1  0  0  3  0  0  0  0  0  0
  183.8850  178.0610  141.4490 C   0  0  2  0  0  3  0  0  0  0  0  0
  186.4740  177.6660  143.3570 C   0  0  0  0  0  2  0  0  0  0  0  0
  187.8170  177.8350  142.9600 O   0  0  0  0  0  0  0  0  0  0  0  0
  188.6600  177.1060  143.8290 C   0  0  2  0  0  3  0  0  0  0  0  0
  189.4190  177.9800  144.7270 N   0  0  0  0  0  2  0  0  0  0  0  0
  189.7120  177.2280  145.9380 C   0  0  0  0  0  2  0  0  0  0  0  0
  191.4990  176.1790  147.2890 C   0  0  0  0  0  1  0  0  0  0  0  0
  191.2130  177.0590  146.0870 C   0  0  0  0  0  2  0  0  0  0  0  0
  189.5790  176.1360  143.0750 C   0  0  0  0  0  2  0  0  0  0  0  0
  190.3780  176.8640  142.0050 C   0  0  0  0  0  2  0  0  0  0  0  0
  191.8190  177.0290  142.4340 C   0  0  0  0  0  1  0  0  0  0  0  0
  185.3350  176.7030  135.4010 C   0  0  0  0  0  2  0  0  0  0  0  0
  185.4110  175.2130  135.1000 C   0  0  0  0  0  2  0  0  0  0  0  0
  184.9020  174.4000  136.2770 C   0  0  0  0  0  2  0  0  0  0  0  0
  183.6260  173.6770  135.8940 C   0  0  0  0  0  2  0  0  0  0  0  0
  182.9750  173.1490  137.0820 N   0  0  0  0  0  2  0  0  0  0  0  0
  182.3750  170.6180  136.0010 O   0  0  0  0  0  1  0  0  0  0  0  0
  181.7030  172.0730  136.5410 P   0  0  0  0  0  0  0  0  0  0  0  0
  180.9440  172.7240  135.4110 O   0  0  0  0  0  0  0  0  0  0  0  0
  180.6380  171.7650  137.8200 O   0  0  0  0  0  1  0  0  0  0  0  0
  2 26  1  0  0  0  0
  2  4  1  0  0  0  0
  3  2  2  0  0  0  0
  5  3  1  0  0  0  0
  5  7  2  0  0  0  0
  6  4  2  0  0  0  0
  6  1  1  0  0  0  0
  7  6  1  0  0  0  0
  8  7  1  0  0  0  0
  8 11  1  0  0  0  0
 10 11  1  0  0  0  0
 10 12  1  0  0  0  0
 11  9  2  0  0  0  0
 13 20  2  0  0  0  0
 14 24  1  1  0  0  0
 14 21  1  0  0  0  0
 14 22  1  0  0  0  0
 15 21  2  0  0  0  0
 16 20  1  0  0  0  0
 17 19  2  0  0  0  0
 19 22  1  0  0  0  0
 19 12  1  0  0  0  0
 20 18  1  0  0  0  0
 21 13  1  0  0  0  0
 22 16  1  0  0  0  0
 24 23  1  0  0  0  0
 25 26  2  0  0  0  0
 26 27  1  0  0  0  0
 27 28  1  0  0  0  0
 29 31  1  0  0  0  0
 30 33  1  0  0  0  0
 30 32  1  0  0  0  0
 32 34  1  1  0  0  0
 32 31  1  0  0  0  0
 33 28  1  6  0  0  0
 33 29  1  0  0  0  0
 35 34  1  0  0  0  0
 35 36  1  0  0  0  0
 36 41  1  6  0  0  0
 36 37  1  0  0  0  0
 37 38  1  0  0  0  0
 38 40  1  0  0  0  0
 40 39  1  0  0  0  0
 42 43  1  0  0  0  0
 42 41  1  0  0  0  0
 44  3  1  0  0  0  0
 45 44  1  0  0  0  0
 45 46  1  0  0  0  0
 47 46  1  0  0  0  0
 47 48  1  0  0  0  0
 49 50  1  0  0  0  0
 50 48  1  0  0  0  0
 50 52  1  0  0  0  0
 51 50  2  0  0  0  0
M  END
>  <MODEL>
2

>  <REMARK>
 VINA RESULT:      -6.1      1.505      2.311
  Name = 
  22 active torsions:
  status: ('A' for Active; 'I' for Inactive)
    1  A    between atoms: C_5  and  C_10
    2  A    between atoms: C_5  and  C_19
    3  A    between atoms: N_6  and  C_44
    4  A    between atoms: C_8  and  C_40
    5  A    between atoms: C_9  and  C_48
    6  A    between atoms: C_12  and  C_51
    7  A    between atoms: S_13  and  C_37
    8  A    between atoms: S_13  and  C_40
    9  A    between atoms: C_14  and  C_45
   10  A    between atoms: C_14  and  N_50
   11  A    between atoms: N_16  and  C_36
   12  A    between atoms: C_17  and  C_31
   13  A    between atoms: C_19  and  C_45
   14  A    between atoms: N_20  and  C_28
   15  A    between atoms: N_20  and  C_39
   16  A    between atoms: C_28  and  C_48
   17  A    between atoms: C_28  and  O_49
   18  A    between atoms: C_31  and  O_49
   19  A    between atoms: C_33  and  C_36
   20  A    between atoms: C_34  and  C_39
   21  A    between atoms: C_37  and  C_41
   22  A    between atoms: P_42  and  N_50
                            x       y       z     vdW  Elec       q    Type
                         _______ _______ _______ _____ _____    ______ ____

>  <TORSDO>
F 22

$$$$
=
 OpenBabel10222420163D

 52 54  0  0  1  0  0  0  0  0999 V2000
  186.3950  177.9540  140.1260 F   0  0  0  0  0  0  0  0  0  0  0  0
  189.9940  177.4130  140.5520 C   0  0  0  0  0  0  0  0  0  0  0  0
  190.0600  177.2300  141.9550 C   0  0  0  0  0  0  0  0  0  0  0  0
  188.7460  177.6490  139.9610 C   0  0  0  0  0  3  0  0  0  0  0  0
  188.8900  177.2950  142.7180 C   0  0  0  0  0  3  0  0  0  0  0  0
  187.5840  177.7160  140.7330 C   0  0  0  0  0  0  0  0  0  0  0  0
  187.6480  177.5420  142.1200 C   0  0  0  0  0  0  0  0  0  0  0  0
  186.4410  177.6150  142.8930 N   0  0  0  0  0  2  0  0  0  0  0  0
  185.7140  179.7510  142.2510 O   0  0  0  0  0  0  0  0  0  0  0  0
  184.3360  178.5920  143.7250 N   0  0  0  0  0  2  0  0  0  0  0  0
  185.5110  178.7060  142.9240 C   0  0  0  0  0  0  0  0  0  0  0  0
  183.3280  179.6400  143.7480 C   0  0  0  0  0  2  0  0  0  0  0  0
  181.1950  179.2070  139.1450 N   0  0  0  0  0  0  0  0  0  0  0  0
  180.3320  178.6860  141.4710 C   0  0  2  0  0  3  0  0  0  0  0  0
  178.9310  179.3900  139.6570 O   0  0  0  0  0  0  0  0  0  0  0  0
  182.7850  178.9920  140.9250 C   0  0  0  0  0  2  0  0  0  0  0  0
  181.1630  178.7590  144.1560 O   0  0  0  0  0  0  0  0  0  0  0  0
  183.6690  179.1020  138.6540 C   0  0  0  0  0  1  0  0  0  0  0  0
  182.0120  179.0990  143.2900 C   0  0  0  0  0  0  0  0  0  0  0  0
  182.5380  179.0790  139.6190 C   0  0  0  0  0  0  0  0  0  0  0  0
  180.0960  179.1250  140.0540 C   0  0  0  0  0  0  0  0  0  0  0  0
  181.7140  178.9600  141.8870 N   0  0  0  0  0  0  0  0  0  0  0  0
  179.6110  176.6130  140.2820 C   0  0  0  0  0  1  0  0  0  0  0  0
  180.0320  177.2000  141.6170 C   0  0  0  0  0  2  0  0  0  0  0  0
  192.3410  177.5790  140.1630 O   0  0  0  0  0  0  0  0  0  0  0  0
  191.1940  177.3800  139.6820 C   0  0  0  0  0  0  0  0  0  0  0  0
  191.0520  177.0540  137.9230 S   0  0  0  0  0  0  0  0  0  0  0  0
  191.4040  175.2820  138.1260 C   0  0  0  0  0  2  0  0  0  0  0  0
  191.0960  173.6890  136.2600 C   0  0  0  0  0  2  0  0  0  0  0  0
  189.4120  175.2670  136.7830 O   0  0  0  0  0  0  0  0  0  0  0  0
  190.0710  173.6200  135.1730 C   0  0  0  0  0  2  0  0  0  0  0  0
  189.0350  174.6520  135.5740 C   0  0  1  0  0  3  0  0  0  0  0  0
  190.3980  174.4450  137.3590 C   0  0  2  0  0  3  0  0  0  0  0  0
  187.6480  174.0310  135.6950 C   0  0  0  0  0  2  0  0  0  0  0  0
  186.6430  175.0000  135.4910 O   0  0  0  0  0  0  0  0  0  0  0  0
  185.9400  175.2100  136.6990 C   0  0  2  0  0  3  0  0  0  0  0  0
  184.5310  174.8230  136.5940 N   0  0  0  0  0  2  0  0  0  0  0  0
  183.8500  175.2960  137.7900 C   0  0  0  0  0  2  0  0  0  0  0  0
  181.6980  176.2480  137.0230 C   0  0  0  0  0  1  0  0  0  0  0  0
  182.3580  175.0410  137.6640 C   0  0  0  0  0  2  0  0  0  0  0  0
  186.0930  176.6440  137.2230 C   0  0  0  0  0  2  0  0  0  0  0  0
  186.5120  177.5890  136.1090 C   0  0  0  0  0  2  0  0  0  0  0  0
  187.4280  178.6680  136.6410 C   0  0  0  0  0  1  0  0  0  0  0  0
  191.3290  176.8750  142.6660 C   0  0  0  0  0  2  0  0  0  0  0  0
  191.0430  176.2000  144.0000 C   0  0  0  0  0  2  0  0  0  0  0  0
  191.4850  177.0800  145.1540 C   0  0  0  0  0  2  0  0  0  0  0  0
  190.5000  176.9640  146.3010 C   0  0  0  0  0  2  0  0  0  0  0  0
  189.5080  178.0230  146.2170 N   0  0  0  0  0  2  0  0  0  0  0  0
  187.9370  178.7260  148.4480 O   0  0  0  0  0  1  0  0  0  0  0  0
  188.1660  177.5600  147.2440 P   0  0  0  0  0  0  0  0  0  0  0  0
  188.4670  176.2280  147.8880 O   0  0  0  0  0  1  0  0  0  0  0  0
  186.7600  177.4210  146.3130 O   0  0  0  0  0  0  0  0  0  0  0  0
  1  6  1  0  0  0  0
  2  3  1  0  0  0  0
  3 44  1  0  0  0  0
  3  5  2  0  0  0  0
  4  2  2  0  0  0  0
  4  6  1  0  0  0  0
  6  7  2  0  0  0  0
  7  5  1  0  0  0  0
  7  8  1  0  0  0  0
  8 11  1  0  0  0  0
  9 11  2  0  0  0  0
 10 12  1  0  0  0  0
 11 10  1  0  0  0  0
 13 20  2  0  0  0  0
 13 21  1  0  0  0  0
 14 24  1  6  0  0  0
 14 22  1  0  0  0  0
 15 21  2  0  0  0  0
 16 22  1  0  0  0  0
 18 20  1  0  0  0  0
 19 12  1  0  0  0  0
 19 17  2  0  0  0  0
 20 16  1  0  0  0  0
 21 14  1  0  0  0  0
 22 19  1  0  0  0  0
 23 24  1  0  0  0  0
 26 25  2  0  0  0  0
 26  2  1  0  0  0  0
 27 28  1  0  0  0  0
 27 26  1  0  0  0  0
 29 33  1  0  0  0  0
 30 33  1  0  0  0  0
 31 32  1  0  0  0  0
 31 29  1  0  0  0  0
 32 34  1  1  0  0  0
 32 30  1  0  0  0  0
 33 28  1  6  0  0  0
 35 34  1  0  0  0  0
 35 36  1  0  0  0  0
 36 41  1  6  0  0  0
 37 36  1  0  0  0  0
 37 38  1  0  0  0  0
 39 40  1  0  0  0  0
 40 38  1  0  0  0  0
 42 43  1  0  0  0  0
 42 41  1  0  0  0  0
 44 45  1  0  0  0  0
 45 46  1  0  0  0  0
 46 47  1  0  0  0  0
 48 47  1  0  0  0  0
 48 50  1  0  0  0  0
 50 51  1  0  0  0  0
 50 49  1  0  0  0  0
 52 50  2  0  0  0  0
M  END
>  <MODEL>
3

>  <REMARK>
 VINA RESULT:      -5.9      4.634     11.555
  Name = 
  22 active torsions:
  status: ('A' for Active; 'I' for Inactive)
    1  A    between atoms: C_5  and  C_10
    2  A    between atoms: C_5  and  C_19
    3  A    between atoms: N_6  and  C_44
    4  A    between atoms: C_8  and  C_40
    5  A    between atoms: C_9  and  C_48
    6  A    between atoms: C_12  and  C_51
    7  A    between atoms: S_13  and  C_37
    8  A    between atoms: S_13  and  C_40
    9  A    between atoms: C_14  and  C_45
   10  A    between atoms: C_14  and  N_50
   11  A    between atoms: N_16  and  C_36
   12  A    between atoms: C_17  and  C_31
   13  A    between atoms: C_19  and  C_45
   14  A    between atoms: N_20  and  C_28
   15  A    between atoms: N_20  and  C_39
   16  A    between atoms: C_28  and  C_48
   17  A    between atoms: C_28  and  O_49
   18  A    between atoms: C_31  and  O_49
   19  A    between atoms: C_33  and  C_36
   20  A    between atoms: C_34  and  C_39
   21  A    between atoms: C_37  and  C_41
   22  A    between atoms: P_42  and  N_50
                            x       y       z     vdW  Elec       q    Type
                         _______ _______ _______ _____ _____    ______ ____

>  <TORSDO>
F 22

$$$$
=
 OpenBabel10222420163D

 52 54  0  0  1  0  0  0  0  0999 V2000
  189.5380  178.4360  137.9410 F   0  0  0  0  0  0  0  0  0  0  0  0
  188.4930  177.5940  141.3500 C   0  0  0  0  0  0  0  0  0  0  0  0
  189.5930  176.8050  141.7660 C   0  0  0  0  0  0  0  0  0  0  0  0
  188.5030  178.1360  140.0580 C   0  0  0  0  0  3  0  0  0  0  0  0
  190.6560  176.5790  140.8860 C   0  0  0  0  0  3  0  0  0  0  0  0
  189.5680  177.9000  139.1860 C   0  0  0  0  0  0  0  0  0  0  0  0
  190.6520  177.1170  139.5930 C   0  0  0  0  0  0  0  0  0  0  0  0
  191.7360  176.8880  138.6790 N   0  0  0  0  0  2  0  0  0  0  0  0
  190.7620  175.2110  137.3590 O   0  0  0  0  0  0  0  0  0  0  0  0
  192.9050  175.8880  136.7530 N   0  0  0  0  0  2  0  0  0  0  0  0
  191.7510  175.9560  137.5890 C   0  0  0  0  0  0  0  0  0  0  0  0
  192.9530  175.0060  135.5970 C   0  0  0  0  0  2  0  0  0  0  0  0
  197.5940  172.9950  135.0110 N   0  0  0  0  0  0  0  0  0  0  0  0
  195.4400  172.0460  135.9520 C   0  0  2  0  0  3  0  0  0  0  0  0
  197.1040  170.7250  134.8420 O   0  0  0  0  0  0  0  0  0  0  0  0
  195.8600  174.5230  135.6430 C   0  0  0  0  0  2  0  0  0  0  0  0
  192.7770  172.8000  136.4520 O   0  0  0  0  0  0  0  0  0  0  0  0
  198.0420  175.4770  135.1170 C   0  0  0  0  0  1  0  0  0  0  0  0
  193.5390  173.6860  135.9810 C   0  0  0  0  0  0  0  0  0  0  0  0
  197.1260  174.3180  135.2860 C   0  0  0  0  0  0  0  0  0  0  0  0
  196.7440  171.8680  135.2280 C   0  0  0  0  0  0  0  0  0  0  0  0
  194.9470  173.4240  135.8230 N   0  0  0  0  0  0  0  0  0  0  0  0
  195.9810  172.9200  138.2260 C   0  0  0  0  0  1  0  0  0  0  0  0
  195.6030  171.6890  137.4240 C   0  0  0  0  0  2  0  0  0  0  0  0
  187.2030  177.2760  143.3300 O   0  0  0  0  0  0  0  0  0  0  0  0
  187.3220  177.8580  142.2200 C   0  0  0  0  0  0  0  0  0  0  0  0
  186.0410  179.0130  141.7210 S   0  0  0  0  0  0  0  0  0  0  0  0
  184.8650  178.3900  142.9590 C   0  0  0  0  0  2  0  0  0  0  0  0
  182.7110  178.8910  144.0650 C   0  0  0  0  0  2  0  0  0  0  0  0
  182.8020  178.5080  141.7320 O   0  0  0  0  0  0  0  0  0  0  0  0
  181.3000  178.8130  143.5730 C   0  0  0  0  0  2  0  0  0  0  0  0
  181.4410  178.5650  142.0830 C   0  0  1  0  0  3  0  0  0  0  0  0
  183.5170  179.0690  142.8060 C   0  0  2  0  0  3  0  0  0  0  0  0
  180.7200  179.6360  141.2710 C   0  0  0  0  0  2  0  0  0  0  0  0
  179.8910  179.0500  140.2910 O   0  0  0  0  0  0  0  0  0  0  0  0
  180.4840  179.2090  139.0180 C   0  0  2  0  0  3  0  0  0  0  0  0
  181.0390  177.9540  138.5040 N   0  0  0  0  0  2  0  0  0  0  0  0
  182.1330  178.2860  137.6040 C   0  0  0  0  0  2  0  0  0  0  0  0
  183.0030  176.3380  138.8560 C   0  0  0  0  0  1  0  0  0  0  0  0
  183.3910  177.5520  138.0330 C   0  0  0  0  0  2  0  0  0  0  0  0
  181.5240  180.3360  138.9940 C   0  0  0  0  0  2  0  0  0  0  0  0
  181.0210  181.5250  138.1910 C   0  0  0  0  0  2  0  0  0  0  0  0
  179.6790  181.2170  137.5660 C   0  0  0  0  0  1  0  0  0  0  0  0
  189.7230  176.2660  143.1570 C   0  0  0  0  0  2  0  0  0  0  0  0
  191.1340  176.4570  143.6940 C   0  0  0  0  0  2  0  0  0  0  0  0
  191.1450  177.4620  144.8310 C   0  0  0  0  0  2  0  0  0  0  0  0
  190.1550  177.0440  145.9010 C   0  0  0  0  0  2  0  0  0  0  0  0
  189.1710  178.0940  146.1090 N   0  0  0  0  0  2  0  0  0  0  0  0
  188.3550  176.1650  147.9930 O   0  0  0  0  0  1  0  0  0  0  0  0
  188.4500  177.8250  147.6830 P   0  0  0  0  0  0  0  0  0  0  0  0
  187.0620  178.4180  147.7050 O   0  0  0  0  0  0  0  0  0  0  0  0
  189.3920  178.5720  148.8740 O   0  0  0  0  0  1  0  0  0  0  0  0
  1  6  1  0  0  0  0
  2  3  1  0  0  0  0
  2 26  1  0  0  0  0
  3 44  1  0  0  0  0
  4  2  2  0  0  0  0
  5  3  2  0  0  0  0
  6  7  2  0  0  0  0
  6  4  1  0  0  0  0
  7  5  1  0  0  0  0
  8  7  1  0  0  0  0
  9 11  2  0  0  0  0
 10 11  1  0  0  0  0
 11  8  1  0  0  0  0
 12 19  1  0  0  0  0
 12 10  1  0  0  0  0
 13 21  1  0  0  0  0
 13 20  2  0  0  0  0
 14 24  1  1  0  0  0
 15 21  2  0  0  0  0
 16 22  1  0  0  0  0
 18 20  1  0  0  0  0
 19 17  2  0  0  0  0
 20 16  1  0  0  0  0
 21 14  1  0  0  0  0
 22 14  1  0  0  0  0
 22 19  1  0  0  0  0
 24 23  1  0  0  0  0
 26 25  2  0  0  0  0
 27 26  1  0  0  0  0
 27 28  1  0  0  0  0
 30 32  1  0  0  0  0
 30 33  1  0  0  0  0
 31 29  1  0  0  0  0
 32 34  1  6  0  0  0
 32 31  1  0  0  0  0
 33 28  1  1  0  0  0
 33 29  1  0  0  0  0
 35 34  1  0  0  0  0
 36 41  1  1  0  0  0
 36 35  1  0  0  0  0
 37 36  1  0  0  0  0
 38 40  1  0  0  0  0
 38 37  1  0  0  0  0
 40 39  1  0  0  0  0
 42 41  1  0  0  0  0
 43 42  1  0  0  0  0
 44 45  1  0  0  0  0
 45 46  1  0  0  0  0
 46 47  1  0  0  0  0
 47 48  1  0  0  0  0
 48 50  1  0  0  0  0
 50 51  2  0  0  0  0
 50 49  1  0  0  0  0
 50 52  1  0  0  0  0
M  END
>  <MODEL>
4

>  <REMARK>
 VINA RESULT:      -5.8      3.297      7.203
  Name = 
  22 active torsions:
  status: ('A' for Active; 'I' for Inactive)
    1  A    between atoms: C_5  and  C_10
    2  A    between atoms: C_5  and  C_19
    3  A    between atoms: N_6  and  C_44
    4  A    between atoms: C_8  and  C_40
    5  A    between atoms: C_9  and  C_48
    6  A    between atoms: C_12  and  C_51
    7  A    between atoms: S_13  and  C_37
    8  A    between atoms: S_13  and  C_40
    9  A    between atoms: C_14  and  C_45
   10  A    between atoms: C_14  and  N_50
   11  A    between atoms: N_16  and  C_36
   12  A    between atoms: C_17  and  C_31
   13  A    between atoms: C_19  and  C_45
   14  A    between atoms: N_20  and  C_28
   15  A    between atoms: N_20  and  C_39
   16  A    between atoms: C_28  and  C_48
   17  A    between atoms: C_28  and  O_49
   18  A    between atoms: C_31  and  O_49
   19  A    between atoms: C_33  and  C_36
   20  A    between atoms: C_34  and  C_39
   21  A    between atoms: C_37  and  C_41
   22  A    between atoms: P_42  and  N_50
                            x       y       z     vdW  Elec       q    Type
                         _______ _______ _______ _____ _____    ______ ____

>  <TORSDO>
F 22

$$$$
=
 OpenBabel10222420163D

 52 54  0  0  1  0  0  0  0  0999 V2000
  186.7810  179.0160  141.3150 F   0  0  0  0  0  0  0  0  0  0  0  0
  183.1200  178.9360  141.4510 C   0  0  0  0  0  0  0  0  0  0  0  0
  182.8210  178.6400  140.0980 C   0  0  0  0  0  0  0  0  0  0  0  0
  184.4620  179.0510  141.8350 C   0  0  0  0  0  3  0  0  0  0  0  0
  183.8610  178.4770  139.1780 C   0  0  0  0  0  3  0  0  0  0  0  0
  185.4930  178.8900  140.9070 C   0  0  0  0  0  0  0  0  0  0  0  0
  185.2000  178.6040  139.5700 C   0  0  0  0  0  0  0  0  0  0  0  0
  186.2760  178.4430  138.6330 N   0  0  0  0  0  2  0  0  0  0  0  0
  185.1630  177.1820  136.9980 O   0  0  0  0  0  0  0  0  0  0  0  0
  187.3810  177.7240  136.5500 N   0  0  0  0  0  2  0  0  0  0  0  0
  186.2190  177.7520  137.3780 C   0  0  0  0  0  0  0  0  0  0  0  0
  187.3650  177.0910  135.2400 C   0  0  0  0  0  2  0  0  0  0  0  0
  191.4420  174.2140  136.2560 N   0  0  0  0  0  0  0  0  0  0  0  0
  189.0430  173.6190  135.6910 C   0  0  2  0  0  3  0  0  0  0  0  0
  190.9250  172.2490  135.1180 O   0  0  0  0  0  0  0  0  0  0  0  0
  189.7670  175.9140  136.4770 C   0  0  0  0  0  2  0  0  0  0  0  0
  186.5850  174.8540  135.1060 O   0  0  0  0  0  0  0  0  0  0  0  0
  191.9730  176.4030  137.3940 C   0  0  0  0  0  1  0  0  0  0  0  0
  187.5510  175.6150  135.3800 C   0  0  0  0  0  0  0  0  0  0  0  0
  191.0110  175.5000  136.7100 C   0  0  0  0  0  0  0  0  0  0  0  0
  190.5120  173.3130  135.6520 C   0  0  0  0  0  0  0  0  0  0  0  0
  188.8070  175.0640  135.8230 N   0  0  0  0  0  0  0  0  0  0  0  0
  187.5960  171.6880  136.3290 C   0  0  0  0  0  1  0  0  0  0  0  0
  188.3820  172.8790  136.8460 C   0  0  0  0  0  2  0  0  0  0  0  0
  181.1390  179.9700  142.2830 O   0  0  0  0  0  0  0  0  0  0  0  0
  182.0690  179.1440  142.4760 C   0  0  0  0  0  0  0  0  0  0  0  0
  182.0900  178.2270  144.0200 S   0  0  0  0  0  0  0  0  0  0  0  0
  183.4370  179.2340  144.7100 C   0  0  0  0  0  2  0  0  0  0  0  0
  184.6770  178.4200  146.6880 C   0  0  0  0  0  2  0  0  0  0  0  0
  185.7950  178.7800  144.6340 O   0  0  0  0  0  0  0  0  0  0  0  0
  186.1420  178.2700  146.9480 C   0  0  0  0  0  2  0  0  0  0  0  0
  186.7860  178.5150  145.5970 C   0  0  1  0  0  3  0  0  0  0  0  0
  184.5740  178.3520  145.1870 C   0  0  2  0  0  3  0  0  0  0  0  0
  187.6510  177.3350  145.1700 C   0  0  0  0  0  2  0  0  0  0  0  0
  188.7980  177.7770  144.4770 O   0  0  0  0  0  0  0  0  0  0  0  0
  189.8880  177.8560  145.3740 C   0  0  2  0  0  3  0  0  0  0  0  0
  191.1640  178.0400  144.6800 N   0  0  0  0  0  2  0  0  0  0  0  0
  191.1390  177.2220  143.4770 C   0  0  0  0  0  2  0  0  0  0  0  0
  191.5520  177.2460  141.0380 C   0  0  0  0  0  1  0  0  0  0  0  0
  191.2600  178.1090  142.2510 C   0  0  0  0  0  2  0  0  0  0  0  0
  189.9380  176.6640  146.3390 C   0  0  0  0  0  2  0  0  0  0  0  0
  190.9100  176.9260  147.4780 C   0  0  0  0  0  2  0  0  0  0  0  0
  192.0350  175.9160  147.4630 C   0  0  0  0  0  1  0  0  0  0  0  0
  181.4250  178.3990  139.6110 C   0  0  0  0  0  2  0  0  0  0  0  0
  181.4260  177.7300  138.2450 C   0  0  0  0  0  2  0  0  0  0  0  0
  180.4940  178.4540  137.2900 C   0  0  0  0  0  2  0  0  0  0  0  0
  181.1310  179.7510  136.8290 C   0  0  0  0  0  2  0  0  0  0  0  0
  180.1620  180.8330  136.8930 N   0  0  0  0  0  2  0  0  0  0  0  0
  180.8300  183.5490  137.2290 O   0  0  0  0  0  0  0  0  0  0  0  0
  180.8030  182.0400  137.9900 P   0  0  0  0  0  0  0  0  0  0  0  0
  182.2070  181.6550  138.3900 O   0  0  0  0  0  1  0  0  0  0  0  0
  179.8340  182.1200  139.3750 O   0  0  0  0  0  1  0  0  0  0  0  0
  2  4  1  0  0  0  0
  2 26  1  0  0  0  0
  3  2  2  0  0  0  0
  5  7  2  0  0  0  0
  5  3  1  0  0  0  0
  6  1  1  0  0  0  0
  6  4  2  0  0  0  0
  7  6  1  0  0  0  0
  8  7  1  0  0  0  0
  9 11  2  0  0  0  0
 10 11  1  0  0  0  0
 11  8  1  0  0  0  0
 12 19  1  0  0  0  0
 12 10  1  0  0  0  0
 13 20  2  0  0  0  0
 14 22  1  0  0  0  0
 14 24  1  1  0  0  0
 15 21  2  0  0  0  0
 16 20  1  0  0  0  0
 17 19  2  0  0  0  0
 19 22  1  0  0  0  0
 20 18  1  0  0  0  0
 21 14  1  0  0  0  0
 21 13  1  0  0  0  0
 22 16  1  0  0  0  0
 23 24  1  0  0  0  0
 25 26  2  0  0  0  0
 26 27  1  0  0  0  0
 27 28  1  0  0  0  0
 29 31  1  0  0  0  0
 30 33  1  0  0  0  0
 30 32  1  0  0  0  0
 32 34  1  6  0  0  0
 32 31  1  0  0  0  0
 33 28  1  6  0  0  0
 33 29  1  0  0  0  0
 35 34  1  0  0  0  0
 35 36  1  0  0  0  0
 36 41  1  6  0  0  0
 37 36  1  0  0  0  0
 38 37  1  0  0  0  0
 39 40  1  0  0  0  0
 40 38  1  0  0  0  0
 41 42  1  0  0  0  0
 43 42  1  0  0  0  0
 44  3  1  0  0  0  0
 45 44  1  0  0  0  0
 46 45  1  0  0  0  0
 47 48  1  0  0  0  0
 47 46  1  0  0  0  0
 48 50  1  0  0  0  0
 49 50  2  0  0  0  0
 50 51  1  0  0  0  0
 50 52  1  0  0  0  0
M  END
>  <MODEL>
5

>  <REMARK>
 VINA RESULT:      -5.6      3.790      5.644
  Name = 
  22 active torsions:
  status: ('A' for Active; 'I' for Inactive)
    1  A    between atoms: C_5  and  C_10
    2  A    between atoms: C_5  and  C_19
    3  A    between atoms: N_6  and  C_44
    4  A    between atoms: C_8  and  C_40
    5  A    between atoms: C_9  and  C_48
    6  A    between atoms: C_12  and  C_51
    7  A    between atoms: S_13  and  C_37
    8  A    between atoms: S_13  and  C_40
    9  A    between atoms: C_14  and  C_45
   10  A    between atoms: C_14  and  N_50
   11  A    between atoms: N_16  and  C_36
   12  A    between atoms: C_17  and  C_31
   13  A    between atoms: C_19  and  C_45
   14  A    between atoms: N_20  and  C_28
   15  A    between atoms: N_20  and  C_39
   16  A    between atoms: C_28  and  C_48
   17  A    between atoms: C_28  and  O_49
   18  A    between atoms: C_31  and  O_49
   19  A    between atoms: C_33  and  C_36
   20  A    between atoms: C_34  and  C_39
   21  A    between atoms: C_37  and  C_41
   22  A    between atoms: P_42  and  N_50
                            x       y       z     vdW  Elec       q    Type
                         _______ _______ _______ _____ _____    ______ ____

>  <TORSDO>
F 22

$$$$
=
 OpenBabel10222420163D

 52 54  0  0  1  0  0  0  0  0999 V2000
  188.2130  178.5140  137.2050 F   0  0  0  0  0  0  0  0  0  0  0  0
  190.2170  177.6530  140.1490 C   0  0  0  0  0  0  0  0  0  0  0  0
  189.2290  177.7300  141.1620 C   0  0  0  0  0  0  0  0  0  0  0  0
  189.8460  177.9160  138.8240 C   0  0  0  0  0  3  0  0  0  0  0  0
  187.9160  178.0710  140.8240 C   0  0  0  0  0  3  0  0  0  0  0  0
  188.5330  178.2590  138.4980 C   0  0  0  0  0  0  0  0  0  0  0  0
  187.5570  178.3420  139.4970 C   0  0  0  0  0  0  0  0  0  0  0  0
  186.2130  178.6970  139.1390 N   0  0  0  0  0  2  0  0  0  0  0  0
  185.6490  176.8000  137.8800 O   0  0  0  0  0  0  0  0  0  0  0  0
  183.9820  178.4050  138.1300 N   0  0  0  0  0  2  0  0  0  0  0  0
  185.3020  177.9120  138.3570 C   0  0  0  0  0  0  0  0  0  0  0  0
  182.9970  177.6270  137.3960 C   0  0  0  0  0  2  0  0  0  0  0  0
  179.0830  178.9110  140.3900 N   0  0  0  0  0  2  0  0  0  0  0  0
  180.3480  176.7340  140.0900 C   0  0  2  0  0  3  0  0  0  0  0  0
  179.3280  177.4090  142.1520 O   0  0  0  0  0  0  0  0  0  0  0  0
  180.4280  178.6390  138.4240 C   0  0  0  0  0  3  0  0  0  0  0  0
  182.4650  175.6470  138.5920 O   0  0  0  0  0  0  0  0  0  0  0  0
  178.9310  180.5640  138.4870 C   0  0  0  0  0  1  0  0  0  0  0  0
  182.1510  176.8420  138.3460 C   0  0  0  0  0  0  0  0  0  0  0  0
  179.4980  179.3260  139.0850 C   0  0  0  0  0  0  0  0  0  0  0  0
  179.5730  177.6920  140.9490 C   0  0  0  0  0  0  0  0  0  0  0  0
  180.9930  177.4320  138.9690 N   0  0  0  0  0  0  0  0  0  0  0  0
  179.6200  174.3610  140.3510 C   0  0  0  0  0  1  0  0  0  0  0  0
  179.4280  175.6420  139.5600 C   0  0  0  0  0  2  0  0  0  0  0  0
  191.9970  177.0110  141.6010 O   0  0  0  0  0  0  0  0  0  0  0  0
  191.6330  177.3190  140.4360 C   0  0  0  0  0  0  0  0  0  0  0  0
  192.8700  177.3430  139.1340 S   0  0  0  0  0  0  0  0  0  0  0  0
  192.2260  175.8270  138.3640 C   0  0  0  0  0  2  0  0  0  0  0  0
  192.7870  173.9170  136.8980 C   0  0  0  0  0  2  0  0  0  0  0  0
  194.4990  175.2450  137.8480 O   0  0  0  0  0  0  0  0  0  0  0  0
  194.0870  173.2400  136.6030 C   0  0  0  0  0  2  0  0  0  0  0  0
  195.1270  174.1410  137.2410 C   0  0  1  0  0  3  0  0  0  0  0  0
  193.1950  175.3030  137.3230 C   0  0  2  0  0  3  0  0  0  0  0  0
  196.1620  174.6050  136.2210 C   0  0  0  0  0  2  0  0  0  0  0  0
  197.1650  175.3800  136.8410 O   0  0  0  0  0  0  0  0  0  0  0  0
  198.3180  174.5860  137.0390 C   0  0  2  0  0  3  0  0  0  0  0  0
  198.3190  173.3890  136.1940 N   0  0  0  0  0  2  0  0  0  0  0  0
  198.6510  172.2500  137.0350 C   0  0  0  0  0  2  0  0  0  0  0  0
  197.3470  171.2980  135.1600 C   0  0  0  0  0  1  0  0  0  0  0  0
  198.2340  170.9640  136.3450 C   0  0  0  0  0  2  0  0  0  0  0  0
  198.5370  174.2320  138.5160 C   0  0  0  0  0  2  0  0  0  0  0  0
  198.3860  175.4610  139.3980 C   0  0  0  0  0  2  0  0  0  0  0  0
  197.4350  175.1850  140.5410 C   0  0  0  0  0  1  0  0  0  0  0  0
  189.5030  177.3710  142.5890 C   0  0  0  0  0  2  0  0  0  0  0  0
  188.3420  176.5960  143.1950 C   0  0  0  0  0  2  0  0  0  0  0  0
  188.1370  176.9820  144.6480 C   0  0  0  0  0  2  0  0  0  0  0  0
  186.6590  177.1640  144.9320 C   0  0  0  0  0  2  0  0  0  0  0  0
  186.0630  178.0400  143.9360 N   0  0  0  0  0  2  0  0  0  0  0  0
  185.3300  179.2850  146.3540 O   0  0  0  0  0  1  0  0  0  0  0  0
  184.8550  179.0100  144.7540 P   0  0  0  0  0  0  0  0  0  0  0  0
  183.5350  178.2790  144.7430 O   0  0  0  0  0  1  0  0  0  0  0  0
  184.6780  180.4910  143.9530 O   0  0  0  0  0  0  0  0  0  0  0  0
  1  6  1  0  0  0  0
  2 26  1  0  0  0  0
  2  3  1  0  0  0  0
  3 44  1  0  0  0  0
  4  2  2  0  0  0  0
  5  3  2  0  0  0  0
  6  4  1  0  0  0  0
  6  7  2  0  0  0  0
  7  5  1  0  0  0  0
  8  7  1  0  0  0  0
  9 11  2  0  0  0  0
 10 11  1  0  0  0  0
 11  8  1  0  0  0  0
 12 10  1  0  0  0  0
 12 19  1  0  0  0  0
 13 21  1  0  0  0  0
 14 24  1  6  0  0  0
 14 21  1  0  0  0  0
 16 22  1  0  0  0  0
 16 20  2  0  0  0  0
 18 20  1  0  0  0  0
 19 17  2  0  0  0  0
 19 22  1  0  0  0  0
 20 13  1  0  0  0  0
 21 15  2  0  0  0  0
 22 14  1  0  0  0  0
 24 23  1  0  0  0  0
 26 25  2  0  0  0  0
 27 26  1  0  0  0  0
 28 27  1  0  0  0  0
 29 33  1  0  0  0  0
 31 29  1  0  0  0  0
 31 32  1  0  0  0  0
 32 34  1  6  0  0  0
 32 30  1  0  0  0  0
 33 30  1  0  0  0  0
 33 28  1  1  0  0  0
 34 35  1  0  0  0  0
 35 36  1  0  0  0  0
 36 41  1  1  0  0  0
 37 38  1  0  0  0  0
 37 36  1  0  0  0  0
 39 40  1  0  0  0  0
 40 38  1  0  0  0  0
 41 42  1  0  0  0  0
 42 43  1  0  0  0  0
 44 45  1  0  0  0  0
 45 46  1  0  0  0  0
 46 47  1  0  0  0  0
 48 50  1  0  0  0  0
 48 47  1  0  0  0  0
 50 49  1  0  0  0  0
 51 50  1  0  0  0  0
 52 50  2  0  0  0  0
M  END
>  <MODEL>
6

>  <REMARK>
 VINA RESULT:      -5.5      3.364     11.938
  Name = 
  22 active torsions:
  status: ('A' for Active; 'I' for Inactive)
    1  A    between atoms: C_5  and  C_10
    2  A    between atoms: C_5  and  C_19
    3  A    between atoms: N_6  and  C_44
    4  A    between atoms: C_8  and  C_40
    5  A    between atoms: C_9  and  C_48
    6  A    between atoms: C_12  and  C_51
    7  A    between atoms: S_13  and  C_37
    8  A    between atoms: S_13  and  C_40
    9  A    between atoms: C_14  and  C_45
   10  A    between atoms: C_14  and  N_50
   11  A    between atoms: N_16  and  C_36
   12  A    between atoms: C_17  and  C_31
   13  A    between atoms: C_19  and  C_45
   14  A    between atoms: N_20  and  C_28
   15  A    between atoms: N_20  and  C_39
   16  A    between atoms: C_28  and  C_48
   17  A    between atoms: C_28  and  O_49
   18  A    between atoms: C_31  and  O_49
   19  A    between atoms: C_33  and  C_36
   20  A    between atoms: C_34  and  C_39
   21  A    between atoms: C_37  and  C_41
   22  A    between atoms: P_42  and  N_50
                            x       y       z     vdW  Elec       q    Type
                         _______ _______ _______ _____ _____    ______ ____

>  <TORSDO>
F 22

$$$$
=
 OpenBabel10222420163D

 52 54  0  0  1  0  0  0  0  0999 V2000
  184.1720  177.6080  141.8150 F   0  0  0  0  0  0  0  0  0  0  0  0
  187.2060  177.7440  143.8660 C   0  0  0  0  0  0  0  0  0  0  0  0
  186.6840  178.3070  145.0560 C   0  0  0  0  0  0  0  0  0  0  0  0
  186.3370  177.5140  142.7910 C   0  0  0  0  0  3  0  0  0  0  0  0
  185.3240  178.6250  145.1340 C   0  0  0  0  0  3  0  0  0  0  0  0
  184.9820  177.8390  142.8780 C   0  0  0  0  0  0  0  0  0  0  0  0
  184.4650  178.4000  144.0510 C   0  0  0  0  0  0  0  0  0  0  0  0
  183.0690  178.7270  144.1180 N   0  0  0  0  0  2  0  0  0  0  0  0
  182.7410  179.4180  141.9000 O   0  0  0  0  0  0  0  0  0  0  0  0
  180.8650  179.4470  143.2790 N   0  0  0  0  0  2  0  0  0  0  0  0
  182.2530  179.2100  143.0430 C   0  0  0  0  0  0  0  0  0  0  0  0
  179.9770  179.8800  142.2120 C   0  0  0  0  0  2  0  0  0  0  0  0
  180.0820  180.3830  137.1460 N   0  0  0  0  0  0  0  0  0  0  0  0
  179.9090  178.3470  138.6460 C   0  0  2  0  0  3  0  0  0  0  0  0
  178.9310  178.4790  136.4610 O   0  0  0  0  0  0  0  0  0  0  0  0
  180.6980  180.6130  139.4500 C   0  0  0  0  0  2  0  0  0  0  0  0
  179.8410  177.6640  141.3730 O   0  0  0  0  0  0  0  0  0  0  0  0
  181.2450  182.4680  137.9650 C   0  0  0  0  0  1  0  0  0  0  0  0
  179.9890  178.8840  141.0970 C   0  0  0  0  0  0  0  0  0  0  0  0
  180.6840  181.1150  138.2170 C   0  0  0  0  0  0  0  0  0  0  0  0
  179.5940  179.0580  137.3610 C   0  0  0  0  0  0  0  0  0  0  0  0
  180.1700  179.3030  139.7300 N   0  0  0  0  0  0  0  0  0  0  0  0
  180.7380  175.9960  138.7720 C   0  0  0  0  0  1  0  0  0  0  0  0
  181.1130  177.4330  138.4590 C   0  0  0  0  0  2  0  0  0  0  0  0
  189.0420  176.2220  143.8790 O   0  0  0  0  0  0  0  0  0  0  0  0
  188.6390  177.4020  143.7030 C   0  0  0  0  0  0  0  0  0  0  0  0
  189.8430  178.6550  143.2490 S   0  0  0  0  0  0  0  0  0  0  0  0
  190.9350  177.4480  142.4400 C   0  0  0  0  0  2  0  0  0  0  0  0
  189.5620  178.3380  140.5870 C   0  0  0  0  0  2  0  0  0  0  0  0
  190.5510  176.1950  140.4260 O   0  0  0  0  0  0  0  0  0  0  0  0
  189.0140  177.6880  139.3560 C   0  0  0  0  0  2  0  0  0  0  0  0
  189.6870  176.3290  139.3230 C   0  0  1  0  0  3  0  0  0  0  0  0
  190.7570  177.4900  140.9350 C   0  0  2  0  0  3  0  0  0  0  0  0
  190.4430  176.1140  138.0170 C   0  0  0  0  0  2  0  0  0  0  0  0
  191.2290  174.9440  138.0780 O   0  0  0  0  0  0  0  0  0  0  0  0
  192.2160  174.9870  137.0660 C   0  0  2  0  0  3  0  0  0  0  0  0
  191.7400  174.4160  135.8040 N   0  0  0  0  0  2  0  0  0  0  0  0
  191.2310  173.0820  136.0830 C   0  0  0  0  0  2  0  0  0  0  0  0
  188.8090  173.5500  136.2810 C   0  0  0  0  0  1  0  0  0  0  0  0
  189.8770  172.9010  135.4200 C   0  0  0  0  0  2  0  0  0  0  0  0
  193.5380  174.3480  137.5120 C   0  0  0  0  0  2  0  0  0  0  0  0
  194.4890  174.1890  136.3370 C   0  0  0  0  0  2  0  0  0  0  0  0
  195.7900  174.9130  136.6000 C   0  0  0  0  0  1  0  0  0  0  0  0
  187.5090  178.4980  146.2910 C   0  0  0  0  0  2  0  0  0  0  0  0
  186.9160  177.7450  147.4720 C   0  0  0  0  0  2  0  0  0  0  0  0
  187.9580  177.5370  148.5560 C   0  0  0  0  0  2  0  0  0  0  0  0
  189.3500  177.6920  147.9730 C   0  0  0  0  0  2  0  0  0  0  0  0
  189.7880  176.4360  147.3850 N   0  0  0  0  0  2  0  0  0  0  0  0
  192.1720  174.9350  147.3790 O   0  0  0  0  0  1  0  0  0  0  0  0
  191.5350  176.4980  147.2720 P   0  0  0  0  0  0  0  0  0  0  0  0
  192.0790  177.3380  148.4020 O   0  0  0  0  0  1  0  0  0  0  0  0
  191.9840  177.1940  145.7960 O   0  0  0  0  0  0  0  0  0  0  0  0
  1  6  1  0  0  0  0
  2  3  1  0  0  0  0
  3  5  2  0  0  0  0
  3 44  1  0  0  0  0
  4  6  1  0  0  0  0
  4  2  2  0  0  0  0
  6  7  2  0  0  0  0
  7  8  1  0  0  0  0
  7  5  1  0  0  0  0
  9 11  2  0  0  0  0
 11 10  1  0  0  0  0
 11  8  1  0  0  0  0
 12 10  1  0  0  0  0
 13 21  1  0  0  0  0
 13 20  2  0  0  0  0
 14 24  1  6  0  0  0
 14 22  1  0  0  0  0
 15 21  2  0  0  0  0
 16 22  1  0  0  0  0
 18 20  1  0  0  0  0
 19 17  2  0  0  0  0
 19 12  1  0  0  0  0
 20 16  1  0  0  0  0
 21 14  1  0  0  0  0
 22 19  1  0  0  0  0
 24 23  1  0  0  0  0
 26  2  1  0  0  0  0
 26 25  2  0  0  0  0
 27 26  1  0  0  0  0
 28 27  1  0  0  0  0
 29 33  1  0  0  0  0
 30 33  1  0  0  0  0
 31 29  1  0  0  0  0
 32 34  1  6  0  0  0
 32 31  1  0  0  0  0
 32 30  1  0  0  0  0
 33 28  1  1  0  0  0
 34 35  1  0  0  0  0
 36 41  1  1  0  0  0
 36 35  1  0  0  0  0
 37 38  1  0  0  0  0
 37 36  1  0  0  0  0
 40 38  1  0  0  0  0
 40 39  1  0  0  0  0
 42 43  1  0  0  0  0
 42 41  1  0  0  0  0
 44 45  1  0  0  0  0
 45 46  1  0  0  0  0
 47 46  1  0  0  0  0
 48 47  1  0  0  0  0
 50 49  1  0  0  0  0
 50 48  1  0  0  0  0
 50 51  1  0  0  0  0
 52 50  2  0  0  0  0
M  END
>  <MODEL>
7

>  <REMARK>
 VINA RESULT:      -5.4      4.177     12.216
  Name = 
  22 active torsions:
  status: ('A' for Active; 'I' for Inactive)
    1  A    between atoms: C_5  and  C_10
    2  A    between atoms: C_5  and  C_19
    3  A    between atoms: N_6  and  C_44
    4  A    between atoms: C_8  and  C_40
    5  A    between atoms: C_9  and  C_48
    6  A    between atoms: C_12  and  C_51
    7  A    between atoms: S_13  and  C_37
    8  A    between atoms: S_13  and  C_40
    9  A    between atoms: C_14  and  C_45
   10  A    between atoms: C_14  and  N_50
   11  A    between atoms: N_16  and  C_36
   12  A    between atoms: C_17  and  C_31
   13  A    between atoms: C_19  and  C_45
   14  A    between atoms: N_20  and  C_28
   15  A    between atoms: N_20  and  C_39
   16  A    between atoms: C_28  and  C_48
   17  A    between atoms: C_28  and  O_49
   18  A    between atoms: C_31  and  O_49
   19  A    between atoms: C_33  and  C_36
   20  A    between atoms: C_34  and  C_39
   21  A    between atoms: C_37  and  C_41
   22  A    between atoms: P_42  and  N_50
                            x       y       z     vdW  Elec       q    Type
                         _______ _______ _______ _____ _____    ______ ____

>  <TORSDO>
F 22

$$$$
=
 OpenBabel10222420163D

 52 54  0  0  1  0  0  0  0  0999 V2000
  186.8120  179.2670  141.4810 F   0  0  0  0  0  0  0  0  0  0  0  0
  183.1750  178.8470  141.3360 C   0  0  0  0  0  0  0  0  0  0  0  0
  183.0190  178.4390  139.9890 C   0  0  0  0  0  0  0  0  0  0  0  0
  184.4640  179.1140  141.8150 C   0  0  0  0  0  3  0  0  0  0  0  0
  184.1440  178.3170  139.1670 C   0  0  0  0  0  3  0  0  0  0  0  0
  185.5800  178.9930  140.9840 C   0  0  0  0  0  0  0  0  0  0  0  0
  185.4280  178.5960  139.6520 C   0  0  0  0  0  0  0  0  0  0  0  0
  186.5900  178.4790  138.8160 N   0  0  0  0  0  2  0  0  0  0  0  0
  185.6280  177.3550  136.9950 O   0  0  0  0  0  0  0  0  0  0  0  0
  187.8870  177.8840  136.8060 N   0  0  0  0  0  2  0  0  0  0  0  0
  186.6490  177.8770  137.5160 C   0  0  0  0  0  0  0  0  0  0  0  0
  187.9930  177.3430  135.4600 C   0  0  0  0  0  2  0  0  0  0  0  0
  191.8000  174.2330  136.7890 N   0  0  0  0  0  0  0  0  0  0  0  0
  189.4820  173.7800  135.8680 C   0  0  2  0  0  3  0  0  0  0  0  0
  191.3790  172.3770  135.4490 O   0  0  0  0  0  0  0  0  0  0  0  0
  190.1660  175.9830  136.9130 C   0  0  0  0  0  2  0  0  0  0  0  0
  187.1670  175.1550  135.0570 O   0  0  0  0  0  0  0  0  0  0  0  0
  192.2420  176.3140  138.1490 C   0  0  0  0  0  1  0  0  0  0  0  0
  188.1100  175.8540  135.5120 C   0  0  0  0  0  0  0  0  0  0  0  0
  191.3530  175.5010  137.2770 C   0  0  0  0  0  0  0  0  0  0  0  0
  190.9320  173.4160  136.0020 C   0  0  0  0  0  0  0  0  0  0  0  0
  189.2760  175.2210  136.0750 N   0  0  0  0  0  0  0  0  0  0  0  0
  187.8990  171.8730  136.1620 C   0  0  0  0  0  1  0  0  0  0  0  0
  188.6470  172.9890  136.8670 C   0  0  0  0  0  2  0  0  0  0  0  0
  180.9740  179.5910  141.8740 O   0  0  0  0  0  0  0  0  0  0  0  0
  182.0270  179.0180  142.2580 C   0  0  0  0  0  0  0  0  0  0  0  0
  182.1010  178.4150  143.9480 S   0  0  0  0  0  0  0  0  0  0  0  0
  183.6210  179.3430  144.3130 C   0  0  0  0  0  2  0  0  0  0  0  0
  184.4710  178.5180  146.4840 C   0  0  0  0  0  2  0  0  0  0  0  0
  185.9490  178.8650  144.6690 O   0  0  0  0  0  0  0  0  0  0  0  0
  185.8620  178.3540  147.0080 C   0  0  0  0  0  2  0  0  0  0  0  0
  186.7450  178.5920  145.7970 C   0  0  1  0  0  3  0  0  0  0  0  0
  184.6430  178.4500  144.9900 C   0  0  2  0  0  3  0  0  0  0  0  0
  187.6610  177.4020  145.5350 C   0  0  0  0  0  2  0  0  0  0  0  0
  187.6360  177.0400  144.1720 O   0  0  0  0  0  0  0  0  0  0  0  0
  188.9270  177.2020  143.6190 C   0  0  2  0  0  3  0  0  0  0  0  0
  189.3830  176.0010  142.9140 N   0  0  0  0  0  2  0  0  0  0  0  0
  190.3410  176.4170  141.9000 C   0  0  0  0  0  2  0  0  0  0  0  0
  189.9210  178.2340  140.2750 C   0  0  0  0  0  1  0  0  0  0  0  0
  189.6080  176.7920  140.6250 C   0  0  0  0  0  2  0  0  0  0  0  0
  189.9540  177.6680  144.6590 C   0  0  0  0  0  2  0  0  0  0  0  0
  190.4870  179.0500  144.3170 C   0  0  0  0  0  2  0  0  0  0  0  0
  191.9880  179.0150  144.1400 C   0  0  0  0  0  1  0  0  0  0  0  0
  181.6970  178.0350  139.4120 C   0  0  0  0  0  2  0  0  0  0  0  0
  181.5360  176.5220  139.4080 C   0  0  0  0  0  2  0  0  0  0  0  0
  180.4580  176.0980  138.4270 C   0  0  0  0  0  2  0  0  0  0  0  0
  181.0320  176.0310  137.0250 C   0  0  0  0  0  2  0  0  0  0  0  0
  182.2080  175.1760  137.0070 N   0  0  0  0  0  2  0  0  0  0  0  0
  183.0280  172.8420  135.6580 O   0  0  0  0  0  1  0  0  0  0  0  0
  181.7080  173.6200  136.3740 P   0  0  0  0  0  0  0  0  0  0  0  0
  180.6270  173.8250  135.3410 O   0  0  0  0  0  0  0  0  0  0  0  0
  181.1000  172.6650  137.6320 O   0  0  0  0  0  1  0  0  0  0  0  0
  2  4  1  0  0  0  0
  2 26  1  0  0  0  0
  3  2  2  0  0  0  0
  5  7  2  0  0  0  0
  5  3  1  0  0  0  0
  6  1  1  0  0  0  0
  6  4  2  0  0  0  0
  7  6  1  0  0  0  0
  8  7  1  0  0  0  0
  9 11  2  0  0  0  0
 10 11  1  0  0  0  0
 11  8  1  0  0  0  0
 12 19  1  0  0  0  0
 12 10  1  0  0  0  0
 13 20  2  0  0  0  0
 14 21  1  0  0  0  0
 14 22  1  0  0  0  0
 14 24  1  1  0  0  0
 15 21  2  0  0  0  0
 16 20  1  0  0  0  0
 17 19  2  0  0  0  0
 19 22  1  0  0  0  0
 20 18  1  0  0  0  0
 21 13  1  0  0  0  0
 22 16  1  0  0  0  0
 23 24  1  0  0  0  0
 25 26  2  0  0  0  0
 26 27  1  0  0  0  0
 27 28  1  0  0  0  0
 29 31  1  0  0  0  0
 30 33  1  0  0  0  0
 30 32  1  0  0  0  0
 32 34  1  6  0  0  0
 32 31  1  0  0  0  0
 33 28  1  6  0  0  0
 33 29  1  0  0  0  0
 35 34  1  0  0  0  0
 36 35  1  0  0  0  0
 36 41  1  1  0  0  0
 37 36  1  0  0  0  0
 38 37  1  0  0  0  0
 39 40  1  0  0  0  0
 40 38  1  0  0  0  0
 42 41  1  0  0  0  0
 43 42  1  0  0  0  0
 44  3  1  0  0  0  0
 45 44  1  0  0  0  0
 46 45  1  0  0  0  0
 47 46  1  0  0  0  0
 48 47  1  0  0  0  0
 49 50  1  0  0  0  0
 50 48  1  0  0  0  0
 50 52  1  0  0  0  0
 51 50  2  0  0  0  0
M  END
>  <MODEL>
8

>  <REMARK>
 VINA RESULT:      -5.3      3.090      4.755
  Name = 
  22 active torsions:
  status: ('A' for Active; 'I' for Inactive)
    1  A    between atoms: C_5  and  C_10
    2  A    between atoms: C_5  and  C_19
    3  A    between atoms: N_6  and  C_44
    4  A    between atoms: C_8  and  C_40
    5  A    between atoms: C_9  and  C_48
    6  A    between atoms: C_12  and  C_51
    7  A    between atoms: S_13  and  C_37
    8  A    between atoms: S_13  and  C_40
    9  A    between atoms: C_14  and  C_45
   10  A    between atoms: C_14  and  N_50
   11  A    between atoms: N_16  and  C_36
   12  A    between atoms: C_17  and  C_31
   13  A    between atoms: C_19  and  C_45
   14  A    between atoms: N_20  and  C_28
   15  A    between atoms: N_20  and  C_39
   16  A    between atoms: C_28  and  C_48
   17  A    between atoms: C_28  and  O_49
   18  A    between atoms: C_31  and  O_49
   19  A    between atoms: C_33  and  C_36
   20  A    between atoms: C_34  and  C_39
   21  A    between atoms: C_37  and  C_41
   22  A    between atoms: P_42  and  N_50
                            x       y       z     vdW  Elec       q    Type
                         _______ _______ _______ _____ _____    ______ ____

>  <TORSDO>
F 22

$$$$
=
 OpenBabel10222420163D

 52 54  0  0  1  0  0  0  0  0999 V2000
  186.3440  177.5690  146.2510 F   0  0  0  0  0  0  0  0  0  0  0  0
  188.7410  177.5830  143.4800 C   0  0  0  0  0  0  0  0  0  0  0  0
  187.8670  177.8070  142.3890 C   0  0  0  0  0  0  0  0  0  0  0  0
  188.2020  177.5130  144.7720 C   0  0  0  0  0  3  0  0  0  0  0  0
  186.4950  177.9470  142.6160 C   0  0  0  0  0  3  0  0  0  0  0  0
  186.8300  177.6490  144.9880 C   0  0  0  0  0  0  0  0  0  0  0  0
  185.9640  177.8650  143.9100 C   0  0  0  0  0  0  0  0  0  0  0  0
  184.5560  178.0020  144.1560 N   0  0  0  0  0  2  0  0  0  0  0  0
  183.9860  179.3480  142.3210 O   0  0  0  0  0  0  0  0  0  0  0  0
  182.2380  178.7230  143.7250 N   0  0  0  0  0  2  0  0  0  0  0  0
  183.6150  178.7250  143.3500 C   0  0  0  0  0  0  0  0  0  0  0  0
  181.2300  179.3870  142.9140 C   0  0  0  0  0  2  0  0  0  0  0  0
  181.1860  177.5920  138.1490 N   0  0  0  0  0  0  0  0  0  0  0  0
  179.6780  177.1570  140.1400 C   0  0  2  0  0  3  0  0  0  0  0  0
  178.9340  177.0750  137.8630 O   0  0  0  0  0  0  0  0  0  0  0  0
  181.9830  178.1880  140.3290 C   0  0  0  0  0  2  0  0  0  0  0  0
  179.3830  177.8990  142.8370 O   0  0  0  0  0  0  0  0  0  0  0  0
  183.5960  178.2550  138.5020 C   0  0  0  0  0  1  0  0  0  0  0  0
  180.3760  178.3730  142.2240 C   0  0  0  0  0  0  0  0  0  0  0  0
  182.2330  177.9940  139.0360 C   0  0  0  0  0  0  0  0  0  0  0  0
  179.8890  177.2790  138.6580 C   0  0  0  0  0  0  0  0  0  0  0  0
  180.6770  177.9390  140.8830 N   0  0  0  0  0  0  0  0  0  0  0  0
  180.6930  174.9290  139.6580 C   0  0  0  0  0  1  0  0  0  0  0  0
  179.7460  175.6950  140.5620 C   0  0  0  0  0  2  0  0  0  0  0  0
  191.0150  178.0380  144.0360 O   0  0  0  0  0  0  0  0  0  0  0  0
  190.2030  177.4040  143.3120 C   0  0  0  0  0  0  0  0  0  0  0  0
  190.8610  176.2790  142.0770 S   0  0  0  0  0  0  0  0  0  0  0  0
  192.0500  177.5070  141.4550 C   0  0  0  0  0  2  0  0  0  0  0  0
  191.0530  176.5550  139.4030 C   0  0  0  0  0  2  0  0  0  0  0  0
  193.3840  176.9330  139.5410 O   0  0  0  0  0  0  0  0  0  0  0  0
  191.6740  175.9360  138.1920 C   0  0  0  0  0  2  0  0  0  0  0  0
  193.1570  176.2150  138.3520 C   0  0  1  0  0  3  0  0  0  0  0  0
  192.1380  177.4480  139.9430 C   0  0  2  0  0  3  0  0  0  0  0  0
  193.7130  176.9700  137.1510 C   0  0  0  0  0  2  0  0  0  0  0  0
  193.6490  176.1780  135.9860 O   0  0  0  0  0  0  0  0  0  0  0  0
  194.5030  175.0600  136.1300 C   0  0  2  0  0  3  0  0  0  0  0  0
  195.9030  175.4520  136.3070 N   0  0  0  0  0  2  0  0  0  0  0  0
  196.7300  174.4730  135.6170 C   0  0  0  0  0  2  0  0  0  0  0  0
  197.6890  174.5620  137.8960 C   0  0  0  0  0  1  0  0  0  0  0  0
  197.6100  173.7470  136.6180 C   0  0  0  0  0  2  0  0  0  0  0  0
  194.3410  174.0500  134.9860 C   0  0  0  0  0  2  0  0  0  0  0  0
  192.8850  173.6460  134.8190 C   0  0  0  0  0  2  0  0  0  0  0  0
  192.3750  172.9580  136.0650 C   0  0  0  0  0  1  0  0  0  0  0  0
  188.3560  177.9970  140.9860 C   0  0  0  0  0  2  0  0  0  0  0  0
  187.2130  178.3530  140.0470 C   0  0  0  0  0  2  0  0  0  0  0  0
  187.7210  178.5520  138.6310 C   0  0  0  0  0  2  0  0  0  0  0  0
  187.8490  177.2120  137.9330 C   0  0  0  0  0  2  0  0  0  0  0  0
  187.2000  177.2610  136.6330 N   0  0  0  0  0  2  0  0  0  0  0  0
  185.0330  175.7670  135.6300 O   0  0  0  0  0  1  0  0  0  0  0  0
  186.5810  175.6560  136.3020 P   0  0  0  0  0  0  0  0  0  0  0  0
  186.5130  174.8710  137.5890 O   0  0  0  0  0  1  0  0  0  0  0  0
  187.6130  174.8610  135.2210 O   0  0  0  0  0  0  0  0  0  0  0  0
  2  4  1  0  0  0  0
  3  5  1  0  0  0  0
  3  2  2  0  0  0  0
  4  6  2  0  0  0  0
  5  7  2  0  0  0  0
  6  1  1  0  0  0  0
  7  8  1  0  0  0  0
  7  6  1  0  0  0  0
  9 11  2  0  0  0  0
 11 10  1  0  0  0  0
 11  8  1  0  0  0  0
 12 10  1  0  0  0  0
 13 21  1  0  0  0  0
 13 20  2  0  0  0  0
 14 24  1  1  0  0  0
 14 22  1  0  0  0  0
 15 21  2  0  0  0  0
 16 22  1  0  0  0  0
 18 20  1  0  0  0  0
 19 17  2  0  0  0  0
 19 12  1  0  0  0  0
 20 16  1  0  0  0  0
 21 14  1  0  0  0  0
 22 19  1  0  0  0  0
 23 24  1  0  0  0  0
 26  2  1  0  0  0  0
 26 25  2  0  0  0  0
 27 26  1  0  0  0  0
 28 27  1  0  0  0  0
 29 33  1  0  0  0  0
 30 33  1  0  0  0  0
 31 32  1  0  0  0  0
 31 29  1  0  0  0  0
 32 34  1  6  0  0  0
 32 30  1  0  0  0  0
 33 28  1  1  0  0  0
 35 36  1  0  0  0  0
 35 34  1  0  0  0  0
 36 41  1  6  0  0  0
 36 37  1  0  0  0  0
 38 37  1  0  0  0  0
 38 40  1  0  0  0  0
 40 39  1  0  0  0  0
 42 41  1  0  0  0  0
 42 43  1  0  0  0  0
 44  3  1  0  0  0  0
 45 44  1  0  0  0  0
 46 45  1  0  0  0  0
 47 46  1  0  0  0  0
 48 47  1  0  0  0  0
 49 50  1  0  0  0  0
 50 48  1  0  0  0  0
 50 51  1  0  0  0  0
 52 50  2  0  0  0  0
M  END
>  <MODEL>
9

>  <REMARK>
 VINA RESULT:      -5.3      3.159     11.212
  Name = 
  22 active torsions:
  status: ('A' for Active; 'I' for Inactive)
    1  A    between atoms: C_5  and  C_10
    2  A    between atoms: C_5  and  C_19
    3  A    between atoms: N_6  and  C_44
    4  A    between atoms: C_8  and  C_40
    5  A    between atoms: C_9  and  C_48
    6  A    between atoms: C_12  and  C_51
    7  A    between atoms: S_13  and  C_37
    8  A    between atoms: S_13  and  C_40
    9  A    between atoms: C_14  and  C_45
   10  A    between atoms: C_14  and  N_50
   11  A    between atoms: N_16  and  C_36
   12  A    between atoms: C_17  and  C_31
   13  A    between atoms: C_19  and  C_45
   14  A    between atoms: N_20  and  C_28
   15  A    between atoms: N_20  and  C_39
   16  A    between atoms: C_28  and  C_48
   17  A    between atoms: C_28  and  O_49
   18  A    between atoms: C_31  and  O_49
   19  A    between atoms: C_33  and  C_36
   20  A    between atoms: C_34  and  C_39
   21  A    between atoms: C_37  and  C_41
   22  A    between atoms: P_42  and  N_50
                            x       y       z     vdW  Elec       q    Type
                         _______ _______ _______ _____ _____    ______ ____

>  <TORSDO>
F 22

$$$$
