=
 OpenBabel10222419093D

 50 56  0  0  1  0  0  0  0  0999 V2000
  188.6720  177.9560  140.5040 C   0  0  0  0  0  0  0  0  0  0  0  0
  185.7360  178.5410  140.5890 C   0  0  0  0  0  2  0  0  0  0  0  0
  185.7450  178.2930  142.7840 C   0  0  0  0  0  0  0  0  0  0  0  0
  187.8540  177.8740  141.6540 C   0  0  0  0  0  0  0  0  0  0  0  0
  186.4880  178.2190  141.6350 C   0  0  0  0  0  0  0  0  0  0  0  0
  184.4950  178.6390  142.5500 C   0  0  0  0  0  2  0  0  0  0  0  0
  189.9930  177.4950  140.5480 C   0  0  0  0  0  0  0  0  0  0  0  0
  188.4190  177.4880  142.9050 C   0  0  0  0  0  0  0  0  0  0  0  0
  188.2540  177.6300  145.3460 O   0  0  0  0  0  1  0  0  0  0  0  0
  184.3520  178.8460  141.0730 C   0  0  2  0  0  3  0  0  0  0  0  0
  187.6610  177.7120  144.0930 C   0  0  0  0  0  0  0  0  0  0  0  0
  189.7460  176.9760  142.9180 C   0  0  0  0  0  0  0  0  0  0  0  0
  186.3140  178.0780  144.0270 C   0  0  0  0  0  3  0  0  0  0  0  0
  190.5030  176.9950  141.7480 C   0  0  0  0  0  3  0  0  0  0  0  0
  190.3380  176.3580  144.0660 N   0  0  0  0  0  2  0  0  0  0  0  0
  191.8460  176.2530  146.0930 C   0  0  0  0  0  1  0  0  0  0  0  0
  191.3330  176.9710  144.8960 C   0  0  0  0  0  0  0  0  0  0  0  0
  191.7920  178.1120  144.6170 O   0  0  0  0  0  0  0  0  0  0  0  0
  188.2070  178.6250  139.3600 O   0  0  0  0  0  0  0  0  0  0  0  0
  186.3130  177.2380  136.7460 C   0  0  2  0  0  3  0  0  0  0  0  0
  187.4810  179.2520  136.1660 O   0  0  0  0  0  1  0  0  0  0  0  0
  187.0190  178.4850  137.2320 C   0  0  2  0  0  3  0  0  0  0  0  0
  184.8270  177.3640  137.0240 C   0  0  0  0  0  1  0  0  0  0  0  0
  186.8650  176.1750  137.5370 N   0  0  0  0  0  2  0  0  0  0  0  0
  188.1910  177.9850  138.0750 C   0  0  2  0  0  3  0  0  0  0  0  0
  187.8690  176.5400  138.2370 C   0  0  0  0  0  2  0  0  0  0  0  0
  183.3660  177.8250  140.4980 C   0  0  0  0  0  2  0  0  0  0  0  0
  181.0980  177.2700  140.0390 N   0  0  0  0  0  2  0  0  0  0  0  0
  181.7050  179.4730  139.9290 C   0  0  0  0  0  2  0  0  0  0  0  0
  181.9490  178.2220  140.6320 N   0  0  0  0  0  0  0  0  0  0  0  0
  180.2640  179.3690  139.5230 C   0  0  2  0  0  3  0  0  0  0  0  0
  179.9360  177.9500  139.6160 N   0  0  0  0  0  2  0  0  0  0  0  0
  180.0510  179.8570  138.1190 C   0  0  0  0  0  0  0  0  0  0  0  0
  179.6770  181.0840  137.9470 N   0  0  0  0  0  0  0  0  0  0  0  0
  181.4940  178.7710  136.5620 O   0  0  0  0  0  1  0  0  0  0  0  0
  180.1600  178.8930  136.9640 C   0  0  0  0  0  2  0  0  0  0  0  0
  179.3360  181.6280  136.6530 C   0  0  0  0  0  2  0  0  0  0  0  0
  180.0010  183.5400  135.2470 C   0  0  0  0  0  2  0  0  0  0  0  0
  179.5900  183.1300  136.6270 C   0  0  2  0  0  3  0  0  0  0  0  0
  181.5660  184.5020  136.7850 N   0  0  0  0  0  2  0  0  0  0  0  0
  180.9400  184.6940  135.4810 C   0  0  0  0  0  2  0  0  0  0  0  0
  180.8070  183.4570  137.4670 C   0  0  0  0  0  2  0  0  0  0  0  0
  190.8010  177.5690  139.3680 N   0  0  0  0  0  2  0  0  0  0  0  0
  191.3170  176.2420  137.4880 O   0  0  0  0  0  0  0  0  0  0  0  0
  193.5320  176.5230  137.4940 N   0  0  0  0  0  0  0  0  0  0  0  0
  192.5010  176.2460  136.7810 C   0  0  0  0  0  0  0  0  0  0  0  0
  191.6020  176.4630  138.8600 C   0  0  1  0  0  3  0  0  0  0  0  0
  193.0940  176.8260  138.8510 C   0  0  0  0  0  2  0  0  0  0  0  0
  193.6550  176.2720  134.6010 C   0  0  0  0  0  1  0  0  0  0  0  0
  192.5770  175.8740  135.4360 O   0  0  0  0  0  0  0  0  0  0  0  0
  1  7  2  0  0  0  0
  1  4  1  0  0  0  0
  2 10  1  0  0  0  0
  2  5  1  0  0  0  0
  3 13  1  0  0  0  0
  4  8  2  0  0  0  0
  5  4  1  0  0  0  0
  5  3  2  0  0  0  0
  6  3  1  0  0  0  0
  7 14  1  0  0  0  0
  8 12  1  0  0  0  0
  8 11  1  0  0  0  0
 10 27  1  6  0  0  0
 10  6  1  0  0  0  0
 11  9  1  0  0  0  0
 12 15  1  0  0  0  0
 13 11  2  0  0  0  0
 14 12  2  0  0  0  0
 15 17  1  0  0  0  0
 17 16  1  0  0  0  0
 18 17  2  0  0  0  0
 19  1  1  0  0  0  0
 20 23  1  1  0  0  0
 20 22  1  0  0  0  0
 20 24  1  0  0  0  0
 22 21  1  6  0  0  0
 22 25  1  0  0  0  0
 24 26  1  0  0  0  0
 25 26  1  0  0  0  0
 25 19  1  1  0  0  0
 27 30  1  0  0  0  0
 28 30  1  0  0  0  0
 29 30  1  0  0  0  0
 31 33  1  6  0  0  0
 31 32  1  0  0  0  0
 31 29  1  0  0  0  0
 32 28  1  0  0  0  0
 34 33  2  0  0  0  0
 35 36  1  0  0  0  0
 36 33  1  0  0  0  0
 37 34  1  0  0  0  0
 38 41  1  0  0  0  0
 38 39  1  0  0  0  0
 39 37  1  6  0  0  0
 39 42  1  0  0  0  0
 40 42  1  0  0  0  0
 41 40  1  0  0  0  0
 43  7  1  0  0  0  0
 44 47  1  0  0  0  0
 45 48  1  0  0  0  0
 46 44  1  0  0  0  0
 46 45  2  0  0  0  0
 47 43  1  6  0  0  0
 48 47  1  0  0  0  0
 49 50  1  0  0  0  0
 50 46  1  0  0  0  0
M  END
>  <MODEL>
1

>  <REMARK>
 VINA RESULT:      -8.7      0.000      0.000
  Name = 
  12 active torsions:
  status: ('A' for Active; 'I' for Inactive)
    1  A    between atoms: C_1  and  O_10
    2  A    between atoms: N_2  and  C_39
    3  A    between atoms: CA_3  and  C_37
    4  A    between atoms: CA_3  and  C_46
    5  A    between atoms: C_8  and  C_15
    6  A    between atoms: C_8  and  N_25
    7  A    between atoms: O_10  and  C_41
    8  A    between atoms: C_12  and  N_34
    9  A    between atoms: C_12  and  C_35
   10  A    between atoms: C_19  and  N_21
   11  A    between atoms: N_21  and  C_49
   12  A    between atoms: O_28  and  C_47
                            x       y       z     vdW  Elec       q    Type
                         _______ _______ _______ _____ _____    ______ ____

>  <TORSDO>
F 12

$$$$
=
 OpenBabel10222419093D

 50 56  0  0  1  0  0  0  0  0999 V2000
  187.5320  178.1590  142.3210 C   0  0  0  0  0  0  0  0  0  0  0  0
  184.9000  178.4120  140.9170 C   0  0  0  0  0  2  0  0  0  0  0  0
  183.8730  178.5910  142.8640 C   0  0  0  0  0  0  0  0  0  0  0  0
  186.2690  178.2070  142.9530 C   0  0  0  0  0  0  0  0  0  0  0  0
  185.0700  178.3850  142.2330 C   0  0  0  0  0  0  0  0  0  0  0  0
  182.8780  178.7420  142.0120 C   0  0  0  0  0  2  0  0  0  0  0  0
  188.6800  177.8700  143.0680 C   0  0  0  0  0  0  0  0  0  0  0  0
  186.1790  178.1350  144.3750 C   0  0  0  0  0  0  0  0  0  0  0  0
  184.8780  178.7220  146.3660 O   0  0  0  0  0  1  0  0  0  0  0  0
  183.4480  178.6450  140.6300 C   0  0  2  0  0  3  0  0  0  0  0  0
  184.9470  178.4950  144.9990 C   0  0  0  0  0  0  0  0  0  0  0  0
  187.3460  177.7900  145.1090 C   0  0  0  0  0  0  0  0  0  0  0  0
  183.7880  178.6850  144.2420 C   0  0  0  0  0  3  0  0  0  0  0  0
  188.5670  177.6700  144.4460 C   0  0  0  0  0  3  0  0  0  0  0  0
  187.3320  177.4750  146.5060 N   0  0  0  0  0  2  0  0  0  0  0  0
  188.1560  177.5940  148.8930 C   0  0  0  0  0  1  0  0  0  0  0  0
  188.2960  177.9470  147.4560 C   0  0  0  0  0  0  0  0  0  0  0  0
  189.2730  178.6530  147.0850 O   0  0  0  0  0  0  0  0  0  0  0  0
  187.6570  178.5400  140.9750 O   0  0  0  0  0  0  0  0  0  0  0  0
  188.9610  178.1040  137.7420 C   0  0  2  0  0  3  0  0  0  0  0  0
  190.5500  177.7680  139.5080 O   0  0  0  0  0  1  0  0  0  0  0  0
  189.3150  178.3290  139.1960 C   0  0  2  0  0  3  0  0  0  0  0  0
  189.0310  179.4250  137.0000 C   0  0  0  0  0  1  0  0  0  0  0  0
  187.6050  177.6330  137.7660 N   0  0  0  0  0  2  0  0  0  0  0  0
  188.2050  177.6470  139.9940 C   0  0  2  0  0  3  0  0  0  0  0  0
  187.1870  177.3690  138.9430 C   0  0  0  0  0  2  0  0  0  0  0  0
  182.8620  177.4270  139.9100 C   0  0  0  0  0  2  0  0  0  0  0  0
  181.9960  176.5340  137.8810 N   0  0  0  0  0  2  0  0  0  0  0  0
  183.9620  177.6990  137.7850 C   0  0  0  0  0  2  0  0  0  0  0  0
  182.6730  177.6260  138.4580 N   0  0  0  0  0  0  0  0  0  0  0  0
  183.6690  177.1720  136.4110 C   0  0  2  0  0  3  0  0  0  0  0  0
  182.4090  176.4460  136.5340 N   0  0  0  0  0  2  0  0  0  0  0  0
  184.7530  176.2490  135.9320 C   0  0  0  0  0  0  0  0  0  0  0  0
  185.1670  175.3230  136.7350 N   0  0  0  0  0  0  0  0  0  0  0  0
  186.0660  177.7220  134.5950 O   0  0  0  0  0  1  0  0  0  0  0  0
  185.4070  176.4900  134.5940 C   0  0  0  0  0  2  0  0  0  0  0  0
  186.2770  174.4520  136.4230 C   0  0  0  0  0  2  0  0  0  0  0  0
  185.4290  172.3370  135.4820 C   0  0  0  0  0  2  0  0  0  0  0  0
  185.9150  173.0040  136.7320 C   0  0  2  0  0  3  0  0  0  0  0  0
  183.8530  171.8550  137.2210 N   0  0  0  0  0  2  0  0  0  0  0  0
  184.4180  171.3380  135.9800 C   0  0  0  0  0  2  0  0  0  0  0  0
  184.7080  172.9610  137.6440 C   0  0  0  0  0  2  0  0  0  0  0  0
  189.9490  177.8080  142.4080 N   0  0  0  0  0  2  0  0  0  0  0  0
  191.3920  177.8030  144.2730 O   0  0  0  0  0  0  0  0  0  0  0  0
  191.3320  175.6160  144.7200 N   0  0  0  0  0  0  0  0  0  0  0  0
  191.5330  176.7900  145.1990 C   0  0  0  0  0  0  0  0  0  0  0  0
  191.1470  177.2270  143.0000 C   0  0  1  0  0  3  0  0  0  0  0  0
  190.9350  175.7420  143.3230 C   0  0  0  0  0  2  0  0  0  0  0  0
  191.7490  176.0800  147.5510 C   0  0  0  0  0  1  0  0  0  0  0  0
  191.9620  177.0210  146.5090 O   0  0  0  0  0  0  0  0  0  0  0  0
  1  4  2  0  0  0  0
  1  7  1  0  0  0  0
  2  5  1  0  0  0  0
  3 13  1  0  0  0  0
  4  8  1  0  0  0  0
  5  3  2  0  0  0  0
  5  4  1  0  0  0  0
  6  3  1  0  0  0  0
  7 14  2  0  0  0  0
  8 11  1  0  0  0  0
  8 12  2  0  0  0  0
 10 27  1  1  0  0  0
 10  2  1  0  0  0  0
 10  6  1  0  0  0  0
 11  9  1  0  0  0  0
 12 15  1  0  0  0  0
 13 11  2  0  0  0  0
 14 12  1  0  0  0  0
 15 17  1  0  0  0  0
 17 16  1  0  0  0  0
 18 17  2  0  0  0  0
 19  1  1  0  0  0  0
 20 23  1  6  0  0  0
 20 24  1  0  0  0  0
 20 22  1  0  0  0  0
 22 21  1  1  0  0  0
 22 25  1  0  0  0  0
 24 26  1  0  0  0  0
 25 19  1  1  0  0  0
 26 25  1  0  0  0  0
 28 30  1  0  0  0  0
 29 30  1  0  0  0  0
 30 27  1  0  0  0  0
 31 33  1  1  0  0  0
 31 32  1  0  0  0  0
 31 29  1  0  0  0  0
 32 28  1  0  0  0  0
 33 34  2  0  0  0  0
 36 35  1  0  0  0  0
 36 33  1  0  0  0  0
 37 34  1  0  0  0  0
 38 41  1  0  0  0  0
 38 39  1  0  0  0  0
 39 37  1  6  0  0  0
 39 42  1  0  0  0  0
 40 42  1  0  0  0  0
 41 40  1  0  0  0  0
 43  7  1  0  0  0  0
 44 46  1  0  0  0  0
 45 46  2  0  0  0  0
 46 50  1  0  0  0  0
 47 43  1  1  0  0  0
 47 48  1  0  0  0  0
 47 44  1  0  0  0  0
 48 45  1  0  0  0  0
 50 49  1  0  0  0  0
M  END
>  <MODEL>
2

>  <REMARK>
 VINA RESULT:      -8.4      3.507      6.125
  Name = 
  12 active torsions:
  status: ('A' for Active; 'I' for Inactive)
    1  A    between atoms: C_1  and  O_10
    2  A    between atoms: N_2  and  C_39
    3  A    between atoms: CA_3  and  C_37
    4  A    between atoms: CA_3  and  C_46
    5  A    between atoms: C_8  and  C_15
    6  A    between atoms: C_8  and  N_25
    7  A    between atoms: O_10  and  C_41
    8  A    between atoms: C_12  and  N_34
    9  A    between atoms: C_12  and  C_35
   10  A    between atoms: C_19  and  N_21
   11  A    between atoms: N_21  and  C_49
   12  A    between atoms: O_28  and  C_47
                            x       y       z     vdW  Elec       q    Type
                         _______ _______ _______ _____ _____    ______ ____

>  <TORSDO>
F 12

$$$$
=
 OpenBabel10222419093D

 50 56  0  0  1  0  0  0  0  0999 V2000
  186.8160  178.5640  141.4710 C   0  0  0  0  0  0  0  0  0  0  0  0
  188.8040  177.6790  139.4140 C   0  0  0  0  0  2  0  0  0  0  0  0
  187.2520  177.8120  137.8490 C   0  0  0  0  0  0  0  0  0  0  0  0
  186.5230  178.2820  140.1170 C   0  0  0  0  0  0  0  0  0  0  0  0
  187.5200  177.9240  139.1870 C   0  0  0  0  0  0  0  0  0  0  0  0
  188.3190  177.4760  137.1520 C   0  0  0  0  0  2  0  0  0  0  0  0
  185.7780  178.8050  142.3780 C   0  0  0  0  0  0  0  0  0  0  0  0
  185.1870  178.4140  139.6340 C   0  0  0  0  0  0  0  0  0  0  0  0
  183.7570  178.8390  137.6900 O   0  0  0  0  0  1  0  0  0  0  0  0
  189.4650  177.3570  138.1090 C   0  0  2  0  0  3  0  0  0  0  0  0
  184.9720  178.4300  138.2240 C   0  0  0  0  0  0  0  0  0  0  0  0
  184.1430  178.6080  140.5790 C   0  0  0  0  0  0  0  0  0  0  0  0
  185.9970  178.0920  137.3360 C   0  0  0  0  0  3  0  0  0  0  0  0
  184.4580  178.8040  141.9230 C   0  0  0  0  0  3  0  0  0  0  0  0
  182.7530  178.5370  140.2400 N   0  0  0  0  0  2  0  0  0  0  0  0
  180.5800  177.3620  139.7020 C   0  0  0  0  0  1  0  0  0  0  0  0
  182.0360  177.3200  140.0020 C   0  0  0  0  0  0  0  0  0  0  0  0
  182.6280  176.2060  140.0310 O   0  0  0  0  0  0  0  0  0  0  0  0
  188.1490  178.7420  141.8770 O   0  0  0  0  0  0  0  0  0  0  0  0
  190.8960  176.9420  143.1220 C   0  0  2  0  0  3  0  0  0  0  0  0
  190.4110  178.9650  144.3160 O   0  0  0  0  0  1  0  0  0  0  0  0
  190.1980  178.2830  143.1210 C   0  0  2  0  0  3  0  0  0  0  0  0
  192.0610  176.9820  142.1500 C   0  0  0  0  0  1  0  0  0  0  0  0
  189.9060  176.0150  142.6520 N   0  0  0  0  0  2  0  0  0  0  0  0
  188.7130  177.9690  142.9460 C   0  0  2  0  0  3  0  0  0  0  0  0
  188.7400  176.5290  142.5650 C   0  0  0  0  0  2  0  0  0  0  0  0
  189.9760  175.9130  138.1320 C   0  0  0  0  0  2  0  0  0  0  0  0
  192.0650  176.9990  138.4770 N   0  0  0  0  0  2  0  0  0  0  0  0
  192.0930  174.8180  137.7850 C   0  0  0  0  0  2  0  0  0  0  0  0
  191.3700  175.7800  138.6040 N   0  0  0  0  0  0  0  0  0  0  0  0
  193.5120  175.3000  137.8510 C   0  0  2  0  0  3  0  0  0  0  0  0
  193.4310  176.6870  138.2990 N   0  0  0  0  0  2  0  0  0  0  0  0
  194.1810  175.2300  136.5080 C   0  0  0  0  0  0  0  0  0  0  0  0
  194.9440  174.2160  136.2570 N   0  0  0  0  0  0  0  0  0  0  0  0
  195.0780  177.3010  135.7400 O   0  0  0  0  0  1  0  0  0  0  0  0
  194.0450  176.3800  135.5410 C   0  0  0  0  0  2  0  0  0  0  0  0
  195.7230  174.1000  135.0450 C   0  0  0  0  0  2  0  0  0  0  0  0
  197.2820  173.0790  136.6570 C   0  0  0  0  0  2  0  0  0  0  0  0
  197.1890  173.8550  135.3800 C   0  0  2  0  0  3  0  0  0  0  0  0
  198.7840  174.9370  136.8270 N   0  0  0  0  0  2  0  0  0  0  0  0
  198.5620  173.5690  137.2810 C   0  0  0  0  0  2  0  0  0  0  0  0
  197.8620  175.1680  135.7180 C   0  0  0  0  0  2  0  0  0  0  0  0
  186.0930  179.0710  143.7490 N   0  0  0  0  0  2  0  0  0  0  0  0
  186.8570  178.0410  145.7290 O   0  0  0  0  0  0  0  0  0  0  0  0
  185.2230  178.7150  147.0930 N   0  0  0  0  0  0  0  0  0  0  0  0
  186.4430  178.3240  147.0140 C   0  0  0  0  0  0  0  0  0  0  0  0
  185.7510  178.1810  144.8510 C   0  0  1  0  0  3  0  0  0  0  0  0
  184.6720  178.8060  145.7460 C   0  0  0  0  0  2  0  0  0  0  0  0
  188.6640  178.0060  148.0370 C   0  0  0  0  0  1  0  0  0  0  0  0
  187.2510  178.1000  148.1320 O   0  0  0  0  0  0  0  0  0  0  0  0
  1 19  1  0  0  0  0
  1  7  1  0  0  0  0
  3  5  2  0  0  0  0
  4  1  2  0  0  0  0
  5  2  1  0  0  0  0
  5  4  1  0  0  0  0
  6  3  1  0  0  0  0
  6 10  1  0  0  0  0
  7 43  1  0  0  0  0
  8  4  1  0  0  0  0
  8 12  2  0  0  0  0
  9 11  1  0  0  0  0
 10 27  1  1  0  0  0
 10  2  1  0  0  0  0
 11  8  1  0  0  0  0
 12 14  1  0  0  0  0
 13  3  1  0  0  0  0
 13 11  2  0  0  0  0
 14  7  2  0  0  0  0
 15 12  1  0  0  0  0
 16 17  1  0  0  0  0
 17 18  2  0  0  0  0
 17 15  1  0  0  0  0
 20 23  1  6  0  0  0
 22 20  1  0  0  0  0
 22 21  1  1  0  0  0
 24 20  1  0  0  0  0
 25 19  1  6  0  0  0
 25 22  1  0  0  0  0
 26 24  1  0  0  0  0
 26 25  1  0  0  0  0
 27 30  1  0  0  0  0
 28 30  1  0  0  0  0
 29 31  1  0  0  0  0
 29 30  1  0  0  0  0
 31 33  1  6  0  0  0
 31 32  1  0  0  0  0
 32 28  1  0  0  0  0
 34 33  2  0  0  0  0
 36 35  1  0  0  0  0
 36 33  1  0  0  0  0
 37 34  1  0  0  0  0
 38 41  1  0  0  0  0
 39 37  1  1  0  0  0
 39 42  1  0  0  0  0
 39 38  1  0  0  0  0
 40 41  1  0  0  0  0
 42 40  1  0  0  0  0
 44 46  1  0  0  0  0
 46 45  2  0  0  0  0
 46 50  1  0  0  0  0
 47 43  1  6  0  0  0
 47 44  1  0  0  0  0
 47 48  1  0  0  0  0
 48 45  1  0  0  0  0
 49 50  1  0  0  0  0
M  END
>  <MODEL>
3

>  <REMARK>
 VINA RESULT:      -8.3      3.113     11.217
  Name = 
  12 active torsions:
  status: ('A' for Active; 'I' for Inactive)
    1  A    between atoms: C_1  and  O_10
    2  A    between atoms: N_2  and  C_39
    3  A    between atoms: CA_3  and  C_37
    4  A    between atoms: CA_3  and  C_46
    5  A    between atoms: C_8  and  C_15
    6  A    between atoms: C_8  and  N_25
    7  A    between atoms: O_10  and  C_41
    8  A    between atoms: C_12  and  N_34
    9  A    between atoms: C_12  and  C_35
   10  A    between atoms: C_19  and  N_21
   11  A    between atoms: N_21  and  C_49
   12  A    between atoms: O_28  and  C_47
                            x       y       z     vdW  Elec       q    Type
                         _______ _______ _______ _____ _____    ______ ____

>  <TORSDO>
F 12

$$$$
=
 OpenBabel10222419093D

 50 56  0  0  1  0  0  0  0  0999 V2000
  185.7120  176.9450  137.0240 C   0  0  0  0  0  0  0  0  0  0  0  0
  187.6880  177.9420  139.0410 C   0  0  0  0  0  2  0  0  0  0  0  0
  189.2360  176.6180  138.1870 C   0  0  0  0  0  0  0  0  0  0  0  0
  187.0230  176.4450  137.2020 C   0  0  0  0  0  0  0  0  0  0  0  0
  187.9220  177.0010  138.1350 C   0  0  0  0  0  0  0  0  0  0  0  0
  189.9070  177.2620  139.1210 C   0  0  0  0  0  2  0  0  0  0  0  0
  184.8220  176.2880  136.1660 C   0  0  0  0  0  0  0  0  0  0  0  0
  187.4980  175.3800  136.3810 C   0  0  0  0  0  0  0  0  0  0  0  0
  189.4550  174.2920  135.3870 O   0  0  0  0  0  1  0  0  0  0  0  0
  188.9590  178.2120  139.7860 C   0  0  2  0  0  3  0  0  0  0  0  0
  188.8980  175.1080  136.3630 C   0  0  0  0  0  0  0  0  0  0  0  0
  186.5650  174.6950  135.5560 C   0  0  0  0  0  0  0  0  0  0  0  0
  189.7580  175.7000  137.2920 C   0  0  0  0  0  3  0  0  0  0  0  0
  185.2550  175.1640  135.4610 C   0  0  0  0  0  3  0  0  0  0  0  0
  186.8740  173.4820  134.8600 N   0  0  0  0  0  2  0  0  0  0  0  0
  187.0680  170.9760  134.5940 C   0  0  0  0  0  1  0  0  0  0  0  0
  186.7650  172.1700  135.4260 C   0  0  0  0  0  0  0  0  0  0  0  0
  186.4270  172.0140  136.6300 O   0  0  0  0  0  0  0  0  0  0  0  0
  185.3480  178.1750  137.5950 O   0  0  0  0  0  0  0  0  0  0  0  0
  183.8170  178.7620  140.7020 C   0  0  2  0  0  3  0  0  0  0  0  0
  183.4910  180.5070  139.0890 O   0  0  0  0  0  1  0  0  0  0  0  0
  184.2760  179.4040  139.4110 C   0  0  2  0  0  3  0  0  0  0  0  0
  184.8530  179.0120  141.7820 C   0  0  0  0  0  1  0  0  0  0  0  0
  183.7530  177.3590  140.4080 N   0  0  0  0  0  2  0  0  0  0  0  0
  184.1320  178.3200  138.3450 C   0  0  2  0  0  3  0  0  0  0  0  0
  183.9010  177.0990  139.1670 C   0  0  0  0  0  2  0  0  0  0  0  0
  188.7870  177.8290  141.2580 C   0  0  0  0  0  2  0  0  0  0  0  0
  190.1840  176.1470  142.1960 N   0  0  0  0  0  2  0  0  0  0  0  0
  190.0890  178.1730  143.2540 C   0  0  0  0  0  2  0  0  0  0  0  0
  190.0570  177.5280  141.9500 N   0  0  0  0  0  0  0  0  0  0  0  0
  190.9600  177.2650  144.0710 C   0  0  2  0  0  3  0  0  0  0  0  0
  190.9850  175.9970  143.3490 N   0  0  0  0  0  2  0  0  0  0  0  0
  190.4030  177.0620  145.4510 C   0  0  0  0  0  0  0  0  0  0  0  0
  189.3210  177.6940  145.7740 N   0  0  0  0  0  0  0  0  0  0  0  0
  191.9960  177.0510  147.2240 O   0  0  0  0  0  1  0  0  0  0  0  0
  191.1660  176.2320  146.4540 C   0  0  0  0  0  2  0  0  0  0  0  0
  188.7590  177.6610  147.1040 C   0  0  0  0  0  2  0  0  0  0  0  0
  186.8010  177.7980  145.6130 C   0  0  0  0  0  2  0  0  0  0  0  0
  187.2370  177.6200  147.0340 C   0  0  2  0  0  3  0  0  0  0  0  0
  185.5130  179.3020  146.9600 N   0  0  0  0  0  2  0  0  0  0  0  0
  185.4840  178.5190  145.7300 C   0  0  0  0  0  2  0  0  0  0  0  0
  186.6600  178.8320  147.7330 C   0  0  0  0  0  2  0  0  0  0  0  0
  183.4930  176.7980  136.0120 N   0  0  0  0  0  2  0  0  0  0  0  0
  181.7640  175.4850  136.9320 O   0  0  0  0  0  0  0  0  0  0  0  0
  180.0340  176.4890  135.9400 N   0  0  0  0  0  0  0  0  0  0  0  0
  180.4190  175.7910  136.9460 C   0  0  0  0  0  0  0  0  0  0  0  0
  182.3300  175.9680  135.7250 C   0  0  1  0  0  3  0  0  0  0  0  0
  181.1960  176.8050  135.1170 C   0  0  0  0  0  2  0  0  0  0  0  0
  179.5830  173.9400  138.3450 C   0  0  0  0  0  1  0  0  0  0  0  0
  179.5420  175.2920  137.9130 O   0  0  0  0  0  0  0  0  0  0  0  0
  1  4  1  0  0  0  0
  1 19  1  0  0  0  0
  2 10  1  0  0  0  0
  3  6  1  0  0  0  0
  4  5  2  0  0  0  0
  5  3  1  0  0  0  0
  5  2  1  0  0  0  0
  6 10  1  0  0  0  0
  7  1  2  0  0  0  0
  8  4  1  0  0  0  0
  9 11  1  0  0  0  0
 10 27  1  1  0  0  0
 11  8  2  0  0  0  0
 11 13  1  0  0  0  0
 12  8  1  0  0  0  0
 13  3  2  0  0  0  0
 14 12  2  0  0  0  0
 14  7  1  0  0  0  0
 15 17  1  0  0  0  0
 15 12  1  0  0  0  0
 16 17  1  0  0  0  0
 17 18  2  0  0  0  0
 20 23  1  1  0  0  0
 22 21  1  6  0  0  0
 22 20  1  0  0  0  0
 24 20  1  0  0  0  0
 25 19  1  1  0  0  0
 25 26  1  0  0  0  0
 25 22  1  0  0  0  0
 26 24  1  0  0  0  0
 27 30  1  0  0  0  0
 28 32  1  0  0  0  0
 29 31  1  0  0  0  0
 30 28  1  0  0  0  0
 30 29  1  0  0  0  0
 31 33  1  1  0  0  0
 32 31  1  0  0  0  0
 33 34  2  0  0  0  0
 33 36  1  0  0  0  0
 34 37  1  0  0  0  0
 36 35  1  0  0  0  0
 38 41  1  0  0  0  0
 38 39  1  0  0  0  0
 39 37  1  6  0  0  0
 39 42  1  0  0  0  0
 40 42  1  0  0  0  0
 41 40  1  0  0  0  0
 43  7  1  0  0  0  0
 44 46  1  0  0  0  0
 45 46  2  0  0  0  0
 46 50  1  0  0  0  0
 47 43  1  1  0  0  0
 47 44  1  0  0  0  0
 48 47  1  0  0  0  0
 48 45  1  0  0  0  0
 50 49  1  0  0  0  0
M  END
>  <MODEL>
4

>  <REMARK>
 VINA RESULT:      -7.8      3.422      9.882
  Name = 
  12 active torsions:
  status: ('A' for Active; 'I' for Inactive)
    1  A    between atoms: C_1  and  O_10
    2  A    between atoms: N_2  and  C_39
    3  A    between atoms: CA_3  and  C_37
    4  A    between atoms: CA_3  and  C_46
    5  A    between atoms: C_8  and  C_15
    6  A    between atoms: C_8  and  N_25
    7  A    between atoms: O_10  and  C_41
    8  A    between atoms: C_12  and  N_34
    9  A    between atoms: C_12  and  C_35
   10  A    between atoms: C_19  and  N_21
   11  A    between atoms: N_21  and  C_49
   12  A    between atoms: O_28  and  C_47
                            x       y       z     vdW  Elec       q    Type
                         _______ _______ _______ _____ _____    ______ ____

>  <TORSDO>
F 12

$$$$
=
 OpenBabel10222419093D

 50 56  0  0  1  0  0  0  0  0999 V2000
  186.6230  177.7700  138.4360 C   0  0  0  0  0  0  0  0  0  0  0  0
  188.4810  177.3800  140.7510 C   0  0  0  0  0  2  0  0  0  0  0  0
  186.9470  178.1790  142.1240 C   0  0  0  0  0  0  0  0  0  0  0  0
  186.3740  178.1850  139.7640 C   0  0  0  0  0  0  0  0  0  0  0  0
  187.2700  177.9180  140.8200 C   0  0  0  0  0  0  0  0  0  0  0  0
  187.9170  177.8510  142.9550 C   0  0  0  0  0  2  0  0  0  0  0  0
  185.7570  178.1560  137.4060 C   0  0  0  0  0  0  0  0  0  0  0  0
  185.1520  178.8470  140.0880 C   0  0  0  0  0  0  0  0  0  0  0  0
  183.5030  179.3410  141.8310 O   0  0  0  0  0  1  0  0  0  0  0  0
  189.0370  177.2820  142.1390 C   0  0  2  0  0  3  0  0  0  0  0  0
  184.7900  178.9730  141.4620 C   0  0  0  0  0  0  0  0  0  0  0  0
  184.3130  179.2750  139.0230 C   0  0  0  0  0  0  0  0  0  0  0  0
  185.7030  178.6740  142.4770 C   0  0  0  0  0  3  0  0  0  0  0  0
  184.6270  178.9180  137.7120 C   0  0  0  0  0  3  0  0  0  0  0  0
  183.1820  180.1330  139.2100 N   0  0  0  0  0  2  0  0  0  0  0  0
  180.7190  180.6820  139.3630 C   0  0  0  0  0  1  0  0  0  0  0  0
  181.8170  179.7130  139.1020 C   0  0  0  0  0  0  0  0  0  0  0  0
  181.5300  178.5290  138.7740 O   0  0  0  0  0  0  0  0  0  0  0  0
  187.6560  176.8570  138.1700 O   0  0  0  0  0  0  0  0  0  0  0  0
  190.6670  175.8960  136.6360 C   0  0  2  0  0  3  0  0  0  0  0  0
  188.7410  175.7680  135.2110 O   0  0  0  0  0  1  0  0  0  0  0  0
  189.1580  175.8390  136.5370 C   0  0  2  0  0  3  0  0  0  0  0  0
  191.1810  174.5910  137.2130 C   0  0  0  0  0  1  0  0  0  0  0  0
  190.9310  176.9680  137.5530 N   0  0  0  0  0  2  0  0  0  0  0  0
  188.6600  177.1320  137.1820 C   0  0  2  0  0  3  0  0  0  0  0  0
  189.8900  177.6460  137.8450 C   0  0  0  0  0  2  0  0  0  0  0  0
  190.2760  178.1720  142.2640 C   0  0  0  0  0  2  0  0  0  0  0  0
  191.1950  176.1700  143.1650 N   0  0  0  0  0  2  0  0  0  0  0  0
  191.3790  178.0850  144.4040 C   0  0  0  0  0  2  0  0  0  0  0  0
  191.3730  177.5630  143.0450 N   0  0  0  0  0  0  0  0  0  0  0  0
  191.9530  176.9570  145.2080 C   0  0  2  0  0  3  0  0  0  0  0  0
  191.8110  175.7710  144.3700 N   0  0  0  0  0  2  0  0  0  0  0  0
  191.2090  176.7680  146.5000 C   0  0  0  0  0  0  0  0  0  0  0  0
  190.1310  177.4580  146.6920 N   0  0  0  0  0  0  0  0  0  0  0  0
  192.6740  176.6100  148.3750 O   0  0  0  0  0  1  0  0  0  0  0  0
  191.7860  175.8820  147.5760 C   0  0  0  0  0  2  0  0  0  0  0  0
  189.3990  177.4400  147.9380 C   0  0  0  0  0  2  0  0  0  0  0  0
  187.6580  177.3750  146.1940 C   0  0  0  0  0  2  0  0  0  0  0  0
  187.9040  177.3180  147.6700 C   0  0  2  0  0  3  0  0  0  0  0  0
  186.1390  178.9020  147.2410 N   0  0  0  0  0  2  0  0  0  0  0  0
  186.3090  178.0350  146.0810 C   0  0  0  0  0  2  0  0  0  0  0  0
  187.1880  178.5450  148.1920 C   0  0  0  0  0  2  0  0  0  0  0  0
  186.0360  177.7420  136.0640 N   0  0  0  0  0  2  0  0  0  0  0  0
  185.5310  175.4400  136.1360 O   0  0  0  0  0  0  0  0  0  0  0  0
  183.3110  175.5910  135.9450 N   0  0  0  0  0  0  0  0  0  0  0  0
  184.2920  174.8780  136.3660 C   0  0  0  0  0  0  0  0  0  0  0  0
  185.3590  176.6380  135.3960 C   0  0  1  0  0  3  0  0  0  0  0  0
  183.8370  176.8400  135.4070 C   0  0  0  0  0  2  0  0  0  0  0  0
  185.0890  173.0290  137.7900 C   0  0  0  0  0  1  0  0  0  0  0  0
  184.1330  173.6000  136.9100 O   0  0  0  0  0  0  0  0  0  0  0  0
  1  4  1  0  0  0  0
  2  5  1  0  0  0  0
  2 10  1  0  0  0  0
  3 13  1  0  0  0  0
  3  6  1  0  0  0  0
  4  8  2  0  0  0  0
  4  5  1  0  0  0  0
  5  3  2  0  0  0  0
  7 14  1  0  0  0  0
  7  1  2  0  0  0  0
  8 11  1  0  0  0  0
 10 27  1  6  0  0  0
 10  6  1  0  0  0  0
 11  9  1  0  0  0  0
 11 13  2  0  0  0  0
 12 15  1  0  0  0  0
 12  8  1  0  0  0  0
 14 12  2  0  0  0  0
 17 15  1  0  0  0  0
 17 16  1  0  0  0  0
 18 17  2  0  0  0  0
 19  1  1  0  0  0  0
 20 23  1  1  0  0  0
 20 24  1  0  0  0  0
 22 21  1  6  0  0  0
 22 20  1  0  0  0  0
 22 25  1  0  0  0  0
 24 26  1  0  0  0  0
 25 26  1  0  0  0  0
 25 19  1  1  0  0  0
 27 30  1  0  0  0  0
 28 32  1  0  0  0  0
 29 31  1  0  0  0  0
 30 28  1  0  0  0  0
 30 29  1  0  0  0  0
 31 33  1  1  0  0  0
 32 31  1  0  0  0  0
 33 34  2  0  0  0  0
 33 36  1  0  0  0  0
 34 37  1  0  0  0  0
 36 35  1  0  0  0  0
 38 39  1  0  0  0  0
 39 37  1  6  0  0  0
 39 42  1  0  0  0  0
 40 42  1  0  0  0  0
 41 38  1  0  0  0  0
 41 40  1  0  0  0  0
 43  7  1  0  0  0  0
 44 46  1  0  0  0  0
 45 46  2  0  0  0  0
 46 50  1  0  0  0  0
 47 48  1  0  0  0  0
 47 43  1  1  0  0  0
 47 44  1  0  0  0  0
 48 45  1  0  0  0  0
 50 49  1  0  0  0  0
M  END
>  <MODEL>
5

>  <REMARK>
 VINA RESULT:      -7.7      2.676      9.358
  Name = 
  12 active torsions:
  status: ('A' for Active; 'I' for Inactive)
    1  A    between atoms: C_1  and  O_10
    2  A    between atoms: N_2  and  C_39
    3  A    between atoms: CA_3  and  C_37
    4  A    between atoms: CA_3  and  C_46
    5  A    between atoms: C_8  and  C_15
    6  A    between atoms: C_8  and  N_25
    7  A    between atoms: O_10  and  C_41
    8  A    between atoms: C_12  and  N_34
    9  A    between atoms: C_12  and  C_35
   10  A    between atoms: C_19  and  N_21
   11  A    between atoms: N_21  and  C_49
   12  A    between atoms: O_28  and  C_47
                            x       y       z     vdW  Elec       q    Type
                         _______ _______ _______ _____ _____    ______ ____

>  <TORSDO>
F 12

$$$$
=
 OpenBabel10222419093D

 50 56  0  0  1  0  0  0  0  0999 V2000
  187.9000  178.4280  140.6510 C   0  0  0  0  0  0  0  0  0  0  0  0
  185.0470  178.9760  139.9240 C   0  0  0  0  0  2  0  0  0  0  0  0
  185.3190  177.8950  138.0180 C   0  0  0  0  0  0  0  0  0  0  0  0
  187.2960  178.1140  139.4120 C   0  0  0  0  0  0  0  0  0  0  0  0
  185.9300  178.3490  139.1560 C   0  0  0  0  0  0  0  0  0  0  0  0
  184.0410  178.2120  137.9750 C   0  0  0  0  0  2  0  0  0  0  0  0
  189.2820  178.2800  140.8150 C   0  0  0  0  0  0  0  0  0  0  0  0
  188.0590  177.4820  138.3860 C   0  0  0  0  0  0  0  0  0  0  0  0
  188.0120  176.0320  136.4120 O   0  0  0  0  0  1  0  0  0  0  0  0
  183.7180  178.9570  139.2340 C   0  0  2  0  0  3  0  0  0  0  0  0
  187.3670  176.9000  137.2830 C   0  0  0  0  0  0  0  0  0  0  0  0
  189.4680  177.3880  138.5530 C   0  0  0  0  0  0  0  0  0  0  0  0
  186.0050  177.1390  137.0820 C   0  0  0  0  0  3  0  0  0  0  0  0
  190.0470  177.7810  139.7590 C   0  0  0  0  0  3  0  0  0  0  0  0
  190.3570  176.9770  137.5080 N   0  0  0  0  0  2  0  0  0  0  0  0
  191.8720  175.3620  136.2880 C   0  0  0  0  0  1  0  0  0  0  0  0
  191.0020  175.6990  137.4460 C   0  0  0  0  0  0  0  0  0  0  0  0
  190.8520  174.8550  138.3710 O   0  0  0  0  0  0  0  0  0  0  0  0
  187.0990  178.7540  141.7570 O   0  0  0  0  0  0  0  0  0  0  0  0
  185.7400  177.8250  144.8610 C   0  0  2  0  0  3  0  0  0  0  0  0
  184.1490  177.9160  143.0680 O   0  0  0  0  0  1  0  0  0  0  0  0
  185.4150  178.3310  143.4730 C   0  0  2  0  0  3  0  0  0  0  0  0
  185.7470  178.9920  145.8310 C   0  0  0  0  0  1  0  0  0  0  0  0
  187.0630  177.2810  144.7490 N   0  0  0  0  0  2  0  0  0  0  0  0
  186.4870  177.7350  142.5620 C   0  0  2  0  0  3  0  0  0  0  0  0
  187.4750  177.2080  143.5430 C   0  0  0  0  0  2  0  0  0  0  0  0
  183.2910  180.3880  138.8950 C   0  0  0  0  0  2  0  0  0  0  0  0
  181.2640  179.9150  140.0500 N   0  0  0  0  0  2  0  0  0  0  0  0
  181.1850  180.0790  137.7690 C   0  0  0  0  0  2  0  0  0  0  0  0
  181.8310  180.6070  138.9620 N   0  0  0  0  0  0  0  0  0  0  0  0
  179.8170  179.6980  138.2540 C   0  0  2  0  0  3  0  0  0  0  0  0
  179.9290  179.6120  139.7060 N   0  0  0  0  0  2  0  0  0  0  0  0
  179.3820  178.3740  137.6910 C   0  0  0  0  0  0  0  0  0  0  0  0
  179.5040  177.3230  138.4350 N   0  0  0  0  0  0  0  0  0  0  0  0
  180.0310  178.0820  135.4150 O   0  0  0  0  0  1  0  0  0  0  0  0
  178.9310  178.2810  136.2550 C   0  0  0  0  0  2  0  0  0  0  0  0
  179.2230  175.9870  137.9600 C   0  0  0  0  0  2  0  0  0  0  0  0
  181.3390  175.7220  139.1980 C   0  0  0  0  0  2  0  0  0  0  0  0
  180.4190  175.0750  138.2090 C   0  0  2  0  0  3  0  0  0  0  0  0
  182.6680  174.9810  137.3480 N   0  0  0  0  0  2  0  0  0  0  0  0
  182.7050  175.2430  138.7820 C   0  0  0  0  0  2  0  0  0  0  0  0
  181.2610  174.9820  136.9550 C   0  0  0  0  0  2  0  0  0  0  0  0
  189.8780  178.6210  142.0720 N   0  0  0  0  0  2  0  0  0  0  0  0
  191.2840  178.3860  143.9500 O   0  0  0  0  0  0  0  0  0  0  0  0
  191.2300  176.1600  144.1160 N   0  0  0  0  0  0  0  0  0  0  0  0
  191.4140  177.2650  144.7440 C   0  0  0  0  0  0  0  0  0  0  0  0
  191.0690  177.9750  142.6100 C   0  0  1  0  0  3  0  0  0  0  0  0
  190.8600  176.4600  142.7380 C   0  0  0  0  0  2  0  0  0  0  0  0
  191.7500  176.2050  146.9450 C   0  0  0  0  0  1  0  0  0  0  0  0
  191.8150  177.3300  146.0810 O   0  0  0  0  0  0  0  0  0  0  0  0
  1  7  1  0  0  0  0
  1 19  1  0  0  0  0
  3  5  2  0  0  0  0
  4  1  2  0  0  0  0
  5  4  1  0  0  0  0
  5  2  1  0  0  0  0
  6  3  1  0  0  0  0
  6 10  1  0  0  0  0
  7 43  1  0  0  0  0
  8 12  2  0  0  0  0
  8  4  1  0  0  0  0
  9 11  1  0  0  0  0
 10 27  1  6  0  0  0
 10  2  1  0  0  0  0
 11  8  1  0  0  0  0
 12 14  1  0  0  0  0
 13 11  2  0  0  0  0
 13  3  1  0  0  0  0
 14  7  2  0  0  0  0
 15 12  1  0  0  0  0
 16 17  1  0  0  0  0
 17 15  1  0  0  0  0
 17 18  2  0  0  0  0
 20 23  1  1  0  0  0
 22 21  1  6  0  0  0
 22 20  1  0  0  0  0
 24 20  1  0  0  0  0
 25 19  1  6  0  0  0
 25 22  1  0  0  0  0
 25 26  1  0  0  0  0
 26 24  1  0  0  0  0
 27 30  1  0  0  0  0
 29 31  1  0  0  0  0
 29 30  1  0  0  0  0
 30 28  1  0  0  0  0
 31 33  1  6  0  0  0
 31 32  1  0  0  0  0
 32 28  1  0  0  0  0
 33 34  2  0  0  0  0
 35 36  1  0  0  0  0
 36 33  1  0  0  0  0
 37 34  1  0  0  0  0
 39 37  1  6  0  0  0
 39 38  1  0  0  0  0
 40 41  1  0  0  0  0
 41 38  1  0  0  0  0
 42 40  1  0  0  0  0
 42 39  1  0  0  0  0
 44 46  1  0  0  0  0
 45 46  2  0  0  0  0
 46 50  1  0  0  0  0
 47 43  1  1  0  0  0
 47 48  1  0  0  0  0
 47 44  1  0  0  0  0
 48 45  1  0  0  0  0
 50 49  1  0  0  0  0
M  END
>  <MODEL>
6

>  <REMARK>
 VINA RESULT:      -7.5      2.202      6.135
  Name = 
  12 active torsions:
  status: ('A' for Active; 'I' for Inactive)
    1  A    between atoms: C_1  and  O_10
    2  A    between atoms: N_2  and  C_39
    3  A    between atoms: CA_3  and  C_37
    4  A    between atoms: CA_3  and  C_46
    5  A    between atoms: C_8  and  C_15
    6  A    between atoms: C_8  and  N_25
    7  A    between atoms: O_10  and  C_41
    8  A    between atoms: C_12  and  N_34
    9  A    between atoms: C_12  and  C_35
   10  A    between atoms: C_19  and  N_21
   11  A    between atoms: N_21  and  C_49
   12  A    between atoms: O_28  and  C_47
                            x       y       z     vdW  Elec       q    Type
                         _______ _______ _______ _____ _____    ______ ____

>  <TORSDO>
F 12

$$$$
=
 OpenBabel10222419093D

 50 56  0  0  1  0  0  0  0  0999 V2000
  184.0900  177.7980  138.5310 C   0  0  0  0  0  0  0  0  0  0  0  0
  186.2850  177.7940  140.5680 C   0  0  0  0  0  2  0  0  0  0  0  0
  184.8870  178.5860  142.0830 C   0  0  0  0  0  0  0  0  0  0  0  0
  183.9900  178.3160  139.8430 C   0  0  0  0  0  0  0  0  0  0  0  0
  185.0470  178.2300  140.7710 C   0  0  0  0  0  0  0  0  0  0  0  0
  185.9920  178.4240  142.7840 C   0  0  0  0  0  2  0  0  0  0  0  0
  183.0530  178.0080  137.6140 C   0  0  0  0  0  0  0  0  0  0  0  0
  182.7670  178.8980  140.2890 C   0  0  0  0  0  0  0  0  0  0  0  0
  181.3380  179.4130  142.2120 O   0  0  0  0  0  1  0  0  0  0  0  0
  187.0370  177.8770  141.8610 C   0  0  2  0  0  3  0  0  0  0  0  0
  182.5900  179.1240  141.6870 C   0  0  0  0  0  0  0  0  0  0  0  0
  181.7480  179.1480  139.3300 C   0  0  0  0  0  0  0  0  0  0  0  0
  183.6620  179.0030  142.5750 C   0  0  0  0  0  3  0  0  0  0  0  0
  181.9080  178.6960  138.0200 C   0  0  0  0  0  3  0  0  0  0  0  0
  180.5750  179.9200  139.6120 N   0  0  0  0  0  2  0  0  0  0  0  0
  179.1270  181.9920  139.5710 C   0  0  0  0  0  1  0  0  0  0  0  0
  180.4090  181.3010  139.2700 C   0  0  0  0  0  0  0  0  0  0  0  0
  181.3460  181.9480  138.7260 O   0  0  0  0  0  0  0  0  0  0  0  0
  185.1600  176.9560  138.1900 O   0  0  0  0  0  0  0  0  0  0  0  0
  188.4810  177.5840  137.2320 C   0  0  2  0  0  3  0  0  0  0  0  0
  187.5290  175.6020  136.2730 O   0  0  0  0  0  1  0  0  0  0  0  0
  187.3930  176.5360  137.2970 C   0  0  2  0  0  3  0  0  0  0  0  0
  189.4310  177.3920  138.4000 C   0  0  0  0  0  1  0  0  0  0  0  0
  187.7910  178.8350  137.3710 N   0  0  0  0  0  2  0  0  0  0  0  0
  186.0800  177.3030  137.1450 C   0  0  2  0  0  3  0  0  0  0  0  0
  186.5210  178.7160  137.3120 C   0  0  0  0  0  2  0  0  0  0  0  0
  188.1870  178.8790  141.7260 C   0  0  0  0  0  2  0  0  0  0  0  0
  189.4660  176.9030  142.0760 N   0  0  0  0  0  2  0  0  0  0  0  0
  189.9440  178.7310  143.3670 C   0  0  0  0  0  2  0  0  0  0  0  0
  189.5140  178.3100  142.0410 N   0  0  0  0  0  0  0  0  0  0  0  0
  190.8160  177.6000  143.8260 C   0  0  2  0  0  3  0  0  0  0  0  0
  190.4700  176.4700  142.9690 N   0  0  0  0  0  2  0  0  0  0  0  0
  190.5570  177.2540  145.2650 C   0  0  0  0  0  0  0  0  0  0  0  0
  189.3830  177.4940  145.7510 N   0  0  0  0  0  0  0  0  0  0  0  0
  192.0480  175.4570  145.7490 O   0  0  0  0  0  1  0  0  0  0  0  0
  191.6860  176.7530  146.1310 C   0  0  0  0  0  2  0  0  0  0  0  0
  189.0560  177.3070  147.1460 C   0  0  0  0  0  2  0  0  0  0  0  0
  186.8690  177.5020  146.0250 C   0  0  0  0  0  2  0  0  0  0  0  0
  187.5510  177.4200  147.3560 C   0  0  2  0  0  3  0  0  0  0  0  0
  185.9940  179.2590  147.3980 N   0  0  0  0  0  2  0  0  0  0  0  0
  185.6650  178.3660  146.2930 C   0  0  0  0  0  2  0  0  0  0  0  0
  187.2230  178.7490  148.0010 C   0  0  0  0  0  2  0  0  0  0  0  0
  183.1800  177.4920  136.2840 N   0  0  0  0  0  2  0  0  0  0  0  0
  183.6590  175.1940  136.0640 O   0  0  0  0  0  0  0  0  0  0  0  0
  181.9040  174.3900  137.1860 N   0  0  0  0  0  0  0  0  0  0  0  0
  183.1080  174.1660  136.8010 C   0  0  0  0  0  0  0  0  0  0  0  0
  182.6720  176.1930  135.8630 C   0  0  1  0  0  3  0  0  0  0  0  0
  181.5210  175.7340  136.7690 C   0  0  0  0  0  2  0  0  0  0  0  0
  185.1490  172.8870  137.3290 C   0  0  0  0  0  1  0  0  0  0  0  0
  183.7670  172.9520  137.0110 O   0  0  0  0  0  0  0  0  0  0  0  0
  1  4  1  0  0  0  0
  2  5  1  0  0  0  0
  2 10  1  0  0  0  0
  3 13  1  0  0  0  0
  3  6  1  0  0  0  0
  4  8  2  0  0  0  0
  4  5  1  0  0  0  0
  5  3  2  0  0  0  0
  7 14  1  0  0  0  0
  7  1  2  0  0  0  0
  8 11  1  0  0  0  0
 10 27  1  6  0  0  0
 10  6  1  0  0  0  0
 11  9  1  0  0  0  0
 11 13  2  0  0  0  0
 12 15  1  0  0  0  0
 12  8  1  0  0  0  0
 14 12  2  0  0  0  0
 17 16  1  0  0  0  0
 17 15  1  0  0  0  0
 18 17  2  0  0  0  0
 19  1  1  0  0  0  0
 20 22  1  0  0  0  0
 20 24  1  0  0  0  0
 20 23  1  1  0  0  0
 22 21  1  6  0  0  0
 25 22  1  0  0  0  0
 25 26  1  0  0  0  0
 25 19  1  1  0  0  0
 26 24  1  0  0  0  0
 27 30  1  0  0  0  0
 28 32  1  0  0  0  0
 29 31  1  0  0  0  0
 30 28  1  0  0  0  0
 30 29  1  0  0  0  0
 31 33  1  1  0  0  0
 32 31  1  0  0  0  0
 33 34  2  0  0  0  0
 33 36  1  0  0  0  0
 34 37  1  0  0  0  0
 35 36  1  0  0  0  0
 38 41  1  0  0  0  0
 38 39  1  0  0  0  0
 39 37  1  6  0  0  0
 39 42  1  0  0  0  0
 40 42  1  0  0  0  0
 41 40  1  0  0  0  0
 43  7  1  0  0  0  0
 44 46  1  0  0  0  0
 46 50  1  0  0  0  0
 46 45  2  0  0  0  0
 47 44  1  0  0  0  0
 47 43  1  1  0  0  0
 47 48  1  0  0  0  0
 48 45  1  0  0  0  0
 50 49  1  0  0  0  0
M  END
>  <MODEL>
7

>  <REMARK>
 VINA RESULT:      -7.4      2.846      9.366
  Name = 
  12 active torsions:
  status: ('A' for Active; 'I' for Inactive)
    1  A    between atoms: C_1  and  O_10
    2  A    between atoms: N_2  and  C_39
    3  A    between atoms: CA_3  and  C_37
    4  A    between atoms: CA_3  and  C_46
    5  A    between atoms: C_8  and  C_15
    6  A    between atoms: C_8  and  N_25
    7  A    between atoms: O_10  and  C_41
    8  A    between atoms: C_12  and  N_34
    9  A    between atoms: C_12  and  C_35
   10  A    between atoms: C_19  and  N_21
   11  A    between atoms: N_21  and  C_49
   12  A    between atoms: O_28  and  C_47
                            x       y       z     vdW  Elec       q    Type
                         _______ _______ _______ _____ _____    ______ ____

>  <TORSDO>
F 12

$$$$
=
 OpenBabel10222419093D

 50 56  0  0  1  0  0  0  0  0999 V2000
  183.9110  178.6460  140.0000 C   0  0  0  0  0  0  0  0  0  0  0  0
  186.6140  178.0650  141.1500 C   0  0  0  0  0  2  0  0  0  0  0  0
  185.7700  178.1450  143.1890 C   0  0  0  0  0  0  0  0  0  0  0  0
  184.2320  178.6430  141.3770 C   0  0  0  0  0  0  0  0  0  0  0  0
  185.5140  178.3030  141.8530 C   0  0  0  0  0  0  0  0  0  0  0  0
  187.0260  177.8210  143.4230 C   0  0  0  0  0  2  0  0  0  0  0  0
  182.6570  179.0980  139.5720 C   0  0  0  0  0  0  0  0  0  0  0  0
  183.2240  178.9300  142.3450 C   0  0  0  0  0  0  0  0  0  0  0  0
  182.4600  178.6020  144.6500 O   0  0  0  0  0  1  0  0  0  0  0  0
  187.7230  177.7270  142.0990 C   0  0  2  0  0  3  0  0  0  0  0  0
  183.4840  178.6180  143.7120 C   0  0  0  0  0  0  0  0  0  0  0  0
  181.9750  179.4350  141.8900 C   0  0  0  0  0  0  0  0  0  0  0  0
  184.7670  178.2620  144.1360 C   0  0  0  0  0  3  0  0  0  0  0  0
  181.7160  179.5030  140.5210 C   0  0  0  0  0  3  0  0  0  0  0  0
  180.9740  179.9620  142.7680 N   0  0  0  0  0  2  0  0  0  0  0  0
  178.9380  179.8390  144.2610 C   0  0  0  0  0  1  0  0  0  0  0  0
  179.8950  179.1980  143.3210 C   0  0  0  0  0  0  0  0  0  0  0  0
  179.7380  177.9860  143.0110 O   0  0  0  0  0  0  0  0  0  0  0  0
  184.7940  178.0680  139.0740 O   0  0  0  0  0  0  0  0  0  0  0  0
  184.7580  175.4370  136.7460 C   0  0  2  0  0  3  0  0  0  0  0  0
  182.6460  175.8580  137.8010 O   0  0  0  0  0  1  0  0  0  0  0  0
  184.0180  176.0730  137.9020 C   0  0  2  0  0  3  0  0  0  0  0  0
  185.5530  174.2480  137.2550 C   0  0  0  0  0  1  0  0  0  0  0  0
  185.6560  176.4570  136.2840 N   0  0  0  0  0  2  0  0  0  0  0  0
  184.3300  177.5650  137.8120 C   0  0  2  0  0  3  0  0  0  0  0  0
  185.4410  177.5950  136.8200 C   0  0  0  0  0  2  0  0  0  0  0  0
  188.8200  178.7920  142.0130 C   0  0  0  0  0  2  0  0  0  0  0  0
  190.2180  176.8760  142.2120 N   0  0  0  0  0  2  0  0  0  0  0  0
  190.5390  178.5950  143.6880 C   0  0  0  0  0  2  0  0  0  0  0  0
  190.1730  178.2810  142.3140 N   0  0  0  0  0  0  0  0  0  0  0  0
  191.4720  177.4820  144.0630 C   0  0  2  0  0  3  0  0  0  0  0  0
  191.2250  176.4230  143.0910 N   0  0  0  0  0  2  0  0  0  0  0  0
  191.2000  176.9810  145.4530 C   0  0  0  0  0  0  0  0  0  0  0  0
  190.1010  177.3440  146.0310 N   0  0  0  0  0  0  0  0  0  0  0  0
  192.0590  174.8110  145.9390 O   0  0  0  0  0  1  0  0  0  0  0  0
  192.2490  176.1750  146.1790 C   0  0  0  0  0  2  0  0  0  0  0  0
  189.7880  177.0150  147.4020 C   0  0  0  0  0  2  0  0  0  0  0  0
  187.6620  177.8540  146.4790 C   0  0  0  0  0  2  0  0  0  0  0  0
  188.2950  177.1840  147.6590 C   0  0  2  0  0  3  0  0  0  0  0  0
  186.9220  179.0010  148.4480 N   0  0  0  0  0  2  0  0  0  0  0  0
  186.5400  178.6560  147.0830 C   0  0  0  0  0  2  0  0  0  0  0  0
  188.0790  178.1740  148.7830 C   0  0  0  0  0  2  0  0  0  0  0  0
  182.3580  179.1120  138.1720 N   0  0  0  0  0  2  0  0  0  0  0  0
  181.1860  181.0380  137.4800 O   0  0  0  0  0  0  0  0  0  0  0  0
  180.6680  180.3740  135.4120 N   0  0  0  0  0  0  0  0  0  0  0  0
  180.8640  181.3810  136.1830 C   0  0  0  0  0  0  0  0  0  0  0  0
  181.1160  179.6270  137.6110 C   0  0  1  0  0  3  0  0  0  0  0  0
  180.9290  179.1520  136.1630 C   0  0  0  0  0  2  0  0  0  0  0  0
  180.7930  183.7950  136.6810 C   0  0  0  0  0  1  0  0  0  0  0  0
  180.6640  182.7050  135.7810 O   0  0  0  0  0  0  0  0  0  0  0  0
  1  4  1  0  0  0  0
  2  5  1  0  0  0  0
  2 10  1  0  0  0  0
  3  6  1  0  0  0  0
  3 13  1  0  0  0  0
  4  5  1  0  0  0  0
  4  8  2  0  0  0  0
  5  3  2  0  0  0  0
  7  1  2  0  0  0  0
  7 14  1  0  0  0  0
  8 11  1  0  0  0  0
 10 27  1  1  0  0  0
 10  6  1  0  0  0  0
 11 13  2  0  0  0  0
 11  9  1  0  0  0  0
 12  8  1  0  0  0  0
 12 15  1  0  0  0  0
 14 12  2  0  0  0  0
 15 17  1  0  0  0  0
 17 16  1  0  0  0  0
 18 17  2  0  0  0  0
 19  1  1  0  0  0  0
 20 23  1  1  0  0  0
 20 22  1  0  0  0  0
 22 21  1  6  0  0  0
 24 20  1  0  0  0  0
 24 26  1  0  0  0  0
 25 22  1  0  0  0  0
 25 19  1  1  0  0  0
 26 25  1  0  0  0  0
 27 30  1  0  0  0  0
 28 30  1  0  0  0  0
 28 32  1  0  0  0  0
 29 31  1  0  0  0  0
 30 29  1  0  0  0  0
 31 33  1  1  0  0  0
 32 31  1  0  0  0  0
 33 34  2  0  0  0  0
 33 36  1  0  0  0  0
 34 37  1  0  0  0  0
 35 36  1  0  0  0  0
 38 41  1  0  0  0  0
 38 39  1  0  0  0  0
 39 37  1  6  0  0  0
 39 42  1  0  0  0  0
 40 42  1  0  0  0  0
 41 40  1  0  0  0  0
 43  7  1  0  0  0  0
 44 47  1  0  0  0  0
 45 48  1  0  0  0  0
 45 46  2  0  0  0  0
 46 44  1  0  0  0  0
 47 43  1  6  0  0  0
 48 47  1  0  0  0  0
 50 46  1  0  0  0  0
 50 49  1  0  0  0  0
M  END
>  <MODEL>
8

>  <REMARK>
 VINA RESULT:      -7.3      3.281      9.987
  Name = 
  12 active torsions:
  status: ('A' for Active; 'I' for Inactive)
    1  A    between atoms: C_1  and  O_10
    2  A    between atoms: N_2  and  C_39
    3  A    between atoms: CA_3  and  C_37
    4  A    between atoms: CA_3  and  C_46
    5  A    between atoms: C_8  and  C_15
    6  A    between atoms: C_8  and  N_25
    7  A    between atoms: O_10  and  C_41
    8  A    between atoms: C_12  and  N_34
    9  A    between atoms: C_12  and  C_35
   10  A    between atoms: C_19  and  N_21
   11  A    between atoms: N_21  and  C_49
   12  A    between atoms: O_28  and  C_47
                            x       y       z     vdW  Elec       q    Type
                         _______ _______ _______ _____ _____    ______ ____

>  <TORSDO>
F 12

$$$$
=
 OpenBabel10222419093D

 50 56  0  0  1  0  0  0  0  0999 V2000
  185.9950  176.6370  136.8090 C   0  0  0  0  0  0  0  0  0  0  0  0
  187.4970  178.1010  138.9460 C   0  0  0  0  0  2  0  0  0  0  0  0
  189.3230  176.9620  138.4490 C   0  0  0  0  0  0  0  0  0  0  0  0
  187.3220  176.3630  137.2100 C   0  0  0  0  0  0  0  0  0  0  0  0
  187.9900  177.1310  138.1860 C   0  0  0  0  0  0  0  0  0  0  0  0
  189.7550  177.7810  139.3880 C   0  0  0  0  0  2  0  0  0  0  0  0
  185.3390  175.7780  135.9190 C   0  0  0  0  0  0  0  0  0  0  0  0
  188.0570  175.3160  136.5780 C   0  0  0  0  0  0  0  0  0  0  0  0
  190.2710  174.4600  135.9710 O   0  0  0  0  0  1  0  0  0  0  0  0
  188.5960  178.6280  139.8160 C   0  0  2  0  0  3  0  0  0  0  0  0
  189.4690  175.2630  136.7720 C   0  0  0  0  0  0  0  0  0  0  0  0
  187.3590  174.4260  135.7180 C   0  0  0  0  0  0  0  0  0  0  0  0
  190.0930  176.0600  137.7350 C   0  0  0  0  0  3  0  0  0  0  0  0
  186.0240  174.6760  135.4030 C   0  0  0  0  0  3  0  0  0  0  0  0
  187.9320  173.2180  135.2040 N   0  0  0  0  0  2  0  0  0  0  0  0
  188.5280  170.7620  135.2460 C   0  0  0  0  0  1  0  0  0  0  0  0
  187.9440  171.9640  135.8970 C   0  0  0  0  0  0  0  0  0  0  0  0
  187.4750  171.8680  137.0630 O   0  0  0  0  0  0  0  0  0  0  0  0
  185.3820  177.8420  137.1910 O   0  0  0  0  0  0  0  0  0  0  0  0
  182.2670  178.5270  138.6650 C   0  0  2  0  0  3  0  0  0  0  0  0
  182.9590  176.2360  138.8260 O   0  0  0  0  0  1  0  0  0  0  0  0
  183.1730  177.4320  138.1460 C   0  0  2  0  0  3  0  0  0  0  0  0
  181.2260  178.8560  137.6110 C   0  0  0  0  0  1  0  0  0  0  0  0
  183.1340  179.6550  138.8580 N   0  0  0  0  0  2  0  0  0  0  0  0
  184.5960  177.9330  138.3890 C   0  0  2  0  0  3  0  0  0  0  0  0
  184.3710  179.3650  138.7330 C   0  0  0  0  0  2  0  0  0  0  0  0
  188.2680  178.3550  141.2870 C   0  0  0  0  0  2  0  0  0  0  0  0
  186.2980  179.6090  141.7470 N   0  0  0  0  0  2  0  0  0  0  0  0
  186.5740  177.6120  142.8300 C   0  0  0  0  0  2  0  0  0  0  0  0
  186.8190  178.3110  141.5760 N   0  0  0  0  0  0  0  0  0  0  0  0
  185.3150  178.2460  143.3420 C   0  0  2  0  0  3  0  0  0  0  0  0
  185.1910  179.5060  142.6170 N   0  0  0  0  0  2  0  0  0  0  0  0
  185.3910  178.5060  144.8200 C   0  0  0  0  0  0  0  0  0  0  0  0
  186.5030  178.2510  145.4300 N   0  0  0  0  0  0  0  0  0  0  0  0
  183.0610  178.9990  144.7020 O   0  0  0  0  0  1  0  0  0  0  0  0
  184.1560  178.9400  145.5700 C   0  0  0  0  0  2  0  0  0  0  0  0
  186.6550  178.3570  146.8630 C   0  0  0  0  0  2  0  0  0  0  0  0
  188.6440  178.2460  148.3150 C   0  0  0  0  0  2  0  0  0  0  0  0
  187.8060  177.4800  147.3380 C   0  0  2  0  0  3  0  0  0  0  0  0
  190.1230  177.2620  146.7090 N   0  0  0  0  0  2  0  0  0  0  0  0
  190.0330  177.7100  148.0940 C   0  0  0  0  0  2  0  0  0  0  0  0
  188.7580  177.2190  146.1900 C   0  0  0  0  0  2  0  0  0  0  0  0
  183.9880  176.0610  135.5390 N   0  0  0  0  0  2  0  0  0  0  0  0
  182.7510  174.2150  136.3300 O   0  0  0  0  0  0  0  0  0  0  0  0
  180.7120  174.9290  135.7680 N   0  0  0  0  0  0  0  0  0  0  0  0
  181.3910  174.1730  136.5520 C   0  0  0  0  0  0  0  0  0  0  0  0
  183.0060  175.0390  135.2030 C   0  0  1  0  0  3  0  0  0  0  0  0
  181.6350  175.6680  134.9150 C   0  0  0  0  0  2  0  0  0  0  0  0
  181.0370  171.9020  137.4470 C   0  0  0  0  0  1  0  0  0  0  0  0
  180.8040  173.3030  137.4750 O   0  0  0  0  0  0  0  0  0  0  0  0
  1 19  1  0  0  0  0
  1  4  1  0  0  0  0
  2 10  1  0  0  0  0
  3  6  1  0  0  0  0
  4  5  2  0  0  0  0
  5  3  1  0  0  0  0
  5  2  1  0  0  0  0
  6 10  1  0  0  0  0
  7  1  2  0  0  0  0
  8 11  2  0  0  0  0
  8  4  1  0  0  0  0
  9 11  1  0  0  0  0
 10 27  1  1  0  0  0
 11 13  1  0  0  0  0
 12  8  1  0  0  0  0
 13  3  2  0  0  0  0
 14 12  2  0  0  0  0
 14  7  1  0  0  0  0
 15 12  1  0  0  0  0
 15 17  1  0  0  0  0
 16 17  1  0  0  0  0
 17 18  2  0  0  0  0
 20 23  1  6  0  0  0
 20 24  1  0  0  0  0
 22 25  1  0  0  0  0
 22 20  1  0  0  0  0
 22 21  1  1  0  0  0
 25 19  1  6  0  0  0
 25 26  1  0  0  0  0
 26 24  1  0  0  0  0
 27 30  1  0  0  0  0
 28 32  1  0  0  0  0
 29 31  1  0  0  0  0
 30 28  1  0  0  0  0
 30 29  1  0  0  0  0
 31 33  1  1  0  0  0
 32 31  1  0  0  0  0
 33 34  2  0  0  0  0
 33 36  1  0  0  0  0
 34 37  1  0  0  0  0
 35 36  1  0  0  0  0
 39 37  1  6  0  0  0
 39 38  1  0  0  0  0
 40 41  1  0  0  0  0
 41 38  1  0  0  0  0
 42 40  1  0  0  0  0
 42 39  1  0  0  0  0
 43  7  1  0  0  0  0
 44 46  1  0  0  0  0
 45 46  2  0  0  0  0
 46 50  1  0  0  0  0
 47 43  1  1  0  0  0
 47 44  1  0  0  0  0
 48 47  1  0  0  0  0
 48 45  1  0  0  0  0
 49 50  1  0  0  0  0
M  END
>  <MODEL>
9

>  <REMARK>
 VINA RESULT:      -7.3      3.407      9.121
  Name = 
  12 active torsions:
  status: ('A' for Active; 'I' for Inactive)
    1  A    between atoms: C_1  and  O_10
    2  A    between atoms: N_2  and  C_39
    3  A    between atoms: CA_3  and  C_37
    4  A    between atoms: CA_3  and  C_46
    5  A    between atoms: C_8  and  C_15
    6  A    between atoms: C_8  and  N_25
    7  A    between atoms: O_10  and  C_41
    8  A    between atoms: C_12  and  N_34
    9  A    between atoms: C_12  and  C_35
   10  A    between atoms: C_19  and  N_21
   11  A    between atoms: N_21  and  C_49
   12  A    between atoms: O_28  and  C_47
                            x       y       z     vdW  Elec       q    Type
                         _______ _______ _______ _____ _____    ______ ____

>  <TORSDO>
F 12

$$$$
