=
 OpenBabel10222415113D

 69 77  0  0  1  0  0  0  0  0999 V2000
  184.9770  178.2720  141.2020 C   0  0  1  0  0  3  0  0  0  0  0  0
  183.9810  179.1430  140.4350 C   0  0  2  0  0  3  0  0  0  0  0  0
  182.5020  178.7880  140.6550 C   0  0  0  0  0  2  0  0  0  0  0  0
  181.5160  179.7520  139.9960 C   0  0  0  0  0  2  0  0  0  0  0  0
  180.9240  179.1520  138.7300 C   0  0  0  0  0  2  0  0  0  0  0  0
  181.2190  176.7700  137.9340 C   0  0  0  0  0  3  0  0  0  0  0  0
  180.2720  174.9510  139.2190 C   0  0  0  0  0  3  0  0  0  0  0  0
  181.0140  175.3970  138.1230 C   0  0  0  0  0  0  0  0  0  0  0  0
  179.9300  177.2200  139.8980 N   0  0  0  0  0  0  0  0  0  0  0  0
  178.9320  175.4460  141.1970 N   0  0  0  0  0  1  0  0  0  0  0  0
  179.7210  175.8860  140.0980 C   0  0  0  0  0  0  0  0  0  0  0  0
  180.6680  177.6800  138.8450 C   0  0  0  0  0  0  0  0  0  0  0  0
  183.8790  173.7380  137.7840 O   0  0  0  0  0  0  0  0  0  0  0  0
  182.8320  173.7450  137.0850 C   0  0  0  0  0  0  0  0  0  0  0  0
  180.4900  174.6350  135.0680 N   0  0  0  0  0  1  0  0  0  0  0  0
  181.5440  174.4590  137.1880 N   0  0  0  0  0  0  0  0  0  0  0  0
  182.3740  172.9110  135.5420 S   0  0  0  0  0  0  0  0  0  0  0  0
  180.9710  173.7200  136.0890 C   0  0  2  0  0  3  0  0  0  0  0  0
  184.3890  179.2480  138.9710 C   0  0  0  0  0  2  0  0  0  0  0  0
  184.2400  177.6860  137.1690 O   0  0  0  0  0  0  0  0  0  0  0  0
  185.5810  178.1110  137.1630 C   0  0  0  0  0  2  0  0  0  0  0  0
  184.8350  177.9050  138.4240 C   0  0  1  0  0  3  0  0  0  0  0  0
  186.3100  178.9750  141.3800 C   0  0  0  0  0  2  0  0  0  0  0  0
  189.8390  176.8950  140.5320 C   0  0  0  0  0  0  0  0  0  0  0  0
  190.8120  176.1280  140.3020 O   0  0  0  0  0  0  0  0  0  0  0  0
  188.8090  177.1750  139.5000 C   0  0  0  0  0  0  0  0  0  0  0  0
  189.6840  177.4970  141.9020 C   0  0  2  0  0  3  0  0  0  0  0  0
  187.6650  177.8590  139.9180 O   0  0  0  0  0  0  0  0  0  0  0  0
  187.3760  177.9920  141.2640 N   0  0  0  0  0  0  0  0  0  0  0  0
  188.5550  178.5330  141.9350 C   0  0  0  0  0  2  0  0  0  0  0  0
  188.9090  176.8330  138.2110 C   0  0  0  0  0  3  0  0  0  0  0  0
  190.8680  178.0970  142.2950 F   0  0  0  0  0  0  0  0  0  0  0  0
  190.0820  176.1380  137.5980 C   0  0  2  0  0  3  0  0  0  0  0  0
  191.0130  177.0840  137.1790 O   0  0  0  0  0  1  0  0  0  0  0  0
  189.6150  175.3270  136.4020 C   0  0  0  0  0  2  0  0  0  0  0  0
  190.4960  175.5790  135.1880 C   0  0  0  0  0  2  0  0  0  0  0  0
  197.7000  175.4850  136.2730 F   0  0  0  0  0  0  0  0  0  0  0  0
  192.7890  174.6520  135.6320 C   0  0  1  0  0  3  0  0  0  0  0  0
  191.4390  174.4180  134.9230 C   0  0  1  0  0  3  0  0  0  0  0  0
  193.2090  173.4850  136.5540 C   0  0  1  0  0  3  0  0  0  0  0  0
  196.8160  174.6630  136.8930 C   0  0  0  0  0  0  0  0  0  0  0  0
  196.3060  173.1460  138.6710 N   0  0  0  0  0  0  0  0  0  0  0  0
  193.0590  172.1330  135.8440 C   0  0  0  0  0  2  0  0  0  0  0  0
  193.8830  174.9100  134.5960 C   0  0  0  0  0  2  0  0  0  0  0  0
  195.1180  175.1990  135.2480 O   0  0  0  0  0  0  0  0  0  0  0  0
  195.5210  174.5030  136.3920 C   0  0  0  0  0  0  0  0  0  0  0  0
  191.6860  171.9340  135.1970 C   0  0  0  0  0  2  0  0  0  0  0  0
  190.7530  173.1300  135.3790 C   0  0  0  0  0  2  0  0  0  0  0  0
  194.6150  173.6620  137.0630 C   0  0  0  0  0  0  0  0  0  0  0  0
  197.1930  173.9680  138.0430 C   0  0  0  0  0  3  0  0  0  0  0  0
  195.0390  172.9800  138.2080 C   0  0  0  0  0  3  0  0  0  0  0  0
  184.4760  177.8360  142.4580 O   0  0  0  0  0  0  0  0  0  0  0  0
  184.6760  178.5800  143.6250 C   0  0  0  0  0  0  0  0  0  0  0  0
  184.6050  179.8410  143.6020 O   0  0  0  0  0  0  0  0  0  0  0  0
  184.7790  178.7100  146.1430 C   0  0  0  0  0  2  0  0  0  0  0  0
  187.0620  177.2240  146.2020 C   0  0  0  0  0  2  0  0  0  0  0  0
  186.4470  177.2960  144.8100 C   0  0  0  0  0  2  0  0  0  0  0  0
  185.0250  177.8560  144.8900 C   0  0  2  0  0  3  0  0  0  0  0  0
  187.2250  178.5730  146.7630 N   0  0  0  0  0  0  0  0  0  0  0  0
  186.0530  179.4520  146.5610 C   0  0  0  0  0  2  0  0  0  0  0  0
  187.4170  178.4230  148.1990 C   0  0  0  0  0  2  0  0  0  0  0  0
  188.8730  178.1100  148.5040 C   0  0  0  0  0  2  0  0  0  0  0  0
  189.3220  176.9940  147.6860 N   0  0  0  0  0  2  0  0  0  0  0  0
  191.6640  176.3920  145.2190 C   0  0  0  0  0  3  0  0  0  0  0  0
  192.1710  175.5720  146.3160 N   0  0  0  0  0  0  0  0  0  0  0  0
  190.7900  177.4030  145.8320 C   0  0  0  0  0  0  0  0  0  0  0  0
  191.5530  176.0370  147.5660 C   0  0  0  0  0  2  0  0  0  0  0  0
  190.2250  178.2800  145.1960 O   0  0  0  0  0  0  0  0  0  0  0  0
  190.6960  177.2650  147.2950 C   0  0  2  0  0  3  0  0  0  0  0  0
  1 23  1  1  0  0  0
  1 52  1  0  0  0  0
  2 19  1  6  0  0  0
  2  3  1  0  0  0  0
  2  1  1  0  0  0  0
  4  3  1  0  0  0  0
  5 12  1  0  0  0  0
  5  4  1  0  0  0  0
  6  8  2  0  0  0  0
  6 12  1  0  0  0  0
  7 11  2  0  0  0  0
  8  7  1  0  0  0  0
  9 11  1  0  0  0  0
 11 10  1  0  0  0  0
 12  9  2  0  0  0  0
 14 16  1  0  0  0  0
 14 13  2  0  0  0  0
 16  8  1  0  0  0  0
 17 18  1  0  0  0  0
 17 14  1  0  0  0  0
 18 15  1  6  0  0  0
 18 16  1  0  0  0  0
 20 22  1  0  0  0  0
 21 20  1  0  0  0  0
 21 22  1  0  0  0  0
 22 19  1  6  0  0  0
 24 27  1  0  0  0  0
 25 24  2  0  0  0  0
 26 28  1  0  0  0  0
 26 24  1  0  0  0  0
 27 30  1  0  0  0  0
 27 32  1  6  0  0  0
 28 29  1  0  0  0  0
 29 23  1  0  0  0  0
 29 30  1  0  0  0  0
 31 26  2  0  0  0  0
 33 34  1  6  0  0  0
 33 31  1  0  0  0  0
 35 33  1  0  0  0  0
 36 35  1  0  0  0  0
 37 41  1  0  0  0  0
 38 44  1  6  0  0  0
 38 40  1  0  0  0  0
 39 36  1  1  0  0  0
 39 48  1  0  0  0  0
 39 38  1  0  0  0  0
 40 43  1  6  0  0  0
 40 49  1  0  0  0  0
 41 50  1  0  0  0  0
 44 45  1  0  0  0  0
 45 46  1  0  0  0  0
 46 41  2  0  0  0  0
 46 49  1  0  0  0  0
 47 48  1  0  0  0  0
 47 43  1  0  0  0  0
 49 51  2  0  0  0  0
 50 42  2  0  0  0  0
 51 42  1  0  0  0  0
 52 53  1  0  0  0  0
 54 53  2  0  0  0  0
 55 60  1  0  0  0  0
 56 59  1  0  0  0  0
 57 58  1  0  0  0  0
 57 56  1  0  0  0  0
 58 53  1  6  0  0  0
 58 55  1  0  0  0  0
 59 61  1  0  0  0  0
 60 59  1  0  0  0  0
 61 62  1  0  0  0  0
 63 62  1  0  0  0  0
 64 66  1  0  0  0  0
 64 65  2  0  0  0  0
 65 67  1  0  0  0  0
 66 69  1  0  0  0  0
 68 66  2  0  0  0  0
 69 67  1  0  0  0  0
 69 63  1  6  0  0  0
M  END
>  <MODEL>
1

>  <REMARK>
 VINA RESULT:      -7.7      0.000      0.000
  Name = 
  21 active torsions:
  status: ('A' for Active; 'I' for Inactive)
    1  A    between atoms: C_8  and  C_9
    2  A    between atoms: C_8  and  C_37
    3  A    between atoms: C_9  and  C_11
    4  A    between atoms: C_10  and  C_56
    5  A    between atoms: C_10  and  N_66
    6  A    between atoms: C_15  and  C_54
    7  A    between atoms: C_15  and  C_62
    8  A    between atoms: C_18  and  C_51
    9  A    between atoms: C_18  and  C_65
   10  A    between atoms: C_20  and  N_42
   11  A    between atoms: O_26  and  C_27
   12  A    between atoms: O_26  and  C_45
   13  A    between atoms: C_27  and  C_33
   14  A    between atoms: C_37  and  C_59
   15  A    between atoms: N_39  and  C_41
   16  A    between atoms: C_41  and  C_45
   17  A    between atoms: C_45  and  C_51
   18  A    between atoms: C_48  and  C_51
   19  A    between atoms: C_48  and  C_54
   20  A    between atoms: C_56  and  N_64
   21  A    between atoms: N_66  and  C_67
                            x       y       z     vdW  Elec       q    Type
                         _______ _______ _______ _____ _____    ______ ____

>  <TORSDO>
F 21

$$$$
=
 OpenBabel10222415113D

 69 77  0  0  1  0  0  0  0  0999 V2000
  188.6680  177.2270  141.7730 C   0  0  1  0  0  3  0  0  0  0  0  0
  190.0590  177.7350  142.1540 C   0  0  2  0  0  3  0  0  0  0  0  0
  191.2280  177.0000  141.4810 C   0  0  0  0  0  2  0  0  0  0  0  0
  191.3940  177.3050  139.9920 C   0  0  0  0  0  2  0  0  0  0  0  0
  192.8600  177.2860  139.5880 C   0  0  0  0  0  2  0  0  0  0  0  0
  194.3170  175.5990  138.3940 C   0  0  0  0  0  3  0  0  0  0  0  0
  193.5110  174.5350  136.3750 C   0  0  0  0  0  3  0  0  0  0  0  0
  194.5030  174.6870  137.3470 C   0  0  0  0  0  0  0  0  0  0  0  0
  192.1920  176.2020  137.4750 N   0  0  0  0  0  0  0  0  0  0  0  0
  191.3560  175.2000  135.4440 N   0  0  0  0  0  1  0  0  0  0  0  0
  192.3560  175.3180  136.4480 C   0  0  0  0  0  0  0  0  0  0  0  0
  193.1390  176.3550  138.4470 C   0  0  0  0  0  0  0  0  0  0  0  0
  195.5110  171.6930  138.3930 O   0  0  0  0  0  0  0  0  0  0  0  0
  196.1060  172.5940  137.7460 C   0  0  0  0  0  0  0  0  0  0  0  0
  197.6050  175.3260  136.9510 N   0  0  0  0  0  1  0  0  0  0  0  0
  195.7090  173.9310  137.2620 N   0  0  0  0  0  0  0  0  0  0  0  0
  197.7960  172.7400  137.1060 S   0  0  0  0  0  0  0  0  0  0  0  0
  196.9420  174.1040  136.5300 C   0  0  2  0  0  3  0  0  0  0  0  0
  190.1820  177.8530  143.6680 C   0  0  0  0  0  2  0  0  0  0  0  0
  191.6840  177.7210  145.5220 O   0  0  0  0  0  0  0  0  0  0  0  0
  191.4850  176.3850  145.1280 C   0  0  0  0  0  2  0  0  0  0  0  0
  191.5750  177.4830  144.1400 C   0  0  1  0  0  3  0  0  0  0  0  0
  187.8990  176.7450  142.9890 C   0  0  0  0  0  2  0  0  0  0  0  0
  184.7130  179.0120  144.4770 C   0  0  0  0  0  0  0  0  0  0  0  0
  183.8180  179.8230  144.8350 O   0  0  0  0  0  0  0  0  0  0  0  0
  184.6620  178.3290  143.1600 C   0  0  0  0  0  0  0  0  0  0  0  0
  185.8940  178.7740  145.3780 C   0  0  2  0  0  3  0  0  0  0  0  0
  185.8010  177.6220  142.7700 O   0  0  0  0  0  0  0  0  0  0  0  0
  187.0040  177.8050  143.4260 N   0  0  0  0  0  0  0  0  0  0  0  0
  186.7750  177.6320  144.8580 C   0  0  0  0  0  2  0  0  0  0  0  0
  183.6040  178.3330  142.3410 C   0  0  0  0  0  3  0  0  0  0  0  0
  185.4620  178.4720  146.6580 F   0  0  0  0  0  0  0  0  0  0  0  0
  182.3000  179.0040  142.6290 C   0  0  2  0  0  3  0  0  0  0  0  0
  181.6490  178.3270  143.6560 O   0  0  0  0  0  1  0  0  0  0  0  0
  181.4350  178.9760  141.3810 C   0  0  0  0  0  2  0  0  0  0  0  0
  182.2830  179.0640  140.1210 C   0  0  0  0  0  2  0  0  0  0  0  0
  182.9350  174.1550  134.7770 F   0  0  0  0  0  0  0  0  0  0  0  0
  181.6240  177.6000  138.1890 C   0  0  1  0  0  3  0  0  0  0  0  0
  181.4380  178.9740  138.8620 C   0  0  1  0  0  3  0  0  0  0  0  0
  180.2940  176.8520  137.9390 C   0  0  1  0  0  3  0  0  0  0  0  0
  181.8280  174.3170  135.5440 C   0  0  0  0  0  0  0  0  0  0  0  0
  179.7430  173.4760  136.3620 N   0  0  0  0  0  0  0  0  0  0  0  0
  179.2530  177.7730  137.2880 C   0  0  0  0  0  2  0  0  0  0  0  0
  182.3790  177.7640  136.8700 C   0  0  0  0  0  2  0  0  0  0  0  0
  182.6180  176.4880  136.2790 O   0  0  0  0  0  0  0  0  0  0  0  0
  181.6490  175.4800  136.2990 C   0  0  0  0  0  0  0  0  0  0  0  0
  179.0750  179.1050  138.0220 C   0  0  0  0  0  2  0  0  0  0  0  0
  179.9820  179.2490  139.2430 C   0  0  0  0  0  2  0  0  0  0  0  0
  180.5040  175.6180  137.1040 C   0  0  0  0  0  0  0  0  0  0  0  0
  180.8530  173.3190  135.5900 C   0  0  0  0  0  3  0  0  0  0  0  0
  179.5500  174.5940  137.1110 C   0  0  0  0  0  3  0  0  0  0  0  0
  187.9060  178.1870  141.0550 O   0  0  0  0  0  0  0  0  0  0  0  0
  188.0580  178.3600  139.6760 C   0  0  0  0  0  0  0  0  0  0  0  0
  188.7580  179.3080  139.2200 O   0  0  0  0  0  0  0  0  0  0  0  0
  188.2940  176.5730  137.9090 C   0  0  0  0  0  2  0  0  0  0  0  0
  186.1200  177.5120  136.5610 C   0  0  0  0  0  2  0  0  0  0  0  0
  186.3170  178.2000  137.9060 C   0  0  0  0  0  2  0  0  0  0  0  0
  187.3350  177.4300  138.7500 C   0  0  2  0  0  3  0  0  0  0  0  0
  187.3620  177.5540  135.7760 N   0  0  0  0  0  0  0  0  0  0  0  0
  188.5770  177.2320  136.5550 C   0  0  0  0  0  2  0  0  0  0  0  0
  187.2410  176.5560  134.7220 C   0  0  0  0  0  2  0  0  0  0  0  0
  187.3320  175.1570  135.3110 C   0  0  0  0  0  2  0  0  0  0  0  0
  185.9990  174.5950  135.4610 N   0  0  0  0  0  2  0  0  0  0  0  0
  184.5780  171.5540  136.2780 C   0  0  0  0  0  3  0  0  0  0  0  0
  184.1510  172.3920  137.3960 N   0  0  0  0  0  0  0  0  0  0  0  0
  185.7510  172.2200  135.6920 C   0  0  0  0  0  0  0  0  0  0  0  0
  185.0110  173.5830  137.4380 C   0  0  0  0  0  2  0  0  0  0  0  0
  186.3830  171.7640  134.7510 O   0  0  0  0  0  0  0  0  0  0  0  0
  186.1000  173.4730  136.3800 C   0  0  2  0  0  3  0  0  0  0  0  0
  1  2  1  0  0  0  0
  1 23  1  1  0  0  0
  2  3  1  1  0  0  0
  2 19  1  0  0  0  0
  4  3  1  0  0  0  0
  5  4  1  0  0  0  0
  6 12  1  0  0  0  0
  7 11  2  0  0  0  0
  7  8  1  0  0  0  0
  8  6  2  0  0  0  0
  9 12  2  0  0  0  0
 10 11  1  0  0  0  0
 11  9  1  0  0  0  0
 12  5  1  0  0  0  0
 14 13  2  0  0  0  0
 16  8  1  0  0  0  0
 16 14  1  0  0  0  0
 17 14  1  0  0  0  0
 18 15  1  1  0  0  0
 18 17  1  0  0  0  0
 18 16  1  0  0  0  0
 21 20  1  0  0  0  0
 22 19  1  1  0  0  0
 22 21  1  0  0  0  0
 22 20  1  0  0  0  0
 23 29  1  0  0  0  0
 24 25  2  0  0  0  0
 24 27  1  0  0  0  0
 26 24  1  0  0  0  0
 27 32  1  1  0  0  0
 28 26  1  0  0  0  0
 28 29  1  0  0  0  0
 29 30  1  0  0  0  0
 30 27  1  0  0  0  0
 31 33  1  0  0  0  0
 31 26  2  0  0  0  0
 33 34  1  1  0  0  0
 35 33  1  0  0  0  0
 36 35  1  0  0  0  0
 37 41  1  0  0  0  0
 38 44  1  6  0  0  0
 38 39  1  0  0  0  0
 39 48  1  0  0  0  0
 39 36  1  1  0  0  0
 40 43  1  6  0  0  0
 40 38  1  0  0  0  0
 41 50  2  0  0  0  0
 41 46  1  0  0  0  0
 42 51  2  0  0  0  0
 43 47  1  0  0  0  0
 45 46  1  0  0  0  0
 45 44  1  0  0  0  0
 46 49  2  0  0  0  0
 47 48  1  0  0  0  0
 49 51  1  0  0  0  0
 49 40  1  0  0  0  0
 50 42  1  0  0  0  0
 52  1  1  0  0  0  0
 53 52  1  0  0  0  0
 54 53  2  0  0  0  0
 55 58  1  0  0  0  0
 56 57  1  0  0  0  0
 57 58  1  0  0  0  0
 58 53  1  6  0  0  0
 59 60  1  0  0  0  0
 59 56  1  0  0  0  0
 60 55  1  0  0  0  0
 61 62  1  0  0  0  0
 61 59  1  0  0  0  0
 62 63  1  0  0  0  0
 64 65  2  0  0  0  0
 65 67  1  0  0  0  0
 66 64  1  0  0  0  0
 66 69  1  0  0  0  0
 68 66  2  0  0  0  0
 69 63  1  6  0  0  0
 69 67  1  0  0  0  0
M  END
>  <MODEL>
2

>  <REMARK>
 VINA RESULT:      -7.7      3.588     11.485
  Name = 
  21 active torsions:
  status: ('A' for Active; 'I' for Inactive)
    1  A    between atoms: C_8  and  C_9
    2  A    between atoms: C_8  and  C_37
    3  A    between atoms: C_9  and  C_11
    4  A    between atoms: C_10  and  C_56
    5  A    between atoms: C_10  and  N_66
    6  A    between atoms: C_15  and  C_54
    7  A    between atoms: C_15  and  C_62
    8  A    between atoms: C_18  and  C_51
    9  A    between atoms: C_18  and  C_65
   10  A    between atoms: C_20  and  N_42
   11  A    between atoms: O_26  and  C_27
   12  A    between atoms: O_26  and  C_45
   13  A    between atoms: C_27  and  C_33
   14  A    between atoms: C_37  and  C_59
   15  A    between atoms: N_39  and  C_41
   16  A    between atoms: C_41  and  C_45
   17  A    between atoms: C_45  and  C_51
   18  A    between atoms: C_48  and  C_51
   19  A    between atoms: C_48  and  C_54
   20  A    between atoms: C_56  and  N_64
   21  A    between atoms: N_66  and  C_67
                            x       y       z     vdW  Elec       q    Type
                         _______ _______ _______ _____ _____    ______ ____

>  <TORSDO>
F 21

$$$$
=
 OpenBabel10222415113D

 69 77  0  0  1  0  0  0  0  0999 V2000
  189.0900  177.0970  141.6690 C   0  0  1  0  0  3  0  0  0  0  0  0
  190.6120  177.2250  141.6130 C   0  0  2  0  0  3  0  0  0  0  0  0
  191.2700  176.6250  140.3600 C   0  0  0  0  0  2  0  0  0  0  0  0
  190.4330  176.7460  139.0870 C   0  0  0  0  0  2  0  0  0  0  0  0
  191.3130  177.0010  137.8730 C   0  0  0  0  0  2  0  0  0  0  0  0
  193.4910  175.7200  137.7680 C   0  0  0  0  0  3  0  0  0  0  0  0
  193.5210  173.4820  136.8460 C   0  0  0  0  0  3  0  0  0  0  0  0
  194.1930  174.5520  137.4440 C   0  0  0  0  0  0  0  0  0  0  0  0
  191.4940  174.7530  136.8750 N   0  0  0  0  0  0  0  0  0  0  0  0
  191.4750  172.5390  135.9110 N   0  0  0  0  0  1  0  0  0  0  0  0
  192.1610  173.6060  136.5540 C   0  0  0  0  0  0  0  0  0  0  0  0
  192.1230  175.8040  137.4770 C   0  0  0  0  0  0  0  0  0  0  0  0
  196.1810  175.2620  140.0170 O   0  0  0  0  0  0  0  0  0  0  0  0
  196.4290  174.7910  138.8770 C   0  0  0  0  0  0  0  0  0  0  0  0
  196.8680  174.4910  135.7040 N   0  0  0  0  0  1  0  0  0  0  0  0
  195.5920  174.4610  137.7060 N   0  0  0  0  0  0  0  0  0  0  0  0
  197.9700  174.3120  138.0500 S   0  0  0  0  0  0  0  0  0  0  0  0
  196.6980  173.8590  137.0010 C   0  0  2  0  0  3  0  0  0  0  0  0
  191.2300  176.7630  142.9270 C   0  0  0  0  0  2  0  0  0  0  0  0
  191.1930  179.1060  143.3970 O   0  0  0  0  0  0  0  0  0  0  0  0
  190.9400  178.4890  144.6360 C   0  0  0  0  0  2  0  0  0  0  0  0
  191.8920  177.9140  143.6610 C   0  0  1  0  0  3  0  0  0  0  0  0
  188.6210  176.6200  143.0310 C   0  0  0  0  0  2  0  0  0  0  0  0
  185.5790  178.7780  144.9250 C   0  0  0  0  0  0  0  0  0  0  0  0
  184.7230  179.5630  145.4140 O   0  0  0  0  0  0  0  0  0  0  0  0
  185.4300  178.2190  143.5590 C   0  0  0  0  0  0  0  0  0  0  0  0
  186.8110  178.4450  145.7210 C   0  0  2  0  0  3  0  0  0  0  0  0
  186.5290  177.5370  143.0320 O   0  0  0  0  0  0  0  0  0  0  0  0
  187.7750  177.6460  143.6210 N   0  0  0  0  0  0  0  0  0  0  0  0
  187.6370  177.3460  145.0430 C   0  0  0  0  0  2  0  0  0  0  0  0
  184.3210  178.3090  142.8150 C   0  0  0  0  0  3  0  0  0  0  0  0
  186.4580  178.0330  146.9950 F   0  0  0  0  0  0  0  0  0  0  0  0
  183.0510  178.9660  143.2490 C   0  0  2  0  0  3  0  0  0  0  0  0
  182.3910  178.1410  144.1560 O   0  0  0  0  0  1  0  0  0  0  0  0
  182.1640  179.1900  142.0360 C   0  0  0  0  0  2  0  0  0  0  0  0
  180.7630  179.6130  142.4500 C   0  0  0  0  0  2  0  0  0  0  0  0
  179.4270  184.6310  137.3400 F   0  0  0  0  0  0  0  0  0  0  0  0
  180.0620  180.5800  140.2400 C   0  0  1  0  0  3  0  0  0  0  0  0
  179.7750  179.5000  141.3020 C   0  0  1  0  0  3  0  0  0  0  0  0
  180.2560  180.0080  138.8170 C   0  0  1  0  0  3  0  0  0  0  0  0
  179.9040  183.3860  137.0910 C   0  0  0  0  0  0  0  0  0  0  0  0
  180.9830  181.8470  135.6110 N   0  0  0  0  0  0  0  0  0  0  0  0
  179.1460  179.0090  138.4630 C   0  0  0  0  0  2  0  0  0  0  0  0
  178.9340  181.6120  140.2300 C   0  0  0  0  0  2  0  0  0  0  0  0
  179.2290  182.6530  139.3020 O   0  0  0  0  0  0  0  0  0  0  0  0
  179.8100  182.3810  138.0590 C   0  0  0  0  0  0  0  0  0  0  0  0
  178.9340  177.9310  139.5300 C   0  0  0  0  0  2  0  0  0  0  0  0
  179.8620  178.0820  140.7340 C   0  0  0  0  0  2  0  0  0  0  0  0
  180.3300  181.1030  137.7870 C   0  0  0  0  0  0  0  0  0  0  0  0
  180.4990  183.0950  135.8620 C   0  0  0  0  0  3  0  0  0  0  0  0
  180.9110  180.8550  136.5380 C   0  0  0  0  0  3  0  0  0  0  0  0
  188.4210  178.2980  141.3090 O   0  0  0  0  0  0  0  0  0  0  0  0
  188.0230  178.5480  139.9920 C   0  0  0  0  0  0  0  0  0  0  0  0
  188.6420  179.3910  139.2840 O   0  0  0  0  0  0  0  0  0  0  0  0
  187.1910  176.6260  138.5850 C   0  0  0  0  0  2  0  0  0  0  0  0
  185.1100  178.1140  137.6470 C   0  0  0  0  0  2  0  0  0  0  0  0
  185.8830  178.8210  138.7530 C   0  0  0  0  0  2  0  0  0  0  0  0
  186.8180  177.8350  139.4560 C   0  0  2  0  0  3  0  0  0  0  0  0
  186.0260  177.6550  136.5930 N   0  0  0  0  0  0  0  0  0  0  0  0
  187.2570  177.0150  137.1040 C   0  0  0  0  0  2  0  0  0  0  0  0
  185.3120  176.6600  135.8040 C   0  0  0  0  0  2  0  0  0  0  0  0
  183.8160  176.7710  136.0480 C   0  0  0  0  0  2  0  0  0  0  0  0
  183.1320  175.6310  135.4580 N   0  0  0  0  0  2  0  0  0  0  0  0
  181.9860  172.6460  136.7680 C   0  0  0  0  0  3  0  0  0  0  0  0
  180.7970  173.1460  136.0830 N   0  0  0  0  0  0  0  0  0  0  0  0
  182.8470  173.8160  137.0020 C   0  0  0  0  0  0  0  0  0  0  0  0
  180.9710  174.5860  135.8430 C   0  0  0  0  0  2  0  0  0  0  0  0
  183.9160  173.7580  137.5900 O   0  0  0  0  0  0  0  0  0  0  0  0
  182.2670  175.0650  136.4810 C   0  0  2  0  0  3  0  0  0  0  0  0
  1 23  1  1  0  0  0
  2  3  1  6  0  0  0
  2  1  1  0  0  0  0
  2 19  1  0  0  0  0
  4  3  1  0  0  0  0
  5  4  1  0  0  0  0
  7  8  1  0  0  0  0
  8 16  1  0  0  0  0
  8  6  2  0  0  0  0
  9 12  2  0  0  0  0
 10 11  1  0  0  0  0
 11  7  2  0  0  0  0
 11  9  1  0  0  0  0
 12  6  1  0  0  0  0
 12  5  1  0  0  0  0
 14 13  2  0  0  0  0
 16 14  1  0  0  0  0
 17 14  1  0  0  0  0
 18 15  1  6  0  0  0
 18 16  1  0  0  0  0
 18 17  1  0  0  0  0
 20 22  1  0  0  0  0
 20 21  1  0  0  0  0
 22 19  1  6  0  0  0
 22 21  1  0  0  0  0
 23 29  1  0  0  0  0
 24 25  2  0  0  0  0
 24 27  1  0  0  0  0
 26 24  1  0  0  0  0
 27 32  1  1  0  0  0
 28 26  1  0  0  0  0
 28 29  1  0  0  0  0
 29 30  1  0  0  0  0
 30 27  1  0  0  0  0
 31 33  1  0  0  0  0
 31 26  2  0  0  0  0
 33 34  1  1  0  0  0
 35 36  1  0  0  0  0
 35 33  1  0  0  0  0
 38 44  1  6  0  0  0
 38 39  1  0  0  0  0
 39 36  1  1  0  0  0
 40 43  1  6  0  0  0
 40 38  1  0  0  0  0
 41 37  1  0  0  0  0
 41 46  1  0  0  0  0
 42 50  1  0  0  0  0
 42 51  2  0  0  0  0
 43 47  1  0  0  0  0
 45 44  1  0  0  0  0
 46 45  1  0  0  0  0
 47 48  1  0  0  0  0
 48 39  1  0  0  0  0
 49 46  2  0  0  0  0
 49 40  1  0  0  0  0
 50 41  2  0  0  0  0
 51 49  1  0  0  0  0
 52  1  1  0  0  0  0
 53 52  1  0  0  0  0
 54 53  2  0  0  0  0
 55 58  1  0  0  0  0
 56 57  1  0  0  0  0
 57 58  1  0  0  0  0
 58 53  1  6  0  0  0
 59 60  1  0  0  0  0
 59 56  1  0  0  0  0
 60 55  1  0  0  0  0
 61 62  1  0  0  0  0
 61 59  1  0  0  0  0
 63 62  1  0  0  0  0
 64 66  1  0  0  0  0
 65 64  2  0  0  0  0
 66 68  2  0  0  0  0
 67 65  1  0  0  0  0
 67 69  1  0  0  0  0
 69 63  1  6  0  0  0
 69 66  1  0  0  0  0
M  END
>  <MODEL>
3

>  <REMARK>
 VINA RESULT:      -6.5      3.697     12.212
  Name = 
  21 active torsions:
  status: ('A' for Active; 'I' for Inactive)
    1  A    between atoms: C_8  and  C_9
    2  A    between atoms: C_8  and  C_37
    3  A    between atoms: C_9  and  C_11
    4  A    between atoms: C_10  and  C_56
    5  A    between atoms: C_10  and  N_66
    6  A    between atoms: C_15  and  C_54
    7  A    between atoms: C_15  and  C_62
    8  A    between atoms: C_18  and  C_51
    9  A    between atoms: C_18  and  C_65
   10  A    between atoms: C_20  and  N_42
   11  A    between atoms: O_26  and  C_27
   12  A    between atoms: O_26  and  C_45
   13  A    between atoms: C_27  and  C_33
   14  A    between atoms: C_37  and  C_59
   15  A    between atoms: N_39  and  C_41
   16  A    between atoms: C_41  and  C_45
   17  A    between atoms: C_45  and  C_51
   18  A    between atoms: C_48  and  C_51
   19  A    between atoms: C_48  and  C_54
   20  A    between atoms: C_56  and  N_64
   21  A    between atoms: N_66  and  C_67
                            x       y       z     vdW  Elec       q    Type
                         _______ _______ _______ _____ _____    ______ ____

>  <TORSDO>
F 21

$$$$
=
 OpenBabel10222415113D

 69 77  0  0  1  0  0  0  0  0999 V2000
  189.8040  177.6430  139.1150 C   0  0  1  0  0  3  0  0  0  0  0  0
  189.6330  176.2390  138.5350 C   0  0  2  0  0  3  0  0  0  0  0  0
  190.9140  175.3910  138.4920 C   0  0  0  0  0  2  0  0  0  0  0  0
  192.0880  176.0570  137.7760 C   0  0  0  0  0  2  0  0  0  0  0  0
  192.6290  175.1700  136.6650 C   0  0  0  0  0  2  0  0  0  0  0  0
  195.0440  174.5290  136.2780 C   0  0  0  0  0  3  0  0  0  0  0  0
  196.5960  176.1720  135.4150 C   0  0  0  0  0  3  0  0  0  0  0  0
  196.3320  174.8690  135.8450 C   0  0  0  0  0  0  0  0  0  0  0  0
  194.3270  176.7750  135.8770 N   0  0  0  0  0  0  0  0  0  0  0  0
  195.8430  178.4640  135.0520 N   0  0  0  0  0  1  0  0  0  0  0  0
  195.5760  177.1250  135.4510 C   0  0  0  0  0  0  0  0  0  0  0  0
  194.0390  175.5040  136.2840 C   0  0  0  0  0  0  0  0  0  0  0  0
  196.5940  171.6540  135.0270 O   0  0  0  0  0  0  0  0  0  0  0  0
  197.4380  172.4700  135.4810 C   0  0  0  0  0  0  0  0  0  0  0  0
  199.0650  174.4400  137.4360 N   0  0  0  0  0  1  0  0  0  0  0  0
  197.3740  173.8960  135.8600 N   0  0  0  0  0  0  0  0  0  0  0  0
  199.1790  172.3060  135.9580 S   0  0  0  0  0  0  0  0  0  0  0  0
  198.7980  173.9670  136.0880 C   0  0  2  0  0  3  0  0  0  0  0  0
  188.8780  176.3010  137.2130 C   0  0  0  0  0  2  0  0  0  0  0  0
  186.8450  175.5920  136.1780 O   0  0  0  0  0  0  0  0  0  0  0  0
  187.7990  174.6380  135.7800 C   0  0  0  0  0  2  0  0  0  0  0  0
  187.8080  175.2290  137.1360 C   0  0  1  0  0  3  0  0  0  0  0  0
  188.8390  178.6280  138.4820 C   0  0  0  0  0  2  0  0  0  0  0  0
  185.5400  178.6620  141.0550 C   0  0  0  0  0  0  0  0  0  0  0  0
  184.5580  178.8410  141.8230 O   0  0  0  0  0  0  0  0  0  0  0  0
  185.4060  178.7800  139.5810 C   0  0  0  0  0  0  0  0  0  0  0  0
  186.8950  178.3800  141.6450 C   0  0  2  0  0  3  0  0  0  0  0  0
  186.5870  178.7770  138.8360 O   0  0  0  0  0  0  0  0  0  0  0  0
  187.8100  178.9650  139.4540 N   0  0  0  0  0  0  0  0  0  0  0  0
  187.9150  178.0170  140.5600 C   0  0  0  0  0  2  0  0  0  0  0  0
  184.2420  178.8710  138.9270 C   0  0  0  0  0  3  0  0  0  0  0  0
  186.8100  177.3440  142.5580 F   0  0  0  0  0  0  0  0  0  0  0  0
  182.8940  178.8460  139.5720 C   0  0  2  0  0  3  0  0  0  0  0  0
  182.6030  177.5480  139.9830 O   0  0  0  0  0  1  0  0  0  0  0  0
  181.8500  179.3010  138.5670 C   0  0  0  0  0  2  0  0  0  0  0  0
  180.7510  178.2620  138.4060 C   0  0  0  0  0  2  0  0  0  0  0  0
  185.3300  172.7770  136.9870 F   0  0  0  0  0  0  0  0  0  0  0  0
  181.6610  176.1910  137.3150 C   0  0  1  0  0  3  0  0  0  0  0  0
  180.8780  177.5010  137.0980 C   0  0  1  0  0  3  0  0  0  0  0  0
  180.9080  174.9350  136.8210 C   0  0  1  0  0  3  0  0  0  0  0  0
  183.9770  172.6820  136.9440 C   0  0  0  0  0  0  0  0  0  0  0  0
  182.0030  171.3320  136.9180 N   0  0  0  0  0  0  0  0  0  0  0  0
  180.3450  175.1440  135.4080 C   0  0  0  0  0  2  0  0  0  0  0  0
  183.0230  176.2790  136.6270 C   0  0  0  0  0  2  0  0  0  0  0  0
  183.7810  175.0980  136.8860 O   0  0  0  0  0  0  0  0  0  0  0  0
  183.1860  173.8330  136.8880 C   0  0  0  0  0  0  0  0  0  0  0  0
  179.5380  176.4370  135.2600 C   0  0  0  0  0  2  0  0  0  0  0  0
  179.4730  177.2600  136.5460 C   0  0  0  0  0  2  0  0  0  0  0  0
  181.7840  173.7120  136.8640 C   0  0  0  0  0  0  0  0  0  0  0  0
  183.3610  171.4300  136.9570 C   0  0  0  0  0  3  0  0  0  0  0  0
  181.2110  172.4360  136.8720 C   0  0  0  0  0  3  0  0  0  0  0  0
  189.6860  177.6750  140.5300 O   0  0  0  0  0  0  0  0  0  0  0  0
  190.7630  177.3570  141.3630 C   0  0  0  0  0  0  0  0  0  0  0  0
  191.9460  177.6370  141.0180 O   0  0  0  0  0  0  0  0  0  0  0  0
  189.7920  177.5220  143.6860 C   0  0  0  0  0  2  0  0  0  0  0  0
  191.7290  175.8910  144.6930 C   0  0  0  0  0  2  0  0  0  0  0  0
  191.7710  175.9800  143.1730 C   0  0  0  0  0  2  0  0  0  0  0  0
  190.4910  176.6330  142.6460 C   0  0  2  0  0  3  0  0  0  0  0  0
  191.7270  177.2350  145.2870 N   0  0  0  0  0  0  0  0  0  0  0  0
  190.8130  178.1860  144.6170 C   0  0  0  0  0  2  0  0  0  0  0  0
  191.2790  177.0970  146.6660 C   0  0  0  0  0  2  0  0  0  0  0  0
  189.7860  177.3650  146.7630 C   0  0  0  0  0  2  0  0  0  0  0  0
  189.2150  176.5940  147.8570 N   0  0  0  0  0  2  0  0  0  0  0  0
  186.8370  178.8150  146.6960 C   0  0  0  0  0  3  0  0  0  0  0  0
  187.0040  179.2540  148.0790 N   0  0  0  0  0  0  0  0  0  0  0  0
  187.3170  177.4260  146.6460 C   0  0  0  0  0  0  0  0  0  0  0  0
  187.6430  178.1690  148.8360 C   0  0  0  0  0  2  0  0  0  0  0  0
  187.2880  176.7390  145.6360 O   0  0  0  0  0  0  0  0  0  0  0  0
  187.8070  176.9430  147.9480 C   0  0  2  0  0  3  0  0  0  0  0  0
  1 23  1  6  0  0  0
  1 52  1  0  0  0  0
  2 19  1  6  0  0  0
  2  1  1  0  0  0  0
  3  2  1  0  0  0  0
  4  3  1  0  0  0  0
  5  4  1  0  0  0  0
  6 12  1  0  0  0  0
  7 11  2  0  0  0  0
  7  8  1  0  0  0  0
  8 16  1  0  0  0  0
  8  6  2  0  0  0  0
  9 12  2  0  0  0  0
 10 11  1  0  0  0  0
 11  9  1  0  0  0  0
 12  5  1  0  0  0  0
 13 14  2  0  0  0  0
 14 16  1  0  0  0  0
 14 17  1  0  0  0  0
 16 18  1  0  0  0  0
 17 18  1  0  0  0  0
 18 15  1  1  0  0  0
 20 22  1  0  0  0  0
 21 20  1  0  0  0  0
 21 22  1  0  0  0  0
 22 19  1  6  0  0  0
 23 29  1  0  0  0  0
 24 27  1  0  0  0  0
 24 25  2  0  0  0  0
 26 24  1  0  0  0  0
 27 32  1  1  0  0  0
 28 29  1  0  0  0  0
 28 26  1  0  0  0  0
 29 30  1  0  0  0  0
 30 27  1  0  0  0  0
 31 33  1  0  0  0  0
 31 26  2  0  0  0  0
 33 34  1  6  0  0  0
 35 33  1  0  0  0  0
 36 35  1  0  0  0  0
 38 44  1  6  0  0  0
 39 38  1  0  0  0  0
 39 36  1  1  0  0  0
 40 43  1  6  0  0  0
 40 49  1  0  0  0  0
 40 38  1  0  0  0  0
 41 50  1  0  0  0  0
 41 37  1  0  0  0  0
 42 50  2  0  0  0  0
 44 45  1  0  0  0  0
 45 46  1  0  0  0  0
 46 41  2  0  0  0  0
 47 43  1  0  0  0  0
 47 48  1  0  0  0  0
 48 39  1  0  0  0  0
 49 51  2  0  0  0  0
 49 46  1  0  0  0  0
 51 42  1  0  0  0  0
 52 53  1  0  0  0  0
 54 53  2  0  0  0  0
 55 60  1  0  0  0  0
 56 59  1  0  0  0  0
 57 56  1  0  0  0  0
 58 53  1  6  0  0  0
 58 57  1  0  0  0  0
 58 55  1  0  0  0  0
 59 61  1  0  0  0  0
 60 59  1  0  0  0  0
 61 62  1  0  0  0  0
 62 63  1  0  0  0  0
 64 65  2  0  0  0  0
 65 67  1  0  0  0  0
 66 64  1  0  0  0  0
 66 69  1  0  0  0  0
 68 66  2  0  0  0  0
 69 63  1  6  0  0  0
 69 67  1  0  0  0  0
M  END
>  <MODEL>
4

>  <REMARK>
 VINA RESULT:      -5.3      3.422     10.238
  Name = 
  21 active torsions:
  status: ('A' for Active; 'I' for Inactive)
    1  A    between atoms: C_8  and  C_9
    2  A    between atoms: C_8  and  C_37
    3  A    between atoms: C_9  and  C_11
    4  A    between atoms: C_10  and  C_56
    5  A    between atoms: C_10  and  N_66
    6  A    between atoms: C_15  and  C_54
    7  A    between atoms: C_15  and  C_62
    8  A    between atoms: C_18  and  C_51
    9  A    between atoms: C_18  and  C_65
   10  A    between atoms: C_20  and  N_42
   11  A    between atoms: O_26  and  C_27
   12  A    between atoms: O_26  and  C_45
   13  A    between atoms: C_27  and  C_33
   14  A    between atoms: C_37  and  C_59
   15  A    between atoms: N_39  and  C_41
   16  A    between atoms: C_41  and  C_45
   17  A    between atoms: C_45  and  C_51
   18  A    between atoms: C_48  and  C_51
   19  A    between atoms: C_48  and  C_54
   20  A    between atoms: C_56  and  N_64
   21  A    between atoms: N_66  and  C_67
                            x       y       z     vdW  Elec       q    Type
                         _______ _______ _______ _____ _____    ______ ____

>  <TORSDO>
F 21

$$$$
=
 OpenBabel10222415113D

 69 77  0  0  1  0  0  0  0  0999 V2000
  185.9840  179.1660  141.9220 C   0  0  1  0  0  3  0  0  0  0  0  0
  185.0870  178.6410  143.0440 C   0  0  2  0  0  3  0  0  0  0  0  0
  183.5780  178.7850  142.7930 C   0  0  0  0  0  2  0  0  0  0  0  0
  182.7650  179.1640  144.0300 C   0  0  0  0  0  2  0  0  0  0  0  0
  181.2720  179.1140  143.7430 C   0  0  0  0  0  2  0  0  0  0  0  0
  180.5240  177.6580  141.8150 C   0  0  0  0  0  3  0  0  0  0  0  0
  180.2640  178.6260  139.6130 C   0  0  0  0  0  3  0  0  0  0  0  0
  180.1770  177.5220  140.4650 C   0  0  0  0  0  0  0  0  0  0  0  0
  181.0580  179.9590  141.4350 N   0  0  0  0  0  0  0  0  0  0  0  0
  180.8520  180.9660  139.2500 N   0  0  0  0  0  1  0  0  0  0  0  0
  180.7230  179.8450  140.1170 C   0  0  0  0  0  0  0  0  0  0  0  0
  180.9640  178.9000  142.2920 C   0  0  0  0  0  0  0  0  0  0  0  0
  178.9310  176.4130  137.5860 O   0  0  0  0  0  0  0  0  0  0  0  0
  179.2080  175.8160  138.6590 C   0  0  0  0  0  0  0  0  0  0  0  0
  179.1350  174.7700  141.7000 N   0  0  0  0  0  1  0  0  0  0  0  0
  179.7560  176.2580  139.9570 N   0  0  0  0  0  0  0  0  0  0  0  0
  179.0290  174.0940  139.1940 S   0  0  0  0  0  0  0  0  0  0  0  0
  179.8600  174.9050  140.4490 C   0  0  2  0  0  3  0  0  0  0  0  0
  185.5530  179.1840  144.3900 C   0  0  0  0  0  2  0  0  0  0  0  0
  186.3430  176.9550  144.7340 O   0  0  0  0  0  0  0  0  0  0  0  0
  187.2260  177.7640  145.4720 C   0  0  0  0  0  2  0  0  0  0  0  0
  185.7790  178.0650  145.3890 C   0  0  1  0  0  3  0  0  0  0  0  0
  187.4280  179.2860  142.3730 C   0  0  0  0  0  2  0  0  0  0  0  0
  190.1920  176.6760  140.6260 C   0  0  0  0  0  0  0  0  0  0  0  0
  190.8990  175.7780  140.0970 O   0  0  0  0  0  0  0  0  0  0  0  0
  189.2510  177.4980  139.8240 C   0  0  0  0  0  0  0  0  0  0  0  0
  190.2580  176.8840  142.1140 C   0  0  2  0  0  3  0  0  0  0  0  0
  188.3630  178.3130  140.5300 O   0  0  0  0  0  0  0  0  0  0  0  0
  188.1670  178.1310  141.8860 N   0  0  0  0  0  0  0  0  0  0  0  0
  189.4710  178.1280  142.5420 C   0  0  0  0  0  2  0  0  0  0  0  0
  189.2100  177.5210  138.4870 C   0  0  0  0  0  3  0  0  0  0  0  0
  191.5750  177.0140  142.5190 F   0  0  0  0  0  0  0  0  0  0  0  0
  190.1160  176.7440  137.5880 C   0  0  2  0  0  3  0  0  0  0  0  0
  191.3610  177.3660  137.5370 O   0  0  0  0  0  1  0  0  0  0  0  0
  189.5190  176.6980  136.1920 C   0  0  0  0  0  2  0  0  0  0  0  0
  190.6060  176.6720  135.1290 C   0  0  0  0  0  2  0  0  0  0  0  0
  197.6530  175.1110  136.1240 F   0  0  0  0  0  0  0  0  0  0  0  0
  192.6550  175.3230  135.6700 C   0  0  1  0  0  3  0  0  0  0  0  0
  191.2580  175.3050  135.0190 C   0  0  1  0  0  3  0  0  0  0  0  0
  192.8480  174.2270  136.7430 C   0  0  1  0  0  3  0  0  0  0  0  0
  196.6380  174.5990  136.8650 C   0  0  0  0  0  0  0  0  0  0  0  0
  195.8850  173.4890  138.8460 N   0  0  0  0  0  0  0  0  0  0  0  0
  192.3730  172.8600  136.2320 C   0  0  0  0  0  2  0  0  0  0  0  0
  193.7320  175.1860  134.5940 C   0  0  0  0  0  2  0  0  0  0  0  0
  195.0280  175.2770  135.1830 O   0  0  0  0  0  0  0  0  0  0  0  0
  195.3180  174.6680  136.4090 C   0  0  0  0  0  0  0  0  0  0  0  0
  190.9620  172.8880  135.6370 C   0  0  0  0  0  2  0  0  0  0  0  0
  190.3250  174.2770  135.6610 C   0  0  0  0  0  2  0  0  0  0  0  0
  194.2790  174.1510  137.2030 C   0  0  0  0  0  0  0  0  0  0  0  0
  196.9020  173.9990  138.0970 C   0  0  0  0  0  3  0  0  0  0  0  0
  194.5930  173.5510  138.4280 C   0  0  0  0  0  3  0  0  0  0  0  0
  185.8980  178.3870  140.7370 O   0  0  0  0  0  0  0  0  0  0  0  0
  184.6710  178.1200  140.1220 C   0  0  0  0  0  0  0  0  0  0  0  0
  183.7070  177.6510  140.7900 O   0  0  0  0  0  0  0  0  0  0  0  0
  183.4040  177.5290  138.0210 C   0  0  0  0  0  2  0  0  0  0  0  0
  185.6740  177.6800  136.5200 C   0  0  0  0  0  2  0  0  0  0  0  0
  185.8860  178.1550  137.9520 C   0  0  0  0  0  2  0  0  0  0  0  0
  184.5380  178.3550  138.6480 C   0  0  2  0  0  3  0  0  0  0  0  0
  185.0490  176.3500  136.5080 N   0  0  0  0  0  0  0  0  0  0  0  0
  183.9330  176.2010  137.4660 C   0  0  0  0  0  2  0  0  0  0  0  0
  184.5080  176.1400  135.1720 C   0  0  0  0  0  2  0  0  0  0  0  0
  184.3430  174.6530  134.8990 C   0  0  0  0  0  2  0  0  0  0  0  0
  185.4930  173.9260  135.4130 N   0  0  0  0  0  2  0  0  0  0  0  0
  184.4370  170.6430  135.1930 C   0  0  0  0  0  3  0  0  0  0  0  0
  183.1790  171.3450  135.4370 N   0  0  0  0  0  0  0  0  0  0  0  0
  185.5030  171.5390  135.6650 C   0  0  0  0  0  0  0  0  0  0  0  0
  183.4870  172.6750  135.9810 C   0  0  0  0  0  2  0  0  0  0  0  0
  186.6890  171.2450  135.6400 O   0  0  0  0  0  0  0  0  0  0  0  0
  184.9880  172.8110  136.1980 C   0  0  2  0  0  3  0  0  0  0  0  0
  1 23  1  1  0  0  0
  1  2  1  0  0  0  0
  2  3  1  6  0  0  0
  2 19  1  0  0  0  0
  3  4  1  0  0  0  0
  5  4  1  0  0  0  0
  6 12  1  0  0  0  0
  7 11  2  0  0  0  0
  7  8  1  0  0  0  0
  8  6  2  0  0  0  0
  9 12  2  0  0  0  0
 10 11  1  0  0  0  0
 11  9  1  0  0  0  0
 12  5  1  0  0  0  0
 13 14  2  0  0  0  0
 14 17  1  0  0  0  0
 14 16  1  0  0  0  0
 16 18  1  0  0  0  0
 16  8  1  0  0  0  0
 17 18  1  0  0  0  0
 18 15  1  1  0  0  0
 20 22  1  0  0  0  0
 20 21  1  0  0  0  0
 22 19  1  6  0  0  0
 22 21  1  0  0  0  0
 24 27  1  0  0  0  0
 25 24  2  0  0  0  0
 26 28  1  0  0  0  0
 26 24  1  0  0  0  0
 27 32  1  6  0  0  0
 27 30  1  0  0  0  0
 28 29  1  0  0  0  0
 29 23  1  0  0  0  0
 29 30  1  0  0  0  0
 31 26  2  0  0  0  0
 33 34  1  6  0  0  0
 33 31  1  0  0  0  0
 35 33  1  0  0  0  0
 36 35  1  0  0  0  0
 37 41  1  0  0  0  0
 38 44  1  6  0  0  0
 38 40  1  0  0  0  0
 39 36  1  1  0  0  0
 39 48  1  0  0  0  0
 39 38  1  0  0  0  0
 40 43  1  6  0  0  0
 40 49  1  0  0  0  0
 41 50  1  0  0  0  0
 44 45  1  0  0  0  0
 45 46  1  0  0  0  0
 46 41  2  0  0  0  0
 46 49  1  0  0  0  0
 47 48  1  0  0  0  0
 47 43  1  0  0  0  0
 49 51  2  0  0  0  0
 50 42  2  0  0  0  0
 51 42  1  0  0  0  0
 52  1  1  0  0  0  0
 53 52  1  0  0  0  0
 53 54  2  0  0  0  0
 55 58  1  0  0  0  0
 56 57  1  0  0  0  0
 57 58  1  0  0  0  0
 58 53  1  1  0  0  0
 59 56  1  0  0  0  0
 59 60  1  0  0  0  0
 60 55  1  0  0  0  0
 61 59  1  0  0  0  0
 62 61  1  0  0  0  0
 62 63  1  0  0  0  0
 64 65  2  0  0  0  0
 64 66  1  0  0  0  0
 65 67  1  0  0  0  0
 66 69  1  0  0  0  0
 67 69  1  0  0  0  0
 68 66  2  0  0  0  0
 69 63  1  6  0  0  0
M  END
>  <MODEL>
5

>  <REMARK>
 VINA RESULT:      -5.1      2.335      6.319
  Name = 
  21 active torsions:
  status: ('A' for Active; 'I' for Inactive)
    1  A    between atoms: C_8  and  C_9
    2  A    between atoms: C_8  and  C_37
    3  A    between atoms: C_9  and  C_11
    4  A    between atoms: C_10  and  C_56
    5  A    between atoms: C_10  and  N_66
    6  A    between atoms: C_15  and  C_54
    7  A    between atoms: C_15  and  C_62
    8  A    between atoms: C_18  and  C_51
    9  A    between atoms: C_18  and  C_65
   10  A    between atoms: C_20  and  N_42
   11  A    between atoms: O_26  and  C_27
   12  A    between atoms: O_26  and  C_45
   13  A    between atoms: C_27  and  C_33
   14  A    between atoms: C_37  and  C_59
   15  A    between atoms: N_39  and  C_41
   16  A    between atoms: C_41  and  C_45
   17  A    between atoms: C_45  and  C_51
   18  A    between atoms: C_48  and  C_51
   19  A    between atoms: C_48  and  C_54
   20  A    between atoms: C_56  and  N_64
   21  A    between atoms: N_66  and  C_67
                            x       y       z     vdW  Elec       q    Type
                         _______ _______ _______ _____ _____    ______ ____

>  <TORSDO>
F 21

$$$$
=
 OpenBabel10222415113D

 69 77  0  0  1  0  0  0  0  0999 V2000
  190.2520  176.4740  140.4550 C   0  0  1  0  0  3  0  0  0  0  0  0
  190.5810  176.4890  141.9480 C   0  0  2  0  0  3  0  0  0  0  0  0
  189.3920  176.2030  142.8790 C   0  0  0  0  0  2  0  0  0  0  0  0
  188.2140  177.1630  142.7140 C   0  0  0  0  0  2  0  0  0  0  0  0
  187.0480  176.7610  143.6040 C   0  0  0  0  0  2  0  0  0  0  0  0
  185.3430  177.9350  142.1520 C   0  0  0  0  0  3  0  0  0  0  0  0
  183.5210  179.1470  143.1860 C   0  0  0  0  0  3  0  0  0  0  0  0
  184.1750  178.6990  142.0350 C   0  0  0  0  0  0  0  0  0  0  0  0
  185.2000  178.1040  144.5340 N   0  0  0  0  0  0  0  0  0  0  0  0
  183.4250  179.3320  145.6160 N   0  0  0  0  0  1  0  0  0  0  0  0
  184.0610  178.8490  144.4390 C   0  0  0  0  0  0  0  0  0  0  0  0
  185.8470  177.6380  143.4250 C   0  0  0  0  0  0  0  0  0  0  0  0
  181.3210  179.9400  140.8570 O   0  0  0  0  0  0  0  0  0  0  0  0
  182.3800  179.5890  140.2750 C   0  0  0  0  0  0  0  0  0  0  0  0
  184.7570  177.8220  139.0220 N   0  0  0  0  0  1  0  0  0  0  0  0
  183.6650  179.0340  140.7460 N   0  0  0  0  0  0  0  0  0  0  0  0
  182.8690  179.5360  138.5300 S   0  0  0  0  0  0  0  0  0  0  0  0
  184.2600  179.1230  139.4340 C   0  0  2  0  0  3  0  0  0  0  0  0
  191.3670  177.7450  142.3040 C   0  0  0  0  0  2  0  0  0  0  0  0
  191.9430  179.2410  144.0760 O   0  0  0  0  0  0  0  0  0  0  0  0
  190.5400  179.1400  144.1350 C   0  0  0  0  0  2  0  0  0  0  0  0
  191.3910  177.9760  143.8030 C   0  0  1  0  0  3  0  0  0  0  0  0
  189.8670  177.8540  139.9560 C   0  0  0  0  0  2  0  0  0  0  0  0
  187.7760  177.7220  136.3350 C   0  0  0  0  0  0  0  0  0  0  0  0
  187.2780  177.5960  135.1850 O   0  0  0  0  0  0  0  0  0  0  0  0
  187.7150  176.6250  137.3330 C   0  0  0  0  0  0  0  0  0  0  0  0
  188.5000  178.9920  136.6880 C   0  0  2  0  0  3  0  0  0  0  0  0
  188.4780  176.7830  138.4930 O   0  0  0  0  0  0  0  0  0  0  0  0
  189.4620  177.7520  138.5620 N   0  0  0  0  0  0  0  0  0  0  0  0
  188.8740  179.0310  138.1740 C   0  0  0  0  0  2  0  0  0  0  0  0
  186.9760  175.5180  137.2040 C   0  0  0  0  0  3  0  0  0  0  0  0
  187.7110  180.0900  136.3860 F   0  0  0  0  0  0  0  0  0  0  0  0
  186.0760  175.2190  136.0490 C   0  0  2  0  0  3  0  0  0  0  0  0
  185.0350  176.1430  136.0230 O   0  0  0  0  0  1  0  0  0  0  0  0
  185.5040  173.8210  136.2080 C   0  0  0  0  0  2  0  0  0  0  0  0
  184.6050  173.7300  137.4310 C   0  0  0  0  0  2  0  0  0  0  0  0
  179.3220  178.6750  138.2810 F   0  0  0  0  0  0  0  0  0  0  0  0
  182.4450  174.9470  137.0250 C   0  0  1  0  0  3  0  0  0  0  0  0
  183.1430  173.5730  137.0480 C   0  0  1  0  0  3  0  0  0  0  0  0
  181.7320  175.2520  135.6880 C   0  0  1  0  0  3  0  0  0  0  0  0
  179.7200  178.1690  137.0860 C   0  0  0  0  0  0  0  0  0  0  0  0
  179.7760  178.3160  134.6990 N   0  0  0  0  0  0  0  0  0  0  0  0
  180.8720  174.0650  135.2330 C   0  0  0  0  0  2  0  0  0  0  0  0
  181.4440  175.0420  138.1760 C   0  0  0  0  0  2  0  0  0  0  0  0
  180.8480  176.3370  138.2040 O   0  0  0  0  0  0  0  0  0  0  0  0
  180.4800  176.9980  137.0270 C   0  0  0  0  0  0  0  0  0  0  0  0
  181.6270  172.7320  135.2310 C   0  0  0  0  0  2  0  0  0  0  0  0
  183.0760  172.8580  135.6980 C   0  0  0  0  0  2  0  0  0  0  0  0
  180.8990  176.5030  135.7790 C   0  0  0  0  0  0  0  0  0  0  0  0
  179.3750  178.8180  135.8990 C   0  0  0  0  0  3  0  0  0  0  0  0
  180.5220  177.1830  134.6150 C   0  0  0  0  0  3  0  0  0  0  0  0
  191.3030  175.9380  139.6630 O   0  0  0  0  0  0  0  0  0  0  0  0
  192.4000  176.7140  139.2790 C   0  0  0  0  0  0  0  0  0  0  0  0
  192.7270  177.7380  139.9430 O   0  0  0  0  0  0  0  0  0  0  0  0
  192.2980  175.4990  137.0690 C   0  0  0  0  0  2  0  0  0  0  0  0
  194.8900  174.6920  137.3070 C   0  0  0  0  0  2  0  0  0  0  0  0
  194.4820  175.6790  138.3940 C   0  0  0  0  0  2  0  0  0  0  0  0
  193.1480  176.3380  138.0360 C   0  0  2  0  0  3  0  0  0  0  0  0
  193.9330  173.5790  137.2380 N   0  0  0  0  0  0  0  0  0  0  0  0
  192.5170  174.0000  137.3040 C   0  0  0  0  0  2  0  0  0  0  0  0
  194.1330  172.9180  135.9560 C   0  0  0  0  0  2  0  0  0  0  0  0
  194.5240  171.4640  136.1700 C   0  0  0  0  0  2  0  0  0  0  0  0
  195.8800  171.2420  135.6910 N   0  0  0  0  0  2  0  0  0  0  0  0
  199.0530  172.6070  135.7260 C   0  0  0  0  0  3  0  0  0  0  0  0
  199.1290  171.6510  136.8270 N   0  0  0  0  0  0  0  0  0  0  0  0
  197.6230  172.8810  135.5190 C   0  0  0  0  0  0  0  0  0  0  0  0
  197.7600  171.2990  137.2310 C   0  0  0  0  0  2  0  0  0  0  0  0
  197.2030  173.6720  134.6880 O   0  0  0  0  0  0  0  0  0  0  0  0
  196.7570  172.1270  136.4390 C   0  0  2  0  0  3  0  0  0  0  0  0
  1 23  1  6  0  0  0
  1  2  1  0  0  0  0
  2 19  1  1  0  0  0
  2  3  1  0  0  0  0
  4  3  1  0  0  0  0
  4  5  1  0  0  0  0
  6 12  1  0  0  0  0
  7 11  2  0  0  0  0
  8  6  2  0  0  0  0
  8  7  1  0  0  0  0
 11  9  1  0  0  0  0
 11 10  1  0  0  0  0
 12  5  1  0  0  0  0
 12  9  2  0  0  0  0
 14 16  1  0  0  0  0
 14 13  2  0  0  0  0
 16  8  1  0  0  0  0
 17 18  1  0  0  0  0
 17 14  1  0  0  0  0
 18 15  1  6  0  0  0
 18 16  1  0  0  0  0
 20 21  1  0  0  0  0
 22 19  1  6  0  0  0
 22 20  1  0  0  0  0
 22 21  1  0  0  0  0
 24 27  1  0  0  0  0
 24 26  1  0  0  0  0
 25 24  2  0  0  0  0
 26 28  1  0  0  0  0
 27 32  1  1  0  0  0
 27 30  1  0  0  0  0
 28 29  1  0  0  0  0
 29 23  1  0  0  0  0
 30 29  1  0  0  0  0
 31 26  2  0  0  0  0
 33 34  1  1  0  0  0
 33 35  1  0  0  0  0
 33 31  1  0  0  0  0
 35 36  1  0  0  0  0
 38 39  1  0  0  0  0
 38 44  1  1  0  0  0
 39 36  1  6  0  0  0
 40 43  1  1  0  0  0
 40 49  1  0  0  0  0
 40 38  1  0  0  0  0
 41 37  1  0  0  0  0
 42 50  1  0  0  0  0
 44 45  1  0  0  0  0
 46 41  1  0  0  0  0
 46 45  1  0  0  0  0
 47 43  1  0  0  0  0
 47 48  1  0  0  0  0
 48 39  1  0  0  0  0
 49 46  2  0  0  0  0
 50 41  2  0  0  0  0
 51 42  2  0  0  0  0
 51 49  1  0  0  0  0
 52  1  1  0  0  0  0
 53 52  1  0  0  0  0
 53 54  2  0  0  0  0
 55 60  1  0  0  0  0
 55 58  1  0  0  0  0
 56 57  1  0  0  0  0
 58 57  1  0  0  0  0
 58 53  1  1  0  0  0
 59 60  1  0  0  0  0
 59 56  1  0  0  0  0
 61 62  1  0  0  0  0
 61 59  1  0  0  0  0
 63 62  1  0  0  0  0
 64 65  2  0  0  0  0
 65 67  1  0  0  0  0
 66 64  1  0  0  0  0
 66 69  1  0  0  0  0
 68 66  2  0  0  0  0
 69 63  1  6  0  0  0
 69 67  1  0  0  0  0
M  END
>  <MODEL>
6

>  <REMARK>
 VINA RESULT:      -5.0      3.252     10.260
  Name = 
  21 active torsions:
  status: ('A' for Active; 'I' for Inactive)
    1  A    between atoms: C_8  and  C_9
    2  A    between atoms: C_8  and  C_37
    3  A    between atoms: C_9  and  C_11
    4  A    between atoms: C_10  and  C_56
    5  A    between atoms: C_10  and  N_66
    6  A    between atoms: C_15  and  C_54
    7  A    between atoms: C_15  and  C_62
    8  A    between atoms: C_18  and  C_51
    9  A    between atoms: C_18  and  C_65
   10  A    between atoms: C_20  and  N_42
   11  A    between atoms: O_26  and  C_27
   12  A    between atoms: O_26  and  C_45
   13  A    between atoms: C_27  and  C_33
   14  A    between atoms: C_37  and  C_59
   15  A    between atoms: N_39  and  C_41
   16  A    between atoms: C_41  and  C_45
   17  A    between atoms: C_45  and  C_51
   18  A    between atoms: C_48  and  C_51
   19  A    between atoms: C_48  and  C_54
   20  A    between atoms: C_56  and  N_64
   21  A    between atoms: N_66  and  C_67
                            x       y       z     vdW  Elec       q    Type
                         _______ _______ _______ _____ _____    ______ ____

>  <TORSDO>
F 21

$$$$
=
 OpenBabel10222415113D

 69 77  0  0  1  0  0  0  0  0999 V2000
  188.2230  176.5340  137.6340 C   0  0  1  0  0  3  0  0  0  0  0  0
  187.5460  177.8460  138.0300 C   0  0  2  0  0  3  0  0  0  0  0  0
  188.1410  178.5380  139.2670 C   0  0  0  0  0  2  0  0  0  0  0  0
  187.4800  178.1490  140.5890 C   0  0  0  0  0  2  0  0  0  0  0  0
  187.0400  179.3800  141.3660 C   0  0  0  0  0  2  0  0  0  0  0  0
  184.5570  178.9130  141.2480 C   0  0  0  0  0  3  0  0  0  0  0  0
  183.2650  178.7750  143.2890 C   0  0  0  0  0  3  0  0  0  0  0  0
  183.3340  178.6960  141.8960 C   0  0  0  0  0  0  0  0  0  0  0  0
  185.5970  179.3050  143.3660 N   0  0  0  0  0  0  0  0  0  0  0  0
  184.3480  179.2160  145.4300 N   0  0  0  0  0  1  0  0  0  0  0  0
  184.4150  179.0960  144.0140 C   0  0  0  0  0  0  0  0  0  0  0  0
  185.6950  179.2160  142.0070 C   0  0  0  0  0  0  0  0  0  0  0  0
  182.2470  176.1470  140.0540 O   0  0  0  0  0  0  0  0  0  0  0  0
  181.7230  177.2580  140.3320 C   0  0  0  0  0  0  0  0  0  0  0  0
  181.0670  180.4050  140.4380 N   0  0  0  0  0  1  0  0  0  0  0  0
  182.1600  178.4170  141.1360 N   0  0  0  0  0  0  0  0  0  0  0  0
  180.1640  178.0430  139.8440 S   0  0  0  0  0  0  0  0  0  0  0  0
  180.8850  179.0770  140.9980 C   0  0  2  0  0  3  0  0  0  0  0  0
  186.0340  177.6670  138.0800 C   0  0  0  0  0  2  0  0  0  0  0  0
  184.6480  176.9870  136.2560 O   0  0  0  0  0  0  0  0  0  0  0  0
  183.9150  177.9990  136.9040 C   0  0  0  0  0  2  0  0  0  0  0  0
  185.3860  178.0690  136.7680 C   0  0  1  0  0  3  0  0  0  0  0  0
  189.3150  176.1510  138.6160 C   0  0  0  0  0  2  0  0  0  0  0  0
  192.2620  175.2020  135.8030 C   0  0  0  0  0  0  0  0  0  0  0  0
  193.2580  174.9190  135.0850 O   0  0  0  0  0  0  0  0  0  0  0  0
  191.5690  174.1700  136.6130 C   0  0  0  0  0  0  0  0  0  0  0  0
  191.7980  176.6310  135.8880 C   0  0  2  0  0  3  0  0  0  0  0  0
  190.6200  174.6200  137.5340 O   0  0  0  0  0  0  0  0  0  0  0  0
  190.5560  175.9570  137.8830 N   0  0  0  0  0  0  0  0  0  0  0  0
  190.4780  176.7470  136.6580 C   0  0  0  0  0  2  0  0  0  0  0  0
  191.7790  172.8530  136.5100 C   0  0  0  0  0  3  0  0  0  0  0  0
  191.6350  177.1540  134.6170 F   0  0  0  0  0  0  0  0  0  0  0  0
  192.7260  172.2090  135.5490 C   0  0  2  0  0  3  0  0  0  0  0  0
  192.1030  171.1190  134.9470 O   0  0  0  0  0  1  0  0  0  0  0  0
  193.9570  171.7330  136.3010 C   0  0  0  0  0  2  0  0  0  0  0  0
  195.2080  171.8660  135.4470 C   0  0  0  0  0  2  0  0  0  0  0  0
  195.7810  175.8780  141.5020 F   0  0  0  0  0  0  0  0  0  0  0  0
  196.1070  173.5820  137.0460 C   0  0  1  0  0  3  0  0  0  0  0  0
  195.8320  173.2450  135.5670 C   0  0  1  0  0  3  0  0  0  0  0  0
  197.5730  173.9880  137.3230 C   0  0  1  0  0  3  0  0  0  0  0  0
  196.8330  175.4330  140.7690 C   0  0  0  0  0  0  0  0  0  0  0  0
  199.1740  174.9770  140.5850 N   0  0  0  0  0  0  0  0  0  0  0  0
  198.0640  175.0250  136.3040 C   0  0  0  0  0  2  0  0  0  0  0  0
  195.1680  174.6970  137.5090 C   0  0  0  0  0  2  0  0  0  0  0  0
  195.3670  174.9620  138.8960 O   0  0  0  0  0  0  0  0  0  0  0  0
  196.6470  174.9760  139.4610 C   0  0  0  0  0  0  0  0  0  0  0  0
  197.8080  174.6200  134.8500 C   0  0  0  0  0  2  0  0  0  0  0  0
  197.1010  173.2720  134.7140 C   0  0  0  0  0  2  0  0  0  0  0  0
  197.7480  174.5010  138.7270 C   0  0  0  0  0  0  0  0  0  0  0  0
  198.1170  175.4270  141.3170 C   0  0  0  0  0  3  0  0  0  0  0  0
  199.0180  174.5200  139.3150 C   0  0  0  0  0  3  0  0  0  0  0  0
  187.3020  175.4630  137.4760 O   0  0  0  0  0  0  0  0  0  0  0  0
  187.3780  174.5860  136.3900 C   0  0  0  0  0  0  0  0  0  0  0  0
  188.1640  174.8190  135.4290 O   0  0  0  0  0  0  0  0  0  0  0  0
  185.9620  173.0710  134.9510 C   0  0  0  0  0  2  0  0  0  0  0  0
  184.1020  172.8090  136.9260 C   0  0  0  0  0  2  0  0  0  0  0  0
  185.3480  173.5530  137.3900 C   0  0  0  0  0  2  0  0  0  0  0  0
  186.4720  173.3920  136.3640 C   0  0  2  0  0  3  0  0  0  0  0  0
  183.5720  173.4140  135.6950 N   0  0  0  0  0  0  0  0  0  0  0  0
  184.6070  173.7390  134.6910 C   0  0  0  0  0  2  0  0  0  0  0  0
  182.6670  172.4440  135.0930 C   0  0  0  0  0  2  0  0  0  0  0  0
  181.4360  172.2610  135.9650 C   0  0  0  0  0  2  0  0  0  0  0  0
  180.3350  173.0540  135.4390 N   0  0  0  0  0  2  0  0  0  0  0  0
  179.7570  174.6030  138.4730 C   0  0  0  0  0  3  0  0  0  0  0  0
  179.9490  173.2130  138.8800 N   0  0  0  0  0  0  0  0  0  0  0  0
  179.3950  174.5660  137.0480 C   0  0  0  0  0  0  0  0  0  0  0  0
  179.7750  172.3560  137.6990 C   0  0  0  0  0  2  0  0  0  0  0  0
  179.1300  175.5640  136.3950 O   0  0  0  0  0  0  0  0  0  0  0  0
  179.3550  173.1990  136.5030 C   0  0  2  0  0  3  0  0  0  0  0  0
  1  2  1  0  0  0  0
  1 23  1  1  0  0  0
  2 19  1  1  0  0  0
  2  3  1  0  0  0  0
  3  4  1  0  0  0  0
  4  5  1  0  0  0  0
  5 12  1  0  0  0  0
  6  8  2  0  0  0  0
  6 12  1  0  0  0  0
  7 11  2  0  0  0  0
  8  7  1  0  0  0  0
  9 11  1  0  0  0  0
 11 10  1  0  0  0  0
 12  9  2  0  0  0  0
 13 14  2  0  0  0  0
 14 16  1  0  0  0  0
 16  8  1  0  0  0  0
 17 14  1  0  0  0  0
 17 18  1  0  0  0  0
 18 15  1  6  0  0  0
 18 16  1  0  0  0  0
 20 22  1  0  0  0  0
 20 21  1  0  0  0  0
 22 21  1  0  0  0  0
 22 19  1  1  0  0  0
 24 27  1  0  0  0  0
 24 26  1  0  0  0  0
 25 24  2  0  0  0  0
 26 28  1  0  0  0  0
 27 32  1  6  0  0  0
 27 30  1  0  0  0  0
 28 29  1  0  0  0  0
 29 23  1  0  0  0  0
 30 29  1  0  0  0  0
 31 26  2  0  0  0  0
 33 34  1  1  0  0  0
 33 35  1  0  0  0  0
 33 31  1  0  0  0  0
 36 35  1  0  0  0  0
 38 40  1  0  0  0  0
 38 44  1  6  0  0  0
 39 36  1  1  0  0  0
 39 38  1  0  0  0  0
 40 43  1  6  0  0  0
 40 49  1  0  0  0  0
 41 50  1  0  0  0  0
 41 37  1  0  0  0  0
 42 50  2  0  0  0  0
 44 45  1  0  0  0  0
 45 46  1  0  0  0  0
 46 41  2  0  0  0  0
 47 43  1  0  0  0  0
 48 47  1  0  0  0  0
 48 39  1  0  0  0  0
 49 51  2  0  0  0  0
 49 46  1  0  0  0  0
 51 42  1  0  0  0  0
 52  1  1  0  0  0  0
 53 52  1  0  0  0  0
 54 53  2  0  0  0  0
 55 58  1  0  0  0  0
 56 57  1  0  0  0  0
 58 53  1  6  0  0  0
 58 57  1  0  0  0  0
 59 56  1  0  0  0  0
 60 55  1  0  0  0  0
 60 59  1  0  0  0  0
 61 59  1  0  0  0  0
 61 62  1  0  0  0  0
 63 62  1  0  0  0  0
 64 65  2  0  0  0  0
 66 64  1  0  0  0  0
 67 65  1  0  0  0  0
 68 66  2  0  0  0  0
 69 63  1  6  0  0  0
 69 66  1  0  0  0  0
 69 67  1  0  0  0  0
M  END
>  <MODEL>
7

>  <REMARK>
 VINA RESULT:      -4.8      3.483      8.111
  Name = 
  21 active torsions:
  status: ('A' for Active; 'I' for Inactive)
    1  A    between atoms: C_8  and  C_9
    2  A    between atoms: C_8  and  C_37
    3  A    between atoms: C_9  and  C_11
    4  A    between atoms: C_10  and  C_56
    5  A    between atoms: C_10  and  N_66
    6  A    between atoms: C_15  and  C_54
    7  A    between atoms: C_15  and  C_62
    8  A    between atoms: C_18  and  C_51
    9  A    between atoms: C_18  and  C_65
   10  A    between atoms: C_20  and  N_42
   11  A    between atoms: O_26  and  C_27
   12  A    between atoms: O_26  and  C_45
   13  A    between atoms: C_27  and  C_33
   14  A    between atoms: C_37  and  C_59
   15  A    between atoms: N_39  and  C_41
   16  A    between atoms: C_41  and  C_45
   17  A    between atoms: C_45  and  C_51
   18  A    between atoms: C_48  and  C_51
   19  A    between atoms: C_48  and  C_54
   20  A    between atoms: C_56  and  N_64
   21  A    between atoms: N_66  and  C_67
                            x       y       z     vdW  Elec       q    Type
                         _______ _______ _______ _____ _____    ______ ____

>  <TORSDO>
F 21

$$$$
