=
 OpenBabel10222421053D

 55 59  0  0  1  0  0  0  0  0999 V2000
  188.6860  177.3920  135.0160 F   0  0  0  0  0  0  0  0  0  0  0  0
  188.6190  178.4590  137.1100 C   0  0  0  0  0  0  0  0  0  0  0  0
  186.3000  176.5680  136.6170 C   0  0  0  0  0  0  0  0  0  0  0  0
  187.0960  176.1680  137.7030 O   0  0  0  0  0  0  0  0  0  0  0  0
  191.9630  174.7380  136.9190 C   0  0  0  0  0  2  0  0  0  0  0  0
  189.9180  176.0780  138.3530 C   0  0  1  0  0  0  0  0  0  0  0  0
  185.9240  177.8860  134.6460 O   0  0  0  0  0  1  0  0  0  0  0  0
  191.1490  176.8690  137.8860 C   0  0  0  0  0  2  0  0  0  0  0  0
  188.4590  177.0770  138.2130 P   0  0  1  0  0  4  0  0  0  0  0  0
  185.3400  175.7990  136.1940 N   0  0  0  0  0  0  0  0  0  0  0  0
  186.5190  177.8990  135.9100 C   0  0  2  0  0  3  0  0  0  0  0  0
  189.5170  176.9410  140.3970 C   0  0  2  0  0  3  0  0  0  0  0  0
  189.7920  174.7850  137.5380 C   0  0  0  0  0  2  0  0  0  0  0  0
  192.3810  175.9750  137.7030 C   0  0  2  0  0  3  0  0  0  0  0  0
  187.9890  178.3250  135.7690 C   0  0  2  0  0  3  0  0  0  0  0  0
  188.3480  177.5100  139.8280 O   0  0  0  0  0  0  0  0  0  0  0  0
  190.9760  174.0300  137.6270 O   0  0  0  0  0  0  0  0  0  0  0  0
  189.9920  175.7890  139.7150 O   0  0  0  0  0  0  0  0  0  0  0  0
  189.2300  179.4660  137.4350 O   0  0  0  0  0  0  0  0  0  0  0  0
  186.9360  177.4610  144.7580 C   0  0  0  0  0  2  0  0  0  0  0  0
  189.3760  176.6200  141.8930 C   0  0  1  0  0  3  0  0  0  0  0  0
  191.6570  178.3540  144.1990 C   0  0  0  0  0  2  0  0  0  0  0  0
  191.3160  178.0710  142.7220 C   0  0  0  0  0  2  0  0  0  0  0  0
  187.0190  177.5920  141.9170 C   0  0  0  0  0  2  0  0  0  0  0  0
  190.7660  176.6500  142.5550 C   0  0  0  0  0  2  0  0  0  0  0  0
  188.2570  177.4520  144.0490 C   0  0  0  0  0  0  0  0  0  0  0  0
  189.3190  177.8530  144.6860 C   0  0  0  0  0  0  0  0  0  0  0  0
  186.2470  178.7110  142.6120 C   0  0  0  0  0  2  0  0  0  0  0  0
  184.6660  177.6220  144.0460 O   0  0  0  0  0  1  0  0  0  0  0  0
  190.4800  178.2380  145.1400 C   0  0  0  0  0  3  0  0  0  0  0  0
  188.2930  177.3570  142.6050 N   0  0  0  0  0  0  0  0  0  0  0  0
  185.8710  178.3320  144.0620 C   0  0  1  0  0  0  0  0  0  0  0  0
  185.6290  179.3170  146.3990 C   0  0  0  0  0  1  0  0  0  0  0  0
  185.6960  179.5990  144.9030 C   0  0  0  0  0  2  0  0  0  0  0  0
  184.9390  174.5660  136.7550 N   0  0  0  0  0  2  0  0  0  0  0  0
  184.8220  173.3080  136.0700 C   0  0  0  0  0  0  0  0  0  0  0  0
  185.0540  173.2090  134.8370 O   0  0  0  0  0  0  0  0  0  0  0  0
  184.4320  172.1430  136.7960 N   0  0  0  0  0  0  0  0  0  0  0  0
  183.1990  171.7310  136.9080 C   0  0  0  0  0  3  0  0  0  0  0  0
  182.0270  172.4860  136.3590 C   0  0  0  0  0  2  0  0  0  0  0  0
  180.7970  171.9330  136.8970 N   0  0  0  0  0  2  0  0  0  0  0  0
  180.3010  172.8610  137.8990 C   0  0  0  0  0  2  0  0  0  0  0  0
  180.5370  174.2970  137.4530 C   0  0  0  0  0  2  0  0  0  0  0  0
  180.3080  175.0090  139.7140 O   0  0  0  0  0  1  0  0  0  0  0  0
  181.1220  175.1190  138.5910 C   0  0  0  0  0  2  0  0  0  0  0  0
  193.4770  176.7110  136.9370 C   0  0  0  0  0  2  0  0  0  0  0  0
  194.7190  175.8380  136.7500 C   0  0  2  0  0  3  0  0  0  0  0  0
  194.9490  175.6260  135.2530 C   0  0  2  0  0  3  0  0  0  0  0  0
  194.8740  174.2670  134.9070 O   0  0  0  0  0  1  0  0  0  0  0  0
  196.2520  176.2600  134.7590 C   0  0  0  0  0  2  0  0  0  0  0  0
  196.2120  177.7790  134.8080 C   0  0  0  0  0  1  0  0  0  0  0  0
  194.5720  174.5830  137.4130 O   0  0  0  0  0  0  0  0  0  0  0  0
  196.9690  174.4860  138.0830 C   0  0  0  0  0  1  0  0  0  0  0  0
  195.5660  174.0100  138.2090 C   0  0  0  0  0  0  0  0  0  0  0  0
  195.3020  173.0700  139.0090 O   0  0  0  0  0  0  0  0  0  0  0  0
  2 19  2  0  0  0  0
  3  4  1  0  0  0  0
  4  9  1  0  0  0  0
  5 17  1  0  0  0  0
  5 14  1  0  0  0  0
  6 13  1  6  0  0  0
  6 18  1  0  0  0  0
  8  6  1  0  0  0  0
  9  2  1  6  0  0  0
  9  6  1  0  0  0  0
  9 16  1  0  0  0  0
 10  3  2  0  0  0  0
 10 35  1  0  0  0  0
 11  7  1  6  0  0  0
 11  3  1  0  0  0  0
 12 18  1  6  0  0  0
 12 21  1  0  0  0  0
 13 17  1  0  0  0  0
 14 46  1  6  0  0  0
 14  8  1  0  0  0  0
 15  1  1  6  0  0  0
 15 11  1  0  0  0  0
 15  2  1  0  0  0  0
 16 12  1  0  0  0  0
 21 25  1  1  0  0  0
 21 31  1  0  0  0  0
 22 30  1  0  0  0  0
 23 22  1  0  0  0  0
 24 31  1  0  0  0  0
 24 28  1  0  0  0  0
 25 23  1  0  0  0  0
 26 27  2  0  0  0  0
 26 20  1  0  0  0  0
 27 30  2  0  0  0  0
 28 32  1  0  0  0  0
 31 26  1  0  0  0  0
 32 29  1  6  0  0  0
 32 20  1  0  0  0  0
 32 34  1  0  0  0  0
 34 33  1  0  0  0  0
 36 35  1  0  0  0  0
 36 38  1  0  0  0  0
 37 36  2  0  0  0  0
 38 39  2  0  0  0  0
 40 41  1  0  0  0  0
 40 39  1  0  0  0  0
 41 42  1  0  0  0  0
 43 42  1  0  0  0  0
 43 45  1  0  0  0  0
 45 44  1  0  0  0  0
 47 46  1  6  0  0  0
 47 52  1  0  0  0  0
 48 49  1  1  0  0  0
 48 47  1  0  0  0  0
 50 51  1  0  0  0  0
 50 48  1  0  0  0  0
 52 54  1  0  0  0  0
 53 54  1  0  0  0  0
 54 55  2  0  0  0  0
M  END
>  <MODEL>
1

>  <REMARK>
 VINA RESULT:      -7.1      0.000      0.000
  Name = 
  15 active torsions:
  status: ('A' for Active; 'I' for Inactive)
    1  A    between atoms: N_1  and  C_10
    2  A    between atoms: N_3  and  N_29
    3  A    between atoms: C_4  and  C_38
    4  A    between atoms: C_4  and  C_50
    5  A    between atoms: C_6  and  C_25
    6  A    between atoms: C_6  and  C_42
    7  A    between atoms: O_11  and  C_41
    8  A    between atoms: O_11  and  C_50
    9  A    between atoms: C_12  and  C_55
   10  A    between atoms: C_15  and  C_33
   11  A    between atoms: C_21  and  C_22
   12  A    between atoms: C_21  and  C_50
   13  A    between atoms: C_24  and  C_49
   14  A    between atoms: N_40  and  C_42
   15  A    between atoms: N_40  and  C_49
                            x       y       z     vdW  Elec       q    Type
                         _______ _______ _______ _____ _____    ______ ____

>  <TORSDO>
F 15

$$$$
=
 OpenBabel10222421053D

 55 59  0  0  1  0  0  0  0  0999 V2000
  189.0830  177.8430  135.0680 F   0  0  0  0  0  0  0  0  0  0  0  0
  188.9910  178.7500  137.2360 C   0  0  0  0  0  0  0  0  0  0  0  0
  186.5370  177.1440  136.4690 C   0  0  0  0  0  0  0  0  0  0  0  0
  187.2230  176.5850  137.5590 O   0  0  0  0  0  0  0  0  0  0  0  0
  191.9700  174.7380  136.9190 C   0  0  0  0  0  2  0  0  0  0  0  0
  189.9790  176.1640  138.3470 C   0  0  1  0  0  0  0  0  0  0  0  0
  186.4080  178.6380  134.5940 O   0  0  0  0  0  1  0  0  0  0  0  0
  191.3060  176.8610  138.0120 C   0  0  0  0  0  2  0  0  0  0  0  0
  188.6330  177.3120  138.2120 P   0  0  1  0  0  4  0  0  0  0  0  0
  185.5340  176.5090  135.9350 N   0  0  0  0  0  0  0  0  0  0  0  0
  186.9240  178.4960  135.8850 C   0  0  2  0  0  3  0  0  0  0  0  0
  189.5400  176.9050  140.4310 C   0  0  2  0  0  3  0  0  0  0  0  0
  189.7790  174.9560  137.4250 C   0  0  0  0  0  2  0  0  0  0  0  0
  192.4560  175.8640  137.8220 C   0  0  2  0  0  3  0  0  0  0  0  0
  188.4340  178.7820  135.8570 C   0  0  2  0  0  3  0  0  0  0  0  0
  188.4670  177.6300  139.8490 O   0  0  0  0  0  0  0  0  0  0  0  0
  190.8790  174.0810  137.5140 O   0  0  0  0  0  0  0  0  0  0  0  0
  189.9420  175.7670  139.6840 O   0  0  0  0  0  0  0  0  0  0  0  0
  189.6750  179.6640  137.6730 O   0  0  0  0  0  0  0  0  0  0  0  0
  186.7060  177.2790  144.6480 C   0  0  0  0  0  2  0  0  0  0  0  0
  189.2790  176.4880  141.8860 C   0  0  1  0  0  3  0  0  0  0  0  0
  191.4990  177.8980  144.4570 C   0  0  0  0  0  2  0  0  0  0  0  0
  191.2430  177.7450  142.9440 C   0  0  0  0  0  2  0  0  0  0  0  0
  186.9880  177.6070  141.8350 C   0  0  0  0  0  2  0  0  0  0  0  0
  190.6200  176.3790  142.6350 C   0  0  0  0  0  2  0  0  0  0  0  0
  188.0690  177.2340  144.0250 C   0  0  0  0  0  0  0  0  0  0  0  0
  189.1080  177.5180  144.7560 C   0  0  0  0  0  0  0  0  0  0  0  0
  186.2400  178.7230  142.5630 C   0  0  0  0  0  2  0  0  0  0  0  0
  184.5030  177.6390  143.8080 O   0  0  0  0  0  1  0  0  0  0  0  0
  190.2560  177.7930  145.3100 C   0  0  0  0  0  3  0  0  0  0  0  0
  188.1960  177.2410  142.5830 N   0  0  0  0  0  0  0  0  0  0  0  0
  185.7450  178.2660  143.9540 C   0  0  1  0  0  0  0  0  0  0  0  0
  184.9110  179.1390  146.1970 C   0  0  0  0  0  1  0  0  0  0  0  0
  185.5910  179.4780  144.8760 C   0  0  0  0  0  2  0  0  0  0  0  0
  184.9840  175.2840  136.3720 N   0  0  0  0  0  2  0  0  0  0  0  0
  185.4660  173.9660  136.0590 C   0  0  0  0  0  0  0  0  0  0  0  0
  186.4570  173.7920  135.3040 O   0  0  0  0  0  0  0  0  0  0  0  0
  184.8090  172.8260  136.6120 N   0  0  0  0  0  0  0  0  0  0  0  0
  183.7300  172.8880  137.3440 C   0  0  0  0  0  3  0  0  0  0  0  0
  183.0990  174.1780  137.7690 C   0  0  0  0  0  2  0  0  0  0  0  0
  181.6830  174.1570  137.4470 N   0  0  0  0  0  2  0  0  0  0  0  0
  181.1630  175.4950  137.6720 C   0  0  0  0  0  2  0  0  0  0  0  0
  180.7780  176.1420  136.3490 C   0  0  0  0  0  2  0  0  0  0  0  0
  181.6220  178.3540  136.6090 O   0  0  0  0  0  1  0  0  0  0  0  0
  181.8280  177.1590  135.9280 C   0  0  0  0  0  2  0  0  0  0  0  0
  193.6620  176.5420  137.1770 C   0  0  0  0  0  2  0  0  0  0  0  0
  194.1670  175.7610  135.9630 C   0  0  2  0  0  3  0  0  0  0  0  0
  195.3150  174.8530  136.4080 C   0  0  2  0  0  3  0  0  0  0  0  0
  195.1810  173.5570  135.8850 O   0  0  0  0  0  1  0  0  0  0  0  0
  195.4950  174.8290  137.9290 C   0  0  0  0  0  2  0  0  0  0  0  0
  195.2310  173.4530  138.5210 C   0  0  0  0  0  1  0  0  0  0  0  0
  194.6020  176.6400  134.9280 O   0  0  0  0  0  0  0  0  0  0  0  0
  195.9870  178.7000  135.1370 C   0  0  0  0  0  1  0  0  0  0  0  0
  195.8650  177.2370  134.9030 C   0  0  0  0  0  0  0  0  0  0  0  0
  196.9010  176.5620  134.6490 O   0  0  0  0  0  0  0  0  0  0  0  0
  2 19  2  0  0  0  0
  3  4  1  0  0  0  0
  4  9  1  0  0  0  0
  5 17  1  0  0  0  0
  5 14  1  0  0  0  0
  6 13  1  6  0  0  0
  6 18  1  0  0  0  0
  8  6  1  0  0  0  0
  9  2  1  6  0  0  0
  9  6  1  0  0  0  0
  9 16  1  0  0  0  0
 10 35  1  0  0  0  0
 10  3  2  0  0  0  0
 11  7  1  6  0  0  0
 11  3  1  0  0  0  0
 12 18  1  6  0  0  0
 12 21  1  0  0  0  0
 13 17  1  0  0  0  0
 14 46  1  6  0  0  0
 14  8  1  0  0  0  0
 15  1  1  6  0  0  0
 15 11  1  0  0  0  0
 15  2  1  0  0  0  0
 16 12  1  0  0  0  0
 21 31  1  0  0  0  0
 21 25  1  1  0  0  0
 22 30  1  0  0  0  0
 23 22  1  0  0  0  0
 24 28  1  0  0  0  0
 24 31  1  0  0  0  0
 25 23  1  0  0  0  0
 26 20  1  0  0  0  0
 26 27  2  0  0  0  0
 27 30  2  0  0  0  0
 28 32  1  0  0  0  0
 31 26  1  0  0  0  0
 32 29  1  6  0  0  0
 32 20  1  0  0  0  0
 32 34  1  0  0  0  0
 34 33  1  0  0  0  0
 36 35  1  0  0  0  0
 36 38  1  0  0  0  0
 37 36  2  0  0  0  0
 38 39  2  0  0  0  0
 39 40  1  0  0  0  0
 41 42  1  0  0  0  0
 41 40  1  0  0  0  0
 43 42  1  0  0  0  0
 45 43  1  0  0  0  0
 45 44  1  0  0  0  0
 47 48  1  0  0  0  0
 47 46  1  1  0  0  0
 48 49  1  1  0  0  0
 48 50  1  0  0  0  0
 50 51  1  0  0  0  0
 52 47  1  0  0  0  0
 54 52  1  0  0  0  0
 54 53  1  0  0  0  0
 55 54  2  0  0  0  0
M  END
>  <MODEL>
2

>  <REMARK>
 VINA RESULT:      -5.9      1.249      1.978
  Name = 
  15 active torsions:
  status: ('A' for Active; 'I' for Inactive)
    1  A    between atoms: N_1  and  C_10
    2  A    between atoms: N_3  and  N_29
    3  A    between atoms: C_4  and  C_38
    4  A    between atoms: C_4  and  C_50
    5  A    between atoms: C_6  and  C_25
    6  A    between atoms: C_6  and  C_42
    7  A    between atoms: O_11  and  C_41
    8  A    between atoms: O_11  and  C_50
    9  A    between atoms: C_12  and  C_55
   10  A    between atoms: C_15  and  C_33
   11  A    between atoms: C_21  and  C_22
   12  A    between atoms: C_21  and  C_50
   13  A    between atoms: C_24  and  C_49
   14  A    between atoms: N_40  and  C_42
   15  A    between atoms: N_40  and  C_49
                            x       y       z     vdW  Elec       q    Type
                         _______ _______ _______ _____ _____    ______ ____

>  <TORSDO>
F 15

$$$$
=
 OpenBabel10222421053D

 55 59  0  0  1  0  0  0  0  0999 V2000
  179.2140  178.5620  141.1260 F   0  0  0  0  0  0  0  0  0  0  0  0
  180.6660  179.5460  139.5600 C   0  0  0  0  0  0  0  0  0  0  0  0
  181.8670  179.2380  142.3270 C   0  0  0  0  0  0  0  0  0  0  0  0
  182.5590  178.4950  141.3560 O   0  0  0  0  0  0  0  0  0  0  0  0
  180.2240  174.5940  138.9740 C   0  0  0  0  0  2  0  0  0  0  0  0
  181.8990  176.8790  139.0440 C   0  0  1  0  0  0  0  0  0  0  0  0
  179.9550  180.4890  143.0620 O   0  0  0  0  0  1  0  0  0  0  0  0
  180.7160  176.8460  138.0650 C   0  0  0  0  0  2  0  0  0  0  0  0
  182.1020  178.5140  139.7030 P   0  0  1  0  0  4  0  0  0  0  0  0
  182.1760  179.1160  143.5850 N   0  0  0  0  0  0  0  0  0  0  0  0
  180.7540  180.2070  141.9510 C   0  0  2  0  0  3  0  0  0  0  0  0
  183.5200  177.8750  137.8330 C   0  0  2  0  0  3  0  0  0  0  0  0
  181.6800  175.8500  140.1590 C   0  0  0  0  0  2  0  0  0  0  0  0
  180.3070  175.4150  137.6950 C   0  0  2  0  0  3  0  0  0  0  0  0
  179.8560  179.7460  140.7910 C   0  0  2  0  0  3  0  0  0  0  0  0
  183.3720  178.9800  138.7130 O   0  0  0  0  0  0  0  0  0  0  0  0
  181.4760  174.5680  139.6120 O   0  0  0  0  0  0  0  0  0  0  0  0
  183.1050  176.6350  138.3860 O   0  0  0  0  0  0  0  0  0  0  0  0
  180.3510  180.0570  138.4950 O   0  0  0  0  0  0  0  0  0  0  0  0
  187.2650  174.8640  136.1440 C   0  0  0  0  0  2  0  0  0  0  0  0
  184.9410  177.7280  137.2700 C   0  0  1  0  0  3  0  0  0  0  0  0
  187.7300  178.1930  139.6220 C   0  0  0  0  0  2  0  0  0  0  0  0
  186.2060  178.3050  139.4210 C   0  0  0  0  0  2  0  0  0  0  0  0
  184.5100  175.2760  136.7210 C   0  0  0  0  0  2  0  0  0  0  0  0
  185.8780  178.7210  137.9820 C   0  0  0  0  0  2  0  0  0  0  0  0
  186.8460  176.0290  136.9900 C   0  0  0  0  0  0  0  0  0  0  0  0
  187.7030  176.5470  137.8210 C   0  0  0  0  0  0  0  0  0  0  0  0
  185.0680  173.9020  137.0880 C   0  0  0  0  0  2  0  0  0  0  0  0
  186.1030  173.0640  135.0960 O   0  0  0  0  0  1  0  0  0  0  0  0
  188.4020  177.1810  138.7220 C   0  0  0  0  0  3  0  0  0  0  0  0
  185.4390  176.3270  137.1480 N   0  0  0  0  0  0  0  0  0  0  0  0
  186.3940  173.6090  136.3510 C   0  0  1  0  0  0  0  0  0  0  0  0
  188.7050  172.6290  136.7920 C   0  0  0  0  0  1  0  0  0  0  0  0
  187.2240  172.6040  137.1540 C   0  0  0  0  0  2  0  0  0  0  0  0
  183.2160  178.3260  144.1240 N   0  0  0  0  0  2  0  0  0  0  0  0
  184.5090  178.7850  144.5510 C   0  0  0  0  0  0  0  0  0  0  0  0
  184.8450  179.9930  144.4450 O   0  0  0  0  0  0  0  0  0  0  0  0
  185.4380  177.8550  145.1070 N   0  0  0  0  0  0  0  0  0  0  0  0
  186.5120  177.4400  144.4920 C   0  0  0  0  0  3  0  0  0  0  0  0
  186.8540  177.8230  143.0860 C   0  0  0  0  0  2  0  0  0  0  0  0
  188.2730  178.1150  142.9910 N   0  0  0  0  0  2  0  0  0  0  0  0
  188.9590  177.2700  143.9540 C   0  0  0  0  0  2  0  0  0  0  0  0
  190.4460  177.5920  143.9770 C   0  0  0  0  0  2  0  0  0  0  0  0
  191.6580  177.3430  146.0120 O   0  0  0  0  0  1  0  0  0  0  0  0
  191.1820  176.6410  144.9090 C   0  0  0  0  0  2  0  0  0  0  0  0
  178.9490  175.4010  136.9980 C   0  0  0  0  0  2  0  0  0  0  0  0
  179.0740  175.0090  135.5240 C   0  0  2  0  0  3  0  0  0  0  0  0
  179.3730  173.5120  135.4400 C   0  0  2  0  0  3  0  0  0  0  0  0
  178.9520  172.8360  136.5960 O   0  0  0  0  0  1  0  0  0  0  0  0
  180.8410  173.2180  135.1210 C   0  0  0  0  0  2  0  0  0  0  0  0
  181.4830  172.2980  136.1490 C   0  0  0  0  0  1  0  0  0  0  0  0
  180.1020  175.7580  134.8770 O   0  0  0  0  0  0  0  0  0  0  0  0
  181.3310  177.9170  134.6910 C   0  0  0  0  0  1  0  0  0  0  0  0
  180.0600  177.1460  134.7180 C   0  0  0  0  0  0  0  0  0  0  0  0
  178.9610  177.7610  134.6330 O   0  0  0  0  0  0  0  0  0  0  0  0
  2  9  1  0  0  0  0
  2 15  1  0  0  0  0
  3 10  2  0  0  0  0
  4  3  1  0  0  0  0
  5 17  1  0  0  0  0
  6  8  1  6  0  0  0
  6  9  1  0  0  0  0
  6 13  1  0  0  0  0
  9 16  1  6  0  0  0
  9  4  1  0  0  0  0
 10 35  1  0  0  0  0
 11  3  1  0  0  0  0
 11  7  1  1  0  0  0
 12 18  1  1  0  0  0
 12 16  1  0  0  0  0
 14 46  1  1  0  0  0
 14  8  1  0  0  0  0
 14  5  1  0  0  0  0
 15  1  1  1  0  0  0
 15 11  1  0  0  0  0
 17 13  1  0  0  0  0
 18  6  1  0  0  0  0
 19  2  2  0  0  0  0
 20 32  1  0  0  0  0
 20 26  1  0  0  0  0
 21 12  1  0  0  0  0
 21 25  1  1  0  0  0
 23 22  1  0  0  0  0
 24 28  1  0  0  0  0
 24 31  1  0  0  0  0
 25 23  1  0  0  0  0
 26 31  1  0  0  0  0
 26 27  2  0  0  0  0
 27 30  2  0  0  0  0
 30 22  1  0  0  0  0
 31 21  1  0  0  0  0
 32 29  1  6  0  0  0
 32 28  1  0  0  0  0
 32 34  1  0  0  0  0
 33 34  1  0  0  0  0
 35 36  1  0  0  0  0
 36 38  1  0  0  0  0
 37 36  2  0  0  0  0
 39 38  2  0  0  0  0
 40 39  1  0  0  0  0
 41 40  1  0  0  0  0
 41 42  1  0  0  0  0
 42 43  1  0  0  0  0
 43 45  1  0  0  0  0
 45 44  1  0  0  0  0
 47 46  1  1  0  0  0
 48 47  1  0  0  0  0
 48 49  1  1  0  0  0
 50 48  1  0  0  0  0
 50 51  1  0  0  0  0
 52 47  1  0  0  0  0
 53 54  1  0  0  0  0
 54 52  1  0  0  0  0
 55 54  2  0  0  0  0
M  END
>  <MODEL>
3

>  <REMARK>
 VINA RESULT:      -5.6      4.627     10.758
  Name = 
  15 active torsions:
  status: ('A' for Active; 'I' for Inactive)
    1  A    between atoms: N_1  and  C_10
    2  A    between atoms: N_3  and  N_29
    3  A    between atoms: C_4  and  C_38
    4  A    between atoms: C_4  and  C_50
    5  A    between atoms: C_6  and  C_25
    6  A    between atoms: C_6  and  C_42
    7  A    between atoms: O_11  and  C_41
    8  A    between atoms: O_11  and  C_50
    9  A    between atoms: C_12  and  C_55
   10  A    between atoms: C_15  and  C_33
   11  A    between atoms: C_21  and  C_22
   12  A    between atoms: C_21  and  C_50
   13  A    between atoms: C_24  and  C_49
   14  A    between atoms: N_40  and  C_42
   15  A    between atoms: N_40  and  C_49
                            x       y       z     vdW  Elec       q    Type
                         _______ _______ _______ _____ _____    ______ ____

>  <TORSDO>
F 15

$$$$
=
 OpenBabel10222421053D

 55 59  0  0  1  0  0  0  0  0999 V2000
  181.2760  178.9960  142.0880 F   0  0  0  0  0  0  0  0  0  0  0  0
  181.7530  177.4060  140.4230 C   0  0  0  0  0  0  0  0  0  0  0  0
  180.8760  180.0980  139.3390 C   0  0  0  0  0  0  0  0  0  0  0  0
  182.1850  179.7660  138.9540 O   0  0  0  0  0  0  0  0  0  0  0  0
  185.8690  179.3530  142.5040 C   0  0  0  0  0  2  0  0  0  0  0  0
  184.5060  178.5230  140.1610 C   0  0  1  0  0  0  0  0  0  0  0  0
  178.9310  179.7750  140.7080 O   0  0  0  0  0  1  0  0  0  0  0  0
  184.7080  177.5200  141.3080 C   0  0  0  0  0  2  0  0  0  0  0  0
  182.9170  178.2830  139.4110 P   0  0  1  0  0  4  0  0  0  0  0  0
  180.3930  181.2740  139.0620 N   0  0  0  0  0  0  0  0  0  0  0  0
  179.9810  179.1080  140.0720 C   0  0  2  0  0  3  0  0  0  0  0  0
  184.8340  177.2550  138.3260 C   0  0  2  0  0  3  0  0  0  0  0  0
  184.6670  179.9540  140.6890 C   0  0  0  0  0  2  0  0  0  0  0  0
  185.9220  177.8670  142.1770 C   0  0  2  0  0  3  0  0  0  0  0  0
  180.7020  178.2150  141.0960 C   0  0  2  0  0  3  0  0  0  0  0  0
  183.4450  177.4140  138.0790 O   0  0  0  0  0  0  0  0  0  0  0  0
  185.9160  180.1090  141.3200 O   0  0  0  0  0  0  0  0  0  0  0  0
  185.4030  178.2850  139.1200 O   0  0  0  0  0  0  0  0  0  0  0  0
  181.8220  176.1940  140.5700 O   0  0  0  0  0  0  0  0  0  0  0  0
  187.2200  174.1810  135.0380 C   0  0  0  0  0  2  0  0  0  0  0  0
  185.6670  177.0830  137.0470 C   0  0  1  0  0  3  0  0  0  0  0  0
  189.2250  177.9990  137.2300 C   0  0  0  0  0  2  0  0  0  0  0  0
  187.8680  178.0200  137.9620 C   0  0  0  0  0  2  0  0  0  0  0  0
  185.2910  174.5620  137.0950 C   0  0  0  0  0  2  0  0  0  0  0  0
  186.7170  178.2070  136.9660 C   0  0  0  0  0  2  0  0  0  0  0  0
  187.2380  175.4400  135.8530 C   0  0  0  0  0  0  0  0  0  0  0  0
  188.3490  176.1080  135.9600 C   0  0  0  0  0  0  0  0  0  0  0  0
  186.1180  173.2810  137.1870 C   0  0  0  0  0  2  0  0  0  0  0  0
  185.8900  172.2020  135.0590 O   0  0  0  0  0  1  0  0  0  0  0  0
  189.3610  176.8950  136.2070 C   0  0  0  0  0  3  0  0  0  0  0  0
  186.1630  175.7010  136.7860 N   0  0  0  0  0  0  0  0  0  0  0  0
  186.7900  172.9360  135.8390 C   0  0  1  0  0  0  0  0  0  0  0  0
  188.8150  171.7860  134.8050 C   0  0  0  0  0  1  0  0  0  0  0  0
  188.0450  172.0940  136.0840 C   0  0  0  0  0  2  0  0  0  0  0  0
  181.0370  182.2990  138.3360 N   0  0  0  0  0  2  0  0  0  0  0  0
  180.4680  183.5590  137.9400 C   0  0  0  0  0  0  0  0  0  0  0  0
  179.2730  183.8490  138.2010 O   0  0  0  0  0  0  0  0  0  0  0  0
  181.2710  184.5030  137.2330 N   0  0  0  0  0  0  0  0  0  0  0  0
  181.1650  184.7390  135.9530 C   0  0  0  0  0  3  0  0  0  0  0  0
  180.2440  183.9770  135.0510 C   0  0  0  0  0  2  0  0  0  0  0  0
  180.8750  182.7320  134.6510 N   0  0  0  0  0  2  0  0  0  0  0  0
  179.9700  181.6510  135.0050 C   0  0  0  0  0  2  0  0  0  0  0  0
  180.7560  180.3870  135.3270 C   0  0  0  0  0  2  0  0  0  0  0  0
  180.8510  178.1100  134.6360 O   0  0  0  0  0  1  0  0  0  0  0  0
  179.9720  179.1520  134.9120 C   0  0  0  0  0  2  0  0  0  0  0  0
  185.9070  177.0640  143.4760 C   0  0  0  0  0  2  0  0  0  0  0  0
  186.7570  177.7290  144.5610 C   0  0  2  0  0  3  0  0  0  0  0  0
  188.1550  177.1110  144.5340 C   0  0  2  0  0  3  0  0  0  0  0  0
  188.8160  177.2760  145.7620 O   0  0  0  0  0  1  0  0  0  0  0  0
  189.0060  177.6200  143.3670 C   0  0  0  0  0  2  0  0  0  0  0  0
  189.9890  176.5720  142.8670 C   0  0  0  0  0  1  0  0  0  0  0  0
  186.1660  177.5680  145.8490 O   0  0  0  0  0  0  0  0  0  0  0  0
  186.2610  179.6070  147.2780 C   0  0  0  0  0  1  0  0  0  0  0  0
  185.4870  178.5890  146.5190 C   0  0  0  0  0  0  0  0  0  0  0  0
  184.2260  178.6420  146.5210 O   0  0  0  0  0  0  0  0  0  0  0  0
  2 19  2  0  0  0  0
  2 15  1  0  0  0  0
  3 11  1  0  0  0  0
  4  3  1  0  0  0  0
  4  9  1  0  0  0  0
  6 13  1  1  0  0  0
  6  8  1  0  0  0  0
  8 14  1  0  0  0  0
  9 16  1  6  0  0  0
  9  6  1  0  0  0  0
  9  2  1  0  0  0  0
 10  3  2  0  0  0  0
 11  7  1  1  0  0  0
 11 15  1  0  0  0  0
 12 16  1  6  0  0  0
 12 18  1  0  0  0  0
 13 17  1  0  0  0  0
 14  5  1  0  0  0  0
 14 46  1  1  0  0  0
 15  1  1  1  0  0  0
 17  5  1  0  0  0  0
 18  6  1  0  0  0  0
 20 32  1  0  0  0  0
 20 26  1  0  0  0  0
 21 25  1  1  0  0  0
 21 12  1  0  0  0  0
 22 23  1  0  0  0  0
 24 28  1  0  0  0  0
 25 23  1  0  0  0  0
 26 27  2  0  0  0  0
 26 31  1  0  0  0  0
 27 30  2  0  0  0  0
 30 22  1  0  0  0  0
 31 21  1  0  0  0  0
 31 24  1  0  0  0  0
 32 29  1  6  0  0  0
 32 34  1  0  0  0  0
 32 28  1  0  0  0  0
 33 34  1  0  0  0  0
 35 10  1  0  0  0  0
 36 37  2  0  0  0  0
 36 35  1  0  0  0  0
 38 36  1  0  0  0  0
 39 38  2  0  0  0  0
 40 39  1  0  0  0  0
 41 42  1  0  0  0  0
 41 40  1  0  0  0  0
 42 43  1  0  0  0  0
 44 45  1  0  0  0  0
 45 43  1  0  0  0  0
 47 46  1  6  0  0  0
 47 52  1  0  0  0  0
 48 47  1  0  0  0  0
 48 49  1  1  0  0  0
 50 48  1  0  0  0  0
 51 50  1  0  0  0  0
 52 54  1  0  0  0  0
 54 55  2  0  0  0  0
 54 53  1  0  0  0  0
M  END
>  <MODEL>
4

>  <REMARK>
 VINA RESULT:      -5.6      4.652      9.553
  Name = 
  15 active torsions:
  status: ('A' for Active; 'I' for Inactive)
    1  A    between atoms: N_1  and  C_10
    2  A    between atoms: N_3  and  N_29
    3  A    between atoms: C_4  and  C_38
    4  A    between atoms: C_4  and  C_50
    5  A    between atoms: C_6  and  C_25
    6  A    between atoms: C_6  and  C_42
    7  A    between atoms: O_11  and  C_41
    8  A    between atoms: O_11  and  C_50
    9  A    between atoms: C_12  and  C_55
   10  A    between atoms: C_15  and  C_33
   11  A    between atoms: C_21  and  C_22
   12  A    between atoms: C_21  and  C_50
   13  A    between atoms: C_24  and  C_49
   14  A    between atoms: N_40  and  C_42
   15  A    between atoms: N_40  and  C_49
                            x       y       z     vdW  Elec       q    Type
                         _______ _______ _______ _____ _____    ______ ____

>  <TORSDO>
F 15

$$$$
=
 OpenBabel10222421053D

 55 59  0  0  1  0  0  0  0  0999 V2000
  189.1510  177.9600  135.1200 F   0  0  0  0  0  0  0  0  0  0  0  0
  189.0520  178.9080  137.2690 C   0  0  0  0  0  0  0  0  0  0  0  0
  186.5690  177.3490  136.4970 C   0  0  0  0  0  0  0  0  0  0  0  0
  187.2270  176.7940  137.6060 O   0  0  0  0  0  0  0  0  0  0  0  0
  191.9340  174.8190  137.0680 C   0  0  0  0  0  2  0  0  0  0  0  0
  189.9600  176.3190  138.4410 C   0  0  1  0  0  0  0  0  0  0  0  0
  186.5040  178.8120  134.5940 O   0  0  0  0  0  1  0  0  0  0  0  0
  191.3090  176.9770  138.1120 C   0  0  0  0  0  2  0  0  0  0  0  0
  188.6450  177.4980  138.2660 P   0  0  1  0  0  4  0  0  0  0  0  0
  185.5590  176.7300  135.9600 N   0  0  0  0  0  0  0  0  0  0  0  0
  186.9990  178.6800  135.8940 C   0  0  2  0  0  3  0  0  0  0  0  0
  189.5110  177.1090  140.5050 C   0  0  2  0  0  3  0  0  0  0  0  0
  189.7420  175.1000  137.5380 C   0  0  0  0  0  2  0  0  0  0  0  0
  192.4350  175.9490  137.9570 C   0  0  2  0  0  3  0  0  0  0  0  0
  188.5160  178.9290  135.8820 C   0  0  2  0  0  3  0  0  0  0  0  0
  188.4640  177.8500  139.8950 O   0  0  0  0  0  0  0  0  0  0  0  0
  190.8180  174.2000  137.6590 O   0  0  0  0  0  0  0  0  0  0  0  0
  189.8950  175.9480  139.7840 O   0  0  0  0  0  0  0  0  0  0  0  0
  189.7530  179.8130  137.7000 O   0  0  0  0  0  0  0  0  0  0  0  0
  186.5820  177.5710  144.6480 C   0  0  0  0  0  2  0  0  0  0  0  0
  189.2190  176.7260  141.9640 C   0  0  1  0  0  3  0  0  0  0  0  0
  191.3770  178.2070  144.5480 C   0  0  0  0  0  2  0  0  0  0  0  0
  191.1540  178.0170  143.0340 C   0  0  0  0  0  2  0  0  0  0  0  0
  186.9260  177.8340  141.8360 C   0  0  0  0  0  2  0  0  0  0  0  0
  190.5440  176.6410  142.7440 C   0  0  0  0  0  2  0  0  0  0  0  0
  187.9590  177.5180  144.0560 C   0  0  0  0  0  0  0  0  0  0  0  0
  188.9800  177.8240  144.8030 C   0  0  0  0  0  0  0  0  0  0  0  0
  186.1580  178.9630  142.5200 C   0  0  0  0  0  2  0  0  0  0  0  0
  184.3970  177.9010  143.7510 O   0  0  0  0  0  1  0  0  0  0  0  0
  190.1150  178.1170  145.3760 C   0  0  0  0  0  3  0  0  0  0  0  0
  188.1180  177.4910  142.6180 N   0  0  0  0  0  0  0  0  0  0  0  0
  185.6330  178.5370  143.9100 C   0  0  1  0  0  0  0  0  0  0  0  0
  185.4660  179.4390  146.2870 C   0  0  0  0  0  1  0  0  0  0  0  0
  185.4540  179.7700  144.7990 C   0  0  0  0  0  2  0  0  0  0  0  0
  184.9720  175.5270  136.4110 N   0  0  0  0  0  2  0  0  0  0  0  0
  184.3000  175.3170  137.6650 C   0  0  0  0  0  0  0  0  0  0  0  0
  184.2020  176.2360  138.5180 O   0  0  0  0  0  0  0  0  0  0  0  0
  183.7310  174.0410  137.9540 N   0  0  0  0  0  0  0  0  0  0  0  0
  183.4380  173.1490  137.0470 C   0  0  0  0  0  3  0  0  0  0  0  0
  183.5800  173.3950  135.5770 C   0  0  0  0  0  2  0  0  0  0  0  0
  183.4440  172.1410  134.8580 N   0  0  0  0  0  2  0  0  0  0  0  0
  184.6120  171.3320  135.1630 C   0  0  0  0  0  2  0  0  0  0  0  0
  185.8310  172.2200  135.3700 C   0  0  0  0  0  2  0  0  0  0  0  0
  187.5110  172.8360  136.9420 O   0  0  0  0  0  1  0  0  0  0  0  0
  186.3310  172.1110  136.8020 C   0  0  0  0  0  2  0  0  0  0  0  0
  193.6670  176.5850  137.3170 C   0  0  0  0  0  2  0  0  0  0  0  0
  194.1780  175.7610  136.1340 C   0  0  2  0  0  3  0  0  0  0  0  0
  195.2830  174.8270  136.6290 C   0  0  2  0  0  3  0  0  0  0  0  0
  195.1280  173.5280  136.1190 O   0  0  0  0  0  1  0  0  0  0  0  0
  195.4120  174.8180  138.1550 C   0  0  0  0  0  2  0  0  0  0  0  0
  196.1770  173.6060  138.6640 C   0  0  0  0  0  1  0  0  0  0  0  0
  194.6680  176.6030  135.0920 O   0  0  0  0  0  0  0  0  0  0  0  0
  197.1370  176.9310  135.0320 C   0  0  0  0  0  1  0  0  0  0  0  0
  195.7620  177.4580  135.2430 C   0  0  0  0  0  0  0  0  0  0  0  0
  195.6080  178.6620  135.5910 O   0  0  0  0  0  0  0  0  0  0  0  0
  2 19  2  0  0  0  0
  3  4  1  0  0  0  0
  4  9  1  0  0  0  0
  5 17  1  0  0  0  0
  5 14  1  0  0  0  0
  6 13  1  6  0  0  0
  6 18  1  0  0  0  0
  8  6  1  0  0  0  0
  9  2  1  6  0  0  0
  9  6  1  0  0  0  0
  9 16  1  0  0  0  0
 10 35  1  0  0  0  0
 10  3  2  0  0  0  0
 11  7  1  6  0  0  0
 11  3  1  0  0  0  0
 12 18  1  6  0  0  0
 12 21  1  0  0  0  0
 13 17  1  0  0  0  0
 14 46  1  6  0  0  0
 14  8  1  0  0  0  0
 15  1  1  6  0  0  0
 15 11  1  0  0  0  0
 15  2  1  0  0  0  0
 16 12  1  0  0  0  0
 21 31  1  0  0  0  0
 21 25  1  1  0  0  0
 22 30  1  0  0  0  0
 23 22  1  0  0  0  0
 24 28  1  0  0  0  0
 24 31  1  0  0  0  0
 25 23  1  0  0  0  0
 26 20  1  0  0  0  0
 26 27  2  0  0  0  0
 27 30  2  0  0  0  0
 28 32  1  0  0  0  0
 31 26  1  0  0  0  0
 32 29  1  6  0  0  0
 32 20  1  0  0  0  0
 32 34  1  0  0  0  0
 34 33  1  0  0  0  0
 35 36  1  0  0  0  0
 36 38  1  0  0  0  0
 36 37  2  0  0  0  0
 39 38  2  0  0  0  0
 40 39  1  0  0  0  0
 41 42  1  0  0  0  0
 41 40  1  0  0  0  0
 42 43  1  0  0  0  0
 43 45  1  0  0  0  0
 45 44  1  0  0  0  0
 47 48  1  0  0  0  0
 47 46  1  1  0  0  0
 48 49  1  1  0  0  0
 48 50  1  0  0  0  0
 50 51  1  0  0  0  0
 52 54  1  0  0  0  0
 52 47  1  0  0  0  0
 53 54  1  0  0  0  0
 54 55  2  0  0  0  0
M  END
>  <MODEL>
5

>  <REMARK>
 VINA RESULT:      -5.2      1.428      2.601
  Name = 
  15 active torsions:
  status: ('A' for Active; 'I' for Inactive)
    1  A    between atoms: N_1  and  C_10
    2  A    between atoms: N_3  and  N_29
    3  A    between atoms: C_4  and  C_38
    4  A    between atoms: C_4  and  C_50
    5  A    between atoms: C_6  and  C_25
    6  A    between atoms: C_6  and  C_42
    7  A    between atoms: O_11  and  C_41
    8  A    between atoms: O_11  and  C_50
    9  A    between atoms: C_12  and  C_55
   10  A    between atoms: C_15  and  C_33
   11  A    between atoms: C_21  and  C_22
   12  A    between atoms: C_21  and  C_50
   13  A    between atoms: C_24  and  C_49
   14  A    between atoms: N_40  and  C_42
   15  A    between atoms: N_40  and  C_49
                            x       y       z     vdW  Elec       q    Type
                         _______ _______ _______ _____ _____    ______ ____

>  <TORSDO>
F 15

$$$$
=
 OpenBabel10222421053D

 55 59  0  0  1  0  0  0  0  0999 V2000
  189.2360  178.5360  139.2200 F   0  0  0  0  0  0  0  0  0  0  0  0
  188.3730  176.3580  139.0290 C   0  0  0  0  0  0  0  0  0  0  0  0
  186.3010  178.4410  139.7780 C   0  0  0  0  0  0  0  0  0  0  0  0
  186.0280  177.8340  138.5420 O   0  0  0  0  0  0  0  0  0  0  0  0
  189.2380  178.5130  134.5940 C   0  0  0  0  0  2  0  0  0  0  0  0
  187.5310  176.9480  136.2290 C   0  0  1  0  0  0  0  0  0  0  0  0
  187.7730  178.9350  141.6100 O   0  0  0  0  0  1  0  0  0  0  0  0
  188.9810  176.4930  136.0060 C   0  0  0  0  0  2  0  0  0  0  0  0
  187.0300  176.6010  137.8950 P   0  0  1  0  0  4  0  0  0  0  0  0
  185.5800  179.4440  140.1860 N   0  0  0  0  0  0  0  0  0  0  0  0
  187.4260  177.9500  140.6810 C   0  0  2  0  0  3  0  0  0  0  0  0
  186.3850  175.0070  136.1760 C   0  0  2  0  0  3  0  0  0  0  0  0
  187.3990  178.4410  135.9050 C   0  0  0  0  0  2  0  0  0  0  0  0
  189.5640  177.0290  134.6930 C   0  0  2  0  0  3  0  0  0  0  0  0
  188.6930  177.4850  139.9450 C   0  0  2  0  0  3  0  0  0  0  0  0
  186.1630  175.2060  137.5640 O   0  0  0  0  0  0  0  0  0  0  0  0
  187.8450  178.7010  134.5950 O   0  0  0  0  0  0  0  0  0  0  0  0
  186.6430  176.2020  135.4540 O   0  0  0  0  0  0  0  0  0  0  0  0
  189.0120  175.3160  139.0460 O   0  0  0  0  0  0  0  0  0  0  0  0
  181.4900  173.6050  136.0160 C   0  0  0  0  0  2  0  0  0  0  0  0
  185.2580  174.2290  135.4800 C   0  0  1  0  0  3  0  0  0  0  0  0
  185.2560  170.5720  135.8730 C   0  0  0  0  0  2  0  0  0  0  0  0
  186.0400  171.8770  136.1200 C   0  0  0  0  0  2  0  0  0  0  0  0
  183.5120  175.3820  136.9390 C   0  0  0  0  0  2  0  0  0  0  0  0
  185.8010  172.8770  134.9830 C   0  0  0  0  0  2  0  0  0  0  0  0
  182.9340  173.2190  135.8960 C   0  0  0  0  0  0  0  0  0  0  0  0
  183.2470  171.9570  135.8290 C   0  0  0  0  0  0  0  0  0  0  0  0
  182.4420  175.0040  137.9610 C   0  0  0  0  0  2  0  0  0  0  0  0
  180.3410  175.4920  136.9150 O   0  0  0  0  0  1  0  0  0  0  0  0
  183.7590  170.7580  135.7760 C   0  0  0  0  0  3  0  0  0  0  0  0
  183.9620  174.1860  136.2170 N   0  0  0  0  0  0  0  0  0  0  0  0
  181.1780  174.4320  137.2800 C   0  0  1  0  0  0  0  0  0  0  0  0
  179.8420  172.2830  137.5770 C   0  0  0  0  0  1  0  0  0  0  0  0
  180.4330  173.5150  138.2530 C   0  0  0  0  0  2  0  0  0  0  0  0
  184.4590  179.9970  139.5300 N   0  0  0  0  0  2  0  0  0  0  0  0
  183.2270  179.3250  139.2190 C   0  0  0  0  0  0  0  0  0  0  0  0
  183.0540  178.1110  139.5000 O   0  0  0  0  0  0  0  0  0  0  0  0
  182.1750  180.0430  138.5760 N   0  0  0  0  0  0  0  0  0  0  0  0
  181.0140  180.2830  139.1220 C   0  0  0  0  0  3  0  0  0  0  0  0
  180.6120  179.7530  140.4640 C   0  0  0  0  0  2  0  0  0  0  0  0
  179.9960  178.4470  140.3070 N   0  0  0  0  0  2  0  0  0  0  0  0
  179.4670  178.0550  141.6030 C   0  0  0  0  0  2  0  0  0  0  0  0
  179.1940  179.2840  142.4580 C   0  0  0  0  0  2  0  0  0  0  0  0
  179.7200  177.8010  144.2450 O   0  0  0  0  0  1  0  0  0  0  0  0
  179.8210  179.1260  143.8340 C   0  0  0  0  0  2  0  0  0  0  0  0
  191.0790  176.8420  134.6550 C   0  0  0  0  0  2  0  0  0  0  0  0
  191.5500  175.8310  135.7010 C   0  0  2  0  0  3  0  0  0  0  0  0
  193.0220  176.0990  136.0140 C   0  0  2  0  0  3  0  0  0  0  0  0
  193.8280  174.9960  135.6880 O   0  0  0  0  0  1  0  0  0  0  0  0
  193.2480  176.5510  137.4590 C   0  0  0  0  0  2  0  0  0  0  0  0
  191.9870  176.4450  138.3030 C   0  0  0  0  0  1  0  0  0  0  0  0
  191.3750  174.4920  135.2400 O   0  0  0  0  0  0  0  0  0  0  0  0
  189.5000  172.8770  134.9560 C   0  0  0  0  0  1  0  0  0  0  0  0
  190.4810  173.5880  135.8180 C   0  0  0  0  0  0  0  0  0  0  0  0
  190.4660  173.3900  137.0650 O   0  0  0  0  0  0  0  0  0  0  0  0
  2 19  2  0  0  0  0
  2 15  1  0  0  0  0
  3 10  2  0  0  0  0
  3 11  1  0  0  0  0
  4  3  1  0  0  0  0
  5 17  1  0  0  0  0
  5 14  1  0  0  0  0
  6 13  1  6  0  0  0
  6  9  1  0  0  0  0
  8  6  1  0  0  0  0
  9 16  1  6  0  0  0
  9  4  1  0  0  0  0
  9  2  1  0  0  0  0
 11  7  1  1  0  0  0
 12 18  1  6  0  0  0
 12 16  1  0  0  0  0
 14 46  1  1  0  0  0
 14  8  1  0  0  0  0
 15  1  1  6  0  0  0
 15 11  1  0  0  0  0
 17 13  1  0  0  0  0
 18  6  1  0  0  0  0
 20 32  1  0  0  0  0
 21 25  1  1  0  0  0
 21 12  1  0  0  0  0
 21 31  1  0  0  0  0
 22 23  1  0  0  0  0
 24 28  1  0  0  0  0
 25 23  1  0  0  0  0
 26 20  1  0  0  0  0
 26 31  1  0  0  0  0
 27 26  2  0  0  0  0
 30 27  2  0  0  0  0
 30 22  1  0  0  0  0
 31 24  1  0  0  0  0
 32 29  1  6  0  0  0
 32 28  1  0  0  0  0
 32 34  1  0  0  0  0
 33 34  1  0  0  0  0
 35 10  1  0  0  0  0
 36 37  2  0  0  0  0
 36 35  1  0  0  0  0
 38 39  2  0  0  0  0
 38 36  1  0  0  0  0
 39 40  1  0  0  0  0
 41 40  1  0  0  0  0
 41 42  1  0  0  0  0
 42 43  1  0  0  0  0
 43 45  1  0  0  0  0
 45 44  1  0  0  0  0
 47 46  1  6  0  0  0
 47 48  1  0  0  0  0
 48 49  1  1  0  0  0
 48 50  1  0  0  0  0
 50 51  1  0  0  0  0
 52 47  1  0  0  0  0
 52 54  1  0  0  0  0
 53 54  1  0  0  0  0
 54 55  2  0  0  0  0
M  END
>  <MODEL>
6

>  <REMARK>
 VINA RESULT:      -4.2      2.997      7.134
  Name = 
  15 active torsions:
  status: ('A' for Active; 'I' for Inactive)
    1  A    between atoms: N_1  and  C_10
    2  A    between atoms: N_3  and  N_29
    3  A    between atoms: C_4  and  C_38
    4  A    between atoms: C_4  and  C_50
    5  A    between atoms: C_6  and  C_25
    6  A    between atoms: C_6  and  C_42
    7  A    between atoms: O_11  and  C_41
    8  A    between atoms: O_11  and  C_50
    9  A    between atoms: C_12  and  C_55
   10  A    between atoms: C_15  and  C_33
   11  A    between atoms: C_21  and  C_22
   12  A    between atoms: C_21  and  C_50
   13  A    between atoms: C_24  and  C_49
   14  A    between atoms: N_40  and  C_42
   15  A    between atoms: N_40  and  C_49
                            x       y       z     vdW  Elec       q    Type
                         _______ _______ _______ _____ _____    ______ ____

>  <TORSDO>
F 15

$$$$
