=
 OpenBabel10222418153D

 59 61  0  0  1  0  0  0  0  0999 V2000
  188.1120  177.8750  138.7420 C   0  0  2  0  0  3  0  0  0  0  0  0
  185.5600  178.2910  139.0740 C   0  0  1  0  0  3  0  0  0  0  0  0
  187.7110  178.1620  140.1500 C   0  0  0  0  0  0  0  0  0  0  0  0
  186.7300  178.4070  137.6860 S   0  0  0  0  0  0  0  0  0  0  0  0
  186.3040  178.5680  140.3640 C   0  0  0  0  0  2  0  0  0  0  0  0
  188.5360  178.0870  141.1480 N   0  0  0  0  0  0  0  0  0  0  0  0
  182.8440  177.6500  138.5020 O   0  0  0  0  0  0  0  0  0  0  0  0
  183.1370  178.8670  138.6580 C   0  0  0  0  0  0  0  0  0  0  0  0
  182.1210  179.8670  138.5930 N   0  0  0  0  0  2  0  0  0  0  0  0
  184.4890  179.2570  138.8990 N   0  0  0  0  0  2  0  0  0  0  0  0
  180.5260  179.7210  136.7510 C   0  0  0  0  0  1  0  0  0  0  0  0
  180.7440  179.5460  138.2450 C   0  0  2  0  0  3  0  0  0  0  0  0
  179.7560  180.3840  139.0540 C   0  0  0  0  0  2  0  0  0  0  0  0
  179.8970  180.1970  140.5290 C   0  0  0  0  0  0  0  0  0  0  0  0
  179.8500  181.1870  141.2990 O   0  0  0  0  0  1  0  0  0  0  0  0
  180.0850  178.9220  141.0440 O   0  0  0  0  0  0  0  0  0  0  0  0
  188.3310  176.5020  138.5860 O   0  0  0  0  0  0  0  0  0  0  0  0
  189.2080  176.3880  137.5030 C   0  0  0  0  0  2  0  0  0  0  0  0
  187.5470  174.6410  136.9020 C   0  0  0  0  0  1  0  0  0  0  0  0
  189.0130  175.0490  136.7960 C   0  0  1  0  0  3  0  0  0  0  0  0
  189.4430  175.1390  135.3290 C   0  0  1  0  0  3  0  0  0  0  0  0
  190.0090  176.5180  135.0250 C   0  0  0  0  0  1  0  0  0  0  0  0
  190.5180  174.1010  135.0180 C   0  0  0  0  0  2  0  0  0  0  0  0
  190.9830  173.3810  136.2820 C   0  0  0  0  0  2  0  0  0  0  0  0
  192.8640  174.8120  137.0400 C   0  0  0  0  0  2  0  0  0  0  0  0
  195.2880  173.4590  137.1090 O   0  0  0  0  0  0  0  0  0  0  0  0
  192.4210  173.5340  136.4850 N   0  0  0  0  0  0  0  0  0  0  0  0
  194.0060  175.3990  136.2290 C   0  0  0  0  0  2  0  0  0  0  0  0
  193.3250  172.4610  136.1400 C   0  0  0  0  0  0  0  0  0  0  0  0
  192.8490  171.3310  135.8310 O   0  0  0  0  0  0  0  0  0  0  0  0
  195.3340  174.8250  136.7300 C   0  0  2  0  0  3  0  0  0  0  0  0
  194.8180  172.6940  136.0290 C   0  0  2  0  0  3  0  0  0  0  0  0
  195.3350  170.1130  137.2000 O   0  0  0  0  0  1  0  0  0  0  0  0
  195.4840  170.4550  134.6130 O   0  0  0  0  0  0  0  0  0  0  0  0
  195.7770  171.1410  135.9270 P   0  0  1  0  0  0  0  0  0  0  0  0
  197.8000  171.7120  134.7710 O   0  0  0  0  0  1  0  0  0  0  0  0
  197.4340  171.4800  136.0140 O   0  0  0  0  0  0  0  0  0  0  0  0
  196.5650  175.2270  135.8970 C   0  0  1  0  0  3  0  0  0  0  0  0
  196.5300  176.5950  135.6390 O   0  0  0  0  0  1  0  0  0  0  0  0
  197.8980  174.8680  136.5500 C   0  0  0  0  0  2  0  0  0  0  0  0
  198.9550  175.3270  135.7640 O   0  0  0  0  0  1  0  0  0  0  0  0
  189.8740  177.7100  140.9740 N   0  0  0  0  0  2  0  0  0  0  0  0
  190.8100  177.7390  142.0210 N   0  0  0  0  0  2  0  0  0  0  0  0
  190.8190  176.8550  143.1510 C   0  0  0  0  0  0  0  0  0  0  0  0
  190.3530  175.6120  143.0700 C   0  0  0  0  0  2  0  0  0  0  0  0
  191.1340  177.4280  144.4930 C   0  0  0  0  0  2  0  0  0  0  0  0
  189.9180  177.4360  145.4100 C   0  0  1  0  0  3  0  0  0  0  0  0
  187.4050  178.0250  144.6170 C   0  0  0  0  0  2  0  0  0  0  0  0
  188.4450  176.7930  144.5690 S   0  0  0  0  0  0  0  0  0  0  0  0
  186.1110  177.8910  144.0250 N   0  0  0  0  0  2  0  0  0  0  0  0
  185.1920  178.7070  144.8130 C   0  0  2  0  0  3  0  0  0  0  0  0
  185.3370  178.3500  146.2760 C   0  0  0  0  0  1  0  0  0  0  0  0
  183.7150  178.5610  144.4030 C   0  0  2  0  0  3  0  0  0  0  0  0
  183.4220  178.7910  142.5960 S   0  0  0  0  0  0  0  0  0  0  0  0
  183.1110  179.8510  144.0710 C   0  0  0  0  0  2  0  0  0  0  0  0
  190.2090  176.6960  146.7180 C   0  0  0  0  0  2  0  0  0  0  0  0
  191.2890  177.3580  147.5760 C   0  0  0  0  0  2  0  0  0  0  0  0
  192.0650  176.3880  148.2200 O   0  0  0  0  0  0  0  0  0  0  0  0
  192.8230  175.8850  147.2660 O   0  0  0  0  0  1  0  0  0  0  0  0
  1 17  1  1  0  0  0
  1  3  1  0  0  0  0
  2 10  1  6  0  0  0
  2  5  1  0  0  0  0
  3  5  1  0  0  0  0
  3  6  2  0  0  0  0
  4  1  1  0  0  0  0
  4  2  1  0  0  0  0
  7  8  2  0  0  0  0
  8 10  1  0  0  0  0
  9  8  1  0  0  0  0
 12 11  1  6  0  0  0
 12  9  1  0  0  0  0
 12 13  1  0  0  0  0
 13 14  1  0  0  0  0
 14 16  2  0  0  0  0
 14 15  1  0  0  0  0
 18 17  1  0  0  0  0
 20 19  1  6  0  0  0
 20 18  1  0  0  0  0
 21 22  1  1  0  0  0
 21 20  1  0  0  0  0
 23 21  1  0  0  0  0
 23 24  1  0  0  0  0
 24 27  1  0  0  0  0
 27 25  1  0  0  0  0
 28 31  1  0  0  0  0
 28 25  1  0  0  0  0
 29 27  1  0  0  0  0
 30 29  2  0  0  0  0
 31 38  1  6  0  0  0
 31 26  1  0  0  0  0
 32 35  1  1  0  0  0
 32 29  1  0  0  0  0
 32 26  1  0  0  0  0
 35 34  2  6  0  0  0
 35 37  1  0  0  0  0
 35 33  1  0  0  0  0
 36 37  1  0  0  0  0
 38 39  1  1  0  0  0
 38 40  1  0  0  0  0
 41 40  1  0  0  0  0
 42  6  1  0  0  0  0
 42 43  1  0  0  0  0
 43 44  1  0  0  0  0
 44 46  1  0  0  0  0
 45 44  2  0  0  0  0
 47 46  1  6  0  0  0
 47 56  1  0  0  0  0
 49 48  1  0  0  0  0
 49 47  1  0  0  0  0
 50 48  1  0  0  0  0
 50 51  1  0  0  0  0
 51 52  1  1  0  0  0
 53 51  1  6  0  0  0
 54 55  1  0  0  0  0
 54 53  1  0  0  0  0
 55 53  1  0  0  0  0
 56 57  1  0  0  0  0
 57 58  1  0  0  0  0
 59 58  1  0  0  0  0
M  END
>  <MODEL>
1

>  <REMARK>
 VINA RESULT:      -5.8      0.000      0.000
  Name = 
  27 active torsions:
  status: ('A' for Active; 'I' for Inactive)
    1  A    between atoms: C_1  and  C_3
    2  A    between atoms: C_1  and  C_49
    3  A    between atoms: C_4  and  C_10
    4  A    between atoms: C_4  and  C_55
    5  A    between atoms: C_5  and  O_32
    6  A    between atoms: N_8  and  N_22
    7  A    between atoms: N_8  and  N_36
    8  A    between atoms: C_11  and  C_14
    9  A    between atoms: C_11  and  O_21
   10  A    between atoms: C_13  and  N_50
   11  A    between atoms: C_14  and  C_26
   12  A    between atoms: C_15  and  N_38
   13  A    between atoms: C_16  and  N_22
   14  A    between atoms: C_16  and  C_37
   15  A    between atoms: C_19  and  C_43
   16  A    between atoms: C_19  and  C_53
   17  A    between atoms: C_23  and  C_28
   18  A    between atoms: C_23  and  C_43
   19  A    between atoms: C_26  and  S_29
   20  A    between atoms: C_26  and  C_37
   21  A    between atoms: C_28  and  O_32
   22  A    between atoms: C_31  and  C_33
   23  A    between atoms: C_33  and  N_38
   24  A    between atoms: N_40  and  C_53
   25  A    between atoms: N_42  and  C_49
   26  A    between atoms: C_57  and  P_58
   27  A    between atoms: P_58  and  O_59
                            x       y       z     vdW  Elec       q    Type
                         _______ _______ _______ _____ _____    ______ ____

>  <TORSDO>
F 27

$$$$
=
 OpenBabel10222418153D

 59 61  0  0  1  0  0  0  0  0999 V2000
  189.3880  176.4070  139.0400 C   0  0  2  0  0  3  0  0  0  0  0  0
  190.9220  176.0870  136.9570 C   0  0  1  0  0  3  0  0  0  0  0  0
  190.8020  176.8340  139.2430 C   0  0  0  0  0  0  0  0  0  0  0  0
  189.3680  175.3560  137.5550 S   0  0  0  0  0  0  0  0  0  0  0  0
  191.7490  176.5200  138.1500 C   0  0  0  0  0  2  0  0  0  0  0  0
  191.2120  177.4320  140.3190 N   0  0  0  0  0  0  0  0  0  0  0  0
  193.0100  174.4170  137.9400 O   0  0  0  0  0  0  0  0  0  0  0  0
  192.6640  174.2710  136.7360 C   0  0  0  0  0  0  0  0  0  0  0  0
  193.2760  173.2690  135.9260 N   0  0  0  0  0  2  0  0  0  0  0  0
  191.6560  175.1100  136.1700 N   0  0  0  0  0  2  0  0  0  0  0  0
  195.6640  172.8260  135.6860 C   0  0  0  0  0  1  0  0  0  0  0  0
  194.3820  172.4540  136.4110 C   0  0  2  0  0  3  0  0  0  0  0  0
  194.0760  170.9640  136.2750 C   0  0  0  0  0  2  0  0  0  0  0  0
  195.1240  170.0910  136.8840 C   0  0  0  0  0  0  0  0  0  0  0  0
  195.0610  169.7800  138.0980 O   0  0  0  0  0  1  0  0  0  0  0  0
  196.1720  169.6290  136.1010 O   0  0  0  0  0  0  0  0  0  0  0  0
  188.5810  177.5320  138.8390 O   0  0  0  0  0  0  0  0  0  0  0  0
  187.7410  177.1980  137.7720 C   0  0  0  0  0  2  0  0  0  0  0  0
  188.8150  179.2520  136.8770 C   0  0  0  0  0  1  0  0  0  0  0  0
  187.5510  178.3980  136.8470 C   0  0  1  0  0  3  0  0  0  0  0  0
  187.2430  177.9400  135.4180 C   0  0  1  0  0  3  0  0  0  0  0  0
  188.5230  177.5380  134.7020 C   0  0  0  0  0  1  0  0  0  0  0  0
  186.3030  176.7370  135.4290 C   0  0  0  0  0  2  0  0  0  0  0  0
  184.8390  177.1720  135.4340 C   0  0  0  0  0  2  0  0  0  0  0  0
  184.6140  174.8340  136.2370 C   0  0  0  0  0  2  0  0  0  0  0  0
  182.0880  174.2810  137.2490 O   0  0  0  0  0  0  0  0  0  0  0  0
  183.9700  176.1130  135.9390 N   0  0  0  0  0  0  0  0  0  0  0  0
  183.8570  173.6770  135.6100 C   0  0  0  0  0  2  0  0  0  0  0  0
  182.5560  176.3520  136.1180 C   0  0  0  0  0  0  0  0  0  0  0  0
  182.1120  177.5300  136.0030 O   0  0  0  0  0  0  0  0  0  0  0  0
  182.7370  173.2290  136.5550 C   0  0  2  0  0  3  0  0  0  0  0  0
  181.5840  175.2080  136.3220 C   0  0  2  0  0  3  0  0  0  0  0  0
  179.4400  177.0910  135.9290 O   0  0  0  0  0  0  0  0  0  0  0  0
  178.9370  174.6410  136.6860 O   0  0  0  0  0  1  0  0  0  0  0  0
  179.9290  175.7660  136.8640 P   0  0  1  0  0  0  0  0  0  0  0  0
  179.8290  177.5150  138.5030 O   0  0  0  0  0  1  0  0  0  0  0  0
  179.9760  176.2060  138.5000 O   0  0  0  0  0  0  0  0  0  0  0  0
  181.7980  172.1550  135.9770 C   0  0  1  0  0  3  0  0  0  0  0  0
  182.4590  170.9300  135.9300 O   0  0  0  0  0  1  0  0  0  0  0  0
  180.4900  171.9960  136.7490 C   0  0  0  0  0  2  0  0  0  0  0  0
  180.7460  171.5060  138.0300 O   0  0  0  0  0  1  0  0  0  0  0  0
  190.3390  177.7380  141.3720 N   0  0  0  0  0  0  0  0  0  0  0  0
  190.6030  177.3750  142.7030 N   0  0  0  0  0  0  0  0  0  0  0  0
  189.7800  177.6980  143.8310 C   0  0  0  0  0  0  0  0  0  0  0  0
  190.2490  178.3930  144.8630 C   0  0  0  0  0  2  0  0  0  0  0  0
  188.4490  177.0310  143.9470 C   0  0  0  0  0  2  0  0  0  0  0  0
  187.3200  178.0380  144.1310 C   0  0  1  0  0  3  0  0  0  0  0  0
  184.7770  178.3690  143.2870 C   0  0  0  0  0  2  0  0  0  0  0  0
  186.2440  178.1060  142.6710 S   0  0  0  0  0  0  0  0  0  0  0  0
  183.6500  178.4980  142.4170 N   0  0  0  0  0  2  0  0  0  0  0  0
  182.5650  179.0780  143.2020 C   0  0  2  0  0  3  0  0  0  0  0  0
  182.7750  178.7470  144.6640 C   0  0  0  0  0  1  0  0  0  0  0  0
  181.1620  178.6090  142.7770 C   0  0  2  0  0  3  0  0  0  0  0  0
  179.8830  179.9370  142.8480 S   0  0  0  0  0  0  0  0  0  0  0  0
  180.2570  178.4850  143.9200 C   0  0  0  0  0  2  0  0  0  0  0  0
  186.5380  177.7600  145.4170 C   0  0  0  0  0  2  0  0  0  0  0  0
  187.4140  177.3280  146.5930 C   0  0  0  0  0  2  0  0  0  0  0  0
  187.2760  178.2220  147.6610 O   0  0  0  0  0  0  0  0  0  0  0  0
  188.0490  177.7290  148.6070 O   0  0  0  0  0  1  0  0  0  0  0  0
  1 17  1  6  0  0  0
  1  3  1  0  0  0  0
  2 10  1  1  0  0  0
  2  4  1  0  0  0  0
  2  5  1  0  0  0  0
  3  6  2  0  0  0  0
  4  1  1  0  0  0  0
  5  3  1  0  0  0  0
  6 42  1  0  0  0  0
  8  7  2  0  0  0  0
  9 12  1  0  0  0  0
  9  8  1  0  0  0  0
 10  8  1  0  0  0  0
 12 11  1  6  0  0  0
 13 12  1  0  0  0  0
 13 14  1  0  0  0  0
 14 15  1  0  0  0  0
 16 14  2  0  0  0  0
 18 17  1  0  0  0  0
 20 19  1  6  0  0  0
 20 18  1  0  0  0  0
 21 22  1  1  0  0  0
 21 23  1  0  0  0  0
 21 20  1  0  0  0  0
 23 24  1  0  0  0  0
 24 27  1  0  0  0  0
 27 29  1  0  0  0  0
 27 25  1  0  0  0  0
 28 25  1  0  0  0  0
 28 31  1  0  0  0  0
 29 32  1  0  0  0  0
 30 29  2  0  0  0  0
 31 38  1  6  0  0  0
 31 26  1  0  0  0  0
 32 35  1  1  0  0  0
 32 26  1  0  0  0  0
 34 35  1  0  0  0  0
 35 33  2  6  0  0  0
 35 37  1  0  0  0  0
 37 36  1  0  0  0  0
 38 39  1  1  0  0  0
 38 40  1  0  0  0  0
 40 41  1  0  0  0  0
 42 43  2  0  0  0  0
 43 44  1  0  0  0  0
 44 46  1  0  0  0  0
 44 45  2  0  0  0  0
 47 46  1  6  0  0  0
 47 56  1  0  0  0  0
 49 48  1  0  0  0  0
 49 47  1  0  0  0  0
 50 51  1  0  0  0  0
 50 48  1  0  0  0  0
 51 52  1  1  0  0  0
 53 54  1  0  0  0  0
 53 51  1  1  0  0  0
 53 55  1  0  0  0  0
 54 55  1  0  0  0  0
 56 57  1  0  0  0  0
 57 58  1  0  0  0  0
 58 59  1  0  0  0  0
M  END
>  <MODEL>
2

>  <REMARK>
 VINA RESULT:      -5.1      3.853     10.568
  Name = 
  27 active torsions:
  status: ('A' for Active; 'I' for Inactive)
    1  A    between atoms: C_1  and  C_3
    2  A    between atoms: C_1  and  C_49
    3  A    between atoms: C_4  and  C_10
    4  A    between atoms: C_4  and  C_55
    5  A    between atoms: C_5  and  O_32
    6  A    between atoms: N_8  and  N_22
    7  A    between atoms: N_8  and  N_36
    8  A    between atoms: C_11  and  C_14
    9  A    between atoms: C_11  and  O_21
   10  A    between atoms: C_13  and  N_50
   11  A    between atoms: C_14  and  C_26
   12  A    between atoms: C_15  and  N_38
   13  A    between atoms: C_16  and  N_22
   14  A    between atoms: C_16  and  C_37
   15  A    between atoms: C_19  and  C_43
   16  A    between atoms: C_19  and  C_53
   17  A    between atoms: C_23  and  C_28
   18  A    between atoms: C_23  and  C_43
   19  A    between atoms: C_26  and  S_29
   20  A    between atoms: C_26  and  C_37
   21  A    between atoms: C_28  and  O_32
   22  A    between atoms: C_31  and  C_33
   23  A    between atoms: C_33  and  N_38
   24  A    between atoms: N_40  and  C_53
   25  A    between atoms: N_42  and  C_49
   26  A    between atoms: C_57  and  P_58
   27  A    between atoms: P_58  and  O_59
                            x       y       z     vdW  Elec       q    Type
                         _______ _______ _______ _____ _____    ______ ____

>  <TORSDO>
F 27

$$$$
=
 OpenBabel10222418153D

 59 61  0  0  1  0  0  0  0  0999 V2000
  190.3800  176.0550  138.5800 C   0  0  2  0  0  3  0  0  0  0  0  0
  191.7790  176.1080  136.3810 C   0  0  1  0  0  3  0  0  0  0  0  0
  191.7420  176.6440  138.7290 C   0  0  0  0  0  0  0  0  0  0  0  0
  190.3780  175.1350  137.0110 S   0  0  0  0  0  0  0  0  0  0  0  0
  192.6350  176.5470  137.5520 C   0  0  0  0  0  2  0  0  0  0  0  0
  192.1560  177.2000  139.8250 N   0  0  0  0  0  0  0  0  0  0  0  0
  192.9870  173.6060  137.0090 O   0  0  0  0  0  0  0  0  0  0  0  0
  193.1080  174.0330  135.8280 C   0  0  0  0  0  0  0  0  0  0  0  0
  193.7890  173.2540  134.8460 N   0  0  0  0  0  2  0  0  0  0  0  0
  192.5660  175.3030  135.4630 N   0  0  0  0  0  2  0  0  0  0  0  0
  193.4700  171.0400  135.8220 C   0  0  0  0  0  1  0  0  0  0  0  0
  194.4550  172.0030  135.1790 C   0  0  2  0  0  3  0  0  0  0  0  0
  195.6680  172.2400  136.0760 C   0  0  0  0  0  2  0  0  0  0  0  0
  196.3390  170.9760  136.5040 C   0  0  0  0  0  0  0  0  0  0  0  0
  197.0050  170.3030  135.6790 O   0  0  0  0  0  0  0  0  0  0  0  0
  196.2180  170.5450  137.8170 O   0  0  0  0  0  1  0  0  0  0  0  0
  189.4270  177.0780  138.5360 O   0  0  0  0  0  0  0  0  0  0  0  0
  188.5350  176.7080  137.5250 C   0  0  0  0  0  2  0  0  0  0  0  0
  188.8180  179.1280  137.0380 C   0  0  0  0  0  1  0  0  0  0  0  0
  187.8640  177.9420  136.9270 C   0  0  1  0  0  3  0  0  0  0  0  0
  187.4760  177.6970  135.4660 C   0  0  1  0  0  3  0  0  0  0  0  0
  188.7160  177.4440  134.6220 C   0  0  0  0  0  1  0  0  0  0  0  0
  186.5600  176.4810  135.3480 C   0  0  0  0  0  2  0  0  0  0  0  0
  185.0940  176.8930  135.2450 C   0  0  0  0  0  2  0  0  0  0  0  0
  184.6240  174.5380  135.8710 C   0  0  0  0  0  2  0  0  0  0  0  0
  182.5110  174.2990  137.6570 O   0  0  0  0  0  0  0  0  0  0  0  0
  184.2230  175.9430  135.9300 N   0  0  0  0  0  0  0  0  0  0  0  0
  183.4640  173.6510  135.4540 C   0  0  0  0  0  2  0  0  0  0  0  0
  183.0360  176.4030  136.6160 C   0  0  0  0  0  0  0  0  0  0  0  0
  182.8560  177.6460  136.7670 O   0  0  0  0  0  0  0  0  0  0  0  0
  182.6440  173.2700  136.6900 C   0  0  2  0  0  3  0  0  0  0  0  0
  181.9540  175.4370  137.0510 C   0  0  2  0  0  3  0  0  0  0  0  0
  180.6880  177.8670  137.9370 O   0  0  0  0  0  1  0  0  0  0  0  0
  179.3700  175.6100  137.9180 O   0  0  0  0  0  0  0  0  0  0  0  0
  180.7370  176.1920  138.1880 P   0  0  1  0  0  0  0  0  0  0  0  0
  180.4180  174.8440  140.1450 O   0  0  0  0  0  1  0  0  0  0  0  0
  181.1680  175.8670  139.7930 O   0  0  0  0  0  0  0  0  0  0  0  0
  181.3520  172.4890  136.3910 C   0  0  1  0  0  3  0  0  0  0  0  0
  181.6330  171.4260  135.5370 O   0  0  0  0  0  1  0  0  0  0  0  0
  180.6420  171.9650  137.6370 C   0  0  0  0  0  2  0  0  0  0  0  0
  179.3140  172.3920  137.6480 O   0  0  0  0  0  1  0  0  0  0  0  0
  191.3340  177.3030  140.9560 N   0  0  0  0  0  2  0  0  0  0  0  0
  191.8480  177.3280  142.2640 N   0  0  0  0  0  2  0  0  0  0  0  0
  191.1730  177.8620  143.4110 C   0  0  0  0  0  0  0  0  0  0  0  0
  191.4520  179.0730  143.8850 C   0  0  0  0  0  2  0  0  0  0  0  0
  190.3210  176.9420  144.2210 C   0  0  0  0  0  2  0  0  0  0  0  0
  189.6070  177.6720  145.3520 C   0  0  1  0  0  3  0  0  0  0  0  0
  187.3860  177.3760  143.8470 C   0  0  0  0  0  2  0  0  0  0  0  0
  187.8380  177.2710  145.3910 S   0  0  0  0  0  0  0  0  0  0  0  0
  186.0310  177.1070  143.4800 N   0  0  0  0  0  2  0  0  0  0  0  0
  185.5080  178.3170  142.8520 C   0  0  2  0  0  3  0  0  0  0  0  0
  186.5240  178.8450  141.8630 C   0  0  0  0  0  1  0  0  0  0  0  0
  185.1450  179.4340  143.8470 C   0  0  2  0  0  3  0  0  0  0  0  0
  184.1850  178.8430  145.3070 S   0  0  0  0  0  0  0  0  0  0  0  0
  183.7250  179.7790  143.7880 C   0  0  0  0  0  2  0  0  0  0  0  0
  190.2930  177.4090  146.6960 C   0  0  0  0  0  2  0  0  0  0  0  0
  191.1330  176.1310  146.7220 C   0  0  0  0  0  2  0  0  0  0  0  0
  192.3930  176.3850  147.2740 O   0  0  0  0  0  0  0  0  0  0  0  0
  192.1430  177.1010  148.3520 O   0  0  0  0  0  1  0  0  0  0  0  0
  1 17  1  6  0  0  0
  1  3  1  0  0  0  0
  2 10  1  6  0  0  0
  2  4  1  0  0  0  0
  2  5  1  0  0  0  0
  3  6  2  0  0  0  0
  4  1  1  0  0  0  0
  5  3  1  0  0  0  0
  6 42  1  0  0  0  0
  8  7  2  0  0  0  0
  9 12  1  0  0  0  0
  9  8  1  0  0  0  0
 10  8  1  0  0  0  0
 12 11  1  1  0  0  0
 12 13  1  0  0  0  0
 13 14  1  0  0  0  0
 14 16  1  0  0  0  0
 15 14  2  0  0  0  0
 18 17  1  0  0  0  0
 20 19  1  6  0  0  0
 20 18  1  0  0  0  0
 21 22  1  6  0  0  0
 21 20  1  0  0  0  0
 23 21  1  0  0  0  0
 24 23  1  0  0  0  0
 24 27  1  0  0  0  0
 25 27  1  0  0  0  0
 27 29  1  0  0  0  0
 28 25  1  0  0  0  0
 28 31  1  0  0  0  0
 29 30  2  0  0  0  0
 29 32  1  0  0  0  0
 31 38  1  6  0  0  0
 31 26  1  0  0  0  0
 32 26  1  0  0  0  0
 32 35  1  1  0  0  0
 33 35  1  0  0  0  0
 35 34  2  6  0  0  0
 35 37  1  0  0  0  0
 37 36  1  0  0  0  0
 38 39  1  6  0  0  0
 38 40  1  0  0  0  0
 40 41  1  0  0  0  0
 42 43  1  0  0  0  0
 43 44  1  0  0  0  0
 44 45  2  0  0  0  0
 44 46  1  0  0  0  0
 47 46  1  6  0  0  0
 47 49  1  0  0  0  0
 47 56  1  0  0  0  0
 48 49  1  0  0  0  0
 50 48  1  0  0  0  0
 51 52  1  6  0  0  0
 51 50  1  0  0  0  0
 53 51  1  6  0  0  0
 53 54  1  0  0  0  0
 55 53  1  0  0  0  0
 55 54  1  0  0  0  0
 56 57  1  0  0  0  0
 57 58  1  0  0  0  0
 58 59  1  0  0  0  0
M  END
>  <MODEL>
3

>  <REMARK>
 VINA RESULT:      -5.1      3.580     10.544
  Name = 
  27 active torsions:
  status: ('A' for Active; 'I' for Inactive)
    1  A    between atoms: C_1  and  C_3
    2  A    between atoms: C_1  and  C_49
    3  A    between atoms: C_4  and  C_10
    4  A    between atoms: C_4  and  C_55
    5  A    between atoms: C_5  and  O_32
    6  A    between atoms: N_8  and  N_22
    7  A    between atoms: N_8  and  N_36
    8  A    between atoms: C_11  and  C_14
    9  A    between atoms: C_11  and  O_21
   10  A    between atoms: C_13  and  N_50
   11  A    between atoms: C_14  and  C_26
   12  A    between atoms: C_15  and  N_38
   13  A    between atoms: C_16  and  N_22
   14  A    between atoms: C_16  and  C_37
   15  A    between atoms: C_19  and  C_43
   16  A    between atoms: C_19  and  C_53
   17  A    between atoms: C_23  and  C_28
   18  A    between atoms: C_23  and  C_43
   19  A    between atoms: C_26  and  S_29
   20  A    between atoms: C_26  and  C_37
   21  A    between atoms: C_28  and  O_32
   22  A    between atoms: C_31  and  C_33
   23  A    between atoms: C_33  and  N_38
   24  A    between atoms: N_40  and  C_53
   25  A    between atoms: N_42  and  C_49
   26  A    between atoms: C_57  and  P_58
   27  A    between atoms: P_58  and  O_59
                            x       y       z     vdW  Elec       q    Type
                         _______ _______ _______ _____ _____    ______ ____

>  <TORSDO>
F 27

$$$$
=
 OpenBabel10222418153D

 59 61  0  0  1  0  0  0  0  0999 V2000
  184.1950  178.1460  140.2950 C   0  0  2  0  0  3  0  0  0  0  0  0
  182.0160  178.8210  139.0330 C   0  0  1  0  0  3  0  0  0  0  0  0
  184.4120  178.6160  138.8970 C   0  0  0  0  0  0  0  0  0  0  0  0
  182.4250  177.7490  140.4440 S   0  0  0  0  0  0  0  0  0  0  0  0
  183.1970  178.8520  138.0850 C   0  0  0  0  0  2  0  0  0  0  0  0
  185.5910  178.7970  138.3870 N   0  0  0  0  0  0  0  0  0  0  0  0
  181.9340  176.4460  137.4620 O   0  0  0  0  0  0  0  0  0  0  0  0
  180.8560  177.0850  137.6120 C   0  0  0  0  0  0  0  0  0  0  0  0
  179.6420  176.5940  137.0460 N   0  0  0  0  0  2  0  0  0  0  0  0
  180.8410  178.3080  138.3490 N   0  0  0  0  0  2  0  0  0  0  0  0
  178.9310  175.7340  134.8750 C   0  0  0  0  0  1  0  0  0  0  0  0
  179.6090  175.4110  136.1960 C   0  0  2  0  0  3  0  0  0  0  0  0
  178.9310  174.2380  136.9000 C   0  0  0  0  0  2  0  0  0  0  0  0
  179.8670  173.1150  137.2060 C   0  0  0  0  0  0  0  0  0  0  0  0
  179.7490  172.0150  136.6140 O   0  0  0  0  0  0  0  0  0  0  0  0
  180.8650  173.2930  138.1540 O   0  0  0  0  0  1  0  0  0  0  0  0
  184.5330  179.1650  141.1920 O   0  0  0  0  0  0  0  0  0  0  0  0
  184.4970  178.5700  142.4570 C   0  0  0  0  0  2  0  0  0  0  0  0
  182.2200  179.2550  143.1770 C   0  0  0  0  0  1  0  0  0  0  0  0
  183.7120  179.4410  143.4350 C   0  0  1  0  0  3  0  0  0  0  0  0
  184.0580  179.0830  144.8830 C   0  0  1  0  0  3  0  0  0  0  0  0
  182.9370  178.2680  145.5110 C   0  0  0  0  0  1  0  0  0  0  0  0
  185.3410  178.2570  144.9420 C   0  0  0  0  0  2  0  0  0  0  0  0
  186.3930  178.9210  145.8260 C   0  0  0  0  0  2  0  0  0  0  0  0
  187.8430  177.4530  147.2060 C   0  0  0  0  0  2  0  0  0  0  0  0
  189.8890  176.2750  145.7420 O   0  0  0  0  0  0  0  0  0  0  0  0
  187.6020  178.1070  145.9200 N   0  0  0  0  0  0  0  0  0  0  0  0
  189.2640  177.6920  147.6870 C   0  0  0  0  0  2  0  0  0  0  0  0
  188.4880  177.9810  144.7850 C   0  0  0  0  0  0  0  0  0  0  0  0
  188.1190  178.4340  143.6640 O   0  0  0  0  0  0  0  0  0  0  0  0
  190.1920  176.6360  147.0790 C   0  0  2  0  0  3  0  0  0  0  0  0
  189.8890  177.4270  144.9380 C   0  0  2  0  0  3  0  0  0  0  0  0
  191.5040  178.4140  142.7670 O   0  0  0  0  0  0  0  0  0  0  0  0
  191.6720  175.9170  143.5230 O   0  0  0  0  0  1  0  0  0  0  0  0
  190.6840  177.0440  143.3370 P   0  0  1  0  0  0  0  0  0  0  0  0
  190.1940  176.0580  141.2060 O   0  0  0  0  0  1  0  0  0  0  0  0
  189.5120  176.5700  142.2100 O   0  0  0  0  0  0  0  0  0  0  0  0
  191.6890  176.8500  147.3710 C   0  0  1  0  0  3  0  0  0  0  0  0
  191.8400  177.5030  148.5910 O   0  0  0  0  0  1  0  0  0  0  0  0
  192.5080  175.5610  147.3800 C   0  0  0  0  0  2  0  0  0  0  0  0
  192.7770  175.1740  148.6930 O   0  0  0  0  0  1  0  0  0  0  0  0
  186.7580  178.5770  139.1310 N   0  0  0  0  0  2  0  0  0  0  0  0
  187.7960  177.7460  138.6800 N   0  0  0  0  0  2  0  0  0  0  0  0
  188.9890  178.1910  138.0210 C   0  0  0  0  0  0  0  0  0  0  0  0
  189.1350  179.4480  137.6120 C   0  0  0  0  0  2  0  0  0  0  0  0
  189.9760  177.1620  137.5760 C   0  0  0  0  0  2  0  0  0  0  0  0
  189.4830  176.3870  136.3600 C   0  0  1  0  0  3  0  0  0  0  0  0
  191.4300  174.7950  137.3410 C   0  0  0  0  0  2  0  0  0  0  0  0
  190.5500  174.9640  136.0000 S   0  0  0  0  0  0  0  0  0  0  0  0
  192.3930  173.7430  137.4350 N   0  0  0  0  0  2  0  0  0  0  0  0
  193.7110  174.3690  137.4690 C   0  0  2  0  0  3  0  0  0  0  0  0
  193.5500  175.8600  137.6720 C   0  0  0  0  0  1  0  0  0  0  0  0
  194.5560  174.1220  136.2060 C   0  0  2  0  0  3  0  0  0  0  0  0
  195.5190  172.5480  136.2550 S   0  0  0  0  0  0  0  0  0  0  0  0
  195.9840  174.3190  136.4570 C   0  0  0  0  0  2  0  0  0  0  0  0
  188.0140  175.9860  136.5200 C   0  0  0  0  0  2  0  0  0  0  0  0
  187.6300  174.7240  135.7470 C   0  0  0  0  0  2  0  0  0  0  0  0
  186.2620  174.4630  135.8860 O   0  0  0  0  0  0  0  0  0  0  0  0
  185.8650  175.2810  136.8400 O   0  0  0  0  0  1  0  0  0  0  0  0
  1  4  1  0  0  0  0
  1 17  1  1  0  0  0
  2 10  1  6  0  0  0
  2  4  1  0  0  0  0
  3  1  1  0  0  0  0
  5  3  1  0  0  0  0
  5  2  1  0  0  0  0
  6  3  2  0  0  0  0
  6 42  1  0  0  0  0
  7  8  2  0  0  0  0
  8 10  1  0  0  0  0
  9  8  1  0  0  0  0
 12 11  1  6  0  0  0
 12 13  1  0  0  0  0
 12  9  1  0  0  0  0
 13 14  1  0  0  0  0
 14 16  1  0  0  0  0
 15 14  2  0  0  0  0
 17 18  1  0  0  0  0
 18 20  1  0  0  0  0
 20 19  1  1  0  0  0
 20 21  1  0  0  0  0
 21 23  1  0  0  0  0
 21 22  1  6  0  0  0
 23 24  1  0  0  0  0
 24 27  1  0  0  0  0
 25 28  1  0  0  0  0
 26 31  1  0  0  0  0
 27 25  1  0  0  0  0
 29 32  1  0  0  0  0
 29 27  1  0  0  0  0
 30 29  2  0  0  0  0
 31 38  1  6  0  0  0
 31 28  1  0  0  0  0
 32 35  1  6  0  0  0
 32 26  1  0  0  0  0
 35 33  2  6  0  0  0
 35 34  1  0  0  0  0
 36 37  1  0  0  0  0
 37 35  1  0  0  0  0
 38 40  1  0  0  0  0
 38 39  1  1  0  0  0
 40 41  1  0  0  0  0
 43 42  1  0  0  0  0
 44 43  1  0  0  0  0
 45 44  2  0  0  0  0
 46 44  1  0  0  0  0
 47 56  1  1  0  0  0
 47 46  1  0  0  0  0
 48 50  1  0  0  0  0
 49 47  1  0  0  0  0
 49 48  1  0  0  0  0
 50 51  1  0  0  0  0
 51 52  1  6  0  0  0
 53 54  1  0  0  0  0
 53 55  1  0  0  0  0
 53 51  1  1  0  0  0
 54 55  1  0  0  0  0
 57 58  1  0  0  0  0
 57 56  1  0  0  0  0
 58 59  1  0  0  0  0
M  END
>  <MODEL>
4

>  <REMARK>
 VINA RESULT:      -5.0      4.299      9.874
  Name = 
  27 active torsions:
  status: ('A' for Active; 'I' for Inactive)
    1  A    between atoms: C_1  and  C_3
    2  A    between atoms: C_1  and  C_49
    3  A    between atoms: C_4  and  C_10
    4  A    between atoms: C_4  and  C_55
    5  A    between atoms: C_5  and  O_32
    6  A    between atoms: N_8  and  N_22
    7  A    between atoms: N_8  and  N_36
    8  A    between atoms: C_11  and  C_14
    9  A    between atoms: C_11  and  O_21
   10  A    between atoms: C_13  and  N_50
   11  A    between atoms: C_14  and  C_26
   12  A    between atoms: C_15  and  N_38
   13  A    between atoms: C_16  and  N_22
   14  A    between atoms: C_16  and  C_37
   15  A    between atoms: C_19  and  C_43
   16  A    between atoms: C_19  and  C_53
   17  A    between atoms: C_23  and  C_28
   18  A    between atoms: C_23  and  C_43
   19  A    between atoms: C_26  and  S_29
   20  A    between atoms: C_26  and  C_37
   21  A    between atoms: C_28  and  O_32
   22  A    between atoms: C_31  and  C_33
   23  A    between atoms: C_33  and  N_38
   24  A    between atoms: N_40  and  C_53
   25  A    between atoms: N_42  and  C_49
   26  A    between atoms: C_57  and  P_58
   27  A    between atoms: P_58  and  O_59
                            x       y       z     vdW  Elec       q    Type
                         _______ _______ _______ _____ _____    ______ ____

>  <TORSDO>
F 27

$$$$
=
 OpenBabel10222418153D

 59 61  0  0  1  0  0  0  0  0999 V2000
  190.3080  176.0330  138.4820 C   0  0  2  0  0  3  0  0  0  0  0  0
  192.3450  176.1790  136.8610 C   0  0  1  0  0  3  0  0  0  0  0  0
  191.5100  176.7010  139.0590 C   0  0  0  0  0  0  0  0  0  0  0  0
  190.8730  175.1220  137.0120 S   0  0  0  0  0  0  0  0  0  0  0  0
  192.7430  176.6620  138.2400 C   0  0  0  0  0  2  0  0  0  0  0  0
  191.5090  177.2760  140.2220 N   0  0  0  0  0  0  0  0  0  0  0  0
  192.4880  173.3390  136.7040 O   0  0  0  0  0  0  0  0  0  0  0  0
  193.4230  174.0010  136.1770 C   0  0  0  0  0  0  0  0  0  0  0  0
  194.4820  173.3340  135.4900 N   0  0  0  0  0  2  0  0  0  0  0  0
  193.4340  175.4260  136.2630 N   0  0  0  0  0  2  0  0  0  0  0  0
  193.2220  171.2640  135.1980 C   0  0  0  0  0  1  0  0  0  0  0  0
  194.5860  171.8810  135.4590 C   0  0  2  0  0  3  0  0  0  0  0  0
  195.2060  171.3400  136.7450 C   0  0  0  0  0  2  0  0  0  0  0  0
  196.3740  170.4400  136.5010 C   0  0  0  0  0  0  0  0  0  0  0  0
  197.3260  170.4060  137.3170 O   0  0  0  0  0  1  0  0  0  0  0  0
  196.4020  169.6460  135.3630 O   0  0  0  0  0  0  0  0  0  0  0  0
  189.3650  176.9980  138.1130 O   0  0  0  0  0  0  0  0  0  0  0  0
  189.0540  176.7200  136.7780 C   0  0  0  0  0  2  0  0  0  0  0  0
  187.8870  177.7910  134.8650 C   0  0  0  0  0  1  0  0  0  0  0  0
  187.7960  177.4730  136.3540 C   0  0  1  0  0  3  0  0  0  0  0  0
  186.5400  176.6480  136.6540 C   0  0  1  0  0  3  0  0  0  0  0  0
  186.9080  175.1940  136.9080 C   0  0  0  0  0  1  0  0  0  0  0  0
  185.8260  177.1860  137.8920 C   0  0  0  0  0  2  0  0  0  0  0  0
  184.5250  177.8930  137.5230 C   0  0  0  0  0  2  0  0  0  0  0  0
  183.4730  175.9690  138.6860 C   0  0  0  0  0  2  0  0  0  0  0  0
  181.2030  176.6840  140.1170 O   0  0  0  0  0  0  0  0  0  0  0  0
  183.3990  177.3770  138.2970 N   0  0  0  0  0  0  0  0  0  0  0  0
  182.1860  175.2370  138.3510 C   0  0  0  0  0  2  0  0  0  0  0  0
  182.2900  178.2380  138.6380 C   0  0  0  0  0  0  0  0  0  0  0  0
  182.3840  179.4800  138.4140 O   0  0  0  0  0  0  0  0  0  0  0  0
  181.1880  175.4070  139.5000 C   0  0  2  0  0  3  0  0  0  0  0  0
  180.9800  177.6720  139.1450 C   0  0  2  0  0  3  0  0  0  0  0  0
  178.9310  179.6160  138.5820 O   0  0  0  0  0  0  0  0  0  0  0  0
  178.9510  178.3240  140.8540 O   0  0  0  0  0  1  0  0  0  0  0  0
  179.8660  178.9510  139.8280 P   0  0  1  0  0  0  0  0  0  0  0  0
  179.9680  181.2080  140.6350 O   0  0  0  0  0  1  0  0  0  0  0  0
  180.7770  180.1700  140.5730 O   0  0  0  0  0  0  0  0  0  0  0  0
  179.7860  174.8340  139.2270 C   0  0  1  0  0  3  0  0  0  0  0  0
  179.8940  173.6720  138.4670 O   0  0  0  0  0  1  0  0  0  0  0  0
  178.9800  174.5410  140.4900 C   0  0  0  0  0  2  0  0  0  0  0  0
  179.5720  173.5010  141.2060 O   0  0  0  0  0  1  0  0  0  0  0  0
  190.3580  177.3250  141.0200 N   0  0  0  0  0  2  0  0  0  0  0  0
  190.3580  177.8730  142.3130 N   0  0  0  0  0  2  0  0  0  0  0  0
  190.7800  177.1940  143.5030 C   0  0  0  0  0  0  0  0  0  0  0  0
  190.7830  175.8660  143.5860 C   0  0  0  0  0  2  0  0  0  0  0  0
  190.9860  178.0010  144.7420 C   0  0  0  0  0  2  0  0  0  0  0  0
  189.8130  177.8760  145.7060 C   0  0  1  0  0  3  0  0  0  0  0  0
  187.1390  177.9930  145.3580 C   0  0  0  0  0  2  0  0  0  0  0  0
  188.3880  177.0720  144.9220 S   0  0  0  0  0  0  0  0  0  0  0  0
  185.8220  177.6700  144.9050 N   0  0  0  0  0  2  0  0  0  0  0  0
  185.4800  178.6290  143.8590 C   0  0  2  0  0  3  0  0  0  0  0  0
  184.4560  179.6070  144.3940 C   0  0  0  0  0  1  0  0  0  0  0  0
  184.9360  177.9860  142.5710 C   0  0  2  0  0  3  0  0  0  0  0  0
  185.1750  179.0260  141.0650 S   0  0  0  0  0  0  0  0  0  0  0  0
  183.7090  178.6360  142.1110 C   0  0  0  0  0  2  0  0  0  0  0  0
  190.2360  177.1750  147.0000 C   0  0  0  0  0  2  0  0  0  0  0  0
  191.2280  176.0300  146.7880 C   0  0  0  0  0  2  0  0  0  0  0  0
  192.4480  176.3190  147.4090 O   0  0  0  0  0  0  0  0  0  0  0  0
  192.1460  177.2080  148.3330 O   0  0  0  0  0  1  0  0  0  0  0  0
  1 17  1  6  0  0  0
  1  3  1  0  0  0  0
  2 10  1  1  0  0  0
  2  4  1  0  0  0  0
  2  5  1  0  0  0  0
  3  6  2  0  0  0  0
  4  1  1  0  0  0  0
  5  3  1  0  0  0  0
  6 42  1  0  0  0  0
  8 10  1  0  0  0  0
  8  7  2  0  0  0  0
  9  8  1  0  0  0  0
 12 11  1  1  0  0  0
 12  9  1  0  0  0  0
 12 13  1  0  0  0  0
 14 13  1  0  0  0  0
 14 15  1  0  0  0  0
 16 14  2  0  0  0  0
 18 17  1  0  0  0  0
 20 19  1  6  0  0  0
 20 21  1  0  0  0  0
 20 18  1  0  0  0  0
 21 22  1  1  0  0  0
 21 23  1  0  0  0  0
 24 23  1  0  0  0  0
 24 27  1  0  0  0  0
 27 29  1  0  0  0  0
 27 25  1  0  0  0  0
 28 25  1  0  0  0  0
 28 31  1  0  0  0  0
 29 32  1  0  0  0  0
 30 29  2  0  0  0  0
 31 38  1  6  0  0  0
 31 26  1  0  0  0  0
 32 35  1  1  0  0  0
 32 26  1  0  0  0  0
 35 33  2  6  0  0  0
 35 37  1  0  0  0  0
 35 34  1  0  0  0  0
 37 36  1  0  0  0  0
 38 39  1  1  0  0  0
 38 40  1  0  0  0  0
 40 41  1  0  0  0  0
 42 43  1  0  0  0  0
 43 44  1  0  0  0  0
 44 45  2  0  0  0  0
 44 46  1  0  0  0  0
 47 46  1  6  0  0  0
 47 56  1  0  0  0  0
 49 48  1  0  0  0  0
 49 47  1  0  0  0  0
 50 48  1  0  0  0  0
 51 52  1  1  0  0  0
 51 50  1  0  0  0  0
 53 51  1  1  0  0  0
 54 55  1  0  0  0  0
 54 53  1  0  0  0  0
 55 53  1  0  0  0  0
 57 56  1  0  0  0  0
 57 58  1  0  0  0  0
 58 59  1  0  0  0  0
M  END
>  <MODEL>
5

>  <REMARK>
 VINA RESULT:      -4.9      3.310     11.291
  Name = 
  27 active torsions:
  status: ('A' for Active; 'I' for Inactive)
    1  A    between atoms: C_1  and  C_3
    2  A    between atoms: C_1  and  C_49
    3  A    between atoms: C_4  and  C_10
    4  A    between atoms: C_4  and  C_55
    5  A    between atoms: C_5  and  O_32
    6  A    between atoms: N_8  and  N_22
    7  A    between atoms: N_8  and  N_36
    8  A    between atoms: C_11  and  C_14
    9  A    between atoms: C_11  and  O_21
   10  A    between atoms: C_13  and  N_50
   11  A    between atoms: C_14  and  C_26
   12  A    between atoms: C_15  and  N_38
   13  A    between atoms: C_16  and  N_22
   14  A    between atoms: C_16  and  C_37
   15  A    between atoms: C_19  and  C_43
   16  A    between atoms: C_19  and  C_53
   17  A    between atoms: C_23  and  C_28
   18  A    between atoms: C_23  and  C_43
   19  A    between atoms: C_26  and  S_29
   20  A    between atoms: C_26  and  C_37
   21  A    between atoms: C_28  and  O_32
   22  A    between atoms: C_31  and  C_33
   23  A    between atoms: C_33  and  N_38
   24  A    between atoms: N_40  and  C_53
   25  A    between atoms: N_42  and  C_49
   26  A    between atoms: C_57  and  P_58
   27  A    between atoms: P_58  and  O_59
                            x       y       z     vdW  Elec       q    Type
                         _______ _______ _______ _____ _____    ______ ____

>  <TORSDO>
F 27

$$$$
=
 OpenBabel10222418153D

 59 61  0  0  1  0  0  0  0  0999 V2000
  185.0370  178.6390  139.1500 C   0  0  2  0  0  3  0  0  0  0  0  0
  186.8410  177.2210  137.9130 C   0  0  1  0  0  3  0  0  0  0  0  0
  184.5780  178.0430  137.8630 C   0  0  0  0  0  0  0  0  0  0  0  0
  186.8550  178.5600  139.1440 S   0  0  0  0  0  0  0  0  0  0  0  0
  185.6100  177.3700  137.0430 C   0  0  0  0  0  2  0  0  0  0  0  0
  183.3500  178.1140  137.4490 N   0  0  0  0  0  0  0  0  0  0  0  0
  188.8320  175.1910  137.7410 O   0  0  0  0  0  0  0  0  0  0  0  0
  188.9780  176.2150  137.0200 C   0  0  0  0  0  0  0  0  0  0  0  0
  190.0830  176.3130  136.1220 N   0  0  0  0  0  2  0  0  0  0  0  0
  188.0400  177.2890  137.0960 N   0  0  0  0  0  2  0  0  0  0  0  0
  190.5400  173.9530  135.7020 C   0  0  0  0  0  1  0  0  0  0  0  0
  191.1310  175.3030  136.0750 C   0  0  2  0  0  3  0  0  0  0  0  0
  191.8950  175.2310  137.3950 C   0  0  0  0  0  2  0  0  0  0  0  0
  193.1250  176.0780  137.4090 C   0  0  0  0  0  0  0  0  0  0  0  0
  193.7230  176.3080  138.4880 O   0  0  0  0  0  1  0  0  0  0  0  0
  193.6020  176.6150  136.2210 O   0  0  0  0  0  0  0  0  0  0  0  0
  184.5310  177.8940  140.2200 O   0  0  0  0  0  0  0  0  0  0  0  0
  184.9980  178.5370  141.3710 C   0  0  0  0  0  2  0  0  0  0  0  0
  182.5810  178.3330  141.9090 C   0  0  0  0  0  1  0  0  0  0  0  0
  183.8380  179.1660  142.1400 C   0  0  1  0  0  3  0  0  0  0  0  0
  184.1590  179.2540  143.6350 C   0  0  1  0  0  3  0  0  0  0  0  0
  182.9120  178.9830  144.4630 C   0  0  0  0  0  1  0  0  0  0  0  0
  185.2220  178.2280  144.0190 C   0  0  0  0  0  2  0  0  0  0  0  0
  186.2080  178.7980  145.0350 C   0  0  0  0  0  2  0  0  0  0  0  0
  187.7090  177.3610  146.3930 C   0  0  0  0  0  2  0  0  0  0  0  0
  189.7200  176.1760  144.8890 O   0  0  0  0  0  0  0  0  0  0  0  0
  187.4250  177.9940  145.1060 N   0  0  0  0  0  0  0  0  0  0  0  0
  189.1410  177.6180  146.8290 C   0  0  0  0  0  2  0  0  0  0  0  0
  188.2800  177.8570  143.9480 C   0  0  0  0  0  0  0  0  0  0  0  0
  187.8750  178.2910  142.8310 O   0  0  0  0  0  0  0  0  0  0  0  0
  190.0590  176.5600  146.2110 C   0  0  2  0  0  3  0  0  0  0  0  0
  189.6890  177.3160  144.0680 C   0  0  2  0  0  3  0  0  0  0  0  0
  192.1290  176.9800  142.5750 O   0  0  0  0  0  1  0  0  0  0  0  0
  190.0270  175.5230  142.0350 O   0  0  0  0  0  0  0  0  0  0  0  0
  190.4400  176.9150  142.4500 P   0  0  1  0  0  0  0  0  0  0  0  0
  190.1890  177.4500  140.1250 O   0  0  0  0  0  1  0  0  0  0  0  0
  189.9110  178.0190  141.2790 O   0  0  0  0  0  0  0  0  0  0  0  0
  191.5620  176.7880  146.4560 C   0  0  1  0  0  3  0  0  0  0  0  0
  191.9190  178.0620  146.0210 O   0  0  0  0  0  1  0  0  0  0  0  0
  191.9860  176.6110  147.9120 C   0  0  0  0  0  2  0  0  0  0  0  0
  193.1720  175.8780  147.9790 O   0  0  0  0  0  1  0  0  0  0  0  0
  182.3530  178.7490  138.2020 N   0  0  0  0  0  0  0  0  0  0  0  0
  181.2410  178.0620  138.7160 N   0  0  0  0  0  0  0  0  0  0  0  0
  181.0370  176.6450  138.6470 C   0  0  0  0  0  0  0  0  0  0  0  0
  181.8330  175.7920  139.2860 C   0  0  0  0  0  2  0  0  0  0  0  0
  180.0630  176.1190  137.6450 C   0  0  0  0  0  2  0  0  0  0  0  0
  180.3890  176.5860  136.2320 C   0  0  1  0  0  3  0  0  0  0  0  0
  181.3240  174.0900  135.7990 C   0  0  0  0  0  2  0  0  0  0  0  0
  180.4140  175.1990  135.0620 S   0  0  0  0  0  0  0  0  0  0  0  0
  181.5600  172.8280  135.1710 N   0  0  0  0  0  2  0  0  0  0  0  0
  182.5370  172.1170  135.9900 C   0  0  2  0  0  3  0  0  0  0  0  0
  183.1600  173.0830  136.9740 C   0  0  0  0  0  1  0  0  0  0  0  0
  183.6540  171.4320  135.1820 C   0  0  2  0  0  3  0  0  0  0  0  0
  183.9560  169.6790  135.6730 S   0  0  0  0  0  0  0  0  0  0  0  0
  184.8700  171.2510  135.9750 C   0  0  0  0  0  2  0  0  0  0  0  0
  179.4420  177.7030  135.7880 C   0  0  0  0  0  2  0  0  0  0  0  0
  180.1570  178.9680  135.3120 C   0  0  0  0  0  2  0  0  0  0  0  0
  179.2280  179.9600  134.9810 O   0  0  0  0  0  0  0  0  0  0  0  0
  179.1650  180.7250  136.0520 O   0  0  0  0  0  1  0  0  0  0  0  0
  1 17  1  1  0  0  0
  2 10  1  6  0  0  0
  2  4  1  0  0  0  0
  3  1  1  0  0  0  0
  4  1  1  0  0  0  0
  5  3  1  0  0  0  0
  5  2  1  0  0  0  0
  6  3  2  0  0  0  0
  6 42  1  0  0  0  0
  8 10  1  0  0  0  0
  8  7  2  0  0  0  0
  9  8  1  0  0  0  0
 12 11  1  1  0  0  0
 12  9  1  0  0  0  0
 12 13  1  0  0  0  0
 13 14  1  0  0  0  0
 14 15  1  0  0  0  0
 16 14  2  0  0  0  0
 17 18  1  0  0  0  0
 18 20  1  0  0  0  0
 20 19  1  1  0  0  0
 20 21  1  0  0  0  0
 21 23  1  0  0  0  0
 21 22  1  1  0  0  0
 23 24  1  0  0  0  0
 24 27  1  0  0  0  0
 25 28  1  0  0  0  0
 26 31  1  0  0  0  0
 27 25  1  0  0  0  0
 29 32  1  0  0  0  0
 29 27  1  0  0  0  0
 30 29  2  0  0  0  0
 31 38  1  6  0  0  0
 31 28  1  0  0  0  0
 32 35  1  6  0  0  0
 32 26  1  0  0  0  0
 35 34  2  6  0  0  0
 35 33  1  0  0  0  0
 36 37  1  0  0  0  0
 37 35  1  0  0  0  0
 38 39  1  1  0  0  0
 38 40  1  0  0  0  0
 40 41  1  0  0  0  0
 42 43  2  0  0  0  0
 44 43  1  0  0  0  0
 44 45  2  0  0  0  0
 46 44  1  0  0  0  0
 47 56  1  6  0  0  0
 47 46  1  0  0  0  0
 49 48  1  0  0  0  0
 49 47  1  0  0  0  0
 50 48  1  0  0  0  0
 50 51  1  0  0  0  0
 51 52  1  1  0  0  0
 53 54  1  0  0  0  0
 53 55  1  0  0  0  0
 53 51  1  1  0  0  0
 54 55  1  0  0  0  0
 57 56  1  0  0  0  0
 58 57  1  0  0  0  0
 58 59  1  0  0  0  0
M  END
>  <MODEL>
6

>  <REMARK>
 VINA RESULT:      -4.8      3.644     11.021
  Name = 
  27 active torsions:
  status: ('A' for Active; 'I' for Inactive)
    1  A    between atoms: C_1  and  C_3
    2  A    between atoms: C_1  and  C_49
    3  A    between atoms: C_4  and  C_10
    4  A    between atoms: C_4  and  C_55
    5  A    between atoms: C_5  and  O_32
    6  A    between atoms: N_8  and  N_22
    7  A    between atoms: N_8  and  N_36
    8  A    between atoms: C_11  and  C_14
    9  A    between atoms: C_11  and  O_21
   10  A    between atoms: C_13  and  N_50
   11  A    between atoms: C_14  and  C_26
   12  A    between atoms: C_15  and  N_38
   13  A    between atoms: C_16  and  N_22
   14  A    between atoms: C_16  and  C_37
   15  A    between atoms: C_19  and  C_43
   16  A    between atoms: C_19  and  C_53
   17  A    between atoms: C_23  and  C_28
   18  A    between atoms: C_23  and  C_43
   19  A    between atoms: C_26  and  S_29
   20  A    between atoms: C_26  and  C_37
   21  A    between atoms: C_28  and  O_32
   22  A    between atoms: C_31  and  C_33
   23  A    between atoms: C_33  and  N_38
   24  A    between atoms: N_40  and  C_53
   25  A    between atoms: N_42  and  C_49
   26  A    between atoms: C_57  and  P_58
   27  A    between atoms: P_58  and  O_59
                            x       y       z     vdW  Elec       q    Type
                         _______ _______ _______ _____ _____    ______ ____

>  <TORSDO>
F 27

$$$$
=
 OpenBabel10222418153D

 59 61  0  0  1  0  0  0  0  0999 V2000
  183.7620  179.0110  139.7310 C   0  0  2  0  0  3  0  0  0  0  0  0
  185.6620  177.5800  138.6640 C   0  0  1  0  0  3  0  0  0  0  0  0
  183.5680  178.7070  138.2840 C   0  0  0  0  0  0  0  0  0  0  0  0
  185.5120  178.6810  140.1030 S   0  0  0  0  0  0  0  0  0  0  0  0
  184.6950  178.0410  137.5930 C   0  0  0  0  0  2  0  0  0  0  0  0
  182.4870  179.0150  137.6350 N   0  0  0  0  0  0  0  0  0  0  0  0
  187.0700  175.3530  137.5810 O   0  0  0  0  0  0  0  0  0  0  0  0
  187.6560  176.4700  137.5830 C   0  0  0  0  0  0  0  0  0  0  0  0
  188.9590  176.6020  137.0160 N   0  0  0  0  0  2  0  0  0  0  0  0
  187.0230  177.6150  138.1550 N   0  0  0  0  0  2  0  0  0  0  0  0
  191.0090  175.9090  135.8870 C   0  0  0  0  0  1  0  0  0  0  0  0
  189.7020  175.4540  136.5140 C   0  0  2  0  0  3  0  0  0  0  0  0
  188.8660  174.6380  135.5290 C   0  0  0  0  0  2  0  0  0  0  0  0
  189.0030  173.1630  135.7230 C   0  0  0  0  0  0  0  0  0  0  0  0
  188.0680  172.3930  135.3970 O   0  0  0  0  0  0  0  0  0  0  0  0
  190.1690  172.6490  136.2720 O   0  0  0  0  0  1  0  0  0  0  0  0
  182.9450  178.1770  140.5010 O   0  0  0  0  0  0  0  0  0  0  0  0
  183.2190  178.5160  141.8290 C   0  0  0  0  0  2  0  0  0  0  0  0
  180.7500  178.7880  141.8120 C   0  0  0  0  0  1  0  0  0  0  0  0
  182.0500  179.2870  142.4360 C   0  0  1  0  0  3  0  0  0  0  0  0
  182.0170  179.1190  143.9580 C   0  0  1  0  0  3  0  0  0  0  0  0
  180.7290  178.4350  144.3890 C   0  0  0  0  0  1  0  0  0  0  0  0
  183.1930  178.2680  144.4310 C   0  0  0  0  0  2  0  0  0  0  0  0
  184.1170  179.0560  145.3560 C   0  0  0  0  0  2  0  0  0  0  0  0
  186.0230  178.8480  143.7780 C   0  0  0  0  0  2  0  0  0  0  0  0
  188.4160  178.2450  145.0520 O   0  0  0  0  0  0  0  0  0  0  0  0
  185.5170  178.6980  145.1420 N   0  0  0  0  0  0  0  0  0  0  0  0
  186.7530  177.5970  143.3220 C   0  0  0  0  0  2  0  0  0  0  0  0
  186.3250  178.2220  146.2420 C   0  0  0  0  0  0  0  0  0  0  0  0
  185.8630  178.2870  147.4180 O   0  0  0  0  0  0  0  0  0  0  0  0
  188.2150  177.6660  143.7730 C   0  0  2  0  0  3  0  0  0  0  0  0
  187.6580  177.5430  146.0040 C   0  0  2  0  0  3  0  0  0  0  0  0
  189.0490  178.8700  148.1490 O   0  0  0  0  0  0  0  0  0  0  0  0
  187.8260  176.5980  148.5610 O   0  0  0  0  0  1  0  0  0  0  0  0
  188.6410  177.3450  147.5330 P   0  0  1  0  0  0  0  0  0  0  0  0
  190.8610  177.3280  146.6240 O   0  0  0  0  0  1  0  0  0  0  0  0
  190.0510  176.4660  147.2020 O   0  0  0  0  0  0  0  0  0  0  0  0
  189.0350  176.3930  143.5010 C   0  0  1  0  0  3  0  0  0  0  0  0
  188.1860  175.3650  143.0980 O   0  0  0  0  0  1  0  0  0  0  0  0
  190.1370  176.5770  142.4600 C   0  0  0  0  0  2  0  0  0  0  0  0
  190.5080  177.9200  142.3880 O   0  0  0  0  0  1  0  0  0  0  0  0
  181.4060  179.6500  138.2630 N   0  0  0  0  0  0  0  0  0  0  0  0
  180.1980  178.9880  138.5380 N   0  0  0  0  0  0  0  0  0  0  0  0
  179.9180  177.6140  138.2400 C   0  0  0  0  0  0  0  0  0  0  0  0
  180.5650  176.6220  138.8430 C   0  0  0  0  0  2  0  0  0  0  0  0
  179.0580  177.3090  137.0580 C   0  0  0  0  0  2  0  0  0  0  0  0
  179.8060  177.4950  135.7440 C   0  0  1  0  0  3  0  0  0  0  0  0
  181.9580  175.8650  135.7300 C   0  0  0  0  0  2  0  0  0  0  0  0
  180.4650  175.9220  135.1240 S   0  0  0  0  0  0  0  0  0  0  0  0
  182.7950  174.7390  135.4610 N   0  0  0  0  0  2  0  0  0  0  0  0
  182.3080  173.6350  136.2830 C   0  0  2  0  0  3  0  0  0  0  0  0
  183.4510  173.0880  137.1110 C   0  0  0  0  0  1  0  0  0  0  0  0
  181.6750  172.4850  135.4780 C   0  0  2  0  0  3  0  0  0  0  0  0
  180.7100  171.3010  136.5130 S   0  0  0  0  0  0  0  0  0  0  0  0
  182.3640  171.2150  135.7050 C   0  0  0  0  0  2  0  0  0  0  0  0
  178.9320  178.2070  134.7080 C   0  0  0  0  0  2  0  0  0  0  0  0
  179.1330  179.7230  134.6660 C   0  0  0  0  0  2  0  0  0  0  0  0
  180.4680  180.0460  134.9270 O   0  0  0  0  0  0  0  0  0  0  0  0
  180.4050  181.0480  135.7810 O   0  0  0  0  0  1  0  0  0  0  0  0
  1  4  1  0  0  0  0
  1 17  1  1  0  0  0
  2 10  1  6  0  0  0
  2  4  1  0  0  0  0
  3  1  1  0  0  0  0
  5  3  1  0  0  0  0
  5  2  1  0  0  0  0
  6 42  1  0  0  0  0
  6  3  2  0  0  0  0
  7  8  2  0  0  0  0
  8 10  1  0  0  0  0
  9  8  1  0  0  0  0
 12 11  1  6  0  0  0
 12  9  1  0  0  0  0
 13 14  1  0  0  0  0
 13 12  1  0  0  0  0
 14 16  1  0  0  0  0
 15 14  2  0  0  0  0
 17 18  1  0  0  0  0
 18 20  1  0  0  0  0
 20 19  1  6  0  0  0
 20 21  1  0  0  0  0
 21 22  1  6  0  0  0
 21 23  1  0  0  0  0
 23 24  1  0  0  0  0
 25 27  1  0  0  0  0
 26 32  1  0  0  0  0
 27 24  1  0  0  0  0
 27 29  1  0  0  0  0
 28 31  1  0  0  0  0
 28 25  1  0  0  0  0
 29 30  2  0  0  0  0
 31 38  1  1  0  0  0
 31 26  1  0  0  0  0
 32 29  1  0  0  0  0
 32 35  1  1  0  0  0
 35 33  2  1  0  0  0
 35 34  1  0  0  0  0
 36 37  1  0  0  0  0
 37 35  1  0  0  0  0
 38 39  1  6  0  0  0
 40 38  1  0  0  0  0
 41 40  1  0  0  0  0
 42 43  2  0  0  0  0
 44 43  1  0  0  0  0
 44 45  2  0  0  0  0
 46 44  1  0  0  0  0
 47 56  1  6  0  0  0
 47 46  1  0  0  0  0
 49 48  1  0  0  0  0
 49 47  1  0  0  0  0
 50 48  1  0  0  0  0
 50 51  1  0  0  0  0
 51 52  1  6  0  0  0
 53 55  1  0  0  0  0
 53 51  1  1  0  0  0
 53 54  1  0  0  0  0
 55 54  1  0  0  0  0
 57 56  1  0  0  0  0
 57 58  1  0  0  0  0
 58 59  1  0  0  0  0
M  END
>  <MODEL>
7

>  <REMARK>
 VINA RESULT:      -4.7      4.177     11.564
  Name = 
  27 active torsions:
  status: ('A' for Active; 'I' for Inactive)
    1  A    between atoms: C_1  and  C_3
    2  A    between atoms: C_1  and  C_49
    3  A    between atoms: C_4  and  C_10
    4  A    between atoms: C_4  and  C_55
    5  A    between atoms: C_5  and  O_32
    6  A    between atoms: N_8  and  N_22
    7  A    between atoms: N_8  and  N_36
    8  A    between atoms: C_11  and  C_14
    9  A    between atoms: C_11  and  O_21
   10  A    between atoms: C_13  and  N_50
   11  A    between atoms: C_14  and  C_26
   12  A    between atoms: C_15  and  N_38
   13  A    between atoms: C_16  and  N_22
   14  A    between atoms: C_16  and  C_37
   15  A    between atoms: C_19  and  C_43
   16  A    between atoms: C_19  and  C_53
   17  A    between atoms: C_23  and  C_28
   18  A    between atoms: C_23  and  C_43
   19  A    between atoms: C_26  and  S_29
   20  A    between atoms: C_26  and  C_37
   21  A    between atoms: C_28  and  O_32
   22  A    between atoms: C_31  and  C_33
   23  A    between atoms: C_33  and  N_38
   24  A    between atoms: N_40  and  C_53
   25  A    between atoms: N_42  and  C_49
   26  A    between atoms: C_57  and  P_58
   27  A    between atoms: P_58  and  O_59
                            x       y       z     vdW  Elec       q    Type
                         _______ _______ _______ _____ _____    ______ ____

>  <TORSDO>
F 27

$$$$
=
 OpenBabel10222418153D

 59 61  0  0  1  0  0  0  0  0999 V2000
  190.7190  176.7950  141.3290 C   0  0  2  0  0  3  0  0  0  0  0  0
  192.4330  177.3470  139.4440 C   0  0  1  0  0  3  0  0  0  0  0  0
  191.7920  177.7500  141.7310 C   0  0  0  0  0  0  0  0  0  0  0  0
  191.2870  175.9820  139.8050 S   0  0  0  0  0  0  0  0  0  0  0  0
  192.8810  177.9670  140.7520 C   0  0  0  0  0  2  0  0  0  0  0  0
  191.8050  178.3570  142.8770 N   0  0  0  0  0  0  0  0  0  0  0  0
  192.3130  175.6720  137.1430 O   0  0  0  0  0  0  0  0  0  0  0  0
  193.4530  176.0460  137.5350 C   0  0  0  0  0  0  0  0  0  0  0  0
  194.6240  175.6700  136.8120 N   0  0  0  0  0  2  0  0  0  0  0  0
  193.5830  176.8470  138.7100 N   0  0  0  0  0  2  0  0  0  0  0  0
  193.4780  175.2080  134.7060 C   0  0  0  0  0  1  0  0  0  0  0  0
  194.5680  174.7680  135.6690 C   0  0  2  0  0  3  0  0  0  0  0  0
  194.3690  173.3200  136.1130 C   0  0  0  0  0  2  0  0  0  0  0  0
  195.6010  172.4870  135.9730 C   0  0  0  0  0  0  0  0  0  0  0  0
  195.9500  172.0600  134.8460 O   0  0  0  0  0  0  0  0  0  0  0  0
  196.3550  172.1840  137.0980 O   0  0  0  0  0  1  0  0  0  0  0  0
  189.5340  177.4960  141.0830 O   0  0  0  0  0  0  0  0  0  0  0  0
  189.0160  176.9440  139.9070 C   0  0  0  0  0  2  0  0  0  0  0  0
  189.1050  179.3000  139.1230 C   0  0  0  0  0  1  0  0  0  0  0  0
  188.2900  178.0110  139.0910 C   0  0  1  0  0  3  0  0  0  0  0  0
  188.0780  177.5430  137.6480 C   0  0  1  0  0  3  0  0  0  0  0  0
  188.5720  178.5970  136.6700 C   0  0  0  0  0  1  0  0  0  0  0  0
  188.8430  176.2480  137.3840 C   0  0  0  0  0  2  0  0  0  0  0  0
  188.3640  175.5660  136.1050 C   0  0  0  0  0  2  0  0  0  0  0  0
  187.3670  173.4130  136.8310 C   0  0  0  0  0  2  0  0  0  0  0  0
  184.6010  173.5260  137.0540 O   0  0  0  0  0  0  0  0  0  0  0  0
  187.1600  174.7750  136.3410 N   0  0  0  0  0  0  0  0  0  0  0  0
  186.5660  172.4080  136.0200 C   0  0  0  0  0  2  0  0  0  0  0  0
  185.8530  175.3400  136.0900 C   0  0  0  0  0  0  0  0  0  0  0  0
  185.7560  176.5750  135.8350 O   0  0  0  0  0  0  0  0  0  0  0  0
  185.1510  172.3020  136.5950 C   0  0  2  0  0  3  0  0  0  0  0  0
  184.6200  174.4650  136.0090 C   0  0  2  0  0  3  0  0  0  0  0  0
  183.2950  176.8680  136.8840 O   0  0  0  0  0  1  0  0  0  0  0  0
  182.6530  175.7460  134.6120 O   0  0  0  0  0  0  0  0  0  0  0  0
  183.0630  175.4230  136.0300 P   0  0  1  0  0  0  0  0  0  0  0  0
  181.1740  173.9690  135.7670 O   0  0  0  0  0  1  0  0  0  0  0  0
  181.8360  174.5150  136.7650 O   0  0  0  0  0  0  0  0  0  0  0  0
  184.1870  171.4240  135.7770 C   0  0  1  0  0  3  0  0  0  0  0  0
  184.8040  170.2150  135.4660 O   0  0  0  0  0  1  0  0  0  0  0  0
  182.8560  171.1500  136.4730 C   0  0  0  0  0  2  0  0  0  0  0  0
  182.2850  169.9790  135.9730 O   0  0  0  0  0  1  0  0  0  0  0  0
  190.7900  178.1670  143.8240 N   0  0  0  0  0  2  0  0  0  0  0  0
  190.6570  176.9790  144.5620 N   0  0  0  0  0  2  0  0  0  0  0  0
  190.3510  176.8990  145.9600 C   0  0  0  0  0  0  0  0  0  0  0  0
  191.3070  176.8760  146.8840 C   0  0  0  0  0  2  0  0  0  0  0  0
  188.9450  176.5930  146.3590 C   0  0  0  0  0  2  0  0  0  0  0  0
  187.9410  177.4960  145.6530 C   0  0  1  0  0  3  0  0  0  0  0  0
  186.5870  178.0250  143.3780 C   0  0  0  0  0  2  0  0  0  0  0  0
  187.5550  176.8880  143.9880 S   0  0  0  0  0  0  0  0  0  0  0  0
  186.0820  177.8930  142.0480 N   0  0  0  0  0  2  0  0  0  0  0  0
  184.8190  178.6240  141.9940 C   0  0  2  0  0  3  0  0  0  0  0  0
  184.2500  178.7410  143.3910 C   0  0  0  0  0  1  0  0  0  0  0  0
  183.7630  177.9860  141.0730 C   0  0  2  0  0  3  0  0  0  0  0  0
  183.0860  179.1460  139.8080 S   0  0  0  0  0  0  0  0  0  0  0  0
  182.4140  178.4590  141.3800 C   0  0  0  0  0  2  0  0  0  0  0  0
  186.6850  177.6950  146.5050 C   0  0  0  0  0  2  0  0  0  0  0  0
  186.7820  178.8640  147.4860 C   0  0  0  0  0  2  0  0  0  0  0  0
  185.6820  179.7170  147.3410 O   0  0  0  0  0  0  0  0  0  0  0  0
  184.7730  178.9830  146.7320 O   0  0  0  0  0  1  0  0  0  0  0  0
  1 17  1  6  0  0  0
  1  3  1  0  0  0  0
  2 10  1  1  0  0  0
  2  4  1  0  0  0  0
  2  5  1  0  0  0  0
  3  6  2  0  0  0  0
  4  1  1  0  0  0  0
  5  3  1  0  0  0  0
  6 42  1  0  0  0  0
  7  8  2  0  0  0  0
  8 10  1  0  0  0  0
  9  8  1  0  0  0  0
 12 11  1  6  0  0  0
 12 13  1  0  0  0  0
 12  9  1  0  0  0  0
 14 13  1  0  0  0  0
 14 16  1  0  0  0  0
 15 14  2  0  0  0  0
 18 17  1  0  0  0  0
 20 19  1  6  0  0  0
 20 18  1  0  0  0  0
 21 22  1  6  0  0  0
 21 20  1  0  0  0  0
 23 21  1  0  0  0  0
 24 27  1  0  0  0  0
 24 23  1  0  0  0  0
 27 25  1  0  0  0  0
 28 31  1  0  0  0  0
 28 25  1  0  0  0  0
 29 27  1  0  0  0  0
 30 29  2  0  0  0  0
 31 38  1  6  0  0  0
 31 26  1  0  0  0  0
 32 35  1  1  0  0  0
 32 29  1  0  0  0  0
 32 26  1  0  0  0  0
 35 34  2  6  0  0  0
 35 37  1  0  0  0  0
 35 33  1  0  0  0  0
 36 37  1  0  0  0  0
 38 39  1  1  0  0  0
 38 40  1  0  0  0  0
 41 40  1  0  0  0  0
 42 43  1  0  0  0  0
 43 44  1  0  0  0  0
 44 46  1  0  0  0  0
 44 45  2  0  0  0  0
 47 46  1  1  0  0  0
 47 56  1  0  0  0  0
 48 49  1  0  0  0  0
 49 47  1  0  0  0  0
 50 48  1  0  0  0  0
 51 50  1  0  0  0  0
 51 52  1  1  0  0  0
 53 55  1  0  0  0  0
 53 51  1  1  0  0  0
 54 53  1  0  0  0  0
 54 55  1  0  0  0  0
 56 57  1  0  0  0  0
 58 57  1  0  0  0  0
 59 58  1  0  0  0  0
M  END
>  <MODEL>
8

>  <REMARK>
 VINA RESULT:      -4.4      3.746      9.511
  Name = 
  27 active torsions:
  status: ('A' for Active; 'I' for Inactive)
    1  A    between atoms: C_1  and  C_3
    2  A    between atoms: C_1  and  C_49
    3  A    between atoms: C_4  and  C_10
    4  A    between atoms: C_4  and  C_55
    5  A    between atoms: C_5  and  O_32
    6  A    between atoms: N_8  and  N_22
    7  A    between atoms: N_8  and  N_36
    8  A    between atoms: C_11  and  C_14
    9  A    between atoms: C_11  and  O_21
   10  A    between atoms: C_13  and  N_50
   11  A    between atoms: C_14  and  C_26
   12  A    between atoms: C_15  and  N_38
   13  A    between atoms: C_16  and  N_22
   14  A    between atoms: C_16  and  C_37
   15  A    between atoms: C_19  and  C_43
   16  A    between atoms: C_19  and  C_53
   17  A    between atoms: C_23  and  C_28
   18  A    between atoms: C_23  and  C_43
   19  A    between atoms: C_26  and  S_29
   20  A    between atoms: C_26  and  C_37
   21  A    between atoms: C_28  and  O_32
   22  A    between atoms: C_31  and  C_33
   23  A    between atoms: C_33  and  N_38
   24  A    between atoms: N_40  and  C_53
   25  A    between atoms: N_42  and  C_49
   26  A    between atoms: C_57  and  P_58
   27  A    between atoms: P_58  and  O_59
                            x       y       z     vdW  Elec       q    Type
                         _______ _______ _______ _____ _____    ______ ____

>  <TORSDO>
F 27

$$$$
=
 OpenBabel10222418153D

 59 61  0  0  1  0  0  0  0  0999 V2000
  190.5420  176.4930  139.7500 C   0  0  2  0  0  3  0  0  0  0  0  0
  191.8580  176.7020  137.5090 C   0  0  1  0  0  3  0  0  0  0  0  0
  191.8620  177.1760  139.8710 C   0  0  0  0  0  0  0  0  0  0  0  0
  190.5520  175.6150  138.1570 S   0  0  0  0  0  0  0  0  0  0  0  0
  192.7190  177.1730  138.6630 C   0  0  0  0  0  2  0  0  0  0  0  0
  192.2720  177.7340  140.9680 N   0  0  0  0  0  0  0  0  0  0  0  0
  193.9170  174.8440  138.1570 O   0  0  0  0  0  0  0  0  0  0  0  0
  193.6570  175.0260  136.9370 C   0  0  0  0  0  0  0  0  0  0  0  0
  194.3490  174.2830  135.9340 N   0  0  0  0  0  2  0  0  0  0  0  0
  192.6690  175.9790  136.5450 N   0  0  0  0  0  2  0  0  0  0  0  0
  195.4130  173.0350  137.7420 C   0  0  0  0  0  1  0  0  0  0  0  0
  195.4410  173.3760  136.2610 C   0  0  2  0  0  3  0  0  0  0  0  0
  196.7910  173.9580  135.8480 C   0  0  0  0  0  2  0  0  0  0  0  0
  197.6460  174.3420  137.0110 C   0  0  0  0  0  0  0  0  0  0  0  0
  197.9370  175.5460  137.2120 O   0  0  0  0  0  0  0  0  0  0  0  0
  198.1220  173.3580  137.8670 O   0  0  0  0  0  1  0  0  0  0  0  0
  189.5170  177.4450  139.7640 O   0  0  0  0  0  0  0  0  0  0  0  0
  188.6730  177.0940  138.7050 C   0  0  0  0  0  2  0  0  0  0  0  0
  189.0620  179.2370  137.5100 C   0  0  0  0  0  1  0  0  0  0  0  0
  187.9970  178.3360  138.1280 C   0  0  1  0  0  3  0  0  0  0  0  0
  186.9460  177.9480  137.0840 C   0  0  1  0  0  3  0  0  0  0  0  0
  187.6180  177.5020  135.7940 C   0  0  0  0  0  1  0  0  0  0  0  0
  186.0790  176.7990  137.5940 C   0  0  0  0  0  2  0  0  0  0  0  0
  185.8200  175.7660  136.5010 C   0  0  0  0  0  2  0  0  0  0  0  0
  184.9030  173.6310  137.3730 C   0  0  0  0  0  2  0  0  0  0  0  0
  182.1370  173.6700  137.6280 O   0  0  0  0  0  0  0  0  0  0  0  0
  184.6450  174.9530  136.8020 N   0  0  0  0  0  0  0  0  0  0  0  0
  184.1250  172.5530  136.6370 C   0  0  0  0  0  2  0  0  0  0  0  0
  183.3180  175.4590  136.5350 C   0  0  0  0  0  0  0  0  0  0  0  0
  183.1770  176.6720  136.2060 O   0  0  0  0  0  0  0  0  0  0  0  0
  182.7210  172.4380  137.2370 C   0  0  2  0  0  3  0  0  0  0  0  0
  182.1130  174.5420  136.5270 C   0  0  2  0  0  3  0  0  0  0  0  0
  179.2410  174.3530  136.6440 O   0  0  0  0  0  0  0  0  0  0  0  0
  180.4830  176.4070  137.6790 O   0  0  0  0  0  1  0  0  0  0  0  0
  180.5260  175.4500  136.5110 P   0  0  1  0  0  0  0  0  0  0  0  0
  179.1960  176.0060  134.5940 O   0  0  0  0  0  1  0  0  0  0  0  0
  180.3790  176.3300  135.0710 O   0  0  0  0  0  0  0  0  0  0  0  0
  181.7760  171.4800  136.4890 C   0  0  1  0  0  3  0  0  0  0  0  0
  180.5230  171.4910  137.0940 O   0  0  0  0  0  1  0  0  0  0  0  0
  181.6260  171.7960  135.0020 C   0  0  0  0  0  2  0  0  0  0  0  0
  180.2740  171.8460  134.6580 O   0  0  0  0  0  1  0  0  0  0  0  0
  191.4840  177.7490  142.1270 N   0  0  0  0  0  0  0  0  0  0  0  0
  191.6170  176.7880  143.1430 N   0  0  0  0  0  0  0  0  0  0  0  0
  191.0000  176.8560  144.4360 C   0  0  0  0  0  0  0  0  0  0  0  0
  191.7190  176.9710  145.5490 C   0  0  0  0  0  2  0  0  0  0  0  0
  189.5430  176.5460  144.5390 C   0  0  0  0  0  2  0  0  0  0  0  0
  188.6810  177.7900  144.3680 C   0  0  1  0  0  3  0  0  0  0  0  0
  186.2980  177.7610  143.1000 C   0  0  0  0  0  2  0  0  0  0  0  0
  187.8700  177.8200  142.7450 S   0  0  0  0  0  0  0  0  0  0  0  0
  185.3280  177.7820  142.0500 N   0  0  0  0  0  2  0  0  0  0  0  0
  184.6020  179.0440  142.1610 C   0  0  2  0  0  3  0  0  0  0  0  0
  183.7920  179.0430  143.4390 C   0  0  0  0  0  1  0  0  0  0  0  0
  183.6670  179.3360  140.9730 C   0  0  2  0  0  3  0  0  0  0  0  0
  182.5160  177.9490  140.5770 S   0  0  0  0  0  0  0  0  0  0  0  0
  184.0500  178.5840  139.7780 C   0  0  0  0  0  2  0  0  0  0  0  0
  187.6820  177.9310  145.5190 C   0  0  0  0  0  2  0  0  0  0  0  0
  188.2160  177.4400  146.8650 C   0  0  0  0  0  2  0  0  0  0  0  0
  187.2340  177.5580  147.8540 O   0  0  0  0  0  0  0  0  0  0  0  0
  186.7250  178.7600  147.6740 O   0  0  0  0  0  1  0  0  0  0  0  0
  1 17  1  6  0  0  0
  1  3  1  0  0  0  0
  2 10  1  6  0  0  0
  2  4  1  0  0  0  0
  2  5  1  0  0  0  0
  3  6  2  0  0  0  0
  4  1  1  0  0  0  0
  5  3  1  0  0  0  0
  6 42  1  0  0  0  0
  8  7  2  0  0  0  0
  9 12  1  0  0  0  0
  9  8  1  0  0  0  0
 10  8  1  0  0  0  0
 12 11  1  1  0  0  0
 13 12  1  0  0  0  0
 13 14  1  0  0  0  0
 14 15  2  0  0  0  0
 14 16  1  0  0  0  0
 18 17  1  0  0  0  0
 20 19  1  6  0  0  0
 20 18  1  0  0  0  0
 21 22  1  6  0  0  0
 21 23  1  0  0  0  0
 21 20  1  0  0  0  0
 24 27  1  0  0  0  0
 24 23  1  0  0  0  0
 27 25  1  0  0  0  0
 28 31  1  0  0  0  0
 28 25  1  0  0  0  0
 29 27  1  0  0  0  0
 30 29  2  0  0  0  0
 31 38  1  6  0  0  0
 31 26  1  0  0  0  0
 32 35  1  1  0  0  0
 32 29  1  0  0  0  0
 32 26  1  0  0  0  0
 35 33  2  1  0  0  0
 35 34  1  0  0  0  0
 36 37  1  0  0  0  0
 37 35  1  0  0  0  0
 38 39  1  1  0  0  0
 40 38  1  0  0  0  0
 41 40  1  0  0  0  0
 42 43  2  0  0  0  0
 43 44  1  0  0  0  0
 44 46  1  0  0  0  0
 44 45  2  0  0  0  0
 47 46  1  1  0  0  0
 47 56  1  0  0  0  0
 49 48  1  0  0  0  0
 49 47  1  0  0  0  0
 50 51  1  0  0  0  0
 50 48  1  0  0  0  0
 51 52  1  1  0  0  0
 53 51  1  1  0  0  0
 54 53  1  0  0  0  0
 55 54  1  0  0  0  0
 55 53  1  0  0  0  0
 56 57  1  0  0  0  0
 57 58  1  0  0  0  0
 59 58  1  0  0  0  0
M  END
>  <MODEL>
9

>  <REMARK>
 VINA RESULT:      -4.4      3.895     10.558
  Name = 
  27 active torsions:
  status: ('A' for Active; 'I' for Inactive)
    1  A    between atoms: C_1  and  C_3
    2  A    between atoms: C_1  and  C_49
    3  A    between atoms: C_4  and  C_10
    4  A    between atoms: C_4  and  C_55
    5  A    between atoms: C_5  and  O_32
    6  A    between atoms: N_8  and  N_22
    7  A    between atoms: N_8  and  N_36
    8  A    between atoms: C_11  and  C_14
    9  A    between atoms: C_11  and  O_21
   10  A    between atoms: C_13  and  N_50
   11  A    between atoms: C_14  and  C_26
   12  A    between atoms: C_15  and  N_38
   13  A    between atoms: C_16  and  N_22
   14  A    between atoms: C_16  and  C_37
   15  A    between atoms: C_19  and  C_43
   16  A    between atoms: C_19  and  C_53
   17  A    between atoms: C_23  and  C_28
   18  A    between atoms: C_23  and  C_43
   19  A    between atoms: C_26  and  S_29
   20  A    between atoms: C_26  and  C_37
   21  A    between atoms: C_28  and  O_32
   22  A    between atoms: C_31  and  C_33
   23  A    between atoms: C_33  and  N_38
   24  A    between atoms: N_40  and  C_53
   25  A    between atoms: N_42  and  C_49
   26  A    between atoms: C_57  and  P_58
   27  A    between atoms: P_58  and  O_59
                            x       y       z     vdW  Elec       q    Type
                         _______ _______ _______ _____ _____    ______ ____

>  <TORSDO>
F 27

$$$$
