=
 OpenBabel10222419333D

 39 45  0  0  1  0  0  0  0  0999 V2000
  182.7140  175.8640  136.9430 C   0  0  0  0  0  0  0  0  0  0  0  0
  180.4530  176.2430  135.4080 C   0  0  0  0  0  0  0  0  0  0  0  0
  182.3760  174.9330  135.9910 C   0  0  0  0  0  0  0  0  0  0  0  0
  180.8630  177.2360  136.3210 C   0  0  0  0  0  3  0  0  0  0  0  0
  185.1850  177.7040  137.9480 C   0  0  0  0  0  2  0  0  0  0  0  0
  185.0040  176.6010  136.9150 C   0  0  2  0  0  3  0  0  0  0  0  0
  182.5710  178.2460  137.9490 C   0  0  2  0  0  3  0  0  0  0  0  0
  184.4260  174.4440  136.5140 C   0  0  2  0  0  3  0  0  0  0  0  0
  179.2280  176.4500  134.5940 C   0  0  0  0  0  1  0  0  0  0  0  0
  186.7650  176.5800  135.3520 C   0  0  0  0  0  1  0  0  0  0  0  0
  182.0260  177.0740  137.1010 C   0  0  0  0  0  0  0  0  0  0  0  0
  183.4840  174.0920  135.6900 N   0  0  0  0  0  2  0  0  0  0  0  0
  183.8960  178.0080  138.7550 C   0  0  2  0  0  3  0  0  0  0  0  0
  184.0590  175.5440  137.4120 C   0  0  2  0  0  3  0  0  0  0  0  0
  186.2340  175.8980  136.5190 N   0  0  0  0  0  0  0  0  0  0  0  0
  185.7570  174.6450  136.0770 N   0  0  0  0  0  2  0  0  0  0  0  0
  181.2470  175.1030  135.1940 C   0  0  0  0  0  3  0  0  0  0  0  0
  184.1850  179.1140  139.7750 C   0  0  0  0  0  2  0  0  0  0  0  0
  185.4470  179.5140  141.7730 O   0  0  0  0  0  0  0  0  0  0  0  0
  183.4100  178.2190  141.9930 C   0  0  0  0  0  2  0  0  0  0  0  0
  186.0780  178.8300  142.8290 C   0  0  0  0  0  2  0  0  0  0  0  0
  184.6300  178.5690  141.1270 C   0  0  1  0  0  3  0  0  0  0  0  0
  183.6250  178.6120  143.4570 C   0  0  0  0  0  2  0  0  0  0  0  0
  185.0710  178.3680  143.8970 C   0  0  2  0  0  3  0  0  0  0  0  0
  185.5300  179.6180  146.1550 N   0  0  0  0  0  0  0  0  0  0  0  0
  185.3270  179.0660  145.1570 C   0  0  0  0  0  0  0  0  0  0  0  0
  181.5460  178.8730  138.8160 N   0  0  0  0  0  0  0  0  0  0  0  0
  179.6810  180.3500  138.5790 O   0  0  0  0  0  0  0  0  0  0  0  0
  181.0150  180.0970  138.1980 C   0  0  2  0  0  0  0  0  0  0  0  0
  181.8780  181.3170  138.4500 C   0  0  0  0  0  2  0  0  0  0  0  0
  180.6690  181.0370  139.3050 C   0  0  1  0  0  3  0  0  0  0  0  0
  180.4570  177.9290  139.0900 C   0  0  0  0  0  2  0  0  0  0  0  0
  180.3320  176.0620  140.5620 O   0  0  0  0  0  1  0  0  0  0  0  0
  180.5290  177.4430  140.5260 C   0  0  2  0  0  3  0  0  0  0  0  0
  179.4510  178.1400  141.3390 C   0  0  0  0  0  2  0  0  0  0  0  0
  179.9620  178.5080  142.7220 C   0  0  2  0  0  3  0  0  0  0  0  0
  179.5800  177.5310  143.6440 O   0  0  0  0  0  1  0  0  0  0  0  0
  179.9020  180.8630  142.7470 O   0  0  0  0  0  0  0  0  0  0  0  0
  179.3870  179.8240  143.1250 C   0  0  0  0  0  3  0  0  0  0  0  0
  1 11  1  0  0  0  0
  2  4  1  0  0  0  0
  3  1  2  0  0  0  0
  4 11  2  0  0  0  0
  5 13  1  0  0  0  0
  6 14  1  0  0  0  0
  6  5  1  1  0  0  0
  7 13  1  0  0  0  0
  7 27  1  1  0  0  0
  8 12  1  6  0  0  0
  8 14  1  0  0  0  0
  9  2  1  0  0  0  0
 10 15  1  0  0  0  0
 11  7  1  0  0  0  0
 12  3  1  0  0  0  0
 13 18  1  6  0  0  0
 14  1  1  6  0  0  0
 15  6  1  0  0  0  0
 16  8  1  0  0  0  0
 16 15  1  0  0  0  0
 17  2  2  0  0  0  0
 17  3  1  0  0  0  0
 19 21  1  0  0  0  0
 20 23  1  0  0  0  0
 21 24  1  0  0  0  0
 22 18  1  6  0  0  0
 22 19  1  0  0  0  0
 22 20  1  0  0  0  0
 23 24  1  0  0  0  0
 24 26  1  1  0  0  0
 26 25  3  0  0  0  0
 27 32  1  0  0  0  0
 28 31  1  0  0  0  0
 29 30  1  0  0  0  0
 29 28  1  0  0  0  0
 29 27  1  1  0  0  0
 29 31  1  0  0  0  0
 31 30  1  6  0  0  0
 32 34  1  0  0  0  0
 34 33  1  6  0  0  0
 34 35  1  0  0  0  0
 35 36  1  0  0  0  0
 36 39  1  0  0  0  0
 36 37  1  1  0  0  0
 38 39  2  0  0  0  0
M  END
>  <MODEL>
1

>  <REMARK>
 VINA RESULT:      -5.8      0.000      0.000
  Name = 
  10 active torsions:
  status: ('A' for Active; 'I' for Inactive)
    1  A    between atoms: C_1  and  C_13
    2  A    between atoms: C_1  and  C_33
    3  A    between atoms: C_6  and  N_11
    4  A    between atoms: C_8  and  C_17
    5  A    between atoms: C_8  and  C_37
    6  A    between atoms: N_11  and  C_14
    7  A    between atoms: N_11  and  C_19
    8  A    between atoms: C_14  and  C_37
    9  A    between atoms: C_17  and  C_32
   10  A    between atoms: C_23  and  C_35
                            x       y       z     vdW  Elec       q    Type
                         _______ _______ _______ _____ _____    ______ ____

>  <TORSDO>
F 10

$$$$
=
 OpenBabel10222419333D

 39 45  0  0  1  0  0  0  0  0999 V2000
  184.6260  178.3080  139.2280 C   0  0  0  0  0  0  0  0  0  0  0  0
  184.6260  178.4950  141.9800 C   0  0  0  0  0  0  0  0  0  0  0  0
  185.7720  178.6880  139.8820 C   0  0  0  0  0  0  0  0  0  0  0  0
  183.4850  178.0150  141.3030 C   0  0  0  0  0  3  0  0  0  0  0  0
  183.5200  176.1950  137.0340 C   0  0  0  0  0  2  0  0  0  0  0  0
  184.8890  176.5740  137.5810 C   0  0  2  0  0  3  0  0  0  0  0  0
  182.2930  177.1840  139.1880 C   0  0  2  0  0  3  0  0  0  0  0  0
  186.4370  178.2070  137.8720 C   0  0  2  0  0  3  0  0  0  0  0  0
  184.6120  178.6020  143.4620 C   0  0  0  0  0  1  0  0  0  0  0  0
  186.4980  174.9190  137.1160 C   0  0  0  0  0  1  0  0  0  0  0  0
  183.4690  177.8910  139.8990 C   0  0  0  0  0  0  0  0  0  0  0  0
  186.9070  178.5560  139.0330 N   0  0  0  0  0  2  0  0  0  0  0  0
  182.3650  177.0420  137.6270 C   0  0  2  0  0  3  0  0  0  0  0  0
  184.9790  178.0520  137.8340 C   0  0  2  0  0  3  0  0  0  0  0  0
  186.0310  176.2360  136.7180 N   0  0  0  0  0  0  0  0  0  0  0  0
  187.0200  177.1580  137.1210 N   0  0  0  0  0  2  0  0  0  0  0  0
  185.8050  178.7800  141.2710 C   0  0  0  0  0  3  0  0  0  0  0  0
  181.0380  176.5970  137.0030 C   0  0  0  0  0  2  0  0  0  0  0  0
  180.7930  174.2460  137.3980 O   0  0  0  0  0  0  0  0  0  0  0  0
  180.1500  175.0720  135.2110 C   0  0  0  0  0  2  0  0  0  0  0  0
  181.1940  172.9990  136.8840 C   0  0  0  0  0  2  0  0  0  0  0  0
  181.1060  175.1960  136.4090 C   0  0  1  0  0  3  0  0  0  0  0  0
  179.4380  173.7170  135.1950 C   0  0  0  0  0  2  0  0  0  0  0  0
  180.3650  172.5900  135.6530 C   0  0  2  0  0  3  0  0  0  0  0  0
  178.9520  170.4510  136.2020 N   0  0  0  0  0  0  0  0  0  0  0  0
  179.5760  171.3960  135.9600 C   0  0  0  0  0  0  0  0  0  0  0  0
  180.9630  177.6940  139.5980 N   0  0  0  0  0  0  0  0  0  0  0  0
  179.7040  177.7000  141.6300 O   0  0  0  0  0  0  0  0  0  0  0  0
  180.4210  176.9040  140.7130 C   0  0  2  0  0  0  0  0  0  0  0  0
  179.5770  175.7290  140.2590 C   0  0  0  0  0  2  0  0  0  0  0  0
  178.9340  177.0310  140.6640 C   0  0  1  0  0  3  0  0  0  0  0  0
  181.0480  179.1090  139.9730 C   0  0  0  0  0  2  0  0  0  0  0  0
  179.5020  179.1880  138.1640 O   0  0  0  0  0  1  0  0  0  0  0  0
  180.3650  179.9740  138.9290 C   0  0  2  0  0  3  0  0  0  0  0  0
  181.4240  180.5990  138.0360 C   0  0  0  0  0  2  0  0  0  0  0  0
  181.0470  182.0220  137.6570 C   0  0  2  0  0  3  0  0  0  0  0  0
  180.0370  182.4870  138.5030 O   0  0  0  0  0  1  0  0  0  0  0  0
  180.2110  183.0920  135.7320 O   0  0  0  0  0  0  0  0  0  0  0  0
  180.5630  182.0440  136.2470 C   0  0  0  0  0  3  0  0  0  0  0  0
  1  3  2  0  0  0  0
  1 11  1  0  0  0  0
  2  9  1  0  0  0  0
  3 17  1  0  0  0  0
  4  2  1  0  0  0  0
  5 13  1  0  0  0  0
  6  5  1  6  0  0  0
  6 14  1  0  0  0  0
  7 27  1  6  0  0  0
  7 11  1  0  0  0  0
  8 16  1  1  0  0  0
  8 12  1  0  0  0  0
 11  4  2  0  0  0  0
 12  3  1  0  0  0  0
 13 18  1  1  0  0  0
 13  7  1  0  0  0  0
 14  8  1  0  0  0  0
 14  1  1  1  0  0  0
 15 10  1  0  0  0  0
 15 16  1  0  0  0  0
 15  6  1  0  0  0  0
 17  2  2  0  0  0  0
 20 22  1  0  0  0  0
 21 19  1  0  0  0  0
 22 18  1  1  0  0  0
 22 19  1  0  0  0  0
 23 20  1  0  0  0  0
 23 24  1  0  0  0  0
 24 26  1  1  0  0  0
 24 21  1  0  0  0  0
 26 25  3  0  0  0  0
 27 32  1  0  0  0  0
 29 27  1  6  0  0  0
 29 28  1  0  0  0  0
 30 29  1  0  0  0  0
 31 30  1  1  0  0  0
 31 29  1  0  0  0  0
 31 28  1  0  0  0  0
 34 33  1  6  0  0  0
 34 32  1  0  0  0  0
 35 34  1  0  0  0  0
 36 35  1  0  0  0  0
 36 37  1  1  0  0  0
 38 39  2  0  0  0  0
 39 36  1  0  0  0  0
M  END
>  <MODEL>
2

>  <REMARK>
 VINA RESULT:      -5.5      2.208      6.649
  Name = 
  10 active torsions:
  status: ('A' for Active; 'I' for Inactive)
    1  A    between atoms: C_1  and  C_13
    2  A    between atoms: C_1  and  C_33
    3  A    between atoms: C_6  and  N_11
    4  A    between atoms: C_8  and  C_17
    5  A    between atoms: C_8  and  C_37
    6  A    between atoms: N_11  and  C_14
    7  A    between atoms: N_11  and  C_19
    8  A    between atoms: C_14  and  C_37
    9  A    between atoms: C_17  and  C_32
   10  A    between atoms: C_23  and  C_35
                            x       y       z     vdW  Elec       q    Type
                         _______ _______ _______ _____ _____    ______ ____

>  <TORSDO>
F 10

$$$$
=
 OpenBabel10222419333D

 39 45  0  0  1  0  0  0  0  0999 V2000
  181.3530  179.8080  138.0930 C   0  0  0  0  0  0  0  0  0  0  0  0
  180.5140  178.4720  135.8300 C   0  0  0  0  0  0  0  0  0  0  0  0
  180.3810  180.3640  137.2980 C   0  0  0  0  0  0  0  0  0  0  0  0
  181.4410  177.8690  136.7050 C   0  0  0  0  0  3  0  0  0  0  0  0
  181.9850  179.0120  141.1700 C   0  0  0  0  0  2  0  0  0  0  0  0
  180.8690  179.7540  140.4490 C   0  0  2  0  0  3  0  0  0  0  0  0
  182.7270  177.7760  138.9240 C   0  0  2  0  0  3  0  0  0  0  0  0
  180.2890  181.5130  139.1380 C   0  0  2  0  0  3  0  0  0  0  0  0
  180.0770  177.7500  134.6070 C   0  0  0  0  0  1  0  0  0  0  0  0
  178.9310  179.9090  141.7780 C   0  0  0  0  0  1  0  0  0  0  0  0
  181.8680  178.5230  137.8780 C   0  0  0  0  0  0  0  0  0  0  0  0
  179.6820  181.3900  137.9950 N   0  0  0  0  0  2  0  0  0  0  0  0
  183.1270  178.5530  140.2270 C   0  0  2  0  0  3  0  0  0  0  0  0
  181.4130  180.5900  139.3250 C   0  0  2  0  0  3  0  0  0  0  0  0
  180.0710  180.6630  141.2860 N   0  0  0  0  0  0  0  0  0  0  0  0
  179.5700  181.5970  140.3550 N   0  0  0  0  0  2  0  0  0  0  0  0
  179.9300  179.7080  136.1550 C   0  0  0  0  0  3  0  0  0  0  0  0
  184.2040  177.8350  141.0470 C   0  0  0  0  0  2  0  0  0  0  0  0
  183.7930  178.3160  143.3590 O   0  0  0  0  0  0  0  0  0  0  0  0
  186.1020  178.3240  142.6220 C   0  0  0  0  0  2  0  0  0  0  0  0
  184.0290  179.3040  144.3340 C   0  0  0  0  0  2  0  0  0  0  0  0
  184.6350  178.6260  142.2760 C   0  0  1  0  0  3  0  0  0  0  0  0
  186.3140  178.2120  144.1350 C   0  0  0  0  0  2  0  0  0  0  0  0
  185.4580  179.2260  144.8980 C   0  0  2  0  0  3  0  0  0  0  0  0
  185.3790  178.5800  147.4370 N   0  0  0  0  0  0  0  0  0  0  0  0
  185.4140  178.8650  146.3150 C   0  0  0  0  0  0  0  0  0  0  0  0
  183.9120  177.1030  138.3410 N   0  0  0  0  0  0  0  0  0  0  0  0
  184.1540  176.0600  136.2040 O   0  0  0  0  0  0  0  0  0  0  0  0
  183.5060  176.0030  137.4550 C   0  0  2  0  0  0  0  0  0  0  0  0
  183.6830  174.6340  138.0810 C   0  0  0  0  0  2  0  0  0  0  0  0
  184.7290  175.2010  137.1550 C   0  0  1  0  0  3  0  0  0  0  0  0
  184.7420  178.0660  137.6080 C   0  0  0  0  0  2  0  0  0  0  0  0
  186.5030  178.7740  139.0450 O   0  0  0  0  0  1  0  0  0  0  0  0
  186.2010  177.9060  137.9940 C   0  0  2  0  0  3  0  0  0  0  0  0
  187.0690  178.2300  136.7900 C   0  0  0  0  0  2  0  0  0  0  0  0
  188.2680  177.2990  136.7150 C   0  0  2  0  0  3  0  0  0  0  0  0
  188.0310  176.1590  137.4870 O   0  0  0  0  0  1  0  0  0  0  0  0
  189.9340  177.7250  138.3250 O   0  0  0  0  0  0  0  0  0  0  0  0
  189.4740  178.0070  137.2310 C   0  0  0  0  0  3  0  0  0  0  0  0
  2 17  2  0  0  0  0
  2  4  1  0  0  0  0
  3 12  1  0  0  0  0
  3  1  2  0  0  0  0
  4 11  2  0  0  0  0
  6  5  1  1  0  0  0
  6 15  1  0  0  0  0
  7 27  1  6  0  0  0
  7 13  1  0  0  0  0
  8 12  1  6  0  0  0
  8 14  1  0  0  0  0
  8 16  1  0  0  0  0
  9  2  1  0  0  0  0
 11  1  1  0  0  0  0
 11  7  1  0  0  0  0
 13 18  1  1  0  0  0
 13  5  1  0  0  0  0
 14  1  1  6  0  0  0
 14  6  1  0  0  0  0
 15 10  1  0  0  0  0
 16 15  1  0  0  0  0
 17  3  1  0  0  0  0
 19 21  1  0  0  0  0
 20 23  1  0  0  0  0
 21 24  1  0  0  0  0
 22 18  1  6  0  0  0
 22 20  1  0  0  0  0
 22 19  1  0  0  0  0
 23 24  1  0  0  0  0
 24 26  1  1  0  0  0
 26 25  3  0  0  0  0
 28 31  1  0  0  0  0
 28 29  1  0  0  0  0
 29 30  1  0  0  0  0
 29 27  1  1  0  0  0
 31 29  1  0  0  0  0
 31 30  1  6  0  0  0
 32 34  1  0  0  0  0
 32 27  1  0  0  0  0
 34 33  1  1  0  0  0
 35 34  1  0  0  0  0
 36 35  1  0  0  0  0
 36 39  1  0  0  0  0
 36 37  1  1  0  0  0
 39 38  2  0  0  0  0
M  END
>  <MODEL>
3

>  <REMARK>
 VINA RESULT:      -5.4      2.423      6.269
  Name = 
  10 active torsions:
  status: ('A' for Active; 'I' for Inactive)
    1  A    between atoms: C_1  and  C_13
    2  A    between atoms: C_1  and  C_33
    3  A    between atoms: C_6  and  N_11
    4  A    between atoms: C_8  and  C_17
    5  A    between atoms: C_8  and  C_37
    6  A    between atoms: N_11  and  C_14
    7  A    between atoms: N_11  and  C_19
    8  A    between atoms: C_14  and  C_37
    9  A    between atoms: C_17  and  C_32
   10  A    between atoms: C_23  and  C_35
                            x       y       z     vdW  Elec       q    Type
                         _______ _______ _______ _____ _____    ______ ____

>  <TORSDO>
F 10

$$$$
=
 OpenBabel10222419333D

 39 45  0  0  1  0  0  0  0  0999 V2000
  183.3680  179.1660  142.6190 C   0  0  0  0  0  0  0  0  0  0  0  0
  180.7720  178.2610  142.8540 C   0  0  0  0  0  0  0  0  0  0  0  0
  182.7640  179.1460  143.8530 C   0  0  0  0  0  0  0  0  0  0  0  0
  181.4340  178.1970  141.6110 C   0  0  0  0  0  3  0  0  0  0  0  0
  186.0450  178.1960  141.0720 C   0  0  0  0  0  2  0  0  0  0  0  0
  185.5670  178.1970  142.5170 C   0  0  2  0  0  3  0  0  0  0  0  0
  183.5430  178.3780  140.1590 C   0  0  2  0  0  3  0  0  0  0  0  0
  184.8720  179.4280  144.2920 C   0  0  2  0  0  3  0  0  0  0  0  0
  179.3700  177.7820  142.9680 C   0  0  0  0  0  1  0  0  0  0  0  0
  186.8180  176.7080  143.8450 C   0  0  0  0  0  1  0  0  0  0  0  0
  182.7670  178.6340  141.4710 C   0  0  0  0  0  0  0  0  0  0  0  0
  183.7330  179.2480  144.8920 N   0  0  0  0  0  2  0  0  0  0  0  0
  185.0380  178.8520  140.0920 C   0  0  2  0  0  3  0  0  0  0  0  0
  184.7860  179.4420  142.8280 C   0  0  2  0  0  3  0  0  0  0  0  0
  186.6270  178.1140  143.5340 N   0  0  0  0  0  0  0  0  0  0  0  0
  186.0300  178.7050  144.6670 N   0  0  0  0  0  2  0  0  0  0  0  0
  181.4590  178.6850  144.0040 C   0  0  0  0  0  3  0  0  0  0  0  0
  185.6160  178.8160  138.6730 C   0  0  0  0  0  2  0  0  0  0  0  0
  186.5300  177.0280  137.3670 O   0  0  0  0  0  0  0  0  0  0  0  0
  188.1030  178.5180  138.4550 C   0  0  0  0  0  2  0  0  0  0  0  0
  187.3990  175.9250  137.4710 C   0  0  0  0  0  2  0  0  0  0  0  0
  186.7430  177.8030  138.5210 C   0  0  1  0  0  3  0  0  0  0  0  0
  189.0320  177.8700  137.4240 C   0  0  0  0  0  2  0  0  0  0  0  0
  188.8770  176.3480  137.4070 C   0  0  2  0  0  3  0  0  0  0  0  0
  189.9900  175.3720  135.2430 N   0  0  0  0  0  0  0  0  0  0  0  0
  189.4980  175.8030  136.1990 C   0  0  0  0  0  0  0  0  0  0  0  0
  182.8100  178.8140  138.9460 N   0  0  0  0  0  0  0  0  0  0  0  0
  181.1840  178.1000  137.3460 O   0  0  0  0  0  0  0  0  0  0  0  0
  182.1100  177.6800  138.3240 C   0  0  2  0  0  0  0  0  0  0  0  0
  183.0490  176.6380  137.7510 C   0  0  0  0  0  2  0  0  0  0  0  0
  182.4430  177.6990  136.8690 C   0  0  1  0  0  3  0  0  0  0  0  0
  181.8590  179.8800  139.2750 C   0  0  0  0  0  2  0  0  0  0  0  0
  183.3470  181.6430  138.6870 O   0  0  0  0  0  1  0  0  0  0  0  0
  182.0990  181.0920  138.3940 C   0  0  2  0  0  3  0  0  0  0  0  0
  181.0070  182.1160  138.6530 C   0  0  0  0  0  2  0  0  0  0  0  0
  180.4150  182.6250  137.3490 C   0  0  2  0  0  3  0  0  0  0  0  0
  180.8930  181.8620  136.2810 O   0  0  0  0  0  1  0  0  0  0  0  0
  181.9810  184.3770  137.1790 O   0  0  0  0  0  0  0  0  0  0  0  0
  180.8060  184.0510  137.1560 C   0  0  0  0  0  3  0  0  0  0  0  0
  1  3  1  0  0  0  0
  2  9  1  0  0  0  0
  2 17  1  0  0  0  0
  3 17  2  0  0  0  0
  3 12  1  0  0  0  0
  4  2  2  0  0  0  0
  6  5  1  6  0  0  0
  6 14  1  0  0  0  0
  6 15  1  0  0  0  0
  7 27  1  6  0  0  0
  7 11  1  0  0  0  0
  8 16  1  6  0  0  0
  8 12  1  0  0  0  0
 11  4  1  0  0  0  0
 11  1  2  0  0  0  0
 13 18  1  6  0  0  0
 13  7  1  0  0  0  0
 13  5  1  0  0  0  0
 14  1  1  1  0  0  0
 14  8  1  0  0  0  0
 15 10  1  0  0  0  0
 15 16  1  0  0  0  0
 19 21  1  0  0  0  0
 19 22  1  0  0  0  0
 20 22  1  0  0  0  0
 22 18  1  6  0  0  0
 23 20  1  0  0  0  0
 24 26  1  6  0  0  0
 24 23  1  0  0  0  0
 24 21  1  0  0  0  0
 25 26  3  0  0  0  0
 27 32  1  0  0  0  0
 28 29  1  0  0  0  0
 29 27  1  1  0  0  0
 30 29  1  0  0  0  0
 31 28  1  0  0  0  0
 31 30  1  6  0  0  0
 31 29  1  0  0  0  0
 34 35  1  0  0  0  0
 34 33  1  1  0  0  0
 34 32  1  0  0  0  0
 36 37  1  6  0  0  0
 36 35  1  0  0  0  0
 39 38  2  0  0  0  0
 39 36  1  0  0  0  0
M  END
>  <MODEL>
4

>  <REMARK>
 VINA RESULT:      -5.3      2.704      6.790
  Name = 
  10 active torsions:
  status: ('A' for Active; 'I' for Inactive)
    1  A    between atoms: C_1  and  C_13
    2  A    between atoms: C_1  and  C_33
    3  A    between atoms: C_6  and  N_11
    4  A    between atoms: C_8  and  C_17
    5  A    between atoms: C_8  and  C_37
    6  A    between atoms: N_11  and  C_14
    7  A    between atoms: N_11  and  C_19
    8  A    between atoms: C_14  and  C_37
    9  A    between atoms: C_17  and  C_32
   10  A    between atoms: C_23  and  C_35
                            x       y       z     vdW  Elec       q    Type
                         _______ _______ _______ _____ _____    ______ ____

>  <TORSDO>
F 10

$$$$
=
 OpenBabel10222419333D

 39 45  0  0  1  0  0  0  0  0999 V2000
  189.4290  176.7930  136.8200 C   0  0  0  0  0  0  0  0  0  0  0  0
  190.7880  174.4220  136.4420 C   0  0  0  0  0  0  0  0  0  0  0  0
  189.5160  176.2540  135.5590 C   0  0  0  0  0  0  0  0  0  0  0  0
  190.6100  174.9360  137.7430 C   0  0  0  0  0  3  0  0  0  0  0  0
  187.2850  177.9360  138.9650 C   0  0  0  0  0  2  0  0  0  0  0  0
  187.2280  177.4690  137.5180 C   0  0  2  0  0  3  0  0  0  0  0  0
  189.5450  176.5830  139.3990 C   0  0  2  0  0  3  0  0  0  0  0  0
  187.9640  177.7630  135.3910 C   0  0  2  0  0  3  0  0  0  0  0  0
  191.5310  173.1500  136.2470 C   0  0  0  0  0  1  0  0  0  0  0  0
  185.0230  176.9820  136.8500 C   0  0  0  0  0  1  0  0  0  0  0  0
  189.9020  176.1350  137.9630 C   0  0  0  0  0  0  0  0  0  0  0  0
  188.5440  176.8320  134.6940 N   0  0  0  0  0  2  0  0  0  0  0  0
  188.7150  177.9040  139.5640 C   0  0  2  0  0  3  0  0  0  0  0  0
  188.4610  177.8850  136.7650 C   0  0  2  0  0  3  0  0  0  0  0  0
  186.0850  177.9670  136.7370 N   0  0  0  0  0  0  0  0  0  0  0  0
  186.5550  177.9080  135.4080 N   0  0  0  0  0  2  0  0  0  0  0  0
  190.1850  175.0530  135.3400 C   0  0  0  0  0  3  0  0  0  0  0  0
  188.6690  178.4070  141.0110 C   0  0  0  0  0  2  0  0  0  0  0  0
  187.5530  178.0740  143.1060 O   0  0  0  0  0  0  0  0  0  0  0  0
  186.2570  179.0560  141.3080 C   0  0  0  0  0  2  0  0  0  0  0  0
  186.4270  177.4370  143.6620 C   0  0  0  0  0  2  0  0  0  0  0  0
  187.3600  178.0640  141.7130 C   0  0  1  0  0  3  0  0  0  0  0  0
  185.3750  179.4370  142.5000 C   0  0  0  0  0  2  0  0  0  0  0  0
  185.1370  178.2420  143.4270 C   0  0  2  0  0  3  0  0  0  0  0  0
  184.1790  179.0790  145.7180 N   0  0  0  0  0  0  0  0  0  0  0  0
  184.6020  178.7100  144.7060 C   0  0  0  0  0  0  0  0  0  0  0  0
  190.7050  176.5850  140.3210 N   0  0  0  0  0  0  0  0  0  0  0  0
  192.3640  178.1980  140.9230 O   0  0  0  0  0  0  0  0  0  0  0  0
  191.7420  177.5180  139.8560 C   0  0  2  0  0  0  0  0  0  0  0  0
  192.7820  176.8630  138.9680 C   0  0  0  0  0  2  0  0  0  0  0  0
  193.0390  177.0650  140.4400 C   0  0  1  0  0  3  0  0  0  0  0  0
  190.2810  176.9350  141.6800 C   0  0  0  0  0  2  0  0  0  0  0  0
  189.2780  175.4070  143.2070 O   0  0  0  0  0  1  0  0  0  0  0  0
  190.4930  175.7600  142.6180 C   0  0  2  0  0  3  0  0  0  0  0  0
  191.4920  176.1600  143.6920 C   0  0  0  0  0  2  0  0  0  0  0  0
  190.9840  177.3470  144.4940 C   0  0  2  0  0  3  0  0  0  0  0  0
  191.8280  178.4440  144.3040 O   0  0  0  0  0  1  0  0  0  0  0  0
  191.9940  176.7610  146.5400 O   0  0  0  0  0  0  0  0  0  0  0  0
  190.9560  176.9870  145.9410 C   0  0  0  0  0  3  0  0  0  0  0  0
  1 11  1  0  0  0  0
  2  4  1  0  0  0  0
  3  1  2  0  0  0  0
  4 11  2  0  0  0  0
  5 13  1  0  0  0  0
  6  5  1  1  0  0  0
  7 13  1  0  0  0  0
  7 27  1  1  0  0  0
  8 12  1  1  0  0  0
  8 16  1  0  0  0  0
  8 14  1  0  0  0  0
  9  2  1  0  0  0  0
 11  7  1  0  0  0  0
 12  3  1  0  0  0  0
 13 18  1  1  0  0  0
 14  1  1  6  0  0  0
 14  6  1  0  0  0  0
 15 10  1  0  0  0  0
 15  6  1  0  0  0  0
 16 15  1  0  0  0  0
 17  3  1  0  0  0  0
 17  2  2  0  0  0  0
 19 21  1  0  0  0  0
 20 22  1  0  0  0  0
 20 23  1  0  0  0  0
 22 18  1  6  0  0  0
 22 19  1  0  0  0  0
 23 24  1  0  0  0  0
 24 21  1  0  0  0  0
 24 26  1  1  0  0  0
 26 25  3  0  0  0  0
 27 32  1  0  0  0  0
 29 27  1  1  0  0  0
 29 31  1  0  0  0  0
 29 28  1  0  0  0  0
 30 29  1  0  0  0  0
 31 30  1  6  0  0  0
 31 28  1  0  0  0  0
 32 34  1  0  0  0  0
 34 33  1  1  0  0  0
 34 35  1  0  0  0  0
 35 36  1  0  0  0  0
 36 37  1  1  0  0  0
 36 39  1  0  0  0  0
 39 38  2  0  0  0  0
M  END
>  <MODEL>
5

>  <REMARK>
 VINA RESULT:      -5.2      4.472      8.208
  Name = 
  10 active torsions:
  status: ('A' for Active; 'I' for Inactive)
    1  A    between atoms: C_1  and  C_13
    2  A    between atoms: C_1  and  C_33
    3  A    between atoms: C_6  and  N_11
    4  A    between atoms: C_8  and  C_17
    5  A    between atoms: C_8  and  C_37
    6  A    between atoms: N_11  and  C_14
    7  A    between atoms: N_11  and  C_19
    8  A    between atoms: C_14  and  C_37
    9  A    between atoms: C_17  and  C_32
   10  A    between atoms: C_23  and  C_35
                            x       y       z     vdW  Elec       q    Type
                         _______ _______ _______ _____ _____    ______ ____

>  <TORSDO>
F 10

$$$$
=
 OpenBabel10222419333D

 39 45  0  0  1  0  0  0  0  0999 V2000
  181.5960  177.4480  139.7280 C   0  0  0  0  0  0  0  0  0  0  0  0
  180.1090  175.1240  139.7250 C   0  0  0  0  0  0  0  0  0  0  0  0
  180.5720  177.2960  140.6310 C   0  0  0  0  0  0  0  0  0  0  0  0
  181.2220  175.2530  138.8690 C   0  0  0  0  0  3  0  0  0  0  0  0
  184.7410  178.2050  139.5400 C   0  0  0  0  0  2  0  0  0  0  0  0
  183.6920  178.1960  140.6420 C   0  0  2  0  0  3  0  0  0  0  0  0
  183.3330  176.4770  138.0710 C   0  0  2  0  0  3  0  0  0  0  0  0
  181.7000  178.9930  141.3810 C   0  0  2  0  0  3  0  0  0  0  0  0
  179.3080  173.8730  139.7090 C   0  0  0  0  0  1  0  0  0  0  0  0
  184.6780  178.2460  142.7800 C   0  0  0  0  0  1  0  0  0  0  0  0
  182.0090  176.4230  138.8670 C   0  0  0  0  0  0  0  0  0  0  0  0
  180.6920  178.2340  141.6950 N   0  0  0  0  0  2  0  0  0  0  0  0
  184.1800  177.7950  138.1530 C   0  0  2  0  0  3  0  0  0  0  0  0
  182.3530  178.6340  140.1180 C   0  0  2  0  0  3  0  0  0  0  0  0
  183.9810  179.0590  141.7980 N   0  0  0  0  0  0  0  0  0  0  0  0
  182.7000  179.3260  142.3260 N   0  0  0  0  0  2  0  0  0  0  0  0
  179.8120  176.1290  140.6610 C   0  0  0  0  0  3  0  0  0  0  0  0
  185.3040  177.8520  137.1150 C   0  0  0  0  0  2  0  0  0  0  0  0
  187.3040  176.7620  137.8600 O   0  0  0  0  0  0  0  0  0  0  0  0
  187.5430  178.9800  136.9090 C   0  0  0  0  0  2  0  0  0  0  0  0
  188.3950  176.9450  138.7320 C   0  0  0  0  0  2  0  0  0  0  0  0
  186.6820  178.0180  137.7450 C   0  0  1  0  0  3  0  0  0  0  0  0
  188.9940  178.5010  136.8150 C   0  0  0  0  0  2  0  0  0  0  0  0
  189.4640  177.8730  138.1290 C   0  0  2  0  0  3  0  0  0  0  0  0
  191.6800  176.5330  137.7240 N   0  0  0  0  0  0  0  0  0  0  0  0
  190.7010  177.1250  137.9030 C   0  0  0  0  0  0  0  0  0  0  0  0
  183.1920  176.0420  136.6620 N   0  0  0  0  0  0  0  0  0  0  0  0
  182.8250  174.0080  135.4600 O   0  0  0  0  0  0  0  0  0  0  0  0
  183.5310  174.6180  136.5170 C   0  0  2  0  0  0  0  0  0  0  0  0
  185.0200  174.3700  136.3720 C   0  0  0  0  0  2  0  0  0  0  0  0
  184.1270  174.4420  135.1590 C   0  0  1  0  0  3  0  0  0  0  0  0
  181.8290  176.2900  136.1810 C   0  0  0  0  0  2  0  0  0  0  0  0
  183.0460  177.5820  134.5940 O   0  0  0  0  0  1  0  0  0  0  0  0
  181.8110  177.4760  135.2350 C   0  0  2  0  0  3  0  0  0  0  0  0
  181.5330  178.7400  136.0320 C   0  0  0  0  0  2  0  0  0  0  0  0
  180.0750  179.1520  135.9120 C   0  0  2  0  0  3  0  0  0  0  0  0
  179.9890  180.4680  135.4520 O   0  0  0  0  0  1  0  0  0  0  0  0
  179.4460  179.9940  138.0200 O   0  0  0  0  0  0  0  0  0  0  0  0
  179.4230  179.0490  137.2490 C   0  0  0  0  0  3  0  0  0  0  0  0
  1  3  1  0  0  0  0
  2 17  1  0  0  0  0
  3 17  2  0  0  0  0
  3 12  1  0  0  0  0
  4  2  2  0  0  0  0
  6  5  1  6  0  0  0
  6 15  1  0  0  0  0
  7 27  1  6  0  0  0
  7 13  1  0  0  0  0
  7 11  1  0  0  0  0
  8 12  1  1  0  0  0
  8 16  1  0  0  0  0
  9  2  1  0  0  0  0
 11  4  1  0  0  0  0
 11  1  2  0  0  0  0
 13 18  1  6  0  0  0
 13  5  1  0  0  0  0
 14  1  1  1  0  0  0
 14  6  1  0  0  0  0
 14  8  1  0  0  0  0
 15 16  1  0  0  0  0
 15 10  1  0  0  0  0
 19 21  1  0  0  0  0
 20 22  1  0  0  0  0
 22 18  1  6  0  0  0
 22 19  1  0  0  0  0
 23 20  1  0  0  0  0
 23 24  1  0  0  0  0
 24 26  1  6  0  0  0
 24 21  1  0  0  0  0
 25 26  3  0  0  0  0
 28 29  1  0  0  0  0
 29 27  1  1  0  0  0
 30 29  1  0  0  0  0
 31 28  1  0  0  0  0
 31 30  1  1  0  0  0
 31 29  1  0  0  0  0
 32 27  1  0  0  0  0
 34 33  1  1  0  0  0
 34 35  1  0  0  0  0
 34 32  1  0  0  0  0
 36 37  1  1  0  0  0
 36 35  1  0  0  0  0
 36 39  1  0  0  0  0
 39 38  2  0  0  0  0
M  END
>  <MODEL>
6

>  <REMARK>
 VINA RESULT:      -4.9      2.876      6.155
  Name = 
  10 active torsions:
  status: ('A' for Active; 'I' for Inactive)
    1  A    between atoms: C_1  and  C_13
    2  A    between atoms: C_1  and  C_33
    3  A    between atoms: C_6  and  N_11
    4  A    between atoms: C_8  and  C_17
    5  A    between atoms: C_8  and  C_37
    6  A    between atoms: N_11  and  C_14
    7  A    between atoms: N_11  and  C_19
    8  A    between atoms: C_14  and  C_37
    9  A    between atoms: C_17  and  C_32
   10  A    between atoms: C_23  and  C_35
                            x       y       z     vdW  Elec       q    Type
                         _______ _______ _______ _____ _____    ______ ____

>  <TORSDO>
F 10

$$$$
=
 OpenBabel10222419333D

 39 45  0  0  1  0  0  0  0  0999 V2000
  187.5190  177.3930  142.4270 C   0  0  0  0  0  0  0  0  0  0  0  0
  190.2750  177.5010  142.3780 C   0  0  0  0  0  0  0  0  0  0  0  0
  188.2310  177.0850  143.5610 C   0  0  0  0  0  0  0  0  0  0  0  0
  189.5310  177.9060  141.2510 C   0  0  0  0  0  3  0  0  0  0  0  0
  185.0930  179.2600  141.3650 C   0  0  0  0  0  2  0  0  0  0  0  0
  185.7020  178.9410  142.7230 C   0  0  2  0  0  3  0  0  0  0  0  0
  187.3180  178.5060  140.0980 C   0  0  2  0  0  3  0  0  0  0  0  0
  186.1930  177.3480  144.2630 C   0  0  2  0  0  3  0  0  0  0  0  0
  191.7600  177.5520  142.3380 C   0  0  0  0  0  1  0  0  0  0  0  0
  185.0910  180.5360  144.3440 C   0  0  0  0  0  1  0  0  0  0  0  0
  188.1220  177.8790  141.2590 C   0  0  0  0  0  0  0  0  0  0  0  0
  187.3930  177.1250  144.7110 N   0  0  0  0  0  2  0  0  0  0  0  0
  185.7520  178.4810  140.1980 C   0  0  2  0  0  3  0  0  0  0  0  0
  186.1130  177.4980  142.8060 C   0  0  2  0  0  3  0  0  0  0  0  0
  184.8280  179.1840  143.8810 N   0  0  0  0  0  0  0  0  0  0  0  0
  185.3450  178.3110  144.8610 N   0  0  0  0  0  2  0  0  0  0  0  0
  189.6220  177.1420  143.5690 C   0  0  0  0  0  3  0  0  0  0  0  0
  185.0600  178.8570  138.8830 C   0  0  0  0  0  2  0  0  0  0  0  0
  183.4320  177.3600  139.8040 O   0  0  0  0  0  0  0  0  0  0  0  0
  182.6130  179.4360  138.8570 C   0  0  0  0  0  2  0  0  0  0  0  0
  182.2620  176.6590  139.4540 C   0  0  0  0  0  2  0  0  0  0  0  0
  183.6460  178.3000  138.7800 C   0  0  1  0  0  3  0  0  0  0  0  0
  181.3940  179.0350  139.6930 C   0  0  0  0  0  2  0  0  0  0  0  0
  181.0200  177.5680  139.4720 C   0  0  2  0  0  3  0  0  0  0  0  0
  179.3710  176.7850  141.3530 N   0  0  0  0  0  0  0  0  0  0  0  0
  180.0990  177.1310  140.5220 C   0  0  0  0  0  0  0  0  0  0  0  0
  187.7560  178.0430  138.7600 N   0  0  0  0  0  0  0  0  0  0  0  0
  189.9770  177.6570  137.9630 O   0  0  0  0  0  0  0  0  0  0  0  0
  189.0560  178.6310  138.4030 C   0  0  2  0  0  0  0  0  0  0  0  0
  188.9480  179.7530  137.3900 C   0  0  0  0  0  2  0  0  0  0  0  0
  189.2860  178.3500  136.9550 C   0  0  1  0  0  3  0  0  0  0  0  0
  187.8330  176.5790  138.7220 C   0  0  0  0  0  2  0  0  0  0  0  0
  185.9150  176.0270  137.4240 O   0  0  0  0  0  1  0  0  0  0  0  0
  187.3100  176.0580  137.3960 C   0  0  2  0  0  3  0  0  0  0  0  0
  187.8540  174.6570  137.1670 C   0  0  0  0  0  2  0  0  0  0  0  0
  189.1350  174.6970  136.3500 C   0  0  2  0  0  3  0  0  0  0  0  0
  188.9220  174.1020  135.1040 O   0  0  0  0  0  1  0  0  0  0  0  0
  190.8360  174.5020  137.9680 O   0  0  0  0  0  0  0  0  0  0  0  0
  190.2050  173.9560  137.0780 C   0  0  0  0  0  3  0  0  0  0  0  0
  1  3  1  0  0  0  0
  2 17  1  0  0  0  0
  3 17  2  0  0  0  0
  3 12  1  0  0  0  0
  4 11  1  0  0  0  0
  4  2  2  0  0  0  0
  6  5  1  6  0  0  0
  6 14  1  0  0  0  0
  6 15  1  0  0  0  0
  7 27  1  6  0  0  0
  7 13  1  0  0  0  0
  7 11  1  0  0  0  0
  8 12  1  1  0  0  0
  8 16  1  0  0  0  0
  9  2  1  0  0  0  0
 11  1  2  0  0  0  0
 13 18  1  6  0  0  0
 13  5  1  0  0  0  0
 14  1  1  6  0  0  0
 14  8  1  0  0  0  0
 15 10  1  0  0  0  0
 15 16  1  0  0  0  0
 20 23  1  0  0  0  0
 21 24  1  0  0  0  0
 21 19  1  0  0  0  0
 22 20  1  0  0  0  0
 22 18  1  1  0  0  0
 22 19  1  0  0  0  0
 24 23  1  0  0  0  0
 24 26  1  1  0  0  0
 26 25  3  0  0  0  0
 28 29  1  0  0  0  0
 29 27  1  1  0  0  0
 30 29  1  0  0  0  0
 31 30  1  6  0  0  0
 31 28  1  0  0  0  0
 31 29  1  0  0  0  0
 32 27  1  0  0  0  0
 34 33  1  1  0  0  0
 34 32  1  0  0  0  0
 35 34  1  0  0  0  0
 36 37  1  6  0  0  0
 36 39  1  0  0  0  0
 36 35  1  0  0  0  0
 39 38  2  0  0  0  0
M  END
>  <MODEL>
7

>  <REMARK>
 VINA RESULT:      -4.9      3.654      8.642
  Name = 
  10 active torsions:
  status: ('A' for Active; 'I' for Inactive)
    1  A    between atoms: C_1  and  C_13
    2  A    between atoms: C_1  and  C_33
    3  A    between atoms: C_6  and  N_11
    4  A    between atoms: C_8  and  C_17
    5  A    between atoms: C_8  and  C_37
    6  A    between atoms: N_11  and  C_14
    7  A    between atoms: N_11  and  C_19
    8  A    between atoms: C_14  and  C_37
    9  A    between atoms: C_17  and  C_32
   10  A    between atoms: C_23  and  C_35
                            x       y       z     vdW  Elec       q    Type
                         _______ _______ _______ _____ _____    ______ ____

>  <TORSDO>
F 10

$$$$
=
 OpenBabel10222419333D

 39 45  0  0  1  0  0  0  0  0999 V2000
  188.1120  177.6870  143.4810 C   0  0  0  0  0  0  0  0  0  0  0  0
  190.6710  178.5460  144.0490 C   0  0  0  0  0  0  0  0  0  0  0  0
  188.5720  177.6400  144.7740 C   0  0  0  0  0  0  0  0  0  0  0  0
  190.1540  178.6780  142.7440 C   0  0  0  0  0  3  0  0  0  0  0  0
  185.6340  178.7640  141.6920 C   0  0  0  0  0  2  0  0  0  0  0  0
  185.9460  178.6880  143.1790 C   0  0  2  0  0  3  0  0  0  0  0  0
  188.2220  178.5930  141.0570 C   0  0  2  0  0  3  0  0  0  0  0  0
  186.4270  177.3650  144.9590 C   0  0  2  0  0  3  0  0  0  0  0  0
  192.0550  179.0010  144.3430 C   0  0  0  0  0  1  0  0  0  0  0  0
  184.5640  180.1280  144.4290 C   0  0  0  0  0  1  0  0  0  0  0  0
  188.8430  178.2650  142.4340 C   0  0  0  0  0  0  0  0  0  0  0  0
  187.4920  177.5010  145.6910 N   0  0  0  0  0  2  0  0  0  0  0  0
  186.7410  178.1430  140.8000 C   0  0  2  0  0  3  0  0  0  0  0  0
  186.6770  177.4190  143.5150 C   0  0  2  0  0  3  0  0  0  0  0  0
  184.7780  178.7360  144.0730 N   0  0  0  0  0  0  0  0  0  0  0  0
  185.2390  178.0840  145.2360 N   0  0  0  0  0  2  0  0  0  0  0  0
  189.8560  178.0770  145.0930 C   0  0  0  0  0  3  0  0  0  0  0  0
  186.3270  178.2530  139.3290 C   0  0  0  0  0  2  0  0  0  0  0  0
  184.4630  179.6420  138.7480 O   0  0  0  0  0  0  0  0  0  0  0  0
  184.3390  177.3060  138.1140 C   0  0  0  0  0  2  0  0  0  0  0  0
  183.0690  179.7390  138.9220 C   0  0  0  0  0  2  0  0  0  0  0  0
  184.8170  178.3410  139.1460 C   0  0  1  0  0  3  0  0  0  0  0  0
  183.2510  177.8780  137.2020 C   0  0  0  0  0  2  0  0  0  0  0  0
  182.3040  178.8030  137.9700 C   0  0  2  0  0  3  0  0  0  0  0  0
  180.8860  180.2160  136.2780 N   0  0  0  0  0  0  0  0  0  0  0  0
  181.5120  179.5920  137.0260 C   0  0  0  0  0  0  0  0  0  0  0  0
  189.0830  178.2060  139.9150 N   0  0  0  0  0  0  0  0  0  0  0  0
  189.4580  176.0060  139.0580 O   0  0  0  0  0  0  0  0  0  0  0  0
  189.6860  176.8840  140.1380 C   0  0  2  0  0  0  0  0  0  0  0  0
  191.1640  176.9470  140.4660 C   0  0  0  0  0  2  0  0  0  0  0  0
  190.6960  176.6700  139.0600 C   0  0  1  0  0  3  0  0  0  0  0  0
  188.3140  178.2090  138.6670 C   0  0  0  0  0  2  0  0  0  0  0  0
  188.6420  180.1280  137.2940 O   0  0  0  0  0  1  0  0  0  0  0  0
  189.1230  178.8430  137.5500 C   0  0  2  0  0  3  0  0  0  0  0  0
  188.9970  177.9860  136.3010 C   0  0  0  0  0  2  0  0  0  0  0  0
  187.6560  177.2710  136.2630 C   0  0  2  0  0  3  0  0  0  0  0  0
  187.8490  175.9150  135.9870 O   0  0  0  0  0  1  0  0  0  0  0  0
  185.8070  177.3000  134.8030 O   0  0  0  0  0  0  0  0  0  0  0  0
  186.8050  177.8780  135.2000 C   0  0  0  0  0  3  0  0  0  0  0  0
  1  3  1  0  0  0  0
  2  9  1  0  0  0  0
  2 17  1  0  0  0  0
  3 17  2  0  0  0  0
  3 12  1  0  0  0  0
  4  2  2  0  0  0  0
  6  5  1  6  0  0  0
  6 14  1  0  0  0  0
  6 15  1  0  0  0  0
  7 27  1  6  0  0  0
  7 11  1  0  0  0  0
  8 16  1  1  0  0  0
  8 12  1  0  0  0  0
 11  4  1  0  0  0  0
 11  1  2  0  0  0  0
 13 18  1  6  0  0  0
 13  7  1  0  0  0  0
 13  5  1  0  0  0  0
 14  1  1  1  0  0  0
 14  8  1  0  0  0  0
 15 10  1  0  0  0  0
 15 16  1  0  0  0  0
 19 21  1  0  0  0  0
 19 22  1  0  0  0  0
 20 22  1  0  0  0  0
 22 18  1  6  0  0  0
 23 24  1  0  0  0  0
 23 20  1  0  0  0  0
 24 26  1  6  0  0  0
 24 21  1  0  0  0  0
 25 26  3  0  0  0  0
 28 31  1  0  0  0  0
 28 29  1  0  0  0  0
 29 27  1  6  0  0  0
 29 30  1  0  0  0  0
 31 29  1  0  0  0  0
 31 30  1  1  0  0  0
 32 27  1  0  0  0  0
 34 33  1  6  0  0  0
 34 32  1  0  0  0  0
 35 34  1  0  0  0  0
 36 37  1  6  0  0  0
 36 35  1  0  0  0  0
 38 39  2  0  0  0  0
 39 36  1  0  0  0  0
M  END
>  <MODEL>
8

>  <REMARK>
 VINA RESULT:      -4.9      3.640      9.243
  Name = 
  10 active torsions:
  status: ('A' for Active; 'I' for Inactive)
    1  A    between atoms: C_1  and  C_13
    2  A    between atoms: C_1  and  C_33
    3  A    between atoms: C_6  and  N_11
    4  A    between atoms: C_8  and  C_17
    5  A    between atoms: C_8  and  C_37
    6  A    between atoms: N_11  and  C_14
    7  A    between atoms: N_11  and  C_19
    8  A    between atoms: C_14  and  C_37
    9  A    between atoms: C_17  and  C_32
   10  A    between atoms: C_23  and  C_35
                            x       y       z     vdW  Elec       q    Type
                         _______ _______ _______ _____ _____    ______ ____

>  <TORSDO>
F 10

$$$$
=
 OpenBabel10222419333D

 39 45  0  0  1  0  0  0  0  0999 V2000
  183.1060  174.0410  137.2810 C   0  0  0  0  0  0  0  0  0  0  0  0
  181.1140  172.9940  135.6840 C   0  0  0  0  0  0  0  0  0  0  0  0
  183.1710  172.7260  136.8880 C   0  0  0  0  0  0  0  0  0  0  0  0
  181.1090  174.3640  136.0150 C   0  0  0  0  0  3  0  0  0  0  0  0
  184.8450  176.7740  137.3470 C   0  0  0  0  0  2  0  0  0  0  0  0
  185.1170  175.3250  136.9720 C   0  0  2  0  0  3  0  0  0  0  0  0
  182.2170  176.4580  137.0040 C   0  0  2  0  0  3  0  0  0  0  0  0
  185.1590  173.1590  137.6470 C   0  0  2  0  0  3  0  0  0  0  0  0
  180.0310  172.4360  134.8330 C   0  0  0  0  0  1  0  0  0  0  0  0
  187.0680  175.1170  135.6700 C   0  0  0  0  0  1  0  0  0  0  0  0
  182.1260  174.9270  136.8120 C   0  0  0  0  0  0  0  0  0  0  0  0
  184.4860  172.2100  137.0670 N   0  0  0  0  0  2  0  0  0  0  0  0
  183.4030  177.0150  137.8660 C   0  0  2  0  0  3  0  0  0  0  0  0
  184.3880  174.3830  137.8880 C   0  0  2  0  0  3  0  0  0  0  0  0
  186.5300  174.9170  137.0040 N   0  0  0  0  0  0  0  0  0  0  0  0
  186.4550  173.5230  137.2090 N   0  0  0  0  0  2  0  0  0  0  0  0
  182.1870  172.1730  136.0730 C   0  0  0  0  0  3  0  0  0  0  0  0
  183.2370  178.4940  138.2320 C   0  0  0  0  0  2  0  0  0  0  0  0
  183.6570  177.6470  140.4340 O   0  0  0  0  0  0  0  0  0  0  0  0
  185.1390  179.3820  139.6160 C   0  0  0  0  0  2  0  0  0  0  0  0
  183.7820  178.0740  141.7700 C   0  0  0  0  0  2  0  0  0  0  0  0
  183.7130  178.8090  139.6450 C   0  0  1  0  0  3  0  0  0  0  0  0
  185.9890  178.8390  140.7690 C   0  0  0  0  0  2  0  0  0  0  0  0
  185.1660  178.6870  142.0500 C   0  0  2  0  0  3  0  0  0  0  0  0
  186.4690  177.1960  143.7660 N   0  0  0  0  0  0  0  0  0  0  0  0
  185.8940  177.8550  143.0080 C   0  0  0  0  0  0  0  0  0  0  0  0
  180.9380  177.0750  137.4270 N   0  0  0  0  0  0  0  0  0  0  0  0
  178.9440  178.1250  136.6280 O   0  0  0  0  0  0  0  0  0  0  0  0
  180.2080  177.6130  136.2690 C   0  0  2  0  0  0  0  0  0  0  0  0
  180.9980  178.6490  135.4930 C   0  0  0  0  0  2  0  0  0  0  0  0
  179.9820  179.0670  136.5260 C   0  0  1  0  0  3  0  0  0  0  0  0
  180.1080  176.1000  138.1420 C   0  0  0  0  0  2  0  0  0  0  0  0
  179.8100  175.1110  140.2870 O   0  0  0  0  0  1  0  0  0  0  0  0
  180.2900  176.2510  139.6410 C   0  0  2  0  0  3  0  0  0  0  0  0
  179.5210  177.4740  140.1120 C   0  0  0  0  0  2  0  0  0  0  0  0
  180.1420  178.0570  141.3710 C   0  0  2  0  0  3  0  0  0  0  0  0
  179.2840  177.8640  142.4560 O   0  0  0  0  0  1  0  0  0  0  0  0
  180.3180  180.0050  140.0580 O   0  0  0  0  0  0  0  0  0  0  0  0
  180.3740  179.5170  141.1750 C   0  0  0  0  0  3  0  0  0  0  0  0
  2  4  2  0  0  0  0
  2 17  1  0  0  0  0
  3 12  1  0  0  0  0
  3  1  1  0  0  0  0
  4 11  1  0  0  0  0
  5 13  1  0  0  0  0
  6 15  1  0  0  0  0
  6  5  1  1  0  0  0
  6 14  1  0  0  0  0
  7 27  1  1  0  0  0
  7 13  1  0  0  0  0
  8 12  1  6  0  0  0
  8 14  1  0  0  0  0
  9  2  1  0  0  0  0
 10 15  1  0  0  0  0
 11  7  1  0  0  0  0
 11  1  2  0  0  0  0
 13 18  1  6  0  0  0
 14  1  1  6  0  0  0
 15 16  1  0  0  0  0
 16  8  1  0  0  0  0
 17  3  2  0  0  0  0
 19 21  1  0  0  0  0
 20 22  1  0  0  0  0
 20 23  1  0  0  0  0
 21 24  1  0  0  0  0
 22 18  1  6  0  0  0
 22 19  1  0  0  0  0
 23 24  1  0  0  0  0
 24 26  1  1  0  0  0
 26 25  3  0  0  0  0
 27 32  1  0  0  0  0
 29 31  1  0  0  0  0
 29 28  1  0  0  0  0
 29 27  1  1  0  0  0
 30 29  1  0  0  0  0
 31 30  1  6  0  0  0
 31 28  1  0  0  0  0
 32 34  1  0  0  0  0
 34 35  1  0  0  0  0
 34 33  1  1  0  0  0
 35 36  1  0  0  0  0
 36 37  1  1  0  0  0
 38 39  2  0  0  0  0
 39 36  1  0  0  0  0
M  END
>  <MODEL>
9

>  <REMARK>
 VINA RESULT:      -4.9      1.745      2.463
  Name = 
  10 active torsions:
  status: ('A' for Active; 'I' for Inactive)
    1  A    between atoms: C_1  and  C_13
    2  A    between atoms: C_1  and  C_33
    3  A    between atoms: C_6  and  N_11
    4  A    between atoms: C_8  and  C_17
    5  A    between atoms: C_8  and  C_37
    6  A    between atoms: N_11  and  C_14
    7  A    between atoms: N_11  and  C_19
    8  A    between atoms: C_14  and  C_37
    9  A    between atoms: C_17  and  C_32
   10  A    between atoms: C_23  and  C_35
                            x       y       z     vdW  Elec       q    Type
                         _______ _______ _______ _____ _____    ______ ____

>  <TORSDO>
F 10

$$$$
