=
 OpenBabel10222416193D

 46 52  0  0  1  0  0  0  0  0999 V2000
  187.7800  177.4570  137.4180 C   0  0  2  0  0  3  0  0  0  0  0  0
  189.2900  175.5130  137.4980 C   0  0  0  0  0  3  0  0  0  0  0  0
  188.0440  175.9810  137.3620 C   0  0  0  0  0  3  0  0  0  0  0  0
  185.9580  178.3960  138.5880 N   0  0  0  0  0  0  0  0  0  0  0  0
  190.3940  177.1200  139.0810 C   0  0  0  0  0  0  0  0  0  0  0  0
  190.4430  176.4540  137.7170 C   0  0  1  0  0  3  0  0  0  0  0  0
  188.0930  177.9480  138.8200 C   0  0  0  0  0  0  0  0  0  0  0  0
  187.0570  178.4190  139.4450 N   0  0  0  0  0  0  0  0  0  0  0  0
  186.3180  177.7680  137.4000 C   0  0  0  0  0  0  0  0  0  0  0  0
  185.3110  177.3070  136.6740 C   0  0  0  0  0  0  0  0  0  0  0  0
  189.3450  177.7750  139.4970 N   0  0  0  0  0  0  0  0  0  0  0  0
  184.5740  178.2170  138.9660 C   0  0  0  0  0  2  0  0  0  0  0  0
  183.7230  177.6100  137.4530 S   0  0  0  0  0  0  0  0  0  0  0  0
  195.8140  174.1010  136.2440 C   0  0  0  0  0  2  0  0  0  0  0  0
  193.3030  174.3490  137.5570 C   0  0  0  0  0  0  0  0  0  0  0  0
  192.0490  174.5970  137.9690 N   0  0  0  0  0  0  0  0  0  0  0  0
  192.7220  176.3030  136.7350 C   0  0  0  0  0  3  0  0  0  0  0  0
  195.1320  175.4770  136.2120 C   0  0  2  0  0  3  0  0  0  0  0  0
  193.7410  175.3740  136.7560 C   0  0  0  0  0  0  0  0  0  0  0  0
  191.7140  175.7800  137.4660 N   0  0  0  0  0  0  0  0  0  0  0  0
  195.1040  175.9500  134.9010 O   0  0  0  0  0  1  0  0  0  0  0  0
  194.0970  173.1100  137.8270 C   0  0  0  0  0  2  0  0  0  0  0  0
  195.5890  173.3890  137.5910 C   0  0  1  0  0  3  0  0  0  0  0  0
  195.3590  171.2260  137.9960 C   0  0  0  0  0  1  0  0  0  0  0  0
  196.2990  172.1850  137.6160 O   0  0  0  0  0  0  0  0  0  0  0  0
  191.5920  177.0360  139.9880 C   0  0  1  0  0  3  0  0  0  0  0  0
  192.8200  177.6890  139.3710 C   0  0  0  0  0  1  0  0  0  0  0  0
  191.3000  177.5550  141.3970 C   0  0  0  0  0  2  0  0  0  0  0  0
  190.4620  176.5750  142.2100 C   0  0  0  0  0  2  0  0  0  0  0  0
  190.1750  177.1240  143.6010 C   0  0  1  0  0  3  0  0  0  0  0  0
  187.8320  177.4750  142.7120 C   0  0  0  0  0  3  0  0  0  0  0  0
  186.4040  178.2230  146.6830 C   0  0  0  0  0  1  0  0  0  0  0  0
  186.4770  177.7500  142.9240 C   0  0  0  0  0  3  0  0  0  0  0  0
  186.8870  177.9720  145.2970 C   0  0  0  0  0  0  0  0  0  0  0  0
  184.6550  178.2760  144.4030 O   0  0  0  0  0  1  0  0  0  0  0  0
  186.0020  178.0060  144.2130 C   0  0  0  0  0  0  0  0  0  0  0  0
  188.2410  177.6950  145.0830 C   0  0  0  0  0  3  0  0  0  0  0  0
  188.7230  177.4600  143.7930 C   0  0  0  0  0  0  0  0  0  0  0  0
  191.9510  175.7370  144.3850 O   0  0  0  0  0  0  0  0  0  0  0  0
  190.6260  176.1250  144.6510 C   0  0  1  0  0  3  0  0  0  0  0  0
  191.7630  176.6760  145.4130 C   0  0  1  0  0  3  0  0  0  0  0  0
  191.9000  176.9280  147.7700 O   0  0  0  0  0  1  0  0  0  0  0  0
  191.8750  175.9780  146.7490 C   0  0  0  0  0  2  0  0  0  0  0  0
  185.4330  176.5240  135.4830 N   0  0  0  0  0  2  0  0  0  0  0  0
  184.8940  174.0220  135.3630 N   0  0  0  0  0  0  0  0  0  0  0  0
  185.1370  175.1530  135.4160 C   0  0  0  0  0  0  0  0  0  0  0  0
  1  3  1  1  0  0  0
  1  7  1  0  0  0  0
  2  6  1  0  0  0  0
  3  2  2  0  0  0  0
  4 12  1  0  0  0  0
  4  8  1  0  0  0  0
  5 11  2  0  0  0  0
  5 26  1  0  0  0  0
  6 20  1  1  0  0  0
  6  5  1  0  0  0  0
  7  8  2  0  0  0  0
  7 11  1  0  0  0  0
  9  1  1  0  0  0  0
  9  4  1  0  0  0  0
 10  9  2  0  0  0  0
 10 13  1  0  0  0  0
 13 12  1  0  0  0  0
 14 23  1  0  0  0  0
 15 22  1  0  0  0  0
 15 16  2  0  0  0  0
 17 19  2  0  0  0  0
 17 20  1  0  0  0  0
 18 21  1  6  0  0  0
 18 14  1  0  0  0  0
 18 19  1  0  0  0  0
 19 15  1  0  0  0  0
 20 16  1  0  0  0  0
 23 25  1  6  0  0  0
 23 22  1  0  0  0  0
 25 24  1  0  0  0  0
 26 27  1  6  0  0  0
 26 28  1  0  0  0  0
 28 29  1  0  0  0  0
 30 29  1  6  0  0  0
 30 38  1  0  0  0  0
 31 33  2  0  0  0  0
 31 38  1  0  0  0  0
 33 36  1  0  0  0  0
 34 32  1  0  0  0  0
 36 35  1  0  0  0  0
 36 34  2  0  0  0  0
 37 34  1  0  0  0  0
 38 37  2  0  0  0  0
 39 40  1  0  0  0  0
 39 41  1  0  0  0  0
 40 30  1  6  0  0  0
 40 41  1  0  0  0  0
 41 43  1  1  0  0  0
 43 42  1  0  0  0  0
 44 10  1  0  0  0  0
 45 46  3  0  0  0  0
 46 44  1  0  0  0  0
M  END
>  <MODEL>
1

>  <REMARK>
 VINA RESULT:      -8.3      0.000      0.000
  Name = 
  11 active torsions:
  status: ('A' for Active; 'I' for Inactive)
    1  A    between atoms: C_3  and  C_17
    2  A    between atoms: C_3  and  C_42
    3  A    between atoms: C_3  and  C_44
    4  A    between atoms: C_8  and  C_16
    5  A    between atoms: C_8  and  C_28
    6  A    between atoms: C_12  and  C_19
    7  A    between atoms: C_18  and  N_27
    8  A    between atoms: C_28  and  C_44
    9  A    between atoms: C_34  and  N_45
   10  A    between atoms: C_36  and  O_43
   11  A    between atoms: N_45  and  C_46
                            x       y       z     vdW  Elec       q    Type
                         _______ _______ _______ _____ _____    ______ ____

>  <TORSDO>
F 11

$$$$
=
 OpenBabel10222416193D

 46 52  0  0  1  0  0  0  0  0999 V2000
  183.5670  178.3600  142.0630 C   0  0  2  0  0  3  0  0  0  0  0  0
  185.1580  179.2630  143.7110 C   0  0  0  0  0  3  0  0  0  0  0  0
  184.0020  179.4010  143.0520 C   0  0  0  0  0  3  0  0  0  0  0  0
  182.6200  178.8910  139.9660 N   0  0  0  0  0  0  0  0  0  0  0  0
  186.6710  178.0890  142.0860 C   0  0  0  0  0  0  0  0  0  0  0  0
  186.0410  178.0690  143.4690 C   0  0  1  0  0  3  0  0  0  0  0  0
  184.5380  178.3690  140.8960 C   0  0  0  0  0  0  0  0  0  0  0  0
  183.9870  178.7070  139.7690 N   0  0  0  0  0  0  0  0  0  0  0  0
  182.3340  178.7690  141.3230 C   0  0  0  0  0  0  0  0  0  0  0  0
  181.1910  179.3140  141.7130 C   0  0  0  0  0  0  0  0  0  0  0  0
  185.9580  178.2020  141.0000 N   0  0  0  0  0  0  0  0  0  0  0  0
  181.7620  179.8110  139.2520 C   0  0  0  0  0  2  0  0  0  0  0  0
  180.3180  180.0960  140.3530 S   0  0  0  0  0  0  0  0  0  0  0  0
  189.6850  177.6830  148.2780 C   0  0  0  0  0  2  0  0  0  0  0  0
  188.8890  177.6170  145.5480 C   0  0  0  0  0  0  0  0  0  0  0  0
  188.3300  177.7460  144.3340 N   0  0  0  0  0  0  0  0  0  0  0  0
  186.7350  177.9310  145.8520 C   0  0  0  0  0  3  0  0  0  0  0  0
  188.1820  177.5670  147.9820 C   0  0  2  0  0  3  0  0  0  0  0  0
  187.9300  177.7620  146.5180 C   0  0  0  0  0  0  0  0  0  0  0  0
  187.0300  177.9330  144.5340 N   0  0  0  0  0  0  0  0  0  0  0  0
  187.4900  178.5240  148.7230 O   0  0  0  0  0  1  0  0  0  0  0  0
  190.3450  177.4390  145.8400 C   0  0  0  0  0  2  0  0  0  0  0  0
  190.5250  176.8850  147.2620 C   0  0  1  0  0  3  0  0  0  0  0  0
  192.3470  175.6410  147.4200 C   0  0  0  0  0  1  0  0  0  0  0  0
  191.8750  176.9400  147.6170 O   0  0  0  0  0  0  0  0  0  0  0  0
  188.1650  177.9630  141.9530 C   0  0  1  0  0  3  0  0  0  0  0  0
  188.6340  176.5270  142.1310 C   0  0  0  0  0  1  0  0  0  0  0  0
  188.6950  178.5960  140.6650 C   0  0  0  0  0  2  0  0  0  0  0  0
  189.8790  177.8280  140.0890 C   0  0  0  0  0  2  0  0  0  0  0  0
  189.7470  177.6700  138.5810 C   0  0  1  0  0  3  0  0  0  0  0  0
  189.6900  175.3690  137.5280 C   0  0  0  0  0  3  0  0  0  0  0  0
  193.9720  175.1860  137.6270 C   0  0  0  0  0  1  0  0  0  0  0  0
  190.3500  174.2430  137.0270 C   0  0  0  0  0  3  0  0  0  0  0  0
  192.4830  175.2320  137.5920 C   0  0  0  0  0  0  0  0  0  0  0  0
  192.3810  173.0410  136.5610 O   0  0  0  0  0  1  0  0  0  0  0  0
  191.7450  174.1680  137.0640 C   0  0  0  0  0  0  0  0  0  0  0  0
  191.8210  176.3590  138.0910 C   0  0  0  0  0  3  0  0  0  0  0  0
  190.4270  176.4280  138.0760 C   0  0  0  0  0  0  0  0  0  0  0  0
  187.8330  178.9840  138.0340 O   0  0  0  0  0  0  0  0  0  0  0  0
  188.2800  177.6610  138.1920 C   0  0  1  0  0  3  0  0  0  0  0  0
  188.1100  178.2670  136.8580 C   0  0  1  0  0  3  0  0  0  0  0  0
  186.7770  178.1630  134.8950 O   0  0  0  0  0  1  0  0  0  0  0  0
  186.8100  177.8020  136.2420 C   0  0  0  0  0  2  0  0  0  0  0  0
  180.7410  179.4230  143.0660 N   0  0  0  0  0  2  0  0  0  0  0  0
  179.6330  177.5070  144.3580 N   0  0  0  0  0  0  0  0  0  0  0  0
  180.1320  178.3740  143.7740 C   0  0  0  0  0  0  0  0  0  0  0  0
  1  3  1  1  0  0  0
  3  2  2  0  0  0  0
  4  9  1  0  0  0  0
  5  6  1  0  0  0  0
  6  2  1  1  0  0  0
  6 20  1  0  0  0  0
  7 11  1  0  0  0  0
  7  1  1  0  0  0  0
  8  4  1  0  0  0  0
  8  7  2  0  0  0  0
  9 10  2  0  0  0  0
  9  1  1  0  0  0  0
 10 44  1  0  0  0  0
 11  5  2  0  0  0  0
 12  4  1  0  0  0  0
 12 13  1  0  0  0  0
 13 10  1  0  0  0  0
 15 22  1  0  0  0  0
 15 19  1  0  0  0  0
 16 20  1  0  0  0  0
 16 15  2  0  0  0  0
 17 19  2  0  0  0  0
 18 14  1  0  0  0  0
 18 21  1  1  0  0  0
 19 18  1  0  0  0  0
 20 17  1  0  0  0  0
 22 23  1  0  0  0  0
 23 25  1  1  0  0  0
 23 14  1  0  0  0  0
 24 25  1  0  0  0  0
 26  5  1  0  0  0  0
 26 27  1  6  0  0  0
 28 26  1  0  0  0  0
 29 28  1  0  0  0  0
 30 29  1  1  0  0  0
 31 38  1  0  0  0  0
 33 36  1  0  0  0  0
 33 31  2  0  0  0  0
 34 32  1  0  0  0  0
 34 37  1  0  0  0  0
 35 36  1  0  0  0  0
 36 34  2  0  0  0  0
 38 37  2  0  0  0  0
 38 30  1  0  0  0  0
 39 40  1  0  0  0  0
 40 30  1  1  0  0  0
 41 43  1  6  0  0  0
 41 39  1  0  0  0  0
 41 40  1  0  0  0  0
 42 43  1  0  0  0  0
 44 46  1  0  0  0  0
 46 45  3  0  0  0  0
M  END
>  <MODEL>
2

>  <REMARK>
 VINA RESULT:      -8.1      3.414      8.929
  Name = 
  11 active torsions:
  status: ('A' for Active; 'I' for Inactive)
    1  A    between atoms: C_3  and  C_17
    2  A    between atoms: C_3  and  C_42
    3  A    between atoms: C_3  and  C_44
    4  A    between atoms: C_8  and  C_16
    5  A    between atoms: C_8  and  C_28
    6  A    between atoms: C_12  and  C_19
    7  A    between atoms: C_18  and  N_27
    8  A    between atoms: C_28  and  C_44
    9  A    between atoms: C_34  and  N_45
   10  A    between atoms: C_36  and  O_43
   11  A    between atoms: N_45  and  C_46
                            x       y       z     vdW  Elec       q    Type
                         _______ _______ _______ _____ _____    ______ ____

>  <TORSDO>
F 11

$$$$
=
 OpenBabel10222416193D

 46 52  0  0  1  0  0  0  0  0999 V2000
  188.6730  178.2530  143.8330 C   0  0  2  0  0  3  0  0  0  0  0  0
  186.6480  177.3820  142.7360 C   0  0  0  0  0  3  0  0  0  0  0  0
  187.5430  177.2720  143.7240 C   0  0  0  0  0  3  0  0  0  0  0  0
  190.8900  177.6160  144.3340 N   0  0  0  0  0  0  0  0  0  0  0  0
  187.9580  178.2990  140.8000 C   0  0  0  0  0  0  0  0  0  0  0  0
  186.7610  178.4830  141.7170 C   0  0  1  0  0  3  0  0  0  0  0  0
  189.5840  178.0750  142.6320 C   0  0  0  0  0  0  0  0  0  0  0  0
  190.7810  177.6830  142.9460 N   0  0  0  0  0  0  0  0  0  0  0  0
  189.6460  177.8740  144.9020 C   0  0  0  0  0  0  0  0  0  0  0  0
  189.4920  177.4490  146.1470 C   0  0  0  0  0  0  0  0  0  0  0  0
  189.1690  178.1460  141.2610 N   0  0  0  0  0  0  0  0  0  0  0  0
  191.7180  176.7040  145.0910 C   0  0  0  0  0  2  0  0  0  0  0  0
  190.9600  176.6200  146.7630 S   0  0  0  0  0  0  0  0  0  0  0  0
  181.4330  178.5390  138.8600 C   0  0  0  0  0  2  0  0  0  0  0  0
  183.9840  179.4550  139.7230 C   0  0  0  0  0  0  0  0  0  0  0  0
  185.2420  179.6400  140.1540 N   0  0  0  0  0  0  0  0  0  0  0  0
  184.4520  177.8030  141.0950 C   0  0  0  0  0  3  0  0  0  0  0  0
  182.0580  177.8470  140.0810 C   0  0  2  0  0  3  0  0  0  0  0  0
  183.4730  178.3020  140.2610 C   0  0  0  0  0  0  0  0  0  0  0  0
  185.5080  178.6360  140.9820 N   0  0  0  0  0  0  0  0  0  0  0  0
  182.0130  176.4650  139.9020 O   0  0  0  0  0  1  0  0  0  0  0  0
  183.2520  180.3030  138.7310 C   0  0  0  0  0  2  0  0  0  0  0  0
  181.7410  180.0490  138.8460 C   0  0  1  0  0  3  0  0  0  0  0  0
  181.1550  182.0250  138.0420 C   0  0  0  0  0  1  0  0  0  0  0  0
  181.0820  180.6570  137.7750 O   0  0  0  0  0  0  0  0  0  0  0  0
  187.7540  178.3040  139.3090 C   0  0  1  0  0  3  0  0  0  0  0  0
  188.9840  178.8070  138.5670 C   0  0  0  0  0  1  0  0  0  0  0  0
  187.2630  176.9550  138.7790 C   0  0  0  0  0  2  0  0  0  0  0  0
  186.4280  177.1030  137.5120 C   0  0  0  0  0  2  0  0  0  0  0  0
  186.7050  175.9650  136.5390 C   0  0  1  0  0  3  0  0  0  0  0  0
  188.6840  176.9170  135.2820 C   0  0  0  0  0  3  0  0  0  0  0  0
  191.1810  173.7650  136.7650 C   0  0  0  0  0  1  0  0  0  0  0  0
  190.0360  176.8750  134.9280 C   0  0  0  0  0  3  0  0  0  0  0  0
  190.3240  174.8620  136.2360 C   0  0  0  0  0  0  0  0  0  0  0  0
  192.1960  175.8230  135.0350 O   0  0  0  0  0  1  0  0  0  0  0  0
  190.8580  175.8470  135.3970 C   0  0  0  0  0  0  0  0  0  0  0  0
  188.9720  174.9070  136.5910 C   0  0  0  0  0  3  0  0  0  0  0  0
  188.1440  175.9220  136.1070 C   0  0  0  0  0  0  0  0  0  0  0  0
  184.9310  174.6630  137.4600 O   0  0  0  0  0  0  0  0  0  0  0  0
  186.3060  174.6430  137.1680 C   0  0  1  0  0  3  0  0  0  0  0  0
  185.3220  173.9550  136.3110 C   0  0  1  0  0  3  0  0  0  0  0  0
  184.0600  172.0980  137.0840 O   0  0  0  0  0  1  0  0  0  0  0  0
  185.3180  172.4740  136.6150 C   0  0  0  0  0  2  0  0  0  0  0  0
  188.2740  177.4890  146.8950 N   0  0  0  0  0  2  0  0  0  0  0  0
  188.1440  178.1400  149.3700 N   0  0  0  0  0  0  0  0  0  0  0  0
  188.2010  177.8460  148.2510 C   0  0  0  0  0  0  0  0  0  0  0  0
  1  3  1  6  0  0  0
  1  9  1  0  0  0  0
  2  3  2  0  0  0  0
  4  9  1  0  0  0  0
  4 12  1  0  0  0  0
  5 11  2  0  0  0  0
  5  6  1  0  0  0  0
  6 20  1  6  0  0  0
  6  2  1  0  0  0  0
  7  8  2  0  0  0  0
  7  1  1  0  0  0  0
  8  4  1  0  0  0  0
  9 10  2  0  0  0  0
 10 13  1  0  0  0  0
 10 44  1  0  0  0  0
 11  7  1  0  0  0  0
 12 13  1  0  0  0  0
 14 18  1  0  0  0  0
 15 16  2  0  0  0  0
 15 19  1  0  0  0  0
 16 20  1  0  0  0  0
 18 21  1  6  0  0  0
 18 19  1  0  0  0  0
 19 17  2  0  0  0  0
 20 17  1  0  0  0  0
 22 23  1  0  0  0  0
 22 15  1  0  0  0  0
 23 25  1  6  0  0  0
 23 14  1  0  0  0  0
 25 24  1  0  0  0  0
 26 27  1  6  0  0  0
 26  5  1  0  0  0  0
 28 26  1  0  0  0  0
 29 28  1  0  0  0  0
 30 29  1  1  0  0  0
 31 38  1  0  0  0  0
 33 31  2  0  0  0  0
 33 36  1  0  0  0  0
 34 37  1  0  0  0  0
 34 32  1  0  0  0  0
 35 36  1  0  0  0  0
 36 34  2  0  0  0  0
 38 30  1  0  0  0  0
 38 37  2  0  0  0  0
 40 30  1  6  0  0  0
 40 39  1  0  0  0  0
 41 43  1  1  0  0  0
 41 40  1  0  0  0  0
 41 39  1  0  0  0  0
 43 42  1  0  0  0  0
 44 46  1  0  0  0  0
 46 45  3  0  0  0  0
M  END
>  <MODEL>
3

>  <REMARK>
 VINA RESULT:      -8.1      4.216     10.364
  Name = 
  11 active torsions:
  status: ('A' for Active; 'I' for Inactive)
    1  A    between atoms: C_3  and  C_17
    2  A    between atoms: C_3  and  C_42
    3  A    between atoms: C_3  and  C_44
    4  A    between atoms: C_8  and  C_16
    5  A    between atoms: C_8  and  C_28
    6  A    between atoms: C_12  and  C_19
    7  A    between atoms: C_18  and  N_27
    8  A    between atoms: C_28  and  C_44
    9  A    between atoms: C_34  and  N_45
   10  A    between atoms: C_36  and  O_43
   11  A    between atoms: N_45  and  C_46
                            x       y       z     vdW  Elec       q    Type
                         _______ _______ _______ _____ _____    ______ ____

>  <TORSDO>
F 11

$$$$
=
 OpenBabel10222416193D

 46 52  0  0  1  0  0  0  0  0999 V2000
  188.5000  178.4640  142.0740 C   0  0  2  0  0  3  0  0  0  0  0  0
  186.1410  177.8420  141.7400 C   0  0  0  0  0  3  0  0  0  0  0  0
  187.2640  177.7010  142.4520 C   0  0  0  0  0  3  0  0  0  0  0  0
  190.6550  177.5020  142.0630 N   0  0  0  0  0  0  0  0  0  0  0  0
  186.9320  178.2380  139.3900 C   0  0  0  0  0  0  0  0  0  0  0  0
  186.0980  178.7590  140.5480 C   0  0  1  0  0  3  0  0  0  0  0  0
  188.9800  177.9630  140.7240 C   0  0  0  0  0  0  0  0  0  0  0  0
  190.1510  177.4030  140.7680 N   0  0  0  0  0  0  0  0  0  0  0  0
  189.6840  178.0570  142.8910 C   0  0  0  0  0  0  0  0  0  0  0  0
  189.8480  177.8370  144.1860 C   0  0  0  0  0  0  0  0  0  0  0  0
  188.1920  177.9280  139.5260 N   0  0  0  0  0  0  0  0  0  0  0  0
  191.5360  176.5620  142.7190 C   0  0  0  0  0  2  0  0  0  0  0  0
  191.3040  176.8410  144.5220 S   0  0  0  0  0  0  0  0  0  0  0  0
  180.2320  179.3830  139.2200 C   0  0  0  0  0  2  0  0  0  0  0  0
  183.0100  179.9930  139.2930 C   0  0  0  0  0  0  0  0  0  0  0  0
  184.3500  180.0300  139.3560 N   0  0  0  0  0  0  0  0  0  0  0  0
  183.6450  178.3620  140.6220 C   0  0  0  0  0  3  0  0  0  0  0  0
  181.0850  178.6730  140.2830 C   0  0  2  0  0  3  0  0  0  0  0  0
  182.5380  178.9450  140.0410 C   0  0  0  0  0  0  0  0  0  0  0  0
  184.7170  179.0410  140.1630 N   0  0  0  0  0  0  0  0  0  0  0  0
  180.8350  177.3030  140.2380 O   0  0  0  0  0  1  0  0  0  0  0  0
  182.1350  180.8820  138.4660 C   0  0  0  0  0  2  0  0  0  0  0  0
  180.6950  180.8360  139.0000 C   0  0  1  0  0  3  0  0  0  0  0  0
  179.3280  180.4450  137.3050 C   0  0  0  0  0  1  0  0  0  0  0  0
  179.8420  181.4730  138.0970 O   0  0  0  0  0  0  0  0  0  0  0  0
  186.2990  178.0830  138.0330 C   0  0  1  0  0  3  0  0  0  0  0  0
  187.1770  178.6450  136.9270 C   0  0  0  0  0  1  0  0  0  0  0  0
  185.8540  176.6460  137.7540 C   0  0  0  0  0  2  0  0  0  0  0  0
  186.5360  176.0600  136.5230 C   0  0  0  0  0  2  0  0  0  0  0  0
  187.2860  174.7820  136.8690 C   0  0  1  0  0  3  0  0  0  0  0  0
  187.1630  172.6960  135.4410 C   0  0  0  0  0  3  0  0  0  0  0  0
  183.3360  171.7400  137.1180 C   0  0  0  0  0  1  0  0  0  0  0  0
  186.4950  171.5360  135.0350 C   0  0  0  0  0  3  0  0  0  0  0  0
  184.6620  172.0620  136.5210 C   0  0  0  0  0  0  0  0  0  0  0  0
  184.5970  170.0640  135.1520 O   0  0  0  0  0  1  0  0  0  0  0  0
  185.2430  171.2200  135.5680 C   0  0  0  0  0  0  0  0  0  0  0  0
  185.3310  173.2210  136.9270 C   0  0  0  0  0  3  0  0  0  0  0  0
  186.5740  173.5520  136.3820 C   0  0  0  0  0  0  0  0  0  0  0  0
  189.2560  176.0940  136.5720 O   0  0  0  0  0  0  0  0  0  0  0  0
  188.6900  174.8380  136.2940 C   0  0  1  0  0  3  0  0  0  0  0  0
  189.6720  175.0220  137.3790 C   0  0  1  0  0  3  0  0  0  0  0  0
  191.8950  174.4920  138.0220 O   0  0  0  0  0  1  0  0  0  0  0  0
  191.0360  174.5570  136.9250 C   0  0  0  0  0  2  0  0  0  0  0  0
  188.9240  178.1990  145.2160 N   0  0  0  0  0  2  0  0  0  0  0  0
  188.6860  176.9290  147.4290 N   0  0  0  0  0  0  0  0  0  0  0  0
  188.7940  177.5040  146.4290 C   0  0  0  0  0  0  0  0  0  0  0  0
  1  3  1  1  0  0  0
  1  9  1  0  0  0  0
  2  3  2  0  0  0  0
  4 12  1  0  0  0  0
  4  9  1  0  0  0  0
  5 11  2  0  0  0  0
  5  6  1  0  0  0  0
  6 20  1  6  0  0  0
  6  2  1  0  0  0  0
  7  8  2  0  0  0  0
  7  1  1  0  0  0  0
  8  4  1  0  0  0  0
  9 10  2  0  0  0  0
 10 13  1  0  0  0  0
 10 44  1  0  0  0  0
 11  7  1  0  0  0  0
 12 13  1  0  0  0  0
 14 18  1  0  0  0  0
 15 16  2  0  0  0  0
 15 19  1  0  0  0  0
 16 20  1  0  0  0  0
 18 21  1  6  0  0  0
 19 18  1  0  0  0  0
 19 17  2  0  0  0  0
 20 17  1  0  0  0  0
 22 23  1  0  0  0  0
 22 15  1  0  0  0  0
 23 25  1  6  0  0  0
 23 14  1  0  0  0  0
 24 25  1  0  0  0  0
 26 27  1  6  0  0  0
 26  5  1  0  0  0  0
 28 26  1  0  0  0  0
 29 28  1  0  0  0  0
 30 29  1  6  0  0  0
 31 38  1  0  0  0  0
 33 31  2  0  0  0  0
 33 36  1  0  0  0  0
 34 37  1  0  0  0  0
 34 32  1  0  0  0  0
 35 36  1  0  0  0  0
 36 34  2  0  0  0  0
 38 30  1  0  0  0  0
 38 37  2  0  0  0  0
 39 41  1  0  0  0  0
 40 39  1  0  0  0  0
 40 30  1  1  0  0  0
 40 41  1  0  0  0  0
 41 43  1  6  0  0  0
 43 42  1  0  0  0  0
 44 46  1  0  0  0  0
 46 45  3  0  0  0  0
M  END
>  <MODEL>
4

>  <REMARK>
 VINA RESULT:      -8.1      4.108     10.304
  Name = 
  11 active torsions:
  status: ('A' for Active; 'I' for Inactive)
    1  A    between atoms: C_3  and  C_17
    2  A    between atoms: C_3  and  C_42
    3  A    between atoms: C_3  and  C_44
    4  A    between atoms: C_8  and  C_16
    5  A    between atoms: C_8  and  C_28
    6  A    between atoms: C_12  and  C_19
    7  A    between atoms: C_18  and  N_27
    8  A    between atoms: C_28  and  C_44
    9  A    between atoms: C_34  and  N_45
   10  A    between atoms: C_36  and  O_43
   11  A    between atoms: N_45  and  C_46
                            x       y       z     vdW  Elec       q    Type
                         _______ _______ _______ _____ _____    ______ ____

>  <TORSDO>
F 11

$$$$
=
 OpenBabel10222416193D

 46 52  0  0  1  0  0  0  0  0999 V2000
  183.5990  178.5210  137.7260 C   0  0  2  0  0  3  0  0  0  0  0  0
  185.0110  176.5030  137.7330 C   0  0  0  0  0  3  0  0  0  0  0  0
  183.7870  177.0350  137.8230 C   0  0  0  0  0  3  0  0  0  0  0  0
  182.1470  179.7330  139.1390 N   0  0  0  0  0  0  0  0  0  0  0  0
  186.5210  178.2220  138.7670 C   0  0  0  0  0  0  0  0  0  0  0  0
  186.2170  177.3810  137.5390 C   0  0  1  0  0  3  0  0  0  0  0  0
  184.2580  179.1700  138.9300 C   0  0  0  0  0  0  0  0  0  0  0  0
  183.4200  179.7900  139.7040 N   0  0  0  0  0  0  0  0  0  0  0  0
  182.1880  178.9290  138.0030 C   0  0  0  0  0  0  0  0  0  0  0  0
  181.0200  178.4490  137.6060 C   0  0  0  0  0  0  0  0  0  0  0  0
  185.6280  178.9990  139.3150 N   0  0  0  0  0  0  0  0  0  0  0  0
  180.8890  179.7030  139.8500 C   0  0  0  0  0  2  0  0  0  0  0  0
  179.6780  178.9640  138.6810 S   0  0  0  0  0  0  0  0  0  0  0  0
  190.7250  173.6390  136.0450 C   0  0  0  0  0  2  0  0  0  0  0  0
  189.2290  176.0540  136.1970 C   0  0  0  0  0  0  0  0  0  0  0  0
  188.4290  177.0940  136.4840 N   0  0  0  0  0  0  0  0  0  0  0  0
  187.4590  175.2510  137.2220 C   0  0  0  0  0  3  0  0  0  0  0  0
  189.2430  173.5310  136.4350 C   0  0  2  0  0  3  0  0  0  0  0  0
  188.6730  174.8950  136.6740 C   0  0  0  0  0  0  0  0  0  0  0  0
  187.3650  176.5920  137.1000 N   0  0  0  0  0  0  0  0  0  0  0  0
  189.1230  172.7480  137.5820 O   0  0  0  0  0  1  0  0  0  0  0  0
  190.5750  176.1230  135.5470 C   0  0  0  0  0  2  0  0  0  0  0  0
  190.9540  174.7410  134.9920 C   0  0  1  0  0  3  0  0  0  0  0  0
  192.9030  175.6950  135.4220 C   0  0  0  0  0  1  0  0  0  0  0  0
  192.2940  174.7480  134.5970 O   0  0  0  0  0  0  0  0  0  0  0  0
  187.8990  178.1750  139.3720 C   0  0  1  0  0  3  0  0  0  0  0  0
  188.9010  178.9950  138.5740 C   0  0  0  0  0  1  0  0  0  0  0  0
  187.8990  178.5360  140.8590 C   0  0  0  0  0  2  0  0  0  0  0  0
  187.8520  177.3020  141.7530 C   0  0  0  0  0  2  0  0  0  0  0  0
  188.4760  177.5870  143.1110 C   0  0  1  0  0  3  0  0  0  0  0  0
  187.7530  177.6700  145.5350 C   0  0  0  0  0  3  0  0  0  0  0  0
  183.8460  178.9820  144.3560 C   0  0  0  0  0  1  0  0  0  0  0  0
  186.7840  177.9330  146.5080 C   0  0  0  0  0  3  0  0  0  0  0  0
  185.1970  178.5200  144.7810 C   0  0  0  0  0  0  0  0  0  0  0  0
  184.5570  178.6080  147.1160 O   0  0  0  0  0  1  0  0  0  0  0  0
  185.5040  178.3520  146.1350 C   0  0  0  0  0  0  0  0  0  0  0  0
  186.1680  178.2580  143.8090 C   0  0  0  0  0  3  0  0  0  0  0  0
  187.4420  177.8200  144.1770 C   0  0  0  0  0  0  0  0  0  0  0  0
  190.1580  176.0540  142.3960 O   0  0  0  0  0  0  0  0  0  0  0  0
  189.3890  176.4410  143.5080 C   0  0  1  0  0  3  0  0  0  0  0  0
  190.8000  176.8490  143.3620 C   0  0  1  0  0  3  0  0  0  0  0  0
  191.7580  176.5060  145.5070 O   0  0  0  0  0  1  0  0  0  0  0  0
  191.6820  175.9720  144.2200 C   0  0  0  0  0  2  0  0  0  0  0  0
  180.8240  177.5090  136.5450 N   0  0  0  0  0  2  0  0  0  0  0  0
  180.4560  175.0000  136.9120 N   0  0  0  0  0  0  0  0  0  0  0  0
  180.6200  176.1350  136.7470 C   0  0  0  0  0  0  0  0  0  0  0  0
  1  3  1  1  0  0  0
  1  9  1  0  0  0  0
  1  7  1  0  0  0  0
  2  3  2  0  0  0  0
  4  8  1  0  0  0  0
  4 12  1  0  0  0  0
  5 11  2  0  0  0  0
  5 26  1  0  0  0  0
  6 20  1  1  0  0  0
  6  2  1  0  0  0  0
  6  5  1  0  0  0  0
  7 11  1  0  0  0  0
  7  8  2  0  0  0  0
  9  4  1  0  0  0  0
 10  9  2  0  0  0  0
 10 13  1  0  0  0  0
 13 12  1  0  0  0  0
 14 18  1  0  0  0  0
 15 16  2  0  0  0  0
 15 19  1  0  0  0  0
 16 20  1  0  0  0  0
 18 19  1  0  0  0  0
 18 21  1  1  0  0  0
 19 17  2  0  0  0  0
 20 17  1  0  0  0  0
 22 15  1  0  0  0  0
 23 25  1  1  0  0  0
 23 22  1  0  0  0  0
 23 14  1  0  0  0  0
 25 24  1  0  0  0  0
 26 27  1  6  0  0  0
 26 28  1  0  0  0  0
 28 29  1  0  0  0  0
 30 29  1  6  0  0  0
 30 38  1  0  0  0  0
 31 33  1  0  0  0  0
 32 34  1  0  0  0  0
 34 36  1  0  0  0  0
 36 33  2  0  0  0  0
 36 35  1  0  0  0  0
 37 38  1  0  0  0  0
 37 34  2  0  0  0  0
 38 31  2  0  0  0  0
 39 41  1  0  0  0  0
 39 40  1  0  0  0  0
 40 30  1  6  0  0  0
 41 40  1  0  0  0  0
 41 43  1  1  0  0  0
 43 42  1  0  0  0  0
 44 46  1  0  0  0  0
 44 10  1  0  0  0  0
 46 45  3  0  0  0  0
M  END
>  <MODEL>
5

>  <REMARK>
 VINA RESULT:      -8.0      2.615      4.165
  Name = 
  11 active torsions:
  status: ('A' for Active; 'I' for Inactive)
    1  A    between atoms: C_3  and  C_17
    2  A    between atoms: C_3  and  C_42
    3  A    between atoms: C_3  and  C_44
    4  A    between atoms: C_8  and  C_16
    5  A    between atoms: C_8  and  C_28
    6  A    between atoms: C_12  and  C_19
    7  A    between atoms: C_18  and  N_27
    8  A    between atoms: C_28  and  C_44
    9  A    between atoms: C_34  and  N_45
   10  A    between atoms: C_36  and  O_43
   11  A    between atoms: N_45  and  C_46
                            x       y       z     vdW  Elec       q    Type
                         _______ _______ _______ _____ _____    ______ ____

>  <TORSDO>
F 11

$$$$
=
 OpenBabel10222416193D

 46 52  0  0  1  0  0  0  0  0999 V2000
  183.5820  178.3360  142.0070 C   0  0  2  0  0  3  0  0  0  0  0  0
  185.1960  179.2150  143.6460 C   0  0  0  0  0  3  0  0  0  0  0  0
  184.0370  179.3690  142.9960 C   0  0  0  0  0  3  0  0  0  0  0  0
  182.6260  178.8830  139.9190 N   0  0  0  0  0  0  0  0  0  0  0  0
  186.6830  178.0280  142.0070 C   0  0  0  0  0  0  0  0  0  0  0  0
  186.0640  178.0120  143.3940 C   0  0  1  0  0  3  0  0  0  0  0  0
  184.5450  178.3360  140.8330 C   0  0  0  0  0  0  0  0  0  0  0  0
  183.9900  178.6830  139.7110 N   0  0  0  0  0  0  0  0  0  0  0  0
  182.3490  178.7610  141.2770 C   0  0  0  0  0  0  0  0  0  0  0  0
  181.2160  179.3180  141.6770 C   0  0  0  0  0  0  0  0  0  0  0  0
  185.9640  178.1520  140.9260 N   0  0  0  0  0  0  0  0  0  0  0  0
  181.7740  179.8150  139.2140 C   0  0  0  0  0  2  0  0  0  0  0  0
  180.3420  180.1140  140.3260 S   0  0  0  0  0  0  0  0  0  0  0  0
  189.7230  177.5130  148.1810 C   0  0  0  0  0  2  0  0  0  0  0  0
  188.9320  177.5860  145.4490 C   0  0  0  0  0  0  0  0  0  0  0  0
  188.3670  177.7660  144.2450 N   0  0  0  0  0  0  0  0  0  0  0  0
  186.7640  177.7530  145.7650 C   0  0  0  0  0  3  0  0  0  0  0  0
  188.2290  177.3300  147.8710 C   0  0  2  0  0  3  0  0  0  0  0  0
  187.9670  177.6080  146.4230 C   0  0  0  0  0  0  0  0  0  0  0  0
  187.0590  177.8620  144.4520 N   0  0  0  0  0  0  0  0  0  0  0  0
  187.4820  178.1920  148.6730 O   0  0  0  0  0  1  0  0  0  0  0  0
  190.3970  177.4740  145.7350 C   0  0  0  0  0  2  0  0  0  0  0  0
  190.6090  176.8370  147.1160 C   0  0  1  0  0  3  0  0  0  0  0  0
  192.4080  175.6280  147.5590 C   0  0  0  0  0  1  0  0  0  0  0  0
  191.9530  176.9450  147.4800 O   0  0  0  0  0  0  0  0  0  0  0  0
  188.1750  177.8860  141.8630 C   0  0  1  0  0  3  0  0  0  0  0  0
  188.6500  176.4830  142.2120 C   0  0  0  0  0  1  0  0  0  0  0  0
  188.6790  178.3500  140.4950 C   0  0  0  0  0  2  0  0  0  0  0  0
  190.1020  177.8800  140.2150 C   0  0  0  0  0  2  0  0  0  0  0  0
  190.1480  176.9720  138.9940 C   0  0  1  0  0  3  0  0  0  0  0  0
  188.9890  178.4030  137.2590 C   0  0  0  0  0  3  0  0  0  0  0  0
  185.9130  175.4490  136.8330 C   0  0  0  0  0  1  0  0  0  0  0  0
  187.9470  178.6090  136.3490 C   0  0  0  0  0  3  0  0  0  0  0  0
  186.9710  176.4880  136.9750 C   0  0  0  0  0  0  0  0  0  0  0  0
  185.9080  177.8810  135.3010 O   0  0  0  0  0  1  0  0  0  0  0  0
  186.9330  177.6580  136.2090 C   0  0  0  0  0  0  0  0  0  0  0  0
  188.0140  176.2830  137.8830 C   0  0  0  0  0  3  0  0  0  0  0  0
  189.0180  177.2410  138.0400 C   0  0  0  0  0  0  0  0  0  0  0  0
  192.5230  176.8520  139.1890 O   0  0  0  0  0  0  0  0  0  0  0  0
  191.4810  177.1300  138.2860 C   0  0  1  0  0  3  0  0  0  0  0  0
  192.1980  175.8400  138.2700 C   0  0  1  0  0  3  0  0  0  0  0  0
  194.4890  175.6080  137.6920 O   0  0  0  0  0  1  0  0  0  0  0  0
  193.2210  175.8320  137.1570 C   0  0  0  0  0  2  0  0  0  0  0  0
  180.7760  179.4290  143.0330 N   0  0  0  0  0  2  0  0  0  0  0  0
  179.6810  177.5150  144.3390 N   0  0  0  0  0  0  0  0  0  0  0  0
  180.1740  178.3810  143.7480 C   0  0  0  0  0  0  0  0  0  0  0  0
  1  3  1  1  0  0  0
  3  2  2  0  0  0  0
  4  9  1  0  0  0  0
  5  6  1  0  0  0  0
  6  2  1  1  0  0  0
  6 20  1  0  0  0  0
  7 11  1  0  0  0  0
  7  1  1  0  0  0  0
  8  4  1  0  0  0  0
  8  7  2  0  0  0  0
  9 10  2  0  0  0  0
  9  1  1  0  0  0  0
 10 44  1  0  0  0  0
 11  5  2  0  0  0  0
 12  4  1  0  0  0  0
 12 13  1  0  0  0  0
 13 10  1  0  0  0  0
 15 22  1  0  0  0  0
 15 19  1  0  0  0  0
 16 20  1  0  0  0  0
 16 15  2  0  0  0  0
 17 19  2  0  0  0  0
 18 14  1  0  0  0  0
 18 21  1  1  0  0  0
 19 18  1  0  0  0  0
 20 17  1  0  0  0  0
 22 23  1  0  0  0  0
 23 25  1  1  0  0  0
 23 14  1  0  0  0  0
 25 24  1  0  0  0  0
 26  5  1  0  0  0  0
 26 27  1  6  0  0  0
 28 26  1  0  0  0  0
 29 28  1  0  0  0  0
 30 29  1  1  0  0  0
 31 38  1  0  0  0  0
 32 34  1  0  0  0  0
 33 31  2  0  0  0  0
 34 37  1  0  0  0  0
 35 36  1  0  0  0  0
 36 33  1  0  0  0  0
 36 34  2  0  0  0  0
 37 38  2  0  0  0  0
 38 30  1  0  0  0  0
 40 30  1  1  0  0  0
 40 39  1  0  0  0  0
 41 43  1  6  0  0  0
 41 40  1  0  0  0  0
 41 39  1  0  0  0  0
 43 42  1  0  0  0  0
 44 46  1  0  0  0  0
 46 45  3  0  0  0  0
M  END
>  <MODEL>
6

>  <REMARK>
 VINA RESULT:      -7.8      3.323      8.355
  Name = 
  11 active torsions:
  status: ('A' for Active; 'I' for Inactive)
    1  A    between atoms: C_3  and  C_17
    2  A    between atoms: C_3  and  C_42
    3  A    between atoms: C_3  and  C_44
    4  A    between atoms: C_8  and  C_16
    5  A    between atoms: C_8  and  C_28
    6  A    between atoms: C_12  and  C_19
    7  A    between atoms: C_18  and  N_27
    8  A    between atoms: C_28  and  C_44
    9  A    between atoms: C_34  and  N_45
   10  A    between atoms: C_36  and  O_43
   11  A    between atoms: N_45  and  C_46
                            x       y       z     vdW  Elec       q    Type
                         _______ _______ _______ _____ _____    ______ ____

>  <TORSDO>
F 11

$$$$
=
 OpenBabel10222416193D

 46 52  0  0  1  0  0  0  0  0999 V2000
  192.0090  176.5950  137.3940 C   0  0  2  0  0  3  0  0  0  0  0  0
  190.3680  175.9730  139.1210 C   0  0  0  0  0  3  0  0  0  0  0  0
  191.4730  175.6580  138.4350 C   0  0  0  0  0  3  0  0  0  0  0  0
  192.8070  175.8690  135.2940 N   0  0  0  0  0  0  0  0  0  0  0  0
  188.9700  177.2790  137.4940 C   0  0  0  0  0  0  0  0  0  0  0  0
  189.6420  177.2640  138.8560 C   0  0  1  0  0  3  0  0  0  0  0  0
  191.0070  176.6740  136.2560 C   0  0  0  0  0  0  0  0  0  0  0  0
  191.4700  176.2260  135.1280 N   0  0  0  0  0  0  0  0  0  0  0  0
  193.1520  176.0000  136.6360 C   0  0  0  0  0  0  0  0  0  0  0  0
  194.2240  175.3220  137.0150 C   0  0  0  0  0  0  0  0  0  0  0  0
  189.6250  177.0330  136.3930 N   0  0  0  0  0  0  0  0  0  0  0  0
  193.5110  174.8180  134.5940 C   0  0  0  0  0  2  0  0  0  0  0  0
  194.9410  174.3830  135.6640 S   0  0  0  0  0  0  0  0  0  0  0  0
  186.1270  178.1110  143.7020 C   0  0  0  0  0  2  0  0  0  0  0  0
  187.0650  178.3890  141.0310 C   0  0  0  0  0  0  0  0  0  0  0  0
  187.6080  178.2880  139.8070 N   0  0  0  0  0  0  0  0  0  0  0  0
  188.9010  177.1970  141.2280 C   0  0  0  0  0  3  0  0  0  0  0  0
  187.5720  177.6790  143.4110 C   0  0  2  0  0  3  0  0  0  0  0  0
  187.8250  177.6910  141.9350 C   0  0  0  0  0  0  0  0  0  0  0  0
  188.7160  177.5680  139.9430 N   0  0  0  0  0  0  0  0  0  0  0  0
  187.7860  176.4030  143.9280 O   0  0  0  0  0  1  0  0  0  0  0  0
  185.7770  179.0660  141.3770 C   0  0  0  0  0  2  0  0  0  0  0  0
  185.7330  179.3570  142.8850 C   0  0  1  0  0  3  0  0  0  0  0  0
  183.7220  178.5900  143.3950 C   0  0  0  0  0  1  0  0  0  0  0  0
  184.4480  179.7720  143.2430 O   0  0  0  0  0  0  0  0  0  0  0  0
  187.5020  177.5970  137.3980 C   0  0  1  0  0  3  0  0  0  0  0  0
  187.2310  178.7530  136.4470 C   0  0  0  0  0  1  0  0  0  0  0  0
  186.6530  176.3650  137.0790 C   0  0  0  0  0  2  0  0  0  0  0  0
  185.2250  176.7330  136.6930 C   0  0  0  0  0  2  0  0  0  0  0  0
  184.2160  175.9420  137.5150 C   0  0  1  0  0  3  0  0  0  0  0  0
  182.6820  176.3230  139.4910 C   0  0  0  0  0  3  0  0  0  0  0  0
  182.4740  180.5020  138.5620 C   0  0  0  0  0  1  0  0  0  0  0  0
  181.9240  177.1780  140.2960 C   0  0  0  0  0  3  0  0  0  0  0  0
  182.5310  179.0510  138.8930 C   0  0  0  0  0  0  0  0  0  0  0  0
  181.0830  179.3720  140.8100 O   0  0  0  0  0  1  0  0  0  0  0  0
  181.8400  178.5400  139.9980 C   0  0  0  0  0  0  0  0  0  0  0  0
  183.2900  178.1950  138.0890 C   0  0  0  0  0  3  0  0  0  0  0  0
  183.3590  176.8290  138.3730 C   0  0  0  0  0  0  0  0  0  0  0  0
  184.1590  174.1990  135.8870 O   0  0  0  0  0  0  0  0  0  0  0  0
  183.3480  175.1040  136.5950 C   0  0  1  0  0  3  0  0  0  0  0  0
  183.4380  173.6810  136.9760 C   0  0  1  0  0  3  0  0  0  0  0  0
  182.0950  171.7320  137.1590 O   0  0  0  0  0  1  0  0  0  0  0  0
  182.2310  172.9320  136.4620 C   0  0  0  0  0  2  0  0  0  0  0  0
  194.7020  175.2030  138.3580 N   0  0  0  0  0  2  0  0  0  0  0  0
  196.8180  173.9130  139.0080 N   0  0  0  0  0  0  0  0  0  0  0  0
  195.8620  174.4970  138.7150 C   0  0  0  0  0  0  0  0  0  0  0  0
  1  3  1  1  0  0  0
  3  2  2  0  0  0  0
  4  9  1  0  0  0  0
  5  6  1  0  0  0  0
  6  2  1  1  0  0  0
  6 20  1  0  0  0  0
  7 11  1  0  0  0  0
  7  1  1  0  0  0  0
  8  4  1  0  0  0  0
  8  7  2  0  0  0  0
  9 10  2  0  0  0  0
  9  1  1  0  0  0  0
 10 44  1  0  0  0  0
 11  5  2  0  0  0  0
 12  4  1  0  0  0  0
 12 13  1  0  0  0  0
 13 10  1  0  0  0  0
 15 22  1  0  0  0  0
 15 19  1  0  0  0  0
 16 20  1  0  0  0  0
 16 15  2  0  0  0  0
 17 19  2  0  0  0  0
 18 14  1  0  0  0  0
 18 21  1  6  0  0  0
 19 18  1  0  0  0  0
 20 17  1  0  0  0  0
 22 23  1  0  0  0  0
 23 25  1  1  0  0  0
 23 14  1  0  0  0  0
 25 24  1  0  0  0  0
 26 27  1  6  0  0  0
 26  5  1  0  0  0  0
 28 26  1  0  0  0  0
 29 28  1  0  0  0  0
 30 29  1  6  0  0  0
 30 38  1  0  0  0  0
 31 33  1  0  0  0  0
 32 34  1  0  0  0  0
 34 36  1  0  0  0  0
 36 33  2  0  0  0  0
 36 35  1  0  0  0  0
 37 38  1  0  0  0  0
 37 34  2  0  0  0  0
 38 31  2  0  0  0  0
 39 40  1  0  0  0  0
 39 41  1  0  0  0  0
 40 41  1  0  0  0  0
 40 30  1  1  0  0  0
 41 43  1  6  0  0  0
 43 42  1  0  0  0  0
 44 46  1  0  0  0  0
 46 45  3  0  0  0  0
M  END
>  <MODEL>
7

>  <REMARK>
 VINA RESULT:      -7.5      3.837      9.087
  Name = 
  11 active torsions:
  status: ('A' for Active; 'I' for Inactive)
    1  A    between atoms: C_3  and  C_17
    2  A    between atoms: C_3  and  C_42
    3  A    between atoms: C_3  and  C_44
    4  A    between atoms: C_8  and  C_16
    5  A    between atoms: C_8  and  C_28
    6  A    between atoms: C_12  and  C_19
    7  A    between atoms: C_18  and  N_27
    8  A    between atoms: C_28  and  C_44
    9  A    between atoms: C_34  and  N_45
   10  A    between atoms: C_36  and  O_43
   11  A    between atoms: N_45  and  C_46
                            x       y       z     vdW  Elec       q    Type
                         _______ _______ _______ _____ _____    ______ ____

>  <TORSDO>
F 11

$$$$
=
 OpenBabel10222416193D

 46 52  0  0  1  0  0  0  0  0999 V2000
  188.6480  176.8650  138.1460 C   0  0  2  0  0  3  0  0  0  0  0  0
  187.0420  178.6830  137.7230 C   0  0  0  0  0  3  0  0  0  0  0  0
  188.2170  178.1140  137.4350 C   0  0  0  0  0  3  0  0  0  0  0  0
  190.8460  176.5240  138.9370 N   0  0  0  0  0  0  0  0  0  0  0  0
  186.7050  178.2240  140.1690 C   0  0  0  0  0  0  0  0  0  0  0  0
  186.1370  178.0880  138.7670 C   0  0  1  0  0  3  0  0  0  0  0  0
  188.8690  177.1970  139.6110 C   0  0  0  0  0  0  0  0  0  0  0  0
  190.0990  177.0380  139.9960 N   0  0  0  0  0  0  0  0  0  0  0  0
  190.0480  176.4730  137.7990 C   0  0  0  0  0  0  0  0  0  0  0  0
  190.7030  176.4080  136.6490 C   0  0  0  0  0  0  0  0  0  0  0  0
  187.8980  177.7970  140.4790 N   0  0  0  0  0  0  0  0  0  0  0  0
  192.2480  176.7600  138.6770 C   0  0  0  0  0  2  0  0  0  0  0  0
  192.4820  176.4250  136.8850 S   0  0  0  0  0  0  0  0  0  0  0  0
  180.3850  179.8040  138.0360 C   0  0  0  0  0  2  0  0  0  0  0  0
  183.1390  179.9980  138.7200 C   0  0  0  0  0  0  0  0  0  0  0  0
  184.4700  179.9060  138.8710 N   0  0  0  0  0  0  0  0  0  0  0  0
  183.6910  177.9020  138.3610 C   0  0  0  0  0  3  0  0  0  0  0  0
  181.1620  178.4910  138.2250 C   0  0  2  0  0  3  0  0  0  0  0  0
  182.6250  178.7770  138.3670 C   0  0  0  0  0  0  0  0  0  0  0  0
  184.7870  178.6340  138.6520 N   0  0  0  0  0  0  0  0  0  0  0  0
  180.9360  177.6580  137.1320 O   0  0  0  0  0  1  0  0  0  0  0  0
  182.3200  181.2470  138.8180 C   0  0  0  0  0  2  0  0  0  0  0  0
  180.8440  180.8820  139.0360 C   0  0  1  0  0  3  0  0  0  0  0  0
  179.2010  182.0090  139.9990 C   0  0  0  0  0  1  0  0  0  0  0  0
  180.0550  182.0260  138.8940 O   0  0  0  0  0  0  0  0  0  0  0  0
  185.8690  178.8620  141.2460 C   0  0  1  0  0  3  0  0  0  0  0  0
  184.4440  178.3310  141.2500 C   0  0  0  0  0  1  0  0  0  0  0  0
  186.5270  178.7800  142.6250 C   0  0  0  0  0  2  0  0  0  0  0  0
  185.9670  177.6370  143.4640 C   0  0  0  0  0  2  0  0  0  0  0  0
  186.9210  177.2700  144.5930 C   0  0  1  0  0  3  0  0  0  0  0  0
  188.7340  176.0170  143.3490 C   0  0  0  0  0  3  0  0  0  0  0  0
  191.5370  179.1360  144.2360 C   0  0  0  0  0  1  0  0  0  0  0  0
  190.0490  175.9240  142.8840 C   0  0  0  0  0  3  0  0  0  0  0  0
  190.5770  178.0410  143.9260 C   0  0  0  0  0  0  0  0  0  0  0  0
  192.2750  176.8180  142.7050 O   0  0  0  0  0  1  0  0  0  0  0  0
  190.9750  176.9290  143.1760 C   0  0  0  0  0  0  0  0  0  0  0  0
  189.2600  178.1340  144.3890 C   0  0  0  0  0  3  0  0  0  0  0  0
  188.3380  177.1210  144.1170 C   0  0  0  0  0  0  0  0  0  0  0  0
  185.6540  178.1350  146.4200 O   0  0  0  0  0  0  0  0  0  0  0  0
  186.8430  178.3140  145.6920 C   0  0  1  0  0  3  0  0  0  0  0  0
  186.8350  177.6560  147.0120 C   0  0  1  0  0  3  0  0  0  0  0  0
  188.3060  178.0500  148.8330 O   0  0  0  0  0  1  0  0  0  0  0  0
  187.2870  178.6280  148.0760 C   0  0  0  0  0  2  0  0  0  0  0  0
  190.1100  176.4680  135.3490 N   0  0  0  0  0  2  0  0  0  0  0  0
  188.1490  174.9950  134.6050 N   0  0  0  0  0  0  0  0  0  0  0  0
  189.0340  175.6620  134.9420 C   0  0  0  0  0  0  0  0  0  0  0  0
  1  3  1  6  0  0  0
  1  7  1  0  0  0  0
  3  2  2  0  0  0  0
  4  8  1  0  0  0  0
  5 11  2  0  0  0  0
  5 26  1  0  0  0  0
  6  2  1  6  0  0  0
  6  5  1  0  0  0  0
  7  8  2  0  0  0  0
  7 11  1  0  0  0  0
  9  1  1  0  0  0  0
  9  4  1  0  0  0  0
 10 13  1  0  0  0  0
 10  9  2  0  0  0  0
 12  4  1  0  0  0  0
 13 12  1  0  0  0  0
 14 18  1  0  0  0  0
 14 23  1  0  0  0  0
 15 22  1  0  0  0  0
 15 16  2  0  0  0  0
 17 19  2  0  0  0  0
 17 20  1  0  0  0  0
 18 21  1  6  0  0  0
 18 19  1  0  0  0  0
 19 15  1  0  0  0  0
 20  6  1  0  0  0  0
 20 16  1  0  0  0  0
 22 23  1  0  0  0  0
 23 25  1  6  0  0  0
 25 24  1  0  0  0  0
 26 27  1  1  0  0  0
 26 28  1  0  0  0  0
 28 29  1  0  0  0  0
 30 29  1  6  0  0  0
 31 38  1  0  0  0  0
 33 36  1  0  0  0  0
 33 31  2  0  0  0  0
 34 32  1  0  0  0  0
 34 37  1  0  0  0  0
 35 36  1  0  0  0  0
 36 34  2  0  0  0  0
 38 37  2  0  0  0  0
 38 30  1  0  0  0  0
 39 41  1  0  0  0  0
 40 30  1  6  0  0  0
 40 39  1  0  0  0  0
 40 41  1  0  0  0  0
 41 43  1  1  0  0  0
 43 42  1  0  0  0  0
 44 10  1  0  0  0  0
 45 46  3  0  0  0  0
 46 44  1  0  0  0  0
M  END
>  <MODEL>
8

>  <REMARK>
 VINA RESULT:      -7.3      3.254      8.385
  Name = 
  11 active torsions:
  status: ('A' for Active; 'I' for Inactive)
    1  A    between atoms: C_3  and  C_17
    2  A    between atoms: C_3  and  C_42
    3  A    between atoms: C_3  and  C_44
    4  A    between atoms: C_8  and  C_16
    5  A    between atoms: C_8  and  C_28
    6  A    between atoms: C_12  and  C_19
    7  A    between atoms: C_18  and  N_27
    8  A    between atoms: C_28  and  C_44
    9  A    between atoms: C_34  and  N_45
   10  A    between atoms: C_36  and  O_43
   11  A    between atoms: N_45  and  C_46
                            x       y       z     vdW  Elec       q    Type
                         _______ _______ _______ _____ _____    ______ ____

>  <TORSDO>
F 11

$$$$
=
 OpenBabel10222416193D

 46 52  0  0  1  0  0  0  0  0999 V2000
  189.7010  176.4620  142.7750 C   0  0  2  0  0  3  0  0  0  0  0  0
  191.3920  177.1380  141.1180 C   0  0  0  0  0  3  0  0  0  0  0  0
  190.9520  177.1900  142.3800 C   0  0  0  0  0  3  0  0  0  0  0  0
  188.0540  177.4000  144.1830 N   0  0  0  0  0  0  0  0  0  0  0  0
  189.3040  176.9950  139.7300 C   0  0  0  0  0  0  0  0  0  0  0  0
  190.6390  176.3590  140.0740 C   0  0  1  0  0  3  0  0  0  0  0  0
  188.5250  177.1040  142.0600 C   0  0  0  0  0  0  0  0  0  0  0  0
  187.6640  177.6460  142.8670 N   0  0  0  0  0  0  0  0  0  0  0  0
  189.2930  176.7660  144.1800 C   0  0  0  0  0  0  0  0  0  0  0  0
  189.9710  176.8420  145.3160 C   0  0  0  0  0  0  0  0  0  0  0  0
  188.4140  177.2780  140.6410 N   0  0  0  0  0  0  0  0  0  0  0  0
  187.8200  178.2550  145.3250 C   0  0  0  0  0  2  0  0  0  0  0  0
  189.0910  177.7820  146.5660 S   0  0  0  0  0  0  0  0  0  0  0  0
  193.7790  174.8870  135.1210 C   0  0  0  0  0  2  0  0  0  0  0  0
  192.9970  176.3780  137.4140 C   0  0  0  0  0  0  0  0  0  0  0  0
  192.5400  176.8590  138.5810 N   0  0  0  0  0  0  0  0  0  0  0  0
  191.2310  175.1890  137.9610 C   0  0  0  0  0  3  0  0  0  0  0  0
  192.3850  174.6080  135.7050 C   0  0  2  0  0  3  0  0  0  0  0  0
  192.2270  175.3150  137.0160 C   0  0  0  0  0  0  0  0  0  0  0  0
  191.4740  176.1320  138.8970 N   0  0  0  0  0  0  0  0  0  0  0  0
  192.2200  173.2350  135.8730 O   0  0  0  0  0  1  0  0  0  0  0  0
  194.2140  176.8420  136.6780 C   0  0  0  0  0  2  0  0  0  0  0  0
  194.1440  176.3810  135.2150 C   0  0  1  0  0  3  0  0  0  0  0  0
  195.7090  177.9190  134.9350 C   0  0  0  0  0  1  0  0  0  0  0  0
  195.3740  176.6080  134.5940 O   0  0  0  0  0  0  0  0  0  0  0  0
  188.9810  177.3050  138.2930 C   0  0  1  0  0  3  0  0  0  0  0  0
  188.6090  176.0540  137.5110 C   0  0  0  0  0  1  0  0  0  0  0  0
  187.9390  178.4150  138.1510 C   0  0  0  0  0  2  0  0  0  0  0  0
  186.9640  178.1490  137.0090 C   0  0  0  0  0  2  0  0  0  0  0  0
  185.5220  178.2540  137.4850 C   0  0  1  0  0  3  0  0  0  0  0  0
  183.5420  177.1360  136.3740 C   0  0  0  0  0  3  0  0  0  0  0  0
  184.9910  173.2910  137.5930 C   0  0  0  0  0  1  0  0  0  0  0  0
  182.8320  175.9830  136.0260 C   0  0  0  0  0  3  0  0  0  0  0  0
  184.4710  174.6210  137.1690 C   0  0  0  0  0  0  0  0  0  0  0  0
  182.5710  173.5920  136.0710 O   0  0  0  0  0  1  0  0  0  0  0  0
  183.2890  174.7250  136.4270 C   0  0  0  0  0  0  0  0  0  0  0  0
  185.1800  175.7750  137.5150 C   0  0  0  0  0  3  0  0  0  0  0  0
  184.7150  177.0360  137.1340 C   0  0  0  0  0  0  0  0  0  0  0  0
  184.9330  179.7520  139.2460 O   0  0  0  0  0  0  0  0  0  0  0  0
  185.4920  178.4890  138.9840 C   0  0  1  0  0  3  0  0  0  0  0  0
  184.0980  178.6390  139.4420 C   0  0  1  0  0  3  0  0  0  0  0  0
  182.6650  178.2700  141.2990 O   0  0  0  0  0  1  0  0  0  0  0  0
  184.0050  178.3420  140.9210 C   0  0  0  0  0  2  0  0  0  0  0  0
  191.3080  176.3770  145.5190 N   0  0  0  0  0  2  0  0  0  0  0  0
  192.4290  176.2260  147.8180 N   0  0  0  0  0  0  0  0  0  0  0  0
  191.9240  176.2930  146.7780 C   0  0  0  0  0  0  0  0  0  0  0  0
  1  3  1  6  0  0  0
  1  9  1  0  0  0  0
  2  3  2  0  0  0  0
  4 12  1  0  0  0  0
  5  6  1  0  0  0  0
  5 11  2  0  0  0  0
  6 20  1  6  0  0  0
  6  2  1  0  0  0  0
  7  1  1  0  0  0  0
  7  8  2  0  0  0  0
  8  4  1  0  0  0  0
  9  4  1  0  0  0  0
  9 10  2  0  0  0  0
 10 44  1  0  0  0  0
 10 13  1  0  0  0  0
 11  7  1  0  0  0  0
 12 13  1  0  0  0  0
 14 23  1  0  0  0  0
 14 18  1  0  0  0  0
 15 16  2  0  0  0  0
 16 20  1  0  0  0  0
 17 20  1  0  0  0  0
 18 21  1  1  0  0  0
 18 19  1  0  0  0  0
 19 15  1  0  0  0  0
 19 17  2  0  0  0  0
 22 15  1  0  0  0  0
 23 25  1  1  0  0  0
 23 22  1  0  0  0  0
 25 24  1  0  0  0  0
 26 27  1  1  0  0  0
 26  5  1  0  0  0  0
 28 26  1  0  0  0  0
 29 28  1  0  0  0  0
 30 29  1  1  0  0  0
 31 38  1  0  0  0  0
 33 31  2  0  0  0  0
 33 36  1  0  0  0  0
 34 37  1  0  0  0  0
 34 32  1  0  0  0  0
 35 36  1  0  0  0  0
 36 34  2  0  0  0  0
 38 30  1  0  0  0  0
 38 37  2  0  0  0  0
 39 41  1  0  0  0  0
 40 30  1  6  0  0  0
 40 39  1  0  0  0  0
 40 41  1  0  0  0  0
 41 43  1  1  0  0  0
 43 42  1  0  0  0  0
 44 46  1  0  0  0  0
 46 45  3  0  0  0  0
M  END
>  <MODEL>
9

>  <REMARK>
 VINA RESULT:      -7.2      3.510      7.272
  Name = 
  11 active torsions:
  status: ('A' for Active; 'I' for Inactive)
    1  A    between atoms: C_3  and  C_17
    2  A    between atoms: C_3  and  C_42
    3  A    between atoms: C_3  and  C_44
    4  A    between atoms: C_8  and  C_16
    5  A    between atoms: C_8  and  C_28
    6  A    between atoms: C_12  and  C_19
    7  A    between atoms: C_18  and  N_27
    8  A    between atoms: C_28  and  C_44
    9  A    between atoms: C_34  and  N_45
   10  A    between atoms: C_36  and  O_43
   11  A    between atoms: N_45  and  C_46
                            x       y       z     vdW  Elec       q    Type
                         _______ _______ _______ _____ _____    ______ ____

>  <TORSDO>
F 11

$$$$
