=
 OpenBabel10222420113D

 27 31  0  0  1  0  0  0  0  0999 V2000
  186.6520  177.6310  144.6390 C   0  0  0  0  0  3  0  0  0  0  0  0
  187.9990  177.2750  144.6740 C   0  0  0  0  0  0  0  0  0  0  0  0
  188.1300  177.6260  142.2780 C   0  0  0  0  0  0  0  0  0  0  0  0
  188.7420  177.2730  143.4880 C   0  0  0  0  0  3  0  0  0  0  0  0
  186.0580  177.9820  143.4200 C   0  0  0  0  0  0  0  0  0  0  0  0
  186.8110  177.9710  142.2840 N   0  0  0  0  0  0  0  0  0  0  0  0
  190.0050  176.8390  140.8320 C   0  0  0  0  0  0  0  0  0  0  0  0
  190.7590  176.8590  139.5680 C   0  0  0  0  0  3  0  0  0  0  0  0
  190.4500  175.9770  141.8290 O   0  0  0  0  0  1  0  0  0  0  0  0
  188.9870  179.2210  137.6800 O   0  0  0  0  0  0  0  0  0  0  0  0
  190.4190  177.6280  138.5830 N   0  0  0  0  0  0  0  0  0  0  0  0
  188.9230  177.6330  141.0140 C   0  0  0  0  0  0  0  0  0  0  0  0
  188.4790  178.5870  139.9220 C   0  0  0  0  0  2  0  0  0  0  0  0
  189.2930  178.5040  138.6670 C   0  0  0  0  0  0  0  0  0  0  0  0
  182.5780  179.0850  144.4450 C   0  0  0  0  0  3  0  0  0  0  0  0
  184.6310  178.3650  143.3560 C   0  0  0  0  0  0  0  0  0  0  0  0
  180.4860  179.4710  143.1350 C   0  0  0  0  0  1  0  0  0  0  0  0
  183.9270  178.7250  144.5160 C   0  0  0  0  0  3  0  0  0  0  0  0
  183.9600  178.3710  142.1230 C   0  0  0  0  0  3  0  0  0  0  0  0
  182.6110  178.7310  142.0510 C   0  0  0  0  0  3  0  0  0  0  0  0
  181.9210  179.0880  143.2120 C   0  0  0  0  0  0  0  0  0  0  0  0
  188.4310  178.7890  148.4060 C   0  0  0  0  0  2  0  0  0  0  0  0
  189.6550  177.9190  146.4220 C   0  0  0  0  0  2  0  0  0  0  0  0
  188.6220  176.9020  145.9840 C   0  0  1  0  0  3  0  0  0  0  0  0
  188.3120  177.2780  148.3640 C   0  0  2  0  0  3  0  0  0  0  0  0
  189.6080  177.9540  147.9400 C   0  0  2  0  0  3  0  0  0  0  0  0
  187.5990  176.8440  147.0950 C   0  0  0  0  0  2  0  0  0  0  0  0
  1  2  1  0  0  0  0
  3  6  2  0  0  0  0
  3  4  1  0  0  0  0
  4  2  2  0  0  0  0
  5  1  2  0  0  0  0
  6  5  1  0  0  0  0
  7 12  2  0  0  0  0
  7  9  1  0  0  0  0
  8  7  1  0  0  0  0
 10 14  2  0  0  0  0
 11 14  1  0  0  0  0
 11  8  2  0  0  0  0
 12  3  1  0  0  0  0
 13 12  1  0  0  0  0
 14 13  1  0  0  0  0
 15 18  1  0  0  0  0
 16  5  1  0  0  0  0
 16 18  2  0  0  0  0
 17 21  1  0  0  0  0
 19 16  1  0  0  0  0
 20 19  2  0  0  0  0
 20 21  1  0  0  0  0
 21 15  2  0  0  0  0
 24  2  1  6  0  0  0
 24 23  1  0  0  0  0
 24 27  1  0  0  0  0
 25 27  1  6  0  0  0
 25 22  1  0  0  0  0
 26 23  1  6  0  0  0
 26 25  1  0  0  0  0
 26 22  1  0  0  0  0
M  END
>  <MODEL>
1

>  <REMARK>
 VINA RESULT:     -10.2      0.000      0.000
  Name = 
  3 active torsions:
  status: ('A' for Active; 'I' for Inactive)
    1  A    between atoms: C_5  and  C_11
    2  A    between atoms: C_6  and  C_17
    3  A    between atoms: C_7  and  C_18
                            x       y       z     vdW  Elec       q    Type
                         _______ _______ _______ _____ _____    ______ ____

>  <TORSDO>
F 3

$$$$
=
 OpenBabel10222420113D

 27 31  0  0  1  0  0  0  0  0999 V2000
  189.1860  177.8420  142.1760 C   0  0  0  0  0  3  0  0  0  0  0  0
  188.3220  178.2470  141.1600 C   0  0  0  0  0  0  0  0  0  0  0  0
  186.4910  178.2460  142.7520 C   0  0  0  0  0  0  0  0  0  0  0  0
  186.9680  178.4520  141.4500 C   0  0  0  0  0  3  0  0  0  0  0  0
  188.6920  177.6440  143.4720 C   0  0  0  0  0  0  0  0  0  0  0  0
  187.3690  177.8530  143.7190 N   0  0  0  0  0  0  0  0  0  0  0  0
  184.6120  178.7410  144.3160 C   0  0  0  0  0  0  0  0  0  0  0  0
  183.1840  178.9730  144.5890 C   0  0  0  0  0  3  0  0  0  0  0  0
  185.4870  178.8040  145.3950 O   0  0  0  0  0  1  0  0  0  0  0  0
  181.7530  178.6530  141.4060 O   0  0  0  0  0  0  0  0  0  0  0  0
  182.2940  178.9350  143.6490 N   0  0  0  0  0  0  0  0  0  0  0  0
  185.0490  178.4720  143.0640 C   0  0  0  0  0  0  0  0  0  0  0  0
  184.0680  178.3760  141.9110 C   0  0  0  0  0  2  0  0  0  0  0  0
  182.6470  178.6630  142.2920 C   0  0  0  0  0  0  0  0  0  0  0  0
  190.0280  176.8720  146.9350 C   0  0  0  0  0  3  0  0  0  0  0  0
  189.5890  177.2160  144.5670 C   0  0  0  0  0  0  0  0  0  0  0  0
  192.2160  175.9640  147.7260 C   0  0  0  0  0  1  0  0  0  0  0  0
  189.1730  177.2800  145.9070 C   0  0  0  0  0  3  0  0  0  0  0  0
  190.8760  176.7370  144.2750 C   0  0  0  0  0  3  0  0  0  0  0  0
  191.7310  176.3300  145.3030 C   0  0  0  0  0  3  0  0  0  0  0  0
  191.3070  176.3980  146.6330 C   0  0  0  0  0  0  0  0  0  0  0  0
  189.1360  176.0960  137.8270 C   0  0  0  0  0  2  0  0  0  0  0  0
  190.1050  177.6270  139.5330 C   0  0  0  0  0  2  0  0  0  0  0  0
  188.8630  178.4570  139.7800 C   0  0  1  0  0  3  0  0  0  0  0  0
  188.6780  177.5140  137.5480 C   0  0  2  0  0  3  0  0  0  0  0  0
  190.0870  177.2530  138.0610 C   0  0  2  0  0  3  0  0  0  0  0  0
  187.8670  178.0420  138.7200 C   0  0  0  0  0  2  0  0  0  0  0  0
  1  5  1  0  0  0  0
  2  4  1  0  0  0  0
  2  1  2  0  0  0  0
  3 12  1  0  0  0  0
  3  6  1  0  0  0  0
  4  3  2  0  0  0  0
  5  6  2  0  0  0  0
  5 16  1  0  0  0  0
  7  8  1  0  0  0  0
  7  9  1  0  0  0  0
 10 14  2  0  0  0  0
 11  8  2  0  0  0  0
 12  7  2  0  0  0  0
 13 14  1  0  0  0  0
 13 12  1  0  0  0  0
 14 11  1  0  0  0  0
 16 18  1  0  0  0  0
 18 15  2  0  0  0  0
 19 16  2  0  0  0  0
 19 20  1  0  0  0  0
 20 21  2  0  0  0  0
 21 15  1  0  0  0  0
 21 17  1  0  0  0  0
 23 24  1  0  0  0  0
 24  2  1  1  0  0  0
 25 22  1  1  0  0  0
 25 26  1  0  0  0  0
 25 27  1  0  0  0  0
 26 22  1  1  0  0  0
 26 23  1  0  0  0  0
 27 24  1  0  0  0  0
M  END
>  <MODEL>
2

>  <REMARK>
 VINA RESULT:     -10.2      2.680      7.550
  Name = 
  3 active torsions:
  status: ('A' for Active; 'I' for Inactive)
    1  A    between atoms: C_5  and  C_11
    2  A    between atoms: C_6  and  C_17
    3  A    between atoms: C_7  and  C_18
                            x       y       z     vdW  Elec       q    Type
                         _______ _______ _______ _____ _____    ______ ____

>  <TORSDO>
F 3

$$$$
=
 OpenBabel10222420113D

 27 31  0  0  1  0  0  0  0  0999 V2000
  186.7560  177.7000  144.5960 C   0  0  0  0  0  3  0  0  0  0  0  0
  188.1120  177.3790  144.6160 C   0  0  0  0  0  0  0  0  0  0  0  0
  188.1900  177.6680  142.2090 C   0  0  0  0  0  0  0  0  0  0  0  0
  188.8330  177.3640  143.4160 C   0  0  0  0  0  3  0  0  0  0  0  0
  186.1310  178.0030  143.3810 C   0  0  0  0  0  0  0  0  0  0  0  0
  186.8630  177.9800  142.2310 N   0  0  0  0  0  0  0  0  0  0  0  0
  188.4420  178.1270  139.7700 C   0  0  0  0  0  0  0  0  0  0  0  0
  189.2320  178.1190  138.5280 C   0  0  0  0  0  3  0  0  0  0  0  0
  187.1460  178.6280  139.7000 O   0  0  0  0  0  1  0  0  0  0  0  0
  192.2790  176.7530  139.5890 O   0  0  0  0  0  0  0  0  0  0  0  0
  190.4470  177.6740  138.4950 N   0  0  0  0  0  0  0  0  0  0  0  0
  188.9590  177.6600  140.9310 C   0  0  0  0  0  0  0  0  0  0  0  0
  190.3640  177.0890  140.9700 C   0  0  0  0  0  2  0  0  0  0  0  0
  191.0910  177.1600  139.6620 C   0  0  0  0  0  0  0  0  0  0  0  0
  182.6340  179.0080  144.4470 C   0  0  0  0  0  3  0  0  0  0  0  0
  184.6930  178.3480  143.3330 C   0  0  0  0  0  0  0  0  0  0  0  0
  180.5190  179.3450  143.1620 C   0  0  0  0  0  1  0  0  0  0  0  0
  183.9930  178.6840  144.5030 C   0  0  0  0  0  3  0  0  0  0  0  0
  184.0090  178.3430  142.1070 C   0  0  0  0  0  3  0  0  0  0  0  0
  182.6510  178.6670  142.0520 C   0  0  0  0  0  3  0  0  0  0  0  0
  181.9640  179.0000  143.2220 C   0  0  0  0  0  0  0  0  0  0  0  0
  188.0490  178.6280  148.4680 C   0  0  0  0  0  2  0  0  0  0  0  0
  189.5070  178.2530  146.4870 C   0  0  0  0  0  2  0  0  0  0  0  0
  188.7690  177.0580  145.9230 C   0  0  1  0  0  3  0  0  0  0  0  0
  188.3060  177.1420  148.3070 C   0  0  2  0  0  3  0  0  0  0  0  0
  189.4080  178.1460  147.9990 C   0  0  2  0  0  3  0  0  0  0  0  0
  187.7580  176.6590  146.9750 C   0  0  0  0  0  2  0  0  0  0  0  0
  1  2  1  0  0  0  0
  3  6  2  0  0  0  0
  3  4  1  0  0  0  0
  4  2  2  0  0  0  0
  5  1  2  0  0  0  0
  6  5  1  0  0  0  0
  7 12  2  0  0  0  0
  8  7  1  0  0  0  0
  9  7  1  0  0  0  0
 10 14  2  0  0  0  0
 11  8  2  0  0  0  0
 11 14  1  0  0  0  0
 12 13  1  0  0  0  0
 12  3  1  0  0  0  0
 14 13  1  0  0  0  0
 15 18  1  0  0  0  0
 16  5  1  0  0  0  0
 16 18  2  0  0  0  0
 17 21  1  0  0  0  0
 19 16  1  0  0  0  0
 20 19  2  0  0  0  0
 20 21  1  0  0  0  0
 21 15  2  0  0  0  0
 24  2  1  6  0  0  0
 24 23  1  0  0  0  0
 24 27  1  0  0  0  0
 25 27  1  6  0  0  0
 25 22  1  0  0  0  0
 26 23  1  6  0  0  0
 26 25  1  0  0  0  0
 26 22  1  0  0  0  0
M  END
>  <MODEL>
3

>  <REMARK>
 VINA RESULT:      -9.9      0.824      1.574
  Name = 
  3 active torsions:
  status: ('A' for Active; 'I' for Inactive)
    1  A    between atoms: C_5  and  C_11
    2  A    between atoms: C_6  and  C_17
    3  A    between atoms: C_7  and  C_18
                            x       y       z     vdW  Elec       q    Type
                         _______ _______ _______ _____ _____    ______ ____

>  <TORSDO>
F 3

$$$$
=
 OpenBabel10222420113D

 27 31  0  0  1  0  0  0  0  0999 V2000
  188.0610  178.1100  144.2230 C   0  0  0  0  0  3  0  0  0  0  0  0
  189.4210  177.9150  143.9910 C   0  0  0  0  0  0  0  0  0  0  0  0
  188.9630  177.7090  141.6180 C   0  0  0  0  0  0  0  0  0  0  0  0
  189.8750  177.7150  142.6820 C   0  0  0  0  0  3  0  0  0  0  0  0
  187.1650  178.1030  143.1460 C   0  0  0  0  0  0  0  0  0  0  0  0
  187.6400  177.9060  141.8850 N   0  0  0  0  0  0  0  0  0  0  0  0
  188.7640  177.9560  139.1440 C   0  0  0  0  0  0  0  0  0  0  0  0
  189.2740  177.7500  137.7790 C   0  0  0  0  0  3  0  0  0  0  0  0
  187.5530  178.6270  139.2790 O   0  0  0  0  0  1  0  0  0  0  0  0
  192.2830  176.0470  138.3560 O   0  0  0  0  0  0  0  0  0  0  0  0
  190.3930  177.1370  137.5540 N   0  0  0  0  0  0  0  0  0  0  0  0
  189.4470  177.5040  140.2220 C   0  0  0  0  0  0  0  0  0  0  0  0
  190.7480  176.7450  140.0430 C   0  0  0  0  0  2  0  0  0  0  0  0
  191.1940  176.6210  138.6170 C   0  0  0  0  0  0  0  0  0  0  0  0
  183.8370  178.7410  144.8480 C   0  0  0  0  0  3  0  0  0  0  0  0
  185.7160  178.3090  143.3650 C   0  0  0  0  0  0  0  0  0  0  0  0
  181.5050  178.9020  143.9670 C   0  0  0  0  0  1  0  0  0  0  0  0
  185.2070  178.5490  144.6520 C   0  0  0  0  0  3  0  0  0  0  0  0
  184.8280  178.2650  142.2790 C   0  0  0  0  0  3  0  0  0  0  0  0
  183.4580  178.4580  142.4750 C   0  0  0  0  0  3  0  0  0  0  0  0
  182.9630  178.6960  143.7590 C   0  0  0  0  0  0  0  0  0  0  0  0
  190.5720  175.5020  147.0340 C   0  0  0  0  0  2  0  0  0  0  0  0
  189.6460  177.7410  146.4680 C   0  0  0  0  0  2  0  0  0  0  0  0
  190.3690  177.9260  145.1500 C   0  0  1  0  0  3  0  0  0  0  0  0
  191.6810  176.3830  146.4930 C   0  0  2  0  0  3  0  0  0  0  0  0
  190.5940  176.9790  147.3770 C   0  0  2  0  0  3  0  0  0  0  0  0
  191.3720  176.7970  145.0650 C   0  0  0  0  0  2  0  0  0  0  0  0
  2  1  1  0  0  0  0
  3  6  2  0  0  0  0
  3  4  1  0  0  0  0
  4  2  2  0  0  0  0
  5 16  1  0  0  0  0
  5  1  2  0  0  0  0
  6  5  1  0  0  0  0
  7  9  1  0  0  0  0
  7 12  2  0  0  0  0
  8  7  1  0  0  0  0
 10 14  2  0  0  0  0
 11  8  2  0  0  0  0
 11 14  1  0  0  0  0
 12  3  1  0  0  0  0
 13 12  1  0  0  0  0
 14 13  1  0  0  0  0
 16 18  2  0  0  0  0
 18 15  1  0  0  0  0
 19 20  2  0  0  0  0
 19 16  1  0  0  0  0
 20 21  1  0  0  0  0
 21 17  1  0  0  0  0
 21 15  2  0  0  0  0
 22 26  1  0  0  0  0
 24  2  1  6  0  0  0
 24 23  1  0  0  0  0
 25 27  1  6  0  0  0
 25 22  1  0  0  0  0
 25 26  1  0  0  0  0
 26 23  1  6  0  0  0
 27 24  1  0  0  0  0
M  END
>  <MODEL>
4

>  <REMARK>
 VINA RESULT:      -9.8      1.508      2.375
  Name = 
  3 active torsions:
  status: ('A' for Active; 'I' for Inactive)
    1  A    between atoms: C_5  and  C_11
    2  A    between atoms: C_6  and  C_17
    3  A    between atoms: C_7  and  C_18
                            x       y       z     vdW  Elec       q    Type
                         _______ _______ _______ _____ _____    ______ ____

>  <TORSDO>
F 3

$$$$
=
 OpenBabel10222420113D

 27 31  0  0  1  0  0  0  0  0999 V2000
  186.6110  178.5080  141.3990 C   0  0  0  0  0  3  0  0  0  0  0  0
  187.9920  178.3270  141.3530 C   0  0  0  0  0  0  0  0  0  0  0  0
  187.9870  177.8600  143.7330 C   0  0  0  0  0  0  0  0  0  0  0  0
  188.6840  178.0000  142.5250 C   0  0  0  0  0  3  0  0  0  0  0  0
  185.9310  178.3620  142.6150 C   0  0  0  0  0  0  0  0  0  0  0  0
  186.6350  178.0420  143.7370 N   0  0  0  0  0  0  0  0  0  0  0  0
  188.1260  177.4990  146.1980 C   0  0  0  0  0  0  0  0  0  0  0  0
  188.8740  177.1290  147.4090 C   0  0  0  0  0  3  0  0  0  0  0  0
  186.7880  177.8470  146.3540 O   0  0  0  0  0  1  0  0  0  0  0  0
  192.0550  176.4040  146.1300 O   0  0  0  0  0  0  0  0  0  0  0  0
  190.1230  176.7880  147.3630 N   0  0  0  0  0  0  0  0  0  0  0  0
  188.7210  177.5030  144.9820 C   0  0  0  0  0  0  0  0  0  0  0  0
  190.1900  177.1510  144.8450 C   0  0  0  0  0  2  0  0  0  0  0  0
  190.8480  176.7570  146.1330 C   0  0  0  0  0  0  0  0  0  0  0  0
  182.2820  178.6290  141.6230 C   0  0  0  0  0  3  0  0  0  0  0  0
  184.4660  178.5470  142.6910 C   0  0  0  0  0  0  0  0  0  0  0  0
  180.2130  179.0920  142.9440 C   0  0  0  0  0  1  0  0  0  0  0  0
  183.6660  178.4510  141.5410 C   0  0  0  0  0  3  0  0  0  0  0  0
  183.8560  178.8250  143.9240 C   0  0  0  0  0  3  0  0  0  0  0  0
  182.4720  179.0020  144.0060 C   0  0  0  0  0  3  0  0  0  0  0  0
  181.6850  178.9040  142.8560 C   0  0  0  0  0  0  0  0  0  0  0  0
  188.8400  176.1590  138.0380 C   0  0  0  0  0  2  0  0  0  0  0  0
  189.8310  177.4820  139.8980 C   0  0  0  0  0  2  0  0  0  0  0  0
  188.7070  178.4860  140.0470 C   0  0  1  0  0  3  0  0  0  0  0  0
  188.6310  177.6370  137.7710 C   0  0  2  0  0  3  0  0  0  0  0  0
  189.9210  177.1520  138.4180 C   0  0  2  0  0  3  0  0  0  0  0  0
  187.7840  178.2530  138.8710 C   0  0  0  0  0  2  0  0  0  0  0  0
  1  5  1  0  0  0  0
  2  1  2  0  0  0  0
  2  4  1  0  0  0  0
  3  6  1  0  0  0  0
  3 12  1  0  0  0  0
  4  3  2  0  0  0  0
  5 16  1  0  0  0  0
  5  6  2  0  0  0  0
  7  9  1  0  0  0  0
  7  8  1  0  0  0  0
 10 14  2  0  0  0  0
 11  8  2  0  0  0  0
 12  7  2  0  0  0  0
 13 12  1  0  0  0  0
 13 14  1  0  0  0  0
 14 11  1  0  0  0  0
 15 21  1  0  0  0  0
 16 19  2  0  0  0  0
 18 15  2  0  0  0  0
 18 16  1  0  0  0  0
 19 20  1  0  0  0  0
 21 17  1  0  0  0  0
 21 20  2  0  0  0  0
 23 24  1  0  0  0  0
 24  2  1  1  0  0  0
 25 22  1  1  0  0  0
 25 26  1  0  0  0  0
 25 27  1  0  0  0  0
 26 22  1  1  0  0  0
 26 23  1  0  0  0  0
 27 24  1  0  0  0  0
M  END
>  <MODEL>
5

>  <REMARK>
 VINA RESULT:      -9.7      2.521      5.876
  Name = 
  3 active torsions:
  status: ('A' for Active; 'I' for Inactive)
    1  A    between atoms: C_5  and  C_11
    2  A    between atoms: C_6  and  C_17
    3  A    between atoms: C_7  and  C_18
                            x       y       z     vdW  Elec       q    Type
                         _______ _______ _______ _____ _____    ______ ____

>  <TORSDO>
F 3

$$$$
=
 OpenBabel10222420113D

 27 31  0  0  1  0  0  0  0  0999 V2000
  189.4080  177.7890  141.9430 C   0  0  0  0  0  3  0  0  0  0  0  0
  188.5790  178.1920  140.8970 C   0  0  0  0  0  0  0  0  0  0  0  0
  186.7050  178.2490  142.4360 C   0  0  0  0  0  0  0  0  0  0  0  0
  187.2210  178.4250  141.1450 C   0  0  0  0  0  3  0  0  0  0  0  0
  188.8750  177.6210  143.2270 C   0  0  0  0  0  0  0  0  0  0  0  0
  187.5490  177.8570  143.4340 N   0  0  0  0  0  0  0  0  0  0  0  0
  184.3290  178.5020  141.7210 C   0  0  0  0  0  0  0  0  0  0  0  0
  182.9080  178.7450  142.0190 C   0  0  0  0  0  3  0  0  0  0  0  0
  184.6730  178.2730  140.3930 O   0  0  0  0  0  1  0  0  0  0  0  0
  182.9400  179.1920  145.4950 O   0  0  0  0  0  0  0  0  0  0  0  0
  182.4920  178.9660  143.2260 N   0  0  0  0  0  0  0  0  0  0  0  0
  185.2600  178.5060  142.7040 C   0  0  0  0  0  0  0  0  0  0  0  0
  184.8610  178.7910  144.1390 C   0  0  0  0  0  2  0  0  0  0  0  0
  183.3880  178.9900  144.3370 C   0  0  0  0  0  0  0  0  0  0  0  0
  191.7940  176.2150  145.1950 C   0  0  0  0  0  3  0  0  0  0  0  0
  189.7330  177.1950  144.3540 C   0  0  0  0  0  0  0  0  0  0  0  0
  192.2010  175.9670  147.6470 C   0  0  0  0  0  1  0  0  0  0  0  0
  190.9910  176.6150  144.1240 C   0  0  0  0  0  3  0  0  0  0  0  0
  189.2930  177.3660  145.6760 C   0  0  0  0  0  3  0  0  0  0  0  0
  190.0960  176.9670  146.7470 C   0  0  0  0  0  3  0  0  0  0  0  0
  191.3460  176.3910  146.5070 C   0  0  0  0  0  0  0  0  0  0  0  0
  189.2390  176.0230  137.5410 C   0  0  0  0  0  2  0  0  0  0  0  0
  190.3210  177.4260  139.2870 C   0  0  0  0  0  2  0  0  0  0  0  0
  189.1620  178.3690  139.5290 C   0  0  1  0  0  3  0  0  0  0  0  0
  188.9250  177.4830  137.2790 C   0  0  2  0  0  3  0  0  0  0  0  0
  190.2940  177.0790  137.8090 C   0  0  2  0  0  3  0  0  0  0  0  0
  188.1490  178.0690  138.4460 C   0  0  0  0  0  2  0  0  0  0  0  0
  1  5  1  0  0  0  0
  2  4  1  0  0  0  0
  2  1  2  0  0  0  0
  3 12  1  0  0  0  0
  3  6  1  0  0  0  0
  4  3  2  0  0  0  0
  5  6  2  0  0  0  0
  5 16  1  0  0  0  0
  7  8  1  0  0  0  0
  7 12  2  0  0  0  0
  8 11  2  0  0  0  0
  9  7  1  0  0  0  0
 11 14  1  0  0  0  0
 12 13  1  0  0  0  0
 13 14  1  0  0  0  0
 14 10  2  0  0  0  0
 15 21  1  0  0  0  0
 16 19  2  0  0  0  0
 18 16  1  0  0  0  0
 18 15  2  0  0  0  0
 19 20  1  0  0  0  0
 21 20  2  0  0  0  0
 21 17  1  0  0  0  0
 23 24  1  0  0  0  0
 24  2  1  1  0  0  0
 25 22  1  1  0  0  0
 25 26  1  0  0  0  0
 25 27  1  0  0  0  0
 26 22  1  1  0  0  0
 26 23  1  0  0  0  0
 27 24  1  0  0  0  0
M  END
>  <MODEL>
6

>  <REMARK>
 VINA RESULT:      -9.6      2.645      7.701
  Name = 
  3 active torsions:
  status: ('A' for Active; 'I' for Inactive)
    1  A    between atoms: C_5  and  C_11
    2  A    between atoms: C_6  and  C_17
    3  A    between atoms: C_7  and  C_18
                            x       y       z     vdW  Elec       q    Type
                         _______ _______ _______ _____ _____    ______ ____

>  <TORSDO>
F 3

$$$$
=
 OpenBabel10222420113D

 27 31  0  0  1  0  0  0  0  0999 V2000
  188.0320  177.5610  144.1870 C   0  0  0  0  0  3  0  0  0  0  0  0
  186.8110  177.6820  144.8480 C   0  0  0  0  0  0  0  0  0  0  0  0
  185.7480  178.2160  142.7340 C   0  0  0  0  0  0  0  0  0  0  0  0
  185.6630  178.0090  144.1180 C   0  0  0  0  0  3  0  0  0  0  0  0
  188.0970  177.7680  142.8040 C   0  0  0  0  0  0  0  0  0  0  0  0
  186.9600  178.0850  142.1240 N   0  0  0  0  0  0  0  0  0  0  0  0
  184.5660  178.8750  140.6380 C   0  0  0  0  0  0  0  0  0  0  0  0
  183.3380  179.1930  139.8930 C   0  0  0  0  0  3  0  0  0  0  0  0
  185.7680  178.9200  139.9400 O   0  0  0  0  0  1  0  0  0  0  0  0
  180.8600  178.8300  142.3440 O   0  0  0  0  0  0  0  0  0  0  0  0
  182.1720  179.1760  140.4570 N   0  0  0  0  0  0  0  0  0  0  0  0
  184.5230  178.5560  141.9540 C   0  0  0  0  0  0  0  0  0  0  0  0
  183.2020  178.5480  142.6980 C   0  0  0  0  0  2  0  0  0  0  0  0
  182.0120  178.8520  141.8390 C   0  0  0  0  0  0  0  0  0  0  0  0
  191.8080  177.4880  142.0780 C   0  0  0  0  0  3  0  0  0  0  0  0
  189.3810  177.6450  142.0790 C   0  0  0  0  0  0  0  0  0  0  0  0
  193.0910  177.2880  139.9440 C   0  0  0  0  0  1  0  0  0  0  0  0
  190.6010  177.6040  142.7730 C   0  0  0  0  0  3  0  0  0  0  0  0
  189.3920  177.5690  140.6770 C   0  0  0  0  0  3  0  0  0  0  0  0
  190.5990  177.4530  139.9830 C   0  0  0  0  0  3  0  0  0  0  0  0
  191.8070  177.4120  140.6840 C   0  0  0  0  0  0  0  0  0  0  0  0
  188.9650  178.5500  148.1670 C   0  0  0  0  0  2  0  0  0  0  0  0
  187.9700  176.7040  146.8260 C   0  0  0  0  0  2  0  0  0  0  0  0
  186.7550  177.4560  146.3270 C   0  0  1  0  0  3  0  0  0  0  0  0
  187.4670  178.5110  148.3970 C   0  0  2  0  0  3  0  0  0  0  0  0
  188.2470  177.2150  148.2290 C   0  0  2  0  0  3  0  0  0  0  0  0
  186.7310  178.7610  147.0920 C   0  0  0  0  0  2  0  0  0  0  0  0
  1  2  1  0  0  0  0
  3  4  1  0  0  0  0
  4  2  2  0  0  0  0
  5  1  2  0  0  0  0
  6  3  2  0  0  0  0
  6  5  1  0  0  0  0
  7 12  2  0  0  0  0
  8 11  2  0  0  0  0
  8  7  1  0  0  0  0
  9  7  1  0  0  0  0
 11 14  1  0  0  0  0
 12 13  1  0  0  0  0
 12  3  1  0  0  0  0
 14 10  2  0  0  0  0
 14 13  1  0  0  0  0
 15 18  1  0  0  0  0
 16 18  2  0  0  0  0
 16  5  1  0  0  0  0
 17 21  1  0  0  0  0
 19 16  1  0  0  0  0
 20 19  2  0  0  0  0
 20 21  1  0  0  0  0
 21 15  2  0  0  0  0
 22 26  1  0  0  0  0
 22 25  1  0  0  0  0
 24  2  1  6  0  0  0
 24 23  1  0  0  0  0
 24 27  1  0  0  0  0
 25 27  1  6  0  0  0
 26 23  1  6  0  0  0
 26 25  1  0  0  0  0
M  END
>  <MODEL>
7

>  <REMARK>
 VINA RESULT:      -9.5      2.505      6.095
  Name = 
  3 active torsions:
  status: ('A' for Active; 'I' for Inactive)
    1  A    between atoms: C_5  and  C_11
    2  A    between atoms: C_6  and  C_17
    3  A    between atoms: C_7  and  C_18
                            x       y       z     vdW  Elec       q    Type
                         _______ _______ _______ _____ _____    ______ ____

>  <TORSDO>
F 3

$$$$
=
 OpenBabel10222420113D

 27 31  0  0  1  0  0  0  0  0999 V2000
  187.4910  178.1990  143.3840 C   0  0  0  0  0  3  0  0  0  0  0  0
  186.7240  178.5480  142.2730 C   0  0  0  0  0  0  0  0  0  0  0  0
  188.5300  177.8150  140.8280 C   0  0  0  0  0  0  0  0  0  0  0  0
  187.2460  178.3540  140.9890 C   0  0  0  0  0  3  0  0  0  0  0  0
  188.7710  177.6590  143.2030 C   0  0  0  0  0  0  0  0  0  0  0  0
  189.2470  177.4830  141.9390 N   0  0  0  0  0  0  0  0  0  0  0  0
  188.4310  178.0020  138.3420 C   0  0  0  0  0  0  0  0  0  0  0  0
  189.0100  177.7870  137.0060 C   0  0  0  0  0  3  0  0  0  0  0  0
  187.1910  178.6280  138.4090 O   0  0  0  0  0  1  0  0  0  0  0  0
  192.0520  176.2160  137.7530 O   0  0  0  0  0  0  0  0  0  0  0  0
  190.1600  177.2140  136.8440 N   0  0  0  0  0  0  0  0  0  0  0  0
  189.0830  177.6000  139.4590 C   0  0  0  0  0  0  0  0  0  0  0  0
  190.4190  176.8890  139.3550 C   0  0  0  0  0  2  0  0  0  0  0  0
  190.9330  176.7530  137.9530 C   0  0  0  0  0  0  0  0  0  0  0  0
  189.9270  177.0870  146.7690 C   0  0  0  0  0  3  0  0  0  0  0  0
  189.6030  177.2800  144.3650 C   0  0  0  0  0  0  0  0  0  0  0  0
  192.0460  176.1670  147.7190 C   0  0  0  0  0  1  0  0  0  0  0  0
  189.1320  177.4480  145.6770 C   0  0  0  0  0  3  0  0  0  0  0  0
  190.8850  176.7430  144.1660 C   0  0  0  0  0  3  0  0  0  0  0  0
  191.6800  176.3810  145.2570 C   0  0  0  0  0  3  0  0  0  0  0  0
  191.2010  176.5530  146.5580 C   0  0  0  0  0  0  0  0  0  0  0  0
  183.8120  178.5990  145.0870 C   0  0  0  0  0  2  0  0  0  0  0  0
  184.3250  178.0420  142.7170 C   0  0  0  0  0  2  0  0  0  0  0  0
  185.3580  179.1230  142.4800 C   0  0  1  0  0  3  0  0  0  0  0  0
  183.9110  179.8780  144.2800 C   0  0  2  0  0  3  0  0  0  0  0  0
  183.2930  178.6310  143.6630 C   0  0  2  0  0  3  0  0  0  0  0  0
  185.3060  180.0210  143.6950 C   0  0  0  0  0  2  0  0  0  0  0  0
  2  1  2  0  0  0  0
  3  4  2  0  0  0  0
  3  6  1  0  0  0  0
  4  2  1  0  0  0  0
  5  1  1  0  0  0  0
  5 16  1  0  0  0  0
  6  5  2  0  0  0  0
  7  9  1  0  0  0  0
  7 12  2  0  0  0  0
  8  7  1  0  0  0  0
 10 14  2  0  0  0  0
 11  8  2  0  0  0  0
 11 14  1  0  0  0  0
 12  3  1  0  0  0  0
 13 12  1  0  0  0  0
 14 13  1  0  0  0  0
 16 18  1  0  0  0  0
 18 15  2  0  0  0  0
 19 16  2  0  0  0  0
 19 20  1  0  0  0  0
 20 21  2  0  0  0  0
 21 15  1  0  0  0  0
 21 17  1  0  0  0  0
 24  2  1  1  0  0  0
 24 23  1  0  0  0  0
 24 27  1  0  0  0  0
 25 27  1  6  0  0  0
 25 22  1  0  0  0  0
 26 23  1  6  0  0  0
 26 25  1  0  0  0  0
 26 22  1  0  0  0  0
M  END
>  <MODEL>
8

>  <REMARK>
 VINA RESULT:      -9.4      1.789      5.767
  Name = 
  3 active torsions:
  status: ('A' for Active; 'I' for Inactive)
    1  A    between atoms: C_5  and  C_11
    2  A    between atoms: C_6  and  C_17
    3  A    between atoms: C_7  and  C_18
                            x       y       z     vdW  Elec       q    Type
                         _______ _______ _______ _____ _____    ______ ____

>  <TORSDO>
F 3

$$$$
=
 OpenBabel10222420113D

 27 31  0  0  1  0  0  0  0  0999 V2000
  190.2840  177.3900  143.2320 C   0  0  0  0  0  3  0  0  0  0  0  0
  190.1060  177.4770  144.6120 C   0  0  0  0  0  0  0  0  0  0  0  0
  187.7550  177.9550  144.2540 C   0  0  0  0  0  0  0  0  0  0  0  0
  188.8350  177.7590  145.1260 C   0  0  0  0  0  3  0  0  0  0  0  0
  189.1920  177.5860  142.3770 C   0  0  0  0  0  0  0  0  0  0  0  0
  187.9680  177.8580  142.9100 N   0  0  0  0  0  0  0  0  0  0  0  0
  186.1260  178.2110  146.1260 C   0  0  0  0  0  0  0  0  0  0  0  0
  184.7800  178.5170  146.6360 C   0  0  0  0  0  3  0  0  0  0  0  0
  187.1030  177.8790  147.0590 O   0  0  0  0  0  1  0  0  0  0  0  0
  183.0160  179.2410  143.6950 O   0  0  0  0  0  0  0  0  0  0  0  0
  183.8070  178.8380  145.8430 N   0  0  0  0  0  0  0  0  0  0  0  0
  186.3970  178.2470  144.8000 C   0  0  0  0  0  0  0  0  0  0  0  0
  185.3050  178.5790  143.8020 C   0  0  0  0  0  2  0  0  0  0  0  0
  183.9830  178.9090  144.4280 C   0  0  0  0  0  0  0  0  0  0  0  0
  190.5460  176.6770  138.9540 C   0  0  0  0  0  3  0  0  0  0  0  0
  189.3550  177.4980  140.9090 C   0  0  0  0  0  0  0  0  0  0  0  0
  189.8000  177.2640  136.6440 C   0  0  0  0  0  1  0  0  0  0  0  0
  190.4010  176.7530  140.3420 C   0  0  0  0  0  3  0  0  0  0  0  0
  188.4570  178.1660  140.0620 C   0  0  0  0  0  3  0  0  0  0  0  0
  188.6020  178.0900  138.6740 C   0  0  0  0  0  3  0  0  0  0  0  0
  189.6460  177.3450  138.1200 C   0  0  0  0  0  0  0  0  0  0  0  0
  191.3000  174.9550  147.5480 C   0  0  0  0  0  2  0  0  0  0  0  0
  190.8860  177.3410  146.9750 C   0  0  0  0  0  2  0  0  0  0  0  0
  191.2800  177.2640  145.5160 C   0  0  1  0  0  3  0  0  0  0  0  0
  192.4310  175.4670  146.6780 C   0  0  2  0  0  3  0  0  0  0  0  0
  191.7950  176.3780  147.7190 C   0  0  2  0  0  3  0  0  0  0  0  0
  191.8950  175.8960  145.3220 C   0  0  0  0  0  2  0  0  0  0  0  0
  1  2  1  0  0  0  0
  2  4  2  0  0  0  0
  3 12  1  0  0  0  0
  3  4  1  0  0  0  0
  5  6  1  0  0  0  0
  5  1  2  0  0  0  0
  6  3  2  0  0  0  0
  7  8  1  0  0  0  0
  7  9  1  0  0  0  0
 10 14  2  0  0  0  0
 11  8  2  0  0  0  0
 12  7  2  0  0  0  0
 13 14  1  0  0  0  0
 13 12  1  0  0  0  0
 14 11  1  0  0  0  0
 15 18  1  0  0  0  0
 16  5  1  0  0  0  0
 17 21  1  0  0  0  0
 18 16  2  0  0  0  0
 19 16  1  0  0  0  0
 20 19  2  0  0  0  0
 21 20  1  0  0  0  0
 21 15  2  0  0  0  0
 22 26  1  0  0  0  0
 24  2  1  6  0  0  0
 24 23  1  0  0  0  0
 25 27  1  6  0  0  0
 25 22  1  0  0  0  0
 25 26  1  0  0  0  0
 26 23  1  6  0  0  0
 27 24  1  0  0  0  0
M  END
>  <MODEL>
9

>  <REMARK>
 VINA RESULT:      -9.4      2.807      6.281
  Name = 
  3 active torsions:
  status: ('A' for Active; 'I' for Inactive)
    1  A    between atoms: C_5  and  C_11
    2  A    between atoms: C_6  and  C_17
    3  A    between atoms: C_7  and  C_18
                            x       y       z     vdW  Elec       q    Type
                         _______ _______ _______ _____ _____    ______ ____

>  <TORSDO>
F 3

$$$$
