=
 OpenBabel10222420003D

 36 39  0  0  1  0  0  0  0  0999 V2000
  184.5950  178.2930  138.5750 C   0  0  0  0  0  0  0  0  0  0  0  0
  181.5680  179.0510  139.2730 C   0  0  2  0  0  3  0  0  0  0  0  0
  186.5120  174.6530  135.9490 O   0  0  0  0  0  0  0  0  0  0  0  0
  182.7350  179.9510  138.8640 C   0  0  0  0  0  2  0  0  0  0  0  0
  184.7950  176.2500  137.5510 C   0  0  0  0  0  2  0  0  0  0  0  0
  181.5400  177.7520  138.4560 C   0  0  1  0  0  3  0  0  0  0  0  0
  185.8590  178.2910  137.9330 N   0  0  0  0  0  0  0  0  0  0  0  0
  182.6160  176.7900  138.9410 C   0  0  0  0  0  2  0  0  0  0  0  0
  187.3870  175.5610  135.9310 C   0  0  0  0  0  0  0  0  0  0  0  0
  185.9810  177.1430  137.3530 C   0  0  0  0  0  0  0  0  0  0  0  0
  184.0930  179.4600  139.3720 C   0  0  1  0  0  3  0  0  0  0  0  0
  180.3150  177.1220  138.5850 F   0  0  0  0  0  0  0  0  0  0  0  0
  183.9540  177.1480  138.3850 C   0  0  0  0  0  0  0  0  0  0  0  0
  187.1560  176.8030  136.6120 N   0  0  0  0  0  2  0  0  0  0  0  0
  188.6210  175.3500  135.2270 N   0  0  0  0  0  0  0  0  0  0  0  0
  188.9100  174.0600  134.6210 C   0  0  0  0  0  1  0  0  0  0  0  0
  186.2350  179.7320  141.2390 O   0  0  0  0  0  0  0  0  0  0  0  0
  185.1520  179.2580  141.6760 C   0  0  0  0  0  0  0  0  0  0  0  0
  184.0310  179.1400  140.7940 N   0  0  0  0  0  2  0  0  0  0  0  0
  184.8160  178.5750  145.8610 C   0  0  0  0  0  0  0  0  0  0  0  0
  186.5720  178.3750  147.1280 C   0  0  0  0  0  3  0  0  0  0  0  0
  185.0540  178.8650  143.1080 C   0  0  0  0  0  0  0  0  0  0  0  0
  186.8620  177.6000  146.0880 C   0  0  0  0  0  3  0  0  0  0  0  0
  183.8840  179.3970  143.8690 C   0  0  0  0  0  3  0  0  0  0  0  0
  185.6930  177.6080  145.1570 C   0  0  2  0  0  3  0  0  0  0  0  0
  185.3050  179.0030  146.9720 N   0  0  0  0  0  0  0  0  0  0  0  0
  183.7920  179.2760  145.1610 N   0  0  0  0  0  0  0  0  0  0  0  0
  187.2030  177.5690  143.0790 C   0  0  0  0  0  1  0  0  0  0  0  0
  185.9780  178.0980  143.7550 C   0  0  0  0  0  0  0  0  0  0  0  0
  190.9480  175.8250  135.7830 C   0  0  0  0  0  1  0  0  0  0  0  0
  189.6580  176.3710  135.1980 C   0  0  0  0  0  2  0  0  0  0  0  0
  180.2790  179.8420  139.0960 C   0  0  0  0  0  2  0  0  0  0  0  0
  179.8220  180.4000  140.4050 C   0  0  0  0  0  0  0  0  0  0  0  0
  179.2350  181.4700  140.4440 O   0  0  0  0  0  0  0  0  0  0  0  0
  180.0460  179.6240  141.6600 C   0  0  0  0  0  2  0  0  0  0  0  0
  180.1400  180.5320  142.7900 N   0  0  0  0  0  1  0  0  0  0  0  0
  1 11  1  0  0  0  0
  2 32  1  6  0  0  0
  4  2  1  0  0  0  0
  4 11  1  0  0  0  0
  5 13  1  0  0  0  0
  6 12  1  1  0  0  0
  6  8  1  0  0  0  0
  6  2  1  0  0  0  0
  7  1  1  0  0  0  0
  9  3  2  0  0  0  0
  9 14  1  0  0  0  0
 10  5  1  0  0  0  0
 10  7  2  0  0  0  0
 11 19  1  1  0  0  0
 13  1  2  0  0  0  0
 13  8  1  0  0  0  0
 14 10  1  0  0  0  0
 15  9  1  0  0  0  0
 16 15  1  0  0  0  0
 17 18  2  0  0  0  0
 18 22  1  0  0  0  0
 19 18  1  0  0  0  0
 20 26  2  0  0  0  0
 22 29  2  0  0  0  0
 22 24  1  0  0  0  0
 23 21  2  0  0  0  0
 24 27  2  0  0  0  0
 25 20  1  0  0  0  0
 25 23  1  1  0  0  0
 26 21  1  0  0  0  0
 27 20  1  0  0  0  0
 28 29  1  0  0  0  0
 29 25  1  0  0  0  0
 31 15  1  0  0  0  0
 31 30  1  0  0  0  0
 32 33  1  0  0  0  0
 33 34  2  0  0  0  0
 33 35  1  0  0  0  0
 35 36  1  0  0  0  0
M  END
>  <MODEL>
1

>  <REMARK>
 VINA RESULT:      -8.3      0.000      0.000
  Name = 
  6 active torsions:
  status: ('A' for Active; 'I' for Inactive)
    1  A    between atoms: C_4  and  C_11
    2  A    between atoms: C_5  and  C_21
    3  A    between atoms: C_6  and  C_27
    4  A    between atoms: C_11  and  C_21
    5  A    between atoms: C_28  and  N_34
    6  A    between atoms: N_29  and  C_30
                            x       y       z     vdW  Elec       q    Type
                         _______ _______ _______ _____ _____    ______ ____

>  <TORSDO>
F 6

$$$$
=
 OpenBabel10222420003D

 36 39  0  0  1  0  0  0  0  0999 V2000
  190.5450  176.4720  138.0980 C   0  0  0  0  0  0  0  0  0  0  0  0
  187.4740  177.1610  137.5340 C   0  0  2  0  0  3  0  0  0  0  0  0
  193.4400  172.9140  136.4280 O   0  0  0  0  0  0  0  0  0  0  0  0
  188.6860  178.0890  137.6330 C   0  0  0  0  0  2  0  0  0  0  0  0
  191.1880  174.4510  137.2240 C   0  0  0  0  0  2  0  0  0  0  0  0
  187.8070  175.8760  136.7630 C   0  0  1  0  0  3  0  0  0  0  0  0
  191.9610  176.5050  138.0160 N   0  0  0  0  0  0  0  0  0  0  0  0
  188.6220  174.9260  137.6300 C   0  0  0  0  0  2  0  0  0  0  0  0
  194.2260  173.8390  136.7690 C   0  0  0  0  0  0  0  0  0  0  0  0
  192.3310  175.3700  137.5240 C   0  0  0  0  0  0  0  0  0  0  0  0
  189.7390  177.6160  138.6370 C   0  0  1  0  0  3  0  0  0  0  0  0
  186.6470  175.2200  136.3870 F   0  0  0  0  0  0  0  0  0  0  0  0
  190.0620  175.3190  137.6590 C   0  0  0  0  0  0  0  0  0  0  0  0
  193.7130  175.0640  137.3110 N   0  0  0  0  0  2  0  0  0  0  0  0
  195.6430  173.6630  136.6160 N   0  0  0  0  0  0  0  0  0  0  0  0
  196.1820  172.3890  136.1650 C   0  0  0  0  0  1  0  0  0  0  0  0
  188.6220  179.4620  140.5060 O   0  0  0  0  0  0  0  0  0  0  0  0
  188.6150  178.2440  140.8310 C   0  0  0  0  0  0  0  0  0  0  0  0
  189.1220  177.2710  139.9140 N   0  0  0  0  0  2  0  0  0  0  0  0
  186.7900  177.5110  144.6020 C   0  0  0  0  0  0  0  0  0  0  0  0
  187.8730  177.7970  146.4670 C   0  0  0  0  0  3  0  0  0  0  0  0
  188.0440  177.8450  142.1460 C   0  0  0  0  0  0  0  0  0  0  0  0
  188.7400  177.1250  145.7160 C   0  0  0  0  0  3  0  0  0  0  0  0
  186.5750  178.0440  142.3260 C   0  0  0  0  0  3  0  0  0  0  0  0
  188.0850  176.8140  144.4090 C   0  0  2  0  0  3  0  0  0  0  0  0
  186.6660  178.0590  145.7610 N   0  0  0  0  0  0  0  0  0  0  0  0
  186.0000  177.9070  143.4860 N   0  0  0  0  0  0  0  0  0  0  0  0
  190.2670  177.1760  143.1020 C   0  0  0  0  0  1  0  0  0  0  0  0
  188.7840  177.3580  143.1840 C   0  0  0  0  0  0  0  0  0  0  0  0
  197.1070  175.4300  135.7880 C   0  0  0  0  0  1  0  0  0  0  0  0
  196.5810  174.7040  137.0120 C   0  0  0  0  0  2  0  0  0  0  0  0
  186.3450  177.9300  136.8620 C   0  0  0  0  0  2  0  0  0  0  0  0
  185.1440  177.9800  137.7500 C   0  0  0  0  0  0  0  0  0  0  0  0
  184.0870  177.4930  137.3790 O   0  0  0  0  0  0  0  0  0  0  0  0
  185.2510  178.5860  139.1090 C   0  0  0  0  0  2  0  0  0  0  0  0
  184.5120  179.8350  139.1510 N   0  0  0  0  0  1  0  0  0  0  0  0
  1 11  1  0  0  0  0
  2 32  1  6  0  0  0
  2  4  1  0  0  0  0
  3  9  2  0  0  0  0
  4 11  1  0  0  0  0
  5 10  1  0  0  0  0
  5 13  1  0  0  0  0
  6 12  1  1  0  0  0
  6  2  1  0  0  0  0
  6  8  1  0  0  0  0
  7  1  1  0  0  0  0
  8 13  1  0  0  0  0
  9 14  1  0  0  0  0
 10  7  2  0  0  0  0
 11 19  1  1  0  0  0
 13  1  2  0  0  0  0
 14 10  1  0  0  0  0
 15  9  1  0  0  0  0
 15 31  1  0  0  0  0
 16 15  1  0  0  0  0
 17 18  2  0  0  0  0
 18 22  1  0  0  0  0
 19 18  1  0  0  0  0
 20 26  2  0  0  0  0
 22 24  1  0  0  0  0
 22 29  2  0  0  0  0
 23 21  2  0  0  0  0
 24 27  2  0  0  0  0
 25 20  1  0  0  0  0
 25 23  1  1  0  0  0
 26 21  1  0  0  0  0
 27 20  1  0  0  0  0
 28 29  1  0  0  0  0
 29 25  1  0  0  0  0
 30 31  1  0  0  0  0
 32 33  1  0  0  0  0
 33 35  1  0  0  0  0
 34 33  2  0  0  0  0
 35 36  1  0  0  0  0
M  END
>  <MODEL>
2

>  <REMARK>
 VINA RESULT:      -7.8      3.615      5.631
  Name = 
  6 active torsions:
  status: ('A' for Active; 'I' for Inactive)
    1  A    between atoms: C_4  and  C_11
    2  A    between atoms: C_5  and  C_21
    3  A    between atoms: C_6  and  C_27
    4  A    between atoms: C_11  and  C_21
    5  A    between atoms: C_28  and  N_34
    6  A    between atoms: N_29  and  C_30
                            x       y       z     vdW  Elec       q    Type
                         _______ _______ _______ _____ _____    ______ ____

>  <TORSDO>
F 6

$$$$
=
 OpenBabel10222420003D

 36 39  0  0  1  0  0  0  0  0999 V2000
  191.4380  176.1110  137.6770 C   0  0  0  0  0  0  0  0  0  0  0  0
  188.4540  176.3410  136.5540 C   0  0  2  0  0  3  0  0  0  0  0  0
  194.8860  172.7090  137.0740 O   0  0  0  0  0  0  0  0  0  0  0  0
  189.5410  177.4100  136.6770 C   0  0  0  0  0  2  0  0  0  0  0  0
  192.4010  174.0710  137.2570 C   0  0  0  0  0  2  0  0  0  0  0  0
  189.0270  175.0040  136.0650 C   0  0  1  0  0  3  0  0  0  0  0  0
  192.8380  176.2970  137.8030 N   0  0  0  0  0  0  0  0  0  0  0  0
  189.7710  174.2960  137.1900 C   0  0  0  0  0  2  0  0  0  0  0  0
  195.5170  173.7600  137.3700 C   0  0  0  0  0  0  0  0  0  0  0  0
  193.3890  175.1530  137.5680 C   0  0  0  0  0  0  0  0  0  0  0  0
  190.4510  177.2190  137.8920 C   0  0  1  0  0  3  0  0  0  0  0  0
  188.0120  174.1670  135.6340 F   0  0  0  0  0  0  0  0  0  0  0  0
  191.1430  174.8560  137.3680 C   0  0  0  0  0  0  0  0  0  0  0  0
  194.8090  174.9840  137.6180 N   0  0  0  0  0  2  0  0  0  0  0  0
  196.9490  173.7320  137.4620 N   0  0  0  0  0  0  0  0  0  0  0  0
  197.6710  172.4770  137.3150 C   0  0  0  0  0  1  0  0  0  0  0  0
  189.0850  179.2300  139.3880 O   0  0  0  0  0  0  0  0  0  0  0  0
  189.0340  178.0530  139.8340 C   0  0  0  0  0  0  0  0  0  0  0  0
  189.6640  176.9970  139.1010 N   0  0  0  0  0  2  0  0  0  0  0  0
  186.8230  177.7240  143.4520 C   0  0  0  0  0  0  0  0  0  0  0  0
  187.8090  177.6630  145.3900 C   0  0  0  0  0  3  0  0  0  0  0  0
  188.2890  177.7820  141.0930 C   0  0  0  0  0  0  0  0  0  0  0  0
  188.5210  176.8080  144.6630 C   0  0  0  0  0  3  0  0  0  0  0  0
  186.9140  178.3560  141.1930 C   0  0  0  0  0  3  0  0  0  0  0  0
  187.9000  176.7160  143.3060 C   0  0  2  0  0  3  0  0  0  0  0  0
  186.7660  178.2540  144.6240 N   0  0  0  0  0  0  0  0  0  0  0  0
  186.2440  178.3450  142.3090 N   0  0  0  0  0  0  0  0  0  0  0  0
  190.1870  176.5250  142.1510 C   0  0  0  0  0  1  0  0  0  0  0  0
  188.8010  177.0890  142.1510 C   0  0  0  0  0  0  0  0  0  0  0  0
  198.0590  174.9020  139.2930 C   0  0  0  0  0  1  0  0  0  0  0  0
  197.7070  174.9230  137.8160 C   0  0  0  0  0  2  0  0  0  0  0  0
  187.3860  176.8630  135.6020 C   0  0  0  0  0  2  0  0  0  0  0  0
  186.0300  176.7380  136.2170 C   0  0  0  0  0  0  0  0  0  0  0  0
  185.1510  176.1130  135.6420 O   0  0  0  0  0  0  0  0  0  0  0  0
  185.7640  177.3410  137.5550 C   0  0  0  0  0  2  0  0  0  0  0  0
  186.2560  178.7070  137.5860 N   0  0  0  0  0  1  0  0  0  0  0  0
  1  7  1  0  0  0  0
  1 11  1  0  0  0  0
  2 32  1  6  0  0  0
  2  4  1  0  0  0  0
  3  9  2  0  0  0  0
  4 11  1  0  0  0  0
  5 13  1  0  0  0  0
  5 10  1  0  0  0  0
  6 12  1  1  0  0  0
  6  2  1  0  0  0  0
  6  8  1  0  0  0  0
  8 13  1  0  0  0  0
  9 15  1  0  0  0  0
  9 14  1  0  0  0  0
 10 14  1  0  0  0  0
 10  7  2  0  0  0  0
 11 19  1  1  0  0  0
 13  1  2  0  0  0  0
 15 31  1  0  0  0  0
 16 15  1  0  0  0  0
 17 18  2  0  0  0  0
 18 22  1  0  0  0  0
 19 18  1  0  0  0  0
 20 26  2  0  0  0  0
 22 24  1  0  0  0  0
 22 29  2  0  0  0  0
 23 21  2  0  0  0  0
 24 27  2  0  0  0  0
 25 20  1  0  0  0  0
 25 23  1  1  0  0  0
 26 21  1  0  0  0  0
 27 20  1  0  0  0  0
 28 29  1  0  0  0  0
 29 25  1  0  0  0  0
 31 30  1  0  0  0  0
 32 33  1  0  0  0  0
 33 35  1  0  0  0  0
 34 33  2  0  0  0  0
 35 36  1  0  0  0  0
M  END
>  <MODEL>
3

>  <REMARK>
 VINA RESULT:      -7.7      4.211      6.870
  Name = 
  6 active torsions:
  status: ('A' for Active; 'I' for Inactive)
    1  A    between atoms: C_4  and  C_11
    2  A    between atoms: C_5  and  C_21
    3  A    between atoms: C_6  and  C_27
    4  A    between atoms: C_11  and  C_21
    5  A    between atoms: C_28  and  N_34
    6  A    between atoms: N_29  and  C_30
                            x       y       z     vdW  Elec       q    Type
                         _______ _______ _______ _____ _____    ______ ____

>  <TORSDO>
F 6

$$$$
=
 OpenBabel10222420003D

 36 39  0  0  1  0  0  0  0  0999 V2000
  183.1030  177.0740  139.1750 C   0  0  0  0  0  0  0  0  0  0  0  0
  181.1480  179.3470  140.2880 C   0  0  2  0  0  3  0  0  0  0  0  0
  182.2100  172.8190  136.9560 O   0  0  0  0  0  0  0  0  0  0  0  0
  182.4540  179.4740  139.5020 C   0  0  0  0  0  2  0  0  0  0  0  0
  181.9930  175.1720  138.5320 C   0  0  0  0  0  2  0  0  0  0  0  0
  180.2710  178.2100  139.7480 C   0  0  1  0  0  3  0  0  0  0  0  0
  183.9830  176.3710  138.3140 N   0  0  0  0  0  0  0  0  0  0  0  0
  180.8150  176.8570  140.1890 C   0  0  0  0  0  2  0  0  0  0  0  0
  183.3800  173.1310  136.6010 C   0  0  0  0  0  0  0  0  0  0  0  0
  183.3660  175.2980  137.9470 C   0  0  0  0  0  0  0  0  0  0  0  0
  183.4710  178.3770  139.8220 C   0  0  1  0  0  3  0  0  0  0  0  0
  178.9760  178.3240  140.2260 F   0  0  0  0  0  0  0  0  0  0  0  0
  181.9570  176.4260  139.3290 C   0  0  0  0  0  0  0  0  0  0  0  0
  183.9800  174.3470  137.0700 N   0  0  0  0  0  2  0  0  0  0  0  0
  184.1160  172.2630  135.7260 N   0  0  0  0  0  0  0  0  0  0  0  0
  183.5600  170.9790  135.3270 C   0  0  0  0  0  1  0  0  0  0  0  0
  185.6430  179.3850  141.3750 O   0  0  0  0  0  0  0  0  0  0  0  0
  184.7660  178.7150  141.9850 C   0  0  0  0  0  0  0  0  0  0  0  0
  183.6330  178.2220  141.2640 N   0  0  0  0  0  2  0  0  0  0  0  0
  185.0930  178.4930  146.2190 C   0  0  0  0  0  0  0  0  0  0  0  0
  187.0200  178.6110  147.2220 C   0  0  0  0  0  3  0  0  0  0  0  0
  184.9130  178.4830  143.4470 C   0  0  0  0  0  0  0  0  0  0  0  0
  187.2480  177.7530  146.2330 C   0  0  0  0  0  3  0  0  0  0  0  0
  183.8070  178.9840  144.3180 C   0  0  0  0  0  3  0  0  0  0  0  0
  185.9670  177.5400  145.4930 C   0  0  2  0  0  3  0  0  0  0  0  0
  185.6810  179.0920  147.1960 N   0  0  0  0  0  0  0  0  0  0  0  0
  183.9100  179.0050  145.6150 N   0  0  0  0  0  0  0  0  0  0  0  0
  187.1700  177.4060  143.2260 C   0  0  0  0  0  1  0  0  0  0  0  0
  185.9980  177.8890  144.0220 C   0  0  0  0  0  0  0  0  0  0  0  0
  186.1720  171.3390  134.7930 C   0  0  0  0  0  1  0  0  0  0  0  0
  185.4720  172.5840  135.3080 C   0  0  0  0  0  2  0  0  0  0  0  0
  180.4230  180.6840  140.2170 C   0  0  0  0  0  2  0  0  0  0  0  0
  180.3520  181.1660  138.8040 C   0  0  0  0  0  0  0  0  0  0  0  0
  179.4950  180.7310  138.0500 O   0  0  0  0  0  0  0  0  0  0  0  0
  181.3020  182.2140  138.3290 C   0  0  0  0  0  2  0  0  0  0  0  0
  180.5960  183.1870  137.5140 N   0  0  0  0  0  1  0  0  0  0  0  0
  1 13  2  0  0  0  0
  1 11  1  0  0  0  0
  2 32  1  6  0  0  0
  4 11  1  0  0  0  0
  4  2  1  0  0  0  0
  5 13  1  0  0  0  0
  6  8  1  0  0  0  0
  6 12  1  1  0  0  0
  6  2  1  0  0  0  0
  7  1  1  0  0  0  0
  9  3  2  0  0  0  0
  9 14  1  0  0  0  0
 10  7  2  0  0  0  0
 10  5  1  0  0  0  0
 11 19  1  1  0  0  0
 13  8  1  0  0  0  0
 14 10  1  0  0  0  0
 15  9  1  0  0  0  0
 16 15  1  0  0  0  0
 17 18  2  0  0  0  0
 18 22  1  0  0  0  0
 19 18  1  0  0  0  0
 20 26  2  0  0  0  0
 22 29  2  0  0  0  0
 22 24  1  0  0  0  0
 23 21  2  0  0  0  0
 24 27  2  0  0  0  0
 25 20  1  0  0  0  0
 25 23  1  1  0  0  0
 26 21  1  0  0  0  0
 27 20  1  0  0  0  0
 28 29  1  0  0  0  0
 29 25  1  0  0  0  0
 30 31  1  0  0  0  0
 31 15  1  0  0  0  0
 33 32  1  0  0  0  0
 34 33  2  0  0  0  0
 35 33  1  0  0  0  0
 36 35  1  0  0  0  0
M  END
>  <MODEL>
4

>  <REMARK>
 VINA RESULT:      -7.6      2.559      3.037
  Name = 
  6 active torsions:
  status: ('A' for Active; 'I' for Inactive)
    1  A    between atoms: C_4  and  C_11
    2  A    between atoms: C_5  and  C_21
    3  A    between atoms: C_6  and  C_27
    4  A    between atoms: C_11  and  C_21
    5  A    between atoms: C_28  and  N_34
    6  A    between atoms: N_29  and  C_30
                            x       y       z     vdW  Elec       q    Type
                         _______ _______ _______ _____ _____    ______ ____

>  <TORSDO>
F 6

$$$$
=
 OpenBabel10222420003D

 36 39  0  0  1  0  0  0  0  0999 V2000
  186.7340  178.6790  141.4100 C   0  0  0  0  0  0  0  0  0  0  0  0
  189.3830  178.2200  143.1400 C   0  0  2  0  0  3  0  0  0  0  0  0
  182.0040  178.1890  142.5150 O   0  0  0  0  0  0  0  0  0  0  0  0
  189.0310  179.3440  142.1640 C   0  0  0  0  0  2  0  0  0  0  0  0
  184.8330  177.9460  142.4670 C   0  0  0  0  0  2  0  0  0  0  0  0
  188.1860  177.8410  144.0230 C   0  0  1  0  0  3  0  0  0  0  0  0
  185.6470  179.3330  140.7750 N   0  0  0  0  0  0  0  0  0  0  0  0
  187.1810  177.0110  143.2350 C   0  0  0  0  0  2  0  0  0  0  0  0
  182.0290  179.0030  141.5520 C   0  0  0  0  0  0  0  0  0  0  0  0
  184.5720  178.9260  141.3640 C   0  0  0  0  0  0  0  0  0  0  0  0
  188.1590  178.8860  140.9930 C   0  0  1  0  0  3  0  0  0  0  0  0
  188.6010  177.0880  145.1080 F   0  0  0  0  0  0  0  0  0  0  0  0
  186.3160  177.8780  142.3800 C   0  0  0  0  0  0  0  0  0  0  0  0
  183.2790  179.3900  140.9620 N   0  0  0  0  0  2  0  0  0  0  0  0
  180.8010  179.5440  141.0410 N   0  0  0  0  0  0  0  0  0  0  0  0
  179.5230  179.0820  141.5600 C   0  0  0  0  0  1  0  0  0  0  0  0
  189.1950  178.6960  138.3400 O   0  0  0  0  0  0  0  0  0  0  0  0
  189.1760  177.6370  139.0240 C   0  0  0  0  0  0  0  0  0  0  0  0
  188.7080  177.6840  140.3750 N   0  0  0  0  0  2  0  0  0  0  0  0
  190.9570  174.2590  137.1530 C   0  0  0  0  0  0  0  0  0  0  0  0
  190.3590  173.6090  135.1650 C   0  0  0  0  0  3  0  0  0  0  0  0
  189.6750  176.3720  138.4220 C   0  0  0  0  0  0  0  0  0  0  0  0
  189.1970  173.8190  135.7750 C   0  0  0  0  0  3  0  0  0  0  0  0
  191.0920  176.0030  138.7180 C   0  0  0  0  0  3  0  0  0  0  0  0
  189.4750  174.2210  137.1870 C   0  0  2  0  0  3  0  0  0  0  0  0
  191.4570  173.9090  136.0190 N   0  0  0  0  0  0  0  0  0  0  0  0
  191.6910  175.0260  138.1020 N   0  0  0  0  0  0  0  0  0  0  0  0
  187.5280  175.8970  137.2110 C   0  0  0  0  0  1  0  0  0  0  0  0
  188.9360  175.5730  137.5990 C   0  0  0  0  0  0  0  0  0  0  0  0
  179.5320  181.3200  139.9520 C   0  0  0  0  0  1  0  0  0  0  0  0
  180.7920  180.4740  139.9220 C   0  0  0  0  0  2  0  0  0  0  0  0
  190.5650  178.6820  143.9830 C   0  0  0  0  0  2  0  0  0  0  0  0
  191.3390  177.5070  144.4860 C   0  0  0  0  0  0  0  0  0  0  0  0
  191.6800  177.4540  145.6580 O   0  0  0  0  0  0  0  0  0  0  0  0
  191.6560  176.3770  143.5640 C   0  0  0  0  0  2  0  0  0  0  0  0
  192.0550  175.2110  144.3320 N   0  0  0  0  0  1  0  0  0  0  0  0
  1 13  2  0  0  0  0
  2 32  1  1  0  0  0
  2  6  1  0  0  0  0
  4  2  1  0  0  0  0
  6 12  1  1  0  0  0
  7 10  2  0  0  0  0
  7  1  1  0  0  0  0
  8  6  1  0  0  0  0
  9  3  2  0  0  0  0
 10  5  1  0  0  0  0
 11 19  1  1  0  0  0
 11  1  1  0  0  0  0
 11  4  1  0  0  0  0
 13  5  1  0  0  0  0
 13  8  1  0  0  0  0
 14 10  1  0  0  0  0
 14  9  1  0  0  0  0
 15  9  1  0  0  0  0
 15 16  1  0  0  0  0
 17 18  2  0  0  0  0
 18 19  1  0  0  0  0
 20 25  1  0  0  0  0
 20 27  1  0  0  0  0
 21 23  2  0  0  0  0
 21 26  1  0  0  0  0
 22 24  1  0  0  0  0
 22 18  1  0  0  0  0
 25 23  1  6  0  0  0
 25 29  1  0  0  0  0
 26 20  2  0  0  0  0
 27 24  2  0  0  0  0
 28 29  1  0  0  0  0
 29 22  2  0  0  0  0
 31 30  1  0  0  0  0
 31 15  1  0  0  0  0
 32 33  1  0  0  0  0
 33 34  2  0  0  0  0
 35 36  1  0  0  0  0
 35 33  1  0  0  0  0
M  END
>  <MODEL>
5

>  <REMARK>
 VINA RESULT:      -7.2      3.595      9.387
  Name = 
  6 active torsions:
  status: ('A' for Active; 'I' for Inactive)
    1  A    between atoms: C_4  and  C_11
    2  A    between atoms: C_5  and  C_21
    3  A    between atoms: C_6  and  C_27
    4  A    between atoms: C_11  and  C_21
    5  A    between atoms: C_28  and  N_34
    6  A    between atoms: N_29  and  C_30
                            x       y       z     vdW  Elec       q    Type
                         _______ _______ _______ _____ _____    ______ ____

>  <TORSDO>
F 6

$$$$
=
 OpenBabel10222420003D

 36 39  0  0  1  0  0  0  0  0999 V2000
  190.7100  176.2150  137.3070 C   0  0  0  0  0  0  0  0  0  0  0  0
  187.6680  177.1970  137.3460 C   0  0  2  0  0  3  0  0  0  0  0  0
  192.7340  171.9470  136.0740 O   0  0  0  0  0  0  0  0  0  0  0  0
  188.9270  177.9230  136.8700 C   0  0  0  0  0  2  0  0  0  0  0  0
  190.9220  173.9630  136.9230 C   0  0  0  0  0  2  0  0  0  0  0  0
  187.6690  175.7220  136.9210 C   0  0  1  0  0  3  0  0  0  0  0  0
  192.0440  176.0080  136.8710 N   0  0  0  0  0  0  0  0  0  0  0  0
  188.6180  174.9130  137.7960 C   0  0  0  0  0  2  0  0  0  0  0  0
  193.6540  172.7970  135.9270 C   0  0  0  0  0  0  0  0  0  0  0  0
  192.1720  174.7420  136.6520 C   0  0  0  0  0  0  0  0  0  0  0  0
  190.1790  177.5680  137.6750 C   0  0  1  0  0  3  0  0  0  0  0  0
  186.4040  175.1770  137.0500 F   0  0  0  0  0  0  0  0  0  0  0  0
  190.0350  175.0750  137.3530 C   0  0  0  0  0  0  0  0  0  0  0  0
  193.4110  174.1840  136.2020 N   0  0  0  0  0  2  0  0  0  0  0  0
  194.9530  172.3730  135.4860 N   0  0  0  0  0  0  0  0  0  0  0  0
  195.2430  170.9600  135.3040 C   0  0  0  0  0  1  0  0  0  0  0  0
  192.1480  177.4670  139.7390 O   0  0  0  0  0  0  0  0  0  0  0  0
  190.9450  177.5620  140.1010 C   0  0  0  0  0  0  0  0  0  0  0  0
  189.9190  177.6610  139.1080 N   0  0  0  0  0  2  0  0  0  0  0  0
  190.1590  177.2580  144.2700 C   0  0  0  0  0  0  0  0  0  0  0  0
  188.1660  176.8250  145.0260 C   0  0  0  0  0  3  0  0  0  0  0  0
  190.6220  177.6060  141.5520 C   0  0  0  0  0  0  0  0  0  0  0  0
  187.9440  177.7640  144.1120 C   0  0  0  0  0  3  0  0  0  0  0  0
  191.6830  177.1260  142.4890 C   0  0  0  0  0  3  0  0  0  0  0  0
  189.2600  178.1930  143.5500 C   0  0  2  0  0  3  0  0  0  0  0  0
  189.5470  176.4930  145.1050 N   0  0  0  0  0  0  0  0  0  0  0  0
  191.4500  176.9450  143.7560 N   0  0  0  0  0  0  0  0  0  0  0  0
  188.2910  178.4610  141.1860 C   0  0  0  0  0  1  0  0  0  0  0  0
  189.4220  178.0140  142.0570 C   0  0  0  0  0  0  0  0  0  0  0  0
  197.2300  172.9180  136.1740 C   0  0  0  0  0  1  0  0  0  0  0  0
  196.0420  173.3240  135.3200 C   0  0  0  0  0  2  0  0  0  0  0  0
  186.4590  177.9310  136.7810 C   0  0  0  0  0  2  0  0  0  0  0  0
  185.3320  177.9160  137.7630 C   0  0  0  0  0  0  0  0  0  0  0  0
  184.3100  177.2960  137.5130 O   0  0  0  0  0  0  0  0  0  0  0  0
  185.4760  178.6260  139.0680 C   0  0  0  0  0  2  0  0  0  0  0  0
  184.5520  179.7460  139.1240 N   0  0  0  0  0  1  0  0  0  0  0  0
  1 13  2  0  0  0  0
  1 11  1  0  0  0  0
  2 32  1  6  0  0  0
  4  2  1  0  0  0  0
  4 11  1  0  0  0  0
  5 13  1  0  0  0  0
  6 12  1  1  0  0  0
  6  2  1  0  0  0  0
  6  8  1  0  0  0  0
  7  1  1  0  0  0  0
  9  3  2  0  0  0  0
  9 14  1  0  0  0  0
 10  7  2  0  0  0  0
 10  5  1  0  0  0  0
 11 19  1  1  0  0  0
 13  8  1  0  0  0  0
 14 10  1  0  0  0  0
 15  9  1  0  0  0  0
 16 15  1  0  0  0  0
 17 18  2  0  0  0  0
 18 22  1  0  0  0  0
 19 18  1  0  0  0  0
 20 26  2  0  0  0  0
 21 26  1  0  0  0  0
 22 29  2  0  0  0  0
 22 24  1  0  0  0  0
 23 21  2  0  0  0  0
 24 27  2  0  0  0  0
 25 23  1  1  0  0  0
 25 20  1  0  0  0  0
 27 20  1  0  0  0  0
 28 29  1  0  0  0  0
 29 25  1  0  0  0  0
 31 15  1  0  0  0  0
 31 30  1  0  0  0  0
 32 33  1  0  0  0  0
 33 35  1  0  0  0  0
 34 33  2  0  0  0  0
 35 36  1  0  0  0  0
M  END
>  <MODEL>
6

>  <REMARK>
 VINA RESULT:      -6.1      4.086      6.305
  Name = 
  6 active torsions:
  status: ('A' for Active; 'I' for Inactive)
    1  A    between atoms: C_4  and  C_11
    2  A    between atoms: C_5  and  C_21
    3  A    between atoms: C_6  and  C_27
    4  A    between atoms: C_11  and  C_21
    5  A    between atoms: C_28  and  N_34
    6  A    between atoms: N_29  and  C_30
                            x       y       z     vdW  Elec       q    Type
                         _______ _______ _______ _____ _____    ______ ____

>  <TORSDO>
F 6

$$$$
=
 OpenBabel10222420003D

 36 39  0  0  1  0  0  0  0  0999 V2000
  186.1160  178.6970  141.7550 C   0  0  0  0  0  0  0  0  0  0  0  0
  189.1250  178.0540  142.6260 C   0  0  2  0  0  3  0  0  0  0  0  0
  181.8650  178.1280  144.0840 O   0  0  0  0  0  0  0  0  0  0  0  0
  188.5530  179.2710  141.8960 C   0  0  0  0  0  2  0  0  0  0  0  0
  184.5600  177.8750  143.2260 C   0  0  0  0  0  2  0  0  0  0  0  0
  188.2070  177.5960  143.7680 C   0  0  1  0  0  3  0  0  0  0  0  0
  184.9190  179.4170  141.5120 N   0  0  0  0  0  0  0  0  0  0  0  0
  186.9960  176.8550  143.2180 C   0  0  0  0  0  2  0  0  0  0  0  0
  181.6490  179.0330  143.2330 C   0  0  0  0  0  0  0  0  0  0  0  0
  184.0360  178.9600  142.3370 C   0  0  0  0  0  0  0  0  0  0  0  0
  187.3760  178.9370  140.9770 C   0  0  1  0  0  3  0  0  0  0  0  0
  188.8810  176.7370  144.6190 F   0  0  0  0  0  0  0  0  0  0  0  0
  185.9570  177.8070  142.7230 C   0  0  0  0  0  0  0  0  0  0  0  0
  182.6990  179.4690  142.3560 N   0  0  0  0  0  2  0  0  0  0  0  0
  180.3460  179.6290  143.1380 N   0  0  0  0  0  0  0  0  0  0  0  0
  179.2470  179.1260  143.9480 C   0  0  0  0  0  1  0  0  0  0  0  0
  187.6310  179.0040  138.1350 O   0  0  0  0  0  0  0  0  0  0  0  0
  187.7660  177.8830  138.6950 C   0  0  0  0  0  0  0  0  0  0  0  0
  187.6920  177.7980  140.1220 N   0  0  0  0  0  2  0  0  0  0  0  0
  188.3070  174.2100  136.6210 C   0  0  0  0  0  0  0  0  0  0  0  0
  190.1180  173.0260  136.8500 C   0  0  0  0  0  3  0  0  0  0  0  0
  188.0370  176.6800  137.8620 C   0  0  0  0  0  0  0  0  0  0  0  0
  190.5840  174.2590  136.6790 C   0  0  0  0  0  3  0  0  0  0  0  0
  186.8610  175.8260  137.5180 C   0  0  0  0  0  3  0  0  0  0  0  0
  189.4230  175.1720  136.4510 C   0  0  2  0  0  3  0  0  0  0  0  0
  188.6960  173.0020  136.8390 N   0  0  0  0  0  0  0  0  0  0  0  0
  186.9990  174.6600  136.9570 N   0  0  0  0  0  0  0  0  0  0  0  0
  190.5140  177.0770  137.7840 C   0  0  0  0  0  1  0  0  0  0  0  0
  189.2790  176.3050  137.4410 C   0  0  0  0  0  0  0  0  0  0  0  0
  179.3880  180.0630  140.9360 C   0  0  0  0  0  1  0  0  0  0  0  0
  180.0580  180.6660  142.1580 C   0  0  0  0  0  2  0  0  0  0  0  0
  190.5080  178.4230  143.1440 C   0  0  0  0  0  2  0  0  0  0  0  0
  191.5030  177.3690  142.7780 C   0  0  0  0  0  0  0  0  0  0  0  0
  192.1940  177.5000  141.7790 O   0  0  0  0  0  0  0  0  0  0  0  0
  191.6790  176.1780  143.6580 C   0  0  0  0  0  2  0  0  0  0  0  0
  191.7720  176.5990  145.0450 N   0  0  0  0  0  1  0  0  0  0  0  0
  1 13  2  0  0  0  0
  2 32  1  1  0  0  0
  2  6  1  0  0  0  0
  4  2  1  0  0  0  0
  6 12  1  1  0  0  0
  7  1  1  0  0  0  0
  7 10  2  0  0  0  0
  8  6  1  0  0  0  0
  9  3  2  0  0  0  0
 10 14  1  0  0  0  0
 10  5  1  0  0  0  0
 11 19  1  1  0  0  0
 11  1  1  0  0  0  0
 11  4  1  0  0  0  0
 13  8  1  0  0  0  0
 13  5  1  0  0  0  0
 14  9  1  0  0  0  0
 15  9  1  0  0  0  0
 15 16  1  0  0  0  0
 17 18  2  0  0  0  0
 18 19  1  0  0  0  0
 20 26  2  0  0  0  0
 20 27  1  0  0  0  0
 22 18  1  0  0  0  0
 23 21  2  0  0  0  0
 24 22  1  0  0  0  0
 25 20  1  0  0  0  0
 25 23  1  1  0  0  0
 25 29  1  0  0  0  0
 26 21  1  0  0  0  0
 27 24  2  0  0  0  0
 29 28  1  0  0  0  0
 29 22  2  0  0  0  0
 30 31  1  0  0  0  0
 31 15  1  0  0  0  0
 33 32  1  0  0  0  0
 33 35  1  0  0  0  0
 34 33  2  0  0  0  0
 35 36  1  0  0  0  0
M  END
>  <MODEL>
7

>  <REMARK>
 VINA RESULT:      -6.0      3.341      9.347
  Name = 
  6 active torsions:
  status: ('A' for Active; 'I' for Inactive)
    1  A    between atoms: C_4  and  C_11
    2  A    between atoms: C_5  and  C_21
    3  A    between atoms: C_6  and  C_27
    4  A    between atoms: C_11  and  C_21
    5  A    between atoms: C_28  and  N_34
    6  A    between atoms: N_29  and  C_30
                            x       y       z     vdW  Elec       q    Type
                         _______ _______ _______ _____ _____    ______ ____

>  <TORSDO>
F 6

$$$$
=
 OpenBabel10222420003D

 36 39  0  0  1  0  0  0  0  0999 V2000
  186.9680  176.4770  136.9760 C   0  0  0  0  0  0  0  0  0  0  0  0
  183.8490  176.1680  136.3410 C   0  0  2  0  0  3  0  0  0  0  0  0
  190.7120  173.3870  136.4640 O   0  0  0  0  0  0  0  0  0  0  0  0
  184.7920  177.3420  136.0770 C   0  0  0  0  0  2  0  0  0  0  0  0
  188.1210  174.5010  136.7960 C   0  0  0  0  0  2  0  0  0  0  0  0
  184.5180  174.8220  136.0270 C   0  0  1  0  0  3  0  0  0  0  0  0
  188.3340  176.8250  136.8290 N   0  0  0  0  0  0  0  0  0  0  0  0
  185.5010  174.4430  137.1270 C   0  0  0  0  0  2  0  0  0  0  0  0
  191.2340  174.5350  136.4460 C   0  0  0  0  0  0  0  0  0  0  0  0
  188.9920  175.7180  136.7270 C   0  0  0  0  0  0  0  0  0  0  0  0
  185.8840  177.5010  137.1370 C   0  0  1  0  0  3  0  0  0  0  0  0
  183.5710  173.8170  135.9380 F   0  0  0  0  0  0  0  0  0  0  0  0
  186.8000  175.1620  136.9640 C   0  0  0  0  0  0  0  0  0  0  0  0
  190.4140  175.7060  136.5710 N   0  0  0  0  0  2  0  0  0  0  0  0
  192.6560  174.6700  136.3020 N   0  0  0  0  0  0  0  0  0  0  0  0
  193.5080  173.4910  136.2780 C   0  0  0  0  0  1  0  0  0  0  0  0
  184.9430  179.7490  138.6240 O   0  0  0  0  0  0  0  0  0  0  0  0
  184.8960  178.6260  139.1940 C   0  0  0  0  0  0  0  0  0  0  0  0
  185.3140  177.4590  138.4800 N   0  0  0  0  0  2  0  0  0  0  0  0
  183.1450  178.7290  143.0680 C   0  0  0  0  0  0  0  0  0  0  0  0
  184.1370  179.7010  144.7430 C   0  0  0  0  0  3  0  0  0  0  0  0
  184.3730  178.5360  140.5840 C   0  0  0  0  0  0  0  0  0  0  0  0
  185.1110  178.9850  144.1900 C   0  0  0  0  0  3  0  0  0  0  0  0
  182.8880  178.5480  140.7420 C   0  0  0  0  0  3  0  0  0  0  0  0
  184.5360  178.2160  143.0450 C   0  0  2  0  0  3  0  0  0  0  0  0
  182.9160  179.5600  144.0250 N   0  0  0  0  0  0  0  0  0  0  0  0
  182.3220  178.6620  141.9080 N   0  0  0  0  0  0  0  0  0  0  0  0
  186.6560  178.5220  141.6280 C   0  0  0  0  0  1  0  0  0  0  0  0
  185.1620  178.4880  141.6960 C   0  0  0  0  0  0  0  0  0  0  0  0
  193.4620  176.4920  137.7110 C   0  0  0  0  0  1  0  0  0  0  0  0
  193.2940  175.9780  136.2920 C   0  0  0  0  0  2  0  0  0  0  0  0
  182.5970  176.3700  135.4990 C   0  0  0  0  0  2  0  0  0  0  0  0
  181.3780  176.3740  136.3640 C   0  0  0  0  0  0  0  0  0  0  0  0
  180.2820  176.6070  135.8780 O   0  0  0  0  0  0  0  0  0  0  0  0
  181.4990  176.0490  137.8150 C   0  0  0  0  0  2  0  0  0  0  0  0
  180.2720  175.4290  138.2850 N   0  0  0  0  0  1  0  0  0  0  0  0
  1 11  1  0  0  0  0
  2 32  1  6  0  0  0
  4  2  1  0  0  0  0
  4 11  1  0  0  0  0
  5 13  1  0  0  0  0
  6 12  1  1  0  0  0
  6  2  1  0  0  0  0
  6  8  1  0  0  0  0
  7  1  1  0  0  0  0
  9  3  2  0  0  0  0
  9 14  1  0  0  0  0
 10  5  1  0  0  0  0
 10  7  2  0  0  0  0
 11 19  1  1  0  0  0
 13  1  2  0  0  0  0
 13  8  1  0  0  0  0
 14 10  1  0  0  0  0
 15  9  1  0  0  0  0
 16 15  1  0  0  0  0
 17 18  2  0  0  0  0
 18 22  1  0  0  0  0
 19 18  1  0  0  0  0
 20 26  2  0  0  0  0
 22 24  1  0  0  0  0
 22 29  2  0  0  0  0
 23 21  2  0  0  0  0
 24 27  2  0  0  0  0
 25 20  1  0  0  0  0
 25 23  1  1  0  0  0
 26 21  1  0  0  0  0
 27 20  1  0  0  0  0
 28 29  1  0  0  0  0
 29 25  1  0  0  0  0
 31 15  1  0  0  0  0
 31 30  1  0  0  0  0
 32 33  1  0  0  0  0
 33 35  1  0  0  0  0
 34 33  2  0  0  0  0
 35 36  1  0  0  0  0
M  END
>  <MODEL>
8

>  <REMARK>
 VINA RESULT:      -6.0      2.648      4.093
  Name = 
  6 active torsions:
  status: ('A' for Active; 'I' for Inactive)
    1  A    between atoms: C_4  and  C_11
    2  A    between atoms: C_5  and  C_21
    3  A    between atoms: C_6  and  C_27
    4  A    between atoms: C_11  and  C_21
    5  A    between atoms: C_28  and  N_34
    6  A    between atoms: N_29  and  C_30
                            x       y       z     vdW  Elec       q    Type
                         _______ _______ _______ _____ _____    ______ ____

>  <TORSDO>
F 6

$$$$
=
 OpenBabel10222420003D

 36 39  0  0  1  0  0  0  0  0999 V2000
  190.5850  175.6880  136.6180 C   0  0  0  0  0  0  0  0  0  0  0  0
  187.4270  175.2390  136.3930 C   0  0  2  0  0  3  0  0  0  0  0  0
  194.3510  172.6340  136.0540 O   0  0  0  0  0  0  0  0  0  0  0  0
  188.2940  176.3900  135.8790 C   0  0  0  0  0  2  0  0  0  0  0  0
  191.7780  173.7290  136.5470 C   0  0  0  0  0  2  0  0  0  0  0  0
  188.1020  173.8790  136.1690 C   0  0  1  0  0  3  0  0  0  0  0  0
  191.9130  176.0420  136.2720 N   0  0  0  0  0  0  0  0  0  0  0  0
  189.2160  173.6600  137.1850 C   0  0  0  0  0  2  0  0  0  0  0  0
  194.8280  173.7810  135.8360 C   0  0  0  0  0  0  0  0  0  0  0  0
  192.5930  174.9450  136.2290 C   0  0  0  0  0  0  0  0  0  0  0  0
  189.4920  176.7020  136.7780 C   0  0  1  0  0  3  0  0  0  0  0  0
  187.1860  172.8510  136.3140 F   0  0  0  0  0  0  0  0  0  0  0  0
  190.4620  174.3790  136.7850 C   0  0  0  0  0  0  0  0  0  0  0  0
  193.9880  174.9420  135.9120 N   0  0  0  0  0  2  0  0  0  0  0  0
  196.2200  173.9260  135.5120 N   0  0  0  0  0  0  0  0  0  0  0  0
  197.1030  172.7710  135.5330 C   0  0  0  0  0  1  0  0  0  0  0  0
  189.0480  179.1410  138.1940 O   0  0  0  0  0  0  0  0  0  0  0  0
  188.9120  178.0690  138.8440 C   0  0  0  0  0  0  0  0  0  0  0  0
  189.0790  176.8160  138.1730 N   0  0  0  0  0  2  0  0  0  0  0  0
  188.0530  177.8440  143.0030 C   0  0  0  0  0  0  0  0  0  0  0  0
  186.1150  177.1770  143.7320 C   0  0  0  0  0  3  0  0  0  0  0  0
  188.5440  178.1330  140.2840 C   0  0  0  0  0  0  0  0  0  0  0  0
  185.7950  178.0350  142.7700 C   0  0  0  0  0  3  0  0  0  0  0  0
  189.6320  177.8430  141.2660 C   0  0  0  0  0  3  0  0  0  0  0  0
  187.0580  178.6150  142.2190 C   0  0  2  0  0  3  0  0  0  0  0  0
  187.5260  177.0390  143.8590 N   0  0  0  0  0  0  0  0  0  0  0  0
  189.3880  177.6870  142.5350 N   0  0  0  0  0  0  0  0  0  0  0  0
  186.1300  178.6460  139.8230 C   0  0  0  0  0  1  0  0  0  0  0  0
  187.2860  178.3950  140.7400 C   0  0  0  0  0  0  0  0  0  0  0  0
  198.2030  175.0860  134.6910 C   0  0  0  0  0  1  0  0  0  0  0  0
  196.8060  175.2350  135.2680 C   0  0  0  0  0  2  0  0  0  0  0  0
  186.0820  175.3100  135.6830 C   0  0  0  0  0  2  0  0  0  0  0  0
  185.0050  175.7060  136.6410 C   0  0  0  0  0  0  0  0  0  0  0  0
  184.8770  176.8750  136.9690 O   0  0  0  0  0  0  0  0  0  0  0  0
  184.0590  174.6760  137.1610 C   0  0  0  0  0  2  0  0  0  0  0  0
  183.1140  175.2910  138.0760 N   0  0  0  0  0  1  0  0  0  0  0  0
  1 11  1  0  0  0  0
  1 13  2  0  0  0  0
  2 32  1  6  0  0  0
  4  2  1  0  0  0  0
  4 11  1  0  0  0  0
  5 13  1  0  0  0  0
  6 12  1  1  0  0  0
  6  2  1  0  0  0  0
  6  8  1  0  0  0  0
  7  1  1  0  0  0  0
  9 14  1  0  0  0  0
  9  3  2  0  0  0  0
 10  7  2  0  0  0  0
 10  5  1  0  0  0  0
 11 19  1  1  0  0  0
 13  8  1  0  0  0  0
 14 10  1  0  0  0  0
 15 16  1  0  0  0  0
 15  9  1  0  0  0  0
 17 18  2  0  0  0  0
 18 22  1  0  0  0  0
 19 18  1  0  0  0  0
 20 26  2  0  0  0  0
 21 26  1  0  0  0  0
 22 29  2  0  0  0  0
 22 24  1  0  0  0  0
 23 21  2  0  0  0  0
 24 27  2  0  0  0  0
 25 23  1  1  0  0  0
 25 20  1  0  0  0  0
 27 20  1  0  0  0  0
 28 29  1  0  0  0  0
 29 25  1  0  0  0  0
 30 31  1  0  0  0  0
 31 15  1  0  0  0  0
 32 33  1  0  0  0  0
 33 34  2  0  0  0  0
 33 35  1  0  0  0  0
 35 36  1  0  0  0  0
M  END
>  <MODEL>
9

>  <REMARK>
 VINA RESULT:      -5.9      3.995      6.663
  Name = 
  6 active torsions:
  status: ('A' for Active; 'I' for Inactive)
    1  A    between atoms: C_4  and  C_11
    2  A    between atoms: C_5  and  C_21
    3  A    between atoms: C_6  and  C_27
    4  A    between atoms: C_11  and  C_21
    5  A    between atoms: C_28  and  N_34
    6  A    between atoms: N_29  and  C_30
                            x       y       z     vdW  Elec       q    Type
                         _______ _______ _______ _____ _____    ______ ____

>  <TORSDO>
F 6

$$$$
