=
 OpenBabel10222416403D

 30 34  0  0  1  0  0  0  0  0999 V2000
  184.4980  178.6680  141.9670 C   0  0  0  0  0  0  0  0  0  0  0  0
  188.7900  177.3090  146.0670 C   0  0  0  0  0  0  0  0  0  0  0  0
  189.8280  177.4580  141.2380 C   0  0  0  0  0  3  0  0  0  0  0  0
  185.4920  178.3870  143.8860 C   0  0  0  0  0  0  0  0  0  0  0  0
  190.0300  178.1330  142.5570 C   0  0  0  0  0  2  0  0  0  0  0  0
  187.6660  177.9780  143.3870 C   0  0  0  0  0  0  0  0  0  0  0  0
  187.3910  178.0090  140.9350 C   0  0  0  0  0  3  0  0  0  0  0  0
  188.7020  177.4690  140.5260 C   0  0  0  0  0  3  0  0  0  0  0  0
  183.4780  178.6790  143.0470 C   0  0  0  0  0  3  0  0  0  0  0  0
  185.6620  178.4850  142.5600 C   0  0  0  0  0  0  0  0  0  0  0  0
  189.5490  177.4510  144.8920 C   0  0  0  0  0  3  0  0  0  0  0  0
  184.0870  178.5010  144.2330 C   0  0  0  0  0  3  0  0  0  0  0  0
  186.9760  178.2150  142.1890 C   0  0  0  0  0  0  0  0  0  0  0  0
  189.0370  177.7630  143.6100 C   0  0  0  0  0  0  0  0  0  0  0  0
  186.6840  178.0460  144.4610 C   0  0  0  0  0  0  0  0  0  0  0  0
  187.1230  177.6520  146.0300 S   0  0  0  0  0  0  0  0  0  0  0  0
  184.7200  179.8340  139.9130 O   0  0  0  0  0  1  0  0  0  0  0  0
  184.2390  178.6610  140.4930 C   0  0  2  0  0  3  0  0  0  0  0  0
  180.7040  178.9580  139.9090 C   0  0  0  0  0  3  0  0  0  0  0  0
  182.1420  177.3580  139.8120 C   0  0  0  0  0  0  0  0  0  0  0  0
  182.7650  176.0200  139.5940 C   0  0  0  0  0  1  0  0  0  0  0  0
  179.7870  176.7430  139.2130 C   0  0  0  0  0  1  0  0  0  0  0  0
  181.8820  179.5210  140.2640 N   0  0  0  0  0  0  0  0  0  0  0  0
  180.8450  177.6470  139.6330 N   0  0  0  0  0  0  0  0  0  0  0  0
  182.7780  178.5120  140.2070 C   0  0  0  0  0  0  0  0  0  0  0  0
  189.4570  176.9750  147.3550 C   0  0  0  0  0  2  0  0  0  0  0  0
  190.5480  176.0460  147.1150 N   0  0  0  0  0  2  0  0  0  0  0  0
  191.8560  176.2650  147.6420 C   0  0  0  0  0  0  0  0  0  0  0  0
  192.8630  175.3460  147.3840 O   0  0  0  0  0  0  0  0  0  0  0  0
  192.1050  177.2850  148.3390 O   0  0  0  0  0  1  0  0  0  0  0  0
  1 10  2  0  0  0  0
  1  9  1  0  0  0  0
  2 26  1  0  0  0  0
  3  5  1  0  0  0  0
  4 12  1  0  0  0  0
  4 15  2  0  0  0  0
  5 14  1  0  0  0  0
  6 14  2  0  0  0  0
  6 15  1  0  0  0  0
  7 13  2  0  0  0  0
  8  7  1  0  0  0  0
  8  3  2  0  0  0  0
  9 12  2  0  0  0  0
 10  4  1  0  0  0  0
 11  2  2  0  0  0  0
 13 10  1  0  0  0  0
 13  6  1  0  0  0  0
 14 11  1  0  0  0  0
 15 16  1  0  0  0  0
 16  2  1  0  0  0  0
 18 17  1  1  0  0  0
 18  1  1  0  0  0  0
 19 23  2  0  0  0  0
 20 25  2  0  0  0  0
 21 20  1  0  0  0  0
 22 24  1  0  0  0  0
 24 20  1  0  0  0  0
 24 19  1  0  0  0  0
 25 23  1  0  0  0  0
 25 18  1  0  0  0  0
 27 26  1  0  0  0  0
 27 28  1  0  0  0  0
 28 30  1  0  0  0  0
 29 28  2  0  0  0  0
M  END
>  <MODEL>
1

>  <REMARK>
 VINA RESULT:      -9.4      0.000      0.000
  Name = 
  4 active torsions:
  status: ('A' for Active; 'I' for Inactive)
    1  A    between atoms: C_2  and  C_26
    2  A    between atoms: C_3  and  C_9
    3  A    between atoms: C_9  and  N_11
    4  A    between atoms: C_26  and  C_30
                            x       y       z     vdW  Elec       q    Type
                         _______ _______ _______ _____ _____    ______ ____

>  <TORSDO>
F 4

$$$$
=
 OpenBabel10222416403D

 30 34  0  0  1  0  0  0  0  0999 V2000
  184.9670  178.7970  141.4070 C   0  0  0  0  0  0  0  0  0  0  0  0
  188.7490  177.2090  145.9080 C   0  0  0  0  0  0  0  0  0  0  0  0
  190.2970  177.3950  141.2180 C   0  0  0  0  0  3  0  0  0  0  0  0
  185.7420  178.4470  143.4140 C   0  0  0  0  0  0  0  0  0  0  0  0
  190.3820  178.0400  142.5640 C   0  0  0  0  0  2  0  0  0  0  0  0
  187.9400  177.9630  143.1380 C   0  0  0  0  0  0  0  0  0  0  0  0
  187.9270  178.0440  140.6720 C   0  0  0  0  0  3  0  0  0  0  0  0
  189.2530  177.4600  140.3920 C   0  0  0  0  0  3  0  0  0  0  0  0
  183.8390  178.8290  142.3740 C   0  0  0  0  0  3  0  0  0  0  0  0
  186.0540  178.5590  142.1150 C   0  0  0  0  0  0  0  0  0  0  0  0
  189.6320  177.3410  144.8210 C   0  0  0  0  0  3  0  0  0  0  0  0
  184.3130  178.6090  143.6140 C   0  0  0  0  0  3  0  0  0  0  0  0
  187.3890  178.2450  141.8790 C   0  0  0  0  0  0  0  0  0  0  0  0
  189.2710  177.6920  143.4990 C   0  0  0  0  0  0  0  0  0  0  0  0
  186.8530  178.0510  144.1040 C   0  0  0  0  0  0  0  0  0  0  0  0
  187.1090  177.6160  145.7020 S   0  0  0  0  0  0  0  0  0  0  0  0
  184.3120  180.0310  139.4890 O   0  0  0  0  0  1  0  0  0  0  0  0
  184.8640  178.8230  139.9150 C   0  0  2  0  0  3  0  0  0  0  0  0
  182.5410  176.1560  139.2740 C   0  0  0  0  0  3  0  0  0  0  0  0
  184.1660  177.0620  138.1920 C   0  0  0  0  0  0  0  0  0  0  0  0
  185.1490  177.3900  137.1180 C   0  0  0  0  0  1  0  0  0  0  0  0
  182.9760  175.1990  137.0110 C   0  0  0  0  0  1  0  0  0  0  0  0
  183.0170  177.1210  140.0960 N   0  0  0  0  0  0  0  0  0  0  0  0
  183.2280  176.1080  138.1160 N   0  0  0  0  0  0  0  0  0  0  0  0
  184.0390  177.6800  139.4130 C   0  0  0  0  0  0  0  0  0  0  0  0
  189.2630  176.8290  147.2510 C   0  0  0  0  0  2  0  0  0  0  0  0
  190.4310  175.9760  147.1060 N   0  0  0  0  0  2  0  0  0  0  0  0
  191.7080  176.3500  147.6220 C   0  0  0  0  0  0  0  0  0  0  0  0
  192.7910  175.4980  147.4570 O   0  0  0  0  0  0  0  0  0  0  0  0
  191.8610  177.4450  148.2260 O   0  0  0  0  0  1  0  0  0  0  0  0
  1 10  2  0  0  0  0
  1  9  1  0  0  0  0
  2 26  1  0  0  0  0
  3  5  1  0  0  0  0
  4 12  1  0  0  0  0
  4 15  2  0  0  0  0
  5 14  1  0  0  0  0
  6 14  2  0  0  0  0
  6 15  1  0  0  0  0
  7 13  2  0  0  0  0
  8  7  1  0  0  0  0
  8  3  2  0  0  0  0
  9 12  2  0  0  0  0
 10  4  1  0  0  0  0
 11  2  2  0  0  0  0
 13 10  1  0  0  0  0
 13  6  1  0  0  0  0
 14 11  1  0  0  0  0
 15 16  1  0  0  0  0
 16  2  1  0  0  0  0
 18 17  1  1  0  0  0
 18  1  1  0  0  0  0
 19 23  2  0  0  0  0
 20 25  2  0  0  0  0
 21 20  1  0  0  0  0
 22 24  1  0  0  0  0
 24 20  1  0  0  0  0
 24 19  1  0  0  0  0
 25 18  1  0  0  0  0
 25 23  1  0  0  0  0
 27 26  1  0  0  0  0
 27 28  1  0  0  0  0
 28 30  1  0  0  0  0
 29 28  2  0  0  0  0
M  END
>  <MODEL>
2

>  <REMARK>
 VINA RESULT:      -8.9      1.284      1.585
  Name = 
  4 active torsions:
  status: ('A' for Active; 'I' for Inactive)
    1  A    between atoms: C_2  and  C_26
    2  A    between atoms: C_3  and  C_9
    3  A    between atoms: C_9  and  N_11
    4  A    between atoms: C_26  and  C_30
                            x       y       z     vdW  Elec       q    Type
                         _______ _______ _______ _____ _____    ______ ____

>  <TORSDO>
F 4

$$$$
=
 OpenBabel10222416403D

 30 34  0  0  1  0  0  0  0  0999 V2000
  185.0570  178.8910  140.8930 C   0  0  0  0  0  0  0  0  0  0  0  0
  190.3350  176.7200  143.0160 C   0  0  0  0  0  0  0  0  0  0  0  0
  189.5710  177.2800  138.1660 C   0  0  0  0  0  3  0  0  0  0  0  0
  186.6330  178.3190  142.2850 C   0  0  0  0  0  0  0  0  0  0  0  0
  190.3160  177.7910  139.3560 C   0  0  0  0  0  2  0  0  0  0  0  0
  188.4120  177.7670  140.9910 C   0  0  0  0  0  0  0  0  0  0  0  0
  187.2770  178.0810  138.8230 C   0  0  0  0  0  3  0  0  0  0  0  0
  188.2740  177.4690  137.9230 C   0  0  0  0  0  3  0  0  0  0  0  0
  184.5050  178.8810  142.2720 C   0  0  0  0  0  3  0  0  0  0  0  0
  186.3240  178.5400  140.9990 C   0  0  0  0  0  0  0  0  0  0  0  0
  190.6300  176.9150  141.6540 C   0  0  0  0  0  3  0  0  0  0  0  0
  185.4740  178.5250  143.1340 C   0  0  0  0  0  3  0  0  0  0  0  0
  187.3710  178.1910  140.1510 C   0  0  0  0  0  0  0  0  0  0  0  0
  189.7330  177.4050  140.6760 C   0  0  0  0  0  0  0  0  0  0  0  0
  187.9010  177.8110  142.3540 C   0  0  0  0  0  0  0  0  0  0  0  0
  188.8230  177.2170  143.6210 S   0  0  0  0  0  0  0  0  0  0  0  0
  184.4420  180.3590  139.1330 O   0  0  0  0  0  1  0  0  0  0  0  0
  184.2840  179.0630  139.6230 C   0  0  2  0  0  3  0  0  0  0  0  0
  180.7330  179.0190  140.1770 C   0  0  0  0  0  3  0  0  0  0  0  0
  182.2370  177.5320  139.7750 C   0  0  0  0  0  0  0  0  0  0  0  0
  182.9050  176.2270  139.4960 C   0  0  0  0  0  1  0  0  0  0  0  0
  179.8950  176.6730  140.0230 C   0  0  0  0  0  1  0  0  0  0  0  0
  181.8930  179.7090  140.0810 N   0  0  0  0  0  0  0  0  0  0  0  0
  180.9250  177.6980  139.9940 N   0  0  0  0  0  0  0  0  0  0  0  0
  182.8320  178.7700  139.8350 C   0  0  0  0  0  0  0  0  0  0  0  0
  191.3750  176.1930  143.9410 C   0  0  0  0  0  2  0  0  0  0  0  0
  191.2960  176.8890  145.2140 N   0  0  0  0  0  2  0  0  0  0  0  0
  191.8270  176.3290  146.4150 C   0  0  0  0  0  0  0  0  0  0  0  0
  191.7260  177.0360  147.6050 O   0  0  0  0  0  1  0  0  0  0  0  0
  192.3860  175.2000  146.4040 O   0  0  0  0  0  0  0  0  0  0  0  0
  1 10  2  0  0  0  0
  1  9  1  0  0  0  0
  2 16  1  0  0  0  0
  2 26  1  0  0  0  0
  3  5  1  0  0  0  0
  4 15  2  0  0  0  0
  4 12  1  0  0  0  0
  5 14  1  0  0  0  0
  6 15  1  0  0  0  0
  7 13  2  0  0  0  0
  8  3  2  0  0  0  0
  8  7  1  0  0  0  0
  9 12  2  0  0  0  0
 10  4  1  0  0  0  0
 11  2  2  0  0  0  0
 13  6  1  0  0  0  0
 13 10  1  0  0  0  0
 14  6  2  0  0  0  0
 14 11  1  0  0  0  0
 15 16  1  0  0  0  0
 18 17  1  1  0  0  0
 18 25  1  0  0  0  0
 18  1  1  0  0  0  0
 20 25  2  0  0  0  0
 20 24  1  0  0  0  0
 21 20  1  0  0  0  0
 23 19  2  0  0  0  0
 24 22  1  0  0  0  0
 24 19  1  0  0  0  0
 25 23  1  0  0  0  0
 26 27  1  0  0  0  0
 27 28  1  0  0  0  0
 28 29  1  0  0  0  0
 30 28  2  0  0  0  0
M  END
>  <MODEL>
3

>  <REMARK>
 VINA RESULT:      -8.8      1.408      2.169
  Name = 
  4 active torsions:
  status: ('A' for Active; 'I' for Inactive)
    1  A    between atoms: C_2  and  C_26
    2  A    between atoms: C_3  and  C_9
    3  A    between atoms: C_9  and  N_11
    4  A    between atoms: C_26  and  C_30
                            x       y       z     vdW  Elec       q    Type
                         _______ _______ _______ _____ _____    ______ ____

>  <TORSDO>
F 4

$$$$
=
 OpenBabel10222416403D

 30 34  0  0  1  0  0  0  0  0999 V2000
  185.8650  178.4130  143.9590 C   0  0  0  0  0  0  0  0  0  0  0  0
  191.0410  176.4500  146.4950 C   0  0  0  0  0  0  0  0  0  0  0  0
  190.6890  177.1350  141.6140 C   0  0  0  0  0  3  0  0  0  0  0  0
  187.3380  177.8780  145.4720 C   0  0  0  0  0  0  0  0  0  0  0  0
  191.2950  177.6430  142.8820 C   0  0  0  0  0  2  0  0  0  0  0  0
  189.2550  177.4640  144.3330 C   0  0  0  0  0  0  0  0  0  0  0  0
  188.3050  177.7920  142.0790 C   0  0  0  0  0  3  0  0  0  0  0  0
  189.4110  177.2640  141.2580 C   0  0  0  0  0  3  0  0  0  0  0  0
  185.1920  178.3270  145.2800 C   0  0  0  0  0  3  0  0  0  0  0  0
  187.1340  178.1250  144.1710 C   0  0  0  0  0  0  0  0  0  0  0  0
  191.4470  176.7070  145.1730 C   0  0  0  0  0  3  0  0  0  0  0  0
  186.0970  177.9930  146.2170 C   0  0  0  0  0  3  0  0  0  0  0  0
  188.2720  177.8610  143.4140 C   0  0  0  0  0  0  0  0  0  0  0  0
  190.6170  177.1820  144.1300 C   0  0  0  0  0  0  0  0  0  0  0  0
  188.6200  177.4340  145.6440 C   0  0  0  0  0  0  0  0  0  0  0  0
  189.4560  176.8460  146.9720 S   0  0  0  0  0  0  0  0  0  0  0  0
  185.6800  179.7360  141.9980 O   0  0  0  0  0  1  0  0  0  0  0  0
  185.2020  178.5870  142.6280 C   0  0  2  0  0  3  0  0  0  0  0  0
  181.7650  179.0050  143.5920 C   0  0  0  0  0  3  0  0  0  0  0  0
  182.7880  178.4050  141.7950 C   0  0  0  0  0  0  0  0  0  0  0  0
  183.0620  177.9840  140.3900 C   0  0  0  0  0  1  0  0  0  0  0  0
  180.2860  178.4700  141.6540 C   0  0  0  0  0  1  0  0  0  0  0  0
  183.0810  179.0490  143.9050 N   0  0  0  0  0  0  0  0  0  0  0  0
  181.5710  178.6150  142.3170 N   0  0  0  0  0  0  0  0  0  0  0  0
  183.7160  178.6670  142.7760 C   0  0  0  0  0  0  0  0  0  0  0  0
  192.0200  175.9470  147.4960 C   0  0  0  0  0  2  0  0  0  0  0  0
  192.4290  177.0330  148.3710 N   0  0  0  0  0  2  0  0  0  0  0  0
  193.2010  176.8040  149.5490 C   0  0  0  0  0  0  0  0  0  0  0  0
  193.5650  177.8780  150.3500 O   0  0  0  0  0  1  0  0  0  0  0  0
  193.5550  175.6380  149.8680 O   0  0  0  0  0  0  0  0  0  0  0  0
  1 10  2  0  0  0  0
  1  9  1  0  0  0  0
  2 16  1  0  0  0  0
  2 26  1  0  0  0  0
  3  5  1  0  0  0  0
  4 15  2  0  0  0  0
  4 12  1  0  0  0  0
  5 14  1  0  0  0  0
  6 15  1  0  0  0  0
  7 13  2  0  0  0  0
  8  3  2  0  0  0  0
  8  7  1  0  0  0  0
  9 12  2  0  0  0  0
 10  4  1  0  0  0  0
 11  2  2  0  0  0  0
 13 10  1  0  0  0  0
 13  6  1  0  0  0  0
 14  6  2  0  0  0  0
 14 11  1  0  0  0  0
 15 16  1  0  0  0  0
 18 17  1  1  0  0  0
 18 25  1  0  0  0  0
 18  1  1  0  0  0  0
 19 23  2  0  0  0  0
 20 24  1  0  0  0  0
 20 25  2  0  0  0  0
 21 20  1  0  0  0  0
 22 24  1  0  0  0  0
 24 19  1  0  0  0  0
 25 23  1  0  0  0  0
 26 27  1  0  0  0  0
 27 28  1  0  0  0  0
 28 30  2  0  0  0  0
 28 29  1  0  0  0  0
M  END
>  <MODEL>
4

>  <REMARK>
 VINA RESULT:      -8.6      1.720      2.519
  Name = 
  4 active torsions:
  status: ('A' for Active; 'I' for Inactive)
    1  A    between atoms: C_2  and  C_26
    2  A    between atoms: C_3  and  C_9
    3  A    between atoms: C_9  and  N_11
    4  A    between atoms: C_26  and  C_30
                            x       y       z     vdW  Elec       q    Type
                         _______ _______ _______ _____ _____    ______ ____

>  <TORSDO>
F 4

$$$$
=
 OpenBabel10222416403D

 30 34  0  0  1  0  0  0  0  0999 V2000
  185.1390  178.5950  141.1320 C   0  0  0  0  0  0  0  0  0  0  0  0
  190.1420  177.6460  144.4700 C   0  0  0  0  0  0  0  0  0  0  0  0
  185.7460  178.3700  146.6080 C   0  0  0  0  0  3  0  0  0  0  0  0
  187.1980  178.1120  141.6580 C   0  0  0  0  0  0  0  0  0  0  0  0
  186.8190  177.3700  146.3200 C   0  0  0  0  0  2  0  0  0  0  0  0
  187.2310  177.9900  143.9230 C   0  0  0  0  0  0  0  0  0  0  0  0
  184.8720  178.6280  144.2620 C   0  0  0  0  0  2  0  0  0  0  0  0
  184.8770  178.8530  145.7200 C   0  0  0  0  0  3  0  0  0  0  0  0
  185.9720  178.6180  139.9020 C   0  0  0  0  0  3  0  0  0  0  0  0
  185.9530  178.2910  142.1240 C   0  0  0  0  0  0  0  0  0  0  0  0
  189.1290  177.5790  145.4440 C   0  0  0  0  0  3  0  0  0  0  0  0
  187.2440  178.3240  140.2220 C   0  0  0  0  0  3  0  0  0  0  0  0
  185.9150  178.2550  143.5140 C   0  0  0  0  0  0  0  0  0  0  0  0
  187.7440  177.7440  145.2080 C   0  0  0  0  0  0  0  0  0  0  0  0
  188.0480  177.9500  142.7170 C   0  0  2  0  0  3  0  0  0  0  0  0
  189.7140  177.8130  142.8310 S   0  0  0  0  0  0  0  0  0  0  0  0
  183.0320  178.2070  142.1500 O   0  0  0  0  0  1  0  0  0  0  0  0
  183.7120  179.0300  141.2530 C   0  0  2  0  0  3  0  0  0  0  0  0
  182.1800  179.6320  138.0580 C   0  0  0  0  0  3  0  0  0  0  0  0
  182.6020  177.8890  139.2480 C   0  0  0  0  0  0  0  0  0  0  0  0
  182.7200  176.4700  139.6980 C   0  0  0  0  0  1  0  0  0  0  0  0
  181.4900  177.4590  137.0430 C   0  0  0  0  0  1  0  0  0  0  0  0
  182.7730  180.1060  139.1780 N   0  0  0  0  0  0  0  0  0  0  0  0
  182.0680  178.2900  138.0850 N   0  0  0  0  0  0  0  0  0  0  0  0
  183.0300  179.0080  139.9220 C   0  0  0  0  0  0  0  0  0  0  0  0
  191.5670  177.4560  144.8560 C   0  0  0  0  0  2  0  0  0  0  0  0
  191.6530  177.1430  146.2730 N   0  0  0  0  0  2  0  0  0  0  0  0
  192.1000  175.8700  146.7390 C   0  0  0  0  0  0  0  0  0  0  0  0
  192.1640  175.6230  148.1030 O   0  0  0  0  0  1  0  0  0  0  0  0
  192.4370  174.9700  145.9240 O   0  0  0  0  0  0  0  0  0  0  0  0
  1 18  1  0  0  0  0
  1 10  1  0  0  0  0
  2 26  1  0  0  0  0
  2 11  2  0  0  0  0
  4 10  1  0  0  0  0
  5  3  1  0  0  0  0
  6 14  2  0  0  0  0
  7  8  1  0  0  0  0
  8  3  2  0  0  0  0
  9 12  1  0  0  0  0
  9  1  2  0  0  0  0
 10 13  2  0  0  0  0
 12  4  2  0  0  0  0
 13  6  1  0  0  0  0
 13  7  1  0  0  0  0
 14 11  1  0  0  0  0
 14  5  1  0  0  0  0
 15  4  1  1  0  0  0
 15 16  1  0  0  0  0
 15  6  1  0  0  0  0
 16  2  1  0  0  0  0
 18 17  1  1  0  0  0
 19 24  1  0  0  0  0
 19 23  2  0  0  0  0
 20 21  1  0  0  0  0
 20 25  2  0  0  0  0
 22 24  1  0  0  0  0
 23 25  1  0  0  0  0
 24 20  1  0  0  0  0
 25 18  1  0  0  0  0
 26 27  1  0  0  0  0
 27 28  1  0  0  0  0
 28 29  1  0  0  0  0
 30 28  2  0  0  0  0
M  END
>  <MODEL>
5

>  <REMARK>
 VINA RESULT:      -8.4      1.688      3.055
  Name = 
  4 active torsions:
  status: ('A' for Active; 'I' for Inactive)
    1  A    between atoms: C_2  and  C_26
    2  A    between atoms: C_3  and  C_9
    3  A    between atoms: C_9  and  N_11
    4  A    between atoms: C_26  and  C_30
                            x       y       z     vdW  Elec       q    Type
                         _______ _______ _______ _____ _____    ______ ____

>  <TORSDO>
F 4

$$$$
=
 OpenBabel10222416403D

 30 34  0  0  1  0  0  0  0  0999 V2000
  186.4880  178.3960  140.3800 C   0  0  0  0  0  0  0  0  0  0  0  0
  188.5470  177.6890  146.0670 C   0  0  0  0  0  0  0  0  0  0  0  0
  183.8570  178.9790  145.1920 C   0  0  0  0  0  3  0  0  0  0  0  0
  187.8010  177.8830  142.0420 C   0  0  0  0  0  0  0  0  0  0  0  0
  184.7590  177.8880  145.6710 C   0  0  0  0  0  2  0  0  0  0  0  0
  186.5330  178.1090  143.9090 C   0  0  0  0  0  0  0  0  0  0  0  0
  184.5060  178.9230  142.7610 C   0  0  0  0  0  3  0  0  0  0  0  0
  183.7170  179.3690  143.9250 C   0  0  0  0  0  3  0  0  0  0  0  0
  187.8630  178.1830  139.8620 C   0  0  0  0  0  3  0  0  0  0  0  0
  186.5490  178.2020  141.6840 C   0  0  0  0  0  0  0  0  0  0  0  0
  187.1630  177.8290  146.2770 C   0  0  0  0  0  3  0  0  0  0  0  0
  188.6790  177.8700  140.8850 C   0  0  0  0  0  3  0  0  0  0  0  0
  185.7280  178.3820  142.7920 C   0  0  0  0  0  0  0  0  0  0  0  0
  186.1910  178.0340  145.2700 C   0  0  0  0  0  0  0  0  0  0  0  0
  187.8730  177.8380  143.4060 C   0  0  0  0  0  0  0  0  0  0  0  0
  189.1470  177.6260  144.4750 S   0  0  0  0  0  0  0  0  0  0  0  0
  184.6380  179.8820  140.3670 O   0  0  0  0  0  1  0  0  0  0  0  0
  185.3160  178.9240  139.6140 C   0  0  2  0  0  3  0  0  0  0  0  0
  182.7490  176.4330  139.2570 C   0  0  0  0  0  3  0  0  0  0  0  0
  184.4320  177.0750  138.0780 C   0  0  0  0  0  0  0  0  0  0  0  0
  185.4230  177.2050  136.9700 C   0  0  0  0  0  1  0  0  0  0  0  0
  183.0580  175.2240  137.0960 C   0  0  0  0  0  1  0  0  0  0  0  0
  183.3240  177.4250  139.9760 N   0  0  0  0  0  0  0  0  0  0  0  0
  183.4090  176.2090  138.1040 N   0  0  0  0  0  0  0  0  0  0  0  0
  184.3820  177.8190  139.2340 C   0  0  0  0  0  0  0  0  0  0  0  0
  189.4630  177.4800  147.2210 C   0  0  0  0  0  2  0  0  0  0  0  0
  190.4270  176.4410  146.8990 N   0  0  0  0  0  2  0  0  0  0  0  0
  191.7250  176.4050  147.4930 C   0  0  0  0  0  0  0  0  0  0  0  0
  192.6080  175.3910  147.1510 O   0  0  0  0  0  0  0  0  0  0  0  0
  192.0750  177.2850  148.3230 O   0  0  0  0  0  1  0  0  0  0  0  0
  1 10  2  0  0  0  0
  2 11  2  0  0  0  0
  2 26  1  0  0  0  0
  3  5  1  0  0  0  0
  4 15  2  0  0  0  0
  6 14  2  0  0  0  0
  7 13  2  0  0  0  0
  7  8  1  0  0  0  0
  8  3  2  0  0  0  0
  9  1  1  0  0  0  0
  9 12  2  0  0  0  0
 10  4  1  0  0  0  0
 10 13  1  0  0  0  0
 12  4  1  0  0  0  0
 13  6  1  0  0  0  0
 14  5  1  0  0  0  0
 14 11  1  0  0  0  0
 15  6  1  0  0  0  0
 15 16  1  0  0  0  0
 16  2  1  0  0  0  0
 18 17  1  1  0  0  0
 18  1  1  0  0  0  0
 19 23  2  0  0  0  0
 20 24  1  0  0  0  0
 20 25  2  0  0  0  0
 21 20  1  0  0  0  0
 22 24  1  0  0  0  0
 24 19  1  0  0  0  0
 25 18  1  0  0  0  0
 25 23  1  0  0  0  0
 27 26  1  0  0  0  0
 27 28  1  0  0  0  0
 28 30  1  0  0  0  0
 29 28  2  0  0  0  0
M  END
>  <MODEL>
6

>  <REMARK>
 VINA RESULT:      -8.3      1.553      3.323
  Name = 
  4 active torsions:
  status: ('A' for Active; 'I' for Inactive)
    1  A    between atoms: C_2  and  C_26
    2  A    between atoms: C_3  and  C_9
    3  A    between atoms: C_9  and  N_11
    4  A    between atoms: C_26  and  C_30
                            x       y       z     vdW  Elec       q    Type
                         _______ _______ _______ _____ _____    ______ ____

>  <TORSDO>
F 4

$$$$
=
 OpenBabel10222416403D

 30 34  0  0  1  0  0  0  0  0999 V2000
  189.9320  177.5790  139.2140 C   0  0  0  0  0  0  0  0  0  0  0  0
  189.5610  177.3060  145.2860 C   0  0  0  0  0  0  0  0  0  0  0  0
  185.6900  178.7080  142.5520 C   0  0  0  0  0  3  0  0  0  0  0  0
  190.4540  177.1650  141.2880 C   0  0  0  0  0  0  0  0  0  0  0  0
  186.2510  177.6280  143.4190 C   0  0  0  0  0  2  0  0  0  0  0  0
  188.5810  177.6120  142.4860 C   0  0  0  0  0  0  0  0  0  0  0  0
  187.2260  178.4040  140.5810 C   0  0  0  0  0  3  0  0  0  0  0  0
  186.0820  178.9860  141.3090 C   0  0  0  0  0  3  0  0  0  0  0  0
  191.3810  177.2620  139.2940 C   0  0  0  0  0  3  0  0  0  0  0  0
  189.4680  177.5020  140.4460 C   0  0  0  0  0  0  0  0  0  0  0  0
  188.2190  177.5230  144.9240 C   0  0  0  0  0  3  0  0  0  0  0  0
  191.7090  177.0090  140.5740 C   0  0  0  0  0  3  0  0  0  0  0  0
  188.2960  177.8170  141.1270 C   0  0  0  0  0  0  0  0  0  0  0  0
  187.7320  177.6760  143.6040 C   0  0  0  0  0  0  0  0  0  0  0  0
  189.9870  177.2410  142.5710 C   0  0  0  0  0  0  0  0  0  0  0  0
  190.7260  177.0740  144.0660 S   0  0  0  0  0  0  0  0  0  0  0  0
  188.7100  179.3710  138.2510 O   0  0  0  0  0  1  0  0  0  0  0  0
  189.1930  178.0840  138.0140 C   0  0  2  0  0  3  0  0  0  0  0  0
  186.1000  176.4370  137.2130 C   0  0  0  0  0  3  0  0  0  0  0  0
  188.1670  175.8440  137.3160 C   0  0  0  0  0  0  0  0  0  0  0  0
  189.4190  175.0350  137.2340 C   0  0  0  0  0  1  0  0  0  0  0  0
  186.5530  174.0520  136.6330 C   0  0  0  0  0  1  0  0  0  0  0  0
  186.7680  177.5520  137.5900 N   0  0  0  0  0  0  0  0  0  0  0  0
  186.9350  175.3930  137.0430 N   0  0  0  0  0  0  0  0  0  0  0  0
  188.0620  177.1720  137.6580 C   0  0  0  0  0  0  0  0  0  0  0  0
  189.9390  177.1650  146.7180 C   0  0  0  0  0  2  0  0  0  0  0  0
  190.9810  176.1600  146.8530 N   0  0  0  0  0  2  0  0  0  0  0  0
  192.0750  176.3240  147.7550 C   0  0  0  0  0  0  0  0  0  0  0  0
  193.0440  175.3340  147.8450 O   0  0  0  0  0  0  0  0  0  0  0  0
  192.1700  177.3590  148.4680 O   0  0  0  0  0  1  0  0  0  0  0  0
  1  9  1  0  0  0  0
  1 10  2  0  0  0  0
  2 26  1  0  0  0  0
  3  5  1  0  0  0  0
  4 15  2  0  0  0  0
  5 14  1  0  0  0  0
  6 15  1  0  0  0  0
  6 14  2  0  0  0  0
  7 13  2  0  0  0  0
  7  8  1  0  0  0  0
  8  3  2  0  0  0  0
  9 12  2  0  0  0  0
 10 13  1  0  0  0  0
 10  4  1  0  0  0  0
 11  2  2  0  0  0  0
 12  4  1  0  0  0  0
 13  6  1  0  0  0  0
 14 11  1  0  0  0  0
 15 16  1  0  0  0  0
 16  2  1  0  0  0  0
 18 17  1  1  0  0  0
 18  1  1  0  0  0  0
 19 23  2  0  0  0  0
 20 25  2  0  0  0  0
 21 20  1  0  0  0  0
 22 24  1  0  0  0  0
 23 25  1  0  0  0  0
 24 19  1  0  0  0  0
 24 20  1  0  0  0  0
 25 18  1  0  0  0  0
 26 27  1  0  0  0  0
 27 28  1  0  0  0  0
 28 29  2  0  0  0  0
 28 30  1  0  0  0  0
M  END
>  <MODEL>
7

>  <REMARK>
 VINA RESULT:      -8.2      2.959      4.831
  Name = 
  4 active torsions:
  status: ('A' for Active; 'I' for Inactive)
    1  A    between atoms: C_2  and  C_26
    2  A    between atoms: C_3  and  C_9
    3  A    between atoms: C_9  and  N_11
    4  A    between atoms: C_26  and  C_30
                            x       y       z     vdW  Elec       q    Type
                         _______ _______ _______ _____ _____    ______ ____

>  <TORSDO>
F 4

$$$$
=
 OpenBabel10222416403D

 30 34  0  0  1  0  0  0  0  0999 V2000
  184.3120  178.7950  141.3840 C   0  0  0  0  0  0  0  0  0  0  0  0
  188.7120  177.1710  145.2670 C   0  0  0  0  0  0  0  0  0  0  0  0
  189.6220  177.6480  140.4330 C   0  0  0  0  0  3  0  0  0  0  0  0
  185.3570  178.3870  143.2520 C   0  0  0  0  0  0  0  0  0  0  0  0
  189.8580  178.2330  141.7880 C   0  0  0  0  0  2  0  0  0  0  0  0
  187.5180  178.0170  142.6690 C   0  0  0  0  0  0  0  0  0  0  0  0
  187.1770  178.2130  140.2330 C   0  0  0  0  0  3  0  0  0  0  0  0
  188.4770  177.7040  139.7540 C   0  0  0  0  0  3  0  0  0  0  0  0
  183.3210  178.7310  142.4890 C   0  0  0  0  0  3  0  0  0  0  0  0
  185.4920  178.5740  141.9310 C   0  0  0  0  0  0  0  0  0  0  0  0
  189.4400  177.3950  144.0840 C   0  0  0  0  0  3  0  0  0  0  0  0
  183.9620  178.4750  143.6440 C   0  0  0  0  0  3  0  0  0  0  0  0
  186.7950  178.3330  141.5080 C   0  0  0  0  0  0  0  0  0  0  0  0
  188.8940  177.7910  142.8400 C   0  0  0  0  0  0  0  0  0  0  0  0
  186.5650  178.0100  143.7710 C   0  0  0  0  0  0  0  0  0  0  0  0
  187.0450  177.5130  145.2980 S   0  0  0  0  0  0  0  0  0  0  0  0
  184.3980  180.1340  139.4260 O   0  0  0  0  0  1  0  0  0  0  0  0
  184.0140  178.8870  139.9200 C   0  0  2  0  0  3  0  0  0  0  0  0
  180.4790  179.0020  139.2760 C   0  0  0  0  0  3  0  0  0  0  0  0
  181.9520  177.4420  139.4540 C   0  0  0  0  0  0  0  0  0  0  0  0
  182.6060  176.1000  139.4640 C   0  0  0  0  0  1  0  0  0  0  0  0
  179.6170  176.6820  138.9520 C   0  0  0  0  0  1  0  0  0  0  0  0
  181.6420  179.6430  139.5390 N   0  0  0  0  0  0  0  0  0  0  0  0
  180.6510  177.6660  139.2220 N   0  0  0  0  0  0  0  0  0  0  0  0
  182.5590  178.6590  139.6540 C   0  0  0  0  0  0  0  0  0  0  0  0
  189.4140  176.7530  146.5110 C   0  0  0  0  0  2  0  0  0  0  0  0
  188.4910  176.8010  147.6340 N   0  0  0  0  0  2  0  0  0  0  0  0
  188.4740  177.8930  148.5520 C   0  0  0  0  0  0  0  0  0  0  0  0
  187.5720  177.8890  149.6070 O   0  0  0  0  0  1  0  0  0  0  0  0
  189.2700  178.8600  148.4140 O   0  0  0  0  0  0  0  0  0  0  0  0
  1 10  2  0  0  0  0
  1  9  1  0  0  0  0
  2 16  1  0  0  0  0
  2 26  1  0  0  0  0
  3  5  1  0  0  0  0
  4 12  1  0  0  0  0
  4 15  2  0  0  0  0
  5 14  1  0  0  0  0
  6 14  2  0  0  0  0
  6 15  1  0  0  0  0
  7 13  2  0  0  0  0
  8  7  1  0  0  0  0
  8  3  2  0  0  0  0
  9 12  2  0  0  0  0
 10  4  1  0  0  0  0
 11  2  2  0  0  0  0
 13 10  1  0  0  0  0
 13  6  1  0  0  0  0
 14 11  1  0  0  0  0
 15 16  1  0  0  0  0
 18 17  1  1  0  0  0
 18  1  1  0  0  0  0
 19 23  2  0  0  0  0
 20 21  1  0  0  0  0
 20 25  2  0  0  0  0
 22 24  1  0  0  0  0
 23 25  1  0  0  0  0
 24 19  1  0  0  0  0
 24 20  1  0  0  0  0
 25 18  1  0  0  0  0
 26 27  1  0  0  0  0
 27 28  1  0  0  0  0
 28 29  1  0  0  0  0
 30 28  2  0  0  0  0
M  END
>  <MODEL>
8

>  <REMARK>
 VINA RESULT:      -8.2      1.432      1.655
  Name = 
  4 active torsions:
  status: ('A' for Active; 'I' for Inactive)
    1  A    between atoms: C_2  and  C_26
    2  A    between atoms: C_3  and  C_9
    3  A    between atoms: C_9  and  N_11
    4  A    between atoms: C_26  and  C_30
                            x       y       z     vdW  Elec       q    Type
                         _______ _______ _______ _____ _____    ______ ____

>  <TORSDO>
F 4

$$$$
=
 OpenBabel10222416403D

 30 34  0  0  1  0  0  0  0  0999 V2000
  182.4880  179.0320  142.0240 C   0  0  0  0  0  0  0  0  0  0  0  0
  188.0010  177.5290  144.1270 C   0  0  0  0  0  0  0  0  0  0  0  0
  187.2060  178.1960  139.2950 C   0  0  0  0  0  3  0  0  0  0  0  0
  184.1170  178.6250  143.4120 C   0  0  0  0  0  0  0  0  0  0  0  0
  187.8620  178.7520  140.5170 C   0  0  0  0  0  2  0  0  0  0  0  0
  185.9670  178.3870  142.1220 C   0  0  0  0  0  0  0  0  0  0  0  0
  184.8170  178.6370  139.9530 C   0  0  0  0  0  3  0  0  0  0  0  0
  185.8970  178.2120  139.0430 C   0  0  0  0  0  3  0  0  0  0  0  0
  181.9310  178.8820  143.3930 C   0  0  0  0  0  3  0  0  0  0  0  0
  183.7900  178.8580  142.1330 C   0  0  0  0  0  0  0  0  0  0  0  0
  188.2770  177.8250  142.7800 C   0  0  0  0  0  3  0  0  0  0  0  0
  182.9330  178.6270  144.2530 C   0  0  0  0  0  3  0  0  0  0  0  0
  184.8830  178.6980  141.2870 C   0  0  0  0  0  0  0  0  0  0  0  0
  187.3280  178.2290  141.8100 C   0  0  0  0  0  0  0  0  0  0  0  0
  185.4430  178.2970  143.4780 C   0  0  0  0  0  0  0  0  0  0  0  0
  186.4300  177.7810  144.7310 S   0  0  0  0  0  0  0  0  0  0  0  0
  181.0290  180.3690  140.7140 O   0  0  0  0  0  1  0  0  0  0  0  0
  181.7090  179.1520  140.7520 C   0  0  2  0  0  3  0  0  0  0  0  0
  178.9310  176.8750  140.6190 C   0  0  0  0  0  3  0  0  0  0  0  0
  181.0190  176.7730  140.1030 C   0  0  0  0  0  0  0  0  0  0  0  0
  182.3360  176.2810  139.6020 C   0  0  0  0  0  1  0  0  0  0  0  0
  179.6890  174.6920  139.6760 C   0  0  0  0  0  1  0  0  0  0  0  0
  179.4300  178.0940  140.9290 N   0  0  0  0  0  0  0  0  0  0  0  0
  179.8820  176.0620  140.1180 N   0  0  0  0  0  0  0  0  0  0  0  0
  180.7400  178.0210  140.6080 C   0  0  0  0  0  0  0  0  0  0  0  0
  189.0970  177.1120  145.0430 C   0  0  0  0  0  2  0  0  0  0  0  0
  189.2060  178.0590  146.1400 N   0  0  0  0  0  2  0  0  0  0  0  0
  188.9310  177.6850  147.4900 C   0  0  0  0  0  0  0  0  0  0  0  0
  189.0510  178.6290  148.5010 O   0  0  0  0  0  1  0  0  0  0  0  0
  188.5820  176.5080  147.7720 O   0  0  0  0  0  0  0  0  0  0  0  0
  1 10  2  0  0  0  0
  1  9  1  0  0  0  0
  2 16  1  0  0  0  0
  2 26  1  0  0  0  0
  3  5  1  0  0  0  0
  4 15  2  0  0  0  0
  4 12  1  0  0  0  0
  5 14  1  0  0  0  0
  6 15  1  0  0  0  0
  7 13  2  0  0  0  0
  8  3  2  0  0  0  0
  8  7  1  0  0  0  0
  9 12  2  0  0  0  0
 10  4  1  0  0  0  0
 11  2  2  0  0  0  0
 13  6  1  0  0  0  0
 13 10  1  0  0  0  0
 14  6  2  0  0  0  0
 14 11  1  0  0  0  0
 15 16  1  0  0  0  0
 18 17  1  1  0  0  0
 18  1  1  0  0  0  0
 19 23  2  0  0  0  0
 20 24  1  0  0  0  0
 20 25  2  0  0  0  0
 21 20  1  0  0  0  0
 22 24  1  0  0  0  0
 24 19  1  0  0  0  0
 25 18  1  0  0  0  0
 25 23  1  0  0  0  0
 26 27  1  0  0  0  0
 27 28  1  0  0  0  0
 28 30  2  0  0  0  0
 28 29  1  0  0  0  0
M  END
>  <MODEL>
9

>  <REMARK>
 VINA RESULT:      -8.2      1.873      2.583
  Name = 
  4 active torsions:
  status: ('A' for Active; 'I' for Inactive)
    1  A    between atoms: C_2  and  C_26
    2  A    between atoms: C_3  and  C_9
    3  A    between atoms: C_9  and  N_11
    4  A    between atoms: C_26  and  C_30
                            x       y       z     vdW  Elec       q    Type
                         _______ _______ _______ _____ _____    ______ ____

>  <TORSDO>
F 4

$$$$
