=
 OpenBabel10222417083D

 25 28  0  0  1  0  0  0  0  0999 V2000
  190.6720  176.4030  143.1980 C   0  0  2  0  0  3  0  0  0  0  0  0
  190.2000  176.9660  146.1230 C   0  0  0  0  0  2  0  0  0  0  0  0
  191.6060  176.7830  145.5380 C   0  0  0  0  0  2  0  0  0  0  0  0
  189.6250  177.4360  143.6670 C   0  0  1  0  0  3  0  0  0  0  0  0
  189.0950  177.0480  145.0560 C   0  0  2  0  0  3  0  0  0  0  0  0
  190.1590  178.8690  143.6570 C   0  0  0  0  0  1  0  0  0  0  0  0
  191.5860  175.8690  144.3160 C   0  0  0  0  0  2  0  0  0  0  0  0
  188.0670  177.9340  145.4840 O   0  0  0  0  0  0  0  0  0  0  0  0
  183.2390  178.5790  142.8960 N   0  0  0  0  0  0  0  0  0  0  0  0
  185.6000  178.9160  146.9480 C   0  0  0  0  0  1  0  0  0  0  0  0
  184.4660  178.3810  143.4010 C   0  0  0  0  0  0  0  0  0  0  0  0
  185.6040  177.9760  142.7140 C   0  0  0  0  0  3  0  0  0  0  0  0
  181.1610  179.3070  143.9350 N   0  0  0  0  0  1  0  0  0  0  0  0
  184.4810  178.6520  144.7350 C   0  0  0  0  0  0  0  0  0  0  0  0
  186.7910  177.8420  143.4530 C   0  0  0  0  0  3  0  0  0  0  0  0
  183.2600  179.0390  145.1400 N   0  0  0  0  0  2  0  0  0  0  0  0
  186.8300  178.1060  144.8420 C   0  0  0  0  0  0  0  0  0  0  0  0
  182.5430  178.9760  143.9890 C   0  0  0  0  0  0  0  0  0  0  0  0
  185.6420  178.5360  145.5050 C   0  0  0  0  0  0  0  0  0  0  0  0
  191.4570  176.8980  142.0760 N   0  0  0  0  0  2  0  0  0  0  0  0
  190.4620  177.8180  140.0600 C   0  0  0  0  0  2  0  0  0  0  0  0
  191.5320  176.8590  139.5860 C   0  0  2  0  0  3  0  0  0  0  0  0
  190.7320  176.5570  140.8580 C   0  0  1  0  0  3  0  0  0  0  0  0
  192.9060  177.4710  139.8290 C   0  0  0  0  0  2  0  0  0  0  0  0
  193.8750  176.7230  139.1610 O   0  0  0  0  0  1  0  0  0  0  0  0
  1 20  1  6  0  0  0
  1  4  1  0  0  0  0
  1  7  1  0  0  0  0
  3  2  1  0  0  0  0
  4  6  1  1  0  0  0
  4  5  1  0  0  0  0
  5  8  1  1  0  0  0
  5  2  1  0  0  0  0
  7  3  1  0  0  0  0
  9 11  1  0  0  0  0
  9 18  2  0  0  0  0
 11 14  1  0  0  0  0
 12 11  2  0  0  0  0
 12 15  1  0  0  0  0
 13 18  1  0  0  0  0
 14 16  1  0  0  0  0
 14 19  2  0  0  0  0
 15 17  2  0  0  0  0
 17  8  1  0  0  0  0
 17 19  1  0  0  0  0
 18 16  1  0  0  0  0
 19 10  1  0  0  0  0
 21 23  1  0  0  0  0
 22 24  1  1  0  0  0
 22 21  1  0  0  0  0
 22 23  1  0  0  0  0
 23 20  1  1  0  0  0
 25 24  1  0  0  0  0
M  END
>  <MODEL>
1

>  <REMARK>
 VINA RESULT:      -8.0      0.000      0.000
  Name = 
  5 active torsions:
  status: ('A' for Active; 'I' for Inactive)
    1  A    between atoms: C_1  and  N_19
    2  A    between atoms: C_6  and  C_8
    3  A    between atoms: C_9  and  O_17
    4  A    between atoms: O_17  and  C_20
    5  A    between atoms: N_19  and  C_23
                            x       y       z     vdW  Elec       q    Type
                         _______ _______ _______ _____ _____    ______ ____

>  <TORSDO>
F 5

$$$$
=
 OpenBabel10222417083D

 25 28  0  0  1  0  0  0  0  0999 V2000
  183.6650  178.1010  142.3150 C   0  0  2  0  0  3  0  0  0  0  0  0
  186.6120  178.7200  142.4480 C   0  0  0  0  0  2  0  0  0  0  0  0
  185.6900  179.3430  141.3940 C   0  0  0  0  0  2  0  0  0  0  0  0
  184.3830  178.3380  143.6600 C   0  0  1  0  0  3  0  0  0  0  0  0
  185.8620  177.9370  143.5390 C   0  0  2  0  0  3  0  0  0  0  0  0
  184.2370  179.7730  144.1670 C   0  0  0  0  0  1  0  0  0  0  0  0
  184.5130  178.4260  141.0720 C   0  0  0  0  0  2  0  0  0  0  0  0
  186.5370  178.0650  144.7850 O   0  0  0  0  0  0  0  0  0  0  0  0
  191.6720  176.2860  145.7330 N   0  0  0  0  0  0  0  0  0  0  0  0
  187.6710  177.9130  147.5930 C   0  0  0  0  0  1  0  0  0  0  0  0
  190.4490  176.6950  145.3650 C   0  0  0  0  0  0  0  0  0  0  0  0
  189.9180  176.7170  144.0810 C   0  0  0  0  0  3  0  0  0  0  0  0
  192.7450  176.1540  147.9140 N   0  0  0  0  0  1  0  0  0  0  0  0
  189.7330  177.0940  146.4530 C   0  0  0  0  0  0  0  0  0  0  0  0
  188.6010  177.1820  143.9340 C   0  0  0  0  0  3  0  0  0  0  0  0
  190.4710  176.9540  147.5660 N   0  0  0  0  0  2  0  0  0  0  0  0
  187.8410  177.6130  145.0450 C   0  0  0  0  0  0  0  0  0  0  0  0
  191.6380  176.4640  147.0770 C   0  0  0  0  0  0  0  0  0  0  0  0
  188.4180  177.5580  146.3500 C   0  0  0  0  0  0  0  0  0  0  0  0
  182.3790  178.7830  142.2600 N   0  0  0  0  0  2  0  0  0  0  0  0
  180.6410  177.7910  140.8840 C   0  0  0  0  0  2  0  0  0  0  0  0
  180.4950  179.2870  140.7090 C   0  0  2  0  0  3  0  0  0  0  0  0
  181.8830  178.6620  140.8960 C   0  0  1  0  0  3  0  0  0  0  0  0
  179.8950  179.8900  141.9730 C   0  0  0  0  0  2  0  0  0  0  0  0
  179.6110  181.2380  141.7570 O   0  0  0  0  0  1  0  0  0  0  0  0
  1 20  1  1  0  0  0
  1  4  1  0  0  0  0
  2  5  1  0  0  0  0
  3  2  1  0  0  0  0
  4  6  1  6  0  0  0
  5  4  1  0  0  0  0
  5  8  1  1  0  0  0
  7  3  1  0  0  0  0
  7  1  1  0  0  0  0
  8 17  1  0  0  0  0
  9 18  2  0  0  0  0
 11  9  1  0  0  0  0
 11 14  1  0  0  0  0
 12 11  2  0  0  0  0
 14 16  1  0  0  0  0
 15 12  1  0  0  0  0
 15 17  2  0  0  0  0
 17 19  1  0  0  0  0
 18 16  1  0  0  0  0
 18 13  1  0  0  0  0
 19 14  2  0  0  0  0
 19 10  1  0  0  0  0
 21 23  1  0  0  0  0
 22 21  1  0  0  0  0
 22 23  1  0  0  0  0
 22 24  1  1  0  0  0
 23 20  1  1  0  0  0
 25 24  1  0  0  0  0
M  END
>  <MODEL>
2

>  <REMARK>
 VINA RESULT:      -8.0      3.237      8.043
  Name = 
  5 active torsions:
  status: ('A' for Active; 'I' for Inactive)
    1  A    between atoms: C_1  and  N_19
    2  A    between atoms: C_6  and  C_8
    3  A    between atoms: C_9  and  O_17
    4  A    between atoms: O_17  and  C_20
    5  A    between atoms: N_19  and  C_23
                            x       y       z     vdW  Elec       q    Type
                         _______ _______ _______ _____ _____    ______ ____

>  <TORSDO>
F 5

$$$$
=
 OpenBabel10222417083D

 25 28  0  0  1  0  0  0  0  0999 V2000
  189.4020  178.0800  144.1610 C   0  0  2  0  0  3  0  0  0  0  0  0
  188.8790  178.1000  141.1920 C   0  0  0  0  0  2  0  0  0  0  0  0
  190.2180  177.6470  141.7860 C   0  0  0  0  0  2  0  0  0  0  0  0
  188.0580  177.6030  143.5720 C   0  0  1  0  0  3  0  0  0  0  0  0
  187.7830  178.3300  142.2460 C   0  0  2  0  0  3  0  0  0  0  0  0
  187.9920  176.0860  143.3960 C   0  0  0  0  0  1  0  0  0  0  0  0
  190.5010  178.3430  143.1150 C   0  0  0  0  0  2  0  0  0  0  0  0
  186.5110  177.9750  141.7150 O   0  0  0  0  0  0  0  0  0  0  0  0
  181.6910  179.2240  144.0880 N   0  0  0  0  0  0  0  0  0  0  0  0
  183.9370  178.0870  140.1160 C   0  0  0  0  0  1  0  0  0  0  0  0
  182.9210  178.9340  143.6390 C   0  0  0  0  0  0  0  0  0  0  0  0
  184.0890  178.8370  144.3850 C   0  0  0  0  0  3  0  0  0  0  0  0
  179.5520  179.4050  142.9390 N   0  0  0  0  0  1  0  0  0  0  0  0
  182.8980  178.7140  142.2950 C   0  0  0  0  0  0  0  0  0  0  0  0
  185.2700  178.5100  143.6980 C   0  0  0  0  0  3  0  0  0  0  0  0
  181.6470  178.8520  141.8280 N   0  0  0  0  0  2  0  0  0  0  0  0
  185.2750  178.2900  142.3020 C   0  0  0  0  0  0  0  0  0  0  0  0
  180.9530  179.1630  142.9520 C   0  0  0  0  0  0  0  0  0  0  0  0
  184.0490  178.3810  141.5760 C   0  0  0  0  0  0  0  0  0  0  0  0
  189.8820  177.1880  145.2070 N   0  0  0  0  0  2  0  0  0  0  0  0
  189.0020  176.6860  147.4140 C   0  0  0  0  0  2  0  0  0  0  0  0
  190.3720  177.2850  147.6480 C   0  0  2  0  0  3  0  0  0  0  0  0
  189.5020  177.7750  146.4850 C   0  0  1  0  0  3  0  0  0  0  0  0
  191.4420  176.2730  147.2580 C   0  0  0  0  0  2  0  0  0  0  0  0
  192.5240  176.3790  148.1310 O   0  0  0  0  0  1  0  0  0  0  0  0
  1 20  1  1  0  0  0
  2  3  1  0  0  0  0
  2  5  1  0  0  0  0
  3  7  1  0  0  0  0
  4  6  1  6  0  0  0
  4  1  1  0  0  0  0
  5  8  1  6  0  0  0
  5  4  1  0  0  0  0
  7  1  1  0  0  0  0
  8 17  1  0  0  0  0
 10 19  1  0  0  0  0
 11  9  1  0  0  0  0
 11 12  1  0  0  0  0
 13 18  1  0  0  0  0
 14 11  2  0  0  0  0
 15 12  2  0  0  0  0
 16 14  1  0  0  0  0
 16 18  1  0  0  0  0
 17 15  1  0  0  0  0
 18  9  2  0  0  0  0
 19 14  1  0  0  0  0
 19 17  2  0  0  0  0
 21 22  1  0  0  0  0
 22 24  1  6  0  0  0
 23 20  1  6  0  0  0
 23 21  1  0  0  0  0
 23 22  1  0  0  0  0
 24 25  1  0  0  0  0
M  END
>  <MODEL>
3

>  <REMARK>
 VINA RESULT:      -7.7      2.546      4.627
  Name = 
  5 active torsions:
  status: ('A' for Active; 'I' for Inactive)
    1  A    between atoms: C_1  and  N_19
    2  A    between atoms: C_6  and  C_8
    3  A    between atoms: C_9  and  O_17
    4  A    between atoms: O_17  and  C_20
    5  A    between atoms: N_19  and  C_23
                            x       y       z     vdW  Elec       q    Type
                         _______ _______ _______ _____ _____    ______ ____

>  <TORSDO>
F 5

$$$$
=
 OpenBabel10222417083D

 25 28  0  0  1  0  0  0  0  0999 V2000
  189.2530  176.1350  138.2580 C   0  0  2  0  0  3  0  0  0  0  0  0
  191.2960  177.1530  140.2280 C   0  0  0  0  0  2  0  0  0  0  0  0
  191.6650  176.7580  138.7940 C   0  0  0  0  0  2  0  0  0  0  0  0
  188.9500  177.3170  139.2030 C   0  0  1  0  0  3  0  0  0  0  0  0
  189.7810  177.1840  140.4890 C   0  0  2  0  0  3  0  0  0  0  0  0
  189.1690  178.6770  138.5400 C   0  0  0  0  0  1  0  0  0  0  0  0
  190.7250  175.6840  138.2520 C   0  0  0  0  0  2  0  0  0  0  0  0
  189.4650  178.2140  141.4190 O   0  0  0  0  0  0  0  0  0  0  0  0
  187.1450  177.3930  146.3550 N   0  0  0  0  0  0  0  0  0  0  0  0
  191.0630  178.4590  143.9840 C   0  0  0  0  0  1  0  0  0  0  0  0
  187.5820  177.5670  145.0990 C   0  0  0  0  0  0  0  0  0  0  0  0
  186.8340  177.5000  143.9300 C   0  0  0  0  0  3  0  0  0  0  0  0
  188.2970  177.5010  148.4970 N   0  0  0  0  0  1  0  0  0  0  0  0
  188.9140  177.8500  145.0930 C   0  0  0  0  0  0  0  0  0  0  0  0
  187.5070  177.7270  142.7190 C   0  0  0  0  0  3  0  0  0  0  0  0
  189.3850  177.8720  146.3500 N   0  0  0  0  0  2  0  0  0  0  0  0
  188.8910  178.0100  142.6840 C   0  0  0  0  0  0  0  0  0  0  0  0
  188.2760  177.5870  147.0780 C   0  0  0  0  0  0  0  0  0  0  0  0
  189.6190  178.0870  143.9100 C   0  0  0  0  0  0  0  0  0  0  0  0
  188.7810  176.3880  136.9040 N   0  0  0  0  0  2  0  0  0  0  0  0
  186.3720  176.6590  136.7630 C   0  0  0  0  0  2  0  0  0  0  0  0
  186.7900  176.0370  135.4480 C   0  0  2  0  0  3  0  0  0  0  0  0
  187.5230  175.6710  136.7440 C   0  0  1  0  0  3  0  0  0  0  0  0
  187.4950  177.0840  134.5940 C   0  0  0  0  0  2  0  0  0  0  0  0
  186.7870  178.2840  134.6480 O   0  0  0  0  0  1  0  0  0  0  0  0
  1 20  1  6  0  0  0
  1  4  1  0  0  0  0
  2  5  1  0  0  0  0
  3  2  1  0  0  0  0
  4  6  1  6  0  0  0
  4  5  1  0  0  0  0
  5  8  1  1  0  0  0
  7  1  1  0  0  0  0
  7  3  1  0  0  0  0
  8 17  1  0  0  0  0
  9 18  2  0  0  0  0
 11  9  1  0  0  0  0
 12 11  2  0  0  0  0
 14 11  1  0  0  0  0
 14 16  1  0  0  0  0
 15 12  1  0  0  0  0
 16 18  1  0  0  0  0
 17 15  2  0  0  0  0
 17 19  1  0  0  0  0
 18 13  1  0  0  0  0
 19 10  1  0  0  0  0
 19 14  2  0  0  0  0
 22 24  1  6  0  0  0
 22 23  1  0  0  0  0
 22 21  1  0  0  0  0
 23 21  1  0  0  0  0
 23 20  1  6  0  0  0
 24 25  1  0  0  0  0
M  END
>  <MODEL>
4

>  <REMARK>
 VINA RESULT:      -7.6      3.852      5.610
  Name = 
  5 active torsions:
  status: ('A' for Active; 'I' for Inactive)
    1  A    between atoms: C_1  and  N_19
    2  A    between atoms: C_6  and  C_8
    3  A    between atoms: C_9  and  O_17
    4  A    between atoms: O_17  and  C_20
    5  A    between atoms: N_19  and  C_23
                            x       y       z     vdW  Elec       q    Type
                         _______ _______ _______ _____ _____    ______ ____

>  <TORSDO>
F 5

$$$$
=
 OpenBabel10222417083D

 25 28  0  0  1  0  0  0  0  0999 V2000
  181.6710  179.6070  139.3790 C   0  0  2  0  0  3  0  0  0  0  0  0
  182.8000  176.9440  140.2300 C   0  0  0  0  0  2  0  0  0  0  0  0
  181.9950  177.1180  138.9370 C   0  0  0  0  0  2  0  0  0  0  0  0
  183.0890  179.4810  139.9740 C   0  0  1  0  0  3  0  0  0  0  0  0
  183.1520  178.2720  140.9210 C   0  0  2  0  0  3  0  0  0  0  0  0
  184.1770  179.4020  138.9020 C   0  0  0  0  0  1  0  0  0  0  0  0
  180.9920  178.2630  139.0560 C   0  0  0  0  0  2  0  0  0  0  0  0
  184.4240  178.1730  141.5520 O   0  0  0  0  0  0  0  0  0  0  0  0
  185.2580  178.7760  146.9710 N   0  0  0  0  0  0  0  0  0  0  0  0
  187.1210  177.6050  142.8150 C   0  0  0  0  0  1  0  0  0  0  0  0
  184.9220  178.6720  145.6770 C   0  0  0  0  0  0  0  0  0  0  0  0
  183.6980  178.9800  145.0970 C   0  0  0  0  0  3  0  0  0  0  0  0
  187.3410  178.3140  148.1440 N   0  0  0  0  0  1  0  0  0  0  0  0
  185.9790  178.2230  144.9450 C   0  0  0  0  0  0  0  0  0  0  0  0
  183.5770  178.8000  143.7090 C   0  0  0  0  0  3  0  0  0  0  0  0
  187.0400  178.0220  145.7450 N   0  0  0  0  0  2  0  0  0  0  0  0
  184.6550  178.3230  142.9290 C   0  0  0  0  0  0  0  0  0  0  0  0
  186.5510  178.3690  146.9620 C   0  0  0  0  0  0  0  0  0  0  0  0
  185.9010  178.0360  143.5620 C   0  0  0  0  0  0  0  0  0  0  0  0
  181.6450  180.4940  138.2240 N   0  0  0  0  0  2  0  0  0  0  0  0
  179.8370  181.8730  139.0780 C   0  0  0  0  0  2  0  0  0  0  0  0
  180.1000  182.3700  137.6730 C   0  0  2  0  0  3  0  0  0  0  0  0
  180.2570  180.8820  138.0090 C   0  0  1  0  0  3  0  0  0  0  0  0
  181.4050  183.1570  137.6490 C   0  0  0  0  0  2  0  0  0  0  0  0
  181.2950  184.2150  136.7490 O   0  0  0  0  0  1  0  0  0  0  0  0
  1 20  1  6  0  0  0
  1  4  1  0  0  0  0
  2  5  1  0  0  0  0
  3  7  1  0  0  0  0
  3  2  1  0  0  0  0
  4  6  1  6  0  0  0
  4  5  1  0  0  0  0
  5  8  1  6  0  0  0
  7  1  1  0  0  0  0
  8 17  1  0  0  0  0
 10 19  1  0  0  0  0
 11  9  1  0  0  0  0
 12 11  1  0  0  0  0
 14 11  2  0  0  0  0
 14 16  1  0  0  0  0
 15 12  2  0  0  0  0
 16 18  1  0  0  0  0
 17 19  2  0  0  0  0
 17 15  1  0  0  0  0
 18  9  2  0  0  0  0
 18 13  1  0  0  0  0
 19 14  1  0  0  0  0
 22 24  1  1  0  0  0
 22 23  1  0  0  0  0
 22 21  1  0  0  0  0
 23 20  1  1  0  0  0
 23 21  1  0  0  0  0
 25 24  1  0  0  0  0
M  END
>  <MODEL>
5

>  <REMARK>
 VINA RESULT:      -7.4      4.931      8.499
  Name = 
  5 active torsions:
  status: ('A' for Active; 'I' for Inactive)
    1  A    between atoms: C_1  and  N_19
    2  A    between atoms: C_6  and  C_8
    3  A    between atoms: C_9  and  O_17
    4  A    between atoms: O_17  and  C_20
    5  A    between atoms: N_19  and  C_23
                            x       y       z     vdW  Elec       q    Type
                         _______ _______ _______ _____ _____    ______ ____

>  <TORSDO>
F 5

$$$$
=
 OpenBabel10222417083D

 25 28  0  0  1  0  0  0  0  0999 V2000
  189.2820  177.4620  144.0130 C   0  0  2  0  0  3  0  0  0  0  0  0
  191.5800  177.9780  142.1310 C   0  0  0  0  0  2  0  0  0  0  0  0
  191.6800  178.2380  143.6380 C   0  0  0  0  0  2  0  0  0  0  0  0
  189.6350  176.4790  142.8760 C   0  0  1  0  0  3  0  0  0  0  0  0
  190.2960  177.2400  141.7160 C   0  0  2  0  0  3  0  0  0  0  0  0
  190.5110  175.3170  143.3470 C   0  0  0  0  0  1  0  0  0  0  0  0
  190.3180  178.5790  144.2360 C   0  0  0  0  0  2  0  0  0  0  0  0
  190.5610  176.3780  140.6150 O   0  0  0  0  0  0  0  0  0  0  0  0
  188.9290  177.2000  135.4110 N   0  0  0  0  0  0  0  0  0  0  0  0
  188.0070  177.8790  139.9710 C   0  0  0  0  0  1  0  0  0  0  0  0
  189.4380  176.9330  136.6220 C   0  0  0  0  0  0  0  0  0  0  0  0
  190.6330  176.2860  136.9100 C   0  0  0  0  0  3  0  0  0  0  0  0
  186.8860  178.3360  134.7300 N   0  0  0  0  0  1  0  0  0  0  0  0
  188.6170  177.4090  137.6000 C   0  0  0  0  0  0  0  0  0  0  0  0
  190.9720  176.1240  138.2630 C   0  0  0  0  0  3  0  0  0  0  0  0
  187.5460  178.0040  137.0500 N   0  0  0  0  0  2  0  0  0  0  0  0
  190.1310  176.5980  139.2970 C   0  0  0  0  0  0  0  0  0  0  0  0
  187.7800  177.8490  135.7230 C   0  0  0  0  0  0  0  0  0  0  0  0
  188.9200  177.2730  138.9570 C   0  0  0  0  0  0  0  0  0  0  0  0
  188.9900  176.7670  145.2590 N   0  0  0  0  0  2  0  0  0  0  0  0
  188.3680  177.1280  147.5790 C   0  0  0  0  0  2  0  0  0  0  0  0
  189.8110  177.5720  147.4700 C   0  0  2  0  0  3  0  0  0  0  0  0
  188.8470  177.7800  146.2960 C   0  0  1  0  0  3  0  0  0  0  0  0
  190.7100  176.3480  147.3430 C   0  0  0  0  0  2  0  0  0  0  0  0
  192.0240  176.7560  147.1180 O   0  0  0  0  0  1  0  0  0  0  0  0
  1  7  1  0  0  0  0
  1 20  1  1  0  0  0
  2  3  1  0  0  0  0
  3  7  1  0  0  0  0
  4  6  1  1  0  0  0
  4  1  1  0  0  0  0
  5  8  1  6  0  0  0
  5  2  1  0  0  0  0
  5  4  1  0  0  0  0
  9 18  2  0  0  0  0
  9 11  1  0  0  0  0
 11 12  2  0  0  0  0
 11 14  1  0  0  0  0
 12 15  1  0  0  0  0
 13 18  1  0  0  0  0
 14 19  2  0  0  0  0
 15 17  2  0  0  0  0
 16 14  1  0  0  0  0
 17  8  1  0  0  0  0
 18 16  1  0  0  0  0
 19 17  1  0  0  0  0
 19 10  1  0  0  0  0
 22 24  1  6  0  0  0
 22 21  1  0  0  0  0
 23 20  1  6  0  0  0
 23 22  1  0  0  0  0
 23 21  1  0  0  0  0
 25 24  1  0  0  0  0
M  END
>  <MODEL>
6

>  <REMARK>
 VINA RESULT:      -7.2      3.825      6.930
  Name = 
  5 active torsions:
  status: ('A' for Active; 'I' for Inactive)
    1  A    between atoms: C_1  and  N_19
    2  A    between atoms: C_6  and  C_8
    3  A    between atoms: C_9  and  O_17
    4  A    between atoms: O_17  and  C_20
    5  A    between atoms: N_19  and  C_23
                            x       y       z     vdW  Elec       q    Type
                         _______ _______ _______ _____ _____    ______ ____

>  <TORSDO>
F 5

$$$$
=
 OpenBabel10222417083D

 25 28  0  0  1  0  0  0  0  0999 V2000
  189.4210  177.7330  144.8430 C   0  0  2  0  0  3  0  0  0  0  0  0
  191.5660  176.8250  142.9290 C   0  0  0  0  0  2  0  0  0  0  0  0
  191.4670  176.2930  144.3630 C   0  0  0  0  0  2  0  0  0  0  0  0
  189.1110  177.4320  143.3620 C   0  0  1  0  0  3  0  0  0  0  0  0
  190.3620  177.6830  142.5050 C   0  0  2  0  0  3  0  0  0  0  0  0
  188.5650  176.0200  143.1460 C   0  0  0  0  0  1  0  0  0  0  0  0
  190.8340  177.3210  145.2960 C   0  0  0  0  0  2  0  0  0  0  0  0
  190.0890  177.4930  141.1210 O   0  0  0  0  0  0  0  0  0  0  0  0
  193.9290  176.3760  137.3220 N   0  0  0  0  0  0  0  0  0  0  0  0
  189.3520  176.3750  138.4010 C   0  0  0  0  0  1  0  0  0  0  0  0
  193.1010  176.6910  138.3290 C   0  0  0  0  0  0  0  0  0  0  0  0
  193.4400  177.2480  139.5560 C   0  0  0  0  0  3  0  0  0  0  0  0
  193.5080  175.4310  135.1180 N   0  0  0  0  0  1  0  0  0  0  0  0
  191.8120  176.4060  137.9930 C   0  0  0  0  0  0  0  0  0  0  0  0
  192.3970  177.5030  140.4610 C   0  0  0  0  0  3  0  0  0  0  0  0
  191.7620  175.8970  136.7510 N   0  0  0  0  0  2  0  0  0  0  0  0
  191.0530  177.2040  140.1420 C   0  0  0  0  0  0  0  0  0  0  0  0
  193.0700  175.8960  136.3880 C   0  0  0  0  0  0  0  0  0  0  0  0
  190.7450  176.6490  138.8630 C   0  0  0  0  0  0  0  0  0  0  0  0
  188.4080  177.1820  145.7320 N   0  0  0  0  0  2  0  0  0  0  0  0
  186.1910  177.6260  146.6200 C   0  0  0  0  0  2  0  0  0  0  0  0
  187.1380  178.4720  147.4440 C   0  0  2  0  0  3  0  0  0  0  0  0
  187.4160  178.2260  145.9570 C   0  0  1  0  0  3  0  0  0  0  0  0
  187.9230  177.5770  148.3940 C   0  0  0  0  0  2  0  0  0  0  0  0
  189.0560  178.2540  148.8440 O   0  0  0  0  0  1  0  0  0  0  0  0
  1  7  1  0  0  0  0
  1 20  1  1  0  0  0
  2  3  1  0  0  0  0
  3  7  1  0  0  0  0
  4  6  1  1  0  0  0
  4  1  1  0  0  0  0
  5  8  1  6  0  0  0
  5  2  1  0  0  0  0
  5  4  1  0  0  0  0
  9 11  1  0  0  0  0
 10 19  1  0  0  0  0
 11 12  1  0  0  0  0
 12 15  2  0  0  0  0
 13 18  1  0  0  0  0
 14 11  2  0  0  0  0
 14 19  1  0  0  0  0
 16 14  1  0  0  0  0
 17 15  1  0  0  0  0
 17  8  1  0  0  0  0
 18 16  1  0  0  0  0
 18  9  2  0  0  0  0
 19 17  2  0  0  0  0
 21 22  1  0  0  0  0
 22 24  1  1  0  0  0
 23 20  1  1  0  0  0
 23 21  1  0  0  0  0
 23 22  1  0  0  0  0
 24 25  1  0  0  0  0
M  END
>  <MODEL>
7

>  <REMARK>
 VINA RESULT:      -7.2      3.219      8.356
  Name = 
  5 active torsions:
  status: ('A' for Active; 'I' for Inactive)
    1  A    between atoms: C_1  and  N_19
    2  A    between atoms: C_6  and  C_8
    3  A    between atoms: C_9  and  O_17
    4  A    between atoms: O_17  and  C_20
    5  A    between atoms: N_19  and  C_23
                            x       y       z     vdW  Elec       q    Type
                         _______ _______ _______ _____ _____    ______ ____

>  <TORSDO>
F 5

$$$$
=
 OpenBabel10222417083D

 25 28  0  0  1  0  0  0  0  0999 V2000
  186.0860  179.2010  145.9890 C   0  0  2  0  0  3  0  0  0  0  0  0
  188.1620  177.8950  147.7430 C   0  0  0  0  0  2  0  0  0  0  0  0
  186.7480  178.2130  148.2420 C   0  0  0  0  0  2  0  0  0  0  0  0
  187.0150  178.0900  145.4550 C   0  0  1  0  0  3  0  0  0  0  0  0
  188.3420  178.1040  146.2300 C   0  0  2  0  0  3  0  0  0  0  0  0
  186.3670  176.7060  145.4920 C   0  0  0  0  0  1  0  0  0  0  0  0
  186.1560  179.4150  147.5120 C   0  0  0  0  0  2  0  0  0  0  0  0
  189.2570  177.1450  145.7090 O   0  0  0  0  0  0  0  0  0  0  0  0
  192.0640  177.6840  140.9920 N   0  0  0  0  0  0  0  0  0  0  0  0
  188.2980  175.8590  143.1370 C   0  0  0  0  0  1  0  0  0  0  0  0
  191.4810  177.6340  142.1990 C   0  0  0  0  0  0  0  0  0  0  0  0
  191.9000  178.2650  143.3630 C   0  0  0  0  0  3  0  0  0  0  0  0
  191.4580  176.6750  138.8600 N   0  0  0  0  0  1  0  0  0  0  0  0
  190.3570  176.8660  142.1530 C   0  0  0  0  0  0  0  0  0  0  0  0
  191.1210  178.0760  144.5170 C   0  0  0  0  0  3  0  0  0  0  0  0
  190.1730  176.3930  140.9100 N   0  0  0  0  0  2  0  0  0  0  0  0
  189.9570  177.2730  144.4990 C   0  0  0  0  0  0  0  0  0  0  0  0
  191.2350  176.9150  140.2440 C   0  0  0  0  0  0  0  0  0  0  0  0
  189.5530  176.6570  143.2770 C   0  0  0  0  0  0  0  0  0  0  0  0
  184.7090  179.0110  145.5530 N   0  0  0  0  0  2  0  0  0  0  0  0
  184.3430  178.6200  143.1840 C   0  0  0  0  0  2  0  0  0  0  0  0
  183.1810  179.4770  143.6400 C   0  0  2  0  0  3  0  0  0  0  0  0
  184.5720  179.6660  144.2590 C   0  0  1  0  0  3  0  0  0  0  0  0
  182.2250  178.6320  144.4740 C   0  0  0  0  0  2  0  0  0  0  0  0
  180.9360  178.7390  143.9550 O   0  0  0  0  0  1  0  0  0  0  0  0
  1 20  1  1  0  0  0
  1  7  1  0  0  0  0
  2  3  1  0  0  0  0
  4  6  1  1  0  0  0
  4  1  1  0  0  0  0
  4  5  1  0  0  0  0
  5  8  1  6  0  0  0
  5  2  1  0  0  0  0
  7  3  1  0  0  0  0
  9 11  1  0  0  0  0
 10 19  1  0  0  0  0
 11 12  1  0  0  0  0
 12 15  2  0  0  0  0
 13 18  1  0  0  0  0
 14 11  2  0  0  0  0
 14 19  1  0  0  0  0
 16 14  1  0  0  0  0
 17 15  1  0  0  0  0
 17  8  1  0  0  0  0
 18 16  1  0  0  0  0
 18  9  2  0  0  0  0
 19 17  2  0  0  0  0
 21 22  1  0  0  0  0
 21 23  1  0  0  0  0
 22 23  1  0  0  0  0
 22 24  1  1  0  0  0
 23 20  1  1  0  0  0
 25 24  1  0  0  0  0
M  END
>  <MODEL>
8

>  <REMARK>
 VINA RESULT:      -7.1      2.261      7.402
  Name = 
  5 active torsions:
  status: ('A' for Active; 'I' for Inactive)
    1  A    between atoms: C_1  and  N_19
    2  A    between atoms: C_6  and  C_8
    3  A    between atoms: C_9  and  O_17
    4  A    between atoms: O_17  and  C_20
    5  A    between atoms: N_19  and  C_23
                            x       y       z     vdW  Elec       q    Type
                         _______ _______ _______ _____ _____    ______ ____

>  <TORSDO>
F 5

$$$$
=
 OpenBabel10222417083D

 25 28  0  0  1  0  0  0  0  0999 V2000
  182.7390  176.9400  139.4790 C   0  0  2  0  0  3  0  0  0  0  0  0
  184.5850  179.2300  140.1410 C   0  0  0  0  0  2  0  0  0  0  0  0
  183.8230  179.1470  138.8130 C   0  0  0  0  0  2  0  0  0  0  0  0
  182.7620  177.5830  140.8820 C   0  0  1  0  0  3  0  0  0  0  0  0
  184.1560  178.1660  141.1650 C   0  0  2  0  0  3  0  0  0  0  0  0
  181.6720  178.6390  141.0700 C   0  0  0  0  0  1  0  0  0  0  0  0
  183.5530  177.6990  138.4150 C   0  0  0  0  0  2  0  0  0  0  0  0
  184.2390  178.6950  142.4840 O   0  0  0  0  0  0  0  0  0  0  0  0
  188.2510  177.4950  146.0730 N   0  0  0  0  0  0  0  0  0  0  0  0
  183.8390  179.0040  145.4730 C   0  0  0  0  0  1  0  0  0  0  0  0
  187.3660  177.7480  145.0980 C   0  0  0  0  0  0  0  0  0  0  0  0
  187.5390  177.5590  143.7330 C   0  0  0  0  0  3  0  0  0  0  0  0
  188.1070  177.7360  148.4910 N   0  0  0  0  0  1  0  0  0  0  0  0
  186.2020  178.2220  145.6230 C   0  0  0  0  0  0  0  0  0  0  0  0
  186.4620  177.8870  142.8930 C   0  0  0  0  0  3  0  0  0  0  0  0
  186.2950  178.2890  146.9610 N   0  0  0  0  0  2  0  0  0  0  0  0
  185.2480  178.3930  143.4120 C   0  0  0  0  0  0  0  0  0  0  0  0
  187.5560  177.8400  147.1850 C   0  0  0  0  0  0  0  0  0  0  0  0
  185.1060  178.5550  144.8230 C   0  0  0  0  0  0  0  0  0  0  0  0
  181.3790  176.6960  139.0180 N   0  0  0  0  0  2  0  0  0  0  0  0
  179.4020  175.4990  139.7660 C   0  0  0  0  0  2  0  0  0  0  0  0
  180.0600  174.6010  138.7410 C   0  0  2  0  0  3  0  0  0  0  0  0
  180.9160  175.4750  139.6640 C   0  0  1  0  0  3  0  0  0  0  0  0
  179.8390  175.1760  137.3470 C   0  0  0  0  0  2  0  0  0  0  0  0
  180.2910  174.2670  136.3910 O   0  0  0  0  0  1  0  0  0  0  0  0
  1 20  1  6  0  0  0
  1  4  1  0  0  0  0
  2  5  1  0  0  0  0
  3  2  1  0  0  0  0
  4  6  1  6  0  0  0
  4  5  1  0  0  0  0
  5  8  1  1  0  0  0
  7  3  1  0  0  0  0
  7  1  1  0  0  0  0
  8 17  1  0  0  0  0
  9 18  2  0  0  0  0
 11 14  1  0  0  0  0
 11  9  1  0  0  0  0
 12 11  2  0  0  0  0
 14 16  1  0  0  0  0
 15 17  2  0  0  0  0
 15 12  1  0  0  0  0
 16 18  1  0  0  0  0
 17 19  1  0  0  0  0
 18 13  1  0  0  0  0
 19 10  1  0  0  0  0
 19 14  2  0  0  0  0
 22 24  1  6  0  0  0
 22 23  1  0  0  0  0
 22 21  1  0  0  0  0
 23 20  1  6  0  0  0
 23 21  1  0  0  0  0
 25 24  1  0  0  0  0
M  END
>  <MODEL>
9

>  <REMARK>
 VINA RESULT:      -7.1      4.799      8.018
  Name = 
  5 active torsions:
  status: ('A' for Active; 'I' for Inactive)
    1  A    between atoms: C_1  and  N_19
    2  A    between atoms: C_6  and  C_8
    3  A    between atoms: C_9  and  O_17
    4  A    between atoms: O_17  and  C_20
    5  A    between atoms: N_19  and  C_23
                            x       y       z     vdW  Elec       q    Type
                         _______ _______ _______ _____ _____    ______ ____

>  <TORSDO>
F 5

$$$$
