=
 OpenBabel10222417593D

 33 37  0  0  1  0  0  0  0  0999 V2000
  184.2390  178.6270  144.0540 N   0  0  0  0  0  2  0  0  0  0  0  0
  187.3190  177.6030  145.6780 C   0  0  0  0  0  3  0  0  0  0  0  0
  185.9910  178.7770  147.3540 C   0  0  0  0  0  3  0  0  0  0  0  0
  185.1580  178.5080  145.1190 C   0  0  0  0  0  0  0  0  0  0  0  0
  184.8130  177.9280  142.9030 C   0  0  2  0  0  3  0  0  0  0  0  0
  184.9730  178.9960  146.4120 C   0  0  0  0  0  3  0  0  0  0  0  0
  186.2320  177.4380  143.3270 C   0  0  2  0  0  3  0  0  0  0  0  0
  187.1600  178.0820  146.9880 C   0  0  0  0  0  3  0  0  0  0  0  0
  186.2940  177.8360  144.7590 C   0  0  0  0  0  0  0  0  0  0  0  0
  182.1680  176.8520  139.8350 C   0  0  0  0  0  3  0  0  0  0  0  0
  184.1120  179.2520  139.3490 C   0  0  0  0  0  3  0  0  0  0  0  0
  181.7740  177.5330  138.5750 C   0  0  0  0  0  2  0  0  0  0  0  0
  183.6910  178.9720  138.1140 C   0  0  0  0  0  3  0  0  0  0  0  0
  183.9780  178.4220  140.5250 N   0  0  0  0  0  0  0  0  0  0  0  0
  185.5270  179.8100  141.6100 O   0  0  0  0  0  0  0  0  0  0  0  0
  183.1260  177.2620  140.6690 C   0  0  0  0  0  3  0  0  0  0  0  0
  184.7830  178.7900  141.6630 C   0  0  0  0  0  0  0  0  0  0  0  0
  182.9990  177.7180  137.7110 C   0  0  2  0  0  3  0  0  0  0  0  0
  182.6200  177.7800  136.2680 C   0  0  0  0  0  0  0  0  0  0  0  0
  183.3110  177.1910  135.3940 O   0  0  0  0  0  0  0  0  0  0  0  0
  181.4900  178.4890  135.8870 O   0  0  0  0  0  1  0  0  0  0  0  0
  187.2910  178.1080  142.5780 N   0  0  0  0  0  2  0  0  0  0  0  0
  188.1310  178.2330  139.9260 N   0  0  0  0  0  0  0  0  0  0  0  0
  188.8830  177.5050  140.9000 C   0  0  0  0  0  0  0  0  0  0  0  0
  190.4950  176.8990  139.2360 N   0  0  0  0  0  0  0  0  0  0  0  0
  188.4750  178.2360  138.6730 C   0  0  0  0  0  3  0  0  0  0  0  0
  190.1440  176.8790  140.4860 C   0  0  0  0  0  0  0  0  0  0  0  0
  189.6420  177.4240  138.1610 C   0  0  0  0  0  2  0  0  0  0  0  0
  190.6700  176.2440  142.7210 C   0  0  0  0  0  0  0  0  0  0  0  0
  188.5060  177.4630  142.1840 C   0  0  0  0  0  0  0  0  0  0  0  0
  191.6150  175.6450  143.6990 C   0  0  0  0  0  1  0  0  0  0  0  0
  189.3070  176.6790  143.2020 C   0  0  0  0  0  2  0  0  0  0  0  0
  191.0130  176.3170  141.4700 N   0  0  0  0  0  0  0  0  0  0  0  0
  1  4  1  0  0  0  0
  2  8  1  0  0  0  0
  4  6  2  0  0  0  0
  5 17  1  6  0  0  0
  5  7  1  0  0  0  0
  5  1  1  0  0  0  0
  6  3  1  0  0  0  0
  7 22  1  6  0  0  0
  7  9  1  0  0  0  0
  8  3  2  0  0  0  0
  9  4  1  0  0  0  0
  9  2  2  0  0  0  0
 10 16  2  0  0  0  0
 11 14  1  0  0  0  0
 12 10  1  0  0  0  0
 13 11  2  0  0  0  0
 14 16  1  0  0  0  0
 14 17  1  0  0  0  0
 15 17  2  0  0  0  0
 18 19  1  6  0  0  0
 18 13  1  0  0  0  0
 18 12  1  0  0  0  0
 20 19  2  0  0  0  0
 21 19  1  0  0  0  0
 23 24  1  0  0  0  0
 24 30  2  0  0  0  0
 25 27  2  0  0  0  0
 26 23  2  0  0  0  0
 27 24  1  0  0  0  0
 27 33  1  0  0  0  0
 28 26  1  0  0  0  0
 28 25  1  0  0  0  0
 29 32  1  0  0  0  0
 29 31  1  0  0  0  0
 30 22  1  0  0  0  0
 30 32  1  0  0  0  0
 33 29  2  0  0  0  0
M  END
>  <MODEL>
1

>  <REMARK>
 VINA RESULT:      -8.5      0.000      0.000
  Name = 
  4 active torsions:
  status: ('A' for Active; 'I' for Inactive)
    1  A    between atoms: C_12  and  C_32
    2  A    between atoms: C_18  and  C_24
    3  A    between atoms: C_23  and  N_30
    4  A    between atoms: C_26  and  N_30
                            x       y       z     vdW  Elec       q    Type
                         _______ _______ _______ _____ _____    ______ ____

>  <TORSDO>
F 4

$$$$
=
 OpenBabel10222417593D

 33 37  0  0  1  0  0  0  0  0999 V2000
  185.1100  178.1810  144.1700 N   0  0  0  0  0  2  0  0  0  0  0  0
  188.6050  177.3060  144.6060 C   0  0  0  0  0  3  0  0  0  0  0  0
  187.7480  177.9190  146.8060 C   0  0  0  0  0  3  0  0  0  0  0  0
  186.3110  177.9850  144.8850 C   0  0  0  0  0  0  0  0  0  0  0  0
  185.3680  177.8160  142.7750 C   0  0  2  0  0  3  0  0  0  0  0  0
  186.4820  178.1730  146.2550 C   0  0  0  0  0  3  0  0  0  0  0  0
  186.8830  177.4600  142.6690 C   0  0  2  0  0  3  0  0  0  0  0  0
  188.8060  177.4860  145.9840 C   0  0  0  0  0  3  0  0  0  0  0  0
  187.3370  177.5690  144.0820 C   0  0  0  0  0  0  0  0  0  0  0  0
  182.4190  176.8150  139.9710 C   0  0  0  0  0  3  0  0  0  0  0  0
  183.6790  179.6730  139.8480 C   0  0  0  0  0  3  0  0  0  0  0  0
  181.6370  177.6360  139.0110 C   0  0  0  0  0  2  0  0  0  0  0  0
  183.0760  179.5770  138.6610 C   0  0  0  0  0  3  0  0  0  0  0  0
  183.9690  178.5980  140.7690 N   0  0  0  0  0  0  0  0  0  0  0  0
  185.3910  180.0550  141.9320 O   0  0  0  0  0  0  0  0  0  0  0  0
  183.4240  177.2580  140.7290 C   0  0  0  0  0  3  0  0  0  0  0  0
  184.9020  178.8940  141.8270 C   0  0  0  0  0  0  0  0  0  0  0  0
  182.5890  178.3100  138.0520 C   0  0  2  0  0  3  0  0  0  0  0  0
  181.9100  178.5920  136.7510 C   0  0  0  0  0  0  0  0  0  0  0  0
  181.1170  179.5650  136.6350 O   0  0  0  0  0  1  0  0  0  0  0  0
  182.1620  177.7770  135.6560 O   0  0  0  0  0  0  0  0  0  0  0  0
  187.6150  178.4110  141.8370 N   0  0  0  0  0  2  0  0  0  0  0  0
  186.9010  178.3130  139.1470 N   0  0  0  0  0  0  0  0  0  0  0  0
  188.2180  177.9470  139.5710 C   0  0  0  0  0  0  0  0  0  0  0  0
  188.8440  177.4890  137.3060 N   0  0  0  0  0  0  0  0  0  0  0  0
  186.5380  178.2000  137.9050 C   0  0  0  0  0  3  0  0  0  0  0  0
  189.2050  177.5830  138.5500 C   0  0  0  0  0  0  0  0  0  0  0  0
  187.4530  177.6190  136.8530 C   0  0  0  0  0  2  0  0  0  0  0  0
  190.9580  177.4510  140.1590 C   0  0  0  0  0  0  0  0  0  0  0  0
  188.5820  178.0200  140.8570 C   0  0  0  0  0  0  0  0  0  0  0  0
  192.3940  177.2560  140.4820 C   0  0  0  0  0  1  0  0  0  0  0  0
  189.9750  177.6200  141.2930 C   0  0  0  0  0  2  0  0  0  0  0  0
  190.5740  177.4050  138.9190 N   0  0  0  0  0  0  0  0  0  0  0  0
  1  4  1  0  0  0  0
  2  8  1  0  0  0  0
  4  6  2  0  0  0  0
  5 17  1  6  0  0  0
  5  1  1  0  0  0  0
  6  3  1  0  0  0  0
  7 22  1  6  0  0  0
  7  5  1  0  0  0  0
  7  9  1  0  0  0  0
  8  3  2  0  0  0  0
  9  2  2  0  0  0  0
  9  4  1  0  0  0  0
 10 16  2  0  0  0  0
 11 14  1  0  0  0  0
 12 10  1  0  0  0  0
 13 11  2  0  0  0  0
 14 17  1  0  0  0  0
 16 14  1  0  0  0  0
 17 15  2  0  0  0  0
 18 19  1  6  0  0  0
 18 13  1  0  0  0  0
 18 12  1  0  0  0  0
 20 19  1  0  0  0  0
 21 19  2  0  0  0  0
 23 24  1  0  0  0  0
 24 30  2  0  0  0  0
 25 27  2  0  0  0  0
 26 23  2  0  0  0  0
 27 33  1  0  0  0  0
 27 24  1  0  0  0  0
 28 25  1  0  0  0  0
 28 26  1  0  0  0  0
 29 31  1  0  0  0  0
 29 32  1  0  0  0  0
 30 32  1  0  0  0  0
 30 22  1  0  0  0  0
 33 29  2  0  0  0  0
M  END
>  <MODEL>
2

>  <REMARK>
 VINA RESULT:      -8.5      1.270      1.755
  Name = 
  4 active torsions:
  status: ('A' for Active; 'I' for Inactive)
    1  A    between atoms: C_12  and  C_32
    2  A    between atoms: C_18  and  C_24
    3  A    between atoms: C_23  and  N_30
    4  A    between atoms: C_26  and  N_30
                            x       y       z     vdW  Elec       q    Type
                         _______ _______ _______ _____ _____    ______ ____

>  <TORSDO>
F 4

$$$$
=
 OpenBabel10222417593D

 33 37  0  0  1  0  0  0  0  0999 V2000
  182.1630  178.7740  139.5600 N   0  0  0  0  0  2  0  0  0  0  0  0
  182.2160  178.8150  143.1890 C   0  0  0  0  0  3  0  0  0  0  0  0
  180.1200  179.8550  142.4990 C   0  0  0  0  0  3  0  0  0  0  0  0
  181.6730  179.0520  140.8540 C   0  0  0  0  0  0  0  0  0  0  0  0
  183.4410  178.0770  139.7180 C   0  0  2  0  0  3  0  0  0  0  0  0
  180.4570  179.6670  141.1480 C   0  0  0  0  0  3  0  0  0  0  0  0
  183.7490  178.0300  141.2470 C   0  0  2  0  0  3  0  0  0  0  0  0
  180.9960  179.4290  143.5150 C   0  0  0  0  0  3  0  0  0  0  0  0
  182.5290  178.6410  141.8390 C   0  0  0  0  0  0  0  0  0  0  0  0
  185.2790  175.6960  136.7990 C   0  0  0  0  0  3  0  0  0  0  0  0
  186.3590  178.5950  137.2500 C   0  0  0  0  0  3  0  0  0  0  0  0
  186.2450  176.0160  135.7170 C   0  0  0  0  0  2  0  0  0  0  0  0
  187.3430  178.0310  136.5480 C   0  0  0  0  0  3  0  0  0  0  0  0
  185.2710  177.9220  137.9230 N   0  0  0  0  0  0  0  0  0  0  0  0
  184.8090  179.9240  139.0540 O   0  0  0  0  0  0  0  0  0  0  0  0
  184.8660  176.5450  137.7430 C   0  0  0  0  0  3  0  0  0  0  0  0
  184.5220  178.7070  138.8730 C   0  0  0  0  0  0  0  0  0  0  0  0
  187.5080  176.5680  136.3320 C   0  0  2  0  0  3  0  0  0  0  0  0
  188.6820  176.3070  135.4460 C   0  0  0  0  0  0  0  0  0  0  0  0
  188.9760  175.1330  135.0940 O   0  0  0  0  0  1  0  0  0  0  0  0
  189.4530  177.3720  134.9990 O   0  0  0  0  0  0  0  0  0  0  0  0
  184.9230  178.8240  141.5960 N   0  0  0  0  0  2  0  0  0  0  0  0
  187.5080  178.3990  140.6520 N   0  0  0  0  0  0  0  0  0  0  0  0
  187.1750  178.1410  142.0190 C   0  0  0  0  0  0  0  0  0  0  0  0
  189.4280  177.4640  142.4650 N   0  0  0  0  0  0  0  0  0  0  0  0
  188.6920  178.1340  140.1860 C   0  0  0  0  0  3  0  0  0  0  0  0
  188.2400  177.7100  142.9300 C   0  0  0  0  0  0  0  0  0  0  0  0
  189.7590  177.4820  141.0340 C   0  0  0  0  0  2  0  0  0  0  0  0
  186.7990  177.8350  144.8230 C   0  0  0  0  0  0  0  0  0  0  0  0
  185.9430  178.3700  142.4920 C   0  0  0  0  0  0  0  0  0  0  0  0
  186.5940  177.7390  146.2920 C   0  0  0  0  0  1  0  0  0  0  0  0
  185.6010  178.0830  143.9380 C   0  0  0  0  0  2  0  0  0  0  0  0
  187.9860  177.6350  144.3340 N   0  0  0  0  0  0  0  0  0  0  0  0
  1  5  1  0  0  0  0
  1  4  1  0  0  0  0
  2  8  1  0  0  0  0
  3  8  2  0  0  0  0
  4  6  2  0  0  0  0
  4  9  1  0  0  0  0
  5 17  1  6  0  0  0
  5  7  1  0  0  0  0
  6  3  1  0  0  0  0
  7 22  1  6  0  0  0
  7  9  1  0  0  0  0
  9  2  2  0  0  0  0
 10 16  2  0  0  0  0
 11 14  1  0  0  0  0
 12 18  1  0  0  0  0
 12 10  1  0  0  0  0
 13 11  2  0  0  0  0
 14 17  1  0  0  0  0
 16 14  1  0  0  0  0
 17 15  2  0  0  0  0
 18 19  1  6  0  0  0
 18 13  1  0  0  0  0
 20 19  1  0  0  0  0
 21 19  2  0  0  0  0
 22 30  1  0  0  0  0
 23 24  1  0  0  0  0
 24 30  2  0  0  0  0
 24 27  1  0  0  0  0
 25 27  2  0  0  0  0
 26 23  2  0  0  0  0
 26 28  1  0  0  0  0
 27 33  1  0  0  0  0
 28 25  1  0  0  0  0
 29 31  1  0  0  0  0
 30 32  1  0  0  0  0
 32 29  1  0  0  0  0
 33 29  2  0  0  0  0
M  END
>  <MODEL>
3

>  <REMARK>
 VINA RESULT:      -8.2      2.731      4.668
  Name = 
  4 active torsions:
  status: ('A' for Active; 'I' for Inactive)
    1  A    between atoms: C_12  and  C_32
    2  A    between atoms: C_18  and  C_24
    3  A    between atoms: C_23  and  N_30
    4  A    between atoms: C_26  and  N_30
                            x       y       z     vdW  Elec       q    Type
                         _______ _______ _______ _____ _____    ______ ____

>  <TORSDO>
F 4

$$$$
=
 OpenBabel10222417593D

 33 37  0  0  1  0  0  0  0  0999 V2000
  184.9360  178.2440  144.3000 N   0  0  0  0  0  2  0  0  0  0  0  0
  188.4140  177.3950  144.8970 C   0  0  0  0  0  3  0  0  0  0  0  0
  187.4530  178.0030  147.0550 C   0  0  0  0  0  3  0  0  0  0  0  0
  186.1050  178.0580  145.0700 C   0  0  0  0  0  0  0  0  0  0  0  0
  185.2610  177.8800  142.9190 C   0  0  2  0  0  3  0  0  0  0  0  0
  186.2110  178.2480  146.4460 C   0  0  0  0  0  3  0  0  0  0  0  0
  186.7820  177.5350  142.8830 C   0  0  2  0  0  3  0  0  0  0  0  0
  188.5510  177.5770  146.2820 C   0  0  0  0  0  3  0  0  0  0  0  0
  187.1700  177.6480  144.3150 C   0  0  0  0  0  0  0  0  0  0  0  0
  182.4090  176.8710  140.0180 C   0  0  0  0  0  3  0  0  0  0  0  0
  183.6810  179.7250  139.9240 C   0  0  0  0  0  3  0  0  0  0  0  0
  181.6640  177.6890  139.0270 C   0  0  0  0  0  2  0  0  0  0  0  0
  183.1190  179.6240  138.7180 C   0  0  0  0  0  3  0  0  0  0  0  0
  183.9350  178.6540  140.8610 N   0  0  0  0  0  0  0  0  0  0  0  0
  185.3190  180.1140  142.0660 O   0  0  0  0  0  0  0  0  0  0  0  0
  183.3890  177.3150  140.8080 C   0  0  0  0  0  3  0  0  0  0  0  0
  184.8310  178.9550  141.9500 C   0  0  0  0  0  0  0  0  0  0  0  0
  182.6510  178.3560  138.0980 C   0  0  2  0  0  3  0  0  0  0  0  0
  182.0190  178.6320  136.7730 C   0  0  0  0  0  0  0  0  0  0  0  0
  182.2360  177.8790  135.7860 O   0  0  0  0  0  0  0  0  0  0  0  0
  181.1790  179.7280  136.6300 O   0  0  0  0  0  1  0  0  0  0  0  0
  187.5440  178.4910  142.0840 N   0  0  0  0  0  2  0  0  0  0  0  0
  190.2310  177.7680  141.9830 N   0  0  0  0  0  0  0  0  0  0  0  0
  189.4470  177.8460  140.7890 C   0  0  0  0  0  0  0  0  0  0  0  0
  191.3390  177.1900  139.4770 N   0  0  0  0  0  0  0  0  0  0  0  0
  191.5020  177.5030  141.9380 C   0  0  0  0  0  3  0  0  0  0  0  0
  190.0720  177.4730  139.5160 C   0  0  0  0  0  0  0  0  0  0  0  0
  192.2380  177.3280  140.6300 C   0  0  0  0  0  2  0  0  0  0  0  0
  188.0090  177.6670  138.3400 C   0  0  0  0  0  0  0  0  0  0  0  0
  188.1470  178.1630  140.8290 C   0  0  0  0  0  0  0  0  0  0  0  0
  187.2250  177.5220  137.0870 C   0  0  0  0  0  1  0  0  0  0  0  0
  187.3310  178.2530  139.5560 C   0  0  0  0  0  2  0  0  0  0  0  0
  189.2690  177.3510  138.3410 N   0  0  0  0  0  0  0  0  0  0  0  0
  1  4  1  0  0  0  0
  2  8  1  0  0  0  0
  4  6  2  0  0  0  0
  5 17  1  6  0  0  0
  5  1  1  0  0  0  0
  6  3  1  0  0  0  0
  7 22  1  6  0  0  0
  7  5  1  0  0  0  0
  7  9  1  0  0  0  0
  8  3  2  0  0  0  0
  9  2  2  0  0  0  0
  9  4  1  0  0  0  0
 10 16  2  0  0  0  0
 11 14  1  0  0  0  0
 12 10  1  0  0  0  0
 13 11  2  0  0  0  0
 14 17  1  0  0  0  0
 16 14  1  0  0  0  0
 17 15  2  0  0  0  0
 18 19  1  6  0  0  0
 18 13  1  0  0  0  0
 18 12  1  0  0  0  0
 20 19  2  0  0  0  0
 21 19  1  0  0  0  0
 24 30  2  0  0  0  0
 24 23  1  0  0  0  0
 25 27  2  0  0  0  0
 25 28  1  0  0  0  0
 26 23  2  0  0  0  0
 27 24  1  0  0  0  0
 28 26  1  0  0  0  0
 29 33  2  0  0  0  0
 29 32  1  0  0  0  0
 30 22  1  0  0  0  0
 31 29  1  0  0  0  0
 32 30  1  0  0  0  0
 33 27  1  0  0  0  0
M  END
>  <MODEL>
4

>  <REMARK>
 VINA RESULT:      -8.2      1.167      2.448
  Name = 
  4 active torsions:
  status: ('A' for Active; 'I' for Inactive)
    1  A    between atoms: C_12  and  C_32
    2  A    between atoms: C_18  and  C_24
    3  A    between atoms: C_23  and  N_30
    4  A    between atoms: C_26  and  N_30
                            x       y       z     vdW  Elec       q    Type
                         _______ _______ _______ _____ _____    ______ ____

>  <TORSDO>
F 4

$$$$
=
 OpenBabel10222417593D

 33 37  0  0  1  0  0  0  0  0999 V2000
  190.7250  177.5110  141.0430 N   0  0  0  0  0  2  0  0  0  0  0  0
  191.4260  175.9080  137.8630 C   0  0  0  0  0  3  0  0  0  0  0  0
  193.5500  176.7550  138.7130 C   0  0  0  0  0  3  0  0  0  0  0  0
  191.5290  177.0790  139.9650 C   0  0  0  0  0  0  0  0  0  0  0  0
  189.3580  177.0590  140.7770 C   0  0  2  0  0  3  0  0  0  0  0  0
  192.9050  177.2640  139.8520 C   0  0  0  0  0  3  0  0  0  0  0  0
  189.3670  176.3780  139.3730 C   0  0  2  0  0  3  0  0  0  0  0  0
  192.8120  176.0780  137.7220 C   0  0  0  0  0  3  0  0  0  0  0  0
  190.8080  176.4260  139.0040 C   0  0  0  0  0  0  0  0  0  0  0  0
  186.9910  177.1270  144.2350 C   0  0  0  0  0  3  0  0  0  0  0  0
  186.4600  179.2750  142.0260 C   0  0  0  0  0  3  0  0  0  0  0  0
  186.0440  178.1370  144.7740 C   0  0  0  0  0  2  0  0  0  0  0  0
  185.3590  179.3590  142.7750 C   0  0  0  0  0  3  0  0  0  0  0  0
  187.4450  178.2170  142.0380 N   0  0  0  0  0  0  0  0  0  0  0  0
  188.3060  179.0740  140.0320 O   0  0  0  0  0  0  0  0  0  0  0  0
  187.5920  177.1880  143.0450 C   0  0  0  0  0  3  0  0  0  0  0  0
  188.3650  178.1860  140.9290 C   0  0  0  0  0  0  0  0  0  0  0  0
  184.9290  178.3470  143.7780 C   0  0  2  0  0  3  0  0  0  0  0  0
  183.6860  178.8030  144.4690 C   0  0  0  0  0  0  0  0  0  0  0  0
  182.6240  179.0030  143.8210 O   0  0  0  0  0  0  0  0  0  0  0  0
  183.7010  179.0030  145.8430 O   0  0  0  0  0  1  0  0  0  0  0  0
  188.5790  177.1230  138.3960 N   0  0  0  0  0  2  0  0  0  0  0  0
  185.9890  178.1460  138.3330 N   0  0  0  0  0  0  0  0  0  0  0  0
  186.3440  177.0000  137.5540 C   0  0  0  0  0  0  0  0  0  0  0  0
  184.1150  176.8670  136.6910 N   0  0  0  0  0  0  0  0  0  0  0  0
  184.7670  178.5850  138.3660 C   0  0  0  0  0  3  0  0  0  0  0  0
  185.3320  176.4130  136.6700 C   0  0  0  0  0  0  0  0  0  0  0  0
  183.6430  177.8800  137.6430 C   0  0  0  0  0  2  0  0  0  0  0  0
  186.9050  174.8950  135.7220 C   0  0  0  0  0  0  0  0  0  0  0  0
  187.5930  176.5170  137.5530 C   0  0  0  0  0  0  0  0  0  0  0  0
  187.2360  173.8380  134.7320 C   0  0  0  0  0  1  0  0  0  0  0  0
  187.9530  175.2970  136.7320 C   0  0  0  0  0  2  0  0  0  0  0  0
  185.7070  175.3980  135.7380 N   0  0  0  0  0  0  0  0  0  0  0  0
  2  9  1  0  0  0  0
  3  6  2  0  0  0  0
  4  1  1  0  0  0  0
  5 17  1  6  0  0  0
  5  1  1  0  0  0  0
  6  4  1  0  0  0  0
  7 22  1  6  0  0  0
  7  5  1  0  0  0  0
  8  2  2  0  0  0  0
  8  3  1  0  0  0  0
  9  7  1  0  0  0  0
  9  4  2  0  0  0  0
 10 12  1  0  0  0  0
 11 14  1  0  0  0  0
 11 13  2  0  0  0  0
 13 18  1  0  0  0  0
 14 16  1  0  0  0  0
 15 17  2  0  0  0  0
 16 10  2  0  0  0  0
 17 14  1  0  0  0  0
 18 19  1  1  0  0  0
 18 12  1  0  0  0  0
 19 21  1  0  0  0  0
 20 19  2  0  0  0  0
 23 26  2  0  0  0  0
 24 23  1  0  0  0  0
 25 28  1  0  0  0  0
 27 25  2  0  0  0  0
 27 24  1  0  0  0  0
 28 26  1  0  0  0  0
 29 33  2  0  0  0  0
 29 32  1  0  0  0  0
 30 24  2  0  0  0  0
 30 22  1  0  0  0  0
 31 29  1  0  0  0  0
 32 30  1  0  0  0  0
 33 27  1  0  0  0  0
M  END
>  <MODEL>
5

>  <REMARK>
 VINA RESULT:      -7.6      2.757      7.065
  Name = 
  4 active torsions:
  status: ('A' for Active; 'I' for Inactive)
    1  A    between atoms: C_12  and  C_32
    2  A    between atoms: C_18  and  C_24
    3  A    between atoms: C_23  and  N_30
    4  A    between atoms: C_26  and  N_30
                            x       y       z     vdW  Elec       q    Type
                         _______ _______ _______ _____ _____    ______ ____

>  <TORSDO>
F 4

$$$$
=
 OpenBabel10222417593D

 33 37  0  0  1  0  0  0  0  0999 V2000
  189.8200  177.3740  139.1130 N   0  0  0  0  0  2  0  0  0  0  0  0
  186.9570  177.7560  136.9160 C   0  0  0  0  0  3  0  0  0  0  0  0
  188.9490  177.8780  135.5120 C   0  0  0  0  0  3  0  0  0  0  0  0
  189.1550  177.5650  137.8830 C   0  0  0  0  0  0  0  0  0  0  0  0
  188.7930  177.2190  140.1450 C   0  0  2  0  0  3  0  0  0  0  0  0
  189.7690  177.7070  136.6400 C   0  0  0  0  0  3  0  0  0  0  0  0
  187.4120  177.4260  139.4500 C   0  0  2  0  0  3  0  0  0  0  0  0
  187.5480  177.9010  135.6500 C   0  0  0  0  0  3  0  0  0  0  0  0
  187.7940  177.5910  138.0220 C   0  0  0  0  0  0  0  0  0  0  0  0
  190.9660  175.6600  143.3730 C   0  0  0  0  0  3  0  0  0  0  0  0
  189.7950  178.5480  143.6240 C   0  0  0  0  0  3  0  0  0  0  0  0
  191.5220  176.2920  144.5970 C   0  0  0  0  0  2  0  0  0  0  0  0
  190.0980  178.2530  144.8890 C   0  0  0  0  0  3  0  0  0  0  0  0
  189.7000  177.6290  142.5120 N   0  0  0  0  0  0  0  0  0  0  0  0
  188.6360  179.3180  141.2810 O   0  0  0  0  0  0  0  0  0  0  0  0
  190.1810  176.2650  142.4780 C   0  0  0  0  0  3  0  0  0  0  0  0
  189.0530  178.1260  141.3240 C   0  0  0  0  0  0  0  0  0  0  0  0
  190.3900  176.8870  145.4010 C   0  0  2  0  0  3  0  0  0  0  0  0
  190.7500  176.9450  146.8500 C   0  0  0  0  0  0  0  0  0  0  0  0
  189.8820  177.2290  147.7180 O   0  0  0  0  0  1  0  0  0  0  0  0
  192.0540  176.6780  147.2430 O   0  0  0  0  0  0  0  0  0  0  0  0
  186.7320  178.6280  139.9250 N   0  0  0  0  0  2  0  0  0  0  0  0
  185.7570  178.7560  142.5310 N   0  0  0  0  0  0  0  0  0  0  0  0
  184.8640  178.7260  141.4140 C   0  0  0  0  0  0  0  0  0  0  0  0
  182.9800  178.8370  142.8880 N   0  0  0  0  0  0  0  0  0  0  0  0
  185.3110  178.7420  143.7510 C   0  0  0  0  0  3  0  0  0  0  0  0
  183.4230  178.8320  141.6670 C   0  0  0  0  0  0  0  0  0  0  0  0
  183.8370  178.6280  144.0630 C   0  0  0  0  0  2  0  0  0  0  0  0
  182.9300  178.9610  139.3390 C   0  0  0  0  0  0  0  0  0  0  0  0
  185.3210  178.6950  140.1560 C   0  0  0  0  0  0  0  0  0  0  0  0
  181.9450  179.1420  138.2420 C   0  0  0  0  0  1  0  0  0  0  0  0
  184.3650  178.6530  138.9830 C   0  0  0  0  0  2  0  0  0  0  0  0
  182.5220  179.0030  140.5720 N   0  0  0  0  0  0  0  0  0  0  0  0
  1  5  1  0  0  0  0
  2  9  1  0  0  0  0
  3  8  1  0  0  0  0
  3  6  2  0  0  0  0
  4  9  2  0  0  0  0
  4  1  1  0  0  0  0
  5 17  1  1  0  0  0
  6  4  1  0  0  0  0
  7 22  1  1  0  0  0
  7  5  1  0  0  0  0
  8  2  2  0  0  0  0
  9  7  1  0  0  0  0
 10 12  1  0  0  0  0
 11 13  2  0  0  0  0
 12 18  1  0  0  0  0
 13 18  1  0  0  0  0
 14 11  1  0  0  0  0
 15 17  2  0  0  0  0
 16 14  1  0  0  0  0
 16 10  2  0  0  0  0
 17 14  1  0  0  0  0
 18 19  1  1  0  0  0
 19 21  2  0  0  0  0
 19 20  1  0  0  0  0
 22 30  1  0  0  0  0
 23 26  2  0  0  0  0
 24 27  1  0  0  0  0
 24 23  1  0  0  0  0
 25 28  1  0  0  0  0
 26 28  1  0  0  0  0
 27 25  2  0  0  0  0
 29 33  2  0  0  0  0
 30 24  2  0  0  0  0
 31 29  1  0  0  0  0
 32 29  1  0  0  0  0
 32 30  1  0  0  0  0
 33 27  1  0  0  0  0
M  END
>  <MODEL>
6

>  <REMARK>
 VINA RESULT:      -7.6      2.788      8.755
  Name = 
  4 active torsions:
  status: ('A' for Active; 'I' for Inactive)
    1  A    between atoms: C_12  and  C_32
    2  A    between atoms: C_18  and  C_24
    3  A    between atoms: C_23  and  N_30
    4  A    between atoms: C_26  and  N_30
                            x       y       z     vdW  Elec       q    Type
                         _______ _______ _______ _____ _____    ______ ____

>  <TORSDO>
F 4

$$$$
=
 OpenBabel10222417593D

 33 37  0  0  1  0  0  0  0  0999 V2000
  182.3590  178.6320  139.6650 N   0  0  0  0  0  2  0  0  0  0  0  0
  182.5550  178.7370  143.2870 C   0  0  0  0  0  3  0  0  0  0  0  0
  180.3830  179.6570  142.6680 C   0  0  0  0  0  3  0  0  0  0  0  0
  181.9080  178.9070  140.9740 C   0  0  0  0  0  0  0  0  0  0  0  0
  183.6770  178.0040  139.7810 C   0  0  2  0  0  3  0  0  0  0  0  0
  180.6740  179.4630  141.3090 C   0  0  0  0  0  3  0  0  0  0  0  0
  184.0480  177.9980  141.2960 C   0  0  2  0  0  3  0  0  0  0  0  0
  181.3200  179.2940  143.6550 C   0  0  0  0  0  3  0  0  0  0  0  0
  182.8230  178.5570  141.9280 C   0  0  0  0  0  0  0  0  0  0  0  0
  185.5660  175.6550  136.8690 C   0  0  0  0  0  3  0  0  0  0  0  0
  186.4770  178.6260  137.2030 C   0  0  0  0  0  3  0  0  0  0  0  0
  186.4750  176.0000  135.7460 C   0  0  0  0  0  2  0  0  0  0  0  0
  187.4710  178.1030  136.4830 C   0  0  0  0  0  3  0  0  0  0  0  0
  185.4540  177.9090  137.9300 N   0  0  0  0  0  0  0  0  0  0  0  0
  184.9040  179.9110  139.0200 O   0  0  0  0  0  0  0  0  0  0  0  0
  185.1310  176.5040  137.8020 C   0  0  0  0  0  3  0  0  0  0  0  0
  184.6890  178.6740  138.8820 C   0  0  0  0  0  0  0  0  0  0  0  0
  187.7210  176.6480  136.3030 C   0  0  2  0  0  3  0  0  0  0  0  0
  188.8790  176.4330  135.3850 C   0  0  0  0  0  0  0  0  0  0  0  0
  189.3590  175.2810  135.2110 O   0  0  0  0  0  1  0  0  0  0  0  0
  189.4300  177.5160  134.7130 O   0  0  0  0  0  0  0  0  0  0  0  0
  185.1930  178.8580  141.5850 N   0  0  0  0  0  2  0  0  0  0  0  0
  185.7960  178.1410  144.2070 N   0  0  0  0  0  0  0  0  0  0  0  0
  186.7810  178.0420  143.1750 C   0  0  0  0  0  0  0  0  0  0  0  0
  188.3820  177.2120  144.7500 N   0  0  0  0  0  0  0  0  0  0  0  0
  186.0890  177.8780  145.4460 C   0  0  0  0  0  3  0  0  0  0  0  0
  188.0970  177.4910  143.5140 C   0  0  0  0  0  0  0  0  0  0  0  0
  187.4920  177.5200  145.8770 C   0  0  0  0  0  2  0  0  0  0  0  0
  188.7920  177.5030  141.2350 C   0  0  0  0  0  0  0  0  0  0  0  0
  186.4940  178.3550  141.9050 C   0  0  0  0  0  0  0  0  0  0  0  0
  189.8040  177.1740  140.1980 C   0  0  0  0  0  1  0  0  0  0  0  0
  187.5490  178.2550  140.8240 C   0  0  0  0  0  2  0  0  0  0  0  0
  189.0320  177.1960  142.4750 N   0  0  0  0  0  0  0  0  0  0  0  0
  1  5  1  0  0  0  0
  1  4  1  0  0  0  0
  2  8  1  0  0  0  0
  3  8  2  0  0  0  0
  4  6  2  0  0  0  0
  4  9  1  0  0  0  0
  5 17  1  6  0  0  0
  5  7  1  0  0  0  0
  6  3  1  0  0  0  0
  7 22  1  6  0  0  0
  7  9  1  0  0  0  0
  9  2  2  0  0  0  0
 10 16  2  0  0  0  0
 11 14  1  0  0  0  0
 12 18  1  0  0  0  0
 12 10  1  0  0  0  0
 13 11  2  0  0  0  0
 14 17  1  0  0  0  0
 16 14  1  0  0  0  0
 17 15  2  0  0  0  0
 18 19  1  6  0  0  0
 18 13  1  0  0  0  0
 20 19  1  0  0  0  0
 21 19  2  0  0  0  0
 22 30  1  0  0  0  0
 23 26  2  0  0  0  0
 24 27  1  0  0  0  0
 24 23  1  0  0  0  0
 25 28  1  0  0  0  0
 26 28  1  0  0  0  0
 27 25  2  0  0  0  0
 29 33  2  0  0  0  0
 30 24  2  0  0  0  0
 31 29  1  0  0  0  0
 32 29  1  0  0  0  0
 32 30  1  0  0  0  0
 33 27  1  0  0  0  0
M  END
>  <MODEL>
7

>  <REMARK>
 VINA RESULT:      -7.5      2.739      4.955
  Name = 
  4 active torsions:
  status: ('A' for Active; 'I' for Inactive)
    1  A    between atoms: C_12  and  C_32
    2  A    between atoms: C_18  and  C_24
    3  A    between atoms: C_23  and  N_30
    4  A    between atoms: C_26  and  N_30
                            x       y       z     vdW  Elec       q    Type
                         _______ _______ _______ _____ _____    ______ ____

>  <TORSDO>
F 4

$$$$
=
 OpenBabel10222417593D

 33 37  0  0  1  0  0  0  0  0999 V2000
  189.8000  177.4010  138.9710 N   0  0  0  0  0  2  0  0  0  0  0  0
  186.7010  177.7840  137.1200 C   0  0  0  0  0  3  0  0  0  0  0  0
  188.5150  177.8840  135.4930 C   0  0  0  0  0  3  0  0  0  0  0  0
  188.9950  177.5870  137.8250 C   0  0  0  0  0  0  0  0  0  0  0  0
  188.8990  177.2590  140.1170 C   0  0  2  0  0  3  0  0  0  0  0  0
  189.4600  177.7170  136.5180 C   0  0  0  0  0  3  0  0  0  0  0  0
  187.4470  177.4690  139.5860 C   0  0  2  0  0  3  0  0  0  0  0  0
  187.1400  177.9160  135.7930 C   0  0  0  0  0  3  0  0  0  0  0  0
  187.6610  177.6220  138.1220 C   0  0  0  0  0  0  0  0  0  0  0  0
  190.8710  175.5580  143.4010 C   0  0  0  0  0  3  0  0  0  0  0  0
  190.1220  178.5910  143.5230 C   0  0  0  0  0  3  0  0  0  0  0  0
  191.5260  176.1610  144.5910 C   0  0  0  0  0  2  0  0  0  0  0  0
  190.3960  178.3140  144.7990 C   0  0  0  0  0  3  0  0  0  0  0  0
  189.8850  177.6450  142.4570 N   0  0  0  0  0  0  0  0  0  0  0  0
  189.0550  179.4090  141.1540 O   0  0  0  0  0  0  0  0  0  0  0  0
  190.1680  176.2260  142.4840 C   0  0  0  0  0  3  0  0  0  0  0  0
  189.2990  178.1730  141.2500 C   0  0  0  0  0  0  0  0  0  0  0  0
  190.4990  176.9460  145.3730 C   0  0  2  0  0  3  0  0  0  0  0  0
  190.8810  177.0190  146.8150 C   0  0  0  0  0  0  0  0  0  0  0  0
  192.0560  176.7500  147.1850 O   0  0  0  0  0  0  0  0  0  0  0  0
  189.9330  177.3930  147.7570 O   0  0  0  0  0  1  0  0  0  0  0  0
  186.8330  178.6780  140.1290 N   0  0  0  0  0  2  0  0  0  0  0  0
  184.1660  178.6610  139.3290 N   0  0  0  0  0  0  0  0  0  0  0  0
  184.5160  178.6820  140.7160 C   0  0  0  0  0  0  0  0  0  0  0  0
  182.2000  178.6740  141.3240 N   0  0  0  0  0  0  0  0  0  0  0  0
  182.9260  178.7270  138.9460 C   0  0  0  0  0  3  0  0  0  0  0  0
  183.4390  178.6270  141.7100 C   0  0  0  0  0  0  0  0  0  0  0  0
  181.7920  178.8950  139.9300 C   0  0  0  0  0  2  0  0  0  0  0  0
  184.9870  178.4390  143.5120 C   0  0  0  0  0  0  0  0  0  0  0  0
  185.7950  178.6600  141.1130 C   0  0  0  0  0  0  0  0  0  0  0  0
  185.2560  178.2520  144.9610 C   0  0  0  0  0  1  0  0  0  0  0  0
  186.1510  178.6920  142.5840 C   0  0  0  0  0  2  0  0  0  0  0  0
  183.7580  178.4480  143.0910 N   0  0  0  0  0  0  0  0  0  0  0  0
  1  5  1  0  0  0  0
  2  9  1  0  0  0  0
  3  8  1  0  0  0  0
  3  6  2  0  0  0  0
  4  9  2  0  0  0  0
  4  1  1  0  0  0  0
  5 17  1  1  0  0  0
  6  4  1  0  0  0  0
  7  5  1  0  0  0  0
  7 22  1  1  0  0  0
  8  2  2  0  0  0  0
  9  7  1  0  0  0  0
 10 12  1  0  0  0  0
 11 13  2  0  0  0  0
 12 18  1  0  0  0  0
 13 18  1  0  0  0  0
 14 16  1  0  0  0  0
 14 11  1  0  0  0  0
 15 17  2  0  0  0  0
 16 10  2  0  0  0  0
 17 14  1  0  0  0  0
 18 19  1  1  0  0  0
 19 20  2  0  0  0  0
 19 21  1  0  0  0  0
 22 30  1  0  0  0  0
 23 24  1  0  0  0  0
 24 30  2  0  0  0  0
 24 27  1  0  0  0  0
 25 27  2  0  0  0  0
 26 23  2  0  0  0  0
 26 28  1  0  0  0  0
 27 33  1  0  0  0  0
 28 25  1  0  0  0  0
 29 31  1  0  0  0  0
 30 32  1  0  0  0  0
 32 29  1  0  0  0  0
 33 29  2  0  0  0  0
M  END
>  <MODEL>
8

>  <REMARK>
 VINA RESULT:      -7.5      2.743      8.415
  Name = 
  4 active torsions:
  status: ('A' for Active; 'I' for Inactive)
    1  A    between atoms: C_12  and  C_32
    2  A    between atoms: C_18  and  C_24
    3  A    between atoms: C_23  and  N_30
    4  A    between atoms: C_26  and  N_30
                            x       y       z     vdW  Elec       q    Type
                         _______ _______ _______ _____ _____    ______ ____

>  <TORSDO>
F 4

$$$$
=
 OpenBabel10222417593D

 33 37  0  0  1  0  0  0  0  0999 V2000
  191.9000  176.8530  139.0930 N   0  0  0  0  0  2  0  0  0  0  0  0
  191.5090  175.0120  135.9900 C   0  0  0  0  0  3  0  0  0  0  0  0
  193.7850  175.8910  136.0110 C   0  0  0  0  0  3  0  0  0  0  0  0
  192.2990  176.3320  137.8430 C   0  0  0  0  0  0  0  0  0  0  0  0
  190.5290  176.4010  139.3360 C   0  0  2  0  0  3  0  0  0  0  0  0
  193.5550  176.4900  137.2600 C   0  0  0  0  0  3  0  0  0  0  0  0
  190.0730  175.6200  138.0660 C   0  0  2  0  0  3  0  0  0  0  0  0
  192.7650  175.1530  135.3780 C   0  0  0  0  0  3  0  0  0  0  0  0
  191.3040  175.6200  137.2310 C   0  0  0  0  0  0  0  0  0  0  0  0
  188.8150  176.3200  143.1600 C   0  0  0  0  0  3  0  0  0  0  0  0
  188.0020  178.6280  141.2150 C   0  0  0  0  0  3  0  0  0  0  0  0
  188.0260  177.3240  143.9200 C   0  0  0  0  0  2  0  0  0  0  0  0
  187.0560  178.7000  142.1530 C   0  0  0  0  0  3  0  0  0  0  0  0
  188.9240  177.5380  140.9870 N   0  0  0  0  0  0  0  0  0  0  0  0
  189.4560  178.4970  138.9140 O   0  0  0  0  0  0  0  0  0  0  0  0
  189.1980  176.4390  141.8880 C   0  0  0  0  0  3  0  0  0  0  0  0
  189.6320  177.5490  139.7310 C   0  0  0  0  0  0  0  0  0  0  0  0
  186.7630  177.6400  143.1530 C   0  0  2  0  0  3  0  0  0  0  0  0
  185.6850  178.0910  144.0820 C   0  0  0  0  0  0  0  0  0  0  0  0
  184.5040  178.2530  143.6700 O   0  0  0  0  0  0  0  0  0  0  0  0
  185.9850  178.3310  145.4160 O   0  0  0  0  0  1  0  0  0  0  0  0
  188.9930  176.3020  137.3590 N   0  0  0  0  0  2  0  0  0  0  0  0
  186.5850  177.6460  137.7500 N   0  0  0  0  0  0  0  0  0  0  0  0
  186.6050  176.3130  137.2300 C   0  0  0  0  0  0  0  0  0  0  0  0
  184.2160  176.3110  137.0810 N   0  0  0  0  0  0  0  0  0  0  0  0
  185.4650  178.2530  138.0040 C   0  0  0  0  0  3  0  0  0  0  0  0
  185.3340  175.6940  136.8440 C   0  0  0  0  0  0  0  0  0  0  0  0
  184.1280  177.5710  137.8300 C   0  0  0  0  0  2  0  0  0  0  0  0
  186.4330  173.7890  135.9270 C   0  0  0  0  0  0  0  0  0  0  0  0
  187.7580  175.6680  137.0090 C   0  0  0  0  0  0  0  0  0  0  0  0
  186.3720  172.4980  135.1940 C   0  0  0  0  0  1  0  0  0  0  0  0
  187.7640  174.2540  136.4680 C   0  0  0  0  0  2  0  0  0  0  0  0
  185.3350  174.4490  136.1420 N   0  0  0  0  0  0  0  0  0  0  0  0
  1  5  1  0  0  0  0
  2  9  1  0  0  0  0
  3  6  2  0  0  0  0
  4  1  1  0  0  0  0
  5 17  1  6  0  0  0
  6  4  1  0  0  0  0
  7 22  1  6  0  0  0
  7  5  1  0  0  0  0
  8  2  2  0  0  0  0
  8  3  1  0  0  0  0
  9  4  2  0  0  0  0
  9  7  1  0  0  0  0
 10 12  1  0  0  0  0
 11 13  2  0  0  0  0
 13 18  1  0  0  0  0
 14 11  1  0  0  0  0
 14 16  1  0  0  0  0
 15 17  2  0  0  0  0
 16 10  2  0  0  0  0
 17 14  1  0  0  0  0
 18 12  1  0  0  0  0
 18 19  1  1  0  0  0
 19 21  1  0  0  0  0
 20 19  2  0  0  0  0
 23 26  2  0  0  0  0
 24 23  1  0  0  0  0
 25 28  1  0  0  0  0
 27 25  2  0  0  0  0
 27 24  1  0  0  0  0
 28 26  1  0  0  0  0
 29 33  2  0  0  0  0
 29 32  1  0  0  0  0
 30 24  2  0  0  0  0
 30 22  1  0  0  0  0
 31 29  1  0  0  0  0
 32 30  1  0  0  0  0
 33 27  1  0  0  0  0
M  END
>  <MODEL>
9

>  <REMARK>
 VINA RESULT:      -7.4      3.263      8.025
  Name = 
  4 active torsions:
  status: ('A' for Active; 'I' for Inactive)
    1  A    between atoms: C_12  and  C_32
    2  A    between atoms: C_18  and  C_24
    3  A    between atoms: C_23  and  N_30
    4  A    between atoms: C_26  and  N_30
                            x       y       z     vdW  Elec       q    Type
                         _______ _______ _______ _____ _____    ______ ____

>  <TORSDO>
F 4

$$$$
