=
 OpenBabel10222420543D

 56 67  0  0  1  0  0  0  0  0999 V2000
  188.8370  177.1470  138.4980 C   0  0  0  0  0  0  0  0  0  0  0  0
  187.5600  176.9650  138.0120 C   0  0  0  0  0  3  0  0  0  0  0  0
  187.5700  175.9810  137.0850 N   0  0  0  0  0  0  0  0  0  0  0  0
  189.6760  176.2340  137.8830 C   0  0  0  0  0  3  0  0  0  0  0  0
  188.8580  175.5510  136.9920 C   0  0  0  0  0  0  0  0  0  0  0  0
  191.6200  174.7950  137.2470 C   0  0  0  0  0  3  0  0  0  0  0  0
  195.1670  173.3850  139.1900 O   0  0  0  0  0  0  0  0  0  0  0  0
  193.8100  173.6550  136.9100 N   0  0  0  0  0  0  0  0  0  0  0  0
  193.6200  172.7020  135.8000 C   0  0  1  0  0  3  0  0  0  0  0  0
  192.4850  172.9680  134.8430 C   0  0  0  0  0  3  0  0  0  0  0  0
  196.2010  172.1040  137.0460 C   0  0  2  0  0  3  0  0  0  0  0  0
  195.9050  169.7620  136.7260 N   0  0  0  0  0  2  0  0  0  0  0  0
  195.9240  171.8660  135.5600 C   0  0  2  0  0  3  0  0  0  0  0  0
  189.6580  173.1390  137.1070 C   0  0  0  0  0  2  0  0  0  0  0  0
  195.7490  170.8240  137.7180 C   0  0  0  0  0  2  0  0  0  0  0  0
  194.8420  172.6870  134.9860 N   0  0  0  0  0  2  0  0  0  0  0  0
  195.6130  170.3790  135.4350 C   0  0  0  0  0  2  0  0  0  0  0  0
  195.3460  173.5360  137.7010 S   0  0  0  0  0  0  0  0  0  0  0  0
  196.1550  174.7710  137.4130 O   0  0  0  0  0  0  0  0  0  0  0  0
  191.2650  173.4260  135.0980 C   0  0  0  0  0  3  0  0  0  0  0  0
  190.7630  173.8970  136.4140 C   0  0  2  0  0  0  0  0  0  0  0  0
  189.3070  174.3310  136.2130 C   0  0  2  0  0  3  0  0  0  0  0  0
  192.9280  174.6580  137.4510 C   0  0  0  0  0  3  0  0  0  0  0  0
  185.9300  178.5400  142.8570 C   0  0  0  0  0  3  0  0  0  0  0  0
  188.1380  178.0900  140.7130 C   0  0  0  0  0  0  0  0  0  0  0  0
  186.6910  177.3120  144.7920 N   0  0  0  0  0  0  0  0  0  0  0  0
  190.2450  177.8780  141.7410 N   0  0  0  0  0  0  0  0  0  0  0  0
  189.1520  178.0840  139.6200 C   0  0  1  0  0  3  0  0  0  0  0  0
  187.6750  177.2140  146.9920 C   0  0  0  0  0  1  0  0  0  0  0  0
  189.2920  177.7270  144.6850 S   0  0  0  0  0  0  0  0  0  0  0  0
  186.8740  177.5040  143.3780 C   0  0  2  0  0  3  0  0  0  0  0  0
  190.4920  177.7990  140.3060 C   0  0  0  0  0  2  0  0  0  0  0  0
  186.8980  178.5660  140.5250 C   0  0  0  0  0  3  0  0  0  0  0  0
  187.7620  177.3170  145.5090 C   0  0  0  0  0  0  0  0  0  0  0  0
  188.3040  177.8750  143.1950 C   0  0  2  0  0  3  0  0  0  0  0  0
  185.9230  178.9480  141.5810 C   0  0  0  0  0  3  0  0  0  0  0  0
  188.8530  177.9560  141.9750 C   0  0  0  0  0  0  0  0  0  0  0  0
  184.6090  174.4030  137.8350 N   0  0  0  0  0  2  0  0  0  0  0  0
  185.8670  175.7900  135.3110 C   0  0  0  0  0  0  0  0  0  0  0  0
  185.7970  174.2510  137.1120 N   0  0  0  0  0  2  0  0  0  0  0  0
  182.4220  174.0960  134.6770 N   0  0  2  0  0  0  0  0  0  0  0  0
  182.3440  175.3220  137.2840 C   0  0  0  0  0  2  0  0  0  0  0  0
  186.3900  175.3770  136.4860 C   0  0  0  0  0  0  0  0  0  0  0  0
  183.7260  174.1610  135.3850 C   0  0  1  0  0  3  0  0  0  0  0  0
  184.6250  175.2020  134.6730 C   0  0  0  0  0  2  0  0  0  0  0  0
  182.0100  176.2010  136.0830 C   0  0  0  0  0  2  0  0  0  0  0  0
  181.6270  175.3470  134.8610 C   0  0  0  0  0  2  0  0  0  0  0  0
  183.4760  174.3740  136.9080 C   0  0  1  0  0  3  0  0  0  0  0  0
  186.4720  176.8180  134.5940 O   0  0  0  0  0  1  0  0  0  0  0  0
  182.3560  171.6100  134.6370 C   0  0  2  0  0  3  0  0  0  0  0  0
  182.8520  170.7960  135.8210 C   0  0  0  0  0  2  0  0  0  0  0  0
  180.3610  170.6350  135.9020 C   0  0  0  0  0  2  0  0  0  0  0  0
  181.6730  172.9010  135.1290 C   0  0  2  0  0  3  0  0  0  0  0  0
  180.1930  172.8770  134.6790 C   0  0  0  0  0  2  0  0  0  0  0  0
  181.6140  170.3360  135.0740 C   0  0  1  0  0  3  0  0  0  0  0  0
  179.4460  171.6290  135.1860 C   0  0  0  0  0  2  0  0  0  0  0  0
  2  1  2  0  0  0  0
  3  2  1  0  0  0  0
  4  1  1  0  0  0  0
  5  3  1  0  0  0  0
  5  4  2  0  0  0  0
  6 23  2  0  0  0  0
  8 23  1  0  0  0  0
  8 18  1  0  0  0  0
  9 10  1  6  0  0  0
  9  8  1  0  0  0  0
 10 20  2  0  0  0  0
 11 18  1  0  0  0  0
 11 15  1  1  0  0  0
 12 15  1  0  0  0  0
 13 17  1  1  0  0  0
 13 11  1  0  0  0  0
 16 13  1  0  0  0  0
 16  9  1  0  0  0  0
 17 12  1  0  0  0  0
 18  7  2  0  0  0  0
 19 18  2  0  0  0  0
 21 20  1  6  0  0  0
 21 14  1  0  0  0  0
 21  6  1  0  0  0  0
 22 21  1  0  0  0  0
 22  5  1  1  0  0  0
 22 14  1  0  0  0  0
 25 37  1  0  0  0  0
 26 34  2  0  0  0  0
 27 37  2  0  0  0  0
 28  1  1  6  0  0  0
 28 32  1  0  0  0  0
 28 25  1  0  0  0  0
 30 34  1  0  0  0  0
 31 24  1  1  0  0  0
 31 26  1  0  0  0  0
 32 27  1  0  0  0  0
 33 25  2  0  0  0  0
 33 36  1  0  0  0  0
 34 29  1  0  0  0  0
 35 37  1  6  0  0  0
 35 31  1  0  0  0  0
 35 30  1  0  0  0  0
 36 24  2  0  0  0  0
 39 43  2  0  0  0  0
 40 38  1  0  0  0  0
 41 47  1  1  0  0  0
 41 53  1  0  0  0  0
 41 44  1  0  0  0  0
 43  3  1  0  0  0  0
 43 40  1  0  0  0  0
 44 45  1  6  0  0  0
 44 48  1  0  0  0  0
 45 39  1  0  0  0  0
 46 42  1  0  0  0  0
 47 46  1  0  0  0  0
 48 42  1  6  0  0  0
 48 38  1  0  0  0  0
 49 39  1  0  0  0  0
 50 55  1  0  0  0  0
 50 53  1  0  0  0  0
 50 51  1  1  0  0  0
 53 54  1  6  0  0  0
 54 56  1  0  0  0  0
 55 51  1  1  0  0  0
 55 52  1  0  0  0  0
 56 52  1  0  0  0  0
M  END
>  <MODEL>
1

>  <REMARK>
 VINA RESULT:      -9.5      0.000      0.000
  Name = 
  4 active torsions:
  status: ('A' for Active; 'I' for Inactive)
    1  A    between atoms: C_9  and  C_17
    2  A    between atoms: N_23  and  C_36
    3  A    between atoms: N_27  and  C_34
    4  A    between atoms: C_33  and  C_54
                            x       y       z     vdW  Elec       q    Type
                         _______ _______ _______ _____ _____    ______ ____

>  <TORSDO>
F 4

$$$$
=
 OpenBabel10222420543D

 56 67  0  0  1  0  0  0  0  0999 V2000
  191.7620  175.8230  136.9180 C   0  0  0  0  0  0  0  0  0  0  0  0
  191.9850  175.9370  138.2740 C   0  0  0  0  0  3  0  0  0  0  0  0
  191.1160  176.8320  138.7970 N   0  0  0  0  0  0  0  0  0  0  0  0
  190.7050  176.6460  136.5750 C   0  0  0  0  0  3  0  0  0  0  0  0
  190.3520  177.2780  137.7620 C   0  0  0  0  0  0  0  0  0  0  0  0
  187.8070  176.0260  137.2940 C   0  0  0  0  0  3  0  0  0  0  0  0
  184.5280  173.3590  137.9890 O   0  0  0  0  0  0  0  0  0  0  0  0
  185.3660  175.6680  136.9490 N   0  0  0  0  0  0  0  0  0  0  0  0
  184.7390  177.0030  136.9740 C   0  0  1  0  0  3  0  0  0  0  0  0
  185.6180  178.1890  136.6670 C   0  0  0  0  0  3  0  0  0  0  0  0
  182.5910  175.0160  137.0890 C   0  0  2  0  0  3  0  0  0  0  0  0
  181.3100  176.3670  138.5760 N   0  0  0  0  0  2  0  0  0  0  0  0
  182.4140  176.3900  136.4390 C   0  0  2  0  0  3  0  0  0  0  0  0
  188.2600  177.7820  139.1170 C   0  0  0  0  0  2  0  0  0  0  0  0
  182.2520  175.2480  138.5470 C   0  0  0  0  0  2  0  0  0  0  0  0
  183.6600  177.0290  135.9770 N   0  0  0  0  0  2  0  0  0  0  0  0
  181.7080  177.2480  137.4820 C   0  0  0  0  0  2  0  0  0  0  0  0
  184.2430  174.3500  136.8900 S   0  0  0  0  0  0  0  0  0  0  0  0
  184.3430  173.6660  135.5540 O   0  0  0  0  0  0  0  0  0  0  0  0
  186.8790  178.4100  137.0190 C   0  0  0  0  0  3  0  0  0  0  0  0
  187.7700  177.4560  137.7270 C   0  0  2  0  0  0  0  0  0  0  0  0
  189.1240  178.1520  137.9090 C   0  0  2  0  0  3  0  0  0  0  0  0
  186.7520  175.2790  136.9750 C   0  0  0  0  0  3  0  0  0  0  0  0
  197.0220  175.3630  135.6860 C   0  0  0  0  0  3  0  0  0  0  0  0
  193.9640  174.9610  136.0840 C   0  0  0  0  0  0  0  0  0  0  0  0
  198.0510  173.6570  137.0510 N   0  0  0  0  0  0  0  0  0  0  0  0
  193.4760  172.6830  136.4280 N   0  0  0  0  0  0  0  0  0  0  0  0
  192.4790  174.8300  136.0600 C   0  0  1  0  0  3  0  0  0  0  0  0
  199.1800  171.5420  137.3110 C   0  0  0  0  0  1  0  0  0  0  0  0
  196.3810  171.6450  136.7190 S   0  0  0  0  0  0  0  0  0  0  0  0
  196.8280  174.3650  136.7830 C   0  0  2  0  0  3  0  0  0  0  0  0
  192.1900  173.3710  136.4300 C   0  0  0  0  0  2  0  0  0  0  0  0
  194.5890  176.0240  135.5570 C   0  0  0  0  0  3  0  0  0  0  0  0
  197.9590  172.3730  137.1250 C   0  0  0  0  0  0  0  0  0  0  0  0
  195.8150  173.3270  136.4510 C   0  0  2  0  0  3  0  0  0  0  0  0
  196.0300  176.1240  135.2040 C   0  0  0  0  0  3  0  0  0  0  0  0
  194.5170  173.6340  136.3160 C   0  0  0  0  0  0  0  0  0  0  0  0
  189.4580  175.6890  141.5830 N   0  0  0  0  0  2  0  0  0  0  0  0
  191.8680  177.6240  141.0080 C   0  0  0  0  0  0  0  0  0  0  0  0
  189.6460  176.8260  140.7900 N   0  0  0  0  0  2  0  0  0  0  0  0
  190.8010  177.4350  144.7460 N   0  0  2  0  0  0  0  0  0  0  0  0
  190.5940  174.7870  143.6260 C   0  0  0  0  0  2  0  0  0  0  0  0
  190.9170  177.0830  140.2150 C   0  0  0  0  0  0  0  0  0  0  0  0
  190.4730  177.3840  143.2980 C   0  0  1  0  0  3  0  0  0  0  0  0
  191.7030  177.8720  142.4930 C   0  0  0  0  0  2  0  0  0  0  0  0
  191.9570  175.2240  144.1500 C   0  0  0  0  0  2  0  0  0  0  0  0
  191.8240  176.4130  145.1200 C   0  0  0  0  0  2  0  0  0  0  0  0
  189.9200  175.9710  142.9440 C   0  0  1  0  0  3  0  0  0  0  0  0
  193.0980  178.0000  140.4770 O   0  0  0  0  0  1  0  0  0  0  0  0
  188.4600  178.2280  145.0180 C   0  0  2  0  0  3  0  0  0  0  0  0
  187.2930  177.4220  144.4700 C   0  0  0  0  0  2  0  0  0  0  0  0
  187.2270  177.0870  146.9450 C   0  0  0  0  0  2  0  0  0  0  0  0
  189.5600  177.2830  145.5390 C   0  0  2  0  0  3  0  0  0  0  0  0
  189.7460  177.5320  147.0540 C   0  0  0  0  0  2  0  0  0  0  0  0
  187.1480  178.1160  145.8120 C   0  0  1  0  0  3  0  0  0  0  0  0
  188.4360  177.3450  147.8450 C   0  0  0  0  0  2  0  0  0  0  0  0
  1  2  2  0  0  0  0
  2  3  1  0  0  0  0
  3 43  1  0  0  0  0
  4  1  1  0  0  0  0
  4  5  2  0  0  0  0
  5  3  1  0  0  0  0
  6 21  1  0  0  0  0
  8  9  1  0  0  0  0
  8 23  1  0  0  0  0
  9 10  1  6  0  0  0
 10 20  2  0  0  0  0
 11 15  1  1  0  0  0
 13 11  1  0  0  0  0
 13 17  1  1  0  0  0
 15 12  1  0  0  0  0
 16 13  1  0  0  0  0
 16  9  1  0  0  0  0
 17 12  1  0  0  0  0
 18  8  1  0  0  0  0
 18 11  1  0  0  0  0
 18  7  2  0  0  0  0
 19 18  2  0  0  0  0
 21 20  1  6  0  0  0
 21 22  1  0  0  0  0
 21 14  1  0  0  0  0
 22  5  1  1  0  0  0
 22 14  1  0  0  0  0
 23  6  2  0  0  0  0
 25 37  1  0  0  0  0
 26 34  2  0  0  0  0
 27 32  1  0  0  0  0
 28 25  1  0  0  0  0
 28 32  1  0  0  0  0
 28  1  1  1  0  0  0
 30 34  1  0  0  0  0
 31 24  1  6  0  0  0
 31 26  1  0  0  0  0
 33 25  2  0  0  0  0
 34 29  1  0  0  0  0
 35 37  1  1  0  0  0
 35 30  1  0  0  0  0
 35 31  1  0  0  0  0
 36 33  1  0  0  0  0
 36 24  2  0  0  0  0
 37 27  2  0  0  0  0
 38 48  1  0  0  0  0
 39 45  1  0  0  0  0
 40 38  1  0  0  0  0
 41 47  1  1  0  0  0
 41 53  1  0  0  0  0
 42 46  1  0  0  0  0
 43 40  1  0  0  0  0
 43 39  2  0  0  0  0
 44 45  1  6  0  0  0
 44 41  1  0  0  0  0
 46 47  1  0  0  0  0
 48 44  1  0  0  0  0
 48 42  1  6  0  0  0
 49 39  1  0  0  0  0
 50 51  1  6  0  0  0
 50 53  1  0  0  0  0
 50 55  1  0  0  0  0
 52 56  1  0  0  0  0
 53 54  1  1  0  0  0
 54 56  1  0  0  0  0
 55 51  1  6  0  0  0
 55 52  1  0  0  0  0
M  END
>  <MODEL>
2

>  <REMARK>
 VINA RESULT:      -9.3      2.958     10.882
  Name = 
  4 active torsions:
  status: ('A' for Active; 'I' for Inactive)
    1  A    between atoms: C_9  and  C_17
    2  A    between atoms: N_23  and  C_36
    3  A    between atoms: N_27  and  C_34
    4  A    between atoms: C_33  and  C_54
                            x       y       z     vdW  Elec       q    Type
                         _______ _______ _______ _____ _____    ______ ____

>  <TORSDO>
F 4

$$$$
=
 OpenBabel10222420543D

 56 67  0  0  1  0  0  0  0  0999 V2000
  188.1740  176.1160  136.5410 C   0  0  0  0  0  0  0  0  0  0  0  0
  187.8470  176.3380  137.8610 C   0  0  0  0  0  3  0  0  0  0  0  0
  188.9800  176.5250  138.5770 N   0  0  0  0  0  0  0  0  0  0  0  0
  189.5490  176.1930  136.4080 C   0  0  0  0  0  3  0  0  0  0  0  0
  190.0140  176.4180  137.6990 C   0  0  0  0  0  0  0  0  0  0  0  0
  191.9620  174.3870  137.1110 C   0  0  0  0  0  3  0  0  0  0  0  0
  194.3380  171.7750  134.6850 O   0  0  0  0  0  0  0  0  0  0  0  0
  194.1030  173.1180  136.9770 N   0  0  0  0  0  0  0  0  0  0  0  0
  195.1030  173.9050  137.7230 C   0  0  1  0  0  3  0  0  0  0  0  0
  194.5910  174.8780  138.7560 C   0  0  0  0  0  3  0  0  0  0  0  0
  196.5360  171.8150  136.2570 C   0  0  2  0  0  3  0  0  0  0  0  0
  198.3680  173.2730  135.8090 N   0  0  0  0  0  2  0  0  0  0  0  0
  197.0280  172.3750  137.5940 C   0  0  2  0  0  3  0  0  0  0  0  0
  192.3320  176.9090  136.7760 C   0  0  0  0  0  2  0  0  0  0  0  0
  197.1360  172.7450  135.2220 C   0  0  0  0  0  2  0  0  0  0  0  0
  195.9830  172.9750  138.4430 N   0  0  0  0  0  2  0  0  0  0  0  0
  198.1040  173.3940  137.2400 C   0  0  0  0  0  2  0  0  0  0  0  0
  194.7500  171.7510  136.1340 S   0  0  0  0  0  0  0  0  0  0  0  0
  194.2560  170.4850  136.7790 O   0  0  0  0  0  0  0  0  0  0  0  0
  193.5220  175.6630  138.7090 C   0  0  0  0  0  3  0  0  0  0  0  0
  192.4940  175.6810  137.6370 C   0  0  2  0  0  0  0  0  0  0  0  0
  191.4580  176.7420  138.0210 C   0  0  2  0  0  3  0  0  0  0  0  0
  192.6820  173.3040  136.8250 C   0  0  0  0  0  3  0  0  0  0  0  0
  184.4200  172.2980  135.6830 C   0  0  0  0  0  3  0  0  0  0  0  0
  186.1980  174.8500  135.6570 C   0  0  0  0  0  0  0  0  0  0  0  0
  182.2680  173.0550  136.4740 N   0  0  0  0  0  0  0  0  0  0  0  0
  184.8950  176.7500  135.1680 N   0  0  0  0  0  0  0  0  0  0  0  0
  187.1460  175.9850  135.4620 C   0  0  1  0  0  3  0  0  0  0  0  0
  179.9670  173.6740  136.1010 C   0  0  0  0  0  1  0  0  0  0  0  0
  182.0990  175.4280  135.3400 S   0  0  0  0  0  0  0  0  0  0  0  0
  183.6600  173.3960  136.3570 C   0  0  2  0  0  3  0  0  0  0  0  0
  186.2680  177.2290  135.2910 C   0  0  0  0  0  2  0  0  0  0  0  0
  186.5970  173.5730  135.5750 C   0  0  0  0  0  3  0  0  0  0  0  0
  181.4280  173.9600  136.1020 C   0  0  0  0  0  0  0  0  0  0  0  0
  183.7080  174.6810  135.6070 C   0  0  2  0  0  3  0  0  0  0  0  0
  185.7280  172.3790  135.4030 C   0  0  0  0  0  3  0  0  0  0  0  0
  184.8500  175.3700  135.4730 C   0  0  0  0  0  0  0  0  0  0  0  0
  190.1360  175.6550  141.6960 N   0  0  0  0  0  2  0  0  0  0  0  0
  189.0720  178.2710  140.3160 C   0  0  0  0  0  0  0  0  0  0  0  0
  188.9740  176.0030  140.9980 N   0  0  0  0  0  2  0  0  0  0  0  0
  189.8040  178.6310  144.1220 N   0  0  2  0  0  0  0  0  0  0  0  0
  191.8520  176.9560  142.9760 C   0  0  0  0  0  2  0  0  0  0  0  0
  189.0370  176.9680  139.9610 C   0  0  0  0  0  0  0  0  0  0  0  0
  189.3780  177.8190  142.9530 C   0  0  1  0  0  3  0  0  0  0  0  0
  189.1590  178.7650  141.7460 C   0  0  0  0  0  2  0  0  0  0  0  0
  192.0560  178.4660  142.9050 C   0  0  0  0  0  2  0  0  0  0  0  0
  191.1750  179.1940  143.9370 C   0  0  0  0  0  2  0  0  0  0  0  0
  190.3780  176.6430  142.7490 C   0  0  1  0  0  3  0  0  0  0  0  0
  189.0230  179.2680  139.3460 O   0  0  0  0  0  1  0  0  0  0  0  0
  188.7030  178.4250  146.3420 C   0  0  2  0  0  3  0  0  0  0  0  0
  187.5300  177.4810  146.5480 C   0  0  0  0  0  2  0  0  0  0  0  0
  189.4740  176.3770  147.6630 C   0  0  0  0  0  2  0  0  0  0  0  0
  189.7110  177.8110  145.3510 C   0  0  2  0  0  3  0  0  0  0  0  0
  191.0610  177.6140  146.0810 C   0  0  0  0  0  2  0  0  0  0  0  0
  188.5720  177.6160  147.6430 C   0  0  1  0  0  3  0  0  0  0  0  0
  190.9240  176.7410  147.3430 C   0  0  0  0  0  2  0  0  0  0  0  0
  1  2  2  0  0  0  0
  2  3  1  0  0  0  0
  3 43  1  0  0  0  0
  4  1  1  0  0  0  0
  4  5  2  0  0  0  0
  5  3  1  0  0  0  0
  6 21  1  0  0  0  0
  7 18  2  0  0  0  0
  8  9  1  0  0  0  0
  9 16  1  0  0  0  0
  9 10  1  1  0  0  0
 11 15  1  6  0  0  0
 11 13  1  0  0  0  0
 12 17  1  0  0  0  0
 13 17  1  6  0  0  0
 13 16  1  0  0  0  0
 14 22  1  0  0  0  0
 15 12  1  0  0  0  0
 18 11  1  0  0  0  0
 18 19  2  0  0  0  0
 18  8  1  0  0  0  0
 20 10  2  0  0  0  0
 21 14  1  6  0  0  0
 21 22  1  0  0  0  0
 21 20  1  0  0  0  0
 22  5  1  6  0  0  0
 23  8  1  0  0  0  0
 23  6  2  0  0  0  0
 27 32  1  0  0  0  0
 27 37  2  0  0  0  0
 28 25  1  0  0  0  0
 28  1  1  1  0  0  0
 29 34  1  0  0  0  0
 30 34  1  0  0  0  0
 31 24  1  6  0  0  0
 31 26  1  0  0  0  0
 32 28  1  0  0  0  0
 33 25  2  0  0  0  0
 34 26  2  0  0  0  0
 35 30  1  1  0  0  0
 35 31  1  0  0  0  0
 36 33  1  0  0  0  0
 36 24  2  0  0  0  0
 37 35  1  0  0  0  0
 37 25  1  0  0  0  0
 38 48  1  0  0  0  0
 39 45  1  0  0  0  0
 40 38  1  0  0  0  0
 41 47  1  6  0  0  0
 41 53  1  0  0  0  0
 43 39  2  0  0  0  0
 43 40  1  0  0  0  0
 44 45  1  6  0  0  0
 44 41  1  0  0  0  0
 46 42  1  0  0  0  0
 46 47  1  0  0  0  0
 48 44  1  0  0  0  0
 48 42  1  6  0  0  0
 49 39  1  0  0  0  0
 50 51  1  6  0  0  0
 50 55  1  0  0  0  0
 53 54  1  1  0  0  0
 53 50  1  0  0  0  0
 54 56  1  0  0  0  0
 55 51  1  6  0  0  0
 55 52  1  0  0  0  0
 56 52  1  0  0  0  0
M  END
>  <MODEL>
3

>  <REMARK>
 VINA RESULT:      -8.6      2.729      8.680
  Name = 
  4 active torsions:
  status: ('A' for Active; 'I' for Inactive)
    1  A    between atoms: C_9  and  C_17
    2  A    between atoms: N_23  and  C_36
    3  A    between atoms: N_27  and  C_34
    4  A    between atoms: C_33  and  C_54
                            x       y       z     vdW  Elec       q    Type
                         _______ _______ _______ _____ _____    ______ ____

>  <TORSDO>
F 4

$$$$
