=
 OpenBabel10222420553D

 56 62  0  0  1  0  0  0  0  0999 V2000
  182.3290  177.7440  141.3180 C   0  0  2  0  0  3  0  0  0  0  0  0
  183.7310  177.4650  140.7460 C   0  0  1  0  0  3  0  0  0  0  0  0
  184.2080  177.3700  138.3150 C   0  0  0  0  0  3  0  0  0  0  0  0
  183.7410  176.7530  139.4070 C   0  0  0  0  0  3  0  0  0  0  0  0
  184.7910  178.7520  138.3970 C   0  0  1  0  0  3  0  0  0  0  0  0
  184.3240  179.4320  139.6910 C   0  0  0  0  0  2  0  0  0  0  0  0
  184.5800  178.6010  140.8020 O   0  0  0  0  0  0  0  0  0  0  0  0
  186.2430  178.6640  138.3810 N   0  0  0  0  0  2  0  0  0  0  0  0
  187.2340  178.6530  136.2190 C   0  0  0  0  0  2  0  0  0  0  0  0
  186.6150  177.8280  137.2500 C   0  0  1  0  0  3  0  0  0  0  0  0
  188.0790  177.8400  137.1050 N   0  0  0  0  0  2  0  0  0  0  0  0
  180.8770  178.4720  139.4590 C   0  0  0  0  0  3  0  0  0  0  0  0
  181.2680  177.5030  140.2860 C   0  0  0  0  0  3  0  0  0  0  0  0
  180.6840  176.5890  136.6480 C   0  0  0  0  0  0  0  0  0  0  0  0
  180.4550  177.8960  137.1410 N   0  0  0  0  0  0  0  0  0  0  0  0
  179.8290  178.2040  138.4250 C   0  0  1  0  0  3  0  0  0  0  0  0
  181.4420  176.5990  135.5510 C   0  0  0  0  0  0  0  0  0  0  0  0
  181.8820  177.9960  135.2070 C   0  0  0  0  0  2  0  0  0  0  0  0
  181.2880  180.0000  136.4700 O   0  0  0  0  0  0  0  0  0  0  0  0
  179.6580  175.6900  138.7220 C   0  0  0  0  0  2  0  0  0  0  0  0
  178.9310  177.0360  138.8600 C   0  0  0  0  0  2  0  0  0  0  0  0
  181.2020  178.7560  136.2980 C   0  0  0  0  0  0  0  0  0  0  0  0
  180.0210  175.3950  137.2640 C   0  0  0  0  0  2  0  0  0  0  0  0
  181.8500  175.3930  134.7710 C   0  0  0  0  0  2  0  0  0  0  0  0
  183.2390  174.9280  135.1970 C   0  0  0  0  0  2  0  0  0  0  0  0
  181.9000  170.3940  134.9540 C   0  0  0  0  0  1  0  0  0  0  0  0
  182.1760  172.6650  135.4210 C   0  0  0  0  0  2  0  0  0  0  0  0
  183.2150  173.6140  135.9780 C   0  0  1  0  0  0  0  0  0  0  0  0
  184.5350  172.8670  135.8650 C   0  0  2  0  0  3  0  0  0  0  0  0
  182.9010  173.8870  137.3130 O   0  0  0  0  0  1  0  0  0  0  0  0
  184.2050  171.0830  135.9390 S   0  0  0  0  0  0  0  0  0  0  0  0
  182.4450  171.3250  135.9250 N   0  0  0  0  0  0  0  0  0  0  0  0
  185.6340  173.3300  136.7820 C   0  0  0  0  0  0  0  0  0  0  0  0
  185.6290  172.9150  137.9720 O   0  0  0  0  0  0  0  0  0  0  0  0
  186.7160  174.2350  136.3490 C   0  0  0  0  0  0  0  0  0  0  0  0
  186.5870  174.9470  135.1630 O   0  0  0  0  0  0  0  0  0  0  0  0
  187.7630  174.3710  137.0380 O   0  0  0  0  0  1  0  0  0  0  0  0
  182.2060  179.1590  141.8720 C   0  0  0  0  0  2  0  0  0  0  0  0
  182.1250  179.1370  143.3890 C   0  0  0  0  0  2  0  0  0  0  0  0
  183.3940  179.7210  143.9900 C   0  0  0  0  0  2  0  0  0  0  0  0
  185.2700  178.9650  145.3830 C   0  0  0  0  0  3  0  0  0  0  0  0
  184.0250  178.7720  144.9560 C   0  0  0  0  0  3  0  0  0  0  0  0
  185.8860  178.0070  146.3450 C   0  0  0  0  0  2  0  0  0  0  0  0
  188.0070  177.5500  148.3460 C   0  0  0  0  0  1  0  0  0  0  0  0
  190.7180  176.8890  147.4000 C   0  0  0  0  0  1  0  0  0  0  0  0
  188.8720  177.2960  144.1240 C   0  0  0  0  0  0  0  0  0  0  0  0
  187.5780  177.6060  144.5640 C   0  0  0  0  0  3  0  0  0  0  0  0
  189.8790  177.0660  145.0680 C   0  0  0  0  0  3  0  0  0  0  0  0
  188.3050  177.4570  146.8800 C   0  0  0  0  0  0  0  0  0  0  0  0
  189.6060  177.1450  146.4380 C   0  0  0  0  0  0  0  0  0  0  0  0
  187.2880  177.6900  145.9300 C   0  0  0  0  0  0  0  0  0  0  0  0
  190.1170  176.7210  140.6670 N   0  0  0  0  0  0  0  0  0  0  0  0
  188.4780  177.8210  141.7790 N   0  0  0  0  0  0  0  0  0  0  0  0
  189.0900  177.4950  140.5380 C   0  0  0  0  0  3  0  0  0  0  0  0
  189.1720  177.2160  142.6840 C   0  0  0  0  0  0  0  0  0  0  0  0
  190.2970  176.4440  142.0830 C   0  0  0  0  0  2  0  0  0  0  0  0
  1 13  1  6  0  0  0
  1 38  1  0  0  0  0
  2  7  1  0  0  0  0
  2  1  1  6  0  0  0
  3  5  1  0  0  0  0
  3  4  2  0  0  0  0
  4  2  1  0  0  0  0
  5  8  1  1  0  0  0
  5  6  1  0  0  0  0
  6  7  1  0  0  0  0
  9 11  1  0  0  0  0
  9 10  1  0  0  0  0
 10  8  1  1  0  0  0
 11 10  1  0  0  0  0
 12 13  2  0  0  0  0
 14 15  1  0  0  0  0
 14 23  1  0  0  0  0
 15 16  1  0  0  0  0
 16 21  1  0  0  0  0
 16 12  1  1  0  0  0
 17 14  2  0  0  0  0
 18 17  1  0  0  0  0
 18 22  1  0  0  0  0
 20 21  1  0  0  0  0
 22 19  2  0  0  0  0
 22 15  1  0  0  0  0
 23 20  1  0  0  0  0
 24 25  1  0  0  0  0
 24 17  1  0  0  0  0
 25 28  1  0  0  0  0
 26 32  1  0  0  0  0
 27 32  1  0  0  0  0
 27 28  1  0  0  0  0
 28 30  1  1  0  0  0
 29 31  1  0  0  0  0
 29 28  1  0  0  0  0
 29 33  1  1  0  0  0
 32 31  1  0  0  0  0
 33 34  2  0  0  0  0
 35 33  1  0  0  0  0
 35 37  1  0  0  0  0
 36 35  2  0  0  0  0
 38 39  1  0  0  0  0
 39 40  1  0  0  0  0
 40 42  1  0  0  0  0
 41 43  1  0  0  0  0
 42 41  2  0  0  0  0
 46 47  2  0  0  0  0
 46 48  1  0  0  0  0
 47 51  1  0  0  0  0
 48 50  2  0  0  0  0
 49 44  1  0  0  0  0
 50 49  1  0  0  0  0
 50 45  1  0  0  0  0
 51 43  1  0  0  0  0
 51 49  2  0  0  0  0
 52 56  1  0  0  0  0
 53 55  2  0  0  0  0
 54 52  2  0  0  0  0
 54 53  1  0  0  0  0
 55 46  1  0  0  0  0
 56 55  1  0  0  0  0
M  END
>  <MODEL>
1

>  <REMARK>
 VINA RESULT:      -7.8      0.000      0.000
  Name = 
  17 active torsions:
  status: ('A' for Active; 'I' for Inactive)
    1  A    between atoms: C_3  and  C_8
    2  A    between atoms: C_10  and  C_33
    3  A    between atoms: C_11  and  C_14
    4  A    between atoms: C_12  and  C_16
    5  A    between atoms: C_13  and  C_55
    6  A    between atoms: C_14  and  C_33
    7  A    between atoms: C_16  and  C_17
    8  A    between atoms: C_20  and  C_42
    9  A    between atoms: C_24  and  C_26
   10  A    between atoms: C_24  and  C_55
   11  A    between atoms: C_26  and  C_27
   12  A    between atoms: C_27  and  C_52
   13  A    between atoms: N_36  and  C_40
   14  A    between atoms: N_36  and  C_44
   15  A    between atoms: C_37  and  C_48
   16  A    between atoms: C_45  and  C_55
   17  A    between atoms: C_48  and  C_53
                            x       y       z     vdW  Elec       q    Type
                         _______ _______ _______ _____ _____    ______ ____

>  <TORSDO>
F 17

$$$$
=
 OpenBabel10222420553D

 56 62  0  0  1  0  0  0  0  0999 V2000
  188.8400  176.2510  137.1030 C   0  0  2  0  0  3  0  0  0  0  0  0
  189.9320  175.1900  136.8700 C   0  0  1  0  0  3  0  0  0  0  0  0
  192.1190  175.7050  135.8220 C   0  0  0  0  0  3  0  0  0  0  0  0
  190.8160  175.4430  135.6640 C   0  0  0  0  0  3  0  0  0  0  0  0
  192.7500  175.6940  137.1850 C   0  0  1  0  0  3  0  0  0  0  0  0
  191.6630  175.8320  138.2580 C   0  0  0  0  0  2  0  0  0  0  0  0
  190.6470  174.8740  138.0540 O   0  0  0  0  0  0  0  0  0  0  0  0
  193.4710  174.4440  137.3700 N   0  0  0  0  0  2  0  0  0  0  0  0
  195.3020  174.2720  138.8790 C   0  0  0  0  0  2  0  0  0  0  0  0
  194.8710  174.7770  137.5800 C   0  0  1  0  0  3  0  0  0  0  0  0
  195.6550  173.5340  137.6580 N   0  0  0  0  0  2  0  0  0  0  0  0
  186.5130  175.4710  136.8450 C   0  0  0  0  0  3  0  0  0  0  0  0
  187.6190  175.9570  136.2840 C   0  0  0  0  0  3  0  0  0  0  0  0
  183.2730  176.4630  136.9060 C   0  0  0  0  0  0  0  0  0  0  0  0
  184.0930  175.3110  136.8280 N   0  0  0  0  0  0  0  0  0  0  0  0
  185.2990  175.2010  136.0120 C   0  0  1  0  0  3  0  0  0  0  0  0
  182.3570  176.3560  137.8690 C   0  0  0  0  0  0  0  0  0  0  0  0
  182.5170  175.0670  138.6290 C   0  0  0  0  0  2  0  0  0  0  0  0
  184.2140  173.3730  138.1690 O   0  0  0  0  0  0  0  0  0  0  0  0
  184.8040  177.5880  135.3070 C   0  0  0  0  0  2  0  0  0  0  0  0
  185.2240  176.1880  134.8360 C   0  0  0  0  0  2  0  0  0  0  0  0
  183.6680  174.4710  137.8880 C   0  0  0  0  0  0  0  0  0  0  0  0
  183.3970  177.5770  135.9120 C   0  0  0  0  0  2  0  0  0  0  0  0
  181.3250  177.3820  138.1980 C   0  0  0  0  0  2  0  0  0  0  0  0
  181.6830  178.1010  139.4960 C   0  0  0  0  0  2  0  0  0  0  0  0
  179.8280  178.0450  143.8510 C   0  0  0  0  0  1  0  0  0  0  0  0
  180.3710  177.7260  141.6030 C   0  0  0  0  0  2  0  0  0  0  0  0
  180.4550  178.5080  140.3100 C   0  0  1  0  0  0  0  0  0  0  0  0
  180.5190  179.9680  140.7350 C   0  0  2  0  0  3  0  0  0  0  0  0
  179.3070  178.2510  139.5550 O   0  0  0  0  0  1  0  0  0  0  0  0
  179.6760  180.1490  142.3330 S   0  0  0  0  0  0  0  0  0  0  0  0
  179.4380  178.3960  142.4980 N   0  0  0  0  0  0  0  0  0  0  0  0
  180.0990  180.9730  139.6970 C   0  0  0  0  0  0  0  0  0  0  0  0
  179.0460  181.6330  139.9020 O   0  0  0  0  0  0  0  0  0  0  0  0
  180.8690  181.2270  138.4640 C   0  0  0  0  0  0  0  0  0  0  0  0
  182.1210  181.8240  138.5430 O   0  0  0  0  0  1  0  0  0  0  0  0
  180.4070  180.9120  137.3340 O   0  0  0  0  0  0  0  0  0  0  0  0
  189.3380  177.6620  136.8090 C   0  0  0  0  0  2  0  0  0  0  0  0
  189.2330  178.5370  138.0460 C   0  0  0  0  0  2  0  0  0  0  0  0
  188.8470  177.6960  139.2520 C   0  0  0  0  0  2  0  0  0  0  0  0
  187.1650  177.7600  141.0410 C   0  0  0  0  0  3  0  0  0  0  0  0
  187.8790  178.4180  140.1320 C   0  0  0  0  0  3  0  0  0  0  0  0
  186.2010  178.4970  141.9090 C   0  0  0  0  0  2  0  0  0  0  0  0
  184.1220  178.7940  143.9830 C   0  0  0  0  0  1  0  0  0  0  0  0
  184.8240  178.1930  146.7800 C   0  0  0  0  0  1  0  0  0  0  0  0
  188.1180  177.5460  145.0360 C   0  0  0  0  0  0  0  0  0  0  0  0
  187.7920  177.8240  143.7020 C   0  0  0  0  0  3  0  0  0  0  0  0
  187.1330  177.6730  146.0220 C   0  0  0  0  0  3  0  0  0  0  0  0
  185.5080  178.3550  144.3460 C   0  0  0  0  0  0  0  0  0  0  0  0
  185.8350  178.0750  145.6880 C   0  0  0  0  0  0  0  0  0  0  0  0
  186.5000  178.2290  143.3500 C   0  0  0  0  0  0  0  0  0  0  0  0
  191.3620  176.5540  146.5590 N   0  0  0  0  0  0  0  0  0  0  0  0
  190.3960  176.8470  144.5320 N   0  0  0  0  0  0  0  0  0  0  0  0
  191.5510  176.4960  145.2820 C   0  0  0  0  0  3  0  0  0  0  0  0
  189.4820  177.1270  145.4010 C   0  0  0  0  0  0  0  0  0  0  0  0
  189.9900  176.9730  146.7940 C   0  0  0  0  0  2  0  0  0  0  0  0
  1 13  1  6  0  0  0
  2  1  1  1  0  0  0
  2  7  1  0  0  0  0
  3  5  1  0  0  0  0
  4  3  2  0  0  0  0
  4  2  1  0  0  0  0
  5  8  1  1  0  0  0
  5  6  1  0  0  0  0
  7  6  1  0  0  0  0
 10  8  1  1  0  0  0
 10 11  1  0  0  0  0
 10  9  1  0  0  0  0
 11  9  1  0  0  0  0
 13 12  2  0  0  0  0
 14 17  2  0  0  0  0
 15 14  1  0  0  0  0
 15 22  1  0  0  0  0
 16 15  1  0  0  0  0
 16 12  1  1  0  0  0
 17 24  1  0  0  0  0
 17 18  1  0  0  0  0
 20 23  1  0  0  0  0
 21 20  1  0  0  0  0
 21 16  1  0  0  0  0
 22 19  2  0  0  0  0
 22 18  1  0  0  0  0
 23 14  1  0  0  0  0
 24 25  1  0  0  0  0
 25 28  1  0  0  0  0
 27 32  1  0  0  0  0
 28 30  1  6  0  0  0
 28 29  1  0  0  0  0
 28 27  1  0  0  0  0
 29 33  1  6  0  0  0
 29 31  1  0  0  0  0
 31 32  1  0  0  0  0
 32 26  1  0  0  0  0
 33 34  2  0  0  0  0
 35 36  1  0  0  0  0
 35 33  1  0  0  0  0
 37 35  2  0  0  0  0
 38  1  1  0  0  0  0
 38 39  1  0  0  0  0
 39 40  1  0  0  0  0
 40 42  1  0  0  0  0
 41 43  1  0  0  0  0
 42 41  2  0  0  0  0
 43 51  1  0  0  0  0
 44 49  1  0  0  0  0
 46 55  1  0  0  0  0
 46 48  1  0  0  0  0
 47 46  2  0  0  0  0
 49 50  1  0  0  0  0
 50 48  2  0  0  0  0
 50 45  1  0  0  0  0
 51 47  1  0  0  0  0
 51 49  2  0  0  0  0
 52 56  1  0  0  0  0
 53 54  1  0  0  0  0
 53 55  2  0  0  0  0
 54 52  2  0  0  0  0
 55 56  1  0  0  0  0
M  END
>  <MODEL>
2

>  <REMARK>
 VINA RESULT:      -7.5      3.500      7.158
  Name = 
  17 active torsions:
  status: ('A' for Active; 'I' for Inactive)
    1  A    between atoms: C_3  and  C_8
    2  A    between atoms: C_10  and  C_33
    3  A    between atoms: C_11  and  C_14
    4  A    between atoms: C_12  and  C_16
    5  A    between atoms: C_13  and  C_55
    6  A    between atoms: C_14  and  C_33
    7  A    between atoms: C_16  and  C_17
    8  A    between atoms: C_20  and  C_42
    9  A    between atoms: C_24  and  C_26
   10  A    between atoms: C_24  and  C_55
   11  A    between atoms: C_26  and  C_27
   12  A    between atoms: C_27  and  C_52
   13  A    between atoms: N_36  and  C_40
   14  A    between atoms: N_36  and  C_44
   15  A    between atoms: C_37  and  C_48
   16  A    between atoms: C_45  and  C_55
   17  A    between atoms: C_48  and  C_53
                            x       y       z     vdW  Elec       q    Type
                         _______ _______ _______ _____ _____    ______ ____

>  <TORSDO>
F 17

$$$$
=
 OpenBabel10222420553D

 56 62  0  0  1  0  0  0  0  0999 V2000
  190.7610  175.6100  137.1040 C   0  0  2  0  0  3  0  0  0  0  0  0
  192.1990  175.9100  136.6440 C   0  0  1  0  0  3  0  0  0  0  0  0
  194.2050  175.2140  137.9250 C   0  0  0  0  0  3  0  0  0  0  0  0
  193.2020  176.0870  137.7680 C   0  0  0  0  0  3  0  0  0  0  0  0
  194.4000  174.0790  136.9610 C   0  0  1  0  0  3  0  0  0  0  0  0
  193.1020  173.8350  136.1820 C   0  0  0  0  0  2  0  0  0  0  0  0
  192.6370  175.0390  135.6130 O   0  0  0  0  0  0  0  0  0  0  0  0
  195.4750  174.4120  136.0390 N   0  0  0  0  0  2  0  0  0  0  0  0
  197.8480  174.5380  135.9480 C   0  0  0  0  0  2  0  0  0  0  0  0
  196.6840  174.5900  136.8260 C   0  0  1  0  0  3  0  0  0  0  0  0
  197.3470  175.8380  136.4150 N   0  0  0  0  0  2  0  0  0  0  0  0
  188.4930  175.5090  136.1360 C   0  0  0  0  0  3  0  0  0  0  0  0
  189.8020  175.6750  135.9530 C   0  0  0  0  0  3  0  0  0  0  0  0
  185.1260  175.6220  135.7610 C   0  0  0  0  0  0  0  0  0  0  0  0
  186.2850  174.9470  135.3050 N   0  0  0  0  0  0  0  0  0  0  0  0
  187.5510  175.5950  134.9750 C   0  0  1  0  0  3  0  0  0  0  0  0
  184.1860  174.7710  136.1710 C   0  0  0  0  0  0  0  0  0  0  0  0
  184.6670  173.3480  136.0880 C   0  0  0  0  0  2  0  0  0  0  0  0
  186.8740  172.6610  135.2980 O   0  0  0  0  0  0  0  0  0  0  0  0
  186.3850  177.7570  135.6120 C   0  0  0  0  0  2  0  0  0  0  0  0
  187.3010  177.0630  134.5940 C   0  0  0  0  0  2  0  0  0  0  0  0
  186.0330  173.5700  135.5290 C   0  0  0  0  0  0  0  0  0  0  0  0
  184.9970  177.1100  135.6510 C   0  0  0  0  0  2  0  0  0  0  0  0
  182.8390  175.1550  136.6870 C   0  0  0  0  0  2  0  0  0  0  0  0
  182.9650  175.8480  138.0400 C   0  0  0  0  0  2  0  0  0  0  0  0
  178.9890  175.3820  140.5670 C   0  0  0  0  0  1  0  0  0  0  0  0
  180.6260  175.5980  138.9170 C   0  0  0  0  0  2  0  0  0  0  0  0
  181.6870  176.5750  138.4590 C   0  0  1  0  0  0  0  0  0  0  0  0
  181.9240  177.4890  139.6530 C   0  0  2  0  0  3  0  0  0  0  0  0
  181.1950  177.2910  137.3650 O   0  0  0  0  0  1  0  0  0  0  0  0
  180.4040  177.5620  140.6430 S   0  0  0  0  0  0  0  0  0  0  0  0
  179.6000  176.3270  139.6500 N   0  0  0  0  0  0  0  0  0  0  0  0
  182.5240  178.8330  139.3420 C   0  0  0  0  0  0  0  0  0  0  0  0
  181.7530  179.8280  139.2830 O   0  0  0  0  0  0  0  0  0  0  0  0
  183.9680  179.0380  139.1170 C   0  0  0  0  0  0  0  0  0  0  0  0
  184.7810  177.9490  138.8240 O   0  0  0  0  0  0  0  0  0  0  0  0
  184.4800  180.1880  139.1890 O   0  0  0  0  0  1  0  0  0  0  0  0
  190.3060  176.5490  138.2150 C   0  0  0  0  0  2  0  0  0  0  0  0
  190.8600  176.1010  139.5570 C   0  0  0  0  0  2  0  0  0  0  0  0
  190.7190  177.2160  140.5810 C   0  0  0  0  0  2  0  0  0  0  0  0
  190.3050  177.3990  142.9960 C   0  0  0  0  0  3  0  0  0  0  0  0
  190.7730  176.6840  141.9760 C   0  0  0  0  0  3  0  0  0  0  0  0
  190.3700  176.8540  144.3820 C   0  0  0  0  0  2  0  0  0  0  0  0
  190.4190  177.0110  147.3290 C   0  0  0  0  0  1  0  0  0  0  0  0
  187.9840  177.8910  148.7340 C   0  0  0  0  0  1  0  0  0  0  0  0
  186.8410  178.0110  145.1300 C   0  0  0  0  0  0  0  0  0  0  0  0
  187.9960  177.5980  144.4520 C   0  0  0  0  0  3  0  0  0  0  0  0
  186.8620  178.0990  146.5270 C   0  0  0  0  0  3  0  0  0  0  0  0
  189.1790  177.3630  146.5640 C   0  0  0  0  0  0  0  0  0  0  0  0
  188.0180  177.7780  147.2450 C   0  0  0  0  0  0  0  0  0  0  0  0
  189.1600  177.2720  145.1560 C   0  0  0  0  0  0  0  0  0  0  0  0
  184.0400  178.5780  142.7510 N   0  0  0  0  0  0  0  0  0  0  0  0
  184.6110  178.9650  144.9080 N   0  0  0  0  0  0  0  0  0  0  0  0
  183.6500  179.0940  143.8690 C   0  0  0  0  0  2  0  0  0  0  0  0
  185.6160  178.3460  144.3840 C   0  0  0  0  0  0  0  0  0  0  0  0
  185.3710  178.0260  142.9480 C   0  0  0  0  0  3  0  0  0  0  0  0
  1 13  1  6  0  0  0
  1 38  1  0  0  0  0
  2  1  1  1  0  0  0
  2  4  1  0  0  0  0
  4  3  2  0  0  0  0
  5  8  1  6  0  0  0
  5  3  1  0  0  0  0
  6  5  1  0  0  0  0
  7  6  1  0  0  0  0
  7  2  1  0  0  0  0
  9 11  1  0  0  0  0
  9 10  1  0  0  0  0
 10  8  1  6  0  0  0
 11 10  1  0  0  0  0
 13 12  2  0  0  0  0
 14 17  2  0  0  0  0
 15 22  1  0  0  0  0
 15 14  1  0  0  0  0
 16 15  1  0  0  0  0
 16 12  1  1  0  0  0
 17 24  1  0  0  0  0
 18 17  1  0  0  0  0
 19 22  2  0  0  0  0
 20 23  1  0  0  0  0
 21 16  1  0  0  0  0
 21 20  1  0  0  0  0
 22 18  1  0  0  0  0
 23 14  1  0  0  0  0
 24 25  1  0  0  0  0
 25 28  1  0  0  0  0
 27 32  1  0  0  0  0
 28 30  1  6  0  0  0
 28 27  1  0  0  0  0
 28 29  1  0  0  0  0
 29 33  1  6  0  0  0
 29 31  1  0  0  0  0
 32 26  1  0  0  0  0
 32 31  1  0  0  0  0
 34 33  2  0  0  0  0
 35 37  1  0  0  0  0
 35 33  1  0  0  0  0
 36 35  2  0  0  0  0
 38 39  1  0  0  0  0
 39 40  1  0  0  0  0
 40 42  1  0  0  0  0
 41 43  1  0  0  0  0
 42 41  2  0  0  0  0
 43 51  1  0  0  0  0
 46 48  1  0  0  0  0
 47 46  2  0  0  0  0
 47 51  1  0  0  0  0
 48 50  2  0  0  0  0
 49 50  1  0  0  0  0
 49 44  1  0  0  0  0
 50 45  1  0  0  0  0
 51 49  2  0  0  0  0
 52 56  2  0  0  0  0
 52 54  1  0  0  0  0
 54 53  1  0  0  0  0
 55 53  2  0  0  0  0
 55 46  1  0  0  0  0
 56 55  1  0  0  0  0
M  END
>  <MODEL>
3

>  <REMARK>
 VINA RESULT:      -7.5      3.760      7.249
  Name = 
  17 active torsions:
  status: ('A' for Active; 'I' for Inactive)
    1  A    between atoms: C_3  and  C_8
    2  A    between atoms: C_10  and  C_33
    3  A    between atoms: C_11  and  C_14
    4  A    between atoms: C_12  and  C_16
    5  A    between atoms: C_13  and  C_55
    6  A    between atoms: C_14  and  C_33
    7  A    between atoms: C_16  and  C_17
    8  A    between atoms: C_20  and  C_42
    9  A    between atoms: C_24  and  C_26
   10  A    between atoms: C_24  and  C_55
   11  A    between atoms: C_26  and  C_27
   12  A    between atoms: C_27  and  C_52
   13  A    between atoms: N_36  and  C_40
   14  A    between atoms: N_36  and  C_44
   15  A    between atoms: C_37  and  C_48
   16  A    between atoms: C_45  and  C_55
   17  A    between atoms: C_48  and  C_53
                            x       y       z     vdW  Elec       q    Type
                         _______ _______ _______ _____ _____    ______ ____

>  <TORSDO>
F 17

$$$$
=
 OpenBabel10222420553D

 56 62  0  0  1  0  0  0  0  0999 V2000
  188.6060  176.6680  136.7540 C   0  0  2  0  0  3  0  0  0  0  0  0
  189.9060  176.2520  136.0420 C   0  0  1  0  0  3  0  0  0  0  0  0
  192.0400  175.8550  137.2400 C   0  0  0  0  0  3  0  0  0  0  0  0
  191.1790  176.7330  136.7110 C   0  0  0  0  0  3  0  0  0  0  0  0
  191.8010  174.3760  137.1300 C   0  0  1  0  0  3  0  0  0  0  0  0
  190.3240  174.1140  136.8100 C   0  0  0  0  0  2  0  0  0  0  0  0
  189.9210  174.8770  135.6930 O   0  0  0  0  0  0  0  0  0  0  0  0
  192.6400  173.8310  136.0740 N   0  0  0  0  0  2  0  0  0  0  0  0
  194.5510  173.0200  137.2340 C   0  0  0  0  0  2  0  0  0  0  0  0
  194.0220  174.1140  136.4270 C   0  0  1  0  0  3  0  0  0  0  0  0
  194.8940  173.1030  135.8070 N   0  0  0  0  0  2  0  0  0  0  0  0
  186.2260  176.0310  136.6000 C   0  0  0  0  0  3  0  0  0  0  0  0
  187.4010  176.2010  135.9940 C   0  0  0  0  0  3  0  0  0  0  0  0
  182.8770  176.4920  136.8300 C   0  0  0  0  0  0  0  0  0  0  0  0
  183.8640  175.4870  136.6930 N   0  0  0  0  0  0  0  0  0  0  0  0
  185.0320  175.5800  135.8190 C   0  0  1  0  0  3  0  0  0  0  0  0
  182.0380  176.2290  137.8330 C   0  0  0  0  0  0  0  0  0  0  0  0
  182.4370  174.9730  138.5590 C   0  0  0  0  0  2  0  0  0  0  0  0
  184.3580  173.5770  137.9890 O   0  0  0  0  0  0  0  0  0  0  0  0
  184.1290  177.8650  135.1840 C   0  0  0  0  0  2  0  0  0  0  0  0
  184.7430  176.5560  134.6670 C   0  0  0  0  0  2  0  0  0  0  0  0
  183.6310  174.5780  137.7550 C   0  0  0  0  0  0  0  0  0  0  0  0
  182.7730  177.6230  135.8530 C   0  0  0  0  0  2  0  0  0  0  0  0
  180.8730  177.0730  138.2290 C   0  0  0  0  0  2  0  0  0  0  0  0
  181.2950  178.1120  139.2640 C   0  0  0  0  0  2  0  0  0  0  0  0
  179.5450  178.1510  143.6630 C   0  0  0  0  0  1  0  0  0  0  0  0
  180.0040  177.8220  141.3980 C   0  0  0  0  0  2  0  0  0  0  0  0
  180.1290  178.6150  140.1140 C   0  0  1  0  0  0  0  0  0  0  0  0
  180.3350  180.0550  140.5580 C   0  0  2  0  0  3  0  0  0  0  0  0
  178.9450  178.4750  139.3850 O   0  0  0  0  0  1  0  0  0  0  0  0
  179.5480  180.2850  142.1790 S   0  0  0  0  0  0  0  0  0  0  0  0
  179.1570  178.5580  142.3250 N   0  0  0  0  0  0  0  0  0  0  0  0
  179.9830  181.1110  139.5460 C   0  0  0  0  0  0  0  0  0  0  0  0
  178.9340  181.7830  139.7290 O   0  0  0  0  0  0  0  0  0  0  0  0
  180.8160  181.4000  138.3620 C   0  0  0  0  0  0  0  0  0  0  0  0
  180.2320  181.4380  137.1020 O   0  0  0  0  0  0  0  0  0  0  0  0
  182.0540  181.6120  138.4750 O   0  0  0  0  0  1  0  0  0  0  0  0
  188.5300  178.1750  136.9770 C   0  0  0  0  0  2  0  0  0  0  0  0
  189.1040  178.5470  138.3340 C   0  0  0  0  0  2  0  0  0  0  0  0
  188.1890  178.0530  139.4430 C   0  0  0  0  0  2  0  0  0  0  0  0
  189.0690  177.1630  141.5570 C   0  0  0  0  0  3  0  0  0  0  0  0
  188.8240  178.2190  140.7860 C   0  0  0  0  0  3  0  0  0  0  0  0
  189.7000  177.3480  142.8950 C   0  0  0  0  0  2  0  0  0  0  0  0
  190.3100  176.9460  145.7550 C   0  0  0  0  0  1  0  0  0  0  0  0
  188.1560  177.3440  147.7250 C   0  0  0  0  0  1  0  0  0  0  0  0
  186.3340  178.0520  144.4860 C   0  0  0  0  0  0  0  0  0  0  0  0
  187.3540  177.8700  143.5420 C   0  0  0  0  0  3  0  0  0  0  0  0
  186.6210  177.8750  145.8450 C   0  0  0  0  0  3  0  0  0  0  0  0
  188.9320  177.3350  145.3140 C   0  0  0  0  0  0  0  0  0  0  0  0
  187.9070  177.5180  146.2630 C   0  0  0  0  0  0  0  0  0  0  0  0
  188.6450  177.5110  143.9430 C   0  0  0  0  0  0  0  0  0  0  0  0
  182.8250  179.1830  144.0040 N   0  0  0  0  0  0  0  0  0  0  0  0
  184.5330  178.2330  142.8580 N   0  0  0  0  0  0  0  0  0  0  0  0
  183.1960  178.7160  142.8570 C   0  0  0  0  0  3  0  0  0  0  0  0
  184.9750  178.4210  144.0570 C   0  0  0  0  0  0  0  0  0  0  0  0
  183.9400  179.0480  144.9280 C   0  0  0  0  0  2  0  0  0  0  0  0
  1 13  1  6  0  0  0
  1 38  1  0  0  0  0
  2  4  1  0  0  0  0
  2  1  1  1  0  0  0
  4  3  2  0  0  0  0
  5  8  1  6  0  0  0
  5  3  1  0  0  0  0
  6  5  1  0  0  0  0
  7  2  1  0  0  0  0
  7  6  1  0  0  0  0
 10  8  1  6  0  0  0
 10  9  1  0  0  0  0
 11 10  1  0  0  0  0
 11  9  1  0  0  0  0
 13 12  2  0  0  0  0
 14 17  2  0  0  0  0
 15 14  1  0  0  0  0
 15 22  1  0  0  0  0
 16 12  1  1  0  0  0
 16 15  1  0  0  0  0
 17 24  1  0  0  0  0
 17 18  1  0  0  0  0
 20 23  1  0  0  0  0
 21 20  1  0  0  0  0
 21 16  1  0  0  0  0
 22 19  2  0  0  0  0
 22 18  1  0  0  0  0
 23 14  1  0  0  0  0
 24 25  1  0  0  0  0
 25 28  1  0  0  0  0
 27 32  1  0  0  0  0
 28 30  1  6  0  0  0
 28 29  1  0  0  0  0
 28 27  1  0  0  0  0
 29 33  1  6  0  0  0
 29 31  1  0  0  0  0
 31 32  1  0  0  0  0
 32 26  1  0  0  0  0
 33 34  2  0  0  0  0
 35 37  1  0  0  0  0
 35 33  1  0  0  0  0
 36 35  2  0  0  0  0
 38 39  1  0  0  0  0
 39 40  1  0  0  0  0
 40 42  1  0  0  0  0
 41 43  1  0  0  0  0
 42 41  2  0  0  0  0
 43 51  1  0  0  0  0
 46 48  1  0  0  0  0
 47 51  1  0  0  0  0
 47 46  2  0  0  0  0
 48 50  2  0  0  0  0
 49 44  1  0  0  0  0
 49 50  1  0  0  0  0
 50 45  1  0  0  0  0
 51 49  2  0  0  0  0
 52 56  1  0  0  0  0
 53 55  2  0  0  0  0
 54 53  1  0  0  0  0
 54 52  2  0  0  0  0
 55 46  1  0  0  0  0
 55 56  1  0  0  0  0
M  END
>  <MODEL>
4

>  <REMARK>
 VINA RESULT:      -7.3      3.540      7.134
  Name = 
  17 active torsions:
  status: ('A' for Active; 'I' for Inactive)
    1  A    between atoms: C_3  and  C_8
    2  A    between atoms: C_10  and  C_33
    3  A    between atoms: C_11  and  C_14
    4  A    between atoms: C_12  and  C_16
    5  A    between atoms: C_13  and  C_55
    6  A    between atoms: C_14  and  C_33
    7  A    between atoms: C_16  and  C_17
    8  A    between atoms: C_20  and  C_42
    9  A    between atoms: C_24  and  C_26
   10  A    between atoms: C_24  and  C_55
   11  A    between atoms: C_26  and  C_27
   12  A    between atoms: C_27  and  C_52
   13  A    between atoms: N_36  and  C_40
   14  A    between atoms: N_36  and  C_44
   15  A    between atoms: C_37  and  C_48
   16  A    between atoms: C_45  and  C_55
   17  A    between atoms: C_48  and  C_53
                            x       y       z     vdW  Elec       q    Type
                         _______ _______ _______ _____ _____    ______ ____

>  <TORSDO>
F 17

$$$$
=
 OpenBabel10222420553D

 56 62  0  0  1  0  0  0  0  0999 V2000
  185.8890  176.5860  136.0470 C   0  0  2  0  0  3  0  0  0  0  0  0
  185.3110  175.4130  135.2350 C   0  0  1  0  0  3  0  0  0  0  0  0
  185.7890  173.0370  135.7590 C   0  0  0  0  0  3  0  0  0  0  0  0
  186.1910  174.1790  135.1870 C   0  0  0  0  0  3  0  0  0  0  0  0
  184.4370  172.9300  136.4030 C   0  0  1  0  0  3  0  0  0  0  0  0
  183.8980  174.3330  136.7080 C   0  0  0  0  0  2  0  0  0  0  0  0
  183.9550  175.1430  135.5540 O   0  0  0  0  0  0  0  0  0  0  0  0
  183.5290  172.2370  135.5020 N   0  0  0  0  0  2  0  0  0  0  0  0
  181.4510  171.4320  136.3330 C   0  0  0  0  0  2  0  0  0  0  0  0
  182.8860  171.1780  136.2630 C   0  0  1  0  0  3  0  0  0  0  0  0
  181.9680  170.4400  135.3810 N   0  0  0  0  0  2  0  0  0  0  0  0
  188.1050  176.2360  137.0770 C   0  0  0  0  0  3  0  0  0  0  0  0
  186.7820  176.0930  137.1470 C   0  0  0  0  0  3  0  0  0  0  0  0
  191.3900  175.4750  137.4200 C   0  0  0  0  0  0  0  0  0  0  0  0
  190.0890  174.9700  137.6610 N   0  0  0  0  0  0  0  0  0  0  0  0
  188.9760  175.7520  138.1930 C   0  0  1  0  0  3  0  0  0  0  0  0
  192.1450  174.6020  136.7540 C   0  0  0  0  0  0  0  0  0  0  0  0
  191.3630  173.3670  136.3990 C   0  0  0  0  0  2  0  0  0  0  0  0
  189.0200  172.9820  136.9690 O   0  0  0  0  0  0  0  0  0  0  0  0
  190.6170  177.6880  138.2400 C   0  0  0  0  0  2  0  0  0  0  0  0
  189.5170  176.9390  139.0060 C   0  0  0  0  0  2  0  0  0  0  0  0
  190.0490  173.7070  137.0180 C   0  0  0  0  0  0  0  0  0  0  0  0
  191.8310  176.7910  137.9830 C   0  0  0  0  0  2  0  0  0  0  0  0
  193.5700  174.8150  136.3620 C   0  0  0  0  0  2  0  0  0  0  0  0
  194.4850  173.8880  137.1580 C   0  0  0  0  0  2  0  0  0  0  0  0
  197.4940  175.1760  140.5790 C   0  0  0  0  0  1  0  0  0  0  0  0
  195.9720  175.0520  138.8130 C   0  0  0  0  0  2  0  0  0  0  0  0
  195.8670  174.4890  137.4120 C   0  0  1  0  0  0  0  0  0  0  0  0
  196.9630  173.4380  137.3250 C   0  0  2  0  0  3  0  0  0  0  0  0
  196.0850  175.5230  136.4970 O   0  0  0  0  0  1  0  0  0  0  0  0
  198.3010  173.8920  138.4670 S   0  0  0  0  0  0  0  0  0  0  0  0
  197.3780  175.2560  139.1340 N   0  0  0  0  0  0  0  0  0  0  0  0
  197.4290  173.0860  135.9380 C   0  0  0  0  0  0  0  0  0  0  0  0
  198.3730  173.7550  135.4410 O   0  0  0  0  0  0  0  0  0  0  0  0
  196.8380  171.9910  135.1450 C   0  0  0  0  0  0  0  0  0  0  0  0
  197.6610  171.0140  134.5980 O   0  0  0  0  0  0  0  0  0  0  0  0
  195.5940  171.9280  134.9510 O   0  0  0  0  0  1  0  0  0  0  0  0
  184.7950  177.4790  136.6250 C   0  0  0  0  0  2  0  0  0  0  0  0
  185.0500  177.7550  138.0980 C   0  0  0  0  0  2  0  0  0  0  0  0
  184.5060  179.1230  138.4760 C   0  0  0  0  0  2  0  0  0  0  0  0
  184.5660  178.5170  140.8560 C   0  0  0  0  0  3  0  0  0  0  0  0
  183.9280  179.1160  139.8540 C   0  0  0  0  0  3  0  0  0  0  0  0
  183.9750  178.5170  142.2240 C   0  0  0  0  0  2  0  0  0  0  0  0
  183.4600  179.0050  145.0890 C   0  0  0  0  0  1  0  0  0  0  0  0
  185.6430  178.5450  147.0120 C   0  0  0  0  0  1  0  0  0  0  0  0
  187.3440  177.6840  143.7440 C   0  0  0  0  0  0  0  0  0  0  0  0
  186.3100  177.8960  142.8230 C   0  0  0  0  0  3  0  0  0  0  0  0
  187.1010  177.9030  145.1060 C   0  0  0  0  0  3  0  0  0  0  0  0
  184.8060  178.5410  144.6210 C   0  0  0  0  0  0  0  0  0  0  0  0
  185.8450  178.3290  145.5490 C   0  0  0  0  0  0  0  0  0  0  0  0
  185.0480  178.3240  143.2480 C   0  0  0  0  0  0  0  0  0  0  0  0
  190.8360  177.1890  142.5660 N   0  0  0  0  0  0  0  0  0  0  0  0
  188.9940  176.0000  143.1390 N   0  0  0  0  0  0  0  0  0  0  0  0
  190.3430  176.0000  142.6890 C   0  0  0  0  0  3  0  0  0  0  0  0
  188.6720  177.2410  143.2890 C   0  0  0  0  0  0  0  0  0  0  0  0
  189.8070  178.1450  142.9420 C   0  0  0  0  0  2  0  0  0  0  0  0
  1 38  1  1  0  0  0
  1 13  1  0  0  0  0
  2  7  1  0  0  0  0
  2  1  1  1  0  0  0
  3  5  1  0  0  0  0
  4  2  1  0  0  0  0
  4  3  2  0  0  0  0
  5  8  1  6  0  0  0
  5  6  1  0  0  0  0
  7  6  1  0  0  0  0
 10  8  1  6  0  0  0
 10  9  1  0  0  0  0
 11 10  1  0  0  0  0
 11  9  1  0  0  0  0
 12 13  2  0  0  0  0
 14 15  1  0  0  0  0
 14 23  1  0  0  0  0
 15 16  1  0  0  0  0
 16 12  1  6  0  0  0
 16 21  1  0  0  0  0
 17 14  2  0  0  0  0
 18 17  1  0  0  0  0
 18 22  1  0  0  0  0
 19 22  2  0  0  0  0
 20 21  1  0  0  0  0
 22 15  1  0  0  0  0
 23 20  1  0  0  0  0
 24 17  1  0  0  0  0
 24 25  1  0  0  0  0
 25 28  1  0  0  0  0
 27 32  1  0  0  0  0
 28 30  1  6  0  0  0
 28 27  1  0  0  0  0
 29 33  1  6  0  0  0
 29 28  1  0  0  0  0
 29 31  1  0  0  0  0
 31 32  1  0  0  0  0
 32 26  1  0  0  0  0
 34 33  2  0  0  0  0
 35 33  1  0  0  0  0
 36 35  2  0  0  0  0
 37 35  1  0  0  0  0
 38 39  1  0  0  0  0
 39 40  1  0  0  0  0
 40 42  1  0  0  0  0
 41 43  1  0  0  0  0
 42 41  2  0  0  0  0
 43 51  1  0  0  0  0
 46 48  1  0  0  0  0
 47 51  1  0  0  0  0
 47 46  2  0  0  0  0
 48 50  2  0  0  0  0
 49 44  1  0  0  0  0
 49 50  1  0  0  0  0
 50 45  1  0  0  0  0
 51 49  2  0  0  0  0
 52 54  2  0  0  0  0
 52 56  1  0  0  0  0
 53 55  2  0  0  0  0
 54 53  1  0  0  0  0
 55 46  1  0  0  0  0
 56 55  1  0  0  0  0
M  END
>  <MODEL>
5

>  <REMARK>
 VINA RESULT:      -6.7      4.967      8.936
  Name = 
  17 active torsions:
  status: ('A' for Active; 'I' for Inactive)
    1  A    between atoms: C_3  and  C_8
    2  A    between atoms: C_10  and  C_33
    3  A    between atoms: C_11  and  C_14
    4  A    between atoms: C_12  and  C_16
    5  A    between atoms: C_13  and  C_55
    6  A    between atoms: C_14  and  C_33
    7  A    between atoms: C_16  and  C_17
    8  A    between atoms: C_20  and  C_42
    9  A    between atoms: C_24  and  C_26
   10  A    between atoms: C_24  and  C_55
   11  A    between atoms: C_26  and  C_27
   12  A    between atoms: C_27  and  C_52
   13  A    between atoms: N_36  and  C_40
   14  A    between atoms: N_36  and  C_44
   15  A    between atoms: C_37  and  C_48
   16  A    between atoms: C_45  and  C_55
   17  A    between atoms: C_48  and  C_53
                            x       y       z     vdW  Elec       q    Type
                         _______ _______ _______ _____ _____    ______ ____

>  <TORSDO>
F 17

$$$$
=
 OpenBabel10222420553D

 56 62  0  0  1  0  0  0  0  0999 V2000
  185.2490  178.7160  138.8800 C   0  0  2  0  0  3  0  0  0  0  0  0
  183.8250  178.7640  139.4620 C   0  0  1  0  0  3  0  0  0  0  0  0
  181.7860  178.5070  138.0740 C   0  0  0  0  0  3  0  0  0  0  0  0
  182.7690  179.3010  138.5140 C   0  0  0  0  0  3  0  0  0  0  0  0
  181.6640  177.0890  138.5550 C   0  0  1  0  0  3  0  0  0  0  0  0
  183.0020  176.6290  139.1480 C   0  0  0  0  0  2  0  0  0  0  0  0
  183.4570  177.5570  140.1090 O   0  0  0  0  0  0  0  0  0  0  0  0
  180.6220  177.0120  139.5670 N   0  0  0  0  0  2  0  0  0  0  0  0
  179.2870  175.4500  140.7630 C   0  0  0  0  0  2  0  0  0  0  0  0
  180.4770  175.6130  139.9360 C   0  0  1  0  0  3  0  0  0  0  0  0
  179.2400  175.0840  139.3410 N   0  0  0  0  0  2  0  0  0  0  0  0
  185.8010  176.7080  137.5550 C   0  0  0  0  0  3  0  0  0  0  0  0
  185.2830  177.9350  137.6010 C   0  0  0  0  0  3  0  0  0  0  0  0
  188.0420  174.7630  135.9180 C   0  0  0  0  0  0  0  0  0  0  0  0
  187.1670  175.8610  135.7380 N   0  0  0  0  0  0  0  0  0  0  0  0
  185.8080  175.9400  136.2700 C   0  0  1  0  0  3  0  0  0  0  0  0
  189.2770  175.0390  135.4980 C   0  0  0  0  0  0  0  0  0  0  0  0
  189.3830  176.4620  135.0210 C   0  0  0  0  0  2  0  0  0  0  0  0
  187.5450  178.0700  134.9970 O   0  0  0  0  0  0  0  0  0  0  0  0
  186.2610  173.6340  137.2280 C   0  0  0  0  0  2  0  0  0  0  0  0
  185.2520  174.5240  136.4870 C   0  0  0  0  0  2  0  0  0  0  0  0
  187.9740  176.9090  135.2270 C   0  0  0  0  0  0  0  0  0  0  0  0
  187.5420  173.4400  136.4130 C   0  0  0  0  0  2  0  0  0  0  0  0
  190.4310  174.0930  135.5250 C   0  0  0  0  0  2  0  0  0  0  0  0
  191.0680  174.0690  136.9120 C   0  0  0  0  0  2  0  0  0  0  0  0
  193.3790  177.1330  139.6840 C   0  0  0  0  0  1  0  0  0  0  0  0
  192.1620  176.0390  138.0190 C   0  0  0  0  0  2  0  0  0  0  0  0
  192.3280  174.9290  137.0030 C   0  0  1  0  0  0  0  0  0  0  0  0
  193.5260  174.1260  137.4880 C   0  0  2  0  0  3  0  0  0  0  0  0
  192.5770  175.5020  135.7520 O   0  0  0  0  0  1  0  0  0  0  0  0
  194.6210  175.2220  138.4340 S   0  0  0  0  0  0  0  0  0  0  0  0
  193.4750  176.5770  138.3460 N   0  0  0  0  0  0  0  0  0  0  0  0
  194.2290  173.3000  136.4450 C   0  0  0  0  0  0  0  0  0  0  0  0
  195.0880  173.8670  135.7190 O   0  0  0  0  0  0  0  0  0  0  0  0
  193.9660  171.8620  136.2450 C   0  0  0  0  0  0  0  0  0  0  0  0
  192.7480  171.4500  135.7170 O   0  0  0  0  0  0  0  0  0  0  0  0
  194.8300  170.9950  136.5490 O   0  0  0  0  0  1  0  0  0  0  0  0
  186.2550  178.1380  139.8700 C   0  0  0  0  0  2  0  0  0  0  0  0
  187.5390  177.7420  139.1610 C   0  0  0  0  0  2  0  0  0  0  0  0
  188.6860  178.6290  139.6210 C   0  0  0  0  0  2  0  0  0  0  0  0
  188.7620  177.0820  141.5280 C   0  0  0  0  0  3  0  0  0  0  0  0
  189.3030  178.1100  140.8800 C   0  0  0  0  0  3  0  0  0  0  0  0
  189.3880  176.5790  142.7840 C   0  0  0  0  0  2  0  0  0  0  0  0
  190.6460  176.7420  145.4490 C   0  0  0  0  0  1  0  0  0  0  0  0
  189.0510  177.7750  147.7000 C   0  0  0  0  0  1  0  0  0  0  0  0
  186.5430  177.9530  144.8750 C   0  0  0  0  0  0  0  0  0  0  0  0
  187.2950  177.4680  143.7970 C   0  0  0  0  0  3  0  0  0  0  0  0
  187.1380  178.0440  146.1380 C   0  0  0  0  0  3  0  0  0  0  0  0
  189.2240  177.1670  145.2470 C   0  0  0  0  0  0  0  0  0  0  0  0
  188.4680  177.6550  146.3310 C   0  0  0  0  0  0  0  0  0  0  0  0
  188.6260  177.0730  143.9720 C   0  0  0  0  0  0  0  0  0  0  0  0
  183.1210  178.9030  143.7710 N   0  0  0  0  0  0  0  0  0  0  0  0
  184.3520  178.6700  145.6590 N   0  0  0  0  0  0  0  0  0  0  0  0
  183.1060  179.0030  145.0600 C   0  0  0  0  0  2  0  0  0  0  0  0
  185.1400  178.3600  144.6840 C   0  0  0  0  0  0  0  0  0  0  0  0
  184.4500  178.4710  143.3670 C   0  0  0  0  0  3  0  0  0  0  0  0
  1 13  1  6  0  0  0
  1 38  1  0  0  0  0
  2  1  1  6  0  0  0
  2  7  1  0  0  0  0
  3  4  2  0  0  0  0
  3  5  1  0  0  0  0
  4  2  1  0  0  0  0
  5  6  1  0  0  0  0
  5  8  1  1  0  0  0
  6  7  1  0  0  0  0
 10  8  1  6  0  0  0
 10  9  1  0  0  0  0
 11 10  1  0  0  0  0
 11  9  1  0  0  0  0
 12 13  2  0  0  0  0
 14 23  1  0  0  0  0
 15 14  1  0  0  0  0
 15 16  1  0  0  0  0
 16 21  1  0  0  0  0
 16 12  1  1  0  0  0
 17 24  1  0  0  0  0
 17 14  2  0  0  0  0
 18 22  1  0  0  0  0
 18 17  1  0  0  0  0
 19 22  2  0  0  0  0
 21 20  1  0  0  0  0
 22 15  1  0  0  0  0
 23 20  1  0  0  0  0
 24 25  1  0  0  0  0
 25 28  1  0  0  0  0
 27 32  1  0  0  0  0
 28 30  1  6  0  0  0
 28 29  1  0  0  0  0
 28 27  1  0  0  0  0
 29 33  1  6  0  0  0
 29 31  1  0  0  0  0
 32 31  1  0  0  0  0
 32 26  1  0  0  0  0
 34 33  2  0  0  0  0
 35 33  1  0  0  0  0
 35 37  1  0  0  0  0
 36 35  2  0  0  0  0
 39 40  1  0  0  0  0
 39 38  1  0  0  0  0
 40 42  1  0  0  0  0
 41 43  1  0  0  0  0
 42 41  2  0  0  0  0
 43 51  1  0  0  0  0
 46 48  1  0  0  0  0
 47 51  1  0  0  0  0
 47 46  2  0  0  0  0
 48 50  2  0  0  0  0
 49 44  1  0  0  0  0
 49 50  1  0  0  0  0
 50 45  1  0  0  0  0
 51 49  2  0  0  0  0
 52 54  1  0  0  0  0
 54 53  1  0  0  0  0
 55 46  1  0  0  0  0
 55 53  2  0  0  0  0
 56 52  2  0  0  0  0
 56 55  1  0  0  0  0
M  END
>  <MODEL>
6

>  <REMARK>
 VINA RESULT:      -6.5      3.689      7.020
  Name = 
  17 active torsions:
  status: ('A' for Active; 'I' for Inactive)
    1  A    between atoms: C_3  and  C_8
    2  A    between atoms: C_10  and  C_33
    3  A    between atoms: C_11  and  C_14
    4  A    between atoms: C_12  and  C_16
    5  A    between atoms: C_13  and  C_55
    6  A    between atoms: C_14  and  C_33
    7  A    between atoms: C_16  and  C_17
    8  A    between atoms: C_20  and  C_42
    9  A    between atoms: C_24  and  C_26
   10  A    between atoms: C_24  and  C_55
   11  A    between atoms: C_26  and  C_27
   12  A    between atoms: C_27  and  C_52
   13  A    between atoms: N_36  and  C_40
   14  A    between atoms: N_36  and  C_44
   15  A    between atoms: C_37  and  C_48
   16  A    between atoms: C_45  and  C_55
   17  A    between atoms: C_48  and  C_53
                            x       y       z     vdW  Elec       q    Type
                         _______ _______ _______ _____ _____    ______ ____

>  <TORSDO>
F 17

$$$$
=
 OpenBabel10222420553D

 56 62  0  0  1  0  0  0  0  0999 V2000
  183.0960  178.2610  142.1670 C   0  0  2  0  0  3  0  0  0  0  0  0
  184.2120  177.8270  141.2000 C   0  0  1  0  0  3  0  0  0  0  0  0
  183.8740  177.6080  138.7530 C   0  0  0  0  0  3  0  0  0  0  0  0
  183.7320  177.0750  139.9730 C   0  0  0  0  0  3  0  0  0  0  0  0
  184.5650  178.9280  138.5620 C   0  0  1  0  0  3  0  0  0  0  0  0
  184.5970  179.6910  139.8920 C   0  0  0  0  0  2  0  0  0  0  0  0
  185.1250  178.8740  140.9140 O   0  0  0  0  0  0  0  0  0  0  0  0
  185.9220  178.6950  138.0930 N   0  0  0  0  0  2  0  0  0  0  0  0
  186.6470  177.6900  136.0630 C   0  0  0  0  0  2  0  0  0  0  0  0
  185.9060  177.4760  137.3010 C   0  0  1  0  0  3  0  0  0  0  0  0
  187.2810  176.9660  137.1740 N   0  0  0  0  0  2  0  0  0  0  0  0
  181.3480  179.6590  141.1260 C   0  0  0  0  0  3  0  0  0  0  0  0
  181.7950  178.4450  141.4430 C   0  0  0  0  0  3  0  0  0  0  0  0
  179.8090  178.0430  138.5760 C   0  0  0  0  0  0  0  0  0  0  0  0
  180.1960  179.3320  139.0180 N   0  0  0  0  0  0  0  0  0  0  0  0
  180.0560  179.8190  140.3880 C   0  0  1  0  0  3  0  0  0  0  0  0
  180.2280  177.7990  137.3340 C   0  0  0  0  0  0  0  0  0  0  0  0
  181.0450  178.9450  136.8010 C   0  0  0  0  0  2  0  0  0  0  0  0
  181.5420  180.9980  138.0270 O   0  0  0  0  0  0  0  0  0  0  0  0
  179.0650  177.5370  140.8900 C   0  0  0  0  0  2  0  0  0  0  0  0
  178.9310  179.0520  141.1010 C   0  0  0  0  0  2  0  0  0  0  0  0
  180.9740  179.8760  137.9650 C   0  0  0  0  0  0  0  0  0  0  0  0
  178.9310  177.1630  139.4110 C   0  0  0  0  0  2  0  0  0  0  0  0
  179.9700  176.5460  136.5650 C   0  0  0  0  0  2  0  0  0  0  0  0
  181.2800  175.9570  136.0490 C   0  0  0  0  0  2  0  0  0  0  0  0
  179.6850  171.5760  136.8730 C   0  0  0  0  0  1  0  0  0  0  0  0
  180.4010  173.7960  136.9770 C   0  0  0  0  0  2  0  0  0  0  0  0
  181.6380  174.6280  136.7130 C   0  0  1  0  0  0  0  0  0  0  0  0
  182.5090  173.7650  135.8120 C   0  0  2  0  0  3  0  0  0  0  0  0
  182.2720  174.8870  137.9320 O   0  0  0  0  0  1  0  0  0  0  0  0
  182.1410  172.0170  136.1430 S   0  0  0  0  0  0  0  0  0  0  0  0
  180.8060  172.4230  137.2420 N   0  0  0  0  0  0  0  0  0  0  0  0
  183.9770  174.0960  135.8050 C   0  0  0  0  0  0  0  0  0  0  0  0
  184.3810  174.9860  135.0100 O   0  0  0  0  0  0  0  0  0  0  0  0
  184.9550  173.4360  136.6910 C   0  0  0  0  0  0  0  0  0  0  0  0
  184.5840  173.0750  137.9810 O   0  0  0  0  0  1  0  0  0  0  0  0
  186.1290  173.1950  136.2970 O   0  0  0  0  0  0  0  0  0  0  0  0
  183.4550  179.5350  142.9250 C   0  0  0  0  0  2  0  0  0  0  0  0
  183.4910  179.2760  144.4220 C   0  0  0  0  0  2  0  0  0  0  0  0
  184.9190  179.3730  144.9360 C   0  0  0  0  0  2  0  0  0  0  0  0
  186.5680  177.8930  143.8750 C   0  0  0  0  0  3  0  0  0  0  0  0
  185.6330  178.0670  144.8060 C   0  0  0  0  0  3  0  0  0  0  0  0
  187.2690  176.5820  143.7570 C   0  0  0  0  0  2  0  0  0  0  0  0
  188.7680  177.4660  141.3730 C   0  0  0  0  0  1  0  0  0  0  0  0
  191.6760  177.8740  141.6080 C   0  0  0  0  0  1  0  0  0  0  0  0
  190.8030  176.7480  145.1120 C   0  0  0  0  0  0  0  0  0  0  0  0
  189.4190  176.5560  145.0110 C   0  0  0  0  0  3  0  0  0  0  0  0
  191.5170  177.1790  143.9880 C   0  0  0  0  0  3  0  0  0  0  0  0
  189.4720  177.2210  142.6730 C   0  0  0  0  0  0  0  0  0  0  0  0
  190.8640  177.4150  142.7740 C   0  0  0  0  0  0  0  0  0  0  0  0
  188.7500  176.7860  143.8040 C   0  0  0  0  0  0  0  0  0  0  0  0
  192.2580  176.6320  148.5320 N   0  0  0  0  0  0  0  0  0  0  0  0
  192.3280  175.5200  146.5600 N   0  0  0  0  0  0  0  0  0  0  0  0
  192.7800  175.6310  147.9030 C   0  0  0  0  0  2  0  0  0  0  0  0
  191.5030  176.4970  146.3840 C   0  0  0  0  0  0  0  0  0  0  0  0
  191.3610  177.3210  147.6190 C   0  0  0  0  0  3  0  0  0  0  0  0
  1 13  1  6  0  0  0
  1 38  1  0  0  0  0
  2  1  1  6  0  0  0
  3  4  2  0  0  0  0
  4  2  1  0  0  0  0
  5  8  1  1  0  0  0
  5  3  1  0  0  0  0
  5  6  1  0  0  0  0
  6  7  1  0  0  0  0
  7  2  1  0  0  0  0
  9 11  1  0  0  0  0
  9 10  1  0  0  0  0
 10  8  1  1  0  0  0
 11 10  1  0  0  0  0
 12 13  2  0  0  0  0
 14 15  1  0  0  0  0
 14 23  1  0  0  0  0
 15 16  1  0  0  0  0
 16 21  1  0  0  0  0
 16 12  1  1  0  0  0
 17 14  2  0  0  0  0
 18 17  1  0  0  0  0
 18 22  1  0  0  0  0
 20 21  1  0  0  0  0
 22 19  2  0  0  0  0
 22 15  1  0  0  0  0
 23 20  1  0  0  0  0
 24 17  1  0  0  0  0
 25 24  1  0  0  0  0
 25 28  1  0  0  0  0
 26 32  1  0  0  0  0
 27 32  1  0  0  0  0
 28 27  1  0  0  0  0
 28 30  1  1  0  0  0
 29 33  1  1  0  0  0
 29 31  1  0  0  0  0
 29 28  1  0  0  0  0
 31 32  1  0  0  0  0
 33 35  1  0  0  0  0
 34 33  2  0  0  0  0
 35 36  1  0  0  0  0
 37 35  2  0  0  0  0
 38 39  1  0  0  0  0
 39 40  1  0  0  0  0
 41 42  2  0  0  0  0
 42 40  1  0  0  0  0
 43 51  1  0  0  0  0
 43 41  1  0  0  0  0
 44 49  1  0  0  0  0
 45 50  1  0  0  0  0
 46 55  1  0  0  0  0
 47 46  1  0  0  0  0
 48 46  2  0  0  0  0
 49 50  2  0  0  0  0
 49 51  1  0  0  0  0
 50 48  1  0  0  0  0
 51 47  2  0  0  0  0
 53 54  1  0  0  0  0
 54 52  1  0  0  0  0
 55 53  2  0  0  0  0
 55 56  1  0  0  0  0
 56 52  2  0  0  0  0
M  END
>  <MODEL>
7

>  <REMARK>
 VINA RESULT:      -6.5      1.937      3.198
  Name = 
  17 active torsions:
  status: ('A' for Active; 'I' for Inactive)
    1  A    between atoms: C_3  and  C_8
    2  A    between atoms: C_10  and  C_33
    3  A    between atoms: C_11  and  C_14
    4  A    between atoms: C_12  and  C_16
    5  A    between atoms: C_13  and  C_55
    6  A    between atoms: C_14  and  C_33
    7  A    between atoms: C_16  and  C_17
    8  A    between atoms: C_20  and  C_42
    9  A    between atoms: C_24  and  C_26
   10  A    between atoms: C_24  and  C_55
   11  A    between atoms: C_26  and  C_27
   12  A    between atoms: C_27  and  C_52
   13  A    between atoms: N_36  and  C_40
   14  A    between atoms: N_36  and  C_44
   15  A    between atoms: C_37  and  C_48
   16  A    between atoms: C_45  and  C_55
   17  A    between atoms: C_48  and  C_53
                            x       y       z     vdW  Elec       q    Type
                         _______ _______ _______ _____ _____    ______ ____

>  <TORSDO>
F 17

$$$$
=
 OpenBabel10222420553D

 56 62  0  0  1  0  0  0  0  0999 V2000
  185.8240  176.8540  136.2830 C   0  0  2  0  0  3  0  0  0  0  0  0
  184.8210  175.7970  135.7860 C   0  0  1  0  0  3  0  0  0  0  0  0
  184.8320  173.4450  136.5730 C   0  0  0  0  0  3  0  0  0  0  0  0
  185.3530  174.3770  135.7650 C   0  0  0  0  0  3  0  0  0  0  0  0
  183.6710  173.7630  137.4710 C   0  0  1  0  0  3  0  0  0  0  0  0
  183.5580  175.2820  137.6500 C   0  0  0  0  0  2  0  0  0  0  0  0
  183.5460  175.9260  136.3950 O   0  0  0  0  0  0  0  0  0  0  0  0
  182.4480  173.2440  136.8760 N   0  0  0  0  0  2  0  0  0  0  0  0
  181.9010  171.1130  135.9710 C   0  0  0  0  0  2  0  0  0  0  0  0
  182.8330  172.2340  135.9030 C   0  0  1  0  0  3  0  0  0  0  0  0
  181.7690  172.1060  134.8960 N   0  0  0  0  0  2  0  0  0  0  0  0
  188.0790  175.9980  136.8060 C   0  0  0  0  0  3  0  0  0  0  0  0
  186.8330  176.2470  137.2100 C   0  0  0  0  0  3  0  0  0  0  0  0
  191.4320  175.5080  136.7870 C   0  0  0  0  0  0  0  0  0  0  0  0
  190.2020  174.8440  137.0130 N   0  0  0  0  0  0  0  0  0  0  0  0
  189.0750  175.4070  137.7540 C   0  0  1  0  0  3  0  0  0  0  0  0
  192.2010  174.8460  135.9220 C   0  0  0  0  0  0  0  0  0  0  0  0
  191.4970  173.6250  135.3940 C   0  0  0  0  0  2  0  0  0  0  0  0
  189.2480  172.9200  136.0340 O   0  0  0  0  0  0  0  0  0  0  0  0
  190.5480  177.4520  138.0540 C   0  0  0  0  0  2  0  0  0  0  0  0
  189.5800  176.4750  138.7370 C   0  0  0  0  0  2  0  0  0  0  0  0
  190.2140  173.7190  136.1500 C   0  0  0  0  0  0  0  0  0  0  0  0
  191.8080  176.7380  137.5560 C   0  0  0  0  0  2  0  0  0  0  0  0
  193.5660  175.2620  135.4850 C   0  0  0  0  0  2  0  0  0  0  0  0
  194.5090  175.3340  136.6830 C   0  0  0  0  0  2  0  0  0  0  0  0
  197.3690  172.1900  134.5970 C   0  0  0  0  0  1  0  0  0  0  0  0
  195.6140  173.3530  135.6060 C   0  0  0  0  0  2  0  0  0  0  0  0
  195.2770  174.0330  136.9150 C   0  0  1  0  0  0  0  0  0  0  0  0
  196.6190  174.2830  137.5880 C   0  0  2  0  0  3  0  0  0  0  0  0
  194.4840  173.1690  137.6760 O   0  0  0  0  0  1  0  0  0  0  0  0
  197.8000  173.0260  137.0200 S   0  0  0  0  0  0  0  0  0  0  0  0
  196.6480  172.3560  135.8460 N   0  0  0  0  0  0  0  0  0  0  0  0
  196.5820  174.4660  139.0800 C   0  0  0  0  0  0  0  0  0  0  0  0
  195.6350  173.9370  139.7210 O   0  0  0  0  0  0  0  0  0  0  0  0
  197.6070  175.2250  139.8240 C   0  0  0  0  0  0  0  0  0  0  0  0
  198.6140  175.8850  139.1300 O   0  0  0  0  0  0  0  0  0  0  0  0
  197.5860  175.2820  141.0830 O   0  0  0  0  0  1  0  0  0  0  0  0
  185.1300  178.0290  136.9640 C   0  0  0  0  0  2  0  0  0  0  0  0
  185.2980  177.9500  138.4730 C   0  0  0  0  0  2  0  0  0  0  0  0
  184.8630  179.2560  139.1180 C   0  0  0  0  0  2  0  0  0  0  0  0
  185.1550  178.3970  141.4010 C   0  0  0  0  0  3  0  0  0  0  0  0
  184.3930  179.0390  140.5200 C   0  0  0  0  0  3  0  0  0  0  0  0
  184.6700  178.1870  142.7950 C   0  0  0  0  0  2  0  0  0  0  0  0
  184.3410  178.6210  145.6950 C   0  0  0  0  0  1  0  0  0  0  0  0
  186.6960  178.3260  147.4410 C   0  0  0  0  0  1  0  0  0  0  0  0
  188.2010  177.6160  144.0440 C   0  0  0  0  0  0  0  0  0  0  0  0
  187.0850  177.7490  143.2060 C   0  0  0  0  0  3  0  0  0  0  0  0
  188.0480  177.8090  145.4220 C   0  0  0  0  0  3  0  0  0  0  0  0
  185.6790  178.2670  145.1210 C   0  0  0  0  0  0  0  0  0  0  0  0
  186.8000  178.1330  145.9640 C   0  0  0  0  0  0  0  0  0  0  0  0
  185.8310  178.0740  143.7310 C   0  0  0  0  0  0  0  0  0  0  0  0
  191.3560  177.1330  142.1360 N   0  0  0  0  0  0  0  0  0  0  0  0
  190.3730  176.5160  144.0810 N   0  0  0  0  0  0  0  0  0  0  0  0
  191.5010  176.4440  143.2190 C   0  0  0  0  0  2  0  0  0  0  0  0
  189.5210  177.2800  143.4840 C   0  0  0  0  0  0  0  0  0  0  0  0
  190.0460  177.7640  142.1740 C   0  0  0  0  0  3  0  0  0  0  0  0
  1 38  1  1  0  0  0
  1 13  1  0  0  0  0
  2  1  1  1  0  0  0
  2  7  1  0  0  0  0
  3  5  1  0  0  0  0
  4  2  1  0  0  0  0
  4  3  2  0  0  0  0
  5  8  1  6  0  0  0
  5  6  1  0  0  0  0
  7  6  1  0  0  0  0
 10  9  1  0  0  0  0
 10  8  1  1  0  0  0
 11 10  1  0  0  0  0
 11  9  1  0  0  0  0
 12 13  2  0  0  0  0
 14 15  1  0  0  0  0
 14 23  1  0  0  0  0
 15 16  1  0  0  0  0
 16 12  1  6  0  0  0
 16 21  1  0  0  0  0
 17 14  2  0  0  0  0
 18 17  1  0  0  0  0
 18 22  1  0  0  0  0
 19 22  2  0  0  0  0
 20 21  1  0  0  0  0
 22 15  1  0  0  0  0
 23 20  1  0  0  0  0
 24 17  1  0  0  0  0
 24 25  1  0  0  0  0
 25 28  1  0  0  0  0
 26 32  1  0  0  0  0
 27 32  1  0  0  0  0
 27 28  1  0  0  0  0
 28 29  1  0  0  0  0
 28 30  1  1  0  0  0
 29 33  1  1  0  0  0
 31 29  1  0  0  0  0
 32 31  1  0  0  0  0
 33 34  2  0  0  0  0
 33 35  1  0  0  0  0
 35 37  1  0  0  0  0
 36 35  2  0  0  0  0
 38 39  1  0  0  0  0
 39 40  1  0  0  0  0
 40 42  1  0  0  0  0
 41 43  1  0  0  0  0
 42 41  2  0  0  0  0
 43 51  1  0  0  0  0
 46 48  1  0  0  0  0
 47 51  1  0  0  0  0
 47 46  2  0  0  0  0
 48 50  2  0  0  0  0
 49 44  1  0  0  0  0
 49 50  1  0  0  0  0
 50 45  1  0  0  0  0
 51 49  2  0  0  0  0
 52 56  2  0  0  0  0
 52 54  1  0  0  0  0
 54 53  1  0  0  0  0
 55 46  1  0  0  0  0
 55 53  2  0  0  0  0
 56 55  1  0  0  0  0
M  END
>  <MODEL>
8

>  <REMARK>
 VINA RESULT:      -6.5      4.986      8.549
  Name = 
  17 active torsions:
  status: ('A' for Active; 'I' for Inactive)
    1  A    between atoms: C_3  and  C_8
    2  A    between atoms: C_10  and  C_33
    3  A    between atoms: C_11  and  C_14
    4  A    between atoms: C_12  and  C_16
    5  A    between atoms: C_13  and  C_55
    6  A    between atoms: C_14  and  C_33
    7  A    between atoms: C_16  and  C_17
    8  A    between atoms: C_20  and  C_42
    9  A    between atoms: C_24  and  C_26
   10  A    between atoms: C_24  and  C_55
   11  A    between atoms: C_26  and  C_27
   12  A    between atoms: C_27  and  C_52
   13  A    between atoms: N_36  and  C_40
   14  A    between atoms: N_36  and  C_44
   15  A    between atoms: C_37  and  C_48
   16  A    between atoms: C_45  and  C_55
   17  A    between atoms: C_48  and  C_53
                            x       y       z     vdW  Elec       q    Type
                         _______ _______ _______ _____ _____    ______ ____

>  <TORSDO>
F 17

$$$$
=
 OpenBabel10222420553D

 56 62  0  0  1  0  0  0  0  0999 V2000
  186.8650  176.7880  137.1280 C   0  0  2  0  0  3  0  0  0  0  0  0
  187.9530  176.4530  136.0920 C   0  0  1  0  0  3  0  0  0  0  0  0
  190.3340  177.0830  136.3760 C   0  0  0  0  0  3  0  0  0  0  0  0
  189.0950  177.4490  136.0250 C   0  0  0  0  0  3  0  0  0  0  0  0
  190.6380  175.6690  136.7820 C   0  0  1  0  0  3  0  0  0  0  0  0
  189.3380  174.9550  137.1750 C   0  0  0  0  0  2  0  0  0  0  0  0
  188.3710  175.0990  136.1570 O   0  0  0  0  0  0  0  0  0  0  0  0
  191.2650  174.9740  135.6680 N   0  0  0  0  0  2  0  0  0  0  0  0
  193.0840  173.5280  135.1590 C   0  0  0  0  0  2  0  0  0  0  0  0
  192.2340  174.0450  136.2260 C   0  0  1  0  0  3  0  0  0  0  0  0
  193.5880  174.5910  136.0400 N   0  0  0  0  0  2  0  0  0  0  0  0
  185.1210  175.5970  135.8510 C   0  0  0  0  0  3  0  0  0  0  0  0
  185.4960  176.6830  136.5260 C   0  0  0  0  0  3  0  0  0  0  0  0
  181.9780  176.1150  137.0080 C   0  0  0  0  0  0  0  0  0  0  0  0
  182.7790  175.1730  136.3190 N   0  0  0  0  0  0  0  0  0  0  0  0
  183.7430  175.5060  135.2730 C   0  0  1  0  0  3  0  0  0  0  0  0
  181.3380  175.5600  138.0380 C   0  0  0  0  0  0  0  0  0  0  0  0
  181.7150  174.1130  138.1970 C   0  0  0  0  0  2  0  0  0  0  0  0
  183.2820  172.9090  136.7620 O   0  0  0  0  0  0  0  0  0  0  0  0
  183.0280  177.9110  135.6550 C   0  0  0  0  0  2  0  0  0  0  0  0
  183.3500  176.8350  134.6070 C   0  0  0  0  0  2  0  0  0  0  0  0
  182.6550  173.9630  137.0480 C   0  0  0  0  0  0  0  0  0  0  0  0
  181.8200  177.5180  136.5100 C   0  0  0  0  0  2  0  0  0  0  0  0
  180.3970  176.2710  138.9540 C   0  0  0  0  0  2  0  0  0  0  0  0
  181.1560  177.2600  139.8340 C   0  0  0  0  0  2  0  0  0  0  0  0
  180.0030  178.2470  144.3180 C   0  0  0  0  0  1  0  0  0  0  0  0
  180.1020  177.5400  142.0960 C   0  0  0  0  0  2  0  0  0  0  0  0
  180.2330  178.1150  140.7020 C   0  0  1  0  0  0  0  0  0  0  0  0
  180.7890  179.5170  140.9040 C   0  0  2  0  0  3  0  0  0  0  0  0
  178.9660  178.1540  140.1130 O   0  0  0  0  0  1  0  0  0  0  0  0
  180.2720  180.1210  142.5370 S   0  0  0  0  0  0  0  0  0  0  0  0
  179.5480  178.5590  142.9760 N   0  0  0  0  0  0  0  0  0  0  0  0
  180.5460  180.4880  139.7810 C   0  0  0  0  0  0  0  0  0  0  0  0
  179.5460  181.2510  139.8610 O   0  0  0  0  0  0  0  0  0  0  0  0
  181.4280  180.5940  138.6030 C   0  0  0  0  0  0  0  0  0  0  0  0
  180.8830  180.8770  137.3560 O   0  0  0  0  0  0  0  0  0  0  0  0
  182.6740  180.4280  138.7080 O   0  0  0  0  0  1  0  0  0  0  0  0
  187.0600  178.1710  137.7400 C   0  0  0  0  0  2  0  0  0  0  0  0
  186.7470  178.1500  139.2270 C   0  0  0  0  0  2  0  0  0  0  0  0
  185.2870  178.5020  139.4600 C   0  0  0  0  0  2  0  0  0  0  0  0
  184.1070  178.2310  141.5980 C   0  0  0  0  0  3  0  0  0  0  0  0
  185.0360  178.8660  140.8870 C   0  0  0  0  0  3  0  0  0  0  0  0
  183.8680  178.6090  143.0200 C   0  0  0  0  0  2  0  0  0  0  0  0
  183.8750  178.9860  145.9470 C   0  0  0  0  0  1  0  0  0  0  0  0
  186.3600  178.4420  147.4340 C   0  0  0  0  0  1  0  0  0  0  0  0
  187.4450  177.7050  143.8860 C   0  0  0  0  0  0  0  0  0  0  0  0
  186.2660  177.9570  143.1700 C   0  0  0  0  0  3  0  0  0  0  0  0
  187.4500  177.8700  145.2750 C   0  0  0  0  0  3  0  0  0  0  0  0
  185.1120  178.5360  145.2310 C   0  0  0  0  0  0  0  0  0  0  0  0
  186.2970  178.2830  145.9500 C   0  0  0  0  0  0  0  0  0  0  0  0
  185.1040  178.3720  143.8290 C   0  0  0  0  0  0  0  0  0  0  0  0
  190.2850  176.0320  142.1640 N   0  0  0  0  0  0  0  0  0  0  0  0
  189.5990  178.0900  142.8170 N   0  0  0  0  0  0  0  0  0  0  0  0
  190.5890  177.2880  142.1870 C   0  0  0  0  0  3  0  0  0  0  0  0
  188.6670  177.2750  143.1850 C   0  0  0  0  0  0  0  0  0  0  0  0
  188.9930  175.8680  142.8120 C   0  0  0  0  0  2  0  0  0  0  0  0
  1 13  1  6  0  0  0
  1 38  1  0  0  0  0
  2  7  1  0  0  0  0
  2  1  1  1  0  0  0
  3  5  1  0  0  0  0
  4  2  1  0  0  0  0
  4  3  2  0  0  0  0
  5  8  1  6  0  0  0
  5  6  1  0  0  0  0
  7  6  1  0  0  0  0
  9 11  1  0  0  0  0
  9 10  1  0  0  0  0
 10  8  1  6  0  0  0
 11 10  1  0  0  0  0
 12 13  2  0  0  0  0
 14 17  2  0  0  0  0
 15 14  1  0  0  0  0
 15 22  1  0  0  0  0
 16 12  1  1  0  0  0
 16 15  1  0  0  0  0
 17 18  1  0  0  0  0
 17 24  1  0  0  0  0
 19 22  2  0  0  0  0
 20 23  1  0  0  0  0
 21 16  1  0  0  0  0
 21 20  1  0  0  0  0
 22 18  1  0  0  0  0
 23 14  1  0  0  0  0
 24 25  1  0  0  0  0
 25 28  1  0  0  0  0
 27 32  1  0  0  0  0
 28 30  1  6  0  0  0
 28 29  1  0  0  0  0
 28 27  1  0  0  0  0
 29 33  1  6  0  0  0
 29 31  1  0  0  0  0
 31 32  1  0  0  0  0
 32 26  1  0  0  0  0
 33 34  2  0  0  0  0
 35 37  1  0  0  0  0
 35 33  1  0  0  0  0
 36 35  2  0  0  0  0
 38 39  1  0  0  0  0
 39 40  1  0  0  0  0
 40 42  1  0  0  0  0
 41 43  1  0  0  0  0
 42 41  2  0  0  0  0
 43 51  1  0  0  0  0
 46 48  1  0  0  0  0
 47 51  1  0  0  0  0
 47 46  2  0  0  0  0
 48 50  2  0  0  0  0
 49 44  1  0  0  0  0
 49 50  1  0  0  0  0
 50 45  1  0  0  0  0
 51 49  2  0  0  0  0
 52 54  2  0  0  0  0
 52 56  1  0  0  0  0
 53 55  2  0  0  0  0
 54 53  1  0  0  0  0
 55 46  1  0  0  0  0
 56 55  1  0  0  0  0
M  END
>  <MODEL>
9

>  <REMARK>
 VINA RESULT:      -6.4      3.001      6.246
  Name = 
  17 active torsions:
  status: ('A' for Active; 'I' for Inactive)
    1  A    between atoms: C_3  and  C_8
    2  A    between atoms: C_10  and  C_33
    3  A    between atoms: C_11  and  C_14
    4  A    between atoms: C_12  and  C_16
    5  A    between atoms: C_13  and  C_55
    6  A    between atoms: C_14  and  C_33
    7  A    between atoms: C_16  and  C_17
    8  A    between atoms: C_20  and  C_42
    9  A    between atoms: C_24  and  C_26
   10  A    between atoms: C_24  and  C_55
   11  A    between atoms: C_26  and  C_27
   12  A    between atoms: C_27  and  C_52
   13  A    between atoms: N_36  and  C_40
   14  A    between atoms: N_36  and  C_44
   15  A    between atoms: C_37  and  C_48
   16  A    between atoms: C_45  and  C_55
   17  A    between atoms: C_48  and  C_53
                            x       y       z     vdW  Elec       q    Type
                         _______ _______ _______ _____ _____    ______ ____

>  <TORSDO>
F 17

$$$$
