=
 OpenBabel10222415163D

 65 77  0  0  1  0  0  0  0  0999 V2000
  187.4140  177.6350  143.0560 C   0  0  0  0  0  0  0  0  0  0  0  0
  187.3490  177.9160  140.7460 N   0  0  0  0  0  2  0  0  0  0  0  0
  182.4140  178.2270  141.6860 C   0  0  0  0  0  3  0  0  0  0  0  0
  185.8480  179.3100  142.0620 C   0  0  0  0  0  2  0  0  0  0  0  0
  184.5550  179.2250  142.8000 C   0  0  0  0  0  0  0  0  0  0  0  0
  186.4840  177.9260  141.9270 C   0  0  2  0  0  3  0  0  0  0  0  0
  185.7600  177.6220  144.9040 C   0  0  0  0  0  2  0  0  0  0  0  0
  184.4650  179.6820  144.2240 C   0  0  0  0  0  2  0  0  0  0  0  0
  183.4940  178.7180  142.2310 C   0  0  0  0  0  0  0  0  0  0  0  0
  188.7060  178.0030  141.2880 C   0  0  1  0  0  3  0  0  0  0  0  0
  187.0510  177.3460  144.3770 O   0  0  0  0  0  0  0  0  0  0  0  0
  188.6430  177.6350  142.6880 N   0  0  0  0  0  0  0  0  0  0  0  0
  185.6080  179.1230  145.0820 C   0  0  0  0  0  2  0  0  0  0  0  0
  190.3210  176.4260  139.8760 C   0  0  0  0  0  0  0  0  0  0  0  0
  189.6150  177.1270  140.5530 C   0  0  0  0  0  0  0  0  0  0  0  0
  191.0990  175.6250  139.0320 N   0  0  0  0  0  2  0  0  0  0  0  0
  186.9100  175.5860  137.6150 O   0  0  0  0  0  1  0  0  0  0  0  0
  190.2580  176.5480  135.7290 C   0  0  2  0  0  3  0  0  0  0  0  0
  191.9900  173.5830  134.5940 C   0  0  0  0  0  2  0  0  0  0  0  0
  191.2090  173.5080  135.6680 C   0  0  0  0  0  0  0  0  0  0  0  0
  188.9580  173.0700  134.7730 C   0  0  0  0  0  2  0  0  0  0  0  0
  191.3070  176.9090  136.8030 C   0  0  1  0  0  0  0  0  0  0  0  0
  190.0630  172.5530  135.6740 C   0  0  0  0  0  2  0  0  0  0  0  0
  192.1170  175.5720  136.7900 C   0  0  1  0  0  0  0  0  0  0  0  0
  187.7720  176.4690  135.5590 C   0  0  0  0  0  2  0  0  0  0  0  0
  187.6200  172.9390  135.4340 C   0  0  0  0  0  0  0  0  0  0  0  0
  186.7710  174.1670  135.6490 C   0  0  1  0  0  3  0  0  0  0  0  0
  188.9850  177.3370  135.9330 C   0  0  1  0  0  3  0  0  0  0  0  0
  191.9860  176.2960  138.0820 C   0  0  2  0  0  3  0  0  0  0  0  0
  187.1820  171.8270  135.6870 O   0  0  0  0  0  0  0  0  0  0  0  0
  191.4030  174.3270  136.7900 O   0  0  0  0  0  0  0  0  0  0  0  0
  189.7950  176.8300  137.1070 C   0  0  1  0  0  3  0  0  0  0  0  0
  185.5690  173.8450  136.2880 O   0  0  0  0  0  1  0  0  0  0  0  0
  187.5510  175.2290  136.4280 C   0  0  2  0  0  3  0  0  0  0  0  0
  194.1860  173.6820  137.8690 C   0  0  0  0  0  2  0  0  0  0  0  0
  196.6170  173.6890  138.5300 C   0  0  0  0  0  2  0  0  0  0  0  0
  194.5000  174.7460  136.8510 C   0  0  0  0  0  0  0  0  0  0  0  0
  196.8950  174.8130  137.5150 C   0  0  0  0  0  2  0  0  0  0  0  0
  195.4100  172.8170  138.1600 C   0  0  0  0  0  2  0  0  0  0  0  0
  195.9060  174.8770  136.3490 C   0  0  0  0  0  2  0  0  0  0  0  0
  193.5580  175.5660  136.3630 C   0  0  0  0  0  3  0  0  0  0  0  0
  180.2450  179.1780  141.7590 O   0  0  0  0  0  0  0  0  0  0  0  0
  181.3480  179.0930  141.1560 C   0  0  0  0  0  0  0  0  0  0  0  0
  181.3340  172.8300  135.8700 C   0  0  2  0  0  3  0  0  0  0  0  0
  182.7760  179.6080  139.2710 O   0  0  0  0  0  0  0  0  0  0  0  0
  180.2780  177.4490  136.6890 C   0  0  1  0  0  3  0  0  0  0  0  0
  181.6380  172.2730  137.2390 C   0  0  0  0  0  2  0  0  0  0  0  0
  180.8330  172.9280  138.1860 O   0  0  0  0  0  0  0  0  0  0  0  0
  181.5410  179.8870  139.8940 C   0  0  1  0  0  3  0  0  0  0  0  0
  179.6810  174.5470  135.3670 N   0  0  0  0  0  2  0  0  0  0  0  0
  179.4730  174.8830  137.7260 C   0  0  1  0  0  3  0  0  0  0  0  0
  181.6380  179.0310  138.6810 C   0  0  2  0  0  0  0  0  0  0  0  0
  180.7160  175.4970  137.9970 O   0  0  0  0  0  0  0  0  0  0  0  0
  178.9440  175.3070  136.3610 C   0  0  1  0  0  3  0  0  0  0  0  0
  179.9010  173.2460  135.9970 C   0  0  2  0  0  3  0  0  0  0  0  0
  181.7330  177.5100  138.7350 C   0  0  0  0  0  2  0  0  0  0  0  0
  179.6970  173.3960  137.4960 C   0  0  1  0  0  3  0  0  0  0  0  0
  181.3210  179.6550  137.3360 C   0  0  0  0  0  2  0  0  0  0  0  0
  180.5060  176.8810  138.0960 C   0  0  1  0  0  3  0  0  0  0  0  0
  179.0130  176.8210  136.1140 C   0  0  0  0  0  2  0  0  0  0  0  0
  180.0920  178.9650  136.7430 C   0  0  0  0  0  2  0  0  0  0  0  0
  181.4670  171.7730  134.8840 N   0  0  0  0  0  2  0  0  0  0  0  0
  183.0230  169.9410  134.5950 C   0  0  0  0  0  2  0  0  0  0  0  0
  183.2740  170.5630  135.9510 C   0  0  0  0  0  2  0  0  0  0  0  0
  182.8820  171.4380  134.7810 C   0  0  0  0  0  3  0  0  0  0  0  0
  1 11  1  0  0  0  0
  2 10  1  0  0  0  0
  2  6  1  0  0  0  0
  3  9  2  0  0  0  0
  4  5  1  0  0  0  0
  5  8  1  0  0  0  0
  6  4  1  1  0  0  0
  6  1  1  0  0  0  0
  7 13  1  0  0  0  0
  8 13  1  0  0  0  0
  9  5  2  0  0  0  0
 10 15  1  6  0  0  0
 10 12  1  0  0  0  0
 11  7  1  0  0  0  0
 12  1  2  0  0  0  0
 14 15  3  0  0  0  0
 16 14  1  0  0  0  0
 18 28  1  0  0  0  0
 18 22  1  0  0  0  0
 18 32  1  0  0  0  0
 19 20  2  0  0  0  0
 20 23  1  0  0  0  0
 20 31  1  0  0  0  0
 21 26  1  0  0  0  0
 21 23  1  0  0  0  0
 22 32  1  0  0  0  0
 22 29  1  0  0  0  0
 24 31  1  0  0  0  0
 24 22  1  0  0  0  0
 24 29  1  0  0  0  0
 25 28  1  0  0  0  0
 25 34  1  0  0  0  0
 26 27  1  0  0  0  0
 26 30  2  0  0  0  0
 27 33  1  0  0  0  0
 27 34  1  0  0  0  0
 28 32  1  0  0  0  0
 29 16  1  0  0  0  0
 34 17  1  0  0  0  0
 35 39  1  0  0  0  0
 37 35  1  0  0  0  0
 38 36  1  0  0  0  0
 39 36  1  0  0  0  0
 40 37  1  0  0  0  0
 40 38  1  0  0  0  0
 41 24  1  0  0  0  0
 41 37  2  0  0  0  0
 43  3  1  0  0  0  0
 43 42  2  0  0  0  0
 44 55  1  0  0  0  0
 44 47  1  0  0  0  0
 45 49  1  0  0  0  0
 46 61  1  0  0  0  0
 46 59  1  0  0  0  0
 47 48  1  0  0  0  0
 49 43  1  0  0  0  0
 50 55  1  0  0  0  0
 50 54  1  0  0  0  0
 51 53  1  0  0  0  0
 52 56  1  0  0  0  0
 52 45  1  0  0  0  0
 52 49  1  0  0  0  0
 53 59  1  0  0  0  0
 54 51  1  0  0  0  0
 55 57  1  0  0  0  0
 57 51  1  0  0  0  0
 57 48  1  0  0  0  0
 58 52  1  0  0  0  0
 59 56  1  0  0  0  0
 60 54  1  0  0  0  0
 60 46  1  0  0  0  0
 61 58  1  0  0  0  0
 62 44  1  0  0  0  0
 63 65  1  0  0  0  0
 63 64  1  0  0  0  0
 65 62  1  0  0  0  0
 65 64  1  0  0  0  0
M  END
>  <MODEL>
1

>  <REMARK>
 VINA RESULT:      -8.2      0.000      0.000
  Name = 
  8 active torsions:
  status: ('A' for Active; 'I' for Inactive)
    1  A    between atoms: C_2  and  N_16
    2  A    between atoms: C_7  and  N_60
    3  A    between atoms: N_16  and  C_58
    4  A    between atoms: C_17  and  C_19
    5  A    between atoms: C_19  and  C_21
    6  A    between atoms: C_27  and  C_50
    7  A    between atoms: C_29  and  C_62
    8  A    between atoms: C_45  and  N_60
                            x       y       z     vdW  Elec       q    Type
                         _______ _______ _______ _____ _____    ______ ____

>  <TORSDO>
F 8

$$$$
=
 OpenBabel10222415163D

 65 77  0  0  1  0  0  0  0  0999 V2000
  187.9760  178.7450  141.8320 C   0  0  0  0  0  0  0  0  0  0  0  0
  187.3620  178.0710  139.6900 N   0  0  0  0  0  2  0  0  0  0  0  0
  192.3350  177.3990  139.2990 C   0  0  0  0  0  3  0  0  0  0  0  0
  189.0980  176.7680  140.7930 C   0  0  0  0  0  2  0  0  0  0  0  0
  190.5510  176.8390  141.1220 C   0  0  0  0  0  0  0  0  0  0  0  0
  188.5260  178.1690  140.5710 C   0  0  2  0  0  3  0  0  0  0  0  0
  190.0880  178.8950  143.1240 C   0  0  0  0  0  2  0  0  0  0  0  0
  191.0200  176.6230  142.5290 C   0  0  0  0  0  2  0  0  0  0  0  0
  191.4310  177.1260  140.2010 C   0  0  0  0  0  0  0  0  0  0  0  0
  186.2140  178.2220  140.5860 C   0  0  1  0  0  3  0  0  0  0  0  0
  188.7170  179.2140  142.9240 O   0  0  0  0  0  0  0  0  0  0  0  0
  186.6950  178.8130  141.8180 N   0  0  0  0  0  0  0  0  0  0  0  0
  190.2020  177.4380  143.5400 C   0  0  0  0  0  2  0  0  0  0  0  0
  184.3500  179.6980  139.3880 C   0  0  0  0  0  0  0  0  0  0  0  0
  185.1820  179.0520  139.9710 C   0  0  0  0  0  0  0  0  0  0  0  0
  183.4060  180.4210  138.6490 N   0  0  0  0  0  2  0  0  0  0  0  0
  183.5840  176.0070  138.4530 O   0  0  0  0  0  1  0  0  0  0  0  0
  180.6290  178.4210  139.5200 C   0  0  2  0  0  3  0  0  0  0  0  0
  178.9310  179.7350  136.6100 C   0  0  0  0  0  2  0  0  0  0  0  0
  180.2120  179.3940  136.5150 C   0  0  0  0  0  0  0  0  0  0  0  0
  180.1810  176.9890  135.9910 C   0  0  0  0  0  2  0  0  0  0  0  0
  181.2580  179.7720  139.9240 C   0  0  1  0  0  0  0  0  0  0  0  0
  180.6230  178.3600  135.5200 C   0  0  0  0  0  2  0  0  0  0  0  0
  180.9480  180.5700  138.6170 C   0  0  1  0  0  0  0  0  0  0  0  0
  181.3610  176.0430  139.3520 C   0  0  0  0  0  2  0  0  0  0  0  0
  181.2760  175.9810  135.8190 C   0  0  0  0  0  0  0  0  0  0  0  0
  181.7890  175.2230  137.0170 C   0  0  1  0  0  3  0  0  0  0  0  0
  181.2810  177.2790  140.2650 C   0  0  1  0  0  3  0  0  0  0  0  0
  182.2060  180.8840  139.3450 C   0  0  2  0  0  3  0  0  0  0  0  0
  181.6620  175.7030  134.6930 O   0  0  0  0  0  0  0  0  0  0  0  0
  181.1960  179.9480  137.3480 O   0  0  0  0  0  0  0  0  0  0  0  0
  182.0840  178.4730  139.7940 C   0  0  1  0  0  3  0  0  0  0  0  0
  182.8140  174.3420  136.6570 O   0  0  0  0  0  1  0  0  0  0  0  0
  182.2430  176.1920  138.1110 C   0  0  2  0  0  3  0  0  0  0  0  0
  181.0670  182.8540  136.6720 C   0  0  0  0  0  2  0  0  0  0  0  0
  180.8100  185.3600  136.6530 C   0  0  0  0  0  2  0  0  0  0  0  0
  180.0870  182.8010  137.8130 C   0  0  0  0  0  0  0  0  0  0  0  0
  179.8500  185.2760  137.8550 C   0  0  0  0  0  2  0  0  0  0  0  0
  180.8340  184.0860  135.7990 C   0  0  0  0  0  2  0  0  0  0  0  0
  179.1260  183.9350  137.9980 C   0  0  0  0  0  2  0  0  0  0  0  0
  180.0330  181.7620  138.6590 C   0  0  0  0  0  3  0  0  0  0  0  0
  193.5620  175.3730  139.3650 O   0  0  0  0  0  0  0  0  0  0  0  0
  193.1560  176.3470  138.6770 C   0  0  0  0  0  0  0  0  0  0  0  0
  186.3250  173.0110  135.6160 C   0  0  2  0  0  3  0  0  0  0  0  0
  193.6770  175.1220  136.6570 O   0  0  0  0  0  0  0  0  0  0  0  0
  189.9520  176.1080  135.0060 C   0  0  1  0  0  3  0  0  0  0  0  0
  186.4090  172.6280  137.0730 C   0  0  0  0  0  2  0  0  0  0  0  0
  186.8720  173.7330  137.8080 O   0  0  0  0  0  0  0  0  0  0  0  0
  193.5320  176.4060  137.2220 C   0  0  1  0  0  3  0  0  0  0  0  0
  186.8550  175.1990  134.6860 N   0  0  0  0  0  2  0  0  0  0  0  0
  187.7470  175.7720  136.8300 C   0  0  1  0  0  3  0  0  0  0  0  0
  192.4960  175.8140  136.3340 C   0  0  2  0  0  0  0  0  0  0  0  0
  188.9110  174.9730  136.8330 O   0  0  0  0  0  0  0  0  0  0  0  0
  187.4510  176.2960  135.4300 C   0  0  1  0  0  3  0  0  0  0  0  0
  186.0550  174.4820  135.6790 C   0  0  2  0  0  3  0  0  0  0  0  0
  191.2830  175.0500  136.8550 C   0  0  0  0  0  2  0  0  0  0  0  0
  186.5360  174.8820  137.0640 C   0  0  1  0  0  3  0  0  0  0  0  0
  192.4700  176.2400  134.8790 C   0  0  0  0  0  2  0  0  0  0  0  0
  190.0030  175.7920  136.5070 C   0  0  1  0  0  3  0  0  0  0  0  0
  188.6750  176.8910  134.7200 C   0  0  0  0  0  2  0  0  0  0  0  0
  191.1520  176.9600  134.5940 C   0  0  0  0  0  2  0  0  0  0  0  0
  185.2070  172.3180  135.0020 N   0  0  0  0  0  2  0  0  0  0  0  0
  184.6390  170.0110  135.4660 C   0  0  0  0  0  2  0  0  0  0  0  0
  183.3600  170.8190  135.4620 C   0  0  0  0  0  2  0  0  0  0  0  0
  184.6340  171.4280  136.0040 C   0  0  0  0  0  3  0  0  0  0  0  0
  1 11  1  0  0  0  0
  2  6  1  0  0  0  0
  2 10  1  0  0  0  0
  3  9  2  0  0  0  0
  4  5  1  0  0  0  0
  5  8  1  0  0  0  0
  6  4  1  1  0  0  0
  6  1  1  0  0  0  0
  7 13  1  0  0  0  0
  8 13  1  0  0  0  0
  9  5  2  0  0  0  0
 10 15  1  6  0  0  0
 10 12  1  0  0  0  0
 11  7  1  0  0  0  0
 12  1  2  0  0  0  0
 14 15  3  0  0  0  0
 16 29  1  0  0  0  0
 16 14  1  0  0  0  0
 18 32  1  0  0  0  0
 18 22  1  0  0  0  0
 18 28  1  0  0  0  0
 20 19  2  0  0  0  0
 20 31  1  0  0  0  0
 23 21  1  0  0  0  0
 23 20  1  0  0  0  0
 24 41  1  0  0  0  0
 24 29  1  0  0  0  0
 24 22  1  0  0  0  0
 25 28  1  0  0  0  0
 26 21  1  0  0  0  0
 26 27  1  0  0  0  0
 27 34  1  0  0  0  0
 29 22  1  0  0  0  0
 30 26  2  0  0  0  0
 31 24  1  0  0  0  0
 32 22  1  0  0  0  0
 32 28  1  0  0  0  0
 33 27  1  0  0  0  0
 34 17  1  0  0  0  0
 34 25  1  0  0  0  0
 35 37  1  0  0  0  0
 36 38  1  0  0  0  0
 37 40  1  0  0  0  0
 37 41  2  0  0  0  0
 38 40  1  0  0  0  0
 39 36  1  0  0  0  0
 39 35  1  0  0  0  0
 43  3  1  0  0  0  0
 43 42  2  0  0  0  0
 44 55  1  0  0  0  0
 44 47  1  0  0  0  0
 45 49  1  0  0  0  0
 46 59  1  0  0  0  0
 47 48  1  0  0  0  0
 49 43  1  0  0  0  0
 50 54  1  0  0  0  0
 50 55  1  0  0  0  0
 51 53  1  0  0  0  0
 51 57  1  0  0  0  0
 52 45  1  0  0  0  0
 52 56  1  0  0  0  0
 52 49  1  0  0  0  0
 54 51  1  0  0  0  0
 55 57  1  0  0  0  0
 57 48  1  0  0  0  0
 58 52  1  0  0  0  0
 59 53  1  0  0  0  0
 59 56  1  0  0  0  0
 60 46  1  0  0  0  0
 60 54  1  0  0  0  0
 61 58  1  0  0  0  0
 61 46  1  0  0  0  0
 62 44  1  0  0  0  0
 62 65  1  0  0  0  0
 63 65  1  0  0  0  0
 64 63  1  0  0  0  0
 64 65  1  0  0  0  0
M  END
>  <MODEL>
2

>  <REMARK>
 VINA RESULT:      -7.1      2.489      9.847
  Name = 
  8 active torsions:
  status: ('A' for Active; 'I' for Inactive)
    1  A    between atoms: C_2  and  N_16
    2  A    between atoms: C_7  and  N_60
    3  A    between atoms: N_16  and  C_58
    4  A    between atoms: C_17  and  C_19
    5  A    between atoms: C_19  and  C_21
    6  A    between atoms: C_27  and  C_50
    7  A    between atoms: C_29  and  C_62
    8  A    between atoms: C_45  and  N_60
                            x       y       z     vdW  Elec       q    Type
                         _______ _______ _______ _____ _____    ______ ____

>  <TORSDO>
F 8

$$$$
