=
 OpenBabel10222416483D

 45 52  0  0  1  0  0  0  0  0999 V2000
  189.7240  176.9140  142.3810 C   0  0  2  0  0  3  0  0  0  0  0  0
  185.2540  178.7850  140.4490 C   0  0  1  0  0  3  0  0  0  0  0  0
  188.9160  177.4930  141.1770 C   0  0  1  0  0  3  0  0  0  0  0  0
  188.1750  177.5390  144.8850 C   0  0  1  0  0  3  0  0  0  0  0  0
  183.7000  179.4010  142.3130 C   0  0  0  0  0  2  0  0  0  0  0  0
  187.5880  177.9080  141.2620 C   0  0  0  0  0  0  0  0  0  0  0  0
  183.4800  178.0410  142.0480 O   0  0  0  0  0  0  0  0  0  0  0  0
  190.7120  177.2660  144.6950 C   0  0  0  0  0  2  0  0  0  0  0  0
  186.8210  177.8950  138.8020 C   0  0  2  0  0  3  0  0  0  0  0  0
  184.8180  178.5330  141.8900 C   0  0  1  0  0  0  0  0  0  0  0  0
  187.1190  178.0080  142.6840 C   0  0  2  0  0  3  0  0  0  0  0  0
  190.6840  177.1280  146.0740 C   0  0  0  0  0  2  0  0  0  0  0  0
  185.3600  178.2310  144.5750 C   0  0  0  0  0  3  0  0  0  0  0  0
  189.5440  176.9280  147.1450 C   0  0  0  0  0  2  0  0  0  0  0  0
  189.4420  177.6270  143.7740 C   0  0  2  0  0  0  0  0  0  0  0  0
  189.8850  178.0430  140.2060 C   0  0  0  0  0  2  0  0  0  0  0  0
  188.1530  177.6000  147.2310 C   0  0  0  0  0  2  0  0  0  0  0  0
  186.5670  178.2410  140.0990 C   0  0  0  0  0  0  0  0  0  0  0  0
  188.0370  177.0530  143.6140 C   0  0  1  0  0  3  0  0  0  0  0  0
  185.8270  177.3540  137.8980 O   0  0  0  0  0  1  0  0  0  0  0  0
  188.1410  177.7840  138.3200 C   0  0  0  0  0  2  0  0  0  0  0  0
  187.4500  177.5610  145.9960 C   0  0  0  0  0  0  0  0  0  0  0  0
  189.3850  177.7470  138.8280 C   0  0  2  0  0  3  0  0  0  0  0  0
  185.8230  178.3010  143.0340 C   0  0  0  0  0  0  0  0  0  0  0  0
  190.9760  176.3440  142.0890 F   0  0  0  0  0  0  0  0  0  0  0  0
  186.0170  177.8960  145.7930 C   0  0  0  0  0  3  0  0  0  0  0  0
  191.2030  173.3060  136.2460 O   0  0  0  0  0  0  0  0  0  0  0  0
  191.4910  174.7980  138.1100 N   0  0  0  0  0  2  0  0  0  0  0  0
  192.5530  176.8900  138.7780 O   0  0  0  0  0  0  0  0  0  0  0  0
  191.9880  174.0850  136.8710 C   0  0  0  0  0  0  0  0  0  0  0  0
  191.5750  176.3230  138.3860 C   0  0  0  0  0  0  0  0  0  0  0  0
  190.4530  177.1780  138.0750 N   0  0  0  0  0  2  0  0  0  0  0  0
  193.4610  173.9010  136.6050 C   0  0  0  0  0  2  0  0  0  0  0  0
  194.3010  173.9410  137.8800 C   0  0  0  0  0  2  0  0  0  0  0  0
  195.1150  172.6610  137.8720 C   0  0  0  0  0  1  0  0  0  0  0  0
  184.2360  178.5470  139.4820 O   0  0  0  0  0  0  0  0  0  0  0  0
  183.9120  179.8550  139.1140 C   0  0  0  0  0  2  0  0  0  0  0  0
  182.4650  179.9050  138.6950 C   0  0  0  0  0  2  0  0  0  0  0  0
  180.8560  181.5440  137.4290 N   0  0  0  0  0  2  0  0  0  0  0  0
  181.9900  181.2950  138.3340 C   0  0  0  0  0  0  0  0  0  0  0  0
  182.7090  182.2430  138.6850 O   0  0  0  0  0  0  0  0  0  0  0  0
  179.9590  183.7440  137.9250 O   0  0  0  0  0  0  0  0  0  0  0  0
  180.4100  182.8850  136.9610 C   0  0  0  0  0  0  0  0  0  0  0  0
  179.0580  183.0860  137.1770 O   0  0  0  0  0  0  0  0  0  0  0  0
  180.8660  183.5340  135.6570 C   0  0  0  0  0  1  0  0  0  0  0  0
  1 25  1  6  0  0  0
  1 15  1  0  0  0  0
  2 36  1  6  0  0  0
  2 10  1  0  0  0  0
  3 16  1  1  0  0  0
  3  6  1  0  0  0  0
  3  1  1  0  0  0  0
  4 22  1  1  0  0  0
  7  5  1  0  0  0  0
  8 12  1  0  0  0  0
  9 20  1  1  0  0  0
  9 18  1  0  0  0  0
 10  7  1  0  0  0  0
 10  5  1  1  0  0  0
 10 24  1  0  0  0  0
 11  6  1  6  0  0  0
 11 24  1  0  0  0  0
 11 19  1  0  0  0  0
 12 14  1  0  0  0  0
 13 26  1  0  0  0  0
 14 17  1  0  0  0  0
 15  8  1  1  0  0  0
 15  4  1  0  0  0  0
 18  2  1  0  0  0  0
 18  6  2  0  0  0  0
 19 15  1  0  0  0  0
 19  4  1  0  0  0  0
 21  9  1  0  0  0  0
 21 23  1  0  0  0  0
 22 17  1  0  0  0  0
 23 16  1  0  0  0  0
 24 13  2  0  0  0  0
 26 22  2  0  0  0  0
 27 30  2  0  0  0  0
 28 31  1  0  0  0  0
 30 28  1  0  0  0  0
 31 29  2  0  0  0  0
 32 31  1  0  0  0  0
 32 23  1  0  0  0  0
 33 30  1  0  0  0  0
 33 34  1  0  0  0  0
 35 34  1  0  0  0  0
 37 36  1  0  0  0  0
 38 37  1  0  0  0  0
 39 40  1  0  0  0  0
 40 41  2  0  0  0  0
 40 38  1  0  0  0  0
 43 44  1  0  0  0  0
 43 39  1  0  0  0  0
 43 42  1  0  0  0  0
 44 42  1  0  0  0  0
 45 43  1  0  0  0  0
M  END
>  <MODEL>
1

>  <REMARK>
 VINA RESULT:     -10.4      0.000      0.000
  Name = 
  8 active torsions:
  status: ('A' for Active; 'I' for Inactive)
    1  A    between atoms: C_2  and  O_5
    2  A    between atoms: O_5  and  C_23
    3  A    between atoms: C_10  and  N_11
    4  A    between atoms: C_12  and  C_27
    5  A    between atoms: C_12  and  C_40
    6  A    between atoms: C_15  and  C_36
    7  A    between atoms: C_23  and  C_36
    8  A    between atoms: C_37  and  N_42
                            x       y       z     vdW  Elec       q    Type
                         _______ _______ _______ _____ _____    ______ ____

>  <TORSDO>
F 8

$$$$
=
 OpenBabel10222416483D

 45 52  0  0  1  0  0  0  0  0999 V2000
  189.9200  176.8720  142.4240 C   0  0  2  0  0  3  0  0  0  0  0  0
  185.3530  178.7490  140.7410 C   0  0  1  0  0  3  0  0  0  0  0  0
  189.0510  177.4600  141.2690 C   0  0  1  0  0  3  0  0  0  0  0  0
  188.5010  177.4690  145.0090 C   0  0  1  0  0  3  0  0  0  0  0  0
  183.8960  179.3450  142.6880 C   0  0  0  0  0  2  0  0  0  0  0  0
  187.7280  177.8710  141.4250 C   0  0  0  0  0  0  0  0  0  0  0  0
  183.6660  177.9860  142.4210 O   0  0  0  0  0  0  0  0  0  0  0  0
  191.0250  177.2050  144.6880 C   0  0  0  0  0  2  0  0  0  0  0  0
  186.8360  177.8790  139.0080 C   0  0  2  0  0  3  0  0  0  0  0  0
  184.9920  178.4830  142.2000 C   0  0  1  0  0  0  0  0  0  0  0  0
  187.3320  177.9560  142.8710 C   0  0  2  0  0  3  0  0  0  0  0  0
  191.0670  177.0540  146.0650 C   0  0  0  0  0  2  0  0  0  0  0  0
  185.6720  178.1570  144.8510 C   0  0  0  0  0  3  0  0  0  0  0  0
  189.9840  176.8400  147.1910 C   0  0  0  0  0  2  0  0  0  0  0  0
  189.7080  177.5720  143.8360 C   0  0  2  0  0  0  0  0  0  0  0  0
  189.9680  178.0210  140.2540 C   0  0  0  0  0  2  0  0  0  0  0  0
  188.5980  177.5080  147.3550 C   0  0  0  0  0  2  0  0  0  0  0  0
  186.6490  178.2120  140.3190 C   0  0  0  0  0  0  0  0  0  0  0  0
  188.2980  176.9950  143.7430 C   0  0  1  0  0  3  0  0  0  0  0  0
  185.7980  177.3440  138.1510 O   0  0  0  0  0  1  0  0  0  0  0  0
  188.1300  177.7760  138.4580 C   0  0  0  0  0  2  0  0  0  0  0  0
  187.8330  177.4790  146.1560 C   0  0  0  0  0  0  0  0  0  0  0  0
  189.3980  177.7380  138.9020 C   0  0  2  0  0  3  0  0  0  0  0  0
  186.0550  178.2430  143.2890 C   0  0  0  0  0  0  0  0  0  0  0  0
  191.1570  176.3080  142.0630 F   0  0  0  0  0  0  0  0  0  0  0  0
  186.3900  177.8130  146.0300 C   0  0  0  0  0  3  0  0  0  0  0  0
  191.0140  173.3830  136.0510 O   0  0  0  0  0  0  0  0  0  0  0  0
  191.3990  174.7730  137.9760 N   0  0  0  0  0  2  0  0  0  0  0  0
  192.5390  176.8000  138.7130 O   0  0  0  0  0  0  0  0  0  0  0  0
  191.8390  174.1100  136.6890 C   0  0  0  0  0  0  0  0  0  0  0  0
  191.5330  176.2790  138.3230 C   0  0  0  0  0  0  0  0  0  0  0  0
  190.4280  177.1780  138.0890 N   0  0  0  0  0  2  0  0  0  0  0  0
  193.2990  173.8990  136.3700 C   0  0  0  0  0  2  0  0  0  0  0  0
  194.1690  173.8050  137.6210 C   0  0  0  0  0  2  0  0  0  0  0  0
  195.4650  174.5120  137.2690 C   0  0  0  0  0  1  0  0  0  0  0  0
  184.2880  178.5180  139.8250 O   0  0  0  0  0  0  0  0  0  0  0  0
  183.9870  179.8250  139.4360 C   0  0  0  0  0  2  0  0  0  0  0  0
  182.7950  179.8030  138.5130 C   0  0  0  0  0  2  0  0  0  0  0  0
  181.3220  179.8440  140.6820 N   0  0  0  0  0  2  0  0  0  0  0  0
  181.4770  180.0080  139.2270 C   0  0  0  0  0  0  0  0  0  0  0  0
  180.4690  180.1450  138.5180 O   0  0  0  0  0  0  0  0  0  0  0  0
  179.4940  181.1840  141.5490 O   0  0  0  0  0  0  0  0  0  0  0  0
  180.0330  179.9340  141.4230 C   0  0  0  0  0  0  0  0  0  0  0  0
  180.1580  180.6630  142.5920 O   0  0  0  0  0  0  0  0  0  0  0  0
  179.0590  178.7720  141.5940 C   0  0  0  0  0  1  0  0  0  0  0  0
  1 25  1  6  0  0  0
  1 15  1  0  0  0  0
  2 36  1  6  0  0  0
  2 10  1  0  0  0  0
  3 16  1  1  0  0  0
  3  6  1  0  0  0  0
  3  1  1  0  0  0  0
  4 22  1  1  0  0  0
  7  5  1  0  0  0  0
  8 12  1  0  0  0  0
  9 20  1  1  0  0  0
  9 18  1  0  0  0  0
 10  7  1  0  0  0  0
 10  5  1  1  0  0  0
 10 24  1  0  0  0  0
 11  6  1  6  0  0  0
 11 24  1  0  0  0  0
 11 19  1  0  0  0  0
 12 14  1  0  0  0  0
 13 26  1  0  0  0  0
 14 17  1  0  0  0  0
 15  8  1  1  0  0  0
 15  4  1  0  0  0  0
 18  2  1  0  0  0  0
 18  6  2  0  0  0  0
 19 15  1  0  0  0  0
 19  4  1  0  0  0  0
 21 23  1  0  0  0  0
 21  9  1  0  0  0  0
 22 17  1  0  0  0  0
 23 16  1  0  0  0  0
 24 13  2  0  0  0  0
 26 22  2  0  0  0  0
 27 30  2  0  0  0  0
 28 31  1  0  0  0  0
 30 28  1  0  0  0  0
 31 29  2  0  0  0  0
 32 31  1  0  0  0  0
 32 23  1  0  0  0  0
 33 30  1  0  0  0  0
 33 34  1  0  0  0  0
 35 34  1  0  0  0  0
 37 36  1  0  0  0  0
 38 40  1  0  0  0  0
 38 37  1  0  0  0  0
 39 43  1  0  0  0  0
 40 39  1  0  0  0  0
 41 40  2  0  0  0  0
 42 44  1  0  0  0  0
 43 42  1  0  0  0  0
 43 45  1  0  0  0  0
 43 44  1  0  0  0  0
M  END
>  <MODEL>
2

>  <REMARK>
 VINA RESULT:     -10.2      1.508      1.997
  Name = 
  8 active torsions:
  status: ('A' for Active; 'I' for Inactive)
    1  A    between atoms: C_2  and  O_5
    2  A    between atoms: O_5  and  C_23
    3  A    between atoms: C_10  and  N_11
    4  A    between atoms: C_12  and  C_27
    5  A    between atoms: C_12  and  C_40
    6  A    between atoms: C_15  and  C_36
    7  A    between atoms: C_23  and  C_36
    8  A    between atoms: C_37  and  N_42
                            x       y       z     vdW  Elec       q    Type
                         _______ _______ _______ _____ _____    ______ ____

>  <TORSDO>
F 8

$$$$
=
 OpenBabel10222416483D

 45 52  0  0  1  0  0  0  0  0999 V2000
  189.8650  176.8220  142.3460 C   0  0  2  0  0  3  0  0  0  0  0  0
  185.3820  178.7560  140.5090 C   0  0  1  0  0  3  0  0  0  0  0  0
  189.0410  177.4160  141.1600 C   0  0  1  0  0  3  0  0  0  0  0  0
  188.3730  177.4540  144.8810 C   0  0  1  0  0  3  0  0  0  0  0  0
  183.8720  179.3830  142.4050 C   0  0  0  0  0  2  0  0  0  0  0  0
  187.7210  177.8470  141.2730 C   0  0  0  0  0  0  0  0  0  0  0  0
  183.6310  178.0270  142.1380 O   0  0  0  0  0  0  0  0  0  0  0  0
  190.9020  177.1510  144.6410 C   0  0  0  0  0  2  0  0  0  0  0  0
  186.9060  177.8550  138.8280 C   0  0  2  0  0  3  0  0  0  0  0  0
  184.9700  178.5030  141.9570 C   0  0  1  0  0  0  0  0  0  0  0  0
  187.2800  177.9460  142.7040 C   0  0  2  0  0  3  0  0  0  0  0  0
  190.8990  177.0070  146.0200 C   0  0  0  0  0  2  0  0  0  0  0  0
  185.5610  178.1820  144.6290 C   0  0  0  0  0  3  0  0  0  0  0  0
  189.7770  176.8160  147.1120 C   0  0  0  0  0  2  0  0  0  0  0  0
  189.6190  177.5320  143.7460 C   0  0  2  0  0  0  0  0  0  0  0  0
  189.9980  177.9580  140.1720 C   0  0  0  0  0  2  0  0  0  0  0  0
  188.3970  177.5040  147.2280 C   0  0  0  0  0  2  0  0  0  0  0  0
  186.6820  178.1980  140.1310 C   0  0  0  0  0  0  0  0  0  0  0  0
  188.2040  176.9760  143.6120 C   0  0  1  0  0  3  0  0  0  0  0  0
  185.8870  177.3300  137.9410 O   0  0  0  0  0  1  0  0  0  0  0  0
  188.2140  177.7300  138.3200 C   0  0  0  0  0  2  0  0  0  0  0  0
  187.6700  177.4800  146.0060 C   0  0  0  0  0  0  0  0  0  0  0  0
  189.4670  177.6760  138.8040 C   0  0  2  0  0  3  0  0  0  0  0  0
  185.9950  178.2540  143.0800 C   0  0  0  0  0  0  0  0  0  0  0  0
  191.1040  176.2380  142.0270 F   0  0  0  0  0  0  0  0  0  0  0  0
  186.2370  177.8330  145.8330 C   0  0  0  0  0  3  0  0  0  0  0  0
  191.1490  173.2480  136.1080 O   0  0  0  0  0  0  0  0  0  0  0  0
  191.4930  174.6920  138.0000 N   0  0  0  0  0  2  0  0  0  0  0  0
  192.6130  176.7420  138.7020 O   0  0  0  0  0  0  0  0  0  0  0  0
  191.9600  173.9940  136.7420 C   0  0  0  0  0  0  0  0  0  0  0  0
  191.6170  176.2080  138.3080 C   0  0  0  0  0  0  0  0  0  0  0  0
  190.5140  177.0970  138.0270 N   0  0  0  0  0  2  0  0  0  0  0  0
  193.4260  173.7790  136.4570 C   0  0  0  0  0  2  0  0  0  0  0  0
  194.2640  173.6650  137.7280 C   0  0  0  0  0  2  0  0  0  0  0  0
  195.5080  174.4950  137.4700 C   0  0  0  0  0  1  0  0  0  0  0  0
  184.3430  178.5350  139.5610 O   0  0  0  0  0  0  0  0  0  0  0  0
  184.0380  179.8480  139.1940 C   0  0  0  0  0  2  0  0  0  0  0  0
  182.6180  179.9020  138.6910 C   0  0  0  0  0  2  0  0  0  0  0  0
  181.5170  177.5380  138.4150 N   0  0  0  0  0  2  0  0  0  0  0  0
  181.7580  178.7640  139.1940 C   0  0  0  0  0  0  0  0  0  0  0  0
  181.1000  178.9690  140.2250 O   0  0  0  0  0  0  0  0  0  0  0  0
  181.0130  175.6570  139.8630 O   0  0  0  0  0  0  0  0  0  0  0  0
  180.6030  176.4320  138.8140 C   0  0  0  0  0  0  0  0  0  0  0  0
  181.1760  175.1890  138.6150 O   0  0  0  0  0  0  0  0  0  0  0  0
  179.1060  176.4080  138.5170 C   0  0  0  0  0  1  0  0  0  0  0  0
  1 25  1  6  0  0  0
  1 15  1  0  0  0  0
  2 36  1  6  0  0  0
  2 10  1  0  0  0  0
  3 16  1  1  0  0  0
  3  6  1  0  0  0  0
  3  1  1  0  0  0  0
  4 22  1  1  0  0  0
  7  5  1  0  0  0  0
  8 12  1  0  0  0  0
  9 20  1  1  0  0  0
  9 18  1  0  0  0  0
 10  7  1  0  0  0  0
 10  5  1  1  0  0  0
 10 24  1  0  0  0  0
 11  6  1  6  0  0  0
 11 24  1  0  0  0  0
 11 19  1  0  0  0  0
 12 14  1  0  0  0  0
 13 26  1  0  0  0  0
 14 17  1  0  0  0  0
 15  8  1  1  0  0  0
 15  4  1  0  0  0  0
 18  2  1  0  0  0  0
 18  6  2  0  0  0  0
 19 15  1  0  0  0  0
 19  4  1  0  0  0  0
 21 23  1  0  0  0  0
 21  9  1  0  0  0  0
 22 17  1  0  0  0  0
 23 16  1  0  0  0  0
 24 13  2  0  0  0  0
 26 22  2  0  0  0  0
 27 30  2  0  0  0  0
 28 31  1  0  0  0  0
 30 28  1  0  0  0  0
 31 29  2  0  0  0  0
 32 31  1  0  0  0  0
 32 23  1  0  0  0  0
 33 30  1  0  0  0  0
 33 34  1  0  0  0  0
 35 34  1  0  0  0  0
 37 36  1  0  0  0  0
 38 40  1  0  0  0  0
 38 37  1  0  0  0  0
 39 43  1  0  0  0  0
 39 40  1  0  0  0  0
 40 41  2  0  0  0  0
 43 42  1  0  0  0  0
 44 43  1  0  0  0  0
 44 42  1  0  0  0  0
 45 43  1  0  0  0  0
M  END
>  <MODEL>
3

>  <REMARK>
 VINA RESULT:     -10.1      1.768      2.546
  Name = 
  8 active torsions:
  status: ('A' for Active; 'I' for Inactive)
    1  A    between atoms: C_2  and  O_5
    2  A    between atoms: O_5  and  C_23
    3  A    between atoms: C_10  and  N_11
    4  A    between atoms: C_12  and  C_27
    5  A    between atoms: C_12  and  C_40
    6  A    between atoms: C_15  and  C_36
    7  A    between atoms: C_23  and  C_36
    8  A    between atoms: C_37  and  N_42
                            x       y       z     vdW  Elec       q    Type
                         _______ _______ _______ _____ _____    ______ ____

>  <TORSDO>
F 8

$$$$
=
 OpenBabel10222416483D

 45 52  0  0  1  0  0  0  0  0999 V2000
  186.2820  178.7430  144.1210 C   0  0  2  0  0  3  0  0  0  0  0  0
  189.8440  177.1800  140.6460 C   0  0  1  0  0  3  0  0  0  0  0  0
  186.6560  178.3720  142.6510 C   0  0  1  0  0  3  0  0  0  0  0  0
  188.4600  177.6720  145.9000 C   0  0  1  0  0  3  0  0  0  0  0  0
  191.8380  176.2280  141.8240 C   0  0  0  0  0  2  0  0  0  0  0  0
  187.9190  177.9320  142.2600 C   0  0  0  0  0  0  0  0  0  0  0  0
  192.0570  177.6110  141.7290 O   0  0  0  0  0  0  0  0  0  0  0  0
  186.0050  178.0060  146.5360 C   0  0  0  0  0  2  0  0  0  0  0  0
  187.9200  178.3630  139.7200 C   0  0  2  0  0  3  0  0  0  0  0  0
  190.7050  177.1710  141.9070 C   0  0  1  0  0  0  0  0  0  0  0  0
  188.7820  177.5790  143.4370 C   0  0  2  0  0  3  0  0  0  0  0  0
  186.4500  177.9020  147.8440 C   0  0  0  0  0  2  0  0  0  0  0  0
  191.0040  177.0080  144.6420 C   0  0  0  0  0  3  0  0  0  0  0  0
  187.8670  177.8980  148.5370 C   0  0  0  0  0  2  0  0  0  0  0  0
  186.9180  177.7950  145.2270 C   0  0  2  0  0  0  0  0  0  0  0  0
  185.4080  178.0130  141.9450 C   0  0  0  0  0  2  0  0  0  0  0  0
  189.1740  177.2030  148.0860 C   0  0  0  0  0  2  0  0  0  0  0  0
  188.5240  177.7930  140.8040 C   0  0  0  0  0  0  0  0  0  0  0  0
  188.2460  178.3700  144.7440 C   0  0  1  0  0  3  0  0  0  0  0  0
  188.6340  179.0400  138.6570 O   0  0  0  0  0  1  0  0  0  0  0  0
  186.5270  178.5740  139.6860 C   0  0  0  0  0  2  0  0  0  0  0  0
  189.4790  177.4470  146.7190 C   0  0  0  0  0  0  0  0  0  0  0  0
  185.4950  178.5370  140.5470 C   0  0  2  0  0  3  0  0  0  0  0  0
  190.1020  177.2130  143.3240 C   0  0  0  0  0  0  0  0  0  0  0  0
  185.0390  179.3720  144.3190 F   0  0  0  0  0  0  0  0  0  0  0  0
  190.7630  177.1340  146.0390 C   0  0  0  0  0  3  0  0  0  0  0  0
  180.3400  178.1230  138.8290 O   0  0  0  0  0  0  0  0  0  0  0  0
  182.5500  178.9430  138.3530 N   0  0  0  0  0  2  0  0  0  0  0  0
  184.0390  180.8410  138.7180 O   0  0  0  0  0  0  0  0  0  0  0  0
  181.0610  179.1310  138.5460 C   0  0  0  0  0  0  0  0  0  0  0  0
  183.6740  179.7520  139.0550 C   0  0  0  0  0  0  0  0  0  0  0  0
  184.2900  179.2430  140.2570 N   0  0  0  0  0  2  0  0  0  0  0  0
  180.3390  180.3310  137.9880 C   0  0  0  0  0  2  0  0  0  0  0  0
  180.4730  181.5660  138.8760 C   0  0  0  0  0  2  0  0  0  0  0  0
  181.1660  182.6100  138.0190 C   0  0  0  0  0  1  0  0  0  0  0  0
  190.5430  177.5690  139.4670 O   0  0  0  0  0  0  0  0  0  0  0  0
  190.6600  176.3410  138.8130 C   0  0  0  0  0  2  0  0  0  0  0  0
  191.5290  176.5130  137.5930 C   0  0  0  0  0  2  0  0  0  0  0  0
  193.6400  175.0110  137.1910 N   0  0  0  0  0  2  0  0  0  0  0  0
  192.9800  176.1600  137.8330 C   0  0  0  0  0  0  0  0  0  0  0  0
  193.5640  176.7680  138.7420 O   0  0  0  0  0  0  0  0  0  0  0  0
  196.0290  175.2460  136.8320 O   0  0  0  0  0  0  0  0  0  0  0  0
  195.0320  174.5580  137.4650 C   0  0  0  0  0  0  0  0  0  0  0  0
  195.6480  174.0610  136.3310 O   0  0  0  0  0  0  0  0  0  0  0  0
  195.4510  173.7810  138.7110 C   0  0  0  0  0  1  0  0  0  0  0  0
  1 25  1  6  0  0  0
  1 15  1  0  0  0  0
  2 36  1  6  0  0  0
  2 18  1  0  0  0  0
  2 10  1  0  0  0  0
  3 16  1  1  0  0  0
  3  1  1  0  0  0  0
  4 22  1  1  0  0  0
  6  3  1  0  0  0  0
  7  5  1  0  0  0  0
  7 10  1  0  0  0  0
  8 12  1  0  0  0  0
  9 20  1  1  0  0  0
  9 18  1  0  0  0  0
 10  5  1  6  0  0  0
 10 24  1  0  0  0  0
 11  6  1  6  0  0  0
 11 19  1  0  0  0  0
 12 14  1  0  0  0  0
 13 26  1  0  0  0  0
 15  4  1  0  0  0  0
 15  8  1  1  0  0  0
 17 14  1  0  0  0  0
 18  6  2  0  0  0  0
 19 15  1  0  0  0  0
 19  4  1  0  0  0  0
 21  9  1  0  0  0  0
 21 23  1  0  0  0  0
 22 17  1  0  0  0  0
 23 16  1  0  0  0  0
 24 11  1  0  0  0  0
 24 13  2  0  0  0  0
 26 22  2  0  0  0  0
 28 30  1  0  0  0  0
 28 31  1  0  0  0  0
 29 31  2  0  0  0  0
 30 27  2  0  0  0  0
 31 32  1  0  0  0  0
 32 23  1  0  0  0  0
 33 30  1  0  0  0  0
 33 34  1  0  0  0  0
 35 34  1  0  0  0  0
 37 36  1  0  0  0  0
 38 40  1  0  0  0  0
 38 37  1  0  0  0  0
 39 43  1  0  0  0  0
 39 40  1  0  0  0  0
 40 41  2  0  0  0  0
 42 43  1  0  0  0  0
 43 45  1  0  0  0  0
 44 42  1  0  0  0  0
 44 43  1  0  0  0  0
M  END
>  <MODEL>
4

>  <REMARK>
 VINA RESULT:      -9.9      2.350      9.251
  Name = 
  8 active torsions:
  status: ('A' for Active; 'I' for Inactive)
    1  A    between atoms: C_2  and  O_5
    2  A    between atoms: O_5  and  C_23
    3  A    between atoms: C_10  and  N_11
    4  A    between atoms: C_12  and  C_27
    5  A    between atoms: C_12  and  C_40
    6  A    between atoms: C_15  and  C_36
    7  A    between atoms: C_23  and  C_36
    8  A    between atoms: C_37  and  N_42
                            x       y       z     vdW  Elec       q    Type
                         _______ _______ _______ _____ _____    ______ ____

>  <TORSDO>
F 8

$$$$
=
 OpenBabel10222416483D

 45 52  0  0  1  0  0  0  0  0999 V2000
  186.2310  178.7470  144.1200 C   0  0  2  0  0  3  0  0  0  0  0  0
  189.7210  177.2070  140.5620 C   0  0  1  0  0  3  0  0  0  0  0  0
  186.5730  178.3790  142.6410 C   0  0  1  0  0  3  0  0  0  0  0  0
  188.4550  177.6860  145.8470 C   0  0  1  0  0  3  0  0  0  0  0  0
  191.7470  176.2650  141.6930 C   0  0  0  0  0  2  0  0  0  0  0  0
  187.8290  177.9460  142.2210 C   0  0  0  0  0  0  0  0  0  0  0  0
  191.9560  177.6490  141.5940 O   0  0  0  0  0  0  0  0  0  0  0  0
  186.0130  178.0060  146.5400 C   0  0  0  0  0  2  0  0  0  0  0  0
  187.7700  178.3790  139.6810 C   0  0  2  0  0  3  0  0  0  0  0  0
  190.6100  177.2020  141.8030 C   0  0  1  0  0  0  0  0  0  0  0  0
  188.7210  177.5980  143.3770 C   0  0  2  0  0  3  0  0  0  0  0  0
  186.4890  177.9030  147.8370 C   0  0  0  0  0  2  0  0  0  0  0  0
  190.9740  177.0380  144.5300 C   0  0  0  0  0  3  0  0  0  0  0  0
  187.9220  177.9070  148.4970 C   0  0  0  0  0  2  0  0  0  0  0  0
  186.8970  177.8010  145.2100 C   0  0  2  0  0  0  0  0  0  0  0  0
  185.3120  178.0130  141.9630 C   0  0  0  0  0  2  0  0  0  0  0  0
  189.2220  177.2190  148.0160 C   0  0  0  0  0  2  0  0  0  0  0  0
  188.4020  177.8120  140.7510 C   0  0  0  0  0  0  0  0  0  0  0  0
  188.2110  178.3840  144.6960 C   0  0  1  0  0  3  0  0  0  0  0  0
  188.4550  179.0620  138.6030 O   0  0  0  0  0  1  0  0  0  0  0  0
  186.3750  178.5820  139.6800 C   0  0  0  0  0  2  0  0  0  0  0  0
  189.4940  177.4670  146.6420 C   0  0  0  0  0  0  0  0  0  0  0  0
  185.3640  178.5390  140.5650 C   0  0  2  0  0  3  0  0  0  0  0  0
  190.0400  177.2390  143.2340 C   0  0  0  0  0  0  0  0  0  0  0  0
  184.9900  179.3680  144.3470 F   0  0  0  0  0  0  0  0  0  0  0  0
  190.7640  177.1610  145.9320 C   0  0  0  0  0  3  0  0  0  0  0  0
  180.2110  178.1180  138.8390 O   0  0  0  0  0  0  0  0  0  0  0  0
  182.4090  178.9870  138.3920 N   0  0  0  0  0  2  0  0  0  0  0  0
  183.8720  180.8900  138.8250 O   0  0  0  0  0  0  0  0  0  0  0  0
  180.9180  179.1460  138.5930 C   0  0  0  0  0  0  0  0  0  0  0  0
  183.5230  179.7840  139.1220 C   0  0  0  0  0  0  0  0  0  0  0  0
  184.1480  179.2390  140.3030 N   0  0  0  0  0  2  0  0  0  0  0  0
  180.1780  180.3570  138.0820 C   0  0  0  0  0  2  0  0  0  0  0  0
  180.2390  181.5370  139.0480 C   0  0  0  0  0  2  0  0  0  0  0  0
  179.7860  180.9890  140.3890 C   0  0  0  0  0  1  0  0  0  0  0  0
  190.3900  177.6010  139.3680 O   0  0  0  0  0  0  0  0  0  0  0  0
  190.5040  176.3720  138.7130 C   0  0  0  0  0  2  0  0  0  0  0  0
  190.6320  176.6150  137.2300 C   0  0  0  0  0  2  0  0  0  0  0  0
  188.0930  175.9880  137.0430 N   0  0  0  0  0  2  0  0  0  0  0  0
  189.3040  176.6310  136.5060 C   0  0  0  0  0  0  0  0  0  0  0  0
  189.3040  177.0530  135.3410 O   0  0  0  0  0  0  0  0  0  0  0  0
  186.0710  177.0430  136.2130 O   0  0  0  0  0  0  0  0  0  0  0  0
  186.7890  175.8850  136.3310 C   0  0  0  0  0  0  0  0  0  0  0  0
  185.7200  176.1640  137.1650 O   0  0  0  0  0  0  0  0  0  0  0  0
  186.4410  174.7850  135.3320 C   0  0  0  0  0  1  0  0  0  0  0  0
  1 25  1  6  0  0  0
  1 15  1  0  0  0  0
  2 36  1  6  0  0  0
  2 18  1  0  0  0  0
  2 10  1  0  0  0  0
  3 16  1  1  0  0  0
  3  1  1  0  0  0  0
  4 22  1  1  0  0  0
  6  3  1  0  0  0  0
  7  5  1  0  0  0  0
  7 10  1  0  0  0  0
  8 12  1  0  0  0  0
  9 20  1  1  0  0  0
  9 18  1  0  0  0  0
 10  5  1  6  0  0  0
 10 24  1  0  0  0  0
 11  6  1  6  0  0  0
 11 19  1  0  0  0  0
 12 14  1  0  0  0  0
 13 26  1  0  0  0  0
 15  4  1  0  0  0  0
 15  8  1  1  0  0  0
 17 14  1  0  0  0  0
 18  6  2  0  0  0  0
 19 15  1  0  0  0  0
 19  4  1  0  0  0  0
 21  9  1  0  0  0  0
 21 23  1  0  0  0  0
 22 17  1  0  0  0  0
 23 16  1  0  0  0  0
 24 11  1  0  0  0  0
 24 13  2  0  0  0  0
 26 22  2  0  0  0  0
 28 30  1  0  0  0  0
 28 31  1  0  0  0  0
 29 31  2  0  0  0  0
 30 27  2  0  0  0  0
 31 32  1  0  0  0  0
 32 23  1  0  0  0  0
 33 30  1  0  0  0  0
 33 34  1  0  0  0  0
 34 35  1  0  0  0  0
 37 36  1  0  0  0  0
 38 37  1  0  0  0  0
 40 39  1  0  0  0  0
 40 38  1  0  0  0  0
 41 40  2  0  0  0  0
 42 43  1  0  0  0  0
 42 44  1  0  0  0  0
 43 39  1  0  0  0  0
 43 44  1  0  0  0  0
 45 43  1  0  0  0  0
M  END
>  <MODEL>
5

>  <REMARK>
 VINA RESULT:      -9.5      2.678      7.745
  Name = 
  8 active torsions:
  status: ('A' for Active; 'I' for Inactive)
    1  A    between atoms: C_2  and  O_5
    2  A    between atoms: O_5  and  C_23
    3  A    between atoms: C_10  and  N_11
    4  A    between atoms: C_12  and  C_27
    5  A    between atoms: C_12  and  C_40
    6  A    between atoms: C_15  and  C_36
    7  A    between atoms: C_23  and  C_36
    8  A    between atoms: C_37  and  N_42
                            x       y       z     vdW  Elec       q    Type
                         _______ _______ _______ _____ _____    ______ ____

>  <TORSDO>
F 8

$$$$
=
 OpenBabel10222416483D

 45 52  0  0  1  0  0  0  0  0999 V2000
  185.8490  178.6150  140.1990 C   0  0  2  0  0  3  0  0  0  0  0  0
  186.7380  177.9910  145.3010 C   0  0  1  0  0  3  0  0  0  0  0  0
  186.8080  178.1930  141.3560 C   0  0  1  0  0  3  0  0  0  0  0  0
  183.0650  178.7220  141.3340 C   0  0  1  0  0  3  0  0  0  0  0  0
  184.5770  178.0460  146.5650 C   0  0  0  0  0  2  0  0  0  0  0  0
  186.4500  178.2030  142.7030 C   0  0  0  0  0  0  0  0  0  0  0  0
  185.0020  179.3780  146.4490 O   0  0  0  0  0  0  0  0  0  0  0  0
  183.6990  178.2050  138.9100 C   0  0  0  0  0  2  0  0  0  0  0  0
  188.7290  178.2110  143.9060 C   0  0  2  0  0  3  0  0  0  0  0  0
  185.2980  178.4970  145.3580 C   0  0  1  0  0  0  0  0  0  0  0  0
  184.9720  178.3830  142.8910 C   0  0  2  0  0  3  0  0  0  0  0  0
  182.3700  178.4750  138.6260 C   0  0  0  0  0  2  0  0  0  0  0  0
  182.8110  178.8760  144.2340 C   0  0  0  0  0  3  0  0  0  0  0  0
  181.1700  179.1080  139.4320 C   0  0  0  0  0  2  0  0  0  0  0  0
  184.3400  178.1540  140.3860 C   0  0  2  0  0  0  0  0  0  0  0  0
  187.8310  177.2890  140.7880 C   0  0  0  0  0  2  0  0  0  0  0  0
  180.7620  178.8930  140.9090 C   0  0  0  0  0  2  0  0  0  0  0  0
  187.3710  178.0820  143.9840 C   0  0  0  0  0  0  0  0  0  0  0  0
  184.3540  179.1040  141.5810 C   0  0  1  0  0  3  0  0  0  0  0  0
  189.5300  178.9370  144.8710 O   0  0  0  0  0  1  0  0  0  0  0  0
  189.4280  177.8770  142.7290 C   0  0  0  0  0  2  0  0  0  0  0  0
  181.8600  179.0220  141.8030 C   0  0  0  0  0  0  0  0  0  0  0  0
  189.1380  177.5890  141.4490 C   0  0  2  0  0  3  0  0  0  0  0  0
  184.3780  178.5250  144.1230 C   0  0  0  0  0  0  0  0  0  0  0  0
  186.4210  178.7550  138.9210 F   0  0  0  0  0  0  0  0  0  0  0  0
  181.7780  179.1130  143.2840 C   0  0  0  0  0  3  0  0  0  0  0  0
  191.0110  175.7390  136.6770 O   0  0  0  0  0  0  0  0  0  0  0  0
  191.4240  175.9760  139.0340 N   0  0  0  0  0  2  0  0  0  0  0  0
  192.3340  177.5040  140.7040 O   0  0  0  0  0  0  0  0  0  0  0  0
  191.7930  176.1730  137.5800 C   0  0  0  0  0  0  0  0  0  0  0  0
  191.3760  177.0800  140.1250 C   0  0  0  0  0  0  0  0  0  0  0  0
  190.1300  177.7390  140.4350 N   0  0  0  0  0  2  0  0  0  0  0  0
  193.2160  176.4410  137.1570 C   0  0  0  0  0  2  0  0  0  0  0  0
  193.9480  175.1770  136.7140 C   0  0  0  0  0  2  0  0  0  0  0  0
  194.6030  174.6260  137.9670 C   0  0  0  0  0  1  0  0  0  0  0  0
  187.5520  178.4290  146.3840 O   0  0  0  0  0  0  0  0  0  0  0  0
  187.2020  177.5020  147.3680 C   0  0  0  0  0  2  0  0  0  0  0  0
  188.1690  177.6160  148.5190 C   0  0  0  0  0  2  0  0  0  0  0  0
  190.1180  176.5370  147.1360 N   0  0  0  0  0  2  0  0  0  0  0  0
  189.6200  177.5350  148.0960 C   0  0  0  0  0  0  0  0  0  0  0  0
  190.4290  178.2300  148.7280 O   0  0  0  0  0  0  0  0  0  0  0  0
  192.0550  177.2260  145.8460 O   0  0  0  0  0  0  0  0  0  0  0  0
  191.5460  176.3460  146.7600 C   0  0  0  0  0  0  0  0  0  0  0  0
  191.6900  176.0040  145.4270 O   0  0  0  0  0  0  0  0  0  0  0  0
  192.5740  175.6280  147.6310 C   0  0  0  0  0  1  0  0  0  0  0  0
  1 25  1  6  0  0  0
  1 15  1  0  0  0  0
  1  3  1  0  0  0  0
  2 10  1  0  0  0  0
  2 36  1  1  0  0  0
  3 16  1  6  0  0  0
  3  6  1  0  0  0  0
  4 19  1  0  0  0  0
  4 22  1  6  0  0  0
  6 18  2  0  0  0  0
  7  5  1  0  0  0  0
  9 18  1  0  0  0  0
  9 20  1  6  0  0  0
 10  7  1  0  0  0  0
 10  5  1  1  0  0  0
 11  6  1  1  0  0  0
 11 24  1  0  0  0  0
 12  8  1  0  0  0  0
 12 14  1  0  0  0  0
 14 17  1  0  0  0  0
 15  8  1  6  0  0  0
 15  4  1  0  0  0  0
 15 19  1  0  0  0  0
 16 23  1  0  0  0  0
 17 22  1  0  0  0  0
 18  2  1  0  0  0  0
 19 11  1  0  0  0  0
 21  9  1  0  0  0  0
 22 26  2  0  0  0  0
 23 21  1  0  0  0  0
 24 13  2  0  0  0  0
 24 10  1  0  0  0  0
 26 13  1  0  0  0  0
 27 30  2  0  0  0  0
 28 31  1  0  0  0  0
 30 28  1  0  0  0  0
 31 32  1  0  0  0  0
 31 29  2  0  0  0  0
 32 23  1  0  0  0  0
 33 30  1  0  0  0  0
 34 33  1  0  0  0  0
 34 35  1  0  0  0  0
 36 37  1  0  0  0  0
 37 38  1  0  0  0  0
 39 40  1  0  0  0  0
 40 38  1  0  0  0  0
 40 41  2  0  0  0  0
 42 43  1  0  0  0  0
 43 39  1  0  0  0  0
 43 45  1  0  0  0  0
 44 42  1  0  0  0  0
 44 43  1  0  0  0  0
M  END
>  <MODEL>
6

>  <REMARK>
 VINA RESULT:      -9.3      3.975      8.068
  Name = 
  8 active torsions:
  status: ('A' for Active; 'I' for Inactive)
    1  A    between atoms: C_2  and  O_5
    2  A    between atoms: O_5  and  C_23
    3  A    between atoms: C_10  and  N_11
    4  A    between atoms: C_12  and  C_27
    5  A    between atoms: C_12  and  C_40
    6  A    between atoms: C_15  and  C_36
    7  A    between atoms: C_23  and  C_36
    8  A    between atoms: C_37  and  N_42
                            x       y       z     vdW  Elec       q    Type
                         _______ _______ _______ _____ _____    ______ ____

>  <TORSDO>
F 8

$$$$
=
 OpenBabel10222416483D

 45 52  0  0  1  0  0  0  0  0999 V2000
  190.0700  176.5740  143.1220 C   0  0  2  0  0  3  0  0  0  0  0  0
  186.1450  178.5130  140.2840 C   0  0  1  0  0  3  0  0  0  0  0  0
  189.5260  177.0910  141.7520 C   0  0  1  0  0  3  0  0  0  0  0  0
  188.1560  177.4960  145.2530 C   0  0  1  0  0  3  0  0  0  0  0  0
  184.3370  179.3720  141.7880 C   0  0  0  0  0  2  0  0  0  0  0  0
  188.2360  177.5830  141.5670 C   0  0  0  0  0  0  0  0  0  0  0  0
  184.0730  178.0080  141.5900 O   0  0  0  0  0  0  0  0  0  0  0  0
  190.6610  177.0690  145.5420 C   0  0  0  0  0  2  0  0  0  0  0  0
  187.9100  177.4010  139.0170 C   0  0  2  0  0  3  0  0  0  0  0  0
  185.4480  178.4110  141.6390 C   0  0  1  0  0  0  0  0  0  0  0  0
  187.5340  177.8310  142.8700 C   0  0  2  0  0  3  0  0  0  0  0  0
  190.3840  177.0520  146.9000 C   0  0  0  0  0  2  0  0  0  0  0  0
  185.4920  178.3120  144.3920 C   0  0  0  0  0  3  0  0  0  0  0  0
  189.0640  177.0070  147.7620 C   0  0  0  0  0  2  0  0  0  0  0  0
  189.5990  177.4190  144.3840 C   0  0  2  0  0  0  0  0  0  0  0  0
  190.6860  177.5010  140.9320 C   0  0  0  0  0  2  0  0  0  0  0  0
  187.7290  177.7600  147.5460 C   0  0  0  0  0  2  0  0  0  0  0  0
  187.4590  177.8700  140.2180 C   0  0  0  0  0  0  0  0  0  0  0  0
  188.2070  176.9110  144.0180 C   0  0  1  0  0  3  0  0  0  0  0  0
  187.0530  176.8390  137.9920 O   0  0  0  0  0  1  0  0  0  0  0  0
  189.2830  177.1770  138.7890 C   0  0  0  0  0  2  0  0  0  0  0  0
  187.2510  177.6530  146.2110 C   0  0  0  0  0  0  0  0  0  0  0  0
  190.4140  177.1160  139.5130 C   0  0  0  0  0  0  0  0  0  0  0  0
  186.2200  178.2240  142.9590 C   0  0  0  0  0  0  0  0  0  0  0  0
  191.3110  175.9130  143.1020 F   0  0  0  0  0  0  0  0  0  0  0  0
  185.9020  178.0480  145.7300 C   0  0  0  0  0  3  0  0  0  0  0  0
  194.5920  177.2840  136.0190 O   0  0  0  0  0  0  0  0  0  0  0  0
  192.5100  176.2320  136.6020 N   0  0  0  0  0  2  0  0  0  0  0  0
  191.5460  174.4520  137.9640 O   0  0  0  0  0  0  0  0  0  0  0  0
  193.9900  176.1980  136.2910 C   0  0  0  0  0  0  0  0  0  0  0  0
  191.8200  175.6120  137.8470 C   0  0  0  0  0  0  0  0  0  0  0  0
  191.5550  176.4260  139.0090 N   0  0  0  0  0  0  0  0  0  0  0  0
  194.6740  174.9280  135.8500 C   0  0  0  0  0  2  0  0  0  0  0  0
  194.9670  173.9830  137.0120 C   0  0  0  0  0  2  0  0  0  0  0  0
  195.7740  172.8430  136.4170 C   0  0  0  0  0  1  0  0  0  0  0  0
  185.2970  178.2490  139.1710 O   0  0  0  0  0  0  0  0  0  0  0  0
  184.6990  179.4990  138.9950 C   0  0  0  0  0  2  0  0  0  0  0  0
  183.2700  179.3030  138.5540 C   0  0  0  0  0  2  0  0  0  0  0  0
  183.0380  176.6910  138.5450 N   0  0  0  0  0  2  0  0  0  0  0  0
  183.0340  177.9870  137.8470 C   0  0  0  0  0  0  0  0  0  0  0  0
  183.0150  178.0110  136.6070 O   0  0  0  0  0  0  0  0  0  0  0  0
  182.0450  175.2870  136.8330 O   0  0  0  0  0  0  0  0  0  0  0  0
  182.9120  175.3610  137.8880 C   0  0  0  0  0  0  0  0  0  0  0  0
  181.6420  174.8320  138.0300 O   0  0  0  0  0  0  0  0  0  0  0  0
  183.9780  174.2710  137.9470 C   0  0  0  0  0  1  0  0  0  0  0  0
  1 25  1  6  0  0  0
  1 15  1  0  0  0  0
  2 36  1  6  0  0  0
  2 10  1  0  0  0  0
  3 16  1  1  0  0  0
  3  1  1  0  0  0  0
  4 22  1  1  0  0  0
  6  3  1  0  0  0  0
  7 10  1  0  0  0  0
  7  5  1  0  0  0  0
  8 12  1  0  0  0  0
  9 20  1  1  0  0  0
  9 18  1  0  0  0  0
 10  5  1  1  0  0  0
 10 24  1  0  0  0  0
 11  6  1  6  0  0  0
 11 24  1  0  0  0  0
 11 19  1  0  0  0  0
 12 14  1  0  0  0  0
 13 26  1  0  0  0  0
 15  4  1  0  0  0  0
 15  8  1  1  0  0  0
 17 14  1  0  0  0  0
 18  2  1  0  0  0  0
 18  6  2  0  0  0  0
 19 15  1  0  0  0  0
 19  4  1  0  0  0  0
 21  9  1  0  0  0  0
 21 23  1  0  0  0  0
 22 17  1  0  0  0  0
 23 16  1  0  0  0  0
 24 13  2  0  0  0  0
 26 22  2  0  0  0  0
 27 30  2  0  0  0  0
 28 31  1  0  0  0  0
 30 28  1  0  0  0  0
 31 29  2  0  0  0  0
 31 32  1  0  0  0  0
 32 23  2  0  0  0  0
 33 30  1  0  0  0  0
 33 34  1  0  0  0  0
 35 34  1  0  0  0  0
 37 36  1  0  0  0  0
 38 37  1  0  0  0  0
 40 39  1  0  0  0  0
 40 38  1  0  0  0  0
 41 40  2  0  0  0  0
 42 43  1  0  0  0  0
 42 44  1  0  0  0  0
 43 45  1  0  0  0  0
 43 44  1  0  0  0  0
 43 39  1  0  0  0  0
M  END
>  <MODEL>
7

>  <REMARK>
 VINA RESULT:      -9.1      2.335      3.209
  Name = 
  8 active torsions:
  status: ('A' for Active; 'I' for Inactive)
    1  A    between atoms: C_2  and  O_5
    2  A    between atoms: O_5  and  C_23
    3  A    between atoms: C_10  and  N_11
    4  A    between atoms: C_12  and  C_27
    5  A    between atoms: C_12  and  C_40
    6  A    between atoms: C_15  and  C_36
    7  A    between atoms: C_23  and  C_36
    8  A    between atoms: C_37  and  N_42
                            x       y       z     vdW  Elec       q    Type
                         _______ _______ _______ _____ _____    ______ ____

>  <TORSDO>
F 8

$$$$
=
 OpenBabel10222416483D

 45 52  0  0  1  0  0  0  0  0999 V2000
  190.7540  177.3110  139.7000 C   0  0  2  0  0  3  0  0  0  0  0  0
  185.8560  177.7870  137.9680 C   0  0  1  0  0  3  0  0  0  0  0  0
  189.2280  177.4520  140.0000 C   0  0  1  0  0  3  0  0  0  0  0  0
  191.0300  176.4980  136.8160 C   0  0  1  0  0  3  0  0  0  0  0  0
  185.7380  177.1840  135.5410 C   0  0  0  0  0  2  0  0  0  0  0  0
  188.2460  177.5110  139.0130 C   0  0  0  0  0  0  0  0  0  0  0  0
  186.0660  178.5470  135.5950 O   0  0  0  0  0  0  0  0  0  0  0  0
  192.6480  175.9340  138.7160 C   0  0  0  0  0  2  0  0  0  0  0  0
  186.2440  178.5580  140.2520 C   0  0  2  0  0  3  0  0  0  0  0  0
  186.5880  177.7050  136.6310 C   0  0  1  0  0  0  0  0  0  0  0  0
  188.7820  177.1350  137.6620 C   0  0  2  0  0  3  0  0  0  0  0  0
  193.5470  175.6320  137.7060 C   0  0  0  0  0  2  0  0  0  0  0  0
  188.7330  176.9430  135.0780 C   0  0  0  0  0  3  0  0  0  0  0  0
  193.5800  175.8610  136.1450 C   0  0  0  0  0  2  0  0  0  0  0  0
  191.1050  176.3370  138.4940 C   0  0  2  0  0  0  0  0  0  0  0  0
  188.9870  176.9410  141.3660 C   0  0  0  0  0  2  0  0  0  0  0  0
  192.4390  175.7130  135.1110 C   0  0  0  0  0  2  0  0  0  0  0  0
  186.7250  177.9310  139.1380 C   0  0  0  0  0  0  0  0  0  0  0  0
  190.3820  177.3750  137.6410 C   0  0  1  0  0  3  0  0  0  0  0  0
  185.3050  179.6610  140.2180 O   0  0  0  0  0  1  0  0  0  0  0  0
  186.8340  178.3590  141.5160 C   0  0  0  0  0  2  0  0  0  0  0  0
  191.2480  176.3760  135.5130 C   0  0  0  0  0  0  0  0  0  0  0  0
  187.9540  177.8060  142.0130 C   0  0  2  0  0  3  0  0  0  0  0  0
  188.0400  177.2070  136.5070 C   0  0  0  0  0  0  0  0  0  0  0  0
  191.6310  177.4810  140.7860 F   0  0  0  0  0  0  0  0  0  0  0  0
  190.0580  176.6320  134.6600 C   0  0  0  0  0  3  0  0  0  0  0  0
  191.5780  176.7750  145.9520 O   0  0  0  0  0  0  0  0  0  0  0  0
  189.2610  176.7520  145.3050 N   0  0  0  0  0  2  0  0  0  0  0  0
  187.2580  178.1410  145.2040 O   0  0  0  0  0  0  0  0  0  0  0  0
  190.3970  177.1680  146.2140 C   0  0  0  0  0  0  0  0  0  0  0  0
  188.2210  177.6980  144.6470 C   0  0  0  0  0  0  0  0  0  0  0  0
  188.4300  178.1830  143.3040 N   0  0  0  0  0  2  0  0  0  0  0  0
  190.1480  177.6300  147.6270 C   0  0  0  0  0  2  0  0  0  0  0  0
  188.8180  177.1300  148.1860 C   0  0  0  0  0  2  0  0  0  0  0  0
  188.0310  178.3770  148.5440 C   0  0  0  0  0  1  0  0  0  0  0  0
  184.7230  178.6490  137.9610 O   0  0  0  0  0  0  0  0  0  0  0  0
  183.6830  177.7170  137.9360 C   0  0  0  0  0  2  0  0  0  0  0  0
  182.4510  178.3370  138.5440 C   0  0  0  0  0  2  0  0  0  0  0  0
  181.7400  179.1140  140.9450 N   0  0  0  0  0  2  0  0  0  0  0  0
  182.3450  178.1240  140.0380 C   0  0  0  0  0  0  0  0  0  0  0  0
  182.9550  177.1550  140.5120 O   0  0  0  0  0  0  0  0  0  0  0  0
  180.5780  178.4310  142.9640 O   0  0  0  0  0  0  0  0  0  0  0  0
  181.6990  179.0040  142.4300 C   0  0  0  0  0  0  0  0  0  0  0  0
  180.6850  179.7700  142.9780 O   0  0  0  0  0  0  0  0  0  0  0  0
  182.9360  178.9980  143.3240 C   0  0  0  0  0  1  0  0  0  0  0  0
  1  3  1  0  0  0  0
  1 25  1  1  0  0  0
  2 36  1  6  0  0  0
  2 18  1  0  0  0  0
  3 16  1  1  0  0  0
  4 22  1  1  0  0  0
  4 19  1  0  0  0  0
  4 15  1  0  0  0  0
  5  7  1  0  0  0  0
  6 18  2  0  0  0  0
  6  3  1  0  0  0  0
  7 10  1  0  0  0  0
  9 20  1  6  0  0  0
  9 21  1  0  0  0  0
 10  5  1  6  0  0  0
 10  2  1  0  0  0  0
 11 24  1  6  0  0  0
 11  6  1  0  0  0  0
 12  8  1  0  0  0  0
 13 24  2  0  0  0  0
 14 12  1  0  0  0  0
 15  8  1  6  0  0  0
 15  1  1  0  0  0  0
 16 23  1  0  0  0  0
 17 22  1  0  0  0  0
 17 14  1  0  0  0  0
 18  9  1  0  0  0  0
 19 11  1  0  0  0  0
 19 15  1  0  0  0  0
 21 23  1  0  0  0  0
 23 32  1  0  0  0  0
 24 10  1  0  0  0  0
 26 13  1  0  0  0  0
 26 22  2  0  0  0  0
 27 30  2  0  0  0  0
 28 30  1  0  0  0  0
 30 33  1  0  0  0  0
 31 29  2  0  0  0  0
 31 28  1  0  0  0  0
 32 31  1  0  0  0  0
 33 34  1  0  0  0  0
 34 35  1  0  0  0  0
 37 36  1  0  0  0  0
 37 38  1  0  0  0  0
 38 40  1  0  0  0  0
 39 43  1  0  0  0  0
 40 41  2  0  0  0  0
 40 39  1  0  0  0  0
 42 44  1  0  0  0  0
 43 42  1  0  0  0  0
 43 44  1  0  0  0  0
 43 45  1  0  0  0  0
M  END
>  <MODEL>
8

>  <REMARK>
 VINA RESULT:      -8.6      3.240      7.371
  Name = 
  8 active torsions:
  status: ('A' for Active; 'I' for Inactive)
    1  A    between atoms: C_2  and  O_5
    2  A    between atoms: O_5  and  C_23
    3  A    between atoms: C_10  and  N_11
    4  A    between atoms: C_12  and  C_27
    5  A    between atoms: C_12  and  C_40
    6  A    between atoms: C_15  and  C_36
    7  A    between atoms: C_23  and  C_36
    8  A    between atoms: C_37  and  N_42
                            x       y       z     vdW  Elec       q    Type
                         _______ _______ _______ _____ _____    ______ ____

>  <TORSDO>
F 8

$$$$
=
 OpenBabel10222416483D

 45 52  0  0  1  0  0  0  0  0999 V2000
  186.1160  177.9150  143.2020 C   0  0  2  0  0  3  0  0  0  0  0  0
  187.8150  177.9210  138.2690 C   0  0  1  0  0  3  0  0  0  0  0  0
  187.3030  177.9280  142.1870 C   0  0  1  0  0  3  0  0  0  0  0  0
  183.6320  178.6820  141.6870 C   0  0  1  0  0  3  0  0  0  0  0  0
  185.9470  178.5200  136.7140 C   0  0  0  0  0  2  0  0  0  0  0  0
  187.1390  177.9620  140.8030 C   0  0  0  0  0  0  0  0  0  0  0  0
  185.8770  177.1310  136.9010 O   0  0  0  0  0  0  0  0  0  0  0  0
  184.0840  179.0920  144.1710 C   0  0  0  0  0  2  0  0  0  0  0  0
  189.4160  177.1260  139.9320 C   0  0  2  0  0  3  0  0  0  0  0  0
  186.3100  177.9220  138.0150 C   0  0  1  0  0  0  0  0  0  0  0  0
  185.7250  178.2760  140.4100 C   0  0  2  0  0  3  0  0  0  0  0  0
  182.7170  179.2970  144.2670 C   0  0  0  0  0  2  0  0  0  0  0  0
  183.7180  178.4600  138.7810 C   0  0  0  0  0  3  0  0  0  0  0  0
  181.4890  179.0580  143.3060 C   0  0  0  0  0  2  0  0  0  0  0  0
  184.8890  178.8430  142.7990 C   0  0  2  0  0  0  0  0  0  0  0  0
  188.4880  178.4680  142.8860 C   0  0  0  0  0  2  0  0  0  0  0  0
  181.3730  179.3140  141.7850 C   0  0  0  0  0  2  0  0  0  0  0  0
  188.2050  177.6970  139.6630 C   0  0  0  0  0  0  0  0  0  0  0  0
  184.7350  177.8780  141.6270 C   0  0  1  0  0  3  0  0  0  0  0  0
  190.0420  176.1220  139.0970 O   0  0  0  0  0  1  0  0  0  0  0  0
  190.0290  177.2720  141.1930 C   0  0  0  0  0  2  0  0  0  0  0  0
  182.4680  178.7750  141.0560 C   0  0  0  0  0  0  0  0  0  0  0  0
  189.6900  177.7130  142.4180 C   0  0  2  0  0  3  0  0  0  0  0  0
  185.2830  178.2730  139.1090 C   0  0  0  0  0  0  0  0  0  0  0  0
  186.4360  177.6640  144.5480 F   0  0  0  0  0  0  0  0  0  0  0  0
  182.5520  178.6350  139.5780 C   0  0  0  0  0  3  0  0  0  0  0  0
  189.4330  176.2690  147.6660 O   0  0  0  0  0  0  0  0  0  0  0  0
  190.1860  177.9070  146.0740 N   0  0  0  0  0  2  0  0  0  0  0  0
  192.0380  178.4630  144.5870 O   0  0  0  0  0  0  0  0  0  0  0  0
  190.4190  176.9220  147.1990 C   0  0  0  0  0  0  0  0  0  0  0  0
  190.9600  177.9620  144.7300 C   0  0  0  0  0  0  0  0  0  0  0  0
  190.4330  177.2970  143.5620 N   0  0  0  0  0  2  0  0  0  0  0  0
  191.6410  177.0050  148.0790 C   0  0  0  0  0  2  0  0  0  0  0  0
  192.4840  175.7330  148.0390 C   0  0  0  0  0  2  0  0  0  0  0  0
  192.4310  175.2540  146.6000 C   0  0  0  0  0  1  0  0  0  0  0  0
  188.5660  177.1760  137.3160 O   0  0  0  0  0  0  0  0  0  0  0  0
  189.0620  178.2040  136.5100 C   0  0  0  0  0  2  0  0  0  0  0  0
  189.5990  177.6120  135.2320 C   0  0  0  0  0  2  0  0  0  0  0  0
  191.4690  176.0020  136.1200 N   0  0  0  0  0  2  0  0  0  0  0  0
  190.1990  176.2350  135.4120 C   0  0  0  0  0  0  0  0  0  0  0  0
  189.6740  175.3060  134.7800 O   0  0  0  0  0  0  0  0  0  0  0  0
  191.5330  173.7480  137.0180 O   0  0  0  0  0  0  0  0  0  0  0  0
  192.1550  174.6860  136.2410 C   0  0  0  0  0  0  0  0  0  0  0  0
  192.5650  174.4320  137.5370 O   0  0  0  0  0  0  0  0  0  0  0  0
  193.1580  174.1450  135.2250 C   0  0  0  0  0  1  0  0  0  0  0  0
  1 25  1  1  0  0  0
  2 36  1  6  0  0  0
  2 18  1  0  0  0  0
  3 16  1  1  0  0  0
  3  1  1  0  0  0  0
  4 22  1  1  0  0  0
  4 15  1  0  0  0  0
  5  7  1  0  0  0  0
  6  3  1  0  0  0  0
  7 10  1  0  0  0  0
  8 12  1  0  0  0  0
  9 20  1  1  0  0  0
  9 21  1  0  0  0  0
 10  5  1  6  0  0  0
 10  2  1  0  0  0  0
 10 24  1  0  0  0  0
 11 24  1  6  0  0  0
 11  6  1  0  0  0  0
 11 19  1  0  0  0  0
 13 24  2  0  0  0  0
 13 26  1  0  0  0  0
 14 12  1  0  0  0  0
 15  1  1  0  0  0  0
 15  8  1  1  0  0  0
 17 14  1  0  0  0  0
 18  9  1  0  0  0  0
 18  6  2  0  0  0  0
 19  4  1  0  0  0  0
 19 15  1  0  0  0  0
 21 23  1  0  0  0  0
 22 17  1  0  0  0  0
 23 16  1  0  0  0  0
 23 32  1  0  0  0  0
 26 22  2  0  0  0  0
 28 30  1  0  0  0  0
 29 31  2  0  0  0  0
 30 27  2  0  0  0  0
 30 33  1  0  0  0  0
 31 28  1  0  0  0  0
 32 31  1  0  0  0  0
 34 33  1  0  0  0  0
 35 34  1  0  0  0  0
 37 36  1  0  0  0  0
 38 40  1  0  0  0  0
 38 37  1  0  0  0  0
 39 43  1  0  0  0  0
 40 39  1  0  0  0  0
 41 40  2  0  0  0  0
 42 44  1  0  0  0  0
 43 42  1  0  0  0  0
 43 44  1  0  0  0  0
 45 43  1  0  0  0  0
M  END
>  <MODEL>
9

>  <REMARK>
 VINA RESULT:      -8.4      3.659      8.085
  Name = 
  8 active torsions:
  status: ('A' for Active; 'I' for Inactive)
    1  A    between atoms: C_2  and  O_5
    2  A    between atoms: O_5  and  C_23
    3  A    between atoms: C_10  and  N_11
    4  A    between atoms: C_12  and  C_27
    5  A    between atoms: C_12  and  C_40
    6  A    between atoms: C_15  and  C_36
    7  A    between atoms: C_23  and  C_36
    8  A    between atoms: C_37  and  N_42
                            x       y       z     vdW  Elec       q    Type
                         _______ _______ _______ _____ _____    ______ ____

>  <TORSDO>
F 8

$$$$
