=
 OpenBabel10222417053D

 55 62  0  0  1  0  0  0  0  0999 V2000
  186.7750  178.4500  140.6170 C   0  0  0  0  0  3  0  0  0  0  0  0
  190.9870  176.7400  139.6170 C   0  0  0  0  0  2  0  0  0  0  0  0
  191.9230  176.7810  142.5970 O   0  0  0  0  0  1  0  0  0  0  0  0
  190.2230  177.3080  145.6250 C   0  0  0  0  0  3  0  0  0  0  0  0
  190.2700  177.0860  147.0090 C   0  0  0  0  0  3  0  0  0  0  0  0
  187.8070  177.4880  145.7370 C   0  0  0  0  0  0  0  0  0  0  0  0
  187.8550  177.2640  147.1100 C   0  0  0  0  0  3  0  0  0  0  0  0
  190.0940  178.1840  142.9110 N   0  0  0  0  0  2  0  0  0  0  0  0
  189.0840  177.0620  147.7460 C   0  0  0  0  0  3  0  0  0  0  0  0
  185.5720  178.4530  138.4550 C   0  0  0  0  0  3  0  0  0  0  0  0
  188.9920  177.5160  144.9850 C   0  0  0  0  0  0  0  0  0  0  0  0
  187.4470  176.7560  137.2970 C   0  0  0  0  0  0  0  0  0  0  0  0
  187.4250  177.7480  141.5450 C   0  0  0  0  0  3  0  0  0  0  0  0
  187.5910  177.1400  138.6360 C   0  0  0  0  0  3  0  0  0  0  0  0
  186.3960  178.0410  143.8470 C   0  0  0  0  0  0  0  0  0  0  0  0
  190.8060  177.4000  138.2570 C   0  0  0  0  0  2  0  0  0  0  0  0
  186.5480  177.7200  145.0980 N   0  0  0  0  0  0  0  0  0  0  0  0
  190.9670  177.8160  140.6830 C   0  0  0  0  0  2  0  0  0  0  0  0
  190.7050  177.1890  142.0400 C   0  0  1  0  0  3  0  0  0  0  0  0
  185.4400  178.0580  137.1580 N   0  0  0  0  0  0  0  0  0  0  0  0
  190.8520  176.3830  137.1270 C   0  0  1  0  0  3  0  0  0  0  0  0
  186.6430  177.9920  139.2290 C   0  0  0  0  0  0  0  0  0  0  0  0
  188.9010  177.5700  143.4830 C   0  0  1  0  0  3  0  0  0  0  0  0
  187.6250  178.2580  142.9490 C   0  0  1  0  0  3  0  0  0  0  0  0
  189.6650  176.6620  136.2020 C   0  0  0  0  0  2  0  0  0  0  0  0
  188.4450  175.8580  136.6460 C   0  0  0  0  0  2  0  0  0  0  0  0
  186.3490  177.2280  136.5700 C   0  0  0  0  0  3  0  0  0  0  0  0
  184.5450  177.9510  142.1780 C   0  0  0  0  0  3  0  0  0  0  0  0
  182.4040  179.0380  142.5680 C   0  0  0  0  0  0  0  0  0  0  0  0
  184.1740  179.1650  144.2390 C   0  0  0  0  0  3  0  0  0  0  0  0
  182.8780  179.4750  143.8170 C   0  0  0  0  0  3  0  0  0  0  0  0
  183.2490  178.2670  141.7560 C   0  0  0  0  0  3  0  0  0  0  0  0
  185.0290  178.4200  143.4140 C   0  0  0  0  0  0  0  0  0  0  0  0
  181.0730  179.3740  142.1290 N   0  0  0  0  0  0  0  0  0  0  0  0
  180.0220  179.6540  143.0790 C   0  0  0  0  0  1  0  0  0  0  0  0
  180.7300  179.3950  140.7150 C   0  0  0  0  0  1  0  0  0  0  0  0
  192.5690  175.2890  135.1800 S   0  0  0  0  0  0  0  0  0  0  0  0
  192.1870  176.5800  136.4100 C   0  0  2  0  0  3  0  0  0  0  0  0
  193.8410  175.3250  136.4830 C   0  0  2  0  0  0  0  0  0  0  0  0
  193.2570  176.3270  137.2860 O   0  0  0  0  0  0  0  0  0  0  0  0
  195.0550  175.7640  135.9790 F   0  0  0  0  0  0  0  0  0  0  0  0
  195.3010  172.8200  139.0950 O   0  0  0  0  0  0  0  0  0  0  0  0
  193.9690  173.9750  137.2390 C   0  0  1  0  0  0  0  0  0  0  0  0
  195.5820  175.1790  138.8190 O   0  0  0  0  0  1  0  0  0  0  0  0
  194.9080  174.0160  138.4480 C   0  0  1  0  0  0  0  0  0  0  0  0
  195.8230  173.0000  137.8040 C   0  0  2  0  0  0  0  0  0  0  0  0
  192.7250  173.4760  137.6530 O   0  0  0  0  0  1  0  0  0  0  0  0
  194.8390  172.8480  136.6330 C   0  0  2  0  0  3  0  0  0  0  0  0
  197.5620  174.7490  137.2070 N   0  0  0  0  0  2  0  0  0  0  0  0
  198.8310  175.1540  137.0060 O   0  0  0  0  0  1  0  0  0  0  0  0
  197.2670  173.4500  137.7210 C   0  0  0  0  0  0  0  0  0  0  0  0
  198.2060  172.6790  138.0410 O   0  0  0  0  0  0  0  0  0  0  0  0
  195.4420  172.9800  135.2460 C   0  0  0  0  0  0  0  0  0  0  0  0
  195.3290  174.0620  134.5940 O   0  0  0  0  0  1  0  0  0  0  0  0
  195.9350  171.8400  134.5940 O   0  0  0  0  0  0  0  0  0  0  0  0
  1 13  2  0  0  0  0
  2 18  1  0  0  0  0
  4  5  1  0  0  0  0
  5  9  2  0  0  0  0
  6  7  2  0  0  0  0
  7  9  1  0  0  0  0
 10 22  1  0  0  0  0
 11  4  2  0  0  0  0
 11  6  1  0  0  0  0
 12 14  1  0  0  0  0
 14 22  2  0  0  0  0
 15 17  2  0  0  0  0
 16  2  1  0  0  0  0
 17  6  1  0  0  0  0
 18 19  1  0  0  0  0
 19  3  1  1  0  0  0
 19  8  1  0  0  0  0
 20 10  2  0  0  0  0
 21 25  1  6  0  0  0
 21 16  1  0  0  0  0
 22  1  1  0  0  0  0
 23  8  1  1  0  0  0
 23 11  1  0  0  0  0
 24 13  1  6  0  0  0
 24 23  1  0  0  0  0
 24 15  1  0  0  0  0
 25 26  1  0  0  0  0
 26 12  1  0  0  0  0
 27 20  1  0  0  0  0
 27 12  2  0  0  0  0
 28 33  1  0  0  0  0
 29 31  2  0  0  0  0
 31 30  1  0  0  0  0
 32 28  2  0  0  0  0
 32 29  1  0  0  0  0
 33 15  1  0  0  0  0
 33 30  2  0  0  0  0
 34 29  1  0  0  0  0
 34 35  1  0  0  0  0
 36 34  1  0  0  0  0
 37 39  1  0  0  0  0
 38 37  1  6  0  0  0
 38 21  1  0  0  0  0
 38 40  1  0  0  0  0
 39 41  1  6  0  0  0
 39 43  1  0  0  0  0
 39 40  1  0  0  0  0
 43 47  1  1  0  0  0
 43 45  1  0  0  0  0
 45 44  1  1  0  0  0
 45 42  1  0  0  0  0
 46 51  1  6  0  0  0
 46 45  1  0  0  0  0
 46 42  1  0  0  0  0
 48 53  1  6  0  0  0
 48 43  1  0  0  0  0
 48 46  1  0  0  0  0
 49 51  1  0  0  0  0
 50 49  1  0  0  0  0
 51 52  2  0  0  0  0
 54 53  1  0  0  0  0
 55 53  2  0  0  0  0
M  END
>  <MODEL>
1

>  <REMARK>
 VINA RESULT:     -11.0      0.000      0.000
  Name = 
  6 active torsions:
  status: ('A' for Active; 'I' for Inactive)
    1  A    between atoms: C_1  and  C_53
    2  A    between atoms: C_6  and  C_20
    3  A    between atoms: C_8  and  C_43
    4  A    between atoms: N_10  and  C_32
    5  A    between atoms: C_29  and  C_38
    6  A    between atoms: C_33  and  C_52
                            x       y       z     vdW  Elec       q    Type
                         _______ _______ _______ _____ _____    ______ ____

>  <TORSDO>
F 6

$$$$
=
 OpenBabel10222417053D

 55 62  0  0  1  0  0  0  0  0999 V2000
  185.2310  178.4950  140.3080 C   0  0  0  0  0  3  0  0  0  0  0  0
  189.1860  176.6670  138.6700 C   0  0  0  0  0  2  0  0  0  0  0  0
  190.6250  176.8100  141.4390 O   0  0  0  0  0  1  0  0  0  0  0  0
  189.4810  177.4910  144.6900 C   0  0  0  0  0  3  0  0  0  0  0  0
  189.7650  177.3240  146.0530 C   0  0  0  0  0  3  0  0  0  0  0  0
  187.1230  177.7200  145.2100 C   0  0  0  0  0  0  0  0  0  0  0  0
  187.4060  177.5510  146.5620 C   0  0  0  0  0  3  0  0  0  0  0  0
  188.8940  178.2590  142.0040 N   0  0  0  0  0  2  0  0  0  0  0  0
  188.7250  177.3520  146.9850 C   0  0  0  0  0  3  0  0  0  0  0  0
  183.6720  178.4340  138.3880 C   0  0  0  0  0  3  0  0  0  0  0  0
  188.1600  177.6960  144.2640 C   0  0  0  0  0  0  0  0  0  0  0  0
  185.2990  176.6570  136.9980 C   0  0  0  0  0  0  0  0  0  0  0  0
  186.0240  177.8190  141.1390 C   0  0  0  0  0  3  0  0  0  0  0  0
  185.6760  177.0920  138.2740 C   0  0  0  0  0  3  0  0  0  0  0  0
  185.4130  178.2240  143.5690 C   0  0  0  0  0  0  0  0  0  0  0  0
  188.7790  177.2750  137.3350 C   0  0  0  0  0  2  0  0  0  0  0  0
  185.7750  177.9500  144.7880 N   0  0  0  0  0  0  0  0  0  0  0  0
  189.3640  177.7860  139.6770 C   0  0  0  0  0  2  0  0  0  0  0  0
  189.3340  177.2190  141.0850 C   0  0  1  0  0  3  0  0  0  0  0  0
  183.3130  177.9900  137.1520 N   0  0  0  0  0  0  0  0  0  0  0  0
  188.6180  176.2120  136.2590 C   0  0  1  0  0  3  0  0  0  0  0  0
  184.8550  177.9840  138.9850 C   0  0  0  0  0  0  0  0  0  0  0  0
  187.8110  177.6910  142.8000 C   0  0  1  0  0  3  0  0  0  0  0  0
  186.4700  178.3810  142.4640 C   0  0  1  0  0  3  0  0  0  0  0  0
  187.2910  176.4760  135.5420 C   0  0  0  0  0  2  0  0  0  0  0  0
  186.1580  175.7140  136.2240 C   0  0  0  0  0  2  0  0  0  0  0  0
  184.0960  177.1200  136.4520 C   0  0  0  0  0  3  0  0  0  0  0  0
  183.3730  179.4620  144.2960 C   0  0  0  0  0  3  0  0  0  0  0  0
  181.3240  179.4510  142.9850 C   0  0  0  0  0  0  0  0  0  0  0  0
  183.2830  178.2190  142.2210 C   0  0  0  0  0  3  0  0  0  0  0  0
  181.9600  178.6300  142.0380 C   0  0  0  0  0  3  0  0  0  0  0  0
  182.0480  179.8680  144.1120 C   0  0  0  0  0  3  0  0  0  0  0  0
  183.9960  178.6110  143.3630 C   0  0  0  0  0  0  0  0  0  0  0  0
  179.9530  179.8590  142.8010 N   0  0  0  0  0  0  0  0  0  0  0  0
  179.5520  180.6250  141.6460 C   0  0  0  0  0  1  0  0  0  0  0  0
  178.9380  179.5550  143.7980 C   0  0  0  0  0  1  0  0  0  0  0  0
  190.4710  174.7690  134.7050 S   0  0  0  0  0  0  0  0  0  0  0  0
  189.8110  176.3550  135.3150 C   0  0  2  0  0  3  0  0  0  0  0  0
  191.7460  175.6750  135.6370 C   0  0  2  0  0  0  0  0  0  0  0  0
  190.9510  176.7730  136.0230 O   0  0  0  0  0  0  0  0  0  0  0  0
  192.7680  176.0960  134.7990 F   0  0  0  0  0  0  0  0  0  0  0  0
  194.0320  174.9790  138.7220 O   0  0  0  0  0  0  0  0  0  0  0  0
  192.2770  174.8820  136.8620 C   0  0  1  0  0  0  0  0  0  0  0  0
  193.6990  176.9410  137.3960 O   0  0  0  0  0  1  0  0  0  0  0  0
  193.2950  175.6450  137.7140 C   0  0  1  0  0  0  0  0  0  0  0  0
  194.3600  174.6180  137.4060 C   0  0  2  0  0  0  0  0  0  0  0  0
  191.2410  174.4320  137.6940 O   0  0  0  0  0  1  0  0  0  0  0  0
  193.3290  173.7690  136.6450 C   0  0  2  0  0  3  0  0  0  0  0  0
  196.8890  174.8210  137.4000 N   0  0  0  0  0  2  0  0  0  0  0  0
  198.0420  175.4050  137.0170 O   0  0  0  0  0  1  0  0  0  0  0  0
  195.6340  175.2150  136.8440 C   0  0  0  0  0  0  0  0  0  0  0  0
  195.5990  176.0890  135.9430 O   0  0  0  0  0  0  0  0  0  0  0  0
  193.7380  173.3350  135.2480 C   0  0  0  0  0  0  0  0  0  0  0  0
  193.0410  172.4940  134.6040 O   0  0  0  0  0  0  0  0  0  0  0  0
  195.0010  173.6950  134.7520 O   0  0  0  0  0  1  0  0  0  0  0  0
  1 13  2  0  0  0  0
  2 18  1  0  0  0  0
  4  5  1  0  0  0  0
  5  9  2  0  0  0  0
  6  7  2  0  0  0  0
  7  9  1  0  0  0  0
 10 22  1  0  0  0  0
 11  4  2  0  0  0  0
 11  6  1  0  0  0  0
 12 14  1  0  0  0  0
 14 22  2  0  0  0  0
 15 17  2  0  0  0  0
 16  2  1  0  0  0  0
 17  6  1  0  0  0  0
 18 19  1  0  0  0  0
 19  3  1  1  0  0  0
 19  8  1  0  0  0  0
 20 10  2  0  0  0  0
 21 25  1  6  0  0  0
 21 16  1  0  0  0  0
 22  1  1  0  0  0  0
 23  8  1  6  0  0  0
 23 11  1  0  0  0  0
 24 13  1  6  0  0  0
 24 23  1  0  0  0  0
 24 15  1  0  0  0  0
 25 26  1  0  0  0  0
 26 12  1  0  0  0  0
 27 12  2  0  0  0  0
 27 20  1  0  0  0  0
 29 32  2  0  0  0  0
 30 33  1  0  0  0  0
 31 30  2  0  0  0  0
 31 29  1  0  0  0  0
 32 28  1  0  0  0  0
 33 15  1  0  0  0  0
 33 28  2  0  0  0  0
 34 29  1  0  0  0  0
 34 36  1  0  0  0  0
 35 34  1  0  0  0  0
 37 39  1  0  0  0  0
 38 37  1  1  0  0  0
 38 40  1  0  0  0  0
 38 21  1  0  0  0  0
 39 41  1  6  0  0  0
 39 40  1  0  0  0  0
 39 43  1  0  0  0  0
 43 47  1  1  0  0  0
 43 45  1  0  0  0  0
 45 44  1  6  0  0  0
 45 42  1  0  0  0  0
 46 51  1  6  0  0  0
 46 45  1  0  0  0  0
 46 42  1  0  0  0  0
 48 53  1  6  0  0  0
 48 43  1  0  0  0  0
 48 46  1  0  0  0  0
 50 49  1  0  0  0  0
 51 49  1  0  0  0  0
 52 51  2  0  0  0  0
 54 53  2  0  0  0  0
 55 53  1  0  0  0  0
M  END
>  <MODEL>
2

>  <REMARK>
 VINA RESULT:     -11.0      1.484      2.089
  Name = 
  6 active torsions:
  status: ('A' for Active; 'I' for Inactive)
    1  A    between atoms: C_1  and  C_53
    2  A    between atoms: C_6  and  C_20
    3  A    between atoms: C_8  and  C_43
    4  A    between atoms: N_10  and  C_32
    5  A    between atoms: C_29  and  C_38
    6  A    between atoms: C_33  and  C_52
                            x       y       z     vdW  Elec       q    Type
                         _______ _______ _______ _____ _____    ______ ____

>  <TORSDO>
F 6

$$$$
=
 OpenBabel10222417053D

 55 62  0  0  1  0  0  0  0  0999 V2000
  186.4850  178.2040  138.4930 C   0  0  0  0  0  3  0  0  0  0  0  0
  190.6320  176.7030  139.9800 C   0  0  0  0  0  2  0  0  0  0  0  0
  190.0260  177.3900  142.9660 O   0  0  0  0  0  1  0  0  0  0  0  0
  187.0900  178.3370  144.6480 C   0  0  0  0  0  3  0  0  0  0  0  0
  186.4650  178.3880  145.9020 C   0  0  0  0  0  3  0  0  0  0  0  0
  184.9200  178.3270  143.5660 C   0  0  0  0  0  0  0  0  0  0  0  0
  184.3010  178.3740  144.8110 C   0  0  0  0  0  3  0  0  0  0  0  0
  188.2930  178.6660  142.0790 N   0  0  0  0  0  2  0  0  0  0  0  0
  185.0710  178.4030  145.9790 C   0  0  0  0  0  3  0  0  0  0  0  0
  186.4660  177.6930  136.0720 C   0  0  0  0  0  3  0  0  0  0  0  0
  186.3210  178.3130  143.4750 C   0  0  0  0  0  0  0  0  0  0  0  0
  188.6390  175.9730  136.3190 C   0  0  0  0  0  0  0  0  0  0  0  0
  186.5990  177.7510  139.7400 C   0  0  0  0  0  3  0  0  0  0  0  0
  188.1290  176.6160  137.4530 C   0  0  0  0  0  3  0  0  0  0  0  0
  184.5980  178.3880  141.1660 C   0  0  0  0  0  0  0  0  0  0  0  0
  191.1360  177.0740  138.5920 C   0  0  0  0  0  2  0  0  0  0  0  0
  184.1250  178.3250  142.3760 N   0  0  0  0  0  0  0  0  0  0  0  0
  190.1210  177.9570  140.6600 C   0  0  0  0  0  2  0  0  0  0  0  0
  189.2310  177.5800  141.8300 C   0  0  1  0  0  3  0  0  0  0  0  0
  186.9650  177.0480  134.9810 N   0  0  0  0  0  0  0  0  0  0  0  0
  191.7020  175.8680  137.8570 C   0  0  1  0  0  3  0  0  0  0  0  0
  187.0270  177.4810  137.3370 C   0  0  0  0  0  0  0  0  0  0  0  0
  186.9620  178.0720  142.1340 C   0  0  1  0  0  3  0  0  0  0  0  0
  186.1100  178.5330  140.9310 C   0  0  1  0  0  3  0  0  0  0  0  0
  191.1080  175.8620  136.4470 C   0  0  0  0  0  2  0  0  0  0  0  0
  189.8110  175.0560  136.4190 C   0  0  0  0  0  2  0  0  0  0  0  0
  188.0320  176.2030  135.0790 C   0  0  0  0  0  3  0  0  0  0  0  0
  182.8030  177.4690  139.6980 C   0  0  0  0  0  3  0  0  0  0  0  0
  181.6590  178.8410  138.0480 C   0  0  0  0  0  0  0  0  0  0  0  0
  183.4060  179.8000  139.4510 C   0  0  0  0  0  3  0  0  0  0  0  0
  182.4430  179.9370  138.4470 C   0  0  0  0  0  3  0  0  0  0  0  0
  181.8440  177.6080  138.6900 C   0  0  0  0  0  3  0  0  0  0  0  0
  183.6120  178.5590  140.0710 C   0  0  0  0  0  0  0  0  0  0  0  0
  180.6790  178.9820  137.0000 N   0  0  0  0  0  0  0  0  0  0  0  0
  179.3430  179.4510  137.2840 C   0  0  0  0  0  1  0  0  0  0  0  0
  180.9870  178.6100  135.6270 C   0  0  0  0  0  1  0  0  0  0  0  0
  193.9440  176.0200  136.1590 S   0  0  0  0  0  0  0  0  0  0  0  0
  193.2200  176.0380  137.8330 C   0  0  2  0  0  3  0  0  0  0  0  0
  194.6210  174.6590  137.1620 C   0  0  2  0  0  0  0  0  0  0  0  0
  193.8530  174.8830  138.3230 O   0  0  0  0  0  0  0  0  0  0  0  0
  195.9650  174.8630  137.4320 F   0  0  0  0  0  0  0  0  0  0  0  0
  194.7180  170.7630  136.9650 O   0  0  0  0  0  0  0  0  0  0  0  0
  194.3480  173.2610  136.5450 C   0  0  1  0  0  0  0  0  0  0  0  0
  195.2160  172.2820  138.7450 O   0  0  0  0  0  1  0  0  0  0  0  0
  194.6970  172.0870  137.4650 C   0  0  1  0  0  0  0  0  0  0  0  0
  195.7410  171.5980  136.4890 C   0  0  2  0  0  0  0  0  0  0  0  0
  193.0210  173.1170  136.1160 O   0  0  0  0  0  1  0  0  0  0  0  0
  195.3300  172.6940  135.4920 C   0  0  2  0  0  3  0  0  0  0  0  0
  197.6870  170.0990  137.1240 N   0  0  0  0  0  2  0  0  0  0  0  0
  198.8470  169.8510  137.7630 O   0  0  0  0  0  1  0  0  0  0  0  0
  197.1090  171.4050  137.1090 C   0  0  0  0  0  0  0  0  0  0  0  0
  197.7130  172.3590  137.6600 O   0  0  0  0  0  0  0  0  0  0  0  0
  196.4640  173.5390  134.9400 C   0  0  0  0  0  0  0  0  0  0  0  0
  197.6570  173.1080  134.9550 O   0  0  0  0  0  1  0  0  0  0  0  0
  196.2310  174.8840  134.6120 O   0  0  0  0  0  0  0  0  0  0  0  0
  1 13  2  0  0  0  0
  2 18  1  0  0  0  0
  4  5  1  0  0  0  0
  5  9  2  0  0  0  0
  6  7  2  0  0  0  0
  7  9  1  0  0  0  0
 10 22  1  0  0  0  0
 11  6  1  0  0  0  0
 11  4  2  0  0  0  0
 12 26  1  0  0  0  0
 12 14  1  0  0  0  0
 15 17  2  0  0  0  0
 16  2  1  0  0  0  0
 17  6  1  0  0  0  0
 18 19  1  0  0  0  0
 19  8  1  0  0  0  0
 19  3  1  1  0  0  0
 20 27  1  0  0  0  0
 20 10  2  0  0  0  0
 21 25  1  6  0  0  0
 21 16  1  0  0  0  0
 22 14  2  0  0  0  0
 22  1  1  0  0  0  0
 23  8  1  1  0  0  0
 23 11  1  0  0  0  0
 24 13  1  6  0  0  0
 24 15  1  0  0  0  0
 24 23  1  0  0  0  0
 26 25  1  0  0  0  0
 27 12  2  0  0  0  0
 28 33  1  0  0  0  0
 29 31  2  0  0  0  0
 29 32  1  0  0  0  0
 30 33  2  0  0  0  0
 31 30  1  0  0  0  0
 32 28  2  0  0  0  0
 33 15  1  0  0  0  0
 34 35  1  0  0  0  0
 34 29  1  0  0  0  0
 36 34  1  0  0  0  0
 37 39  1  0  0  0  0
 38 37  1  6  0  0  0
 38 21  1  0  0  0  0
 38 40  1  0  0  0  0
 39 41  1  1  0  0  0
 39 40  1  0  0  0  0
 42 45  1  0  0  0  0
 43 47  1  6  0  0  0
 43 39  1  0  0  0  0
 43 45  1  0  0  0  0
 45 44  1  1  0  0  0
 46 42  1  0  0  0  0
 46 51  1  1  0  0  0
 46 45  1  0  0  0  0
 48 53  1  1  0  0  0
 48 46  1  0  0  0  0
 48 43  1  0  0  0  0
 49 50  1  0  0  0  0
 51 49  1  0  0  0  0
 51 52  2  0  0  0  0
 53 54  1  0  0  0  0
 55 53  2  0  0  0  0
M  END
>  <MODEL>
3

>  <REMARK>
 VINA RESULT:     -10.1      2.045      3.023
  Name = 
  6 active torsions:
  status: ('A' for Active; 'I' for Inactive)
    1  A    between atoms: C_1  and  C_53
    2  A    between atoms: C_6  and  C_20
    3  A    between atoms: C_8  and  C_43
    4  A    between atoms: N_10  and  C_32
    5  A    between atoms: C_29  and  C_38
    6  A    between atoms: C_33  and  C_52
                            x       y       z     vdW  Elec       q    Type
                         _______ _______ _______ _____ _____    ______ ____

>  <TORSDO>
F 6

$$$$
