=
 OpenBabel10222415593D

 63 69  0  0  1  0  0  0  0  0999 V2000
  188.9470  176.9250  143.8290 C   0  0  1  0  0  3  0  0  0  0  0  0
  188.2640  177.2570  142.4840 C   0  0  0  0  0  2  0  0  0  0  0  0
  189.1500  176.6030  141.4930 C   0  0  2  0  0  3  0  0  0  0  0  0
  190.8960  176.5770  140.0170 C   0  0  0  0  0  0  0  0  0  0  0  0
  191.3300  176.1140  141.1510 N   0  0  0  0  0  0  0  0  0  0  0  0
  190.2170  176.1040  142.0330 C   0  0  1  0  0  3  0  0  0  0  0  0
  189.4750  177.0750  140.1200 C   0  0  1  0  0  3  0  0  0  0  0  0
  190.2830  176.2440  143.5010 C   0  0  0  0  0  2  0  0  0  0  0  0
  189.1340  178.1610  144.7270 C   0  0  1  0  0  3  0  0  0  0  0  0
  188.2570  178.1600  146.0040 C   0  0  1  0  0  3  0  0  0  0  0  0
  187.1720  177.2880  145.8790 O   0  0  0  0  0  1  0  0  0  0  0  0
  189.0530  177.7770  147.2110 C   0  0  0  0  0  0  0  0  0  0  0  0
  189.6850  176.4270  147.2740 C   0  0  0  0  0  1  0  0  0  0  0  0
  189.2240  178.5730  148.1230 O   0  0  0  0  0  0  0  0  0  0  0  0
  190.6210  178.4470  144.9720 C   0  0  0  0  0  2  0  0  0  0  0  0
  191.2050  179.4620  143.9930 C   0  0  0  0  0  1  0  0  0  0  0  0
  188.5460  176.4590  139.0840 C   0  0  0  0  0  2  0  0  0  0  0  0
  187.1380  177.2040  137.0940 C   0  0  0  0  0  0  0  0  0  0  0  0
  186.8430  178.1720  136.1140 C   0  0  0  0  0  3  0  0  0  0  0  0
  188.8860  178.6580  137.9450 C   0  0  0  0  0  3  0  0  0  0  0  0
  188.1550  177.4680  138.0400 C   0  0  0  0  0  0  0  0  0  0  0  0
  188.5770  179.6150  136.9770 C   0  0  0  0  0  3  0  0  0  0  0  0
  187.5530  179.3690  136.0580 C   0  0  0  0  0  3  0  0  0  0  0  0
  186.4440  175.9050  137.0640 C   0  0  0  0  0  3  0  0  0  0  0  0
  185.5530  175.6530  136.1540 N   0  0  0  0  0  0  0  0  0  0  0  0
  184.9160  174.4090  136.1370 N   0  0  0  0  0  2  0  0  0  0  0  0
  185.5540  173.2820  136.6570 N   0  0  0  0  0  2  0  0  0  0  0  0
  184.6390  172.6830  137.6230 C   0  0  0  0  0  2  0  0  0  0  0  0
  183.7080  171.6890  136.9280 C   0  0  2  0  0  3  0  0  0  0  0  0
  184.4240  170.9810  135.8790 N   0  0  0  0  0  1  0  0  0  0  0  0
  182.4460  172.3390  136.3430 C   0  0  0  0  0  2  0  0  0  0  0  0
  181.1320  175.4360  137.6450 C   0  0  0  0  0  0  0  0  0  0  0  0
  180.1900  172.9390  136.6800 C   0  0  0  0  0  2  0  0  0  0  0  0
  182.0000  175.8280  138.7210 N   0  0  0  0  0  2  0  0  0  0  0  0
  180.3660  176.2800  137.1140 O   0  0  0  0  0  0  0  0  0  0  0  0
  180.9720  174.0540  137.3210 N   0  0  0  0  0  0  0  0  0  0  0  0
  181.3440  172.6010  137.3630 C   0  0  2  0  0  3  0  0  0  0  0  0
  184.2470  179.0750  139.8300 C   0  0  1  0  0  3  0  0  0  0  0  0
  182.0600  177.1910  139.2740 C   0  0  2  0  0  0  0  0  0  0  0  0
  180.6390  177.5830  139.6480 C   0  0  0  0  0  1  0  0  0  0  0  0
  183.2100  178.5000  140.7960 C   0  0  0  0  0  2  0  0  0  0  0  0
  185.6260  178.6270  140.2470 C   0  0  0  0  0  1  0  0  0  0  0  0
  182.5290  178.1940  138.1770 C   0  0  0  0  0  2  0  0  0  0  0  0
  183.9890  178.6260  138.3850 C   0  0  0  0  0  2  0  0  0  0  0  0
  182.8820  177.1750  140.4330 O   0  0  0  0  0  0  0  0  0  0  0  0
  191.8270  176.9370  138.9010 C   0  0  0  0  0  2  0  0  0  0  0  0
  192.3130  174.6590  138.0210 C   0  0  0  0  0  2  0  0  0  0  0  0
  194.7620  174.6580  138.5080 C   0  0  0  0  0  1  0  0  0  0  0  0
  192.5000  176.5310  136.5460 C   0  0  1  0  0  3  0  0  0  0  0  0
  193.7020  174.6850  137.4170 C   0  0  2  0  0  3  0  0  0  0  0  0
  191.6910  175.9990  137.7030 C   0  0  2  0  0  3  0  0  0  0  0  0
  193.8410  175.9030  136.6180 N   0  0  0  0  0  0  0  0  0  0  0  0
  190.4740  176.3650  135.6240 C   0  0  0  0  0  1  0  0  0  0  0  0
  191.8390  176.2520  135.3400 O   0  0  0  0  0  0  0  0  0  0  0  0
  194.2860  175.5220  135.3380 N   0  0  0  0  0  2  0  0  0  0  0  0
  195.6250  176.0770  135.1590 C   0  0  0  0  0  2  0  0  0  0  0  0
  198.2560  174.3120  137.0830 C   0  0  0  0  0  2  0  0  0  0  0  0
  198.9330  173.0450  136.5650 C   0  0  0  0  0  2  0  0  0  0  0  0
  197.1990  172.6690  134.8710 O   0  0  0  0  0  0  0  0  0  0  0  0
  198.6080  172.7230  135.1010 C   0  0  0  0  0  2  0  0  0  0  0  0
  197.9490  175.3190  135.9690 C   0  0  0  0  0  2  0  0  0  0  0  0
  196.3390  173.7800  134.8490 C   0  0  0  0  0  3  0  0  0  0  0  0
  196.6420  174.9960  135.3150 C   0  0  0  0  0  0  0  0  0  0  0  0
  1  9  1  6  0  0  0
  2  1  1  0  0  0  0
  3  6  1  0  0  0  0
  3  2  1  1  0  0  0
  4  7  1  0  0  0  0
  4  5  2  0  0  0  0
  5  6  1  0  0  0  0
  6  8  1  1  0  0  0
  7 17  1  6  0  0  0
  7  3  1  0  0  0  0
  8  1  1  0  0  0  0
  9 15  1  1  0  0  0
  9 10  1  0  0  0  0
 10 11  1  6  0  0  0
 10 12  1  0  0  0  0
 12 13  1  0  0  0  0
 12 14  2  0  0  0  0
 16 15  1  0  0  0  0
 18 21  1  0  0  0  0
 19 18  2  0  0  0  0
 20 21  2  0  0  0  0
 21 17  1  0  0  0  0
 22 20  1  0  0  0  0
 23 19  1  0  0  0  0
 23 22  2  0  0  0  0
 24 18  1  0  0  0  0
 25 24  2  0  0  0  0
 26 25  1  0  0  0  0
 26 27  1  0  0  0  0
 27 28  1  0  0  0  0
 29 30  1  6  0  0  0
 29 28  1  0  0  0  0
 31 29  1  0  0  0  0
 32 34  1  0  0  0  0
 33 36  1  0  0  0  0
 33 37  1  0  0  0  0
 34 39  1  0  0  0  0
 35 32  2  0  0  0  0
 36 37  1  0  0  0  0
 36 32  1  0  0  0  0
 37 31  1  6  0  0  0
 38 42  1  1  0  0  0
 38 41  1  0  0  0  0
 39 40  1  1  0  0  0
 39 45  1  0  0  0  0
 43 44  1  0  0  0  0
 43 39  1  0  0  0  0
 44 38  1  0  0  0  0
 45 41  1  0  0  0  0
 46  4  1  0  0  0  0
 49 54  1  6  0  0  0
 49 52  1  0  0  0  0
 49 51  1  0  0  0  0
 50 47  1  0  0  0  0
 50 48  1  1  0  0  0
 51 47  1  0  0  0  0
 51 46  1  1  0  0  0
 52 50  1  0  0  0  0
 54 53  1  0  0  0  0
 55 52  1  0  0  0  0
 56 63  1  0  0  0  0
 56 55  1  0  0  0  0
 58 57  1  0  0  0  0
 59 60  1  0  0  0  0
 60 58  1  0  0  0  0
 61 57  1  0  0  0  0
 62 59  1  0  0  0  0
 62 63  2  0  0  0  0
 63 61  1  0  0  0  0
M  END
>  <MODEL>
1

>  <REMARK>
 VINA RESULT:      -5.9      0.000      0.000
  Name = 
  20 active torsions:
  status: ('A' for Active; 'I' for Inactive)
    1  A    between atoms: C_1  and  C_15
    2  A    between atoms: C_1  and  C_41
    3  A    between atoms: C_6  and  C_14
    4  A    between atoms: C_8  and  C_28
    5  A    between atoms: N_12  and  N_16
    6  A    between atoms: N_12  and  C_61
    7  A    between atoms: C_15  and  C_61
    8  A    between atoms: N_16  and  N_20
    9  A    between atoms: C_17  and  N_27
   10  A    between atoms: C_18  and  C_28
   11  A    between atoms: C_23  and  O_50
   12  A    between atoms: C_28  and  C_42
   13  A    between atoms: C_31  and  C_32
   14  A    between atoms: C_31  and  C_59
   15  A    between atoms: C_33  and  C_42
   16  A    between atoms: C_34  and  C_43
   17  A    between atoms: C_34  and  C_52
   18  A    between atoms: N_40  and  N_49
   19  A    between atoms: N_40  and  C_51
   20  A    between atoms: C_51  and  C_54
                            x       y       z     vdW  Elec       q    Type
                         _______ _______ _______ _____ _____    ______ ____

>  <TORSDO>
F 20

$$$$
=
 OpenBabel10222415593D

 63 69  0  0  1  0  0  0  0  0999 V2000
  188.9200  177.9840  142.7980 C   0  0  1  0  0  3  0  0  0  0  0  0
  189.1710  178.9550  141.6240 C   0  0  0  0  0  2  0  0  0  0  0  0
  188.9880  178.0910  140.4350 C   0  0  2  0  0  3  0  0  0  0  0  0
  189.7430  176.7030  138.7820 C   0  0  0  0  0  0  0  0  0  0  0  0
  189.3130  175.9600  139.7560 N   0  0  0  0  0  0  0  0  0  0  0  0
  188.8140  176.8460  140.7480 C   0  0  1  0  0  3  0  0  0  0  0  0
  189.7140  178.1700  139.1390 C   0  0  1  0  0  3  0  0  0  0  0  0
  188.7780  176.5780  142.1990 C   0  0  0  0  0  2  0  0  0  0  0  0
  190.0200  178.0460  143.8730 C   0  0  1  0  0  3  0  0  0  0  0  0
  190.2090  176.7300  144.6690 C   0  0  1  0  0  3  0  0  0  0  0  0
  191.4980  176.2140  144.5060 O   0  0  0  0  0  1  0  0  0  0  0  0
  189.9460  176.9320  146.1270 C   0  0  0  0  0  0  0  0  0  0  0  0
  191.0380  176.6740  147.1110 C   0  0  0  0  0  1  0  0  0  0  0  0
  188.8620  177.3460  146.5140 O   0  0  0  0  0  0  0  0  0  0  0  0
  191.3150  178.6420  143.3060 C   0  0  0  0  0  2  0  0  0  0  0  0
  192.0080  179.5980  144.2730 C   0  0  0  0  0  1  0  0  0  0  0  0
  188.9590  179.0200  138.1280 C   0  0  0  0  0  2  0  0  0  0  0  0
  186.8200  177.7350  137.6070 C   0  0  0  0  0  0  0  0  0  0  0  0
  186.0880  176.9020  136.7380 C   0  0  0  0  0  3  0  0  0  0  0  0
  188.6590  177.7050  136.0230 C   0  0  0  0  0  3  0  0  0  0  0  0
  188.1120  178.1640  137.2270 C   0  0  0  0  0  0  0  0  0  0  0  0
  187.9210  176.8880  135.1640 C   0  0  0  0  0  3  0  0  0  0  0  0
  186.6320  176.4860  135.5250 C   0  0  0  0  0  3  0  0  0  0  0  0
  186.2630  178.0730  138.9290 C   0  0  0  0  0  3  0  0  0  0  0  0
  185.4980  179.1110  139.0770 N   0  0  0  0  0  0  0  0  0  0  0  0
  184.9700  179.4060  140.3380 N   0  0  0  0  0  2  0  0  0  0  0  0
  185.5230  178.8360  141.4850 N   0  0  0  0  0  2  0  0  0  0  0  0
  185.1890  179.7160  142.6000 C   0  0  0  0  0  2  0  0  0  0  0  0
  184.8160  178.8950  143.8330 C   0  0  2  0  0  3  0  0  0  0  0  0
  185.6810  177.7300  143.9400 N   0  0  0  0  0  1  0  0  0  0  0  0
  183.3470  178.4490  143.8510 C   0  0  0  0  0  2  0  0  0  0  0  0
  181.1440  177.9640  141.0350 C   0  0  0  0  0  0  0  0  0  0  0  0
  181.1090  179.1530  143.6110 C   0  0  0  0  0  2  0  0  0  0  0  0
  181.9400  178.1600  139.8550 N   0  0  0  0  0  2  0  0  0  0  0  0
  180.0440  177.3600  140.9600 O   0  0  0  0  0  0  0  0  0  0  0  0
  181.4850  178.6360  142.2480 N   0  0  0  0  0  0  0  0  0  0  0  0
  182.3900  179.4130  143.1590 C   0  0  2  0  0  3  0  0  0  0  0  0
  182.0650  175.2490  136.9680 C   0  0  1  0  0  3  0  0  0  0  0  0
  181.5500  177.6960  138.5140 C   0  0  2  0  0  0  0  0  0  0  0  0
  180.7620  178.8240  137.8650 C   0  0  0  0  0  1  0  0  0  0  0  0
  182.3940  176.6980  136.6040 C   0  0  0  0  0  2  0  0  0  0  0  0
  183.3440  174.4580  137.0900 C   0  0  0  0  0  1  0  0  0  0  0  0
  180.5840  176.4790  138.6280 C   0  0  0  0  0  2  0  0  0  0  0  0
  181.2890  175.1570  138.2890 C   0  0  0  0  0  2  0  0  0  0  0  0
  182.7280  177.4320  137.7630 O   0  0  0  0  0  0  0  0  0  0  0  0
  190.5370  176.1370  137.6450 C   0  0  0  0  0  2  0  0  0  0  0  0
  192.5440  176.4560  136.2070 C   0  0  0  0  0  2  0  0  0  0  0  0
  192.8610  174.0590  135.5860 C   0  0  0  0  0  1  0  0  0  0  0  0
  192.8510  176.0040  138.5340 C   0  0  1  0  0  3  0  0  0  0  0  0
  193.4250  175.2350  136.3680 C   0  0  2  0  0  3  0  0  0  0  0  0
  191.9450  176.7260  137.5680 C   0  0  2  0  0  3  0  0  0  0  0  0
  193.4990  174.8980  137.7910 N   0  0  0  0  0  0  0  0  0  0  0  0
  193.1360  177.5030  140.1630 C   0  0  0  0  0  1  0  0  0  0  0  0
  193.7790  176.9070  139.0740 O   0  0  0  0  0  0  0  0  0  0  0  0
  194.8610  174.7940  138.1310 N   0  0  0  0  0  2  0  0  0  0  0  0
  195.5850  174.4130  136.9220 C   0  0  0  0  0  2  0  0  0  0  0  0
  198.4030  172.0090  137.0810 C   0  0  0  0  0  2  0  0  0  0  0  0
  198.1920  170.5250  137.3730 C   0  0  0  0  0  2  0  0  0  0  0  0
  195.9170  170.8910  138.2120 O   0  0  0  0  0  0  0  0  0  0  0  0
  196.7220  170.0900  137.3460 C   0  0  0  0  0  2  0  0  0  0  0  0
  197.2850  172.6100  136.2210 C   0  0  0  0  0  2  0  0  0  0  0  0
  195.5570  172.2290  137.9780 C   0  0  0  0  0  3  0  0  0  0  0  0
  196.1330  173.0340  137.0780 C   0  0  0  0  0  0  0  0  0  0  0  0
  1  9  1  1  0  0  0
  2  1  1  0  0  0  0
  3  6  1  0  0  0  0
  3  2  1  1  0  0  0
  4  7  1  0  0  0  0
  4  5  2  0  0  0  0
  5  6  1  0  0  0  0
  6  8  1  1  0  0  0
  7 17  1  6  0  0  0
  7  3  1  0  0  0  0
  8  1  1  0  0  0  0
  9 15  1  6  0  0  0
  9 10  1  0  0  0  0
 10 11  1  1  0  0  0
 10 12  1  0  0  0  0
 12 14  2  0  0  0  0
 12 13  1  0  0  0  0
 15 16  1  0  0  0  0
 18 24  1  0  0  0  0
 19 18  2  0  0  0  0
 20 21  2  0  0  0  0
 21 18  1  0  0  0  0
 21 17  1  0  0  0  0
 22 23  2  0  0  0  0
 22 20  1  0  0  0  0
 23 19  1  0  0  0  0
 24 25  2  0  0  0  0
 25 26  1  0  0  0  0
 26 27  1  0  0  0  0
 27 28  1  0  0  0  0
 28 29  1  0  0  0  0
 29 31  1  0  0  0  0
 29 30  1  6  0  0  0
 32 36  1  0  0  0  0
 34 32  1  0  0  0  0
 35 32  2  0  0  0  0
 36 37  1  0  0  0  0
 36 33  1  0  0  0  0
 37 33  1  0  0  0  0
 37 31  1  1  0  0  0
 38 42  1  1  0  0  0
 38 44  1  0  0  0  0
 39 40  1  6  0  0  0
 39 43  1  0  0  0  0
 39 34  1  0  0  0  0
 41 38  1  0  0  0  0
 41 45  1  0  0  0  0
 44 43  1  0  0  0  0
 45 39  1  0  0  0  0
 46  4  1  0  0  0  0
 47 50  1  0  0  0  0
 47 51  1  0  0  0  0
 49 54  1  6  0  0  0
 50 48  1  6  0  0  0
 50 52  1  0  0  0  0
 51 46  1  6  0  0  0
 51 49  1  0  0  0  0
 52 55  1  0  0  0  0
 52 49  1  0  0  0  0
 54 53  1  0  0  0  0
 56 63  1  0  0  0  0
 56 55  1  0  0  0  0
 57 58  1  0  0  0  0
 60 58  1  0  0  0  0
 60 59  1  0  0  0  0
 61 63  1  0  0  0  0
 61 57  1  0  0  0  0
 62 59  1  0  0  0  0
 63 62  2  0  0  0  0
M  END
>  <MODEL>
2

>  <REMARK>
 VINA RESULT:      -5.9      2.494      4.290
  Name = 
  20 active torsions:
  status: ('A' for Active; 'I' for Inactive)
    1  A    between atoms: C_1  and  C_15
    2  A    between atoms: C_1  and  C_41
    3  A    between atoms: C_6  and  C_14
    4  A    between atoms: C_8  and  C_28
    5  A    between atoms: N_12  and  N_16
    6  A    between atoms: N_12  and  C_61
    7  A    between atoms: C_15  and  C_61
    8  A    between atoms: N_16  and  N_20
    9  A    between atoms: C_17  and  N_27
   10  A    between atoms: C_18  and  C_28
   11  A    between atoms: C_23  and  O_50
   12  A    between atoms: C_28  and  C_42
   13  A    between atoms: C_31  and  C_32
   14  A    between atoms: C_31  and  C_59
   15  A    between atoms: C_33  and  C_42
   16  A    between atoms: C_34  and  C_43
   17  A    between atoms: C_34  and  C_52
   18  A    between atoms: N_40  and  N_49
   19  A    between atoms: N_40  and  C_51
   20  A    between atoms: C_51  and  C_54
                            x       y       z     vdW  Elec       q    Type
                         _______ _______ _______ _____ _____    ______ ____

>  <TORSDO>
F 20

$$$$
=
 OpenBabel10222415593D

 63 69  0  0  1  0  0  0  0  0999 V2000
  195.6050  175.3360  135.5790 C   0  0  1  0  0  3  0  0  0  0  0  0
  194.5540  174.2060  135.6450 C   0  0  0  0  0  2  0  0  0  0  0  0
  193.3100  174.9320  135.9910 C   0  0  2  0  0  3  0  0  0  0  0  0
  191.7690  175.7580  137.4640 C   0  0  0  0  0  0  0  0  0  0  0  0
  192.6000  176.7160  137.1830 N   0  0  0  0  0  0  0  0  0  0  0  0
  193.5180  176.1860  136.2380 C   0  0  1  0  0  3  0  0  0  0  0  0
  192.1870  174.4490  136.8400 C   0  0  1  0  0  3  0  0  0  0  0  0
  194.9180  176.6200  136.0640 C   0  0  0  0  0  2  0  0  0  0  0  0
  196.8760  175.0200  136.3870 C   0  0  1  0  0  3  0  0  0  0  0  0
  196.6340  174.1390  137.6380 C   0  0  1  0  0  3  0  0  0  0  0  0
  197.6710  173.2190  137.8250 O   0  0  0  0  0  1  0  0  0  0  0  0
  196.4930  174.9720  138.8720 C   0  0  0  0  0  0  0  0  0  0  0  0
  197.7170  175.4980  139.5440 C   0  0  0  0  0  1  0  0  0  0  0  0
  195.3870  175.2590  139.3070 O   0  0  0  0  0  0  0  0  0  0  0  0
  198.0070  174.5330  135.4700 C   0  0  0  0  0  2  0  0  0  0  0  0
  198.6730  175.6630  134.6910 C   0  0  0  0  0  1  0  0  0  0  0  0
  191.0920  173.8050  136.0030 C   0  0  0  0  0  2  0  0  0  0  0  0
  190.5640  171.5540  134.9280 C   0  0  0  0  0  0  0  0  0  0  0  0
  190.9630  170.2420  134.6080 C   0  0  0  0  0  3  0  0  0  0  0  0
  192.7240  171.9110  135.9790 C   0  0  0  0  0  3  0  0  0  0  0  0
  191.4720  172.4080  135.5970 C   0  0  0  0  0  0  0  0  0  0  0  0
  193.1130  170.6120  135.6470 C   0  0  0  0  0  3  0  0  0  0  0  0
  192.2290  169.7760  134.9610 C   0  0  0  0  0  3  0  0  0  0  0  0
  189.1860  171.9860  134.6370 C   0  0  0  0  0  3  0  0  0  0  0  0
  188.1930  171.5450  135.3470 N   0  0  0  0  0  0  0  0  0  0  0  0
  186.8940  171.9780  135.0610 N   0  0  0  0  0  2  0  0  0  0  0  0
  186.1230  172.5930  136.0470 N   0  0  0  0  0  2  0  0  0  0  0  0
  184.8580  172.9690  135.4230 C   0  0  0  0  0  2  0  0  0  0  0  0
  184.7380  174.4910  135.3380 C   0  0  2  0  0  3  0  0  0  0  0  0
  183.5430  174.8570  134.5950 N   0  0  0  0  0  1  0  0  0  0  0  0
  185.9640  175.1670  134.7080 C   0  0  0  0  0  2  0  0  0  0  0  0
  184.5400  177.3040  137.2420 C   0  0  0  0  0  0  0  0  0  0  0  0
  186.9620  177.0080  135.7930 C   0  0  0  0  0  2  0  0  0  0  0  0
  183.1710  177.5280  136.8650 N   0  0  0  0  0  2  0  0  0  0  0  0
  184.9120  177.5230  138.4230 O   0  0  0  0  0  0  0  0  0  0  0  0
  185.5250  177.0460  136.2400 N   0  0  0  0  0  0  0  0  0  0  0  0
  185.9930  176.6830  134.8610 C   0  0  2  0  0  3  0  0  0  0  0  0
  182.1800  179.1090  140.5170 C   0  0  1  0  0  3  0  0  0  0  0  0
  182.1350  178.0180  137.7880 C   0  0  2  0  0  0  0  0  0  0  0  0
  180.7940  177.8200  137.0970 C   0  0  0  0  0  1  0  0  0  0  0  0
  181.4310  177.8850  139.9880 C   0  0  0  0  0  2  0  0  0  0  0  0
  183.1850  178.6750  141.5560 C   0  0  0  0  0  1  0  0  0  0  0  0
  182.3020  179.5500  138.0170 C   0  0  0  0  0  2  0  0  0  0  0  0
  182.9100  179.8590  139.3940 C   0  0  0  0  0  2  0  0  0  0  0  0
  182.1850  177.2460  138.9800 O   0  0  0  0  0  0  0  0  0  0  0  0
  190.7820  175.8700  138.5860 C   0  0  0  0  0  2  0  0  0  0  0  0
  191.5090  177.4140  140.3990 C   0  0  0  0  0  2  0  0  0  0  0  0
  190.8200  175.9760  142.3210 C   0  0  0  0  0  1  0  0  0  0  0  0
  189.2700  177.5700  139.5770 C   0  0  1  0  0  3  0  0  0  0  0  0
  190.5390  177.2590  141.5520 C   0  0  2  0  0  3  0  0  0  0  0  0
  190.6850  177.2910  139.1380 C   0  0  2  0  0  3  0  0  0  0  0  0
  189.1770  177.2300  141.0160 N   0  0  0  0  0  0  0  0  0  0  0  0
  189.1360  179.0870  137.9440 C   0  0  0  0  0  1  0  0  0  0  0  0
  188.9520  178.9120  139.3190 O   0  0  0  0  0  0  0  0  0  0  0  0
  188.4270  178.1960  141.7130 N   0  0  0  0  0  2  0  0  0  0  0  0
  187.1900  177.5550  142.1500 C   0  0  0  0  0  2  0  0  0  0  0  0
  188.7680  177.6380  145.5040 C   0  0  0  0  0  2  0  0  0  0  0  0
  187.9470  177.7000  146.7900 C   0  0  0  0  0  2  0  0  0  0  0  0
  185.9100  178.3670  145.5970 O   0  0  0  0  0  0  0  0  0  0  0  0
  186.4450  177.4760  146.5770 C   0  0  0  0  0  2  0  0  0  0  0  0
  188.1150  176.7700  144.4220 C   0  0  0  0  0  2  0  0  0  0  0  0
  186.1480  178.2890  144.2150 C   0  0  0  0  0  3  0  0  0  0  0  0
  187.1170  177.5670  143.6410 C   0  0  0  0  0  0  0  0  0  0  0  0
  1  2  1  0  0  0  0
  1  8  1  0  0  0  0
  1  9  1  1  0  0  0
  3  2  1  1  0  0  0
  3  6  1  0  0  0  0
  3  7  1  0  0  0  0
  4 46  1  0  0  0  0
  5  4  2  0  0  0  0
  6  8  1  1  0  0  0
  6  5  1  0  0  0  0
  7 17  1  6  0  0  0
  7  4  1  0  0  0  0
  9 15  1  6  0  0  0
  9 10  1  0  0  0  0
 10 11  1  1  0  0  0
 10 12  1  0  0  0  0
 12 14  2  0  0  0  0
 12 13  1  0  0  0  0
 16 15  1  0  0  0  0
 18 21  1  0  0  0  0
 19 18  2  0  0  0  0
 19 23  1  0  0  0  0
 21 20  2  0  0  0  0
 21 17  1  0  0  0  0
 22 20  1  0  0  0  0
 23 22  2  0  0  0  0
 24 18  1  0  0  0  0
 24 25  2  0  0  0  0
 26 25  1  0  0  0  0
 26 27  1  0  0  0  0
 28 27  1  0  0  0  0
 29 30  1  6  0  0  0
 29 28  1  0  0  0  0
 31 29  1  0  0  0  0
 32 35  2  0  0  0  0
 33 36  1  0  0  0  0
 34 32  1  0  0  0  0
 34 39  1  0  0  0  0
 36 32  1  0  0  0  0
 37 31  1  1  0  0  0
 37 33  1  0  0  0  0
 37 36  1  0  0  0  0
 38 42  1  1  0  0  0
 39 40  1  6  0  0  0
 39 43  1  0  0  0  0
 39 45  1  0  0  0  0
 41 38  1  0  0  0  0
 43 44  1  0  0  0  0
 44 38  1  0  0  0  0
 45 41  1  0  0  0  0
 47 50  1  0  0  0  0
 49 54  1  1  0  0  0
 49 52  1  0  0  0  0
 50 48  1  6  0  0  0
 51 46  1  1  0  0  0
 51 49  1  0  0  0  0
 51 47  1  0  0  0  0
 52 50  1  0  0  0  0
 52 55  1  0  0  0  0
 53 54  1  0  0  0  0
 55 56  1  0  0  0  0
 56 63  1  0  0  0  0
 57 58  1  0  0  0  0
 59 60  1  0  0  0  0
 60 58  1  0  0  0  0
 61 57  1  0  0  0  0
 62 59  1  0  0  0  0
 63 62  2  0  0  0  0
 63 61  1  0  0  0  0
M  END
>  <MODEL>
3

>  <REMARK>
 VINA RESULT:      -5.6      2.495      8.346
  Name = 
  20 active torsions:
  status: ('A' for Active; 'I' for Inactive)
    1  A    between atoms: C_1  and  C_15
    2  A    between atoms: C_1  and  C_41
    3  A    between atoms: C_6  and  C_14
    4  A    between atoms: C_8  and  C_28
    5  A    between atoms: N_12  and  N_16
    6  A    between atoms: N_12  and  C_61
    7  A    between atoms: C_15  and  C_61
    8  A    between atoms: N_16  and  N_20
    9  A    between atoms: C_17  and  N_27
   10  A    between atoms: C_18  and  C_28
   11  A    between atoms: C_23  and  O_50
   12  A    between atoms: C_28  and  C_42
   13  A    between atoms: C_31  and  C_32
   14  A    between atoms: C_31  and  C_59
   15  A    between atoms: C_33  and  C_42
   16  A    between atoms: C_34  and  C_43
   17  A    between atoms: C_34  and  C_52
   18  A    between atoms: N_40  and  N_49
   19  A    between atoms: N_40  and  C_51
   20  A    between atoms: C_51  and  C_54
                            x       y       z     vdW  Elec       q    Type
                         _______ _______ _______ _____ _____    ______ ____

>  <TORSDO>
F 20

$$$$
=
 OpenBabel10222415593D

 63 69  0  0  1  0  0  0  0  0999 V2000
  194.4360  175.4700  136.0740 C   0  0  1  0  0  3  0  0  0  0  0  0
  193.2600  174.4700  136.0280 C   0  0  0  0  0  2  0  0  0  0  0  0
  192.1280  175.2660  136.5550 C   0  0  2  0  0  3  0  0  0  0  0  0
  190.7600  176.0140  138.2280 C   0  0  0  0  0  0  0  0  0  0  0  0
  191.6880  176.9050  138.0480 N   0  0  0  0  0  0  0  0  0  0  0  0
  192.4950  176.4330  136.9800 C   0  0  1  0  0  3  0  0  0  0  0  0
  190.9910  174.7830  137.3850 C   0  0  1  0  0  3  0  0  0  0  0  0
  193.9300  176.7290  136.7910 C   0  0  0  0  0  2  0  0  0  0  0  0
  195.6920  174.8870  136.7460 C   0  0  1  0  0  3  0  0  0  0  0  0
  195.4170  174.1450  138.0770 C   0  0  1  0  0  3  0  0  0  0  0  0
  195.6720  172.7750  137.9620 O   0  0  0  0  0  1  0  0  0  0  0  0
  196.2440  174.7010  139.1930 C   0  0  0  0  0  0  0  0  0  0  0  0
  197.7290  174.5770  139.1360 C   0  0  0  0  0  1  0  0  0  0  0  0
  195.7160  175.2910  140.1250 O   0  0  0  0  0  0  0  0  0  0  0  0
  196.5450  174.1030  135.7400 C   0  0  0  0  0  2  0  0  0  0  0  0
  197.7990  174.8550  135.3030 C   0  0  0  0  0  1  0  0  0  0  0  0
  189.7930  174.4080  136.5260 C   0  0  0  0  0  2  0  0  0  0  0  0
  188.9460  172.2910  135.3850 C   0  0  0  0  0  0  0  0  0  0  0  0
  189.2210  171.0570  134.7640 C   0  0  0  0  0  3  0  0  0  0  0  0
  191.3320  172.6300  135.6770 C   0  0  0  0  0  3  0  0  0  0  0  0
  190.0210  173.1000  135.8200 C   0  0  0  0  0  0  0  0  0  0  0  0
  191.5930  171.4100  135.0500 C   0  0  0  0  0  3  0  0  0  0  0  0
  190.5330  170.6220  134.5940 C   0  0  0  0  0  3  0  0  0  0  0  0
  187.5480  172.6780  135.6460 C   0  0  0  0  0  3  0  0  0  0  0  0
  186.8160  171.9910  136.4690 N   0  0  0  0  0  0  0  0  0  0  0  0
  185.4960  172.3830  136.7110 N   0  0  0  0  0  2  0  0  0  0  0  0
  185.1700  173.0860  137.8710 N   0  0  0  0  0  2  0  0  0  0  0  0
  183.9030  173.7620  137.6170 C   0  0  0  0  0  2  0  0  0  0  0  0
  184.1280  175.0170  136.7740 C   0  0  2  0  0  3  0  0  0  0  0  0
  184.1810  174.6690  135.3630 N   0  0  0  0  0  1  0  0  0  0  0  0
  185.3920  175.7970  137.1610 C   0  0  0  0  0  2  0  0  0  0  0  0
  183.7350  178.7930  138.2960 C   0  0  0  0  0  0  0  0  0  0  0  0
  186.3010  177.9580  137.4190 C   0  0  0  0  0  2  0  0  0  0  0  0
  182.4250  178.7850  137.7050 N   0  0  0  0  0  2  0  0  0  0  0  0
  183.9730  179.5260  139.2900 O   0  0  0  0  0  0  0  0  0  0  0  0
  184.8230  178.1470  137.6340 N   0  0  0  0  0  0  0  0  0  0  0  0
  185.4390  177.2230  136.6250 C   0  0  2  0  0  3  0  0  0  0  0  0
  180.3130  182.2970  137.5490 C   0  0  1  0  0  3  0  0  0  0  0  0
  181.3010  179.6030  138.1870 C   0  0  2  0  0  0  0  0  0  0  0  0
  180.6060  178.8050  139.2800 C   0  0  0  0  0  1  0  0  0  0  0  0
  180.7620  181.7370  138.9000 C   0  0  0  0  0  2  0  0  0  0  0  0
  181.2250  183.4280  137.1440 C   0  0  0  0  0  1  0  0  0  0  0  0
  180.2580  179.8060  137.0470 C   0  0  0  0  0  2  0  0  0  0  0  0
  180.3290  181.2210  136.4540 C   0  0  0  0  0  2  0  0  0  0  0  0
  181.8160  180.8140  138.7230 O   0  0  0  0  0  0  0  0  0  0  0  0
  189.8410  176.0550  139.4100 C   0  0  0  0  0  2  0  0  0  0  0  0
  191.1750  177.8100  140.5680 C   0  0  0  0  0  2  0  0  0  0  0  0
  192.1640  176.3350  142.3230 C   0  0  0  0  0  1  0  0  0  0  0  0
  188.9450  177.3760  141.3100 C   0  0  1  0  0  3  0  0  0  0  0  0
  191.1950  177.4740  142.0440 C   0  0  2  0  0  3  0  0  0  0  0  0
  189.7990  177.4330  140.0680 C   0  0  2  0  0  3  0  0  0  0  0  0
  189.8430  177.0890  142.4530 N   0  0  0  0  0  0  0  0  0  0  0  0
  187.1480  178.4990  140.6080 C   0  0  0  0  0  1  0  0  0  0  0  0
  188.2520  178.5880  141.4610 O   0  0  0  0  0  0  0  0  0  0  0  0
  189.4990  177.8730  143.5710 N   0  0  0  0  0  2  0  0  0  0  0  0
  190.0410  177.2080  144.7530 C   0  0  0  0  0  2  0  0  0  0  0  0
  189.3200  178.2050  148.2500 C   0  0  0  0  0  2  0  0  0  0  0  0
  187.9060  178.1830  148.8290 C   0  0  0  0  0  2  0  0  0  0  0  0
  186.8720  178.0390  146.6090 O   0  0  0  0  0  0  0  0  0  0  0  0
  186.8780  177.4890  147.9270 C   0  0  0  0  0  2  0  0  0  0  0  0
  189.5840  177.0460  147.2820 C   0  0  0  0  0  2  0  0  0  0  0  0
  187.8820  177.8560  145.6490 C   0  0  0  0  0  3  0  0  0  0  0  0
  189.1110  177.3930  145.9050 C   0  0  0  0  0  0  0  0  0  0  0  0
  1  9  1  1  0  0  0
  1  8  1  0  0  0  0
  2  1  1  0  0  0  0
  3  2  1  1  0  0  0
  3  6  1  0  0  0  0
  3  7  1  0  0  0  0
  4 46  1  0  0  0  0
  5  4  2  0  0  0  0
  6  8  1  1  0  0  0
  6  5  1  0  0  0  0
  7 17  1  6  0  0  0
  7  4  1  0  0  0  0
  9 15  1  6  0  0  0
  9 10  1  0  0  0  0
 10 11  1  6  0  0  0
 10 12  1  0  0  0  0
 12 14  2  0  0  0  0
 13 12  1  0  0  0  0
 16 15  1  0  0  0  0
 18 24  1  0  0  0  0
 18 21  1  0  0  0  0
 19 18  2  0  0  0  0
 20 21  2  0  0  0  0
 21 17  1  0  0  0  0
 22 20  1  0  0  0  0
 23 19  1  0  0  0  0
 23 22  2  0  0  0  0
 24 25  2  0  0  0  0
 25 26  1  0  0  0  0
 26 27  1  0  0  0  0
 28 27  1  0  0  0  0
 29 30  1  6  0  0  0
 29 31  1  0  0  0  0
 29 28  1  0  0  0  0
 32 35  2  0  0  0  0
 33 36  1  0  0  0  0
 34 39  1  0  0  0  0
 34 32  1  0  0  0  0
 36 32  1  0  0  0  0
 37 31  1  1  0  0  0
 37 33  1  0  0  0  0
 37 36  1  0  0  0  0
 38 42  1  6  0  0  0
 38 41  1  0  0  0  0
 39 45  1  0  0  0  0
 39 40  1  1  0  0  0
 43 39  1  0  0  0  0
 44 43  1  0  0  0  0
 44 38  1  0  0  0  0
 45 41  1  0  0  0  0
 47 50  1  0  0  0  0
 49 54  1  1  0  0  0
 49 52  1  0  0  0  0
 50 48  1  6  0  0  0
 50 52  1  0  0  0  0
 51 46  1  1  0  0  0
 51 47  1  0  0  0  0
 51 49  1  0  0  0  0
 52 55  1  0  0  0  0
 53 54  1  0  0  0  0
 55 56  1  0  0  0  0
 56 63  1  0  0  0  0
 57 58  1  0  0  0  0
 59 60  1  0  0  0  0
 60 58  1  0  0  0  0
 61 57  1  0  0  0  0
 62 63  2  0  0  0  0
 62 59  1  0  0  0  0
 63 61  1  0  0  0  0
M  END
>  <MODEL>
4

>  <REMARK>
 VINA RESULT:      -4.7      2.684      8.313
  Name = 
  20 active torsions:
  status: ('A' for Active; 'I' for Inactive)
    1  A    between atoms: C_1  and  C_15
    2  A    between atoms: C_1  and  C_41
    3  A    between atoms: C_6  and  C_14
    4  A    between atoms: C_8  and  C_28
    5  A    between atoms: N_12  and  N_16
    6  A    between atoms: N_12  and  C_61
    7  A    between atoms: C_15  and  C_61
    8  A    between atoms: N_16  and  N_20
    9  A    between atoms: C_17  and  N_27
   10  A    between atoms: C_18  and  C_28
   11  A    between atoms: C_23  and  O_50
   12  A    between atoms: C_28  and  C_42
   13  A    between atoms: C_31  and  C_32
   14  A    between atoms: C_31  and  C_59
   15  A    between atoms: C_33  and  C_42
   16  A    between atoms: C_34  and  C_43
   17  A    between atoms: C_34  and  C_52
   18  A    between atoms: N_40  and  N_49
   19  A    between atoms: N_40  and  C_51
   20  A    between atoms: C_51  and  C_54
                            x       y       z     vdW  Elec       q    Type
                         _______ _______ _______ _____ _____    ______ ____

>  <TORSDO>
F 20

$$$$
=
 OpenBabel10222415593D

 63 69  0  0  1  0  0  0  0  0999 V2000
  180.0420  180.5560  138.3050 C   0  0  1  0  0  3  0  0  0  0  0  0
  181.2530  179.7100  137.8550 C   0  0  0  0  0  2  0  0  0  0  0  0
  181.4310  178.7630  138.9790 C   0  0  2  0  0  3  0  0  0  0  0  0
  182.3510  178.0970  140.9640 C   0  0  0  0  0  0  0  0  0  0  0  0
  181.2060  178.6530  141.2260 N   0  0  0  0  0  0  0  0  0  0  0  0
  180.6420  179.0180  139.9750 C   0  0  1  0  0  3  0  0  0  0  0  0
  182.7090  178.2090  139.5020 C   0  0  1  0  0  3  0  0  0  0  0  0
  179.7130  180.1430  139.7470 C   0  0  0  0  0  2  0  0  0  0  0  0
  180.2880  182.0700  138.1790 C   0  0  1  0  0  3  0  0  0  0  0  0
  181.1200  182.4800  136.9390 C   0  0  1  0  0  3  0  0  0  0  0  0
  180.6500  181.8570  135.7780 O   0  0  0  0  0  1  0  0  0  0  0  0
  181.1030  183.9620  136.7360 C   0  0  0  0  0  0  0  0  0  0  0  0
  180.5440  184.5210  135.4710 C   0  0  0  0  0  1  0  0  0  0  0  0
  181.5010  184.7160  137.6120 O   0  0  0  0  0  0  0  0  0  0  0  0
  178.9850  182.8590  138.3660 C   0  0  0  0  0  2  0  0  0  0  0  0
  179.0380  183.8330  139.5400 C   0  0  0  0  0  1  0  0  0  0  0  0
  183.0410  176.8710  138.8600 C   0  0  0  0  0  2  0  0  0  0  0  0
  184.4890  177.0720  136.7710 C   0  0  0  0  0  0  0  0  0  0  0  0
  184.5860  177.2430  135.3770 C   0  0  0  0  0  3  0  0  0  0  0  0
  182.0720  177.1810  136.5770 C   0  0  0  0  0  3  0  0  0  0  0  0
  183.2110  177.0110  137.3720 C   0  0  0  0  0  0  0  0  0  0  0  0
  182.1790  177.3400  135.1940 C   0  0  0  0  0  3  0  0  0  0  0  0
  183.4400  177.3720  134.5940 C   0  0  0  0  0  3  0  0  0  0  0  0
  185.7170  177.0440  137.5860 C   0  0  0  0  0  3  0  0  0  0  0  0
  186.2760  178.1490  137.9750 N   0  0  0  0  0  0  0  0  0  0  0  0
  187.4320  178.0980  138.7590 N   0  0  0  0  0  2  0  0  0  0  0  0
  188.3860  177.1030  138.5460 N   0  0  0  0  0  2  0  0  0  0  0  0
  189.6940  177.7180  138.7450 C   0  0  0  0  0  2  0  0  0  0  0  0
  190.8060  176.7300  138.3940 C   0  0  2  0  0  3  0  0  0  0  0  0
  192.0900  177.4140  138.3560 N   0  0  0  0  0  1  0  0  0  0  0  0
  190.5750  175.9930  137.0680 C   0  0  0  0  0  2  0  0  0  0  0  0
  193.5030  173.9880  136.4200 C   0  0  0  0  0  0  0  0  0  0  0  0
  191.4510  175.3200  134.9840 C   0  0  0  0  0  2  0  0  0  0  0  0
  194.5060  174.4140  137.3570 N   0  0  0  0  0  2  0  0  0  0  0  0
  193.6150  172.8780  135.8390 O   0  0  0  0  0  0  0  0  0  0  0  0
  192.4990  174.9030  135.9810 N   0  0  0  0  0  0  0  0  0  0  0  0
  191.6950  176.1680  136.0490 C   0  0  2  0  0  3  0  0  0  0  0  0
  198.5640  173.8870  137.0770 C   0  0  1  0  0  3  0  0  0  0  0  0
  195.7020  173.6260  137.6970 C   0  0  2  0  0  0  0  0  0  0  0  0
  195.2290  172.4200  138.4930 C   0  0  0  0  0  1  0  0  0  0  0  0
  197.6210  172.7210  136.7740 C   0  0  0  0  0  2  0  0  0  0  0  0
  199.0700  174.4740  135.7830 C   0  0  0  0  0  1  0  0  0  0  0  0
  196.6360  174.4480  138.6350 C   0  0  0  0  0  2  0  0  0  0  0  0
  197.8650  174.9870  137.8890 C   0  0  0  0  0  2  0  0  0  0  0  0
  196.3230  173.2000  136.4920 O   0  0  0  0  0  0  0  0  0  0  0  0
  183.3380  177.7730  142.0430 C   0  0  0  0  0  2  0  0  0  0  0  0
  184.9980  179.6150  142.2680 C   0  0  0  0  0  2  0  0  0  0  0  0
  187.0440  178.1830  142.2870 C   0  0  0  0  0  1  0  0  0  0  0  0
  184.1340  178.5900  144.2470 C   0  0  1  0  0  3  0  0  0  0  0  0
  186.1480  179.0990  143.1080 C   0  0  2  0  0  3  0  0  0  0  0  0
  183.7440  179.0050  142.8500 C   0  0  2  0  0  3  0  0  0  0  0  0
  185.5990  178.3650  144.2500 N   0  0  0  0  0  0  0  0  0  0  0  0
  182.4110  179.8790  144.8420 C   0  0  0  0  0  1  0  0  0  0  0  0
  183.7400  179.5810  145.1600 O   0  0  0  0  0  0  0  0  0  0  0  0
  186.1860  178.8940  145.4150 N   0  0  0  0  0  2  0  0  0  0  0  0
  186.6160  177.7660  146.2360 C   0  0  0  0  0  2  0  0  0  0  0  0
  190.0420  176.8240  147.2950 C   0  0  0  0  0  2  0  0  0  0  0  0
  191.1660  176.5740  146.2910 C   0  0  0  0  0  2  0  0  0  0  0  0
  189.6020  176.3750  144.4110 O   0  0  0  0  0  0  0  0  0  0  0  0
  190.8160  176.9840  144.8550 C   0  0  0  0  0  2  0  0  0  0  0  0
  189.1050  177.9600  146.8680 C   0  0  0  0  0  2  0  0  0  0  0  0
  188.3140  176.7190  144.8550 C   0  0  0  0  0  3  0  0  0  0  0  0
  188.0450  177.4470  145.9440 C   0  0  0  0  0  0  0  0  0  0  0  0
  1  9  1  1  0  0  0
  1  8  1  0  0  0  0
  2  1  1  0  0  0  0
  3  2  1  1  0  0  0
  3  7  1  0  0  0  0
  3  6  1  0  0  0  0
  4  5  2  0  0  0  0
  4 46  1  0  0  0  0
  6  8  1  1  0  0  0
  6  5  1  0  0  0  0
  7 17  1  6  0  0  0
  7  4  1  0  0  0  0
  9 15  1  6  0  0  0
 10 11  1  6  0  0  0
 10  9  1  0  0  0  0
 12 10  1  0  0  0  0
 12 14  2  0  0  0  0
 13 12  1  0  0  0  0
 15 16  1  0  0  0  0
 18 21  1  0  0  0  0
 18 24  1  0  0  0  0
 19 18  2  0  0  0  0
 20 21  2  0  0  0  0
 21 17  1  0  0  0  0
 22 20  1  0  0  0  0
 23 22  2  0  0  0  0
 23 19  1  0  0  0  0
 24 25  2  0  0  0  0
 25 26  1  0  0  0  0
 27 28  1  0  0  0  0
 27 26  1  0  0  0  0
 29 30  1  6  0  0  0
 29 28  1  0  0  0  0
 31 29  1  0  0  0  0
 32 34  1  0  0  0  0
 33 36  1  0  0  0  0
 33 37  1  0  0  0  0
 34 39  1  0  0  0  0
 35 32  2  0  0  0  0
 36 37  1  0  0  0  0
 36 32  1  0  0  0  0
 37 31  1  1  0  0  0
 38 42  1  6  0  0  0
 38 44  1  0  0  0  0
 39 40  1  1  0  0  0
 39 43  1  0  0  0  0
 41 38  1  0  0  0  0
 44 43  1  0  0  0  0
 45 41  1  0  0  0  0
 45 39  1  0  0  0  0
 47 51  1  0  0  0  0
 47 50  1  0  0  0  0
 49 52  1  0  0  0  0
 49 54  1  1  0  0  0
 50 48  1  6  0  0  0
 50 52  1  0  0  0  0
 51 46  1  6  0  0  0
 51 49  1  0  0  0  0
 52 55  1  0  0  0  0
 53 54  1  0  0  0  0
 55 56  1  0  0  0  0
 58 57  1  0  0  0  0
 59 60  1  0  0  0  0
 59 62  1  0  0  0  0
 60 58  1  0  0  0  0
 61 57  1  0  0  0  0
 62 63  2  0  0  0  0
 63 56  1  0  0  0  0
 63 61  1  0  0  0  0
M  END
>  <MODEL>
5

>  <REMARK>
 VINA RESULT:      -4.3      3.302     11.454
  Name = 
  20 active torsions:
  status: ('A' for Active; 'I' for Inactive)
    1  A    between atoms: C_1  and  C_15
    2  A    between atoms: C_1  and  C_41
    3  A    between atoms: C_6  and  C_14
    4  A    between atoms: C_8  and  C_28
    5  A    between atoms: N_12  and  N_16
    6  A    between atoms: N_12  and  C_61
    7  A    between atoms: C_15  and  C_61
    8  A    between atoms: N_16  and  N_20
    9  A    between atoms: C_17  and  N_27
   10  A    between atoms: C_18  and  C_28
   11  A    between atoms: C_23  and  O_50
   12  A    between atoms: C_28  and  C_42
   13  A    between atoms: C_31  and  C_32
   14  A    between atoms: C_31  and  C_59
   15  A    between atoms: C_33  and  C_42
   16  A    between atoms: C_34  and  C_43
   17  A    between atoms: C_34  and  C_52
   18  A    between atoms: N_40  and  N_49
   19  A    between atoms: N_40  and  C_51
   20  A    between atoms: C_51  and  C_54
                            x       y       z     vdW  Elec       q    Type
                         _______ _______ _______ _____ _____    ______ ____

>  <TORSDO>
F 20

$$$$
=
 OpenBabel10222415593D

 63 69  0  0  1  0  0  0  0  0999 V2000
  187.1030  178.5800  140.4710 C   0  0  1  0  0  3  0  0  0  0  0  0
  186.5390  177.4330  141.3380 C   0  0  0  0  0  2  0  0  0  0  0  0
  187.0440  177.7620  142.6910 C   0  0  2  0  0  3  0  0  0  0  0  0
  188.5630  177.6220  144.3950 C   0  0  0  0  0  0  0  0  0  0  0  0
  188.8350  178.6910  143.7110 N   0  0  0  0  0  0  0  0  0  0  0  0
  187.8540  178.7740  142.6870 C   0  0  1  0  0  3  0  0  0  0  0  0
  187.4600  176.8120  143.7580 C   0  0  1  0  0  3  0  0  0  0  0  0
  188.0430  179.4010  141.3640 C   0  0  0  0  0  2  0  0  0  0  0  0
  187.8070  178.0780  139.1980 C   0  0  1  0  0  3  0  0  0  0  0  0
  186.8470  177.7430  138.0290 C   0  0  1  0  0  3  0  0  0  0  0  0
  186.6990  178.8280  137.1600 O   0  0  0  0  0  1  0  0  0  0  0  0
  187.3270  176.5590  137.2520 C   0  0  0  0  0  0  0  0  0  0  0  0
  187.3730  176.6310  135.7620 C   0  0  0  0  0  1  0  0  0  0  0  0
  187.7210  175.5540  137.8260 O   0  0  0  0  0  0  0  0  0  0  0  0
  188.9820  178.9900  138.8190 C   0  0  0  0  0  2  0  0  0  0  0  0
  189.2590  179.0180  137.3190 C   0  0  0  0  0  1  0  0  0  0  0  0
  186.3120  176.5050  144.7090 C   0  0  0  0  0  2  0  0  0  0  0  0
  185.2620  178.4870  145.9200 C   0  0  0  0  0  0  0  0  0  0  0  0
  185.2930  179.4130  146.9820 C   0  0  0  0  0  3  0  0  0  0  0  0
  187.3030  177.4920  146.7810 C   0  0  0  0  0  3  0  0  0  0  0  0
  186.2670  177.4950  145.8390 C   0  0  0  0  0  0  0  0  0  0  0  0
  187.3180  178.4080  147.8350 C   0  0  0  0  0  3  0  0  0  0  0  0
  186.3100  179.3710  147.9340 C   0  0  0  0  0  3  0  0  0  0  0  0
  184.2370  178.6200  144.8700 C   0  0  0  0  0  3  0  0  0  0  0  0
  184.2300  179.6500  144.0810 N   0  0  0  0  0  0  0  0  0  0  0  0
  183.2550  179.7480  143.0830 N   0  0  0  0  0  2  0  0  0  0  0  0
  181.9450  179.3410  143.3340 N   0  0  0  0  0  2  0  0  0  0  0  0
  181.5570  178.4580  142.2390 C   0  0  0  0  0  2  0  0  0  0  0  0
  180.8380  179.2480  141.1470 C   0  0  2  0  0  3  0  0  0  0  0  0
  179.4450  178.8380  141.0680 N   0  0  0  0  0  1  0  0  0  0  0  0
  181.4930  179.1190  139.7650 C   0  0  0  0  0  2  0  0  0  0  0  0
  183.2750  177.1630  137.3130 C   0  0  0  0  0  0  0  0  0  0  0  0
  183.7260  179.3630  139.0470 C   0  0  0  0  0  2  0  0  0  0  0  0
  182.8800  175.7960  137.5140 N   0  0  0  0  0  2  0  0  0  0  0  0
  183.8090  177.5110  136.2280 O   0  0  0  0  0  0  0  0  0  0  0  0
  183.2670  178.0800  138.4080 N   0  0  0  0  0  0  0  0  0  0  0  0
  182.9010  178.5380  139.7890 C   0  0  2  0  0  3  0  0  0  0  0  0
  185.0100  172.5520  136.1900 C   0  0  1  0  0  3  0  0  0  0  0  0
  183.0640  174.7310  136.5150 C   0  0  2  0  0  0  0  0  0  0  0  0
  181.9990  174.9320  135.4480 C   0  0  0  0  0  1  0  0  0  0  0  0
  184.6790  173.6920  135.2240 C   0  0  0  0  0  2  0  0  0  0  0  0
  186.4490  172.6670  136.6300 C   0  0  0  0  0  1  0  0  0  0  0  0
  182.7980  173.3390  137.1620 C   0  0  0  0  0  2  0  0  0  0  0  0
  184.1020  172.5720  137.4270 C   0  0  0  0  0  2  0  0  0  0  0  0
  184.3580  174.8650  135.9420 O   0  0  0  0  0  0  0  0  0  0  0  0
  189.5030  177.0820  145.4290 C   0  0  0  0  0  2  0  0  0  0  0  0
  191.9270  177.4910  145.0300 C   0  0  0  0  0  2  0  0  0  0  0  0
  191.6890  179.7430  143.9790 C   0  0  0  0  0  1  0  0  0  0  0  0
  190.6350  176.4380  143.3160 C   0  0  1  0  0  3  0  0  0  0  0  0
  192.0550  178.2850  143.7470 C   0  0  2  0  0  3  0  0  0  0  0  0
  190.7860  176.5240  144.8140 C   0  0  2  0  0  3  0  0  0  0  0  0
  191.1610  177.7010  142.7460 N   0  0  0  0  0  0  0  0  0  0  0  0
  191.6680  174.5710  143.9730 C   0  0  0  0  0  1  0  0  0  0  0  0
  191.3150  175.3070  142.8380 O   0  0  0  0  0  0  0  0  0  0  0  0
  191.9260  177.4500  141.5900 N   0  0  0  0  0  2  0  0  0  0  0  0
  190.9930  177.1590  140.5050 C   0  0  0  0  0  2  0  0  0  0  0  0
  191.2070  176.2850  136.9080 C   0  0  0  0  0  2  0  0  0  0  0  0
  192.5200  175.8700  136.2470 C   0  0  0  0  0  2  0  0  0  0  0  0
  193.8660  176.7300  138.1090 O   0  0  0  0  0  0  0  0  0  0  0  0
  193.6600  175.6150  137.2400 C   0  0  0  0  0  2  0  0  0  0  0  0
  191.0730  175.7620  138.3430 C   0  0  0  0  0  2  0  0  0  0  0  0
  193.0050  177.1150  139.1510 C   0  0  0  0  0  3  0  0  0  0  0  0
  191.7470  176.6890  139.3060 C   0  0  0  0  0  0  0  0  0  0  0  0
  1  9  1  6  0  0  0
  1  2  1  0  0  0  0
  1  8  1  0  0  0  0
  3  2  1  6  0  0  0
  3  7  1  0  0  0  0
  4 46  1  0  0  0  0
  5  4  2  0  0  0  0
  6  8  1  6  0  0  0
  6  3  1  0  0  0  0
  6  5  1  0  0  0  0
  7  4  1  0  0  0  0
  7 17  1  1  0  0  0
  9 15  1  6  0  0  0
 10 11  1  6  0  0  0
 10  9  1  0  0  0  0
 12 14  2  0  0  0  0
 12 10  1  0  0  0  0
 13 12  1  0  0  0  0
 16 15  1  0  0  0  0
 17 21  1  0  0  0  0
 18 19  1  0  0  0  0
 19 23  2  0  0  0  0
 20 22  2  0  0  0  0
 21 18  2  0  0  0  0
 21 20  1  0  0  0  0
 22 23  1  0  0  0  0
 24 18  1  0  0  0  0
 25 24  2  0  0  0  0
 26 27  1  0  0  0  0
 26 25  1  0  0  0  0
 28 27  1  0  0  0  0
 29 30  1  6  0  0  0
 29 28  1  0  0  0  0
 31 29  1  0  0  0  0
 32 34  1  0  0  0  0
 32 36  1  0  0  0  0
 33 37  1  0  0  0  0
 35 32  2  0  0  0  0
 36 33  1  0  0  0  0
 36 37  1  0  0  0  0
 37 31  1  6  0  0  0
 38 42  1  1  0  0  0
 38 44  1  0  0  0  0
 39 40  1  6  0  0  0
 39 43  1  0  0  0  0
 39 34  1  0  0  0  0
 41 45  1  0  0  0  0
 41 38  1  0  0  0  0
 43 44  1  0  0  0  0
 45 39  1  0  0  0  0
 49 54  1  6  0  0  0
 49 51  1  0  0  0  0
 50 48  1  1  0  0  0
 50 47  1  0  0  0  0
 51 47  1  0  0  0  0
 51 46  1  1  0  0  0
 52 49  1  0  0  0  0
 52 50  1  0  0  0  0
 54 53  1  0  0  0  0
 55 52  1  0  0  0  0
 56 55  1  0  0  0  0
 57 61  1  0  0  0  0
 58 57  1  0  0  0  0
 58 60  1  0  0  0  0
 59 62  1  0  0  0  0
 60 59  1  0  0  0  0
 61 63  1  0  0  0  0
 62 63  2  0  0  0  0
 63 56  1  0  0  0  0
M  END
>  <MODEL>
6

>  <REMARK>
 VINA RESULT:      -3.0      2.938      7.359
  Name = 
  20 active torsions:
  status: ('A' for Active; 'I' for Inactive)
    1  A    between atoms: C_1  and  C_15
    2  A    between atoms: C_1  and  C_41
    3  A    between atoms: C_6  and  C_14
    4  A    between atoms: C_8  and  C_28
    5  A    between atoms: N_12  and  N_16
    6  A    between atoms: N_12  and  C_61
    7  A    between atoms: C_15  and  C_61
    8  A    between atoms: N_16  and  N_20
    9  A    between atoms: C_17  and  N_27
   10  A    between atoms: C_18  and  C_28
   11  A    between atoms: C_23  and  O_50
   12  A    between atoms: C_28  and  C_42
   13  A    between atoms: C_31  and  C_32
   14  A    between atoms: C_31  and  C_59
   15  A    between atoms: C_33  and  C_42
   16  A    between atoms: C_34  and  C_43
   17  A    between atoms: C_34  and  C_52
   18  A    between atoms: N_40  and  N_49
   19  A    between atoms: N_40  and  C_51
   20  A    between atoms: C_51  and  C_54
                            x       y       z     vdW  Elec       q    Type
                         _______ _______ _______ _____ _____    ______ ____

>  <TORSDO>
F 20

$$$$
