=
 OpenBabel10222415453D

 44 49  0  0  1  0  0  0  0  0999 V2000
  189.4390  177.0940  140.5690 C   0  0  0  0  0  3  0  0  0  0  0  0
  189.6900  177.1380  141.8860 C   0  0  0  0  0  0  0  0  0  0  0  0
  190.2970  177.7590  139.5370 C   0  0  1  0  0  3  0  0  0  0  0  0
  191.1820  176.7230  138.8620 C   0  0  0  0  0  1  0  0  0  0  0  0
  189.4430  178.3910  138.5460 N   0  0  0  0  0  2  0  0  0  0  0  0
  188.1320  177.9550  138.7900 N   0  0  0  0  0  2  0  0  0  0  0  0
  186.1250  177.7120  137.2520 C   0  0  2  0  0  0  0  0  0  0  0  0
  188.1640  176.3050  136.9920 O   0  0  0  0  0  1  0  0  0  0  0  0
  185.3100  178.4460  138.3080 C   0  0  0  0  0  1  0  0  0  0  0  0
  187.5930  177.4610  137.5300 C   0  0  2  0  0  0  0  0  0  0  0  0
  187.1930  178.5230  136.5180 C   0  0  0  0  0  2  0  0  0  0  0  0
  185.4690  176.6750  136.4600 N   0  0  0  0  0  2  0  0  0  0  0  0
  184.6450  175.8630  137.3420 C   0  0  0  0  0  2  0  0  0  0  0  0
  180.8340  175.1200  137.3640 C   0  0  0  0  0  1  0  0  0  0  0  0
  182.4780  176.8590  137.1010 O   0  0  0  0  0  0  0  0  0  0  0  0
  182.1800  175.6690  137.7880 C   0  0  0  0  0  0  0  0  0  0  0  0
  182.4810  175.8070  139.2730 C   0  0  0  0  0  1  0  0  0  0  0  0
  183.2490  175.7280  136.7550 C   0  0  2  0  0  3  0  0  0  0  0  0
  190.8920  177.8680  142.4280 C   0  0  1  0  0  3  0  0  0  0  0  0
  190.4760  178.8840  143.4770 C   0  0  0  0  0  1  0  0  0  0  0  0
  191.9010  176.8830  142.9970 C   0  0  0  0  0  2  0  0  0  0  0  0
  191.2910  176.0410  144.1030 C   0  0  0  0  0  2  0  0  0  0  0  0
  192.3790  175.1410  146.0400 O   0  0  0  0  0  0  0  0  0  0  0  0
  191.0520  177.0740  146.3410 C   0  0  0  0  0  2  0  0  0  0  0  0
  192.3810  175.4230  147.4150 C   0  0  0  0  0  2  0  0  0  0  0  0
  191.9910  176.3380  145.4160 C   0  0  2  0  0  3  0  0  0  0  0  0
  191.3590  176.5020  147.6930 C   0  0  0  0  0  2  0  0  0  0  0  0
  188.7810  176.3730  142.8070 C   0  0  0  0  0  2  0  0  0  0  0  0
  187.0980  177.4730  144.3090 C   0  0  2  0  0  3  0  0  0  0  0  0
  187.5360  177.1490  143.0950 C   0  0  0  0  0  0  0  0  0  0  0  0
  187.6660  177.2380  145.5640 C   0  0  0  0  0  3  0  0  0  0  0  0
  185.1780  178.5640  145.2960 C   0  0  0  0  0  0  0  0  0  0  0  0
  183.8130  179.0200  141.4910 O   0  0  0  0  0  0  0  0  0  0  0  0
  183.8810  179.2370  145.0220 C   0  0  0  0  0  3  0  0  0  0  0  0
  184.2320  178.8860  142.6690 C   0  0  0  0  0  0  0  0  0  0  0  0
  186.9660  177.6810  146.7090 C   0  0  0  0  0  0  0  0  0  0  0  0
  185.7180  178.3520  146.5770 C   0  0  0  0  0  0  0  0  0  0  0  0
  183.4590  179.3760  143.7890 N   0  0  0  0  0  0  0  0  0  0  0  0
  186.5370  177.6090  142.0550 C   0  0  0  0  0  3  0  0  0  0  0  0
  185.5150  178.2300  142.9560 C   0  0  0  0  0  0  0  0  0  0  0  0
  185.9020  178.1110  144.2010 C   0  0  0  0  0  0  0  0  0  0  0  0
  185.0330  178.7970  147.7040 O   0  0  0  0  0  1  0  0  0  0  0  0
  187.5610  177.4470  148.0570 C   0  0  0  0  0  2  0  0  0  0  0  0
  188.5040  178.5790  148.4160 C   0  0  0  0  0  1  0  0  0  0  0  0
  1  2  2  0  0  0  0
  2 19  1  0  0  0  0
  2 28  1  0  0  0  0
  3  4  1  6  0  0  0
  3  1  1  0  0  0  0
  5  6  1  0  0  0  0
  5  3  1  0  0  0  0
  7 10  1  0  0  0  0
  7  9  1  1  0  0  0
 10  8  1  6  0  0  0
 10  6  1  0  0  0  0
 11  7  1  0  0  0  0
 11 10  1  0  0  0  0
 12  7  1  0  0  0  0
 12 13  1  0  0  0  0
 14 16  1  0  0  0  0
 15 16  1  0  0  0  0
 16 17  1  0  0  0  0
 18 15  1  0  0  0  0
 18 13  1  1  0  0  0
 18 16  1  0  0  0  0
 19 21  1  0  0  0  0
 19 20  1  1  0  0  0
 21 22  1  0  0  0  0
 23 25  1  0  0  0  0
 24 27  1  0  0  0  0
 25 27  1  0  0  0  0
 26 22  1  6  0  0  0
 26 23  1  0  0  0  0
 26 24  1  0  0  0  0
 28 30  1  0  0  0  0
 29 31  1  1  0  0  0
 30 29  1  0  0  0  0
 31 36  2  0  0  0  0
 32 37  2  0  0  0  0
 33 35  2  0  0  0  0
 34 32  1  0  0  0  0
 35 40  1  0  0  0  0
 35 38  1  0  0  0  0
 36 43  1  0  0  0  0
 37 36  1  0  0  0  0
 37 42  1  0  0  0  0
 38 34  2  0  0  0  0
 39 40  1  0  0  0  0
 39 30  2  0  0  0  0
 40 41  2  0  0  0  0
 41 29  1  0  0  0  0
 41 32  1  0  0  0  0
 43 44  1  0  0  0  0
M  END
>  <MODEL>
1

>  <REMARK>
 VINA RESULT:      -8.8      0.000      0.000
  Name = 
  14 active torsions:
  status: ('A' for Active; 'I' for Inactive)
    1  A    between atoms: C_2  and  N_31
    2  A    between atoms: C_7  and  C_14
    3  A    between atoms: C_8  and  C_19
    4  A    between atoms: N_12  and  N_38
    5  A    between atoms: N_12  and  C_40
    6  A    between atoms: C_13  and  C_22
    7  A    between atoms: C_14  and  N_38
    8  A    between atoms: C_15  and  C_41
    9  A    between atoms: C_16  and  C_20
   10  A    between atoms: C_16  and  C_30
   11  A    between atoms: C_19  and  C_30
   12  A    between atoms: C_20  and  C_36
   13  A    between atoms: N_31  and  C_41
   14  A    between atoms: C_34  and  C_36
                            x       y       z     vdW  Elec       q    Type
                         _______ _______ _______ _____ _____    ______ ____

>  <TORSDO>
F 14

$$$$
=
 OpenBabel10222415453D

 44 49  0  0  1  0  0  0  0  0999 V2000
  188.3780  177.3830  140.4710 C   0  0  0  0  0  3  0  0  0  0  0  0
  189.3080  177.1380  141.4060 C   0  0  0  0  0  0  0  0  0  0  0  0
  188.6190  178.2300  139.2590 C   0  0  1  0  0  3  0  0  0  0  0  0
  189.0380  177.3480  138.0940 C   0  0  0  0  0  1  0  0  0  0  0  0
  187.3950  178.9350  138.9210 N   0  0  0  0  0  2  0  0  0  0  0  0
  186.3690  178.3810  139.7000 N   0  0  0  0  0  2  0  0  0  0  0  0
  183.8380  178.1740  139.6060 C   0  0  2  0  0  0  0  0  0  0  0  0
  185.2610  177.8920  137.5810 O   0  0  0  0  0  1  0  0  0  0  0  0
  183.8640  177.9840  141.1170 C   0  0  0  0  0  1  0  0  0  0  0  0
  185.1580  178.3720  138.8900 C   0  0  2  0  0  0  0  0  0  0  0  0
  184.2250  179.5570  139.0790 C   0  0  0  0  0  2  0  0  0  0  0  0
  182.8240  177.4670  138.8310 N   0  0  0  0  0  2  0  0  0  0  0  0
  182.2700  176.3980  139.6470 C   0  0  0  0  0  2  0  0  0  0  0  0
  179.7550  173.5960  138.7000 C   0  0  0  0  0  1  0  0  0  0  0  0
  180.4040  175.8680  138.2380 O   0  0  0  0  0  0  0  0  0  0  0  0
  180.2930  174.8990  139.2520 C   0  0  0  0  0  0  0  0  0  0  0  0
  179.6510  175.4880  140.5000 C   0  0  0  0  0  1  0  0  0  0  0  0
  181.6160  175.3580  138.7520 C   0  0  2  0  0  3  0  0  0  0  0  0
  190.7010  177.7030  141.2870 C   0  0  1  0  0  3  0  0  0  0  0  0
  191.2450  178.0840  142.6530 C   0  0  0  0  0  1  0  0  0  0  0  0
  191.6210  176.7100  140.5950 C   0  0  0  0  0  2  0  0  0  0  0  0
  192.5030  177.3960  139.5670 C   0  0  0  0  0  2  0  0  0  0  0  0
  193.8100  176.9940  137.5980 O   0  0  0  0  0  0  0  0  0  0  0  0
  191.9440  175.5910  137.9650 C   0  0  0  0  0  2  0  0  0  0  0  0
  193.7180  176.1430  136.4850 C   0  0  0  0  0  2  0  0  0  0  0  0
  193.0700  176.3630  138.6100 C   0  0  2  0  0  3  0  0  0  0  0  0
  192.4100  175.3910  136.5540 C   0  0  0  0  0  2  0  0  0  0  0  0
  188.9510  176.2210  142.5400 C   0  0  0  0  0  2  0  0  0  0  0  0
  188.4300  177.1510  144.8120 C   0  0  2  0  0  3  0  0  0  0  0  0
  188.0940  176.9220  143.5460 C   0  0  0  0  0  0  0  0  0  0  0  0
  189.6150  176.8650  145.4960 C   0  0  0  0  0  3  0  0  0  0  0  0
  187.4210  178.0930  146.7980 C   0  0  0  0  0  0  0  0  0  0  0  0
  184.1220  178.7210  144.5030 O   0  0  0  0  0  0  0  0  0  0  0  0
  186.2000  178.7240  147.3670 C   0  0  0  0  0  3  0  0  0  0  0  0
  185.1400  178.5340  145.2160 C   0  0  0  0  0  0  0  0  0  0  0  0
  189.6970  177.2050  146.8650 C   0  0  0  0  0  0  0  0  0  0  0  0
  188.5980  177.8270  147.5210 C   0  0  0  0  0  0  0  0  0  0  0  0
  185.1480  178.9190  146.6100 N   0  0  0  0  0  0  0  0  0  0  0  0
  186.6790  177.4000  143.3010 C   0  0  0  0  0  3  0  0  0  0  0  0
  186.3570  177.9190  144.6680 C   0  0  0  0  0  0  0  0  0  0  0  0
  187.3870  177.7410  145.4560 C   0  0  0  0  0  0  0  0  0  0  0  0
  188.6820  178.1710  148.8670 O   0  0  0  0  0  1  0  0  0  0  0  0
  190.9570  176.9160  147.6090 C   0  0  0  0  0  2  0  0  0  0  0  0
  191.8760  176.0520  146.7670 C   0  0  0  0  0  1  0  0  0  0  0  0
  1  2  2  0  0  0  0
  2 28  1  0  0  0  0
  3  4  1  6  0  0  0
  3  1  1  0  0  0  0
  5  3  1  0  0  0  0
  5  6  1  0  0  0  0
  7  9  1  1  0  0  0
 10  8  1  6  0  0  0
 10 11  1  0  0  0  0
 10  7  1  0  0  0  0
 10  6  1  0  0  0  0
 11  7  1  0  0  0  0
 12  7  1  0  0  0  0
 12 13  1  0  0  0  0
 14 16  1  0  0  0  0
 15 18  1  0  0  0  0
 15 16  1  0  0  0  0
 16 17  1  0  0  0  0
 18 16  1  0  0  0  0
 18 13  1  1  0  0  0
 19  2  1  0  0  0  0
 19 20  1  1  0  0  0
 21 19  1  0  0  0  0
 22 21  1  0  0  0  0
 23 26  1  0  0  0  0
 24 26  1  0  0  0  0
 25 27  1  0  0  0  0
 25 23  1  0  0  0  0
 26 22  1  1  0  0  0
 27 24  1  0  0  0  0
 28 30  1  0  0  0  0
 29 41  1  0  0  0  0
 29 31  1  1  0  0  0
 30 29  1  0  0  0  0
 31 36  2  0  0  0  0
 32 34  1  0  0  0  0
 32 37  2  0  0  0  0
 33 35  2  0  0  0  0
 35 38  1  0  0  0  0
 36 37  1  0  0  0  0
 36 43  1  0  0  0  0
 37 42  1  0  0  0  0
 38 34  2  0  0  0  0
 39 30  2  0  0  0  0
 39 40  1  0  0  0  0
 40 35  1  0  0  0  0
 40 41  2  0  0  0  0
 41 32  1  0  0  0  0
 44 43  1  0  0  0  0
M  END
>  <MODEL>
2

>  <REMARK>
 VINA RESULT:      -8.5      2.070      4.105
  Name = 
  14 active torsions:
  status: ('A' for Active; 'I' for Inactive)
    1  A    between atoms: C_2  and  N_31
    2  A    between atoms: C_7  and  C_14
    3  A    between atoms: C_8  and  C_19
    4  A    between atoms: N_12  and  N_38
    5  A    between atoms: N_12  and  C_40
    6  A    between atoms: C_13  and  C_22
    7  A    between atoms: C_14  and  N_38
    8  A    between atoms: C_15  and  C_41
    9  A    between atoms: C_16  and  C_20
   10  A    between atoms: C_16  and  C_30
   11  A    between atoms: C_19  and  C_30
   12  A    between atoms: C_20  and  C_36
   13  A    between atoms: N_31  and  C_41
   14  A    between atoms: C_34  and  C_36
                            x       y       z     vdW  Elec       q    Type
                         _______ _______ _______ _____ _____    ______ ____

>  <TORSDO>
F 14

$$$$
=
 OpenBabel10222415453D

 44 49  0  0  1  0  0  0  0  0999 V2000
  187.5280  177.6070  140.9670 C   0  0  0  0  0  3  0  0  0  0  0  0
  188.6080  177.2820  141.6930 C   0  0  0  0  0  0  0  0  0  0  0  0
  187.5750  178.4880  139.7560 C   0  0  1  0  0  3  0  0  0  0  0  0
  188.4740  177.8620  138.7020 C   0  0  0  0  0  1  0  0  0  0  0  0
  186.2310  178.6380  139.2260 N   0  0  0  0  0  2  0  0  0  0  0  0
  185.4430  179.1960  140.2440 N   0  0  0  0  0  2  0  0  0  0  0  0
  183.0020  178.9530  139.5840 C   0  0  2  0  0  0  0  0  0  0  0  0
  183.9860  177.6840  141.4880 O   0  0  0  0  0  1  0  0  0  0  0  0
  183.1460  180.2660  138.8250 C   0  0  0  0  0  1  0  0  0  0  0  0
  184.2130  178.4200  140.3220 C   0  0  2  0  0  0  0  0  0  0  0  0
  183.7680  177.7510  139.0320 C   0  0  0  0  0  2  0  0  0  0  0  0
  181.7210  178.6470  140.2140 N   0  0  0  0  0  2  0  0  0  0  0  0
  181.1970  179.8590  140.8250 C   0  0  0  0  0  2  0  0  0  0  0  0
  179.7180  178.4770  144.1380 C   0  0  0  0  0  1  0  0  0  0  0  0
  180.0490  180.4750  142.8370 O   0  0  0  0  0  0  0  0  0  0  0  0
  180.6190  179.2400  143.1900 C   0  0  0  0  0  0  0  0  0  0  0  0
  182.0900  179.4000  143.5460 C   0  0  0  0  0  1  0  0  0  0  0  0
  180.1050  179.4990  141.8190 C   0  0  2  0  0  3  0  0  0  0  0  0
  189.9790  177.7840  141.3210 C   0  0  1  0  0  3  0  0  0  0  0  0
  190.6700  178.4040  142.5240 C   0  0  0  0  0  1  0  0  0  0  0  0
  190.8170  176.6600  140.7340 C   0  0  0  0  0  2  0  0  0  0  0  0
  191.9450  177.1990  139.8740 C   0  0  0  0  0  2  0  0  0  0  0  0
  191.0660  175.4160  138.5350 O   0  0  0  0  0  0  0  0  0  0  0  0
  193.2920  176.0900  138.1160 C   0  0  0  0  0  2  0  0  0  0  0  0
  191.5730  174.5500  137.5530 C   0  0  0  0  0  2  0  0  0  0  0  0
  191.9060  176.5410  138.5070 C   0  0  2  0  0  3  0  0  0  0  0  0
  193.0600  174.7820  137.4210 C   0  0  0  0  0  2  0  0  0  0  0  0
  188.4280  176.3380  142.8480 C   0  0  0  0  0  2  0  0  0  0  0  0
  188.4330  177.2260  145.1950 C   0  0  2  0  0  3  0  0  0  0  0  0
  187.8300  177.0400  144.0250 C   0  0  0  0  0  0  0  0  0  0  0  0
  189.7240  176.8840  145.6080 C   0  0  0  0  0  3  0  0  0  0  0  0
  187.9010  178.1490  147.3670 C   0  0  0  0  0  0  0  0  0  0  0  0
  184.2180  178.9430  145.8340 O   0  0  0  0  0  0  0  0  0  0  0  0
  186.8530  178.8040  148.1920 C   0  0  0  0  0  3  0  0  0  0  0  0
  185.3560  178.7040  146.3120 C   0  0  0  0  0  0  0  0  0  0  0  0
  190.1060  177.1860  146.9340 C   0  0  0  0  0  0  0  0  0  0  0  0
  189.1940  177.8270  147.8190 C   0  0  0  0  0  0  0  0  0  0  0  0
  185.6730  179.0530  147.6790 N   0  0  0  0  0  0  0  0  0  0  0  0
  186.4130  177.5700  144.0940 C   0  0  0  0  0  3  0  0  0  0  0  0
  186.4070  178.0640  145.5080 C   0  0  0  0  0  0  0  0  0  0  0  0
  187.5730  177.8320  146.0560 C   0  0  0  0  0  0  0  0  0  0  0  0
  189.5730  178.1330  149.1230 O   0  0  0  0  0  1  0  0  0  0  0  0
  191.4830  176.8360  147.3890 C   0  0  0  0  0  2  0  0  0  0  0  0
  192.0030  175.6410  146.6140 C   0  0  0  0  0  1  0  0  0  0  0  0
  1  2  2  0  0  0  0
  2 28  1  0  0  0  0
  3  4  1  6  0  0  0
  3  1  1  0  0  0  0
  5  3  1  0  0  0  0
  5  6  1  0  0  0  0
  6 10  1  0  0  0  0
  7  9  1  6  0  0  0
  7 12  1  0  0  0  0
  7 10  1  0  0  0  0
 10  8  1  1  0  0  0
 11  7  1  0  0  0  0
 11 10  1  0  0  0  0
 12 13  1  0  0  0  0
 15 16  1  0  0  0  0
 16 17  1  0  0  0  0
 16 14  1  0  0  0  0
 18 13  1  6  0  0  0
 18 15  1  0  0  0  0
 18 16  1  0  0  0  0
 19  2  1  0  0  0  0
 19 20  1  1  0  0  0
 21 19  1  0  0  0  0
 22 21  1  0  0  0  0
 24 26  1  0  0  0  0
 25 23  1  0  0  0  0
 26 23  1  0  0  0  0
 26 22  1  1  0  0  0
 27 25  1  0  0  0  0
 27 24  1  0  0  0  0
 28 30  1  0  0  0  0
 29 31  1  1  0  0  0
 29 41  1  0  0  0  0
 30 39  2  0  0  0  0
 30 29  1  0  0  0  0
 31 36  2  0  0  0  0
 32 37  2  0  0  0  0
 32 34  1  0  0  0  0
 33 35  2  0  0  0  0
 35 38  1  0  0  0  0
 36 43  1  0  0  0  0
 36 37  1  0  0  0  0
 37 42  1  0  0  0  0
 38 34  2  0  0  0  0
 39 40  1  0  0  0  0
 40 41  2  0  0  0  0
 40 35  1  0  0  0  0
 41 32  1  0  0  0  0
 44 43  1  0  0  0  0
M  END
>  <MODEL>
3

>  <REMARK>
 VINA RESULT:      -8.3      2.416      4.935
  Name = 
  14 active torsions:
  status: ('A' for Active; 'I' for Inactive)
    1  A    between atoms: C_2  and  N_31
    2  A    between atoms: C_7  and  C_14
    3  A    between atoms: C_8  and  C_19
    4  A    between atoms: N_12  and  N_38
    5  A    between atoms: N_12  and  C_40
    6  A    between atoms: C_13  and  C_22
    7  A    between atoms: C_14  and  N_38
    8  A    between atoms: C_15  and  C_41
    9  A    between atoms: C_16  and  C_20
   10  A    between atoms: C_16  and  C_30
   11  A    between atoms: C_19  and  C_30
   12  A    between atoms: C_20  and  C_36
   13  A    between atoms: N_31  and  C_41
   14  A    between atoms: C_34  and  C_36
                            x       y       z     vdW  Elec       q    Type
                         _______ _______ _______ _____ _____    ______ ____

>  <TORSDO>
F 14

$$$$
=
 OpenBabel10222415453D

 44 49  0  0  1  0  0  0  0  0999 V2000
  190.1150  176.6300  141.3150 C   0  0  0  0  0  3  0  0  0  0  0  0
  188.9070  177.1420  141.5880 C   0  0  0  0  0  0  0  0  0  0  0  0
  191.1180  177.2950  140.4220 C   0  0  1  0  0  3  0  0  0  0  0  0
  192.3250  177.7270  141.2400 C   0  0  0  0  0  1  0  0  0  0  0  0
  191.5350  176.3560  139.3950 N   0  0  0  0  0  2  0  0  0  0  0  0
  191.1040  176.8710  138.1630 N   0  0  0  0  0  2  0  0  0  0  0  0
  189.9030  175.9860  136.1070 C   0  0  2  0  0  0  0  0  0  0  0  0
  190.7940  174.4680  137.8700 O   0  0  0  0  0  1  0  0  0  0  0  0
  189.3400  177.3880  135.9140 C   0  0  0  0  0  1  0  0  0  0  0  0
  190.8150  175.7400  137.2910 C   0  0  2  0  0  0  0  0  0  0  0  0
  191.4080  175.8120  135.8940 C   0  0  0  0  0  2  0  0  0  0  0  0
  189.0780  174.8430  135.7250 N   0  0  0  0  0  2  0  0  0  0  0  0
  187.6770  175.2110  135.8600 C   0  0  0  0  0  2  0  0  0  0  0  0
  185.1360  172.9910  137.7820 C   0  0  0  0  0  1  0  0  0  0  0  0
  187.4190  173.1350  137.0310 O   0  0  0  0  0  0  0  0  0  0  0  0
  186.0900  173.4540  136.7010 C   0  0  0  0  0  0  0  0  0  0  0  0
  185.7870  173.0960  135.2530 C   0  0  0  0  0  1  0  0  0  0  0  0
  187.0780  174.5040  137.0660 C   0  0  2  0  0  3  0  0  0  0  0  0
  188.4700  178.4640  141.0100 C   0  0  1  0  0  3  0  0  0  0  0  0
  188.6780  178.4880  139.5060 C   0  0  0  0  0  1  0  0  0  0  0  0
  187.0180  178.7450  141.3610 C   0  0  0  0  0  2  0  0  0  0  0  0
  186.1120  178.5690  140.1560 C   0  0  0  0  0  2  0  0  0  0  0  0
  183.9490  177.8730  140.9220 O   0  0  0  0  0  0  0  0  0  0  0  0
  184.0250  179.6000  139.3090 C   0  0  0  0  0  2  0  0  0  0  0  0
  182.6190  178.1790  140.5930 C   0  0  0  0  0  2  0  0  0  0  0  0
  184.6980  178.9890  140.5140 C   0  0  2  0  0  3  0  0  0  0  0  0
  182.6130  179.1040  139.3980 C   0  0  0  0  0  2  0  0  0  0  0  0
  188.0230  176.4010  142.5510 C   0  0  0  0  0  2  0  0  0  0  0  0
  187.5440  177.3580  144.8200 C   0  0  2  0  0  3  0  0  0  0  0  0
  188.3610  176.7490  143.9650 C   0  0  0  0  0  0  0  0  0  0  0  0
  186.2180  177.7690  144.6630 C   0  0  0  0  0  3  0  0  0  0  0  0
  187.6240  178.2190  147.0800 C   0  0  0  0  0  0  0  0  0  0  0  0
  191.4840  176.9360  147.1500 O   0  0  0  0  0  0  0  0  0  0  0  0
  188.4710  178.4040  148.2870 C   0  0  0  0  0  3  0  0  0  0  0  0
  190.2900  177.3310  147.1360 C   0  0  0  0  0  0  0  0  0  0  0  0
  185.5860  178.4200  145.7470 C   0  0  0  0  0  0  0  0  0  0  0  0
  186.2880  178.6430  146.9640 C   0  0  0  0  0  0  0  0  0  0  0  0
  189.7120  177.9820  148.2910 N   0  0  0  0  0  0  0  0  0  0  0  0
  189.7130  176.5420  144.6120 C   0  0  0  0  0  3  0  0  0  0  0  0
  189.4370  177.1500  145.9530 C   0  0  0  0  0  0  0  0  0  0  0  0
  188.2030  177.5850  145.9890 C   0  0  0  0  0  0  0  0  0  0  0  0
  185.6620  179.2760  148.0340 O   0  0  0  0  0  1  0  0  0  0  0  0
  184.1670  178.8570  145.6000 C   0  0  0  0  0  2  0  0  0  0  0  0
  183.7510  178.8080  144.1420 C   0  0  0  0  0  1  0  0  0  0  0  0
  1  2  2  0  0  0  0
  2 28  1  0  0  0  0
  3  4  1  1  0  0  0
  3  1  1  0  0  0  0
  5  3  1  0  0  0  0
  6  5  1  0  0  0  0
  7  9  1  6  0  0  0
  7 10  1  0  0  0  0
 10  8  1  1  0  0  0
 10  6  1  0  0  0  0
 11  7  1  0  0  0  0
 11 10  1  0  0  0  0
 12 13  1  0  0  0  0
 12  7  1  0  0  0  0
 15 18  1  0  0  0  0
 16 15  1  0  0  0  0
 16 18  1  0  0  0  0
 16 14  1  0  0  0  0
 17 16  1  0  0  0  0
 18 13  1  6  0  0  0
 19 20  1  6  0  0  0
 19 21  1  0  0  0  0
 19  2  1  0  0  0  0
 22 21  1  0  0  0  0
 24 27  1  0  0  0  0
 24 26  1  0  0  0  0
 25 23  1  0  0  0  0
 26 22  1  6  0  0  0
 26 23  1  0  0  0  0
 27 25  1  0  0  0  0
 28 30  1  0  0  0  0
 29 31  1  6  0  0  0
 29 41  1  0  0  0  0
 30 39  2  0  0  0  0
 30 29  1  0  0  0  0
 31 36  2  0  0  0  0
 32 34  1  0  0  0  0
 34 38  2  0  0  0  0
 35 33  2  0  0  0  0
 35 38  1  0  0  0  0
 36 37  1  0  0  0  0
 37 32  2  0  0  0  0
 37 42  1  0  0  0  0
 39 40  1  0  0  0  0
 40 41  2  0  0  0  0
 40 35  1  0  0  0  0
 41 32  1  0  0  0  0
 43 36  1  0  0  0  0
 44 43  1  0  0  0  0
M  END
>  <MODEL>
4

>  <REMARK>
 VINA RESULT:      -8.2      2.506      5.575
  Name = 
  14 active torsions:
  status: ('A' for Active; 'I' for Inactive)
    1  A    between atoms: C_2  and  N_31
    2  A    between atoms: C_7  and  C_14
    3  A    between atoms: C_8  and  C_19
    4  A    between atoms: N_12  and  N_38
    5  A    between atoms: N_12  and  C_40
    6  A    between atoms: C_13  and  C_22
    7  A    between atoms: C_14  and  N_38
    8  A    between atoms: C_15  and  C_41
    9  A    between atoms: C_16  and  C_20
   10  A    between atoms: C_16  and  C_30
   11  A    between atoms: C_19  and  C_30
   12  A    between atoms: C_20  and  C_36
   13  A    between atoms: N_31  and  C_41
   14  A    between atoms: C_34  and  C_36
                            x       y       z     vdW  Elec       q    Type
                         _______ _______ _______ _____ _____    ______ ____

>  <TORSDO>
F 14

$$$$
=
 OpenBabel10222415453D

 44 49  0  0  1  0  0  0  0  0999 V2000
  185.9540  178.6170  141.9530 C   0  0  0  0  0  3  0  0  0  0  0  0
  187.1850  178.1300  142.1630 C   0  0  0  0  0  0  0  0  0  0  0  0
  184.7610  178.2470  142.7800 C   0  0  1  0  0  3  0  0  0  0  0  0
  184.3250  179.4430  143.6120 C   0  0  0  0  0  1  0  0  0  0  0  0
  183.6780  177.8460  141.8990 N   0  0  0  0  0  2  0  0  0  0  0  0
  183.5100  178.8690  140.9540 N   0  0  0  0  0  2  0  0  0  0  0  0
  181.7740  178.8170  139.1010 C   0  0  2  0  0  0  0  0  0  0  0  0
  181.2270  179.6080  141.3990 O   0  0  0  0  0  1  0  0  0  0  0  0
  182.9280  178.7350  138.1120 C   0  0  0  0  0  1  0  0  0  0  0  0
  182.1040  178.8930  140.5780 C   0  0  2  0  0  0  0  0  0  0  0  0
  181.5490  177.6010  140.0010 C   0  0  0  0  0  2  0  0  0  0  0  0
  180.5670  179.5390  138.7080 N   0  0  0  0  0  2  0  0  0  0  0  0
  180.8880  180.4160  137.5930 C   0  0  0  0  0  2  0  0  0  0  0  0
  181.3970  184.2530  137.2910 C   0  0  0  0  0  1  0  0  0  0  0  0
  179.8050  182.5380  137.8570 O   0  0  0  0  0  0  0  0  0  0  0  0
  180.8790  182.8590  137.0080 C   0  0  0  0  0  0  0  0  0  0  0  0
  180.5710  182.4700  135.5690 C   0  0  0  0  0  1  0  0  0  0  0  0
  181.0140  181.8480  138.0890 C   0  0  2  0  0  3  0  0  0  0  0  0
  187.4610  177.1620  143.2850 C   0  0  1  0  0  3  0  0  0  0  0  0
  188.5840  176.2100  142.9110 C   0  0  0  0  0  1  0  0  0  0  0  0
  187.7910  177.9120  144.5660 C   0  0  0  0  0  2  0  0  0  0  0  0
  186.7830  177.6110  145.6600 C   0  0  0  0  0  2  0  0  0  0  0  0
  187.3720  178.3130  147.8750 O   0  0  0  0  0  0  0  0  0  0  0  0
  188.9830  177.0760  146.6660 C   0  0  0  0  0  2  0  0  0  0  0  0
  188.5230  178.2530  148.6770 C   0  0  0  0  0  2  0  0  0  0  0  0
  187.5120  177.2690  146.9470 C   0  0  2  0  0  3  0  0  0  0  0  0
  189.6580  177.6830  147.8590 C   0  0  0  0  0  2  0  0  0  0  0  0
  188.3050  178.6330  141.2960 C   0  0  0  0  0  2  0  0  0  0  0  0
  189.1780  177.5990  139.1830 C   0  0  0  0  0  0  0  0  0  0  0  0
  188.1810  178.1060  139.9030 C   0  0  0  0  0  0  0  0  0  0  0  0
  190.5170  177.3870  139.5220 C   0  0  0  0  0  3  0  0  0  0  0  0
  189.5300  176.7530  136.9440 C   0  0  1  0  0  3  0  0  0  0  0  0
  185.5950  177.5590  136.3040 O   0  0  0  0  0  0  0  0  0  0  0  0
  188.8950  176.4720  135.6300 C   0  0  0  0  0  3  0  0  0  0  0  0
  186.8110  177.3030  136.4970 C   0  0  0  0  0  0  0  0  0  0  0  0
  191.3780  176.8430  138.5420 C   0  0  0  0  0  0  0  0  0  0  0  0
  190.8840  176.5180  137.2480 C   0  0  0  0  0  0  0  0  0  0  0  0
  187.6250  176.7370  135.4440 N   0  0  0  0  0  0  0  0  0  0  0  0
  186.9200  178.1490  139.0650 C   0  0  0  0  0  3  0  0  0  0  0  0
  187.4530  177.5680  137.7920 C   0  0  0  0  0  0  0  0  0  0  0  0
  188.7240  177.2890  137.9390 C   0  0  0  0  0  0  0  0  0  0  0  0
  191.7300  175.9730  136.2860 O   0  0  0  0  0  1  0  0  0  0  0  0
  192.8080  176.6010  138.8900 C   0  0  0  0  0  2  0  0  0  0  0  0
  193.1890  177.3940  140.1250 C   0  0  0  0  0  1  0  0  0  0  0  0
  1  2  2  0  0  0  0
  1  3  1  0  0  0  0
  2 19  1  0  0  0  0
  3  4  1  6  0  0  0
  5  3  1  0  0  0  0
  6  5  1  0  0  0  0
  7  9  1  6  0  0  0
  7 11  1  0  0  0  0
  7 10  1  0  0  0  0
 10  6  1  0  0  0  0
 10  8  1  1  0  0  0
 11 10  1  0  0  0  0
 12  7  1  0  0  0  0
 13 12  1  0  0  0  0
 15 18  1  0  0  0  0
 16 14  1  0  0  0  0
 16 15  1  0  0  0  0
 16 18  1  0  0  0  0
 17 16  1  0  0  0  0
 18 13  1  6  0  0  0
 19 20  1  6  0  0  0
 19 21  1  0  0  0  0
 21 22  1  0  0  0  0
 23 25  1  0  0  0  0
 24 26  1  0  0  0  0
 24 27  1  0  0  0  0
 26 22  1  6  0  0  0
 26 23  1  0  0  0  0
 27 25  1  0  0  0  0
 28  2  1  0  0  0  0
 29 31  2  0  0  0  0
 29 30  1  0  0  0  0
 30 28  1  0  0  0  0
 32 34  1  6  0  0  0
 32 37  1  0  0  0  0
 32 41  1  0  0  0  0
 33 35  2  0  0  0  0
 35 40  1  0  0  0  0
 36 43  1  0  0  0  0
 36 31  1  0  0  0  0
 37 36  2  0  0  0  0
 38 34  2  0  0  0  0
 38 35  1  0  0  0  0
 39 30  2  0  0  0  0
 40 41  2  0  0  0  0
 40 39  1  0  0  0  0
 41 29  1  0  0  0  0
 42 37  1  0  0  0  0
 43 44  1  0  0  0  0
M  END
>  <MODEL>
5

>  <REMARK>
 VINA RESULT:      -7.8      3.007      6.890
  Name = 
  14 active torsions:
  status: ('A' for Active; 'I' for Inactive)
    1  A    between atoms: C_2  and  N_31
    2  A    between atoms: C_7  and  C_14
    3  A    between atoms: C_8  and  C_19
    4  A    between atoms: N_12  and  N_38
    5  A    between atoms: N_12  and  C_40
    6  A    between atoms: C_13  and  C_22
    7  A    between atoms: C_14  and  N_38
    8  A    between atoms: C_15  and  C_41
    9  A    between atoms: C_16  and  C_20
   10  A    between atoms: C_16  and  C_30
   11  A    between atoms: C_19  and  C_30
   12  A    between atoms: C_20  and  C_36
   13  A    between atoms: N_31  and  C_41
   14  A    between atoms: C_34  and  C_36
                            x       y       z     vdW  Elec       q    Type
                         _______ _______ _______ _____ _____    ______ ____

>  <TORSDO>
F 14

$$$$
=
 OpenBabel10222415453D

 44 49  0  0  1  0  0  0  0  0999 V2000
  188.0640  177.5030  141.2010 C   0  0  0  0  0  3  0  0  0  0  0  0
  189.1760  177.2190  141.8940 C   0  0  0  0  0  0  0  0  0  0  0  0
  187.9770  178.5960  140.1800 C   0  0  1  0  0  3  0  0  0  0  0  0
  188.4970  178.0910  138.8440 C   0  0  0  0  0  1  0  0  0  0  0  0
  186.5910  179.0070  140.0410 N   0  0  0  0  0  2  0  0  0  0  0  0
  185.8550  177.8670  139.6860 N   0  0  0  0  0  2  0  0  0  0  0  0
  183.3820  178.3970  139.4430 C   0  0  2  0  0  0  0  0  0  0  0  0
  184.8410  177.9790  137.4680 O   0  0  0  0  0  1  0  0  0  0  0  0
  183.2250  178.0210  140.9100 C   0  0  0  0  0  1  0  0  0  0  0  0
  184.7620  178.3010  138.8260 C   0  0  2  0  0  0  0  0  0  0  0  0
  184.1750  179.6680  139.1380 C   0  0  0  0  0  2  0  0  0  0  0  0
  182.2830  178.1070  138.5270 N   0  0  0  0  0  2  0  0  0  0  0  0
  181.6760  176.8410  138.9080 C   0  0  0  0  0  2  0  0  0  0  0  0
  181.5240  173.3480  137.2190 C   0  0  0  0  0  1  0  0  0  0  0  0
  180.8070  175.6380  137.0250 O   0  0  0  0  0  0  0  0  0  0  0  0
  181.0750  174.6030  137.9380 C   0  0  0  0  0  0  0  0  0  0  0  0
  179.9710  174.4950  138.9800 C   0  0  0  0  0  1  0  0  0  0  0  0
  181.9520  175.7990  137.8350 C   0  0  2  0  0  3  0  0  0  0  0  0
  190.4510  177.9930  141.6760 C   0  0  1  0  0  3  0  0  0  0  0  0
  190.7720  178.8540  142.8860 C   0  0  0  0  0  1  0  0  0  0  0  0
  191.6010  177.0480  141.3640 C   0  0  0  0  0  2  0  0  0  0  0  0
  192.4290  177.5500  140.1960 C   0  0  0  0  0  2  0  0  0  0  0  0
  193.5550  176.8100  138.2130 O   0  0  0  0  0  0  0  0  0  0  0  0
  191.2990  176.1600  138.4850 C   0  0  0  0  0  2  0  0  0  0  0  0
  193.1920  176.1120  137.0500 C   0  0  0  0  0  2  0  0  0  0  0  0
  192.6100  176.4360  139.1810 C   0  0  2  0  0  3  0  0  0  0  0  0
  191.6980  175.8830  137.0660 C   0  0  0  0  0  2  0  0  0  0  0  0
  189.1430  176.0550  142.8430 C   0  0  0  0  0  2  0  0  0  0  0  0
  188.0750  177.1280  144.8450 C   0  0  0  0  0  0  0  0  0  0  0  0
  189.1070  176.5230  144.2630 C   0  0  0  0  0  0  0  0  0  0  0  0
  186.8070  177.4310  144.3420 C   0  0  0  0  0  3  0  0  0  0  0  0
  187.5570  178.1460  146.9780 C   0  0  0  0  0  0  0  0  0  0  0  0
  191.3460  177.1530  148.0740 O   0  0  0  0  0  0  0  0  0  0  0  0
  188.0730  178.4730  148.3330 C   0  0  0  0  0  3  0  0  0  0  0  0
  190.1720  177.4590  147.7430 C   0  0  0  0  0  0  0  0  0  0  0  0
  185.8960  178.1070  145.1850 C   0  0  0  0  0  0  0  0  0  0  0  0
  186.2680  178.4630  146.5120 C   0  0  0  0  0  0  0  0  0  0  0  0
  189.2960  178.1430  148.6670 N   0  0  0  0  0  0  0  0  0  0  0  0
  190.2700  176.4590  145.2300 C   0  0  0  0  0  2  0  0  0  0  0  0
  189.6440  177.1360  146.4100 C   0  0  0  0  0  0  0  0  0  0  0  0
  188.4160  177.4820  146.1140 C   0  0  0  0  0  0  0  0  0  0  0  0
  185.3680  179.1210  147.3440 O   0  0  0  0  0  1  0  0  0  0  0  0
  184.5340  178.4290  144.6680 C   0  0  0  0  0  2  0  0  0  0  0  0
  184.5540  179.7530  143.9280 C   0  0  0  0  0  1  0  0  0  0  0  0
  1  2  2  0  0  0  0
  2 28  1  0  0  0  0
  3  4  1  6  0  0  0
  3  1  1  0  0  0  0
  5  3  1  0  0  0  0
  6  5  1  0  0  0  0
  7  9  1  1  0  0  0
 10  8  1  6  0  0  0
 10 11  1  0  0  0  0
 10  7  1  0  0  0  0
 10  6  1  0  0  0  0
 11  7  1  0  0  0  0
 12 13  1  0  0  0  0
 12  7  1  0  0  0  0
 14 16  1  0  0  0  0
 15 18  1  0  0  0  0
 15 16  1  0  0  0  0
 16 17  1  0  0  0  0
 18 16  1  0  0  0  0
 18 13  1  1  0  0  0
 19  2  1  0  0  0  0
 19 20  1  1  0  0  0
 21 19  1  0  0  0  0
 22 21  1  0  0  0  0
 23 26  1  0  0  0  0
 24 26  1  0  0  0  0
 25 27  1  0  0  0  0
 25 23  1  0  0  0  0
 26 22  1  1  0  0  0
 27 24  1  0  0  0  0
 28 30  1  0  0  0  0
 29 41  1  0  0  0  0
 30 29  2  0  0  0  0
 30 39  1  0  0  0  0
 31 29  1  0  0  0  0
 31 36  2  0  0  0  0
 32 34  1  0  0  0  0
 34 38  2  0  0  0  0
 35 33  2  0  0  0  0
 35 38  1  0  0  0  0
 36 37  1  0  0  0  0
 37 32  2  0  0  0  0
 37 42  1  0  0  0  0
 39 40  1  0  0  0  0
 40 35  1  0  0  0  0
 41 40  2  0  0  0  0
 41 32  1  0  0  0  0
 43 36  1  0  0  0  0
 44 43  1  0  0  0  0
M  END
>  <MODEL>
6

>  <REMARK>
 VINA RESULT:      -7.5      2.186      4.680
  Name = 
  14 active torsions:
  status: ('A' for Active; 'I' for Inactive)
    1  A    between atoms: C_2  and  N_31
    2  A    between atoms: C_7  and  C_14
    3  A    between atoms: C_8  and  C_19
    4  A    between atoms: N_12  and  N_38
    5  A    between atoms: N_12  and  C_40
    6  A    between atoms: C_13  and  C_22
    7  A    between atoms: C_14  and  N_38
    8  A    between atoms: C_15  and  C_41
    9  A    between atoms: C_16  and  C_20
   10  A    between atoms: C_16  and  C_30
   11  A    between atoms: C_19  and  C_30
   12  A    between atoms: C_20  and  C_36
   13  A    between atoms: N_31  and  C_41
   14  A    between atoms: C_34  and  C_36
                            x       y       z     vdW  Elec       q    Type
                         _______ _______ _______ _____ _____    ______ ____

>  <TORSDO>
F 14

$$$$
=
 OpenBabel10222415453D

 44 49  0  0  1  0  0  0  0  0999 V2000
  185.2910  177.7980  138.0870 C   0  0  0  0  0  3  0  0  0  0  0  0
  184.5410  178.3000  139.0800 C   0  0  0  0  0  0  0  0  0  0  0  0
  184.7730  176.8420  137.0560 C   0  0  1  0  0  3  0  0  0  0  0  0
  184.7980  177.5040  135.6870 C   0  0  0  0  0  1  0  0  0  0  0  0
  185.6140  175.6580  137.0420 N   0  0  0  0  0  2  0  0  0  0  0  0
  186.4830  175.7800  135.9470 N   0  0  0  0  0  2  0  0  0  0  0  0
  188.9150  176.2540  136.5080 C   0  0  2  0  0  0  0  0  0  0  0  0
  188.1090  173.9600  135.9630 O   0  0  0  0  0  1  0  0  0  0  0  0
  188.6290  177.7200  136.2100 C   0  0  0  0  0  1  0  0  0  0  0  0
  187.7810  175.2610  136.3560 C   0  0  2  0  0  0  0  0  0  0  0  0
  188.2460  175.6590  137.7470 C   0  0  0  0  0  2  0  0  0  0  0  0
  190.2370  175.7220  136.1910 N   0  0  0  0  0  2  0  0  0  0  0  0
  191.2460  176.6050  136.7560 C   0  0  0  0  0  2  0  0  0  0  0  0
  194.3620  174.6380  137.9780 C   0  0  0  0  0  1  0  0  0  0  0  0
  193.1120  176.6760  138.2590 O   0  0  0  0  0  0  0  0  0  0  0  0
  193.5270  175.7150  137.3200 C   0  0  0  0  0  0  0  0  0  0  0  0
  194.0510  176.3800  136.0550 C   0  0  0  0  0  1  0  0  0  0  0  0
  192.1060  175.8310  137.7430 C   0  0  2  0  0  3  0  0  0  0  0  0
  183.0850  177.9370  139.2180 C   0  0  1  0  0  3  0  0  0  0  0  0
  182.9290  176.5910  139.9050 C   0  0  0  0  0  1  0  0  0  0  0  0
  182.3360  179.0220  139.9750 C   0  0  0  0  0  2  0  0  0  0  0  0
  181.9580  178.5630  141.3720 C   0  0  0  0  0  2  0  0  0  0  0  0
  180.4300  180.3340  141.8960 O   0  0  0  0  0  0  0  0  0  0  0  0
  180.0390  178.2310  142.9030 C   0  0  0  0  0  2  0  0  0  0  0  0
  179.3340  180.4960  142.7590 C   0  0  0  0  0  2  0  0  0  0  0  0
  180.5210  178.9520  141.6670 C   0  0  2  0  0  3  0  0  0  0  0  0
  179.1920  179.2510  143.6040 C   0  0  0  0  0  2  0  0  0  0  0  0
  185.1710  179.2980  140.0090 C   0  0  0  0  0  2  0  0  0  0  0  0
  186.1560  178.4380  142.1510 C   0  0  2  0  0  3  0  0  0  0  0  0
  186.2350  178.6560  140.8420 C   0  0  0  0  0  0  0  0  0  0  0  0
  185.1100  178.6850  143.0450 C   0  0  0  0  0  3  0  0  0  0  0  0
  187.5670  177.5820  143.9200 C   0  0  0  0  0  0  0  0  0  0  0  0
  190.3980  177.0550  141.0460 O   0  0  0  0  0  0  0  0  0  0  0  0
  188.9020  177.0180  144.2530 C   0  0  0  0  0  3  0  0  0  0  0  0
  189.5250  177.2110  141.9390 C   0  0  0  0  0  0  0  0  0  0  0  0
  185.3060  178.3700  144.4090 C   0  0  0  0  0  0  0  0  0  0  0  0
  186.5370  177.8100  144.8500 C   0  0  0  0  0  0  0  0  0  0  0  0
  189.7990  176.8540  143.3130 N   0  0  0  0  0  0  0  0  0  0  0  0
  187.5990  178.2370  140.3370 C   0  0  0  0  0  3  0  0  0  0  0  0
  188.1990  177.7610  141.6250 C   0  0  0  0  0  0  0  0  0  0  0  0
  187.3290  177.9090  142.5920 C   0  0  0  0  0  0  0  0  0  0  0  0
  186.7260  177.4910  146.1920 O   0  0  0  0  0  1  0  0  0  0  0  0
  184.1970  178.6180  145.3750 C   0  0  0  0  0  2  0  0  0  0  0  0
  183.0680  179.3690  144.6960 C   0  0  0  0  0  1  0  0  0  0  0  0
  1  2  2  0  0  0  0
  2 19  1  0  0  0  0
  2 28  1  0  0  0  0
  3  4  1  6  0  0  0
  3  1  1  0  0  0  0
  5  3  1  0  0  0  0
  6 10  1  0  0  0  0
  6  5  1  0  0  0  0
  7  9  1  6  0  0  0
  7 11  1  0  0  0  0
 10  8  1  6  0  0  0
 10  7  1  0  0  0  0
 10 11  1  0  0  0  0
 12  7  1  0  0  0  0
 12 13  1  0  0  0  0
 16 18  1  0  0  0  0
 16 14  1  0  0  0  0
 16 15  1  0  0  0  0
 17 16  1  0  0  0  0
 18 13  1  6  0  0  0
 18 15  1  0  0  0  0
 19 20  1  1  0  0  0
 19 21  1  0  0  0  0
 21 22  1  0  0  0  0
 23 25  1  0  0  0  0
 24 27  1  0  0  0  0
 25 27  1  0  0  0  0
 26 22  1  1  0  0  0
 26 23  1  0  0  0  0
 26 24  1  0  0  0  0
 28 30  1  0  0  0  0
 29 41  1  0  0  0  0
 29 31  1  1  0  0  0
 30 29  1  0  0  0  0
 31 36  2  0  0  0  0
 32 34  1  0  0  0  0
 32 37  2  0  0  0  0
 33 35  2  0  0  0  0
 35 38  1  0  0  0  0
 36 37  1  0  0  0  0
 36 43  1  0  0  0  0
 37 42  1  0  0  0  0
 38 34  2  0  0  0  0
 39 30  2  0  0  0  0
 39 40  1  0  0  0  0
 40 35  1  0  0  0  0
 40 41  2  0  0  0  0
 41 32  1  0  0  0  0
 44 43  1  0  0  0  0
M  END
>  <MODEL>
7

>  <REMARK>
 VINA RESULT:      -7.5      2.818      7.538
  Name = 
  14 active torsions:
  status: ('A' for Active; 'I' for Inactive)
    1  A    between atoms: C_2  and  N_31
    2  A    between atoms: C_7  and  C_14
    3  A    between atoms: C_8  and  C_19
    4  A    between atoms: N_12  and  N_38
    5  A    between atoms: N_12  and  C_40
    6  A    between atoms: C_13  and  C_22
    7  A    between atoms: C_14  and  N_38
    8  A    between atoms: C_15  and  C_41
    9  A    between atoms: C_16  and  C_20
   10  A    between atoms: C_16  and  C_30
   11  A    between atoms: C_19  and  C_30
   12  A    between atoms: C_20  and  C_36
   13  A    between atoms: N_31  and  C_41
   14  A    between atoms: C_34  and  C_36
                            x       y       z     vdW  Elec       q    Type
                         _______ _______ _______ _____ _____    ______ ____

>  <TORSDO>
F 14

$$$$
=
 OpenBabel10222415453D

 44 49  0  0  1  0  0  0  0  0999 V2000
  189.5000  176.6070  141.7630 C   0  0  0  0  0  3  0  0  0  0  0  0
  188.3030  177.1880  141.9310 C   0  0  0  0  0  0  0  0  0  0  0  0
  190.5800  177.1660  140.8890 C   0  0  1  0  0  3  0  0  0  0  0  0
  191.6360  177.8420  141.7490 C   0  0  0  0  0  1  0  0  0  0  0  0
  191.1860  176.0850  140.1320 N   0  0  0  0  0  2  0  0  0  0  0  0
  190.6780  176.1570  138.8260 N   0  0  0  0  0  2  0  0  0  0  0  0
  191.9470  174.9330  136.9970 C   0  0  2  0  0  0  0  0  0  0  0  0
  192.9870  176.7670  138.3230 O   0  0  0  0  0  1  0  0  0  0  0  0
  190.9030  173.8290  137.1030 C   0  0  0  0  0  1  0  0  0  0  0  0
  191.8110  176.1330  137.9120 C   0  0  2  0  0  0  0  0  0  0  0  0
  191.4760  176.2760  136.4360 C   0  0  0  0  0  2  0  0  0  0  0  0
  193.3220  174.5650  136.6740 N   0  0  0  0  0  2  0  0  0  0  0  0
  193.7910  173.5970  137.6540 C   0  0  0  0  0  2  0  0  0  0  0  0
  197.6710  173.6760  137.7400 C   0  0  0  0  0  1  0  0  0  0  0  0
  195.7350  172.3830  138.3540 O   0  0  0  0  0  0  0  0  0  0  0  0
  196.2360  173.6910  138.2220 C   0  0  0  0  0  0  0  0  0  0  0  0
  195.8780  174.5370  139.4350 C   0  0  0  0  0  1  0  0  0  0  0  0
  195.2010  173.1530  137.2990 C   0  0  2  0  0  3  0  0  0  0  0  0
  187.9610  178.4850  141.2430 C   0  0  1  0  0  3  0  0  0  0  0  0
  188.0060  178.3210  139.7340 C   0  0  0  0  0  1  0  0  0  0  0  0
  186.5980  178.9830  141.6940 C   0  0  0  0  0  2  0  0  0  0  0  0
  185.5630  178.8390  140.5930 C   0  0  0  0  0  2  0  0  0  0  0  0
  183.1670  178.7880  140.5130 O   0  0  0  0  0  0  0  0  0  0  0  0
  184.1860  178.5750  142.6360 C   0  0  0  0  0  2  0  0  0  0  0  0
  182.1290  178.7410  141.4580 C   0  0  0  0  0  2  0  0  0  0  0  0
  184.2870  178.2480  141.1650 C   0  0  2  0  0  3  0  0  0  0  0  0
  182.7260  178.8460  142.8420 C   0  0  0  0  0  2  0  0  0  0  0  0
  187.3330  176.5510  142.8860 C   0  0  0  0  0  2  0  0  0  0  0  0
  188.5660  177.0390  145.0160 C   0  0  0  0  0  0  0  0  0  0  0  0
  187.4770  177.1270  144.2580 C   0  0  0  0  0  0  0  0  0  0  0  0
  189.8110  176.4660  144.7420 C   0  0  0  0  0  3  0  0  0  0  0  0
  189.2590  177.6620  147.2490 C   0  0  0  0  0  0  0  0  0  0  0  0
  185.5110  179.1780  147.7030 O   0  0  0  0  0  0  0  0  0  0  0  0
  188.8430  178.3090  148.5210 C   0  0  0  0  0  3  0  0  0  0  0  0
  186.6730  178.7150  147.5670 C   0  0  0  0  0  0  0  0  0  0  0  0
  190.7990  176.4960  145.7520 C   0  0  0  0  0  0  0  0  0  0  0  0
  190.5260  177.1010  147.0110 C   0  0  0  0  0  0  0  0  0  0  0  0
  187.6310  178.7930  148.6470 N   0  0  0  0  0  0  0  0  0  0  0  0
  186.3760  177.8240  145.0290 C   0  0  0  0  0  2  0  0  0  0  0  0
  187.1020  178.0790  146.3140 C   0  0  0  0  0  0  0  0  0  0  0  0
  188.3210  177.6080  146.2270 C   0  0  0  0  0  0  0  0  0  0  0  0
  191.5030  177.1390  148.0020 O   0  0  0  0  0  1  0  0  0  0  0  0
  192.1370  175.8970  145.4740 C   0  0  0  0  0  2  0  0  0  0  0  0
  192.0700  175.0140  144.2430 C   0  0  0  0  0  1  0  0  0  0  0  0
  1  2  2  0  0  0  0
  2 28  1  0  0  0  0
  3  4  1  1  0  0  0
  3  1  1  0  0  0  0
  5  3  1  0  0  0  0
  6  5  1  0  0  0  0
  7  9  1  1  0  0  0
  7 10  1  0  0  0  0
 10  8  1  1  0  0  0
 10  6  1  0  0  0  0
 11  7  1  0  0  0  0
 11 10  1  0  0  0  0
 12  7  1  0  0  0  0
 12 13  1  0  0  0  0
 14 16  1  0  0  0  0
 16 15  1  0  0  0  0
 16 17  1  0  0  0  0
 18 13  1  1  0  0  0
 18 16  1  0  0  0  0
 18 15  1  0  0  0  0
 19 20  1  6  0  0  0
 19 21  1  0  0  0  0
 19  2  1  0  0  0  0
 22 21  1  0  0  0  0
 23 26  1  0  0  0  0
 23 25  1  0  0  0  0
 24 27  1  0  0  0  0
 25 27  1  0  0  0  0
 26 22  1  6  0  0  0
 26 24  1  0  0  0  0
 28 30  1  0  0  0  0
 29 41  1  0  0  0  0
 30 29  2  0  0  0  0
 30 39  1  0  0  0  0
 31 29  1  0  0  0  0
 31 36  2  0  0  0  0
 32 34  1  0  0  0  0
 34 38  2  0  0  0  0
 35 33  2  0  0  0  0
 35 38  1  0  0  0  0
 36 37  1  0  0  0  0
 37 32  2  0  0  0  0
 37 42  1  0  0  0  0
 39 40  1  0  0  0  0
 40 35  1  0  0  0  0
 41 40  2  0  0  0  0
 41 32  1  0  0  0  0
 43 36  1  0  0  0  0
 44 43  1  0  0  0  0
M  END
>  <MODEL>
8

>  <REMARK>
 VINA RESULT:      -7.5      3.156      7.375
  Name = 
  14 active torsions:
  status: ('A' for Active; 'I' for Inactive)
    1  A    between atoms: C_2  and  N_31
    2  A    between atoms: C_7  and  C_14
    3  A    between atoms: C_8  and  C_19
    4  A    between atoms: N_12  and  N_38
    5  A    between atoms: N_12  and  C_40
    6  A    between atoms: C_13  and  C_22
    7  A    between atoms: C_14  and  N_38
    8  A    between atoms: C_15  and  C_41
    9  A    between atoms: C_16  and  C_20
   10  A    between atoms: C_16  and  C_30
   11  A    between atoms: C_19  and  C_30
   12  A    between atoms: C_20  and  C_36
   13  A    between atoms: N_31  and  C_41
   14  A    between atoms: C_34  and  C_36
                            x       y       z     vdW  Elec       q    Type
                         _______ _______ _______ _____ _____    ______ ____

>  <TORSDO>
F 14

$$$$
=
 OpenBabel10222415453D

 44 49  0  0  1  0  0  0  0  0999 V2000
  185.0210  177.5870  137.9440 C   0  0  0  0  0  3  0  0  0  0  0  0
  184.4030  178.2900  138.9050 C   0  0  0  0  0  0  0  0  0  0  0  0
  184.3410  176.5480  137.1060 C   0  0  1  0  0  3  0  0  0  0  0  0
  184.0010  177.1320  135.7440 C   0  0  0  0  0  1  0  0  0  0  0  0
  185.2320  175.4130  136.9410 N   0  0  0  0  0  2  0  0  0  0  0  0
  185.8410  175.5420  135.6850 N   0  0  0  0  0  2  0  0  0  0  0  0
  188.3490  175.8820  135.9120 C   0  0  2  0  0  0  0  0  0  0  0  0
  187.3760  173.7340  135.1090 O   0  0  0  0  0  1  0  0  0  0  0  0
  188.0770  177.3800  135.9310 C   0  0  0  0  0  1  0  0  0  0  0  0
  187.1670  174.9450  135.7750 C   0  0  2  0  0  0  0  0  0  0  0  0
  187.8640  175.0790  137.1190 C   0  0  0  0  0  2  0  0  0  0  0  0
  189.5810  175.4030  135.2920 N   0  0  0  0  0  2  0  0  0  0  0  0
  190.6230  176.3990  135.4890 C   0  0  0  0  0  2  0  0  0  0  0  0
  193.5490  175.7460  137.9560 C   0  0  0  0  0  1  0  0  0  0  0  0
  191.5430  174.8000  137.0190 O   0  0  0  0  0  0  0  0  0  0  0  0
  192.1460  175.9960  137.4470 C   0  0  0  0  0  0  0  0  0  0  0  0
  191.1890  176.8130  138.3040 C   0  0  0  0  0  1  0  0  0  0  0  0
  191.8830  175.7240  136.0090 C   0  0  2  0  0  3  0  0  0  0  0  0
  182.9400  178.0850  139.2030 C   0  0  1  0  0  3  0  0  0  0  0  0
  182.7470  176.9580  140.2030 C   0  0  0  0  0  1  0  0  0  0  0  0
  182.3150  179.3740  139.7120 C   0  0  0  0  0  2  0  0  0  0  0  0
  181.1000  179.7630  138.8910 C   0  0  0  0  0  2  0  0  0  0  0  0
  179.3930  181.4160  139.2120 O   0  0  0  0  0  0  0  0  0  0  0  0
  181.2890  182.0470  137.9500 C   0  0  0  0  0  2  0  0  0  0  0  0
  179.1600  182.7240  138.7570 C   0  0  0  0  0  2  0  0  0  0  0  0
  180.7810  181.2310  139.1130 C   0  0  2  0  0  3  0  0  0  0  0  0
  180.2270  183.0870  137.7510 C   0  0  0  0  0  2  0  0  0  0  0  0
  185.1900  179.3450  139.6280 C   0  0  0  0  0  2  0  0  0  0  0  0
  185.8180  178.5930  141.9380 C   0  0  2  0  0  3  0  0  0  0  0  0
  186.0980  178.7320  140.6460 C   0  0  0  0  0  0  0  0  0  0  0  0
  184.6580  178.9130  142.6490 C   0  0  0  0  0  3  0  0  0  0  0  0
  186.9240  177.8140  143.9440 C   0  0  0  0  0  0  0  0  0  0  0  0
  190.1360  177.0630  141.5640 O   0  0  0  0  0  0  0  0  0  0  0  0
  188.1770  177.2440  144.5060 C   0  0  0  0  0  3  0  0  0  0  0  0
  189.1450  177.2890  142.3050 C   0  0  0  0  0  0  0  0  0  0  0  0
  184.6380  178.6740  144.0420 C   0  0  0  0  0  0  0  0  0  0  0  0
  185.7730  178.1170  144.6950 C   0  0  0  0  0  0  0  0  0  0  0  0
  189.2000  177.0070  143.7220 N   0  0  0  0  0  0  0  0  0  0  0  0
  187.5100  178.2570  140.3770 C   0  0  0  0  0  3  0  0  0  0  0  0
  187.8960  177.8450  141.7650 C   0  0  0  0  0  0  0  0  0  0  0  0
  186.8960  178.0670  142.5800 C   0  0  0  0  0  0  0  0  0  0  0  0
  185.7500  177.8730  146.0650 O   0  0  0  0  0  1  0  0  0  0  0  0
  183.4050  179.0010  144.8150 C   0  0  0  0  0  2  0  0  0  0  0  0
  182.1970  179.0050  143.8970 C   0  0  0  0  0  1  0  0  0  0  0  0
  1  2  2  0  0  0  0
  2 19  1  0  0  0  0
  2 28  1  0  0  0  0
  3  4  1  6  0  0  0
  3  1  1  0  0  0  0
  5  3  1  0  0  0  0
  6 10  1  0  0  0  0
  6  5  1  0  0  0  0
  7  9  1  6  0  0  0
  7 11  1  0  0  0  0
 10  8  1  6  0  0  0
 10  7  1  0  0  0  0
 10 11  1  0  0  0  0
 12 13  1  0  0  0  0
 12  7  1  0  0  0  0
 15 16  1  0  0  0  0
 16 14  1  0  0  0  0
 16 17  1  0  0  0  0
 18 13  1  1  0  0  0
 18 15  1  0  0  0  0
 18 16  1  0  0  0  0
 19 21  1  0  0  0  0
 19 20  1  1  0  0  0
 22 21  1  0  0  0  0
 24 26  1  0  0  0  0
 25 23  1  0  0  0  0
 26 22  1  6  0  0  0
 26 23  1  0  0  0  0
 27 24  1  0  0  0  0
 27 25  1  0  0  0  0
 28 30  1  0  0  0  0
 29 41  1  0  0  0  0
 29 31  1  1  0  0  0
 30 29  1  0  0  0  0
 31 36  2  0  0  0  0
 32 34  1  0  0  0  0
 32 37  2  0  0  0  0
 33 35  2  0  0  0  0
 35 38  1  0  0  0  0
 36 37  1  0  0  0  0
 36 43  1  0  0  0  0
 37 42  1  0  0  0  0
 38 34  2  0  0  0  0
 39 30  2  0  0  0  0
 39 40  1  0  0  0  0
 40 35  1  0  0  0  0
 40 41  2  0  0  0  0
 41 32  1  0  0  0  0
 44 43  1  0  0  0  0
M  END
>  <MODEL>
9

>  <REMARK>
 VINA RESULT:      -7.3      3.084      7.946
  Name = 
  14 active torsions:
  status: ('A' for Active; 'I' for Inactive)
    1  A    between atoms: C_2  and  N_31
    2  A    between atoms: C_7  and  C_14
    3  A    between atoms: C_8  and  C_19
    4  A    between atoms: N_12  and  N_38
    5  A    between atoms: N_12  and  C_40
    6  A    between atoms: C_13  and  C_22
    7  A    between atoms: C_14  and  N_38
    8  A    between atoms: C_15  and  C_41
    9  A    between atoms: C_16  and  C_20
   10  A    between atoms: C_16  and  C_30
   11  A    between atoms: C_19  and  C_30
   12  A    between atoms: C_20  and  C_36
   13  A    between atoms: N_31  and  C_41
   14  A    between atoms: C_34  and  C_36
                            x       y       z     vdW  Elec       q    Type
                         _______ _______ _______ _____ _____    ______ ____

>  <TORSDO>
F 14

$$$$
