=
 OpenBabel10222420373D

 41 46  0  0  1  0  0  0  0  0999 V2000
  185.0020  177.6030  137.0930 O   0  0  0  0  0  0  0  0  0  0  0  0
  182.6950  179.2750  139.4030 N   0  0  0  0  0  0  0  0  0  0  0  0
  187.5080  178.5480  142.0710 C   0  0  0  0  0  3  0  0  0  0  0  0
  186.5330  175.6610  136.6400 C   0  0  1  0  0  3  0  0  0  0  0  0
  187.6890  178.6350  136.9650 C   0  0  0  0  0  2  0  0  0  0  0  0
  187.6370  176.1390  137.5950 C   0  0  1  0  0  3  0  0  0  0  0  0
  186.2800  174.2420  136.8470 N   0  0  0  0  0  0  0  0  0  0  0  0
  183.0190  178.7030  138.1520 C   0  0  0  0  0  0  0  0  0  0  0  0
  184.4050  175.3480  137.4900 N   0  0  0  0  0  0  0  0  0  0  0  0
  189.0600  175.7840  137.1510 C   0  0  2  0  0  3  0  0  0  0  0  0
  188.6770  178.1440  141.4370 C   0  0  0  0  0  0  0  0  0  0  0  0
  186.3200  178.6340  141.3510 C   0  0  0  0  0  3  0  0  0  0  0  0
  185.2440  176.2360  137.0770 C   0  0  0  0  0  0  0  0  0  0  0  0
  185.0820  174.1080  137.3230 C   0  0  0  0  0  3  0  0  0  0  0  0
  187.5200  177.5630  137.9480 N   0  0  0  0  0  0  0  0  0  0  0  0
  186.2480  178.3240  139.9810 C   0  0  0  0  0  0  0  0  0  0  0  0
  182.2230  178.6360  137.1800 O   0  0  0  0  0  0  0  0  0  0  0  0
  188.9780  177.4800  135.1870 C   0  0  0  0  0  2  0  0  0  0  0  0
  187.4560  177.9070  139.3330 C   0  0  0  0  0  0  0  0  0  0  0  0
  188.6510  177.8260  140.0760 C   0  0  0  0  0  0  0  0  0  0  0  0
  189.8070  177.4650  139.4630 F   0  0  0  0  0  0  0  0  0  0  0  0
  184.8860  178.5200  139.3690 C   0  0  0  0  0  0  0  0  0  0  0  0
  183.7760  179.1700  140.1130 C   0  0  0  0  0  3  0  0  0  0  0  0
  184.3820  178.2260  138.1640 C   0  0  0  0  0  0  0  0  0  0  0  0
  189.0390  178.5490  136.2660 C   0  0  0  0  0  2  0  0  0  0  0  0
  189.3720  176.0820  135.6760 C   0  0  0  0  0  2  0  0  0  0  0  0
  189.9080  178.0700  142.1620 N   0  0  0  0  0  2  0  0  0  0  0  0
  190.5290  176.8900  142.4010 O   0  0  0  0  0  0  0  0  0  0  0  0
  189.9080  176.3690  143.5400 C   0  0  0  0  0  2  0  0  0  0  0  0
  190.4960  176.9970  144.7990 C   0  0  0  0  0  2  0  0  0  0  0  0
  187.4440  177.9130  147.6770 C   0  0  0  0  0  3  0  0  0  0  0  0
  189.7500  177.3870  147.1520 C   0  0  0  0  0  3  0  0  0  0  0  0
  188.1140  177.5690  145.3750 C   0  0  0  0  0  3  0  0  0  0  0  0
  189.4310  177.3300  145.7910 C   0  0  0  0  0  0  0  0  0  0  0  0
  188.7580  177.6800  148.0950 C   0  0  0  0  0  3  0  0  0  0  0  0
  187.1220  177.8590  146.3170 C   0  0  0  0  0  3  0  0  0  0  0  0
  189.3490  174.3920  137.4500 N   0  0  0  0  0  2  0  0  0  0  0  0
  190.1980  173.8970  136.3790 C   0  0  0  0  0  2  0  0  0  0  0  0
  192.0240  174.4500  137.9870 O   0  0  0  0  0  1  0  0  0  0  0  0
  192.3730  172.9340  136.3030 O   0  0  0  0  0  0  0  0  0  0  0  0
  191.5900  173.7310  136.8810 C   0  0  0  0  0  0  0  0  0  0  0  0
  1 24  1  0  0  0  0
  2 23  2  0  0  0  0
  4  7  1  1  0  0  0
  4 13  1  0  0  0  0
  4  6  1  0  0  0  0
  5 15  1  0  0  0  0
  6 15  1  6  0  0  0
  7 14  2  0  0  0  0
  8 24  1  0  0  0  0
  8  2  1  0  0  0  0
 10 37  1  6  0  0  0
 10  6  1  0  0  0  0
 11  3  1  0  0  0  0
 11 27  1  0  0  0  0
 12  3  2  0  0  0  0
 13  1  1  0  0  0  0
 13  9  2  0  0  0  0
 14  9  1  0  0  0  0
 15 19  1  0  0  0  0
 16 12  1  0  0  0  0
 17  8  2  0  0  0  0
 18 26  1  0  0  0  0
 18 25  1  0  0  0  0
 19 16  2  0  0  0  0
 19 20  1  0  0  0  0
 20 11  2  0  0  0  0
 21 20  1  0  0  0  0
 22 16  1  0  0  0  0
 22 23  1  0  0  0  0
 24 22  2  0  0  0  0
 25  5  1  0  0  0  0
 26 10  1  0  0  0  0
 27 28  1  0  0  0  0
 28 29  1  0  0  0  0
 29 30  1  0  0  0  0
 30 34  1  0  0  0  0
 31 35  1  0  0  0  0
 32 35  2  0  0  0  0
 33 34  2  0  0  0  0
 33 36  1  0  0  0  0
 34 32  1  0  0  0  0
 36 31  2  0  0  0  0
 38 41  1  0  0  0  0
 38 37  1  0  0  0  0
 40 41  2  0  0  0  0
 41 39  1  0  0  0  0
M  END
>  <MODEL>
1

>  <REMARK>
 VINA RESULT:      -8.5      0.000      0.000
  Name = 
  8 active torsions:
  status: ('A' for Active; 'I' for Inactive)
    1  A    between atoms: N_3  and  O_14
    2  A    between atoms: N_3  and  C_21
    3  A    between atoms: N_9  and  C_20
    4  A    between atoms: N_9  and  C_29
    5  A    between atoms: O_14  and  C_41
    6  A    between atoms: C_17  and  C_27
    7  A    between atoms: C_24  and  C_29
    8  A    between atoms: C_27  and  C_41
                            x       y       z     vdW  Elec       q    Type
                         _______ _______ _______ _____ _____    ______ ____

>  <TORSDO>
F 8

$$$$
=
 OpenBabel10222420373D

 41 46  0  0  1  0  0  0  0  0999 V2000
  180.2180  178.6120  141.1380 O   0  0  0  0  0  0  0  0  0  0  0  0
  181.1220  178.6960  144.6920 N   0  0  0  0  0  0  0  0  0  0  0  0
  185.8320  178.4270  141.7690 C   0  0  0  0  0  3  0  0  0  0  0  0
  180.3840  177.4350  138.9220 C   0  0  1  0  0  3  0  0  0  0  0  0
  181.7320  180.3100  139.3710 C   0  0  0  0  0  2  0  0  0  0  0  0
  181.8450  177.8350  138.6700 C   0  0  1  0  0  3  0  0  0  0  0  0
  180.2010  176.0200  138.6340 N   0  0  0  0  0  0  0  0  0  0  0  0
  180.1790  178.7010  143.6390 C   0  0  0  0  0  0  0  0  0  0  0  0
  179.8790  176.2850  140.8640 N   0  0  0  0  0  0  0  0  0  0  0  0
  182.2000  178.0530  137.1950 C   0  0  2  0  0  3  0  0  0  0  0  0
  185.8850  178.5980  140.3900 C   0  0  0  0  0  0  0  0  0  0  0  0
  184.6050  178.4310  142.4240 C   0  0  0  0  0  3  0  0  0  0  0  0
  180.1300  177.4530  140.3780 C   0  0  0  0  0  0  0  0  0  0  0  0
  179.9220  175.4110  139.7430 C   0  0  0  0  0  3  0  0  0  0  0  0
  182.2890  178.9630  139.5060 N   0  0  0  0  0  0  0  0  0  0  0  0
  183.3880  178.6030  141.7400 C   0  0  0  0  0  0  0  0  0  0  0  0
  178.9350  178.7580  143.8070 O   0  0  0  0  0  0  0  0  0  0  0  0
  180.7920  180.2320  137.0760 C   0  0  0  0  0  2  0  0  0  0  0  0
  183.4480  178.7790  140.3200 C   0  0  0  0  0  0  0  0  0  0  0  0
  184.7000  178.7740  139.6700 C   0  0  0  0  0  0  0  0  0  0  0  0
  184.7690  178.9720  138.3300 F   0  0  0  0  0  0  0  0  0  0  0  0
  182.1720  178.6220  142.6280 C   0  0  0  0  0  0  0  0  0  0  0  0
  182.2810  178.6500  144.1090 C   0  0  0  0  0  3  0  0  0  0  0  0
  180.8590  178.6360  142.3670 C   0  0  0  0  0  0  0  0  0  0  0  0
  181.8780  180.8390  137.9500 C   0  0  0  0  0  2  0  0  0  0  0  0
  181.1980  178.9130  136.4090 C   0  0  0  0  0  2  0  0  0  0  0  0
  187.1420  178.6150  139.7080 N   0  0  0  0  0  2  0  0  0  0  0  0
  188.2920  178.9620  140.3340 O   0  0  0  0  0  0  0  0  0  0  0  0
  189.2730  178.1250  139.7940 C   0  0  0  0  0  2  0  0  0  0  0  0
  189.4380  176.8760  140.6530 C   0  0  0  0  0  2  0  0  0  0  0  0
  189.6860  177.8870  144.8190 C   0  0  0  0  0  3  0  0  0  0  0  0
  188.5420  176.7920  142.9840 C   0  0  0  0  0  3  0  0  0  0  0  0
  190.6150  177.9810  142.5830 C   0  0  0  0  0  3  0  0  0  0  0  0
  189.5400  177.2200  142.1020 C   0  0  0  0  0  0  0  0  0  0  0  0
  188.6160  177.1230  144.3420 C   0  0  0  0  0  3  0  0  0  0  0  0
  190.6870  178.3150  143.9400 C   0  0  0  0  0  3  0  0  0  0  0  0
  182.3920  176.7770  136.5290 N   0  0  0  0  0  2  0  0  0  0  0  0
  183.7850  176.7200  136.1190 C   0  0  0  0  0  2  0  0  0  0  0  0
  183.9300  174.9390  137.8600 O   0  0  0  0  0  1  0  0  0  0  0  0
  185.7980  176.1110  137.2330 O   0  0  0  0  0  0  0  0  0  0  0  0
  184.5630  175.9130  137.0990 C   0  0  0  0  0  0  0  0  0  0  0  0
  1 24  1  0  0  0  0
  3 12  1  0  0  0  0
  4  7  1  1  0  0  0
  4 13  1  0  0  0  0
  5 15  1  0  0  0  0
  6  4  1  0  0  0  0
  6 15  1  1  0  0  0
  7 14  2  0  0  0  0
  8 17  2  0  0  0  0
  8  2  1  0  0  0  0
 10 37  1  6  0  0  0
 10  6  1  0  0  0  0
 11  3  2  0  0  0  0
 13  9  2  0  0  0  0
 13  1  1  0  0  0  0
 14  9  1  0  0  0  0
 15 19  1  0  0  0  0
 16 12  2  0  0  0  0
 16 22  1  0  0  0  0
 18 25  1  0  0  0  0
 19 16  1  0  0  0  0
 20 19  2  0  0  0  0
 20 11  1  0  0  0  0
 21 20  1  0  0  0  0
 22 23  1  0  0  0  0
 23  2  2  0  0  0  0
 24 22  2  0  0  0  0
 24  8  1  0  0  0  0
 25  5  1  0  0  0  0
 26 18  1  0  0  0  0
 26 10  1  0  0  0  0
 27 28  1  0  0  0  0
 27 11  1  0  0  0  0
 29 28  1  0  0  0  0
 29 30  1  0  0  0  0
 30 34  1  0  0  0  0
 32 35  2  0  0  0  0
 33 36  1  0  0  0  0
 34 33  2  0  0  0  0
 34 32  1  0  0  0  0
 35 31  1  0  0  0  0
 36 31  2  0  0  0  0
 38 37  1  0  0  0  0
 38 41  1  0  0  0  0
 41 40  2  0  0  0  0
 41 39  1  0  0  0  0
M  END
>  <MODEL>
2

>  <REMARK>
 VINA RESULT:      -7.7      3.289      5.695
  Name = 
  8 active torsions:
  status: ('A' for Active; 'I' for Inactive)
    1  A    between atoms: N_3  and  O_14
    2  A    between atoms: N_3  and  C_21
    3  A    between atoms: N_9  and  C_20
    4  A    between atoms: N_9  and  C_29
    5  A    between atoms: O_14  and  C_41
    6  A    between atoms: C_17  and  C_27
    7  A    between atoms: C_24  and  C_29
    8  A    between atoms: C_27  and  C_41
                            x       y       z     vdW  Elec       q    Type
                         _______ _______ _______ _____ _____    ______ ____

>  <TORSDO>
F 8

$$$$
=
 OpenBabel10222420373D

 41 46  0  0  1  0  0  0  0  0999 V2000
  183.1210  176.9520  136.9030 O   0  0  0  0  0  0  0  0  0  0  0  0
  186.6820  177.6170  136.3350 N   0  0  0  0  0  0  0  0  0  0  0  0
  185.4650  179.2920  141.4840 C   0  0  0  0  0  3  0  0  0  0  0  0
  180.8600  177.8450  137.5500 C   0  0  1  0  0  3  0  0  0  0  0  0
  182.4080  175.7530  139.4240 C   0  0  0  0  0  2  0  0  0  0  0  0
  181.1990  177.9940  139.0400 C   0  0  1  0  0  3  0  0  0  0  0  0
  180.1920  179.0460  137.0710 N   0  0  0  0  0  0  0  0  0  0  0  0
  185.4160  177.1410  135.9250 C   0  0  0  0  0  0  0  0  0  0  0  0
  182.1920  178.9360  136.0060 N   0  0  0  0  0  0  0  0  0  0  0  0
  180.0180  177.7570  139.9880 C   0  0  2  0  0  3  0  0  0  0  0  0
  184.2620  178.9970  142.1180 C   0  0  0  0  0  0  0  0  0  0  0  0
  185.6680  178.9050  140.1640 C   0  0  0  0  0  3  0  0  0  0  0  0
  182.1140  177.8990  136.7690 C   0  0  0  0  0  0  0  0  0  0  0  0
  180.9670  179.6280  136.2120 C   0  0  0  0  0  3  0  0  0  0  0  0
  182.3820  177.2170  139.4450 N   0  0  0  0  0  0  0  0  0  0  0  0
  184.6920  178.2130  139.4240 C   0  0  0  0  0  0  0  0  0  0  0  0
  185.1820  176.6420  134.7950 O   0  0  0  0  0  0  0  0  0  0  0  0
  179.9870  175.2120  139.4750 C   0  0  0  0  0  2  0  0  0  0  0  0
  183.4550  177.9120  140.0810 C   0  0  0  0  0  0  0  0  0  0  0  0
  183.2640  178.3100  141.4200 C   0  0  0  0  0  0  0  0  0  0  0  0
  182.1090  178.0010  142.0610 F   0  0  0  0  0  0  0  0  0  0  0  0
  185.1160  177.8420  138.0270 C   0  0  0  0  0  0  0  0  0  0  0  0
  186.5120  178.0260  137.5550 C   0  0  0  0  0  3  0  0  0  0  0  0
  184.4570  177.3100  136.9910 C   0  0  0  0  0  0  0  0  0  0  0  0
  181.2850  175.1590  140.2650 C   0  0  0  0  0  2  0  0  0  0  0  0
  179.1860  176.5020  139.6840 C   0  0  0  0  0  2  0  0  0  0  0  0
  184.0490  179.3730  143.4810 N   0  0  0  0  0  2  0  0  0  0  0  0
  184.1470  178.4800  144.4950 O   0  0  0  0  0  0  0  0  0  0  0  0
  185.1560  178.9740  145.3260 C   0  0  0  0  0  2  0  0  0  0  0  0
  185.7890  177.8400  146.1250 C   0  0  0  0  0  2  0  0  0  0  0  0
  189.8180  177.0940  144.8420 C   0  0  0  0  0  3  0  0  0  0  0  0
  188.2270  177.5750  146.6060 C   0  0  0  0  0  3  0  0  0  0  0  0
  187.4630  177.3160  144.3210 C   0  0  0  0  0  3  0  0  0  0  0  0
  187.1850  177.5650  145.6720 C   0  0  0  0  0  0  0  0  0  0  0  0
  189.5430  177.3370  146.1920 C   0  0  0  0  0  3  0  0  0  0  0  0
  188.7780  177.0820  143.9070 C   0  0  0  0  0  3  0  0  0  0  0  0
  179.1600  178.9280  140.0250 N   0  0  0  0  0  2  0  0  0  0  0  0
  178.9310  179.2410  141.4260 C   0  0  0  0  0  2  0  0  0  0  0  0
  179.6600  181.5860  140.9880 O   0  0  0  0  0  0  0  0  0  0  0  0
  180.3820  180.4700  142.8560 O   0  0  0  0  0  1  0  0  0  0  0  0
  179.7000  180.4590  141.7990 C   0  0  0  0  0  0  0  0  0  0  0  0
  1 24  1  0  0  0  0
  2 23  2  0  0  0  0
  3 11  1  0  0  0  0
  4 13  1  6  0  0  0
  4  6  1  0  0  0  0
  5 15  1  0  0  0  0
  5 25  1  0  0  0  0
  6 15  1  1  0  0  0
  6 10  1  0  0  0  0
  7  4  1  0  0  0  0
  8  2  1  0  0  0  0
  8 24  1  0  0  0  0
  9 14  1  0  0  0  0
  9 13  2  0  0  0  0
 10 37  1  6  0  0  0
 11 27  1  0  0  0  0
 12  3  2  0  0  0  0
 13  1  1  0  0  0  0
 14  7  2  0  0  0  0
 15 19  1  0  0  0  0
 16 19  2  0  0  0  0
 16 12  1  0  0  0  0
 17  8  2  0  0  0  0
 18 26  1  0  0  0  0
 18 25  1  0  0  0  0
 19 20  1  0  0  0  0
 20 21  1  0  0  0  0
 20 11  2  0  0  0  0
 22 16  1  0  0  0  0
 23 22  1  0  0  0  0
 24 22  2  0  0  0  0
 26 10  1  0  0  0  0
 27 28  1  0  0  0  0
 28 29  1  0  0  0  0
 29 30  1  0  0  0  0
 31 35  1  0  0  0  0
 33 34  2  0  0  0  0
 34 30  1  0  0  0  0
 34 32  1  0  0  0  0
 35 32  2  0  0  0  0
 36 33  1  0  0  0  0
 36 31  2  0  0  0  0
 37 38  1  0  0  0  0
 38 41  1  0  0  0  0
 39 41  2  0  0  0  0
 41 40  1  0  0  0  0
M  END
>  <MODEL>
3

>  <REMARK>
 VINA RESULT:      -7.7      3.595      7.139
  Name = 
  8 active torsions:
  status: ('A' for Active; 'I' for Inactive)
    1  A    between atoms: N_3  and  O_14
    2  A    between atoms: N_3  and  C_21
    3  A    between atoms: N_9  and  C_20
    4  A    between atoms: N_9  and  C_29
    5  A    between atoms: O_14  and  C_41
    6  A    between atoms: C_17  and  C_27
    7  A    between atoms: C_24  and  C_29
    8  A    between atoms: C_27  and  C_41
                            x       y       z     vdW  Elec       q    Type
                         _______ _______ _______ _____ _____    ______ ____

>  <TORSDO>
F 8

$$$$
=
 OpenBabel10222420373D

 41 46  0  0  1  0  0  0  0  0999 V2000
  180.7240  175.6410  138.0460 O   0  0  0  0  0  0  0  0  0  0  0  0
  182.4040  172.6220  136.8160 N   0  0  0  0  0  0  0  0  0  0  0  0
  186.1810  176.6840  137.0040 C   0  0  0  0  0  3  0  0  0  0  0  0
  180.1450  178.0610  137.6790 C   0  0  1  0  0  3  0  0  0  0  0  0
  182.1100  177.1750  140.0530 C   0  0  0  0  0  2  0  0  0  0  0  0
  181.5620  178.5790  137.9670 C   0  0  1  0  0  3  0  0  0  0  0  0
  179.6210  178.6930  136.4760 N   0  0  0  0  0  0  0  0  0  0  0  0
  181.2680  173.3200  137.2870 C   0  0  0  0  0  0  0  0  0  0  0  0
  179.8710  176.4870  136.0070 N   0  0  0  0  0  0  0  0  0  0  0  0
  181.6110  179.9610  138.6290 C   0  0  2  0  0  3  0  0  0  0  0  0
  185.9540  177.9080  137.6250 C   0  0  0  0  0  0  0  0  0  0  0  0
  185.1590  175.7430  136.9290 C   0  0  0  0  0  3  0  0  0  0  0  0
  180.2350  176.6550  137.2330 C   0  0  0  0  0  0  0  0  0  0  0  0
  179.4830  177.7820  135.5660 C   0  0  0  0  0  3  0  0  0  0  0  0
  182.4000  177.6060  138.6850 N   0  0  0  0  0  0  0  0  0  0  0  0
  183.8800  175.9780  137.4640 C   0  0  0  0  0  0  0  0  0  0  0  0
  180.1310  172.8020  137.4290 O   0  0  0  0  0  0  0  0  0  0  0  0
  180.6810  179.0320  140.8680 C   0  0  0  0  0  2  0  0  0  0  0  0
  183.6520  177.2400  138.1020 C   0  0  0  0  0  0  0  0  0  0  0  0
  184.6980  178.1830  138.1710 C   0  0  0  0  0  0  0  0  0  0  0  0
  184.5010  179.3680  138.8020 F   0  0  0  0  0  0  0  0  0  0  0  0
  182.9240  174.8220  137.3230 C   0  0  0  0  0  0  0  0  0  0  0  0
  183.3670  173.4910  136.8350 C   0  0  0  0  0  3  0  0  0  0  0  0
  181.6160  174.6910  137.5770 C   0  0  0  0  0  0  0  0  0  0  0  0
  182.0350  178.3560  141.0110 C   0  0  0  0  0  2  0  0  0  0  0  0
  180.6520  180.1450  139.8150 C   0  0  0  0  0  2  0  0  0  0  0  0
  187.0020  178.8760  137.7250 N   0  0  0  0  0  2  0  0  0  0  0  0
  188.2180  178.5660  138.2360 O   0  0  0  0  0  0  0  0  0  0  0  0
  187.9550  177.8030  139.3780 C   0  0  0  0  0  2  0  0  0  0  0  0
  188.3920  178.5540  140.6300 C   0  0  0  0  0  2  0  0  0  0  0  0
  185.5280  178.1610  143.8060 C   0  0  0  0  0  3  0  0  0  0  0  0
  186.1360  178.9950  141.6130 C   0  0  0  0  0  3  0  0  0  0  0  0
  187.7200  177.6820  142.8930 C   0  0  0  0  0  3  0  0  0  0  0  0
  187.3970  178.4000  141.7340 C   0  0  0  0  0  0  0  0  0  0  0  0
  185.2010  178.8740  142.6480 C   0  0  0  0  0  3  0  0  0  0  0  0
  186.7870  177.5640  143.9280 C   0  0  0  0  0  3  0  0  0  0  0  0
  181.3880  181.0020  137.6400 N   0  0  0  0  0  2  0  0  0  0  0  0
  181.7800  182.2590  138.2540 C   0  0  0  0  0  2  0  0  0  0  0  0
  179.9650  183.3500  136.9350 O   0  0  0  0  0  0  0  0  0  0  0  0
  181.9800  184.4010  137.2380 O   0  0  0  0  0  1  0  0  0  0  0  0
  181.2550  183.3950  137.4480 C   0  0  0  0  0  0  0  0  0  0  0  0
  2 23  2  0  0  0  0
  2  8  1  0  0  0  0
  3 11  1  0  0  0  0
  4  7  1  6  0  0  0
  4  6  1  0  0  0  0
  5 25  1  0  0  0  0
  6 10  1  0  0  0  0
  6 15  1  1  0  0  0
  8 17  2  0  0  0  0
  8 24  1  0  0  0  0
  9 13  2  0  0  0  0
 10 37  1  6  0  0  0
 10 26  1  0  0  0  0
 11 27  1  0  0  0  0
 11 20  2  0  0  0  0
 12  3  2  0  0  0  0
 12 16  1  0  0  0  0
 13  4  1  0  0  0  0
 13  1  1  0  0  0  0
 14  9  1  0  0  0  0
 14  7  2  0  0  0  0
 15  5  1  0  0  0  0
 16 19  2  0  0  0  0
 18 25  1  0  0  0  0
 19 20  1  0  0  0  0
 19 15  1  0  0  0  0
 20 21  1  0  0  0  0
 22 16  1  0  0  0  0
 22 24  2  0  0  0  0
 23 22  1  0  0  0  0
 24  1  1  0  0  0  0
 26 18  1  0  0  0  0
 27 28  1  0  0  0  0
 28 29  1  0  0  0  0
 29 30  1  0  0  0  0
 30 34  1  0  0  0  0
 31 36  1  0  0  0  0
 32 34  2  0  0  0  0
 32 35  1  0  0  0  0
 33 36  2  0  0  0  0
 34 33  1  0  0  0  0
 35 31  2  0  0  0  0
 37 38  1  0  0  0  0
 39 41  2  0  0  0  0
 40 41  1  0  0  0  0
 41 38  1  0  0  0  0
M  END
>  <MODEL>
4

>  <REMARK>
 VINA RESULT:      -7.3      3.417      7.396
  Name = 
  8 active torsions:
  status: ('A' for Active; 'I' for Inactive)
    1  A    between atoms: N_3  and  O_14
    2  A    between atoms: N_3  and  C_21
    3  A    between atoms: N_9  and  C_20
    4  A    between atoms: N_9  and  C_29
    5  A    between atoms: O_14  and  C_41
    6  A    between atoms: C_17  and  C_27
    7  A    between atoms: C_24  and  C_29
    8  A    between atoms: C_27  and  C_41
                            x       y       z     vdW  Elec       q    Type
                         _______ _______ _______ _____ _____    ______ ____

>  <TORSDO>
F 8

$$$$
=
 OpenBabel10222420373D

 41 46  0  0  1  0  0  0  0  0999 V2000
  181.0590  176.8140  136.4950 O   0  0  0  0  0  0  0  0  0  0  0  0
  182.9260  174.0650  134.9430 N   0  0  0  0  0  0  0  0  0  0  0  0
  186.5350  177.1020  137.8670 C   0  0  0  0  0  3  0  0  0  0  0  0
  180.7980  179.2920  136.8330 C   0  0  1  0  0  3  0  0  0  0  0  0
  181.6270  177.3720  139.2640 C   0  0  0  0  0  2  0  0  0  0  0  0
  182.0140  179.4260  137.7620 C   0  0  1  0  0  3  0  0  0  0  0  0
  180.8200  180.3490  135.8320 N   0  0  0  0  0  0  0  0  0  0  0  0
  181.7350  174.7800  135.2030 C   0  0  0  0  0  0  0  0  0  0  0  0
  181.1180  178.3880  134.7290 N   0  0  0  0  0  0  0  0  0  0  0  0
  181.8730  180.5030  138.8430 C   0  0  2  0  0  3  0  0  0  0  0  0
  186.1480  178.0950  138.7610 C   0  0  0  0  0  0  0  0  0  0  0  0
  185.5770  176.4350  137.1110 C   0  0  0  0  0  3  0  0  0  0  0  0
  180.9820  178.1010  135.9790 C   0  0  0  0  0  0  0  0  0  0  0  0
  181.0020  179.8040  134.6700 C   0  0  0  0  0  3  0  0  0  0  0  0
  182.4520  178.1420  138.3320 N   0  0  0  0  0  0  0  0  0  0  0  0
  184.2040  176.7250  137.2120 C   0  0  0  0  0  0  0  0  0  0  0  0
  180.6070  174.4630  134.7450 O   0  0  0  0  0  0  0  0  0  0  0  0
  180.0930  179.1180  140.1310 C   0  0  0  0  0  2  0  0  0  0  0  0
  183.8110  177.7490  138.1330 C   0  0  0  0  0  0  0  0  0  0  0  0
  184.7940  178.4160  138.8930 C   0  0  0  0  0  0  0  0  0  0  0  0
  184.4280  179.3640  139.7920 F   0  0  0  0  0  0  0  0  0  0  0  0
  183.3210  175.8660  136.3460 C   0  0  0  0  0  0  0  0  0  0  0  0
  183.8490  174.6920  135.6050 C   0  0  0  0  0  3  0  0  0  0  0  0
  182.0130  175.9060  136.0630 C   0  0  0  0  0  0  0  0  0  0  0  0
  181.2450  178.1940  140.4880 C   0  0  0  0  0  2  0  0  0  0  0  0
  180.5360  180.4870  139.6030 C   0  0  0  0  0  2  0  0  0  0  0  0
  187.1220  178.7750  139.5570 N   0  0  0  0  0  2  0  0  0  0  0  0
  187.7270  178.1790  140.6130 O   0  0  0  0  0  0  0  0  0  0  0  0
  186.8460  178.3450  141.6850 C   0  0  0  0  0  2  0  0  0  0  0  0
  187.2160  177.4050  142.8270 C   0  0  0  0  0  2  0  0  0  0  0  0
  185.3840  178.5720  146.5310 C   0  0  0  0  0  3  0  0  0  0  0  0
  187.2150  177.5430  145.3230 C   0  0  0  0  0  3  0  0  0  0  0  0
  185.3430  178.4890  144.1110 C   0  0  0  0  0  3  0  0  0  0  0  0
  186.5780  177.8270  144.1100 C   0  0  0  0  0  0  0  0  0  0  0  0
  186.6190  177.9170  146.5330 C   0  0  0  0  0  3  0  0  0  0  0  0
  184.7460  178.8600  145.3200 C   0  0  0  0  0  3  0  0  0  0  0  0
  182.1080  181.8200  138.2770 N   0  0  0  0  0  2  0  0  0  0  0  0
  180.8650  182.5620  138.4000 C   0  0  0  0  0  2  0  0  0  0  0  0
  179.7600  184.2080  136.8860 O   0  0  0  0  0  0  0  0  0  0  0  0
  181.9940  184.3840  137.3670 O   0  0  0  0  0  1  0  0  0  0  0  0
  180.9110  183.7650  137.5240 C   0  0  0  0  0  0  0  0  0  0  0  0
  2  8  1  0  0  0  0
  2 23  2  0  0  0  0
  3 11  1  0  0  0  0
  4  7  1  6  0  0  0
  4  6  1  0  0  0  0
  5 25  1  0  0  0  0
  6 15  1  1  0  0  0
  6 10  1  0  0  0  0
  8 24  1  0  0  0  0
  9 13  2  0  0  0  0
 10 37  1  6  0  0  0
 10 26  1  0  0  0  0
 11 20  2  0  0  0  0
 11 27  1  0  0  0  0
 12 16  1  0  0  0  0
 12  3  2  0  0  0  0
 13  1  1  0  0  0  0
 13  4  1  0  0  0  0
 14  9  1  0  0  0  0
 14  7  2  0  0  0  0
 15  5  1  0  0  0  0
 16 19  2  0  0  0  0
 17  8  2  0  0  0  0
 18 25  1  0  0  0  0
 19 15  1  0  0  0  0
 19 20  1  0  0  0  0
 20 21  1  0  0  0  0
 22 16  1  0  0  0  0
 23 22  1  0  0  0  0
 24 22  2  0  0  0  0
 24  1  1  0  0  0  0
 26 18  1  0  0  0  0
 27 28  1  0  0  0  0
 28 29  1  0  0  0  0
 29 30  1  0  0  0  0
 30 34  1  0  0  0  0
 31 35  1  0  0  0  0
 32 35  2  0  0  0  0
 33 36  1  0  0  0  0
 34 33  2  0  0  0  0
 34 32  1  0  0  0  0
 36 31  2  0  0  0  0
 37 38  1  0  0  0  0
 39 41  2  0  0  0  0
 40 41  1  0  0  0  0
 41 38  1  0  0  0  0
M  END
>  <MODEL>
5

>  <REMARK>
 VINA RESULT:      -7.1      3.271      7.193
  Name = 
  8 active torsions:
  status: ('A' for Active; 'I' for Inactive)
    1  A    between atoms: N_3  and  O_14
    2  A    between atoms: N_3  and  C_21
    3  A    between atoms: N_9  and  C_20
    4  A    between atoms: N_9  and  C_29
    5  A    between atoms: O_14  and  C_41
    6  A    between atoms: C_17  and  C_27
    7  A    between atoms: C_24  and  C_29
    8  A    between atoms: C_27  and  C_41
                            x       y       z     vdW  Elec       q    Type
                         _______ _______ _______ _____ _____    ______ ____

>  <TORSDO>
F 8

$$$$
=
 OpenBabel10222420373D

 41 46  0  0  1  0  0  0  0  0999 V2000
  186.3460  176.6100  136.3980 O   0  0  0  0  0  0  0  0  0  0  0  0
  183.8590  178.3780  138.4340 N   0  0  0  0  0  0  0  0  0  0  0  0
  188.6380  178.3690  141.2570 C   0  0  0  0  0  3  0  0  0  0  0  0
  188.0300  174.7500  136.2250 C   0  0  1  0  0  3  0  0  0  0  0  0
  188.9510  177.8220  136.1860 C   0  0  0  0  0  2  0  0  0  0  0  0
  189.0680  175.4290  137.1310 C   0  0  1  0  0  3  0  0  0  0  0  0
  187.8770  173.3540  136.6080 N   0  0  0  0  0  0  0  0  0  0  0  0
  184.2590  177.6790  137.2720 C   0  0  0  0  0  0  0  0  0  0  0  0
  185.9080  174.3840  137.0720 N   0  0  0  0  0  0  0  0  0  0  0  0
  190.5250  175.1320  136.7610 C   0  0  2  0  0  3  0  0  0  0  0  0
  189.8510  177.9800  140.7000 C   0  0  0  0  0  0  0  0  0  0  0  0
  187.4670  178.2710  140.5110 C   0  0  0  0  0  3  0  0  0  0  0  0
  186.6900  175.2750  136.5630 C   0  0  0  0  0  0  0  0  0  0  0  0
  186.6800  173.1890  137.0770 C   0  0  0  0  0  3  0  0  0  0  0  0
  188.8360  176.8740  137.2950 N   0  0  0  0  0  0  0  0  0  0  0  0
  187.4560  177.7850  139.1910 C   0  0  0  0  0  0  0  0  0  0  0  0
  183.4970  177.4270  136.3040 O   0  0  0  0  0  0  0  0  0  0  0  0
  190.3710  176.5550  134.5940 C   0  0  0  0  0  2  0  0  0  0  0  0
  188.7080  177.3850  138.6230 C   0  0  0  0  0  0  0  0  0  0  0  0
  189.8860  177.4910  139.3910 C   0  0  0  0  0  0  0  0  0  0  0  0
  191.0810  177.1450  138.8510 F   0  0  0  0  0  0  0  0  0  0  0  0
  186.1000  177.7970  138.5360 C   0  0  0  0  0  0  0  0  0  0  0  0
  184.9250  178.4480  139.1710 C   0  0  0  0  0  3  0  0  0  0  0  0
  185.6520  177.3140  137.3700 C   0  0  0  0  0  0  0  0  0  0  0  0
  190.3230  177.7530  135.5280 C   0  0  0  0  0  2  0  0  0  0  0  0
  190.8540  175.2640  135.2650 C   0  0  0  0  0  2  0  0  0  0  0  0
  191.0640  178.0930  141.4510 N   0  0  0  0  0  2  0  0  0  0  0  0
  191.5150  177.0890  142.2400 O   0  0  0  0  0  0  0  0  0  0  0  0
  190.9700  177.3390  143.5030 C   0  0  0  0  0  2  0  0  0  0  0  0
  189.7810  176.4180  143.7600 C   0  0  0  0  0  2  0  0  0  0  0  0
  187.3400  177.8970  146.9680 C   0  0  0  0  0  3  0  0  0  0  0  0
  187.5760  177.1600  144.6720 C   0  0  0  0  0  3  0  0  0  0  0  0
  189.4980  177.1660  146.1460 C   0  0  0  0  0  3  0  0  0  0  0  0
  188.9370  176.9190  144.8850 C   0  0  0  0  0  0  0  0  0  0  0  0
  186.7770  177.6460  145.7130 C   0  0  0  0  0  3  0  0  0  0  0  0
  188.7010  177.6560  147.1850 C   0  0  0  0  0  3  0  0  0  0  0  0
  190.9080  173.8160  137.2410 N   0  0  0  0  0  2  0  0  0  0  0  0
  192.3610  173.7910  137.2930 C   0  0  0  0  0  2  0  0  0  0  0  0
  194.1030  172.0430  136.9280 O   0  0  0  0  0  1  0  0  0  0  0  0
  192.1700  172.0390  135.6950 O   0  0  0  0  0  0  0  0  0  0  0  0
  192.8670  172.5800  136.5910 C   0  0  0  0  0  0  0  0  0  0  0  0
  1 13  1  0  0  0  0
  1 24  1  0  0  0  0
  2 23  2  0  0  0  0
  4 13  1  1  0  0  0
  4  7  1  0  0  0  0
  4  6  1  0  0  0  0
  5 15  1  0  0  0  0
  6 15  1  6  0  0  0
  7 14  2  0  0  0  0
  8 24  1  0  0  0  0
  8  2  1  0  0  0  0
  9 14  1  0  0  0  0
 10  6  1  0  0  0  0
 10 37  1  6  0  0  0
 11  3  1  0  0  0  0
 11 27  1  0  0  0  0
 12  3  2  0  0  0  0
 13  9  2  0  0  0  0
 15 19  1  0  0  0  0
 16 12  1  0  0  0  0
 17  8  2  0  0  0  0
 18 26  1  0  0  0  0
 18 25  1  0  0  0  0
 19 16  2  0  0  0  0
 19 20  1  0  0  0  0
 20 11  2  0  0  0  0
 21 20  1  0  0  0  0
 22 23  1  0  0  0  0
 22 16  1  0  0  0  0
 24 22  2  0  0  0  0
 25  5  1  0  0  0  0
 26 10  1  0  0  0  0
 27 28  1  0  0  0  0
 28 29  1  0  0  0  0
 29 30  1  0  0  0  0
 30 34  1  0  0  0  0
 31 36  1  0  0  0  0
 32 34  2  0  0  0  0
 32 35  1  0  0  0  0
 33 36  2  0  0  0  0
 34 33  1  0  0  0  0
 35 31  2  0  0  0  0
 37 38  1  0  0  0  0
 40 41  2  0  0  0  0
 41 39  1  0  0  0  0
 41 38  1  0  0  0  0
M  END
>  <MODEL>
6

>  <REMARK>
 VINA RESULT:      -6.7      1.348      1.799
  Name = 
  8 active torsions:
  status: ('A' for Active; 'I' for Inactive)
    1  A    between atoms: N_3  and  O_14
    2  A    between atoms: N_3  and  C_21
    3  A    between atoms: N_9  and  C_20
    4  A    between atoms: N_9  and  C_29
    5  A    between atoms: O_14  and  C_41
    6  A    between atoms: C_17  and  C_27
    7  A    between atoms: C_24  and  C_29
    8  A    between atoms: C_27  and  C_41
                            x       y       z     vdW  Elec       q    Type
                         _______ _______ _______ _____ _____    ______ ____

>  <TORSDO>
F 8

$$$$
=
 OpenBabel10222420373D

 41 46  0  0  1  0  0  0  0  0999 V2000
  179.6310  178.3180  141.3770 O   0  0  0  0  0  0  0  0  0  0  0  0
  181.4280  178.9720  144.5070 N   0  0  0  0  0  0  0  0  0  0  0  0
  185.1980  178.6360  140.4490 C   0  0  0  0  0  3  0  0  0  0  0  0
  179.3320  176.8540  139.3540 C   0  0  1  0  0  3  0  0  0  0  0  0
  180.4290  179.8540  139.0740 C   0  0  0  0  0  2  0  0  0  0  0  0
  180.6220  177.3200  138.6640 C   0  0  1  0  0  3  0  0  0  0  0  0
  179.2350  175.4020  139.2950 N   0  0  0  0  0  0  0  0  0  0  0  0
  180.2450  178.7580  143.7630 C   0  0  0  0  0  0  0  0  0  0  0  0
  179.4870  175.9580  141.4810 N   0  0  0  0  0  0  0  0  0  0  0  0
  180.5480  177.3520  137.1340 C   0  0  2  0  0  3  0  0  0  0  0  0
  184.8650  178.6130  139.0990 C   0  0  0  0  0  0  0  0  0  0  0  0
  184.1950  178.6420  141.4120 C   0  0  0  0  0  3  0  0  0  0  0  0
  179.4720  177.0600  140.8110 C   0  0  0  0  0  0  0  0  0  0  0  0
  179.3270  174.9390  140.5020 C   0  0  0  0  0  3  0  0  0  0  0  0
  181.1450  178.5840  139.2070 N   0  0  0  0  0  0  0  0  0  0  0  0
  182.8290  178.6270  141.0760 C   0  0  0  0  0  0  0  0  0  0  0  0
  179.0910  178.7480  144.2610 O   0  0  0  0  0  0  0  0  0  0  0  0
  178.9310  179.3830  137.1540 C   0  0  0  0  0  2  0  0  0  0  0  0
  182.4920  178.6030  139.6840 C   0  0  0  0  0  0  0  0  0  0  0  0
  183.5200  178.5970  138.7190 C   0  0  0  0  0  0  0  0  0  0  0  0
  183.2100  178.6080  137.3980 F   0  0  0  0  0  0  0  0  0  0  0  0
  181.8960  178.6830  142.2570 C   0  0  0  0  0  0  0  0  0  0  0  0
  182.3890  178.9290  143.6370 C   0  0  0  0  0  3  0  0  0  0  0  0
  180.5670  178.5630  142.3690 C   0  0  0  0  0  0  0  0  0  0  0  0
  180.1360  180.1850  137.6170 C   0  0  0  0  0  2  0  0  0  0  0  0
  179.2870  178.0160  136.5600 C   0  0  0  0  0  2  0  0  0  0  0  0
  185.8870  178.6250  138.0980 N   0  0  0  0  0  2  0  0  0  0  0  0
  186.3880  177.4810  137.5720 O   0  0  0  0  0  0  0  0  0  0  0  0
  187.4990  177.8750  136.8220 C   0  0  0  0  0  2  0  0  0  0  0  0
  188.3650  178.8410  137.6220 C   0  0  0  0  0  2  0  0  0  0  0  0
  190.5690  176.7550  140.6600 C   0  0  0  0  0  3  0  0  0  0  0  0
  190.1690  177.2600  138.3240 C   0  0  0  0  0  3  0  0  0  0  0  0
  188.8220  178.3140  140.0400 C   0  0  0  0  0  3  0  0  0  0  0  0
  189.1350  178.1310  138.6860 C   0  0  0  0  0  0  0  0  0  0  0  0
  190.8870  176.5740  139.3100 C   0  0  0  0  0  3  0  0  0  0  0  0
  189.5370  177.6260  141.0250 C   0  0  0  0  0  3  0  0  0  0  0  0
  180.6960  176.0110  136.5940 N   0  0  0  0  0  2  0  0  0  0  0  0
  182.0250  175.5510  136.9600 C   0  0  0  0  0  2  0  0  0  0  0  0
  183.1430  173.3340  136.7220 O   0  0  0  0  0  1  0  0  0  0  0  0
  181.9730  174.2440  134.9730 O   0  0  0  0  0  0  0  0  0  0  0  0
  182.3760  174.3460  136.1600 C   0  0  0  0  0  0  0  0  0  0  0  0
  1 24  1  0  0  0  0
  3 12  1  0  0  0  0
  4  7  1  1  0  0  0
  4 13  1  0  0  0  0
  5 15  1  0  0  0  0
  6 15  1  1  0  0  0
  6  4  1  0  0  0  0
  7 14  2  0  0  0  0
  8 17  2  0  0  0  0
  8  2  1  0  0  0  0
 10 37  1  1  0  0  0
 10  6  1  0  0  0  0
 11  3  2  0  0  0  0
 13  1  1  0  0  0  0
 13  9  2  0  0  0  0
 14  9  1  0  0  0  0
 15 19  1  0  0  0  0
 16 12  2  0  0  0  0
 16 22  1  0  0  0  0
 18 25  1  0  0  0  0
 19 16  1  0  0  0  0
 20 11  1  0  0  0  0
 20 19  2  0  0  0  0
 21 20  1  0  0  0  0
 22 24  2  0  0  0  0
 22 23  1  0  0  0  0
 23  2  2  0  0  0  0
 24  8  1  0  0  0  0
 25  5  1  0  0  0  0
 26 10  1  0  0  0  0
 26 18  1  0  0  0  0
 27 11  1  0  0  0  0
 28 27  1  0  0  0  0
 29 28  1  0  0  0  0
 29 30  1  0  0  0  0
 30 34  1  0  0  0  0
 31 36  1  0  0  0  0
 32 34  2  0  0  0  0
 32 35  1  0  0  0  0
 33 36  2  0  0  0  0
 34 33  1  0  0  0  0
 35 31  2  0  0  0  0
 37 38  1  0  0  0  0
 40 41  2  0  0  0  0
 41 39  1  0  0  0  0
 41 38  1  0  0  0  0
M  END
>  <MODEL>
7

>  <REMARK>
 VINA RESULT:      -6.5      3.943      7.181
  Name = 
  8 active torsions:
  status: ('A' for Active; 'I' for Inactive)
    1  A    between atoms: N_3  and  O_14
    2  A    between atoms: N_3  and  C_21
    3  A    between atoms: N_9  and  C_20
    4  A    between atoms: N_9  and  C_29
    5  A    between atoms: O_14  and  C_41
    6  A    between atoms: C_17  and  C_27
    7  A    between atoms: C_24  and  C_29
    8  A    between atoms: C_27  and  C_41
                            x       y       z     vdW  Elec       q    Type
                         _______ _______ _______ _____ _____    ______ ____

>  <TORSDO>
F 8

$$$$
=
 OpenBabel10222420373D

 41 46  0  0  1  0  0  0  0  0999 V2000
  184.7300  176.9040  136.0010 O   0  0  0  0  0  0  0  0  0  0  0  0
  181.2010  177.4460  136.8390 N   0  0  0  0  0  0  0  0  0  0  0  0
  184.1930  178.5670  141.3770 C   0  0  0  0  0  3  0  0  0  0  0  0
  186.8950  175.7380  136.5310 C   0  0  1  0  0  3  0  0  0  0  0  0
  186.5990  178.9120  136.8820 C   0  0  0  0  0  2  0  0  0  0  0  0
  187.1900  176.5740  137.7850 C   0  0  1  0  0  3  0  0  0  0  0  0
  187.1160  174.3270  136.8140 N   0  0  0  0  0  0  0  0  0  0  0  0
  182.2360  177.0960  135.9420 C   0  0  0  0  0  0  0  0  0  0  0  0
  184.8940  174.5820  136.4290 N   0  0  0  0  0  0  0  0  0  0  0  0
  188.6790  176.8230  138.0470 C   0  0  2  0  0  3  0  0  0  0  0  0
  185.5790  178.6790  141.3680 C   0  0  0  0  0  0  0  0  0  0  0  0
  183.5170  178.2070  140.2160 C   0  0  0  0  0  3  0  0  0  0  0  0
  185.4360  175.7440  136.2890 C   0  0  0  0  0  0  0  0  0  0  0  0
  185.9750  173.7150  136.7480 C   0  0  0  0  0  3  0  0  0  0  0  0
  186.4140  177.8240  137.8440 N   0  0  0  0  0  0  0  0  0  0  0  0
  184.1860  177.9450  139.0060 C   0  0  0  0  0  0  0  0  0  0  0  0
  182.0480  176.7580  134.7460 O   0  0  0  0  0  0  0  0  0  0  0  0
  188.8710  178.4250  136.0120 C   0  0  0  0  0  2  0  0  0  0  0  0
  185.6140  178.0620  139.0030 C   0  0  0  0  0  0  0  0  0  0  0  0
  186.2850  178.4290  140.1880 C   0  0  0  0  0  0  0  0  0  0  0  0
  187.6340  178.5740  140.1850 F   0  0  0  0  0  0  0  0  0  0  0  0
  183.2780  177.6150  137.8510 C   0  0  0  0  0  0  0  0  0  0  0  0
  181.8020  177.7480  137.9490 C   0  0  0  0  0  3  0  0  0  0  0  0
  183.5160  177.1920  136.6030 C   0  0  0  0  0  0  0  0  0  0  0  0
  188.0450  179.3900  136.8460 C   0  0  0  0  0  2  0  0  0  0  0  0
  189.4860  177.2770  136.8190 C   0  0  0  0  0  2  0  0  0  0  0  0
  186.2840  179.0670  142.5510 N   0  0  0  0  0  2  0  0  0  0  0  0
  185.7320  178.9530  143.7830 O   0  0  0  0  0  0  0  0  0  0  0  0
  186.4720  177.9580  144.4280 C   0  0  0  0  0  2  0  0  0  0  0  0
  187.9200  177.9770  143.9490 C   0  0  0  0  0  2  0  0  0  0  0  0
  190.6280  176.6410  147.0020 C   0  0  0  0  0  3  0  0  0  0  0  0
  190.2300  177.4820  144.7650 C   0  0  0  0  0  3  0  0  0  0  0  0
  188.3690  177.1270  146.2750 C   0  0  0  0  0  3  0  0  0  0  0  0
  188.8550  177.5250  145.0220 C   0  0  0  0  0  0  0  0  0  0  0  0
  191.1160  177.0430  145.7550 C   0  0  0  0  0  3  0  0  0  0  0  0
  189.2540  176.6840  147.2630 C   0  0  0  0  0  3  0  0  0  0  0  0
  189.2910  175.6470  138.6380 N   0  0  0  0  0  2  0  0  0  0  0  0
  190.7120  175.7130  138.3400 C   0  0  0  0  0  2  0  0  0  0  0  0
  192.4920  174.1180  137.6260 O   0  0  0  0  0  1  0  0  0  0  0  0
  190.2870  173.6860  137.1700 O   0  0  0  0  0  0  0  0  0  0  0  0
  191.1450  174.4520  137.6780 C   0  0  0  0  0  0  0  0  0  0  0  0
  1 13  1  0  0  0  0
  1 24  1  0  0  0  0
  2 23  2  0  0  0  0
  4 13  1  1  0  0  0
  4  7  1  0  0  0  0
  4  6  1  0  0  0  0
  5 15  1  0  0  0  0
  6 15  1  6  0  0  0
  6 10  1  0  0  0  0
  8 24  1  0  0  0  0
  8  2  1  0  0  0  0
  9 14  1  0  0  0  0
 10 37  1  6  0  0  0
 11  3  1  0  0  0  0
 11 27  1  0  0  0  0
 12  3  2  0  0  0  0
 13  9  2  0  0  0  0
 14  7  2  0  0  0  0
 15 19  1  0  0  0  0
 16 12  1  0  0  0  0
 17  8  2  0  0  0  0
 18 26  1  0  0  0  0
 18 25  1  0  0  0  0
 19 16  2  0  0  0  0
 19 20  1  0  0  0  0
 20 11  2  0  0  0  0
 21 20  1  0  0  0  0
 22 23  1  0  0  0  0
 22 16  1  0  0  0  0
 24 22  2  0  0  0  0
 25  5  1  0  0  0  0
 26 10  1  0  0  0  0
 27 28  1  0  0  0  0
 28 29  1  0  0  0  0
 30 29  1  0  0  0  0
 30 34  1  0  0  0  0
 31 36  1  0  0  0  0
 32 34  2  0  0  0  0
 32 35  1  0  0  0  0
 33 36  2  0  0  0  0
 34 33  1  0  0  0  0
 35 31  2  0  0  0  0
 38 37  1  0  0  0  0
 39 41  1  0  0  0  0
 40 41  2  0  0  0  0
 41 38  1  0  0  0  0
M  END
>  <MODEL>
8

>  <REMARK>
 VINA RESULT:      -6.4      1.809      2.438
  Name = 
  8 active torsions:
  status: ('A' for Active; 'I' for Inactive)
    1  A    between atoms: N_3  and  O_14
    2  A    between atoms: N_3  and  C_21
    3  A    between atoms: N_9  and  C_20
    4  A    between atoms: N_9  and  C_29
    5  A    between atoms: O_14  and  C_41
    6  A    between atoms: C_17  and  C_27
    7  A    between atoms: C_24  and  C_29
    8  A    between atoms: C_27  and  C_41
                            x       y       z     vdW  Elec       q    Type
                         _______ _______ _______ _____ _____    ______ ____

>  <TORSDO>
F 8

$$$$
=
 OpenBabel10222420373D

 41 46  0  0  1  0  0  0  0  0999 V2000
  181.2040  176.0740  136.5970 O   0  0  0  0  0  0  0  0  0  0  0  0
  183.1710  173.4160  135.0110 N   0  0  0  0  0  0  0  0  0  0  0  0
  186.7270  176.8790  137.4930 C   0  0  0  0  0  3  0  0  0  0  0  0
  180.7580  178.5360  136.8520 C   0  0  1  0  0  3  0  0  0  0  0  0
  181.9410  176.8110  139.2830 C   0  0  0  0  0  2  0  0  0  0  0  0
  182.0290  178.8150  137.6690 C   0  0  1  0  0  3  0  0  0  0  0  0
  180.6100  179.5410  135.8090 N   0  0  0  0  0  0  0  0  0  0  0  0
  181.9470  174.0430  135.3390 C   0  0  0  0  0  0  0  0  0  0  0  0
  180.9860  177.5600  134.7680 N   0  0  0  0  0  0  0  0  0  0  0  0
  181.8820  179.9270  138.7130 C   0  0  2  0  0  3  0  0  0  0  0  0
  186.3280  177.8790  138.3740 C   0  0  0  0  0  0  0  0  0  0  0  0
  185.7720  176.0990  136.8480 C   0  0  0  0  0  3  0  0  0  0  0  0
  180.9750  177.3230  136.0360 C   0  0  0  0  0  0  0  0  0  0  0  0
  180.7440  178.9570  134.6600 C   0  0  0  0  0  3  0  0  0  0  0  0
  182.6190  177.6000  138.2540 N   0  0  0  0  0  0  0  0  0  0  0  0
  184.3920  176.2800  137.0520 C   0  0  0  0  0  0  0  0  0  0  0  0
  180.8180  173.6120  134.9910 O   0  0  0  0  0  0  0  0  0  0  0  0
  180.3360  178.4650  140.2020 C   0  0  0  0  0  2  0  0  0  0  0  0
  183.9870  177.3110  137.9590 C   0  0  0  0  0  0  0  0  0  0  0  0
  184.9670  178.0930  138.6060 C   0  0  0  0  0  0  0  0  0  0  0  0
  184.5940  179.0500  139.4920 F   0  0  0  0  0  0  0  0  0  0  0  0
  183.5200  175.3100  136.2990 C   0  0  0  0  0  0  0  0  0  0  0  0
  184.0860  174.1480  135.5660 C   0  0  0  0  0  3  0  0  0  0  0  0
  182.1950  175.2280  136.1250 C   0  0  0  0  0  0  0  0  0  0  0  0
  181.5890  177.6570  140.4990 C   0  0  0  0  0  2  0  0  0  0  0  0
  180.6170  179.8380  139.5820 C   0  0  0  0  0  2  0  0  0  0  0  0
  187.3010  178.6750  139.0570 N   0  0  0  0  0  2  0  0  0  0  0  0
  188.1060  178.1560  140.0150 O   0  0  0  0  0  0  0  0  0  0  0  0
  187.5850  178.6210  141.2260 C   0  0  0  0  0  2  0  0  0  0  0  0
  187.6640  177.5330  142.2910 C   0  0  0  0  0  2  0  0  0  0  0  0
  191.6780  176.9390  143.6970 C   0  0  0  0  0  3  0  0  0  0  0  0
  189.5960  176.0440  142.8380 C   0  0  0  0  0  3  0  0  0  0  0  0
  189.8470  178.4320  143.1620 C   0  0  0  0  0  3  0  0  0  0  0  0
  189.0660  177.3370  142.7680 C   0  0  0  0  0  0  0  0  0  0  0  0
  190.9020  175.8450  143.3000 C   0  0  0  0  0  3  0  0  0  0  0  0
  191.1510  178.2330  143.6270 C   0  0  0  0  0  3  0  0  0  0  0  0
  181.9580  181.2300  138.0750 N   0  0  0  0  0  2  0  0  0  0  0  0
  180.7090  181.9160  138.3640 C   0  0  0  0  0  2  0  0  0  0  0  0
  180.9040  183.0260  136.1390 O   0  0  0  0  0  0  0  0  0  0  0  0
  180.1700  184.1990  137.9670 O   0  0  0  0  0  1  0  0  0  0  0  0
  180.5800  183.1120  137.4870 C   0  0  0  0  0  0  0  0  0  0  0  0
  2  8  1  0  0  0  0
  2 23  2  0  0  0  0
  3 11  1  0  0  0  0
  4  7  1  6  0  0  0
  4  6  1  0  0  0  0
  5 25  1  0  0  0  0
  6 15  1  1  0  0  0
  6 10  1  0  0  0  0
  8 24  1  0  0  0  0
  9 13  2  0  0  0  0
 10 37  1  6  0  0  0
 10 26  1  0  0  0  0
 11 20  2  0  0  0  0
 11 27  1  0  0  0  0
 12 16  1  0  0  0  0
 12  3  2  0  0  0  0
 13  1  1  0  0  0  0
 13  4  1  0  0  0  0
 14  9  1  0  0  0  0
 14  7  2  0  0  0  0
 15  5  1  0  0  0  0
 16 19  2  0  0  0  0
 17  8  2  0  0  0  0
 18 25  1  0  0  0  0
 19 15  1  0  0  0  0
 19 20  1  0  0  0  0
 20 21  1  0  0  0  0
 22 16  1  0  0  0  0
 23 22  1  0  0  0  0
 24 22  2  0  0  0  0
 24  1  1  0  0  0  0
 26 18  1  0  0  0  0
 27 28  1  0  0  0  0
 28 29  1  0  0  0  0
 29 30  1  0  0  0  0
 30 34  1  0  0  0  0
 32 35  1  0  0  0  0
 33 36  2  0  0  0  0
 34 32  2  0  0  0  0
 34 33  1  0  0  0  0
 35 31  2  0  0  0  0
 36 31  1  0  0  0  0
 37 38  1  0  0  0  0
 39 41  2  0  0  0  0
 41 40  1  0  0  0  0
 41 38  1  0  0  0  0
M  END
>  <MODEL>
9

>  <REMARK>
 VINA RESULT:      -6.3      3.347      7.245
  Name = 
  8 active torsions:
  status: ('A' for Active; 'I' for Inactive)
    1  A    between atoms: N_3  and  O_14
    2  A    between atoms: N_3  and  C_21
    3  A    between atoms: N_9  and  C_20
    4  A    between atoms: N_9  and  C_29
    5  A    between atoms: O_14  and  C_41
    6  A    between atoms: C_17  and  C_27
    7  A    between atoms: C_24  and  C_29
    8  A    between atoms: C_27  and  C_41
                            x       y       z     vdW  Elec       q    Type
                         _______ _______ _______ _____ _____    ______ ____

>  <TORSDO>
F 8

$$$$
