=
 OpenBabel10222417263D

 28 33  0  0  1  0  0  0  0  0999 V2000
  189.1770  177.8590  147.9600 C   0  0  0  0  0  3  0  0  0  0  0  0
  190.7280  176.7350  145.4760 C   0  0  0  0  0  3  0  0  0  0  0  0
  188.3210  177.5020  140.8400 C   0  0  0  0  0  3  0  0  0  0  0  0
  188.3050  178.0120  146.9720 C   0  0  0  0  0  3  0  0  0  0  0  0
  183.0790  179.7400  143.5080 O   0  0  0  0  0  0  0  0  0  0  0  0
  184.2550  178.3160  146.4790 C   0  0  0  0  0  3  0  0  0  0  0  0
  185.5180  179.1130  142.4990 C   0  0  0  0  0  3  0  0  0  0  0  0
  188.0720  177.4870  143.3640 C   0  0  2  0  0  3  0  0  0  0  0  0
  187.5980  177.7640  142.1300 C   0  0  0  0  0  0  0  0  0  0  0  0
  189.5530  177.0780  144.9320 C   0  0  0  0  0  0  0  0  0  0  0  0
  186.6360  178.9830  140.4090 N   0  0  0  0  0  0  0  0  0  0  0  0
  185.1800  178.8290  143.9020 C   0  0  0  0  0  0  0  0  0  0  0  0
  187.4830  177.8610  144.5740 C   0  0  0  0  0  0  0  0  0  0  0  0
  183.8740  179.1820  144.3110 C   0  0  0  0  0  0  0  0  0  0  0  0
  187.7300  178.3540  139.7990 N   0  0  0  0  0  0  0  0  0  0  0  0
  188.4560  177.6350  145.5580 C   0  0  0  0  0  0  0  0  0  0  0  0
  186.0590  178.2400  144.8460 C   0  0  0  0  0  0  0  0  0  0  0  0
  190.5200  177.2800  147.9050 C   0  0  0  0  0  3  0  0  0  0  0  0
  185.5550  177.9750  146.1300 C   0  0  0  0  0  2  0  0  0  0  0  0
  189.2920  176.9220  143.6090 N   0  0  0  0  0  0  0  0  0  0  0  0
  191.2100  176.7980  146.8640 C   0  0  0  0  0  0  0  0  0  0  0  0
  186.5270  178.6590  141.7750 C   0  0  0  0  0  0  0  0  0  0  0  0
  183.4510  178.9160  145.5720 N   0  0  0  0  0  0  0  0  0  0  0  0
  191.2200  177.3500  142.0970 C   0  0  0  0  0  2  0  0  0  0  0  0
  190.2150  176.3300  142.6220 C   0  0  0  0  0  3  0  0  0  0  0  0
  191.6410  176.3730  143.1600 C   0  0  0  0  0  2  0  0  0  0  0  0
  192.8990  175.6480  148.2840 C   0  0  0  0  0  1  0  0  0  0  0  0
  192.4980  176.2860  147.0750 O   0  0  0  0  0  0  0  0  0  0  0  0
  2 21  1  0  0  0  0
  3  9  2  0  0  0  0
  4  1  2  0  0  0  0
  5 14  2  0  0  0  0
  7 12  1  0  0  0  0
  8  9  1  6  0  0  0
  8 20  1  0  0  0  0
  8 13  1  0  0  0  0
 10  2  2  0  0  0  0
 10 16  1  0  0  0  0
 11 22  1  0  0  0  0
 12 14  1  0  0  0  0
 12 17  2  0  0  0  0
 13 17  1  0  0  0  0
 13 16  2  0  0  0  0
 14 23  1  0  0  0  0
 15 11  2  0  0  0  0
 15  3  1  0  0  0  0
 16  4  1  0  0  0  0
 17 19  1  0  0  0  0
 18  1  1  0  0  0  0
 19  6  1  0  0  0  0
 20 10  1  0  0  0  0
 21 28  1  0  0  0  0
 21 18  2  0  0  0  0
 22  9  1  0  0  0  0
 22  7  2  0  0  0  0
 23  6  2  0  0  0  0
 24 25  1  0  0  0  0
 24 26  1  0  0  0  0
 25 26  1  0  0  0  0
 25 20  1  0  0  0  0
 28 27  1  0  0  0  0
M  END
>  <MODEL>
1

>  <REMARK>
 VINA RESULT:     -11.2      0.000      0.000
  Name = 
  2 active torsions:
  status: ('A' for Active; 'I' for Inactive)
    1  A    between atoms: C_15  and  N_24
    2  A    between atoms: C_25  and  O_26
                            x       y       z     vdW  Elec       q    Type
                         _______ _______ _______ _____ _____    ______ ____

>  <TORSDO>
F 2

$$$$
=
 OpenBabel10222417263D

 28 33  0  0  0  0  0  0  0  0999 V2000
  191.1890  176.0280  143.2180 C   0  0  0  0  0  3  0  0  0  0  0  0
  190.3170  176.9600  146.0850 C   0  0  0  0  0  3  0  0  0  0  0  0
  185.4090  178.8830  146.3800 C   0  0  0  0  0  3  0  0  0  0  0  0
  190.0220  176.6190  142.9960 C   0  0  0  0  0  3  0  0  0  0  0  0
  184.5810  178.7510  140.1430 O   0  0  0  0  0  0  0  0  0  0  0  0
  188.0600  178.4620  139.9150 C   0  0  0  0  0  3  0  0  0  0  0  0
  184.9460  178.4010  142.8090 C   0  0  0  0  0  3  0  0  0  0  0  0
  187.3350  178.2530  144.8540 C   0  0  0  0  0  0  0  0  0  0  0  0
  186.0500  178.6260  145.0470 C   0  0  0  0  0  0  0  0  0  0  0  0
  189.3030  177.4050  145.3310 C   0  0  0  0  0  0  0  0  0  0  0  0
  183.7410  178.6030  144.8440 N   0  0  0  0  0  0  0  0  0  0  0  0
  186.0820  178.3740  141.8760 C   0  0  0  0  0  0  0  0  0  0  0  0
  187.9040  177.8630  143.6410 C   0  0  0  0  0  0  0  0  0  0  0  0
  185.7740  178.5870  140.5120 C   0  0  0  0  0  0  0  0  0  0  0  0
  183.9520  178.7800  146.2180 N   0  0  0  0  0  0  0  0  0  0  0  0
  189.1390  177.2840  143.9660 C   0  0  0  0  0  0  0  0  0  0  0  0
  187.4330  178.1520  142.2480 C   0  0  0  0  0  0  0  0  0  0  0  0
  191.9030  175.8770  144.4870 C   0  0  0  0  0  3  0  0  0  0  0  0
  188.4070  178.2250  141.2390 C   0  0  0  0  0  3  0  0  0  0  0  0
  188.2370  178.0580  145.8620 N   0  0  0  0  0  0  0  0  0  0  0  0
  191.5570  176.2570  145.7230 C   0  0  0  0  0  0  0  0  0  0  0  0
  184.9490  178.5100  144.1260 C   0  0  0  0  0  0  0  0  0  0  0  0
  186.7590  178.6280  139.5810 N   0  0  0  0  0  0  0  0  0  0  0  0
  187.9330  177.1580  148.1600 C   0  0  0  0  0  2  0  0  0  0  0  0
  188.0700  178.4020  147.2870 C   0  0  0  0  0  3  0  0  0  0  0  0
  189.2560  177.8710  148.0860 C   0  0  0  0  0  2  0  0  0  0  0  0
  192.0470  175.2770  147.9580 C   0  0  0  0  0  1  0  0  0  0  0  0
  192.4310  175.9960  146.7890 O   0  0  0  0  0  0  0  0  0  0  0  0
  1 18  1  0  0  0  0
  4  1  2  0  0  0  0
  4 16  1  0  0  0  0
  5 14  2  0  0  0  0
  6 19  1  0  0  0  0
  7 22  1  0  0  0  0
  8  9  2  0  0  0  0
  8 20  1  0  0  0  0
  9  3  1  0  0  0  0
 10 20  1  0  0  0  0
 10  2  2  0  0  0  0
 11 15  1  0  0  0  0
 12 17  1  0  0  0  0
 12  7  2  0  0  0  0
 13 16  2  0  0  0  0
 13  8  1  0  0  0  0
 14 12  1  0  0  0  0
 15  3  2  0  0  0  0
 16 10  1  0  0  0  0
 17 13  1  0  0  0  0
 18 21  2  0  0  0  0
 19 17  2  0  0  0  0
 20 25  1  0  0  0  0
 21  2  1  0  0  0  0
 21 28  1  0  0  0  0
 22 11  2  0  0  0  0
 22  9  1  0  0  0  0
 23  6  2  0  0  0  0
 23 14  1  0  0  0  0
 25 26  1  0  0  0  0
 25 24  1  0  0  0  0
 26 24  1  0  0  0  0
 28 27  1  0  0  0  0
M  END
>  <MODEL>
2

>  <REMARK>
 VINA RESULT:     -10.4      1.222      4.327
  Name = 
  2 active torsions:
  status: ('A' for Active; 'I' for Inactive)
    1  A    between atoms: C_15  and  N_24
    2  A    between atoms: C_25  and  O_26
                            x       y       z     vdW  Elec       q    Type
                         _______ _______ _______ _____ _____    ______ ____

>  <TORSDO>
F 2

$$$$
=
 OpenBabel10222417263D

 28 33  0  0  0  0  0  0  0  0999 V2000
  189.7790  177.8880  140.1960 C   0  0  0  0  0  3  0  0  0  0  0  0
  186.7160  178.2340  140.7810 C   0  0  0  0  0  3  0  0  0  0  0  0
  185.4420  178.2790  145.9050 C   0  0  0  0  0  3  0  0  0  0  0  0
  189.7030  177.6900  141.5060 C   0  0  0  0  0  2  0  0  0  0  0  0
  191.2650  176.7640  147.7510 O   0  0  0  0  0  0  0  0  0  0  0  0
  191.8110  175.7720  144.4410 C   0  0  0  0  0  3  0  0  0  0  0  0
  188.9180  177.7690  146.8310 C   0  0  0  0  0  3  0  0  0  0  0  0
  187.2170  177.7180  144.1820 C   0  0  0  0  0  0  0  0  0  0  0  0
  186.8210  177.8810  145.4630 C   0  0  0  0  0  0  0  0  0  0  0  0
  187.1970  177.9500  141.9990 C   0  0  0  0  0  0  0  0  0  0  0  0
  186.8640  178.6230  147.6590 N   0  0  0  0  0  0  0  0  0  0  0  0
  189.8760  177.1220  145.9220 C   0  0  0  0  0  0  0  0  0  0  0  0
  188.5260  177.5000  143.7470 C   0  0  0  0  0  0  0  0  0  0  0  0
  191.0560  176.6190  146.5160 C   0  0  0  0  0  0  0  0  0  0  0  0
  185.5310  178.8150  147.2700 N   0  0  0  0  0  0  0  0  0  0  0  0
  188.5060  177.6950  142.3590 C   0  0  0  0  0  0  0  0  0  0  0  0
  189.6960  176.9750  144.5230 C   0  0  0  0  0  0  0  0  0  0  0  0
  188.6930  178.1690  139.2550 C   0  0  0  0  0  3  0  0  0  0  0  0
  190.6790  176.2700  143.8090 C   0  0  0  0  0  2  0  0  0  0  0  0
  186.4030  177.8940  143.0980 N   0  0  0  0  0  0  0  0  0  0  0  0
  187.3820  178.3270  139.4730 C   0  0  0  0  0  0  0  0  0  0  0  0
  187.6480  178.0760  146.6260 C   0  0  0  0  0  0  0  0  0  0  0  0
  191.9780  175.9620  145.7700 N   0  0  0  0  0  0  0  0  0  0  0  0
  184.5540  179.5430  143.3160 C   0  0  0  0  0  2  0  0  0  0  0  0
  184.9390  178.0820  143.1040 C   0  0  0  0  0  3  0  0  0  0  0  0
  184.5300  178.9630  141.9280 C   0  0  0  0  0  2  0  0  0  0  0  0
  185.1610  178.2130  138.3560 C   0  0  0  0  0  1  0  0  0  0  0  0
  186.5350  178.5900  138.3870 O   0  0  0  0  0  0  0  0  0  0  0  0
  1  4  1  0  0  0  0
  2 10  1  0  0  0  0
  3 15  1  0  0  0  0
  4 16  1  0  0  0  0
  6 23  2  0  0  0  0
  8  9  1  0  0  0  0
  9  3  2  0  0  0  0
  9 22  1  0  0  0  0
 10 16  2  0  0  0  0
 10 20  1  0  0  0  0
 12 14  1  0  0  0  0
 12  7  1  0  0  0  0
 13  8  2  0  0  0  0
 13 17  1  0  0  0  0
 14  5  2  0  0  0  0
 15 11  2  0  0  0  0
 16 13  1  0  0  0  0
 17 12  2  0  0  0  0
 18 21  1  0  0  0  0
 18  1  2  0  0  0  0
 19  6  1  0  0  0  0
 19 17  1  0  0  0  0
 20 25  1  0  0  0  0
 20  8  1  0  0  0  0
 21  2  2  0  0  0  0
 22  7  2  0  0  0  0
 22 11  1  0  0  0  0
 23 14  1  0  0  0  0
 25 24  1  0  0  0  0
 26 25  1  0  0  0  0
 26 24  1  0  0  0  0
 27 28  1  0  0  0  0
 28 21  1  0  0  0  0
M  END
>  <MODEL>
3

>  <REMARK>
 VINA RESULT:     -10.3      2.117      6.932
  Name = 
  2 active torsions:
  status: ('A' for Active; 'I' for Inactive)
    1  A    between atoms: C_15  and  N_24
    2  A    between atoms: C_25  and  O_26
                            x       y       z     vdW  Elec       q    Type
                         _______ _______ _______ _____ _____    ______ ____

>  <TORSDO>
F 2

$$$$
=
 OpenBabel10222417263D

 28 33  0  0  0  0  0  0  0  0999 V2000
  185.1010  178.9990  146.1140 C   0  0  0  0  0  3  0  0  0  0  0  0
  187.9090  177.5970  146.1170 C   0  0  0  0  0  3  0  0  0  0  0  0
  190.0890  177.0200  141.3430 C   0  0  0  0  0  3  0  0  0  0  0  0
  185.3420  178.8160  144.8230 C   0  0  0  0  0  3  0  0  0  0  0  0
  184.9370  179.0250  138.3350 O   0  0  0  0  0  0  0  0  0  0  0  0
  183.2350  178.4430  141.3360 C   0  0  0  0  0  3  0  0  0  0  0  0
  187.1870  178.5410  139.7720 C   0  0  0  0  0  3  0  0  0  0  0  0
  187.9660  177.5070  142.6430 C   0  0  0  0  0  0  0  0  0  0  0  0
  188.6560  177.4460  141.4830 C   0  0  0  0  0  0  0  0  0  0  0  0
  187.6300  177.6510  144.8070 C   0  0  0  0  0  0  0  0  0  0  0  0
  189.5000  178.1260  139.4330 N   0  0  0  0  0  0  0  0  0  0  0  0
  185.8610  178.5190  140.4070 C   0  0  0  0  0  0  0  0  0  0  0  0
  186.6880  178.0440  142.8120 C   0  0  0  0  0  0  0  0  0  0  0  0
  184.7590  178.7660  139.5560 C   0  0  0  0  0  0  0  0  0  0  0  0
  190.6030  177.5400  140.0680 N   0  0  0  0  0  0  0  0  0  0  0  0
  186.5060  178.1710  144.1960 C   0  0  0  0  0  0  0  0  0  0  0  0
  185.6220  178.2710  141.7830 C   0  0  0  0  0  0  0  0  0  0  0  0
  185.9320  178.6130  147.2570 C   0  0  0  0  0  3  0  0  0  0  0  0
  184.2870  178.2180  142.2140 C   0  0  0  0  0  3  0  0  0  0  0  0
  188.4870  177.1830  143.8640 N   0  0  0  0  0  0  0  0  0  0  0  0
  187.1310  178.0210  147.2910 C   0  0  0  0  0  0  0  0  0  0  0  0
  188.3410  178.0880  140.2320 C   0  0  0  0  0  0  0  0  0  0  0  0
  183.4920  178.7180  140.0360 N   0  0  0  0  0  0  0  0  0  0  0  0
  190.9140  177.5390  144.2720 C   0  0  0  0  0  2  0  0  0  0  0  0
  189.7800  176.5270  144.1350 C   0  0  0  0  0  3  0  0  0  0  0  0
  190.2920  176.9500  145.5080 C   0  0  0  0  0  2  0  0  0  0  0  0
  189.0220  178.2130  148.8980 C   0  0  0  0  0  1  0  0  0  0  0  0
  187.7250  177.7500  148.5320 O   0  0  0  0  0  0  0  0  0  0  0  0
  1 18  1  0  0  0  0
  2 21  1  0  0  0  0
  3  9  1  0  0  0  0
  4  1  2  0  0  0  0
  5 14  2  0  0  0  0
  6 19  1  0  0  0  0
  7 22  1  0  0  0  0
  7 12  2  0  0  0  0
  8 13  1  0  0  0  0
  8 20  1  0  0  0  0
  9  8  2  0  0  0  0
 10  2  2  0  0  0  0
 11 15  1  0  0  0  0
 11 22  2  0  0  0  0
 12 17  1  0  0  0  0
 13 16  2  0  0  0  0
 14 23  1  0  0  0  0
 14 12  1  0  0  0  0
 15  3  2  0  0  0  0
 16 10  1  0  0  0  0
 16  4  1  0  0  0  0
 17 19  2  0  0  0  0
 17 13  1  0  0  0  0
 18 21  2  0  0  0  0
 20 25  1  0  0  0  0
 20 10  1  0  0  0  0
 21 28  1  0  0  0  0
 22  9  1  0  0  0  0
 23  6  2  0  0  0  0
 24 26  1  0  0  0  0
 25 24  1  0  0  0  0
 25 26  1  0  0  0  0
 28 27  1  0  0  0  0
M  END
>  <MODEL>
4

>  <REMARK>
 VINA RESULT:     -10.1      2.291      3.574
  Name = 
  2 active torsions:
  status: ('A' for Active; 'I' for Inactive)
    1  A    between atoms: C_15  and  N_24
    2  A    between atoms: C_25  and  O_26
                            x       y       z     vdW  Elec       q    Type
                         _______ _______ _______ _____ _____    ______ ____

>  <TORSDO>
F 2

$$$$
=
 OpenBabel10222417263D

 28 33  0  0  0  0  0  0  0  0999 V2000
  185.1050  179.0350  141.0920 C   0  0  0  0  0  3  0  0  0  0  0  0
  184.9750  178.2220  144.1200 C   0  0  0  0  0  3  0  0  0  0  0  0
  189.6450  177.0630  146.2940 C   0  0  0  0  0  3  0  0  0  0  0  0
  186.3430  178.6290  141.3430 C   0  0  0  0  0  3  0  0  0  0  0  0
  192.7010  177.3710  140.8010 O   0  0  0  0  0  0  0  0  0  0  0  0
  189.5520  177.1310  139.2950 C   0  0  0  0  0  3  0  0  0  0  0  0
  191.3260  177.6390  143.1250 C   0  0  0  0  0  3  0  0  0  0  0  0
  188.3540  177.4070  144.1380 C   0  0  0  0  0  0  0  0  0  0  0  0
  189.5140  177.2320  144.8070 C   0  0  0  0  0  0  0  0  0  0  0  0
  186.2500  177.9420  143.8150 C   0  0  0  0  0  0  0  0  0  0  0  0
  191.7050  177.6060  145.4680 N   0  0  0  0  0  0  0  0  0  0  0  0
  190.6260  177.5020  141.8390 C   0  0  0  0  0  0  0  0  0  0  0  0
  188.2260  177.7160  142.7820 C   0  0  0  0  0  0  0  0  0  0  0  0
  191.4450  177.3500  140.6970 C   0  0  0  0  0  0  0  0  0  0  0  0
  191.0270  177.3880  146.6750 N   0  0  0  0  0  0  0  0  0  0  0  0
  186.8890  178.0980  142.6010 C   0  0  0  0  0  0  0  0  0  0  0  0
  189.2170  177.5130  141.6760 C   0  0  0  0  0  0  0  0  0  0  0  0
  183.9570  179.0650  142.0000 C   0  0  0  0  0  3  0  0  0  0  0  0
  188.7080  177.3010  140.3840 C   0  0  0  0  0  3  0  0  0  0  0  0
  187.1240  177.4540  144.7320 N   0  0  0  0  0  0  0  0  0  0  0  0
  183.8710  178.7320  143.2930 C   0  0  0  0  0  0  0  0  0  0  0  0
  190.8500  177.5210  144.3520 C   0  0  0  0  0  0  0  0  0  0  0  0
  190.8930  177.1670  139.4710 N   0  0  0  0  0  0  0  0  0  0  0  0
  186.9970  178.3250  147.0570 C   0  0  0  0  0  2  0  0  0  0  0  0
  186.7980  177.1280  146.1330 C   0  0  0  0  0  3  0  0  0  0  0  0
  185.6120  177.9680  146.5930 C   0  0  0  0  0  2  0  0  0  0  0  0
  181.3970  179.0030  143.2630 C   0  0  0  0  0  1  0  0  0  0  0  0
  182.6360  178.8480  143.9480 O   0  0  0  0  0  0  0  0  0  0  0  0
  1  4  2  0  0  0  0
  1 18  1  0  0  0  0
  3 15  2  0  0  0  0
  4 16  1  0  0  0  0
  6 23  2  0  0  0  0
  6 19  1  0  0  0  0
  7 22  1  0  0  0  0
  8 20  1  0  0  0  0
  8  9  2  0  0  0  0
  9  3  1  0  0  0  0
 10  2  2  0  0  0  0
 10 20  1  0  0  0  0
 11 15  1  0  0  0  0
 12  7  2  0  0  0  0
 13  8  1  0  0  0  0
 14  5  2  0  0  0  0
 14 12  1  0  0  0  0
 16 13  2  0  0  0  0
 16 10  1  0  0  0  0
 17 12  1  0  0  0  0
 17 13  1  0  0  0  0
 18 21  2  0  0  0  0
 19 17  2  0  0  0  0
 20 25  1  0  0  0  0
 21 28  1  0  0  0  0
 21  2  1  0  0  0  0
 22  9  1  0  0  0  0
 22 11  2  0  0  0  0
 23 14  1  0  0  0  0
 25 26  1  0  0  0  0
 25 24  1  0  0  0  0
 26 24  1  0  0  0  0
 27 28  1  0  0  0  0
M  END
>  <MODEL>
5

>  <REMARK>
 VINA RESULT:      -9.9      2.266      7.070
  Name = 
  2 active torsions:
  status: ('A' for Active; 'I' for Inactive)
    1  A    between atoms: C_15  and  N_24
    2  A    between atoms: C_25  and  O_26
                            x       y       z     vdW  Elec       q    Type
                         _______ _______ _______ _____ _____    ______ ____

>  <TORSDO>
F 2

$$$$
=
 OpenBabel10222417263D

 28 33  0  0  0  0  0  0  0  0999 V2000
  183.5120  178.4160  142.3510 C   0  0  0  0  0  3  0  0  0  0  0  0
  185.8140  178.6120  140.2280 C   0  0  0  0  0  3  0  0  0  0  0  0
  190.6250  177.4730  142.0820 C   0  0  0  0  0  3  0  0  0  0  0  0
  184.6060  178.2660  143.0860 C   0  0  0  0  0  2  0  0  0  0  0  0
  188.6490  177.1070  148.0460 O   0  0  0  0  0  0  0  0  0  0  0  0
  185.7900  178.8080  146.9640 C   0  0  0  0  0  3  0  0  0  0  0  0
  189.2750  176.9320  145.4120 C   0  0  0  0  0  3  0  0  0  0  0  0
  188.2300  178.0690  142.6670 C   0  0  0  0  0  0  0  0  0  0  0  0
  189.4680  177.6590  143.0210 C   0  0  0  0  0  0  0  0  0  0  0  0
  186.5030  178.4430  141.3650 C   0  0  0  0  0  0  0  0  0  0  0  0
  191.1110  176.3630  144.0190 N   0  0  0  0  0  0  0  0  0  0  0  0
  188.0270  177.5710  145.8560 C   0  0  0  0  0  0  0  0  0  0  0  0
  187.1070  178.1010  143.4960 C   0  0  0  0  0  0  0  0  0  0  0  0
  187.8160  177.6220  147.2530 C   0  0  0  0  0  0  0  0  0  0  0  0
  191.6020  176.5820  142.7250 N   0  0  0  0  0  0  0  0  0  0  0  0
  186.0090  178.2960  142.6460 C   0  0  0  0  0  0  0  0  0  0  0  0
  187.0460  178.1260  144.9940 C   0  0  0  0  0  0  0  0  0  0  0  0
  183.4110  178.6460  140.9080 C   0  0  0  0  0  3  0  0  0  0  0  0
  185.9420  178.7610  145.5850 C   0  0  0  0  0  2  0  0  0  0  0  0
  187.8590  178.3760  141.3890 N   0  0  0  0  0  0  0  0  0  0  0  0
  184.3700  178.7290  139.9790 C   0  0  0  0  0  0  0  0  0  0  0  0
  189.8630  176.9800  144.2290 C   0  0  0  0  0  0  0  0  0  0  0  0
  186.7190  178.2340  147.7630 N   0  0  0  0  0  0  0  0  0  0  0  0
  189.0000  177.1840  139.5280 C   0  0  0  0  0  2  0  0  0  0  0  0
  188.7410  178.5220  140.2150 C   0  0  0  0  0  3  0  0  0  0  0  0
  187.9830  178.1310  138.9510 C   0  0  0  0  0  2  0  0  0  0  0  0
  182.9840  178.2380  137.9700 C   0  0  0  0  0  1  0  0  0  0  0  0
  184.0090  178.9630  138.6440 O   0  0  0  0  0  0  0  0  0  0  0  0
  1  4  1  0  0  0  0
  2 10  1  0  0  0  0
  3 15  2  0  0  0  0
  3  9  1  0  0  0  0
  6 23  2  0  0  0  0
  7 12  2  0  0  0  0
  8  9  2  0  0  0  0
  8 13  1  0  0  0  0
  9 22  1  0  0  0  0
 10 20  1  0  0  0  0
 10 16  2  0  0  0  0
 11 22  2  0  0  0  0
 12 14  1  0  0  0  0
 13 17  2  0  0  0  0
 14 23  1  0  0  0  0
 14  5  2  0  0  0  0
 15 11  1  0  0  0  0
 16  4  1  0  0  0  0
 16 13  1  0  0  0  0
 17 19  1  0  0  0  0
 17 12  1  0  0  0  0
 18  1  2  0  0  0  0
 19  6  1  0  0  0  0
 20  8  1  0  0  0  0
 21  2  2  0  0  0  0
 21 18  1  0  0  0  0
 22  7  1  0  0  0  0
 24 25  1  0  0  0  0
 25 20  1  0  0  0  0
 26 24  1  0  0  0  0
 26 25  1  0  0  0  0
 27 28  1  0  0  0  0
 28 21  1  0  0  0  0
M  END
>  <MODEL>
6

>  <REMARK>
 VINA RESULT:      -9.7      2.229      6.159
  Name = 
  2 active torsions:
  status: ('A' for Active; 'I' for Inactive)
    1  A    between atoms: C_15  and  N_24
    2  A    between atoms: C_25  and  O_26
                            x       y       z     vdW  Elec       q    Type
                         _______ _______ _______ _____ _____    ______ ____

>  <TORSDO>
F 2

$$$$
=
 OpenBabel10222417263D

 28 33  0  0  0  0  0  0  0  0999 V2000
  181.5780  178.6230  144.1950 C   0  0  0  0  0  3  0  0  0  0  0  0
  182.5140  179.1640  141.2490 C   0  0  0  0  0  3  0  0  0  0  0  0
  187.6380  178.2530  140.3610 C   0  0  0  0  0  3  0  0  0  0  0  0
  182.8970  178.4990  144.2750 C   0  0  0  0  0  2  0  0  0  0  0  0
  188.9010  177.2590  146.4460 O   0  0  0  0  0  0  0  0  0  0  0  0
  185.8370  178.8160  147.1020 C   0  0  0  0  0  3  0  0  0  0  0  0
  188.1370  177.3440  143.8430 C   0  0  0  0  0  3  0  0  0  0  0  0
  185.8360  178.6150  142.1090 C   0  0  0  0  0  0  0  0  0  0  0  0
  187.0970  178.2740  141.7610 C   0  0  0  0  0  0  0  0  0  0  0  0
  183.6820  178.9580  141.8740 C   0  0  0  0  0  0  0  0  0  0  0  0
  189.0530  177.0320  141.6760 N   0  0  0  0  0  0  0  0  0  0  0  0
  187.2590  177.8480  144.9100 C   0  0  0  0  0  0  0  0  0  0  0  0
  185.2740  178.4940  143.3810 C   0  0  0  0  0  0  0  0  0  0  0  0
  187.7700  177.7700  146.2260 C   0  0  0  0  0  0  0  0  0  0  0  0
  188.8290  177.3920  140.3390 N   0  0  0  0  0  0  0  0  0  0  0  0
  183.8940  178.6710  143.2080 C   0  0  0  0  0  0  0  0  0  0  0  0
  185.9650  178.3930  144.7070 C   0  0  0  0  0  0  0  0  0  0  0  0
  180.7670  178.9590  143.0230 C   0  0  0  0  0  3  0  0  0  0  0  0
  185.2850  178.8920  145.8300 C   0  0  0  0  0  2  0  0  0  0  0  0
  184.8700  178.9940  141.2200 N   0  0  0  0  0  0  0  0  0  0  0  0
  181.1340  179.1900  141.7570 C   0  0  0  0  0  0  0  0  0  0  0  0
  188.0580  177.5330  142.5370 C   0  0  0  0  0  0  0  0  0  0  0  0
  187.0560  178.2530  147.2730 N   0  0  0  0  0  0  0  0  0  0  0  0
  184.5840  178.1520  138.8980 C   0  0  0  0  0  2  0  0  0  0  0  0
  185.0480  179.3010  139.7880 C   0  0  0  0  0  3  0  0  0  0  0  0
  183.6880  179.3430  139.0990 C   0  0  0  0  0  2  0  0  0  0  0  0
  180.0560  180.7710  140.1660 C   0  0  0  0  0  1  0  0  0  0  0  0
  180.1520  179.5020  140.8060 O   0  0  0  0  0  0  0  0  0  0  0  0
  1  4  1  0  0  0  0
  2 21  2  0  0  0  0
  2 10  1  0  0  0  0
  3  9  1  0  0  0  0
  6 23  2  0  0  0  0
  7 12  2  0  0  0  0
  8 13  1  0  0  0  0
  9  8  2  0  0  0  0
  9 22  1  0  0  0  0
 10 16  2  0  0  0  0
 11 22  2  0  0  0  0
 12 14  1  0  0  0  0
 13 17  2  0  0  0  0
 14  5  2  0  0  0  0
 14 23  1  0  0  0  0
 15  3  2  0  0  0  0
 15 11  1  0  0  0  0
 16 13  1  0  0  0  0
 16  4  1  0  0  0  0
 17 12  1  0  0  0  0
 17 19  1  0  0  0  0
 18  1  2  0  0  0  0
 19  6  1  0  0  0  0
 20 10  1  0  0  0  0
 20  8  1  0  0  0  0
 21 18  1  0  0  0  0
 22  7  1  0  0  0  0
 24 26  1  0  0  0  0
 24 25  1  0  0  0  0
 25 20  1  0  0  0  0
 26 25  1  0  0  0  0
 27 28  1  0  0  0  0
 28 21  1  0  0  0  0
M  END
>  <MODEL>
7

>  <REMARK>
 VINA RESULT:      -9.7      2.536      6.940
  Name = 
  2 active torsions:
  status: ('A' for Active; 'I' for Inactive)
    1  A    between atoms: C_15  and  N_24
    2  A    between atoms: C_25  and  O_26
                            x       y       z     vdW  Elec       q    Type
                         _______ _______ _______ _____ _____    ______ ____

>  <TORSDO>
F 2

$$$$
=
 OpenBabel10222417263D

 28 33  0  0  0  0  0  0  0  0999 V2000
  184.6090  178.1100  146.2380 C   0  0  0  0  0  3  0  0  0  0  0  0
  184.5470  178.9050  143.2030 C   0  0  0  0  0  3  0  0  0  0  0  0
  188.9280  177.6940  140.5160 C   0  0  0  0  0  3  0  0  0  0  0  0
  185.8540  177.8730  145.8440 C   0  0  0  0  0  2  0  0  0  0  0  0
  192.0550  175.9220  145.6820 O   0  0  0  0  0  0  0  0  0  0  0  0
  189.5940  177.6340  147.4840 C   0  0  0  0  0  3  0  0  0  0  0  0
  190.4710  176.3610  143.5240 C   0  0  0  0  0  3  0  0  0  0  0  0
  187.8790  177.9990  142.8060 C   0  0  0  0  0  0  0  0  0  0  0  0
  188.8990  177.6000  142.0150 C   0  0  0  0  0  0  0  0  0  0  0  0
  185.8250  178.5370  143.3640 C   0  0  0  0  0  0  0  0  0  0  0  0
  190.5560  176.2240  141.1560 N   0  0  0  0  0  0  0  0  0  0  0  0
  190.0690  176.8100  144.8660 C   0  0  0  0  0  0  0  0  0  0  0  0
  187.7700  177.7800  144.1800 C   0  0  0  0  0  0  0  0  0  0  0  0
  190.9830  176.5430  145.9110 C   0  0  0  0  0  0  0  0  0  0  0  0
  189.9350  176.7490  140.0140 N   0  0  0  0  0  0  0  0  0  0  0  0
  186.4430  178.0850  144.5130 C   0  0  0  0  0  0  0  0  0  0  0  0
  188.8540  177.4750  145.1700 C   0  0  0  0  0  0  0  0  0  0  0  0
  183.4930  178.6400  145.4520 C   0  0  0  0  0  3  0  0  0  0  0  0
  188.6560  177.8960  146.4950 C   0  0  0  0  0  2  0  0  0  0  0  0
  186.7180  178.5510  142.3420 N   0  0  0  0  0  0  0  0  0  0  0  0
  183.4330  178.9820  144.1600 C   0  0  0  0  0  0  0  0  0  0  0  0
  189.9760  176.7020  142.3460 C   0  0  0  0  0  0  0  0  0  0  0  0
  190.7260  176.9600  147.1750 N   0  0  0  0  0  0  0  0  0  0  0  0
  185.7730  177.9090  140.1330 C   0  0  0  0  0  2  0  0  0  0  0  0
  186.4340  179.0030  140.9660 C   0  0  0  0  0  3  0  0  0  0  0  0
  184.9280  179.0030  140.7270 C   0  0  0  0  0  2  0  0  0  0  0  0
  181.6290  178.9800  142.4460 C   0  0  0  0  0  1  0  0  0  0  0  0
  182.2290  179.4770  143.6390 O   0  0  0  0  0  0  0  0  0  0  0  0
  2 10  1  0  0  0  0
  2 21  2  0  0  0  0
  3  9  1  0  0  0  0
  4  1  1  0  0  0  0
  5 14  2  0  0  0  0
  7 12  2  0  0  0  0
  8 13  1  0  0  0  0
  9 22  1  0  0  0  0
  9  8  2  0  0  0  0
 10 16  2  0  0  0  0
 11 22  2  0  0  0  0
 12 17  1  0  0  0  0
 12 14  1  0  0  0  0
 13 16  1  0  0  0  0
 13 17  2  0  0  0  0
 14 23  1  0  0  0  0
 15  3  2  0  0  0  0
 15 11  1  0  0  0  0
 16  4  1  0  0  0  0
 17 19  1  0  0  0  0
 18  1  2  0  0  0  0
 19  6  1  0  0  0  0
 20  8  1  0  0  0  0
 20 10  1  0  0  0  0
 21 18  1  0  0  0  0
 22  7  1  0  0  0  0
 23  6  2  0  0  0  0
 24 26  1  0  0  0  0
 24 25  1  0  0  0  0
 25 20  1  0  0  0  0
 26 25  1  0  0  0  0
 27 28  1  0  0  0  0
 28 21  1  0  0  0  0
M  END
>  <MODEL>
8

>  <REMARK>
 VINA RESULT:      -9.6      1.551      6.092
  Name = 
  2 active torsions:
  status: ('A' for Active; 'I' for Inactive)
    1  A    between atoms: C_15  and  N_24
    2  A    between atoms: C_25  and  O_26
                            x       y       z     vdW  Elec       q    Type
                         _______ _______ _______ _____ _____    ______ ____

>  <TORSDO>
F 2

$$$$
=
 OpenBabel10222417263D

 28 33  0  0  0  0  0  0  0  0999 V2000
  191.2470  177.7300  141.5610 C   0  0  0  0  0  3  0  0  0  0  0  0
  188.3130  177.8750  140.4590 C   0  0  0  0  0  3  0  0  0  0  0  0
  184.6020  178.5580  144.1520 C   0  0  0  0  0  3  0  0  0  0  0  0
  190.5140  177.7210  142.6670 C   0  0  0  0  0  2  0  0  0  0  0  0
  188.6740  177.8760  148.9030 O   0  0  0  0  0  0  0  0  0  0  0  0
  190.8370  176.4610  146.5460 C   0  0  0  0  0  3  0  0  0  0  0  0
  187.1210  178.5130  146.7710 C   0  0  0  0  0  3  0  0  0  0  0  0
  187.0100  177.9150  143.6810 C   0  0  0  0  0  0  0  0  0  0  0  0
  186.0150  178.2290  144.5400 C   0  0  0  0  0  0  0  0  0  0  0  0
  188.1060  177.8200  141.7820 C   0  0  0  0  0  0  0  0  0  0  0  0
  184.9280  179.2870  146.2930 N   0  0  0  0  0  0  0  0  0  0  0  0
  188.4110  177.8310  146.5940 C   0  0  0  0  0  0  0  0  0  0  0  0
  188.3580  177.7570  144.0080 C   0  0  0  0  0  0  0  0  0  0  0  0
  189.1250  177.5320  147.7770 C   0  0  0  0  0  0  0  0  0  0  0  0
  183.9800  179.2960  145.2600 N   0  0  0  0  0  0  0  0  0  0  0  0
  189.0490  177.7420  142.7880 C   0  0  0  0  0  0  0  0  0  0  0  0
  188.9710  177.4630  145.3440 C   0  0  0  0  0  0  0  0  0  0  0  0
  190.7920  177.7680  140.1700 C   0  0  0  0  0  3  0  0  0  0  0  0
  190.1840  176.7540  145.3560 C   0  0  0  0  0  2  0  0  0  0  0  0
  186.8620  177.8530  142.3240 N   0  0  0  0  0  0  0  0  0  0  0  0
  189.5530  177.8350  139.6690 C   0  0  0  0  0  0  0  0  0  0  0  0
  186.1320  178.6680  145.9070 C   0  0  0  0  0  0  0  0  0  0  0  0
  190.3020  176.8600  147.7220 N   0  0  0  0  0  0  0  0  0  0  0  0
  185.1160  179.3370  141.3580 C   0  0  0  0  0  2  0  0  0  0  0  0
  185.6000  177.9050  141.5620 C   0  0  0  0  0  3  0  0  0  0  0  0
  185.8280  178.6280  140.2390 C   0  0  0  0  0  2  0  0  0  0  0  0
  188.9340  179.0030  137.5610 C   0  0  0  0  0  1  0  0  0  0  0  0
  189.3780  177.8550  138.2780 O   0  0  0  0  0  0  0  0  0  0  0  0
  1  4  1  0  0  0  0
  2 10  1  0  0  0  0
  3  9  2  0  0  0  0
  3 15  1  0  0  0  0
  4 16  1  0  0  0  0
  6 23  2  0  0  0  0
  8 13  2  0  0  0  0
  8  9  1  0  0  0  0
  9 22  1  0  0  0  0
 10 20  1  0  0  0  0
 10 16  2  0  0  0  0
 12  7  1  0  0  0  0
 12 14  1  0  0  0  0
 13 17  1  0  0  0  0
 14  5  2  0  0  0  0
 15 11  2  0  0  0  0
 16 13  1  0  0  0  0
 17 19  1  0  0  0  0
 17 12  2  0  0  0  0
 18  1  2  0  0  0  0
 19  6  1  0  0  0  0
 20  8  1  0  0  0  0
 21 18  1  0  0  0  0
 21  2  2  0  0  0  0
 22 11  1  0  0  0  0
 22  7  2  0  0  0  0
 23 14  1  0  0  0  0
 24 25  1  0  0  0  0
 25 20  1  0  0  0  0
 26 24  1  0  0  0  0
 26 25  1  0  0  0  0
 27 28  1  0  0  0  0
 28 21  1  0  0  0  0
M  END
>  <MODEL>
9

>  <REMARK>
 VINA RESULT:      -9.5      2.339      6.004
  Name = 
  2 active torsions:
  status: ('A' for Active; 'I' for Inactive)
    1  A    between atoms: C_15  and  N_24
    2  A    between atoms: C_25  and  O_26
                            x       y       z     vdW  Elec       q    Type
                         _______ _______ _______ _____ _____    ______ ____

>  <TORSDO>
F 2

$$$$
