=
 OpenBabel10222418253D

 26 29  0  0  1  0  0  0  0  0999 V2000
  188.8700  178.1770  147.7510 N   0  0  0  0  0  2  0  0  0  0  0  0
  189.4430  176.9490  147.2110 C   0  0  0  0  0  2  0  0  0  0  0  0
  187.3620  177.3730  145.1630 C   0  0  2  0  0  3  0  0  0  0  0  0
  186.1520  178.0630  144.6240 N   0  0  0  0  0  0  0  0  0  0  0  0
  190.3910  177.2280  146.0420 C   0  0  0  0  0  2  0  0  0  0  0  0
  187.4760  177.8730  148.0740 C   0  0  0  0  0  2  0  0  0  0  0  0
  186.4880  178.5000  147.0700 C   0  0  0  0  0  2  0  0  0  0  0  0
  189.7870  178.0840  144.9120 C   0  0  2  0  0  3  0  0  0  0  0  0
  187.0650  178.6270  145.6630 C   0  0  1  0  0  3  0  0  0  0  0  0
  188.5530  177.4750  144.2170 C   0  0  0  0  0  2  0  0  0  0  0  0
  185.0530  178.1430  142.3920 C   0  0  2  0  0  3  0  0  0  0  0  0
  185.1490  179.4910  140.5460 N   0  0  0  0  0  0  0  0  0  0  0  0
  183.0140  178.7430  143.0520 N   0  0  0  0  0  0  0  0  0  0  0  0
  183.7410  178.5030  144.1660 C   0  0  0  0  0  3  0  0  0  0  0  0
  185.0170  178.1310  143.7680 C   0  0  0  0  0  0  0  0  0  0  0  0
  186.0350  178.7650  141.4640 C   0  0  0  0  0  3  0  0  0  0  0  0
  183.8260  178.5380  141.9970 C   0  0  1  0  0  3  0  0  0  0  0  0
  183.9200  179.3760  140.8620 N   0  0  0  0  0  2  0  0  0  0  0  0
  180.7190  178.6280  143.8570 C   0  0  0  0  0  1  0  0  0  0  0  0
  181.7230  179.4120  143.0330 C   0  0  0  0  0  2  0  0  0  0  0  0
  192.0960  178.8250  144.5200 N   0  0  0  0  0  1  0  0  0  0  0  0
  190.8350  178.4980  143.8740 C   0  0  1  0  0  3  0  0  0  0  0  0
  191.0390  177.4760  142.7960 C   0  0  0  0  0  0  0  0  0  0  0  0
  190.6570  176.7640  140.4100 C   0  0  0  0  0  1  0  0  0  0  0  0
  190.5120  177.7220  141.4930 N   0  0  0  0  0  2  0  0  0  0  0  0
  191.6480  176.3990  143.0450 O   0  0  0  0  0  0  0  0  0  0  0  0
  1  6  1  0  0  0  0
  2  1  1  0  0  0  0
  3 10  1  6  0  0  0
  3  9  1  0  0  0  0
  4  3  1  0  0  0  0
  4  9  1  0  0  0  0
  5  2  1  0  0  0  0
  7  6  1  0  0  0  0
  8 22  1  6  0  0  0
  8  5  1  0  0  0  0
  9  7  1  1  0  0  0
 10  8  1  0  0  0  0
 11 16  1  1  0  0  0
 11 15  1  0  0  0  0
 12 18  1  0  0  0  0
 12 16  2  0  0  0  0
 13 14  1  0  0  0  0
 15 14  2  0  0  0  0
 15  4  1  0  0  0  0
 17 18  1  1  0  0  0
 17 11  1  0  0  0  0
 17 13  1  0  0  0  0
 20 13  1  0  0  0  0
 20 19  1  0  0  0  0
 22 21  1  1  0  0  0
 23 26  2  0  0  0  0
 23 22  1  0  0  0  0
 24 25  1  0  0  0  0
 25 23  1  0  0  0  0
M  END
>  <MODEL>
1

>  <REMARK>
 VINA RESULT:      -8.7      0.000      0.000
  Name = 
  4 active torsions:
  status: ('A' for Active; 'I' for Inactive)
    1  A    between atoms: C_7  and  C_25
    2  A    between atoms: N_8  and  C_16
    3  A    between atoms: N_11  and  C_14
    4  A    between atoms: C_23  and  C_25
                            x       y       z     vdW  Elec       q    Type
                         _______ _______ _______ _____ _____    ______ ____

>  <TORSDO>
F 4

$$$$
=
 OpenBabel10222418253D

 26 29  0  0  1  0  0  0  0  0999 V2000
  187.7820  178.5040  147.6750 N   0  0  0  0  0  2  0  0  0  0  0  0
  188.2570  177.1500  147.4150 C   0  0  0  0  0  2  0  0  0  0  0  0
  186.5040  177.4360  145.0600 C   0  0  2  0  0  3  0  0  0  0  0  0
  185.4630  178.1480  144.2590 N   0  0  0  0  0  0  0  0  0  0  0  0
  189.3650  177.1270  146.3580 C   0  0  0  0  0  2  0  0  0  0  0  0
  186.3340  178.4060  147.8470 C   0  0  0  0  0  2  0  0  0  0  0  0
  185.5580  178.9540  146.6320 C   0  0  0  0  0  2  0  0  0  0  0  0
  189.0110  177.8380  145.0370 C   0  0  2  0  0  3  0  0  0  0  0  0
  186.3080  178.7810  145.3150 C   0  0  1  0  0  3  0  0  0  0  0  0
  187.8020  177.2520  144.2820 C   0  0  0  0  0  2  0  0  0  0  0  0
  184.6790  178.2200  141.8980 C   0  0  2  0  0  3  0  0  0  0  0  0
  184.9790  179.5970  140.0950 N   0  0  0  0  0  0  0  0  0  0  0  0
  182.5480  178.7400  142.2760 N   0  0  0  0  0  0  0  0  0  0  0  0
  183.1230  178.5100  143.4780 C   0  0  0  0  0  3  0  0  0  0  0  0
  184.4550  178.1880  143.2560 C   0  0  0  0  0  0  0  0  0  0  0  0
  185.7550  178.8890  141.1210 C   0  0  0  0  0  3  0  0  0  0  0  0
  183.5040  178.5780  141.3410 C   0  0  1  0  0  3  0  0  0  0  0  0
  183.7220  179.4350  140.2380 N   0  0  0  0  0  2  0  0  0  0  0  0
  180.1550  178.3140  142.1370 C   0  0  0  0  0  1  0  0  0  0  0  0
  181.2480  179.3640  142.0850 C   0  0  0  0  0  2  0  0  0  0  0  0
  191.4320  177.5170  144.7710 N   0  0  0  0  0  1  0  0  0  0  0  0
  190.2180  177.9590  144.1030 C   0  0  1  0  0  3  0  0  0  0  0  0
  190.0360  177.2380  142.8000 C   0  0  0  0  0  0  0  0  0  0  0  0
  189.2270  177.2820  140.4150 C   0  0  0  0  0  1  0  0  0  0  0  0
  189.4510  177.9280  141.6970 N   0  0  0  0  0  2  0  0  0  0  0  0
  190.3730  176.0270  142.6900 O   0  0  0  0  0  0  0  0  0  0  0  0
  1  6  1  0  0  0  0
  2  1  1  0  0  0  0
  3 10  1  6  0  0  0
  3  9  1  0  0  0  0
  4  3  1  0  0  0  0
  4  9  1  0  0  0  0
  5  2  1  0  0  0  0
  7  6  1  0  0  0  0
  8 22  1  6  0  0  0
  8  5  1  0  0  0  0
  9  7  1  1  0  0  0
 10  8  1  0  0  0  0
 11 16  1  1  0  0  0
 11 15  1  0  0  0  0
 12 18  1  0  0  0  0
 12 16  2  0  0  0  0
 13 14  1  0  0  0  0
 15 14  2  0  0  0  0
 15  4  1  0  0  0  0
 17 18  1  1  0  0  0
 17 11  1  0  0  0  0
 17 13  1  0  0  0  0
 20 19  1  0  0  0  0
 20 13  1  0  0  0  0
 22 21  1  1  0  0  0
 23 22  1  0  0  0  0
 24 25  1  0  0  0  0
 25 23  1  0  0  0  0
 26 23  2  0  0  0  0
M  END
>  <MODEL>
2

>  <REMARK>
 VINA RESULT:      -8.3      1.015      1.042
  Name = 
  4 active torsions:
  status: ('A' for Active; 'I' for Inactive)
    1  A    between atoms: C_7  and  C_25
    2  A    between atoms: N_8  and  C_16
    3  A    between atoms: N_11  and  C_14
    4  A    between atoms: C_23  and  C_25
                            x       y       z     vdW  Elec       q    Type
                         _______ _______ _______ _____ _____    ______ ____

>  <TORSDO>
F 4

$$$$
=
 OpenBabel10222418253D

 26 29  0  0  1  0  0  0  0  0999 V2000
  189.5800  178.2950  139.8120 N   0  0  0  0  0  2  0  0  0  0  0  0
  188.4800  177.3700  139.5610 C   0  0  0  0  0  2  0  0  0  0  0  0
  188.6330  177.0500  142.4890 C   0  0  2  0  0  3  0  0  0  0  0  0
  189.2880  177.2650  143.8150 N   0  0  0  0  0  0  0  0  0  0  0  0
  187.1220  177.9990  139.8860 C   0  0  0  0  0  2  0  0  0  0  0  0
  190.6630  177.4980  140.3880 C   0  0  0  0  0  2  0  0  0  0  0  0
  190.8340  177.7430  141.9000 C   0  0  0  0  0  2  0  0  0  0  0  0
  187.0110  178.6000  141.3000 C   0  0  2  0  0  3  0  0  0  0  0  0
  189.5270  178.1000  142.6000 C   0  0  1  0  0  3  0  0  0  0  0  0
  187.2120  177.5980  142.4540 C   0  0  0  0  0  2  0  0  0  0  0  0
  188.5910  177.1040  146.2000 C   0  0  2  0  0  3  0  0  0  0  0  0
  187.8530  178.5520  147.8100 N   0  0  0  0  0  0  0  0  0  0  0  0
  190.5870  176.7050  147.0980 N   0  0  0  0  0  0  0  0  0  0  0  0
  190.7410  176.6800  145.7550 C   0  0  0  0  0  3  0  0  0  0  0  0
  189.5030  176.9320  145.1820 C   0  0  0  0  0  0  0  0  0  0  0  0
  187.5870  178.1790  146.4150 C   0  0  0  0  0  3  0  0  0  0  0  0
  189.2920  176.9780  147.3450 C   0  0  1  0  0  3  0  0  0  0  0  0
  188.8190  177.8910  148.3150 N   0  0  0  0  0  2  0  0  0  0  0  0
  192.6590  175.6280  147.7920 C   0  0  0  0  0  1  0  0  0  0  0  0
  191.6810  176.7570  148.0570 C   0  0  0  0  0  2  0  0  0  0  0  0
  184.9540  179.4440  140.2560 N   0  0  0  0  0  1  0  0  0  0  0  0
  185.7120  179.3880  141.4960 C   0  0  1  0  0  3  0  0  0  0  0  0
  184.8620  178.8640  142.6150 C   0  0  0  0  0  0  0  0  0  0  0  0
  184.1680  179.0040  145.0330 C   0  0  0  0  0  1  0  0  0  0  0  0
  184.9490  179.4760  143.9010 N   0  0  0  0  0  2  0  0  0  0  0  0
  184.0980  177.8780  142.4280 O   0  0  0  0  0  0  0  0  0  0  0  0
  1  6  1  0  0  0  0
  2  1  1  0  0  0  0
  2  5  1  0  0  0  0
  3 10  1  1  0  0  0
  3  9  1  0  0  0  0
  3  4  1  0  0  0  0
  4 15  1  0  0  0  0
  5  8  1  0  0  0  0
  6  7  1  0  0  0  0
  8 22  1  1  0  0  0
  8 10  1  0  0  0  0
  9  7  1  6  0  0  0
  9  4  1  0  0  0  0
 11 16  1  6  0  0  0
 11 17  1  0  0  0  0
 12 18  1  0  0  0  0
 13 17  1  0  0  0  0
 13 20  1  0  0  0  0
 14 13  1  0  0  0  0
 15 14  2  0  0  0  0
 15 11  1  0  0  0  0
 16 12  2  0  0  0  0
 17 18  1  6  0  0  0
 19 20  1  0  0  0  0
 22 21  1  6  0  0  0
 22 23  1  0  0  0  0
 23 25  1  0  0  0  0
 25 24  1  0  0  0  0
 26 23  2  0  0  0  0
M  END
>  <MODEL>
3

>  <REMARK>
 VINA RESULT:      -7.8      2.250      7.268
  Name = 
  4 active torsions:
  status: ('A' for Active; 'I' for Inactive)
    1  A    between atoms: C_7  and  C_25
    2  A    between atoms: N_8  and  C_16
    3  A    between atoms: N_11  and  C_14
    4  A    between atoms: C_23  and  C_25
                            x       y       z     vdW  Elec       q    Type
                         _______ _______ _______ _____ _____    ______ ____

>  <TORSDO>
F 4

$$$$
=
 OpenBabel10222418253D

 26 29  0  0  1  0  0  0  0  0999 V2000
  185.4370  178.7110  144.8920 N   0  0  0  0  0  2  0  0  0  0  0  0
  185.6180  177.4470  145.5990 C   0  0  0  0  0  2  0  0  0  0  0  0
  187.5900  177.0090  143.4490 C   0  0  2  0  0  3  0  0  0  0  0  0
  188.2460  177.3710  142.1570 N   0  0  0  0  0  0  0  0  0  0  0  0
  186.8650  177.4650  146.4870 C   0  0  0  0  0  2  0  0  0  0  0  0
  184.9670  178.3670  143.5510 C   0  0  0  0  0  2  0  0  0  0  0  0
  186.0590  178.5530  142.4790 C   0  0  0  0  0  2  0  0  0  0  0  0
  188.1650  177.8730  145.7670 C   0  0  2  0  0  3  0  0  0  0  0  0
  187.4680  178.3150  143.0120 C   0  0  1  0  0  3  0  0  0  0  0  0
  188.5840  176.9530  144.6030 C   0  0  0  0  0  2  0  0  0  0  0  0
  190.3610  176.7280  141.0120 C   0  0  2  0  0  3  0  0  0  0  0  0
  192.4820  177.5730  140.8570 N   0  0  0  0  0  0  0  0  0  0  0  0
  189.7480  177.1670  138.9190 N   0  0  0  0  0  0  0  0  0  0  0  0
  188.6530  177.3220  139.6970 C   0  0  0  0  0  3  0  0  0  0  0  0
  189.0240  177.0540  141.0080 C   0  0  0  0  0  0  0  0  0  0  0  0
  191.4690  177.2370  141.8640 C   0  0  0  0  0  3  0  0  0  0  0  0
  190.7670  176.8270  139.7300 C   0  0  1  0  0  3  0  0  0  0  0  0
  192.0750  177.3600  139.6670 N   0  0  0  0  0  2  0  0  0  0  0  0
  188.9820  178.8350  137.3180 C   0  0  0  0  0  1  0  0  0  0  0  0
  189.8520  177.6120  137.5380 C   0  0  0  0  0  2  0  0  0  0  0  0
  188.9310  177.7280  148.0970 N   0  0  0  0  0  1  0  0  0  0  0  0
  189.3310  178.0690  146.7410 C   0  0  1  0  0  3  0  0  0  0  0  0
  190.5670  177.3160  146.3460 C   0  0  0  0  0  0  0  0  0  0  0  0
  192.2450  175.5130  146.8740 C   0  0  0  0  0  1  0  0  0  0  0  0
  191.0420  176.2670  147.1880 N   0  0  0  0  0  2  0  0  0  0  0  0
  191.1930  177.6250  145.2960 O   0  0  0  0  0  0  0  0  0  0  0  0
  1  2  1  0  0  0  0
  2  5  1  0  0  0  0
  3 10  1  1  0  0  0
  4  9  1  0  0  0  0
  4  3  1  0  0  0  0
  6  1  1  0  0  0  0
  7  6  1  0  0  0  0
  8  5  1  0  0  0  0
  8 22  1  1  0  0  0
  9  7  1  6  0  0  0
  9  3  1  0  0  0  0
 10  8  1  0  0  0  0
 11 16  1  1  0  0  0
 12 16  2  0  0  0  0
 13 14  1  0  0  0  0
 13 17  1  0  0  0  0
 14 15  2  0  0  0  0
 15 11  1  0  0  0  0
 15  4  1  0  0  0  0
 17 18  1  1  0  0  0
 17 11  1  0  0  0  0
 18 12  1  0  0  0  0
 19 20  1  0  0  0  0
 20 13  1  0  0  0  0
 22 21  1  1  0  0  0
 23 22  1  0  0  0  0
 23 25  1  0  0  0  0
 24 25  1  0  0  0  0
 26 23  2  0  0  0  0
M  END
>  <MODEL>
4

>  <REMARK>
 VINA RESULT:      -7.8      2.239      5.733
  Name = 
  4 active torsions:
  status: ('A' for Active; 'I' for Inactive)
    1  A    between atoms: C_7  and  C_25
    2  A    between atoms: N_8  and  C_16
    3  A    between atoms: N_11  and  C_14
    4  A    between atoms: C_23  and  C_25
                            x       y       z     vdW  Elec       q    Type
                         _______ _______ _______ _____ _____    ______ ____

>  <TORSDO>
F 4

$$$$
=
 OpenBabel10222418253D

 26 29  0  0  1  0  0  0  0  0999 V2000
  190.9290  175.9490  146.7800 N   0  0  0  0  0  2  0  0  0  0  0  0
  190.7640  177.3160  147.2630 C   0  0  0  0  0  2  0  0  0  0  0  0
  190.0970  177.7910  144.4290 C   0  0  2  0  0  3  0  0  0  0  0  0
  190.0060  177.3700  142.9980 N   0  0  0  0  0  0  0  0  0  0  0  0
  189.2910  177.6710  147.4780 C   0  0  0  0  0  2  0  0  0  0  0  0
  192.0040  175.9900  145.7900 C   0  0  0  0  0  2  0  0  0  0  0  0
  191.4810  175.8550  144.3460 C   0  0  0  0  0  2  0  0  0  0  0  0
  188.3800  177.4140  146.2610 C   0  0  2  0  0  3  0  0  0  0  0  0
  190.0830  176.4350  144.1600 C   0  0  1  0  0  3  0  0  0  0  0  0
  188.7450  178.2100  144.9930 C   0  0  0  0  0  2  0  0  0  0  0  0
  188.9720  178.4710  141.0200 C   0  0  2  0  0  3  0  0  0  0  0  0
  186.8980  178.5330  140.0560 N   0  0  0  0  0  0  0  0  0  0  0  0
  189.9700  177.2840  139.4240 N   0  0  0  0  0  0  0  0  0  0  0  0
  190.5260  176.9190  140.6010 C   0  0  0  0  0  3  0  0  0  0  0  0
  189.9090  177.6510  141.6070 C   0  0  0  0  0  0  0  0  0  0  0  0
  187.5430  178.6930  141.3650 C   0  0  0  0  0  3  0  0  0  0  0  0
  189.0260  178.2040  139.6990 C   0  0  1  0  0  3  0  0  0  0  0  0
  187.7300  178.2400  139.1350 N   0  0  0  0  0  2  0  0  0  0  0  0
  191.4470  175.7970  138.1840 C   0  0  0  0  0  1  0  0  0  0  0  0
  190.1400  176.5660  138.1700 C   0  0  0  0  0  2  0  0  0  0  0  0
  186.7270  178.5670  147.6650 N   0  0  0  0  0  1  0  0  0  0  0  0
  186.8970  177.5940  146.5980 C   0  0  1  0  0  3  0  0  0  0  0  0
  186.0580  177.9560  145.4090 C   0  0  0  0  0  0  0  0  0  0  0  0
  184.3100  179.4570  144.3890 C   0  0  0  0  0  1  0  0  0  0  0  0
  185.1660  179.0660  145.4980 N   0  0  0  0  0  2  0  0  0  0  0  0
  186.1210  177.2700  144.3520 O   0  0  0  0  0  0  0  0  0  0  0  0
  1  2  1  0  0  0  0
  2  5  1  0  0  0  0
  3 10  1  1  0  0  0
  4  9  1  0  0  0  0
  4  3  1  0  0  0  0
  6  1  1  0  0  0  0
  7  6  1  0  0  0  0
  8 22  1  1  0  0  0
  8  5  1  0  0  0  0
  9  7  1  6  0  0  0
  9  3  1  0  0  0  0
 10  8  1  0  0  0  0
 11 16  1  1  0  0  0
 11 15  1  0  0  0  0
 12 16  2  0  0  0  0
 13 17  1  0  0  0  0
 13 14  1  0  0  0  0
 14 15  2  0  0  0  0
 15  4  1  0  0  0  0
 17 18  1  1  0  0  0
 17 11  1  0  0  0  0
 18 12  1  0  0  0  0
 20 19  1  0  0  0  0
 20 13  1  0  0  0  0
 22 21  1  1  0  0  0
 23 25  1  0  0  0  0
 23 22  1  0  0  0  0
 24 25  1  0  0  0  0
 26 23  2  0  0  0  0
M  END
>  <MODEL>
5

>  <REMARK>
 VINA RESULT:      -7.8      2.272      5.737
  Name = 
  4 active torsions:
  status: ('A' for Active; 'I' for Inactive)
    1  A    between atoms: C_7  and  C_25
    2  A    between atoms: N_8  and  C_16
    3  A    between atoms: N_11  and  C_14
    4  A    between atoms: C_23  and  C_25
                            x       y       z     vdW  Elec       q    Type
                         _______ _______ _______ _____ _____    ______ ____

>  <TORSDO>
F 4

$$$$
=
 OpenBabel10222418253D

 26 29  0  0  1  0  0  0  0  0999 V2000
  191.9230  177.6950  140.6470 N   0  0  0  0  0  2  0  0  0  0  0  0
  191.2720  176.6590  139.8530 C   0  0  0  0  0  2  0  0  0  0  0  0
  189.1620  177.0150  141.8840 C   0  0  2  0  0  3  0  0  0  0  0  0
  188.6360  177.5690  143.1680 N   0  0  0  0  0  0  0  0  0  0  0  0
  190.2110  177.2420  138.9160 C   0  0  0  0  0  2  0  0  0  0  0  0
  192.1140  177.1300  141.9830 C   0  0  0  0  0  2  0  0  0  0  0  0
  191.1350  177.7190  143.0170 C   0  0  0  0  0  2  0  0  0  0  0  0
  189.1610  178.1350  139.6050 C   0  0  2  0  0  3  0  0  0  0  0  0
  189.7960  178.1260  142.4100 C   0  0  1  0  0  3  0  0  0  0  0  0
  188.3160  177.4350  140.6870 C   0  0  0  0  0  2  0  0  0  0  0  0
  186.3620  177.7430  144.1640 C   0  0  2  0  0  3  0  0  0  0  0  0
  184.6790  179.2940  144.1890 N   0  0  0  0  0  0  0  0  0  0  0  0
  186.9530  177.9600  146.2980 N   0  0  0  0  0  0  0  0  0  0  0  0
  188.0790  177.7020  145.5950 C   0  0  0  0  0  3  0  0  0  0  0  0
  187.7240  177.5680  144.2600 C   0  0  0  0  0  0  0  0  0  0  0  0
  185.5680  178.6030  143.2470 C   0  0  0  0  0  3  0  0  0  0  0  0
  185.9350  177.9980  145.4180 C   0  0  1  0  0  3  0  0  0  0  0  0
  184.9050  178.9650  145.4010 N   0  0  0  0  0  2  0  0  0  0  0  0
  188.2170  178.0580  148.3780 C   0  0  0  0  0  1  0  0  0  0  0  0
  186.9260  178.4320  147.6740 C   0  0  0  0  0  2  0  0  0  0  0  0
  189.0090  179.2470  137.4200 N   0  0  0  0  0  1  0  0  0  0  0  0
  188.2540  178.8480  138.5970 C   0  0  1  0  0  3  0  0  0  0  0  0
  187.0500  178.0440  138.2090 C   0  0  0  0  0  0  0  0  0  0  0  0
  184.5430  177.7870  138.2170 C   0  0  0  0  0  1  0  0  0  0  0  0
  185.7500  178.5280  138.5460 N   0  0  0  0  0  2  0  0  0  0  0  0
  187.1850  176.9390  137.6140 O   0  0  0  0  0  0  0  0  0  0  0  0
  1  6  1  0  0  0  0
  2  1  1  0  0  0  0
  3 10  1  6  0  0  0
  3  9  1  0  0  0  0
  3  4  1  0  0  0  0
  4 15  1  0  0  0  0
  5  8  1  0  0  0  0
  5  2  1  0  0  0  0
  6  7  1  0  0  0  0
  8 22  1  6  0  0  0
  8 10  1  0  0  0  0
  9  7  1  1  0  0  0
  9  4  1  0  0  0  0
 11 16  1  6  0  0  0
 11 15  1  0  0  0  0
 11 17  1  0  0  0  0
 12 18  1  0  0  0  0
 13 20  1  0  0  0  0
 14 13  1  0  0  0  0
 15 14  2  0  0  0  0
 16 12  2  0  0  0  0
 17 18  1  6  0  0  0
 17 13  1  0  0  0  0
 20 19  1  0  0  0  0
 22 21  1  6  0  0  0
 23 25  1  0  0  0  0
 23 22  1  0  0  0  0
 24 25  1  0  0  0  0
 26 23  2  0  0  0  0
M  END
>  <MODEL>
6

>  <REMARK>
 VINA RESULT:      -7.6      2.553      5.711
  Name = 
  4 active torsions:
  status: ('A' for Active; 'I' for Inactive)
    1  A    between atoms: C_7  and  C_25
    2  A    between atoms: N_8  and  C_16
    3  A    between atoms: N_11  and  C_14
    4  A    between atoms: C_23  and  C_25
                            x       y       z     vdW  Elec       q    Type
                         _______ _______ _______ _____ _____    ______ ____

>  <TORSDO>
F 4

$$$$
=
 OpenBabel10222418253D

 26 29  0  0  1  0  0  0  0  0999 V2000
  191.0300  176.3440  142.4300 N   0  0  0  0  0  2  0  0  0  0  0  0
  191.6800  177.4110  143.1840 C   0  0  0  0  0  2  0  0  0  0  0  0
  188.8810  178.1940  143.6840 C   0  0  2  0  0  3  0  0  0  0  0  0
  187.4100  178.0860  143.4460 N   0  0  0  0  0  0  0  0  0  0  0  0
  191.6770  177.1290  144.6890 C   0  0  0  0  0  2  0  0  0  0  0  0
  190.2700  176.9980  141.3660 C   0  0  0  0  0  2  0  0  0  0  0  0
  188.7520  176.9890  141.6340 C   0  0  0  0  0  2  0  0  0  0  0  0
  190.2910  176.8150  145.2840 C   0  0  2  0  0  3  0  0  0  0  0  0
  188.4070  177.0230  143.1200 C   0  0  1  0  0  3  0  0  0  0  0  0
  189.2480  177.9410  145.1410 C   0  0  0  0  0  2  0  0  0  0  0  0
  185.4760  179.1260  144.6200 C   0  0  2  0  0  3  0  0  0  0  0  0
  184.1830  178.6290  146.4410 N   0  0  0  0  0  0  0  0  0  0  0  0
  183.9170  178.7510  143.0780 N   0  0  0  0  0  0  0  0  0  0  0  0
  185.1020  178.3750  142.5470 C   0  0  0  0  0  3  0  0  0  0  0  0
  186.0840  178.6000  143.5020 C   0  0  0  0  0  0  0  0  0  0  0  0
  185.5940  178.7320  146.0480 C   0  0  0  0  0  3  0  0  0  0  0  0
  184.1610  179.1830  144.3290 C   0  0  1  0  0  3  0  0  0  0  0  0
  183.3900  178.8620  145.4700 N   0  0  0  0  0  2  0  0  0  0  0  0
  182.6390  178.6290  141.0080 C   0  0  0  0  0  1  0  0  0  0  0  0
  182.6160  178.4290  142.5120 C   0  0  0  0  0  2  0  0  0  0  0  0
  191.7610  176.1310  147.1290 N   0  0  0  0  0  1  0  0  0  0  0  0
  190.3770  176.3460  146.7390 C   0  0  1  0  0  3  0  0  0  0  0  0
  189.6900  177.2680  147.7020 C   0  0  0  0  0  0  0  0  0  0  0  0
  187.5760  177.9460  148.8920 C   0  0  0  0  0  1  0  0  0  0  0  0
  188.3050  177.0760  147.9840 N   0  0  0  0  0  2  0  0  0  0  0  0
  190.3250  178.2190  148.2370 O   0  0  0  0  0  0  0  0  0  0  0  0
  1  2  1  0  0  0  0
  2  5  1  0  0  0  0
  3 10  1  1  0  0  0
  4 15  1  0  0  0  0
  4  3  1  0  0  0  0
  5  8  1  0  0  0  0
  6  7  1  0  0  0  0
  6  1  1  0  0  0  0
  8 22  1  1  0  0  0
  9  7  1  6  0  0  0
  9  4  1  0  0  0  0
  9  3  1  0  0  0  0
 10  8  1  0  0  0  0
 11 16  1  1  0  0  0
 13 17  1  0  0  0  0
 14 13  1  0  0  0  0
 14 15  2  0  0  0  0
 15 11  1  0  0  0  0
 16 12  2  0  0  0  0
 17 11  1  0  0  0  0
 17 18  1  1  0  0  0
 18 12  1  0  0  0  0
 19 20  1  0  0  0  0
 20 13  1  0  0  0  0
 22 21  1  1  0  0  0
 22 23  1  0  0  0  0
 23 25  1  0  0  0  0
 23 26  2  0  0  0  0
 25 24  1  0  0  0  0
M  END
>  <MODEL>
7

>  <REMARK>
 VINA RESULT:      -7.5      1.909      4.393
  Name = 
  4 active torsions:
  status: ('A' for Active; 'I' for Inactive)
    1  A    between atoms: C_7  and  C_25
    2  A    between atoms: N_8  and  C_16
    3  A    between atoms: N_11  and  C_14
    4  A    between atoms: C_23  and  C_25
                            x       y       z     vdW  Elec       q    Type
                         _______ _______ _______ _____ _____    ______ ____

>  <TORSDO>
F 4

$$$$
=
 OpenBabel10222418253D

 26 29  0  0  1  0  0  0  0  0999 V2000
  187.8310  178.2560  147.6400 N   0  0  0  0  0  2  0  0  0  0  0  0
  188.2330  176.9020  147.2730 C   0  0  0  0  0  2  0  0  0  0  0  0
  186.6050  177.5120  144.8900 C   0  0  2  0  0  3  0  0  0  0  0  0
  185.6450  178.3590  144.1200 N   0  0  0  0  0  0  0  0  0  0  0  0
  189.3830  176.9040  146.2620 C   0  0  0  0  0  2  0  0  0  0  0  0
  186.3720  178.2360  147.7460 C   0  0  0  0  0  2  0  0  0  0  0  0
  185.6850  178.9400  146.5590 C   0  0  0  0  0  2  0  0  0  0  0  0
  189.1310  177.7530  145.0000 C   0  0  2  0  0  3  0  0  0  0  0  0
  186.4810  178.8380  145.2620 C   0  0  1  0  0  3  0  0  0  0  0  0
  187.9230  177.3160  144.1490 C   0  0  0  0  0  2  0  0  0  0  0  0
  183.4360  179.1070  143.2500 C   0  0  2  0  0  3  0  0  0  0  0  0
  181.2400  178.6420  143.6910 N   0  0  0  0  0  0  0  0  0  0  0  0
  183.5190  178.1240  141.2560 N   0  0  0  0  0  0  0  0  0  0  0  0
  184.7260  177.9470  141.8390 C   0  0  0  0  0  3  0  0  0  0  0  0
  184.6860  178.5540  143.0870 C   0  0  0  0  0  0  0  0  0  0  0  0
  182.4820  179.0010  144.3860 C   0  0  0  0  0  3  0  0  0  0  0  0
  182.7530  178.8080  142.1270 C   0  0  1  0  0  3  0  0  0  0  0  0
  181.4040  178.5160  142.4330 N   0  0  0  0  0  2  0  0  0  0  0  0
  183.8310  177.8920  138.8510 C   0  0  0  0  0  1  0  0  0  0  0  0
  183.0610  177.4170  140.0690 C   0  0  0  0  0  2  0  0  0  0  0  0
  191.5840  177.6460  144.9130 N   0  0  0  0  0  1  0  0  0  0  0  0
  190.3830  177.8790  144.1270 C   0  0  1  0  0  3  0  0  0  0  0  0
  190.3570  176.9910  142.9190 C   0  0  0  0  0  0  0  0  0  0  0  0
  190.0830  176.7630  140.4250 C   0  0  0  0  0  1  0  0  0  0  0  0
  190.1400  177.5700  141.6330 N   0  0  0  0  0  2  0  0  0  0  0  0
  190.5010  175.7430  143.0420 O   0  0  0  0  0  0  0  0  0  0  0  0
  1  6  1  0  0  0  0
  2  1  1  0  0  0  0
  3 10  1  6  0  0  0
  3  9  1  0  0  0  0
  4  3  1  0  0  0  0
  4  9  1  0  0  0  0
  5  2  1  0  0  0  0
  7  6  1  0  0  0  0
  8 22  1  6  0  0  0
  8  5  1  0  0  0  0
  9  7  1  1  0  0  0
 10  8  1  0  0  0  0
 11 16  1  1  0  0  0
 12 16  2  0  0  0  0
 13 14  1  0  0  0  0
 13 17  1  0  0  0  0
 14 15  2  0  0  0  0
 15 11  1  0  0  0  0
 15  4  1  0  0  0  0
 17 18  1  1  0  0  0
 17 11  1  0  0  0  0
 18 12  1  0  0  0  0
 19 20  1  0  0  0  0
 20 13  1  0  0  0  0
 22 21  1  1  0  0  0
 23 26  2  0  0  0  0
 23 22  1  0  0  0  0
 24 25  1  0  0  0  0
 25 23  1  0  0  0  0
M  END
>  <MODEL>
8

>  <REMARK>
 VINA RESULT:      -7.5      1.290      2.302
  Name = 
  4 active torsions:
  status: ('A' for Active; 'I' for Inactive)
    1  A    between atoms: C_7  and  C_25
    2  A    between atoms: N_8  and  C_16
    3  A    between atoms: N_11  and  C_14
    4  A    between atoms: C_23  and  C_25
                            x       y       z     vdW  Elec       q    Type
                         _______ _______ _______ _____ _____    ______ ____

>  <TORSDO>
F 4

$$$$
=
 OpenBabel10222418253D

 26 29  0  0  1  0  0  0  0  0999 V2000
  187.0740  178.2290  143.7290 N   0  0  0  0  0  2  0  0  0  0  0  0
  187.5180  176.8590  143.9630 C   0  0  0  0  0  2  0  0  0  0  0  0
  188.5130  177.1530  141.2020 C   0  0  2  0  0  3  0  0  0  0  0  0
  188.6210  177.8790  139.9000 N   0  0  0  0  0  0  0  0  0  0  0  0
  189.0100  176.7930  144.2980 C   0  0  0  0  0  2  0  0  0  0  0  0
  186.1260  178.1700  142.6180 C   0  0  0  0  0  2  0  0  0  0  0  0
  186.7210  178.7180  141.3050 C   0  0  0  0  0  2  0  0  0  0  0  0
  189.9320  177.4930  143.2800 C   0  0  2  0  0  3  0  0  0  0  0  0
  188.2280  178.5060  141.1970 C   0  0  1  0  0  3  0  0  0  0  0  0
  189.8740  176.9260  141.8480 C   0  0  0  0  0  2  0  0  0  0  0  0
  188.0270  178.3620  137.5320 C   0  0  2  0  0  3  0  0  0  0  0  0
  186.3980  177.7020  136.0660 N   0  0  0  0  0  0  0  0  0  0  0  0
  189.7150  177.2990  136.5470 N   0  0  0  0  0  0  0  0  0  0  0  0
  189.9470  177.2700  137.8780 C   0  0  0  0  0  3  0  0  0  0  0  0
  188.8980  177.9280  138.5060 C   0  0  0  0  0  0  0  0  0  0  0  0
  186.5510  178.2150  137.4330 C   0  0  0  0  0  3  0  0  0  0  0  0
  188.5480  177.9430  136.3610 C   0  0  1  0  0  3  0  0  0  0  0  0
  187.5190  177.5340  135.4820 N   0  0  0  0  0  2  0  0  0  0  0  0
  191.6870  175.9170  136.1800 C   0  0  0  0  0  1  0  0  0  0  0  0
  190.4260  176.4940  135.5650 C   0  0  0  0  0  2  0  0  0  0  0  0
  191.6740  178.8880  144.3060 N   0  0  0  0  0  1  0  0  0  0  0  0
  191.3820  177.5690  143.7680 C   0  0  1  0  0  3  0  0  0  0  0  0
  191.7330  176.5000  144.7600 C   0  0  0  0  0  0  0  0  0  0  0  0
  192.1490  175.8460  147.1570 C   0  0  0  0  0  1  0  0  0  0  0  0
  191.7950  176.8300  146.1460 N   0  0  0  0  0  2  0  0  0  0  0  0
  191.9940  175.3290  144.3690 O   0  0  0  0  0  0  0  0  0  0  0  0
  1  2  1  0  0  0  0
  2  5  1  0  0  0  0
  3 10  1  1  0  0  0
  4  9  1  0  0  0  0
  4  3  1  0  0  0  0
  6  1  1  0  0  0  0
  7  6  1  0  0  0  0
  8 22  1  1  0  0  0
  8  5  1  0  0  0  0
  9  3  1  0  0  0  0
  9  7  1  6  0  0  0
 10  8  1  0  0  0  0
 11 16  1  1  0  0  0
 11 15  1  0  0  0  0
 12 16  2  0  0  0  0
 13 14  1  0  0  0  0
 14 15  2  0  0  0  0
 15  4  1  0  0  0  0
 17 18  1  1  0  0  0
 17 13  1  0  0  0  0
 17 11  1  0  0  0  0
 18 12  1  0  0  0  0
 20 19  1  0  0  0  0
 20 13  1  0  0  0  0
 22 21  1  1  0  0  0
 22 23  1  0  0  0  0
 23 25  1  0  0  0  0
 25 24  1  0  0  0  0
 26 23  2  0  0  0  0
M  END
>  <MODEL>
9

>  <REMARK>
 VINA RESULT:      -7.3      3.087      6.127
  Name = 
  4 active torsions:
  status: ('A' for Active; 'I' for Inactive)
    1  A    between atoms: C_7  and  C_25
    2  A    between atoms: N_8  and  C_16
    3  A    between atoms: N_11  and  C_14
    4  A    between atoms: C_23  and  C_25
                            x       y       z     vdW  Elec       q    Type
                         _______ _______ _______ _____ _____    ______ ____

>  <TORSDO>
F 4

$$$$
