=
 OpenBabel10222419423D

 36 40  0  0  1  0  0  0  0  0999 V2000
  191.6320  176.4200  145.5670 C   0  0  0  0  0  3  0  0  0  0  0  0
  189.3950  177.2370  145.9250 C   0  0  0  0  0  0  0  0  0  0  0  0
  190.9490  177.0400  147.7310 N   0  0  0  0  0  0  0  0  0  0  0  0
  187.4730  178.1930  147.7280 C   0  0  0  0  0  3  0  0  0  0  0  0
  190.3800  176.7520  145.0510 C   0  0  0  0  0  0  0  0  0  0  0  0
  188.1120  177.5820  145.4750 C   0  0  0  0  0  3  0  0  0  0  0  0
  188.7490  177.8540  148.1870 C   0  0  0  0  0  3  0  0  0  0  0  0
  189.7090  177.3770  147.2910 C   0  0  0  0  0  0  0  0  0  0  0  0
  191.8810  176.5770  146.8950 N   0  0  0  0  0  0  0  0  0  0  0  0
  187.1480  178.0580  146.3710 C   0  0  0  0  0  0  0  0  0  0  0  0
  185.8080  178.4080  145.8830 C   0  0  0  0  0  0  0  0  0  0  0  0
  183.7390  178.9260  145.9370 N   0  0  0  0  0  0  0  0  0  0  0  0
  184.7770  178.6390  146.6610 O   0  0  0  0  0  0  0  0  0  0  0  0
  185.4850  178.5360  144.5810 N   0  0  0  0  0  0  0  0  0  0  0  0
  184.1760  178.8540  144.6660 C   0  0  0  0  0  0  0  0  0  0  0  0
  183.3120  179.1590  143.4850 C   0  0  2  0  0  3  0  0  0  0  0  0
  181.9640  178.9150  143.7780 O   0  0  0  0  0  1  0  0  0  0  0  0
  183.2740  177.8440  140.0220 C   0  0  0  0  0  2  0  0  0  0  0  0
  183.7620  178.4190  142.2990 N   0  0  0  0  0  0  0  0  0  0  0  0
  184.7680  179.2200  141.6190 C   0  0  0  0  0  2  0  0  0  0  0  0
  184.8480  178.7240  139.8710 S   0  0  0  0  0  0  0  0  0  0  0  0
  182.6710  178.2350  141.3500 C   0  0  0  0  0  2  0  0  0  0  0  0
  190.1120  176.5580  143.5930 C   0  0  0  0  0  2  0  0  0  0  0  0
  190.3530  177.8580  142.8420 C   0  0  0  0  0  2  0  0  0  0  0  0
  190.4380  176.2050  141.0650 N   0  0  0  0  0  1  0  0  0  0  0  0
  190.2620  177.6190  141.3440 C   0  0  1  0  0  3  0  0  0  0  0  0
  188.9390  178.0830  140.8110 C   0  0  0  0  0  0  0  0  0  0  0  0
  188.2070  178.7820  141.4960 O   0  0  0  0  0  0  0  0  0  0  0  0
  188.5390  177.7130  139.4140 C   0  0  0  0  0  2  0  0  0  0  0  0
  188.8690  179.5490  137.8240 N   0  0  0  0  0  1  0  0  0  0  0  0
  189.4520  178.3200  138.3430 C   0  0  2  0  0  3  0  0  0  0  0  0
  188.8750  177.6030  135.9990 C   0  0  0  0  0  2  0  0  0  0  0  0
  189.1300  175.1970  136.3150 C   0  0  0  0  0  2  0  0  0  0  0  0
  189.7550  177.3400  137.2050 C   0  0  0  0  0  3  0  0  0  0  0  0
  188.6280  176.2540  135.3480 C   0  0  0  0  0  2  0  0  0  0  0  0
  189.4460  175.9150  137.6080 C   0  0  0  0  0  2  0  0  0  0  0  0
  1  9  1  0  0  0  0
  2  8  1  0  0  0  0
  4  7  1  0  0  0  0
  5  1  2  0  0  0  0
  5  2  1  0  0  0  0
  6  2  2  0  0  0  0
  6 10  1  0  0  0  0
  8  3  1  0  0  0  0
  8  7  2  0  0  0  0
  9  3  2  0  0  0  0
 10  4  2  0  0  0  0
 11 10  1  0  0  0  0
 11 13  1  0  0  0  0
 12 13  1  0  0  0  0
 14 15  1  0  0  0  0
 14 11  2  0  0  0  0
 15 12  2  0  0  0  0
 16 17  1  1  0  0  0
 16 15  1  0  0  0  0
 18 22  1  0  0  0  0
 19 16  1  0  0  0  0
 20 19  1  0  0  0  0
 21 18  1  0  0  0  0
 21 20  1  0  0  0  0
 22 19  1  0  0  0  0
 23  5  1  0  0  0  0
 24 23  1  0  0  0  0
 26 25  1  1  0  0  0
 26 24  1  0  0  0  0
 27 26  1  0  0  0  0
 27 28  2  0  0  0  0
 29 27  1  0  0  0  0
 31 30  1  6  0  0  0
 31 29  1  0  0  0  0
 32 34  1  0  0  0  0
 33 36  1  0  0  0  0
 34 36  1  0  0  0  0
 34 31  1  0  0  0  0
 35 32  1  0  0  0  0
 35 33  1  0  0  0  0
M  END
>  <MODEL>
1

>  <REMARK>
 VINA RESULT:      -9.8      0.000      0.000
  Name = 
  10 active torsions:
  status: ('A' for Active; 'I' for Inactive)
    1  A    between atoms: N_5  and  C_7
    2  A    between atoms: C_7  and  C_32
    3  A    between atoms: C_11  and  C_21
    4  A    between atoms: C_14  and  C_35
    5  A    between atoms: C_20  and  C_31
    6  A    between atoms: C_20  and  C_34
    7  A    between atoms: C_21  and  C_25
    8  A    between atoms: C_25  and  C_31
    9  A    between atoms: C_26  and  C_27
   10  A    between atoms: C_27  and  C_34
                            x       y       z     vdW  Elec       q    Type
                         _______ _______ _______ _____ _____    ______ ____

>  <TORSDO>
F 10

$$$$
=
 OpenBabel10222419423D

 36 40  0  0  1  0  0  0  0  0999 V2000
  187.0020  177.8830  146.6540 C   0  0  0  0  0  3  0  0  0  0  0  0
  185.8000  178.3130  144.6120 C   0  0  0  0  0  0  0  0  0  0  0  0
  184.7390  178.5180  146.7450 N   0  0  0  0  0  0  0  0  0  0  0  0
  183.3860  179.0350  143.3810 C   0  0  0  0  0  3  0  0  0  0  0  0
  186.9900  177.9530  145.2610 C   0  0  0  0  0  0  0  0  0  0  0  0
  185.7140  178.3950  143.2150 C   0  0  0  0  0  3  0  0  0  0  0  0
  183.4600  178.9590  144.7750 C   0  0  0  0  0  3  0  0  0  0  0  0
  184.6620  178.5990  145.3920 C   0  0  0  0  0  0  0  0  0  0  0  0
  185.8740  178.1710  147.3560 N   0  0  0  0  0  0  0  0  0  0  0  0
  184.5120  178.7530  142.5950 C   0  0  0  0  0  0  0  0  0  0  0  0
  184.4390  178.8260  141.1300 C   0  0  0  0  0  0  0  0  0  0  0  0
  184.7170  179.5850  139.1550 N   0  0  0  0  0  0  0  0  0  0  0  0
  184.9340  179.8080  140.4150 O   0  0  0  0  0  0  0  0  0  0  0  0
  183.8610  177.8900  140.3520 N   0  0  0  0  0  0  0  0  0  0  0  0
  184.0540  178.4150  139.1240 C   0  0  0  0  0  0  0  0  0  0  0  0
  183.6370  177.7440  137.8540 C   0  0  2  0  0  3  0  0  0  0  0  0
  182.2530  177.5210  137.8410 O   0  0  0  0  0  1  0  0  0  0  0  0
  184.8780  174.7210  136.1110 C   0  0  0  0  0  2  0  0  0  0  0  0
  184.3980  176.5080  137.6380 N   0  0  0  0  0  0  0  0  0  0  0  0
  185.7520  176.8710  137.2470 C   0  0  0  0  0  2  0  0  0  0  0  0
  186.5010  175.4910  136.3290 S   0  0  0  0  0  0  0  0  0  0  0  0
  183.8430  175.7360  136.5310 C   0  0  0  0  0  2  0  0  0  0  0  0
  188.2310  177.6160  144.4980 C   0  0  0  0  0  2  0  0  0  0  0  0
  189.2430  176.9530  145.4190 C   0  0  0  0  0  2  0  0  0  0  0  0
  191.5120  177.1660  146.2610 N   0  0  0  0  0  1  0  0  0  0  0  0
  190.6290  177.5210  145.1630 C   0  0  1  0  0  3  0  0  0  0  0  0
  191.1880  177.0010  143.8720 C   0  0  0  0  0  0  0  0  0  0  0  0
  191.6760  175.8810  143.8150 O   0  0  0  0  0  0  0  0  0  0  0  0
  191.1070  177.8520  142.6400 C   0  0  0  0  0  2  0  0  0  0  0  0
  192.3490  177.5860  140.5440 N   0  0  0  0  0  1  0  0  0  0  0  0
  191.2540  177.0510  141.3410 C   0  0  2  0  0  3  0  0  0  0  0  0
  190.1640  177.5680  139.1320 C   0  0  0  0  0  2  0  0  0  0  0  0
  187.9980  178.2910  139.9910 C   0  0  0  0  0  2  0  0  0  0  0  0
  189.9590  177.0080  140.5250 C   0  0  0  0  0  3  0  0  0  0  0  0
  188.8550  178.2300  138.7400 C   0  0  0  0  0  2  0  0  0  0  0  0
  188.8910  177.8850  141.1420 C   0  0  0  0  0  2  0  0  0  0  0  0
  1  9  1  0  0  0  0
  2  5  1  0  0  0  0
  2  8  1  0  0  0  0
  3  9  2  0  0  0  0
  4  7  1  0  0  0  0
  5  1  2  0  0  0  0
  6  2  2  0  0  0  0
  7  8  2  0  0  0  0
  8  3  1  0  0  0  0
 10  6  1  0  0  0  0
 10  4  2  0  0  0  0
 11 10  1  0  0  0  0
 12 13  1  0  0  0  0
 13 11  1  0  0  0  0
 14 11  2  0  0  0  0
 15 12  2  0  0  0  0
 15 14  1  0  0  0  0
 16 17  1  1  0  0  0
 16 15  1  0  0  0  0
 18 21  1  0  0  0  0
 18 22  1  0  0  0  0
 19 16  1  0  0  0  0
 20 19  1  0  0  0  0
 21 20  1  0  0  0  0
 22 19  1  0  0  0  0
 23  5  1  0  0  0  0
 23 24  1  0  0  0  0
 26 24  1  0  0  0  0
 26 25  1  1  0  0  0
 27 26  1  0  0  0  0
 28 27  2  0  0  0  0
 29 27  1  0  0  0  0
 31 30  1  6  0  0  0
 31 29  1  0  0  0  0
 32 34  1  0  0  0  0
 33 36  1  0  0  0  0
 34 36  1  0  0  0  0
 34 31  1  0  0  0  0
 35 32  1  0  0  0  0
 35 33  1  0  0  0  0
M  END
>  <MODEL>
2

>  <REMARK>
 VINA RESULT:      -9.7      2.538      4.941
  Name = 
  10 active torsions:
  status: ('A' for Active; 'I' for Inactive)
    1  A    between atoms: N_5  and  C_7
    2  A    between atoms: C_7  and  C_32
    3  A    between atoms: C_11  and  C_21
    4  A    between atoms: C_14  and  C_35
    5  A    between atoms: C_20  and  C_31
    6  A    between atoms: C_20  and  C_34
    7  A    between atoms: C_21  and  C_25
    8  A    between atoms: C_25  and  C_31
    9  A    between atoms: C_26  and  C_27
   10  A    between atoms: C_27  and  C_34
                            x       y       z     vdW  Elec       q    Type
                         _______ _______ _______ _____ _____    ______ ____

>  <TORSDO>
F 10

$$$$
=
 OpenBabel10222419423D

 36 40  0  0  1  0  0  0  0  0999 V2000
  189.5080  177.1050  146.7320 C   0  0  0  0  0  3  0  0  0  0  0  0
  187.4560  177.7360  145.6420 C   0  0  0  0  0  0  0  0  0  0  0  0
  187.7300  177.9700  148.0050 N   0  0  0  0  0  0  0  0  0  0  0  0
  184.8540  178.7520  145.8780 C   0  0  0  0  0  3  0  0  0  0  0  0
  188.7610  177.2280  145.5610 C   0  0  0  0  0  0  0  0  0  0  0  0
  186.6460  177.8780  144.5060 C   0  0  0  0  0  3  0  0  0  0  0  0
  185.6530  178.6170  147.0170 C   0  0  0  0  0  3  0  0  0  0  0  0
  186.9500  178.1090  146.9030 C   0  0  0  0  0  0  0  0  0  0  0  0
  188.9700  177.4830  147.9220 N   0  0  0  0  0  0  0  0  0  0  0  0
  185.3450  178.3840  144.6190 C   0  0  0  0  0  0  0  0  0  0  0  0
  184.5090  178.5190  143.4190 C   0  0  0  0  0  0  0  0  0  0  0  0
  182.7520  178.7250  142.2260 N   0  0  0  0  0  0  0  0  0  0  0  0
  183.2010  178.6100  143.4380 O   0  0  0  0  0  0  0  0  0  0  0  0
  184.9910  178.5720  142.1610 N   0  0  0  0  0  0  0  0  0  0  0  0
  183.8500  178.6920  141.4500 C   0  0  0  0  0  0  0  0  0  0  0  0
  183.8060  178.8400  139.9620 C   0  0  2  0  0  3  0  0  0  0  0  0
  184.7250  179.8060  139.5310 O   0  0  0  0  0  1  0  0  0  0  0  0
  181.1040  180.3340  137.9170 C   0  0  0  0  0  2  0  0  0  0  0  0
  182.4430  179.1320  139.5030 N   0  0  0  0  0  0  0  0  0  0  0  0
  182.0010  178.0280  138.6630 C   0  0  0  0  0  2  0  0  0  0  0  0
  180.6850  178.6110  137.5520 S   0  0  0  0  0  0  0  0  0  0  0  0
  182.4150  180.3240  138.6640 C   0  0  0  0  0  2  0  0  0  0  0  0
  189.3570  176.7920  144.2600 C   0  0  0  0  0  2  0  0  0  0  0  0
  190.0520  177.9640  143.5880 C   0  0  0  0  0  2  0  0  0  0  0  0
  191.6970  176.1840  143.4280 N   0  0  0  0  0  1  0  0  0  0  0  0
  191.3340  177.4950  142.9200 C   0  0  1  0  0  3  0  0  0  0  0  0
  191.1690  177.4380  141.4310 C   0  0  0  0  0  0  0  0  0  0  0  0
  192.1280  177.6170  140.6950 O   0  0  0  0  0  0  0  0  0  0  0  0
  189.8220  177.1190  140.8530 C   0  0  0  0  0  2  0  0  0  0  0  0
  187.9310  178.5020  140.1330 N   0  0  0  0  0  1  0  0  0  0  0  0
  189.3240  178.1770  139.8610 C   0  0  2  0  0  3  0  0  0  0  0  0
  189.0690  178.8400  137.4460 C   0  0  0  0  0  2  0  0  0  0  0  0
  188.3810  176.6670  136.5750 C   0  0  0  0  0  2  0  0  0  0  0  0
  189.5080  177.7480  138.4020 C   0  0  0  0  0  3  0  0  0  0  0  0
  188.5140  178.1370  136.2210 C   0  0  0  0  0  2  0  0  0  0  0  0
  188.6330  176.5610  138.0630 C   0  0  0  0  0  2  0  0  0  0  0  0
  1  9  1  0  0  0  0
  2  8  1  0  0  0  0
  4  7  1  0  0  0  0
  5  2  1  0  0  0  0
  5  1  2  0  0  0  0
  6 10  1  0  0  0  0
  6  2  2  0  0  0  0
  8  7  2  0  0  0  0
  8  3  1  0  0  0  0
  9  3  2  0  0  0  0
 10  4  2  0  0  0  0
 11 13  1  0  0  0  0
 11 10  1  0  0  0  0
 12 13  1  0  0  0  0
 14 11  2  0  0  0  0
 15 14  1  0  0  0  0
 15 12  2  0  0  0  0
 16 17  1  1  0  0  0
 16 15  1  0  0  0  0
 18 22  1  0  0  0  0
 19 16  1  0  0  0  0
 20 19  1  0  0  0  0
 21 18  1  0  0  0  0
 21 20  1  0  0  0  0
 22 19  1  0  0  0  0
 23  5  1  0  0  0  0
 24 23  1  0  0  0  0
 26 25  1  1  0  0  0
 26 24  1  0  0  0  0
 27 26  1  0  0  0  0
 28 27  2  0  0  0  0
 29 27  1  0  0  0  0
 31 30  1  1  0  0  0
 31 29  1  0  0  0  0
 32 34  1  0  0  0  0
 33 36  1  0  0  0  0
 34 31  1  0  0  0  0
 35 33  1  0  0  0  0
 35 32  1  0  0  0  0
 36 34  1  0  0  0  0
M  END
>  <MODEL>
3

>  <REMARK>
 VINA RESULT:      -9.7      2.055      2.921
  Name = 
  10 active torsions:
  status: ('A' for Active; 'I' for Inactive)
    1  A    between atoms: N_5  and  C_7
    2  A    between atoms: C_7  and  C_32
    3  A    between atoms: C_11  and  C_21
    4  A    between atoms: C_14  and  C_35
    5  A    between atoms: C_20  and  C_31
    6  A    between atoms: C_20  and  C_34
    7  A    between atoms: C_21  and  C_25
    8  A    between atoms: C_25  and  C_31
    9  A    between atoms: C_26  and  C_27
   10  A    between atoms: C_27  and  C_34
                            x       y       z     vdW  Elec       q    Type
                         _______ _______ _______ _____ _____    ______ ____

>  <TORSDO>
F 10

$$$$
=
 OpenBabel10222419423D

 36 40  0  0  1  0  0  0  0  0999 V2000
  189.3840  177.1700  146.8680 C   0  0  0  0  0  3  0  0  0  0  0  0
  187.3800  177.7680  145.6740 C   0  0  0  0  0  0  0  0  0  0  0  0
  187.5250  177.9940  148.0500 N   0  0  0  0  0  0  0  0  0  0  0  0
  184.7500  178.7330  145.7770 C   0  0  0  0  0  3  0  0  0  0  0  0
  188.6970  177.2850  145.6600 C   0  0  0  0  0  0  0  0  0  0  0  0
  186.6280  177.9010  144.4980 C   0  0  0  0  0  3  0  0  0  0  0  0
  185.4910  178.6070  146.9560 C   0  0  0  0  0  3  0  0  0  0  0  0
  186.8020  178.1250  146.9080 C   0  0  0  0  0  0  0  0  0  0  0  0
  188.7770  177.5320  148.0300 N   0  0  0  0  0  0  0  0  0  0  0  0
  185.3140  178.3800  144.5440 C   0  0  0  0  0  0  0  0  0  0  0  0
  184.5400  178.5060  143.3030 C   0  0  0  0  0  0  0  0  0  0  0  0
  182.8530  178.7720  142.0230 N   0  0  0  0  0  0  0  0  0  0  0  0
  183.2430  178.6970  143.2580 O   0  0  0  0  0  0  0  0  0  0  0  0
  185.0740  178.4460  142.0660 N   0  0  0  0  0  0  0  0  0  0  0  0
  183.9760  178.6090  141.2990 C   0  0  0  0  0  0  0  0  0  0  0  0
  184.0030  178.6710  139.8050 C   0  0  2  0  0  3  0  0  0  0  0  0
  184.3070  179.9660  139.3660 O   0  0  0  0  0  1  0  0  0  0  0  0
  181.2590  178.2510  137.3530 C   0  0  0  0  0  2  0  0  0  0  0  0
  182.7440  178.1760  139.2360 N   0  0  0  0  0  0  0  0  0  0  0  0
  182.9890  176.8560  138.6720 C   0  0  0  0  0  2  0  0  0  0  0  0
  181.7360  176.5060  137.4010 S   0  0  0  0  0  0  0  0  0  0  0  0
  182.3000  179.0190  138.1320 C   0  0  0  0  0  2  0  0  0  0  0  0
  189.3690  176.8680  144.3910 C   0  0  0  0  0  2  0  0  0  0  0  0
  190.3990  177.9070  143.9810 C   0  0  0  0  0  2  0  0  0  0  0  0
  191.6550  175.8430  143.7250 N   0  0  0  0  0  1  0  0  0  0  0  0
  191.5790  177.2310  143.3030 C   0  0  1  0  0  3  0  0  0  0  0  0
  191.4490  177.3040  141.8110 C   0  0  0  0  0  0  0  0  0  0  0  0
  192.3610  177.7540  141.1320 O   0  0  0  0  0  0  0  0  0  0  0  0
  190.2050  176.7850  141.1550 C   0  0  0  0  0  2  0  0  0  0  0  0
  188.2800  178.2970  141.0210 N   0  0  0  0  0  1  0  0  0  0  0  0
  189.4740  177.8440  140.3210 C   0  0  2  0  0  3  0  0  0  0  0  0
  190.2140  176.4540  138.3570 C   0  0  0  0  0  2  0  0  0  0  0  0
  189.3540  177.8950  136.5860 C   0  0  0  0  0  2  0  0  0  0  0  0
  189.1240  177.3470  138.9150 C   0  0  0  0  0  3  0  0  0  0  0  0
  190.2320  176.6860  136.8570 C   0  0  0  0  0  2  0  0  0  0  0  0
  189.0240  178.4950  137.9350 C   0  0  0  0  0  2  0  0  0  0  0  0
  1  9  1  0  0  0  0
  2  8  1  0  0  0  0
  4  7  1  0  0  0  0
  5  2  1  0  0  0  0
  5  1  2  0  0  0  0
  6 10  1  0  0  0  0
  6  2  2  0  0  0  0
  8  7  2  0  0  0  0
  8  3  1  0  0  0  0
  9  3  2  0  0  0  0
 10  4  2  0  0  0  0
 11 10  1  0  0  0  0
 12 13  1  0  0  0  0
 13 11  1  0  0  0  0
 14 11  2  0  0  0  0
 15 12  2  0  0  0  0
 15 14  1  0  0  0  0
 16 17  1  1  0  0  0
 16 15  1  0  0  0  0
 18 21  1  0  0  0  0
 18 22  1  0  0  0  0
 19 16  1  0  0  0  0
 20 19  1  0  0  0  0
 21 20  1  0  0  0  0
 22 19  1  0  0  0  0
 23  5  1  0  0  0  0
 24 23  1  0  0  0  0
 26 25  1  1  0  0  0
 26 24  1  0  0  0  0
 27 26  1  0  0  0  0
 28 27  2  0  0  0  0
 29 27  1  0  0  0  0
 31 30  1  1  0  0  0
 31 29  1  0  0  0  0
 32 34  1  0  0  0  0
 33 35  1  0  0  0  0
 33 36  1  0  0  0  0
 34 31  1  0  0  0  0
 35 32  1  0  0  0  0
 36 34  1  0  0  0  0
M  END
>  <MODEL>
4

>  <REMARK>
 VINA RESULT:      -9.6      2.081      3.112
  Name = 
  10 active torsions:
  status: ('A' for Active; 'I' for Inactive)
    1  A    between atoms: N_5  and  C_7
    2  A    between atoms: C_7  and  C_32
    3  A    between atoms: C_11  and  C_21
    4  A    between atoms: C_14  and  C_35
    5  A    between atoms: C_20  and  C_31
    6  A    between atoms: C_20  and  C_34
    7  A    between atoms: C_21  and  C_25
    8  A    between atoms: C_25  and  C_31
    9  A    between atoms: C_26  and  C_27
   10  A    between atoms: C_27  and  C_34
                            x       y       z     vdW  Elec       q    Type
                         _______ _______ _______ _____ _____    ______ ____

>  <TORSDO>
F 10

$$$$
=
 OpenBabel10222419423D

 36 40  0  0  1  0  0  0  0  0999 V2000
  190.4660  177.1260  140.9090 C   0  0  0  0  0  3  0  0  0  0  0  0
  188.3680  177.7230  139.8880 C   0  0  0  0  0  0  0  0  0  0  0  0
  190.1400  176.7500  138.6100 N   0  0  0  0  0  0  0  0  0  0  0  0
  186.8050  177.8420  137.5640 C   0  0  0  0  0  3  0  0  0  0  0  0
  189.1790  177.6510  141.0300 C   0  0  0  0  0  0  0  0  0  0  0  0
  187.0690  178.2470  139.9360 C   0  0  0  0  0  3  0  0  0  0  0  0
  188.0980  177.3150  137.5050 C   0  0  0  0  0  3  0  0  0  0  0  0
  188.8800  177.2550  138.6620 C   0  0  0  0  0  0  0  0  0  0  0  0
  190.9080  176.6870  139.7010 N   0  0  0  0  0  0  0  0  0  0  0  0
  186.2840  178.3110  138.7780 C   0  0  0  0  0  0  0  0  0  0  0  0
  184.9280  178.8690  138.8460 C   0  0  0  0  0  0  0  0  0  0  0  0
  183.3760  180.3130  139.0920 N   0  0  0  0  0  0  0  0  0  0  0  0
  184.6600  180.1260  139.1070 O   0  0  0  0  0  0  0  0  0  0  0  0
  183.8030  178.1550  138.6420 N   0  0  0  0  0  0  0  0  0  0  0  0
  182.8570  179.1020  138.8150 C   0  0  0  0  0  0  0  0  0  0  0  0
  181.3910  178.8570  138.6540 C   0  0  2  0  0  3  0  0  0  0  0  0
  180.7120  180.0550  138.3930 O   0  0  0  0  0  1  0  0  0  0  0  0
  178.9380  177.8840  141.2520 C   0  0  0  0  0  2  0  0  0  0  0  0
  180.8440  178.1550  139.8210 N   0  0  0  0  0  0  0  0  0  0  0  0
  180.3940  176.8400  139.3900 C   0  0  0  0  0  2  0  0  0  0  0  0
  179.1360  176.2270  140.5510 S   0  0  0  0  0  0  0  0  0  0  0  0
  179.6680  178.8420  140.3430 C   0  0  0  0  0  2  0  0  0  0  0  0
  188.7110  178.1470  142.3610 C   0  0  0  0  0  2  0  0  0  0  0  0
  188.3360  176.9730  143.2510 C   0  0  0  0  0  2  0  0  0  0  0  0
  189.8760  178.2630  144.6170 N   0  0  0  0  0  1  0  0  0  0  0  0
  188.9340  177.1570  144.6350 C   0  0  1  0  0  3  0  0  0  0  0  0
  187.8600  177.4200  145.6480 C   0  0  0  0  0  0  0  0  0  0  0  0
  188.1500  177.6280  146.8180 O   0  0  0  0  0  0  0  0  0  0  0  0
  186.4280  177.4660  145.2070 C   0  0  0  0  0  2  0  0  0  0  0  0
  184.9650  178.6290  146.7930 N   0  0  0  0  0  1  0  0  0  0  0  0
  185.7270  178.7820  145.5620 C   0  0  2  0  0  3  0  0  0  0  0  0
  183.3670  179.0350  144.7210 C   0  0  0  0  0  2  0  0  0  0  0  0
  183.8120  178.6380  142.3560 C   0  0  0  0  0  2  0  0  0  0  0  0
  184.8320  179.2960  144.4300 C   0  0  0  0  0  3  0  0  0  0  0  0
  182.7010  178.7880  143.3800 C   0  0  0  0  0  2  0  0  0  0  0  0
  185.1060  178.5630  143.1350 C   0  0  0  0  0  2  0  0  0  0  0  0
  1  5  1  0  0  0  0
  2  6  1  0  0  0  0
  2  5  2  0  0  0  0
  3  8  2  0  0  0  0
  3  9  1  0  0  0  0
  4 10  1  0  0  0  0
  5 23  1  0  0  0  0
  7  4  2  0  0  0  0
  7  8  1  0  0  0  0
  8  2  1  0  0  0  0
  9  1  2  0  0  0  0
 10 11  1  0  0  0  0
 10  6  2  0  0  0  0
 11 13  1  0  0  0  0
 12 13  1  0  0  0  0
 14 15  1  0  0  0  0
 14 11  2  0  0  0  0
 15 12  2  0  0  0  0
 16 17  1  1  0  0  0
 16 15  1  0  0  0  0
 16 19  1  0  0  0  0
 19 22  1  0  0  0  0
 20 19  1  0  0  0  0
 20 21  1  0  0  0  0
 21 18  1  0  0  0  0
 22 18  1  0  0  0  0
 23 24  1  0  0  0  0
 24 26  1  0  0  0  0
 26 25  1  6  0  0  0
 26 27  1  0  0  0  0
 27 28  2  0  0  0  0
 29 31  1  0  0  0  0
 29 27  1  0  0  0  0
 31 30  1  1  0  0  0
 33 36  1  0  0  0  0
 33 35  1  0  0  0  0
 34 32  1  0  0  0  0
 34 31  1  0  0  0  0
 35 32  1  0  0  0  0
 36 34  1  0  0  0  0
M  END
>  <MODEL>
5

>  <REMARK>
 VINA RESULT:      -9.1      2.656      6.936
  Name = 
  10 active torsions:
  status: ('A' for Active; 'I' for Inactive)
    1  A    between atoms: N_5  and  C_7
    2  A    between atoms: C_7  and  C_32
    3  A    between atoms: C_11  and  C_21
    4  A    between atoms: C_14  and  C_35
    5  A    between atoms: C_20  and  C_31
    6  A    between atoms: C_20  and  C_34
    7  A    between atoms: C_21  and  C_25
    8  A    between atoms: C_25  and  C_31
    9  A    between atoms: C_26  and  C_27
   10  A    between atoms: C_27  and  C_34
                            x       y       z     vdW  Elec       q    Type
                         _______ _______ _______ _____ _____    ______ ____

>  <TORSDO>
F 10

$$$$
=
 OpenBabel10222419423D

 36 40  0  0  1  0  0  0  0  0999 V2000
  189.9640  177.1750  147.4410 C   0  0  0  0  0  3  0  0  0  0  0  0
  189.9080  177.2910  145.0360 C   0  0  0  0  0  0  0  0  0  0  0  0
  191.6830  176.1750  146.1860 N   0  0  0  0  0  0  0  0  0  0  0  0
  191.1310  176.6490  142.5970 C   0  0  0  0  0  3  0  0  0  0  0  0
  189.3260  177.5970  146.2750 C   0  0  0  0  0  0  0  0  0  0  0  0
  189.3250  177.6920  143.8260 C   0  0  0  0  0  3  0  0  0  0  0  0
  191.7200  176.2420  143.7980 C   0  0  0  0  0  3  0  0  0  0  0  0
  191.1130  176.5620  145.0150 C   0  0  0  0  0  0  0  0  0  0  0  0
  191.1250  176.4720  147.3610 N   0  0  0  0  0  0  0  0  0  0  0  0
  189.9330  177.3750  142.6050 C   0  0  0  0  0  0  0  0  0  0  0  0
  189.3110  177.8090  141.3470 C   0  0  0  0  0  0  0  0  0  0  0  0
  187.8530  178.6280  140.0220 N   0  0  0  0  0  0  0  0  0  0  0  0
  188.1180  178.3480  141.2610 O   0  0  0  0  0  0  0  0  0  0  0  0
  189.8980  177.7100  140.1370 N   0  0  0  0  0  0  0  0  0  0  0  0
  188.9420  178.2280  139.3390 C   0  0  0  0  0  0  0  0  0  0  0  0
  189.0920  178.4030  137.8620 C   0  0  2  0  0  3  0  0  0  0  0  0
  188.9620  179.7520  137.5060 O   0  0  0  0  0  1  0  0  0  0  0  0
  186.1710  177.4850  135.7780 C   0  0  0  0  0  2  0  0  0  0  0  0
  188.1500  177.5460  137.1320 N   0  0  0  0  0  0  0  0  0  0  0  0
  188.7400  177.2190  135.8420 C   0  0  0  0  0  2  0  0  0  0  0  0
  187.4190  176.7800  134.6730 S   0  0  0  0  0  0  0  0  0  0  0  0
  186.9070  178.2540  136.8480 C   0  0  0  0  0  2  0  0  0  0  0  0
  188.0590  178.3850  146.3760 C   0  0  0  0  0  2  0  0  0  0  0  0
  186.8940  177.4600  146.6880 C   0  0  0  0  0  2  0  0  0  0  0  0
  185.4150  179.3780  146.8750 N   0  0  0  0  0  1  0  0  0  0  0  0
  185.5900  178.0900  146.2270 C   0  0  1  0  0  3  0  0  0  0  0  0
  185.5810  178.2640  144.7380 C   0  0  0  0  0  0  0  0  0  0  0  0
  186.0320  177.3910  144.0100 O   0  0  0  0  0  0  0  0  0  0  0  0
  184.9770  179.5020  144.1450 C   0  0  0  0  0  2  0  0  0  0  0  0
  182.7280  178.6280  144.5790 N   0  0  0  0  0  1  0  0  0  0  0  0
  183.5680  179.2780  143.5830 C   0  0  2  0  0  3  0  0  0  0  0  0
  184.6270  179.0030  141.3160 C   0  0  0  0  0  2  0  0  0  0  0  0
  182.6100  178.4140  140.0760 C   0  0  0  0  0  2  0  0  0  0  0  0
  183.5760  178.4810  142.2760 C   0  0  0  0  0  3  0  0  0  0  0  0
  184.0700  178.7970  139.9180 C   0  0  0  0  0  2  0  0  0  0  0  0
  182.2650  178.6280  141.5330 C   0  0  0  0  0  2  0  0  0  0  0  0
  2  5  1  0  0  0  0
  3  9  2  0  0  0  0
  4 10  2  0  0  0  0
  4  7  1  0  0  0  0
  5 23  1  0  0  0  0
  5  1  2  0  0  0  0
  6  2  2  0  0  0  0
  7  8  2  0  0  0  0
  8  2  1  0  0  0  0
  8  3  1  0  0  0  0
  9  1  1  0  0  0  0
 10  6  1  0  0  0  0
 11 10  1  0  0  0  0
 12 13  1  0  0  0  0
 13 11  1  0  0  0  0
 14 11  2  0  0  0  0
 15 12  2  0  0  0  0
 15 14  1  0  0  0  0
 16 17  1  1  0  0  0
 16 15  1  0  0  0  0
 18 22  1  0  0  0  0
 19 16  1  0  0  0  0
 20 19  1  0  0  0  0
 21 18  1  0  0  0  0
 21 20  1  0  0  0  0
 22 19  1  0  0  0  0
 23 24  1  0  0  0  0
 26 24  1  0  0  0  0
 26 25  1  1  0  0  0
 27 26  1  0  0  0  0
 28 27  2  0  0  0  0
 29 27  1  0  0  0  0
 31 29  1  0  0  0  0
 31 30  1  1  0  0  0
 32 34  1  0  0  0  0
 33 36  1  0  0  0  0
 34 31  1  0  0  0  0
 35 33  1  0  0  0  0
 35 32  1  0  0  0  0
 36 34  1  0  0  0  0
M  END
>  <MODEL>
6

>  <REMARK>
 VINA RESULT:      -9.1      1.826      6.196
  Name = 
  10 active torsions:
  status: ('A' for Active; 'I' for Inactive)
    1  A    between atoms: N_5  and  C_7
    2  A    between atoms: C_7  and  C_32
    3  A    between atoms: C_11  and  C_21
    4  A    between atoms: C_14  and  C_35
    5  A    between atoms: C_20  and  C_31
    6  A    between atoms: C_20  and  C_34
    7  A    between atoms: C_21  and  C_25
    8  A    between atoms: C_25  and  C_31
    9  A    between atoms: C_26  and  C_27
   10  A    between atoms: C_27  and  C_34
                            x       y       z     vdW  Elec       q    Type
                         _______ _______ _______ _____ _____    ______ ____

>  <TORSDO>
F 10

$$$$
=
 OpenBabel10222419423D

 36 40  0  0  1  0  0  0  0  0999 V2000
  187.5480  177.5610  147.4890 C   0  0  0  0  0  3  0  0  0  0  0  0
  188.6960  177.3910  145.3790 C   0  0  0  0  0  0  0  0  0  0  0  0
  189.8990  177.6260  147.4320 N   0  0  0  0  0  0  0  0  0  0  0  0
  191.1340  177.3450  143.9960 C   0  0  0  0  0  3  0  0  0  0  0  0
  187.4940  177.4210  146.1030 C   0  0  0  0  0  0  0  0  0  0  0  0
  188.7150  177.2610  143.9830 C   0  0  0  0  0  3  0  0  0  0  0  0
  191.1270  177.4720  145.3880 C   0  0  0  0  0  3  0  0  0  0  0  0
  189.9130  177.4960  146.0800 C   0  0  0  0  0  0  0  0  0  0  0  0
  188.7520  177.6570  148.1150 N   0  0  0  0  0  0  0  0  0  0  0  0
  189.9290  177.2390  143.2870 C   0  0  0  0  0  0  0  0  0  0  0  0
  189.9290  177.1100  141.8240 C   0  0  0  0  0  0  0  0  0  0  0  0
  190.3620  176.3120  139.8930 N   0  0  0  0  0  0  0  0  0  0  0  0
  190.5520  176.1610  141.1680 O   0  0  0  0  0  0  0  0  0  0  0  0
  189.2850  177.9490  140.9890 N   0  0  0  0  0  0  0  0  0  0  0  0
  189.5930  177.4120  139.7900 C   0  0  0  0  0  0  0  0  0  0  0  0
  189.0860  177.9360  138.4850 C   0  0  2  0  0  3  0  0  0  0  0  0
  189.0400  179.3370  138.4960 O   0  0  0  0  0  1  0  0  0  0  0  0
  185.8780  177.4500  136.6990 C   0  0  0  0  0  2  0  0  0  0  0  0
  187.7850  177.3440  138.1500 N   0  0  0  0  0  0  0  0  0  0  0  0
  188.0220  176.1580  137.3400 C   0  0  0  0  0  2  0  0  0  0  0  0
  186.5360  175.8000  136.3540 S   0  0  0  0  0  0  0  0  0  0  0  0
  186.9910  178.2510  137.3290 C   0  0  0  0  0  2  0  0  0  0  0  0
  186.1640  177.3350  145.4250 C   0  0  0  0  0  2  0  0  0  0  0  0
  185.7180  178.7180  144.9790 C   0  0  0  0  0  2  0  0  0  0  0  0
  183.6100  179.7490  144.3510 N   0  0  0  0  0  1  0  0  0  0  0  0
  184.4760  178.6090  144.1090 C   0  0  1  0  0  3  0  0  0  0  0  0
  184.8480  178.5500  142.6570 C   0  0  0  0  0  0  0  0  0  0  0  0
  185.9860  178.2550  142.3210 O   0  0  0  0  0  0  0  0  0  0  0  0
  183.8000  178.8170  141.6180 C   0  0  0  0  0  2  0  0  0  0  0  0
  184.6140  179.7590  139.5070 N   0  0  0  0  0  1  0  0  0  0  0  0
  184.2740  178.5190  140.1910 C   0  0  2  0  0  3  0  0  0  0  0  0
  182.0670  178.5800  138.9810 C   0  0  0  0  0  2  0  0  0  0  0  0
  181.2770  176.3610  139.6180 C   0  0  0  0  0  2  0  0  0  0  0  0
  183.2470  177.7180  139.3850 C   0  0  0  0  0  3  0  0  0  0  0  0
  180.8540  177.6660  138.9680 C   0  0  0  0  0  2  0  0  0  0  0  0
  182.6470  176.6020  140.2120 C   0  0  0  0  0  2  0  0  0  0  0  0
  1  9  1  0  0  0  0
  2  8  1  0  0  0  0
  2  5  1  0  0  0  0
  3  9  2  0  0  0  0
  4  7  1  0  0  0  0
  5  1  2  0  0  0  0
  6  2  2  0  0  0  0
  7  8  2  0  0  0  0
  8  3  1  0  0  0  0
 10  6  1  0  0  0  0
 10  4  2  0  0  0  0
 11 10  1  0  0  0  0
 12 13  1  0  0  0  0
 13 11  1  0  0  0  0
 14 11  2  0  0  0  0
 15 12  2  0  0  0  0
 15 14  1  0  0  0  0
 16 17  1  1  0  0  0
 16 15  1  0  0  0  0
 18 22  1  0  0  0  0
 19 16  1  0  0  0  0
 20 19  1  0  0  0  0
 21 18  1  0  0  0  0
 21 20  1  0  0  0  0
 22 19  1  0  0  0  0
 23  5  1  0  0  0  0
 24 23  1  0  0  0  0
 26 25  1  6  0  0  0
 26 24  1  0  0  0  0
 27 26  1  0  0  0  0
 28 27  2  0  0  0  0
 29 27  1  0  0  0  0
 31 30  1  6  0  0  0
 31 29  1  0  0  0  0
 32 34  1  0  0  0  0
 33 36  1  0  0  0  0
 34 31  1  0  0  0  0
 34 36  1  0  0  0  0
 35 32  1  0  0  0  0
 35 33  1  0  0  0  0
M  END
>  <MODEL>
7

>  <REMARK>
 VINA RESULT:      -9.0      1.957      5.877
  Name = 
  10 active torsions:
  status: ('A' for Active; 'I' for Inactive)
    1  A    between atoms: N_5  and  C_7
    2  A    between atoms: C_7  and  C_32
    3  A    between atoms: C_11  and  C_21
    4  A    between atoms: C_14  and  C_35
    5  A    between atoms: C_20  and  C_31
    6  A    between atoms: C_20  and  C_34
    7  A    between atoms: C_21  and  C_25
    8  A    between atoms: C_25  and  C_31
    9  A    between atoms: C_26  and  C_27
   10  A    between atoms: C_27  and  C_34
                            x       y       z     vdW  Elec       q    Type
                         _______ _______ _______ _____ _____    ______ ____

>  <TORSDO>
F 10

$$$$
=
 OpenBabel10222419423D

 36 40  0  0  1  0  0  0  0  0999 V2000
  188.3140  177.2610  146.6060 C   0  0  0  0  0  3  0  0  0  0  0  0
  189.2530  177.1400  144.3910 C   0  0  0  0  0  0  0  0  0  0  0  0
  190.6490  177.1760  146.3320 N   0  0  0  0  0  0  0  0  0  0  0  0
  191.5470  177.0170  142.7850 C   0  0  0  0  0  3  0  0  0  0  0  0
  188.1260  177.2060  145.2250 C   0  0  0  0  0  0  0  0  0  0  0  0
  189.1370  177.0910  142.9950 C   0  0  0  0  0  3  0  0  0  0  0  0
  191.6740  177.0630  144.1770 C   0  0  0  0  0  3  0  0  0  0  0  0
  190.5330  177.1260  144.9800 C   0  0  0  0  0  0  0  0  0  0  0  0
  189.5730  177.2410  147.1190 N   0  0  0  0  0  0  0  0  0  0  0  0
  190.2790  177.0320  142.1880 C   0  0  0  0  0  0  0  0  0  0  0  0
  190.1390  176.9880  140.7270 C   0  0  0  0  0  0  0  0  0  0  0  0
  190.2890  176.2500  138.7300 N   0  0  0  0  0  0  0  0  0  0  0  0
  190.5610  176.0000  139.9740 O   0  0  0  0  0  0  0  0  0  0  0  0
  189.5550  177.9560  139.9920 N   0  0  0  0  0  0  0  0  0  0  0  0
  189.6820  177.4510  138.7470 C   0  0  0  0  0  0  0  0  0  0  0  0
  189.1490  178.1160  137.5180 C   0  0  2  0  0  3  0  0  0  0  0  0
  188.6910  179.4080  137.8110 O   0  0  0  0  0  1  0  0  0  0  0  0
  185.7550  176.9250  136.6340 C   0  0  0  0  0  2  0  0  0  0  0  0
  188.1120  177.2940  136.8830 N   0  0  0  0  0  0  0  0  0  0  0  0
  187.9280  177.7690  135.5200 C   0  0  0  0  0  2  0  0  0  0  0  0
  186.2700  177.2980  134.9390 S   0  0  0  0  0  0  0  0  0  0  0  0
  186.8280  177.4580  137.5530 C   0  0  0  0  0  2  0  0  0  0  0  0
  186.7380  177.2460  144.6710 C   0  0  0  0  0  2  0  0  0  0  0  0
  186.0540  178.5420  145.0740 C   0  0  0  0  0  2  0  0  0  0  0  0
  183.9550  178.9880  146.2130 N   0  0  0  0  0  1  0  0  0  0  0  0
  184.5450  178.3670  145.0400 C   0  0  1  0  0  3  0  0  0  0  0  0
  183.9670  178.9740  143.7970 C   0  0  0  0  0  0  0  0  0  0  0  0
  182.7560  179.0450  143.6480 O   0  0  0  0  0  0  0  0  0  0  0  0
  184.8890  179.5310  142.7530 C   0  0  0  0  0  2  0  0  0  0  0  0
  186.2040  178.9880  140.7570 N   0  0  0  0  0  1  0  0  0  0  0  0
  185.0130  178.6340  141.5160 C   0  0  2  0  0  3  0  0  0  0  0  0
  183.2950  177.2910  140.2580 C   0  0  0  0  0  2  0  0  0  0  0  0
  183.0650  178.7670  138.3300 C   0  0  0  0  0  2  0  0  0  0  0  0
  183.7670  178.6830  140.6260 C   0  0  0  0  0  3  0  0  0  0  0  0
  182.6980  177.3960  138.8660 C   0  0  0  0  0  2  0  0  0  0  0  0
  184.0610  179.3560  139.3030 C   0  0  0  0  0  2  0  0  0  0  0  0
  1  9  1  0  0  0  0
  2  8  1  0  0  0  0
  2  5  1  0  0  0  0
  3  9  2  0  0  0  0
  4  7  1  0  0  0  0
  5  1  2  0  0  0  0
  6  2  2  0  0  0  0
  7  8  2  0  0  0  0
  8  3  1  0  0  0  0
 10  4  2  0  0  0  0
 10  6  1  0  0  0  0
 11 10  1  0  0  0  0
 12 15  2  0  0  0  0
 12 13  1  0  0  0  0
 13 11  1  0  0  0  0
 14 11  2  0  0  0  0
 15 14  1  0  0  0  0
 16 17  1  1  0  0  0
 16 15  1  0  0  0  0
 18 22  1  0  0  0  0
 19 16  1  0  0  0  0
 19 22  1  0  0  0  0
 20 19  1  0  0  0  0
 21 20  1  0  0  0  0
 21 18  1  0  0  0  0
 23 24  1  0  0  0  0
 23  5  1  0  0  0  0
 26 24  1  0  0  0  0
 26 25  1  1  0  0  0
 27 26  1  0  0  0  0
 28 27  2  0  0  0  0
 29 27  1  0  0  0  0
 31 30  1  6  0  0  0
 31 29  1  0  0  0  0
 32 34  1  0  0  0  0
 33 35  1  0  0  0  0
 33 36  1  0  0  0  0
 34 31  1  0  0  0  0
 35 32  1  0  0  0  0
 36 34  1  0  0  0  0
M  END
>  <MODEL>
8

>  <REMARK>
 VINA RESULT:      -9.0      1.952      6.135
  Name = 
  10 active torsions:
  status: ('A' for Active; 'I' for Inactive)
    1  A    between atoms: N_5  and  C_7
    2  A    between atoms: C_7  and  C_32
    3  A    between atoms: C_11  and  C_21
    4  A    between atoms: C_14  and  C_35
    5  A    between atoms: C_20  and  C_31
    6  A    between atoms: C_20  and  C_34
    7  A    between atoms: C_21  and  C_25
    8  A    between atoms: C_25  and  C_31
    9  A    between atoms: C_26  and  C_27
   10  A    between atoms: C_27  and  C_34
                            x       y       z     vdW  Elec       q    Type
                         _______ _______ _______ _____ _____    ______ ____

>  <TORSDO>
F 10

$$$$
=
 OpenBabel10222419423D

 36 40  0  0  1  0  0  0  0  0999 V2000
  184.1830  178.6540  145.8690 C   0  0  0  0  0  3  0  0  0  0  0  0
  186.1430  178.0930  144.5870 C   0  0  0  0  0  0  0  0  0  0  0  0
  186.2020  178.1750  146.9760 N   0  0  0  0  0  0  0  0  0  0  0  0
  188.8600  177.4030  144.5790 C   0  0  0  0  0  3  0  0  0  0  0  0
  184.7850  178.4430  144.6290 C   0  0  0  0  0  0  0  0  0  0  0  0
  186.8140  177.8750  143.3760 C   0  0  0  0  0  3  0  0  0  0  0  0
  188.2010  177.6160  145.7940 C   0  0  0  0  0  3  0  0  0  0  0  0
  186.8470  177.9610  145.8010 C   0  0  0  0  0  0  0  0  0  0  0  0
  184.9100  178.5110  147.0090 N   0  0  0  0  0  0  0  0  0  0  0  0
  188.1710  177.5320  143.3660 C   0  0  0  0  0  0  0  0  0  0  0  0
  188.8590  177.3130  142.0870 C   0  0  0  0  0  0  0  0  0  0  0  0
  190.1800  176.4400  140.6570 N   0  0  0  0  0  0  0  0  0  0  0  0
  189.7620  176.3840  141.8840 O   0  0  0  0  0  0  0  0  0  0  0  0
  188.6370  178.0400  140.9730 N   0  0  0  0  0  0  0  0  0  0  0  0
  189.4940  177.4590  140.1080 C   0  0  0  0  0  0  0  0  0  0  0  0
  189.6280  177.8560  138.6720 C   0  0  2  0  0  3  0  0  0  0  0  0
  188.8720  179.0040  138.4010 O   0  0  0  0  0  1  0  0  0  0  0  0
  187.8330  175.9970  136.0200 C   0  0  0  0  0  2  0  0  0  0  0  0
  189.2780  176.7420  137.7830 N   0  0  0  0  0  0  0  0  0  0  0  0
  190.2220  176.7300  136.6760 C   0  0  0  0  0  2  0  0  0  0  0  0
  189.4690  175.8790  135.2560 S   0  0  0  0  0  0  0  0  0  0  0  0
  187.9560  176.9340  137.1960 C   0  0  0  0  0  2  0  0  0  0  0  0
  183.9800  178.6210  143.3810 C   0  0  0  0  0  2  0  0  0  0  0  0
  182.7030  179.3840  143.6910 C   0  0  0  0  0  2  0  0  0  0  0  0
  180.4410  178.6220  144.1430 N   0  0  0  0  0  1  0  0  0  0  0  0
  181.5000  178.6290  143.1490 C   0  0  1  0  0  3  0  0  0  0  0  0
  181.0050  179.2570  141.8810 C   0  0  0  0  0  0  0  0  0  0  0  0
  180.3440  180.2850  141.9160 O   0  0  0  0  0  0  0  0  0  0  0  0
  181.3620  178.6350  140.5640 C   0  0  0  0  0  2  0  0  0  0  0  0
  180.4680  179.5740  138.4840 N   0  0  0  0  0  1  0  0  0  0  0  0
  181.5590  179.6620  139.4430 C   0  0  2  0  0  3  0  0  0  0  0  0
  182.9720  178.2460  137.9150 C   0  0  0  0  0  2  0  0  0  0  0  0
  185.1170  178.5990  139.0220 C   0  0  0  0  0  2  0  0  0  0  0  0
  182.9130  179.5150  138.7420 C   0  0  0  0  0  3  0  0  0  0  0  0
  184.4130  177.7710  137.9630 C   0  0  0  0  0  2  0  0  0  0  0  0
  184.0400  179.3790  139.7430 C   0  0  0  0  0  2  0  0  0  0  0  0
  1  9  1  0  0  0  0
  2  5  1  0  0  0  0
  2  8  1  0  0  0  0
  3  9  2  0  0  0  0
  4  7  1  0  0  0  0
  5  1  2  0  0  0  0
  6  2  2  0  0  0  0
  7  8  2  0  0  0  0
  8  3  1  0  0  0  0
 10  6  1  0  0  0  0
 10  4  2  0  0  0  0
 11 10  1  0  0  0  0
 12 13  1  0  0  0  0
 13 11  1  0  0  0  0
 14 11  2  0  0  0  0
 15 12  2  0  0  0  0
 15 14  1  0  0  0  0
 16 17  1  6  0  0  0
 16 15  1  0  0  0  0
 18 22  1  0  0  0  0
 19 16  1  0  0  0  0
 20 19  1  0  0  0  0
 21 18  1  0  0  0  0
 21 20  1  0  0  0  0
 22 19  1  0  0  0  0
 23 24  1  0  0  0  0
 23  5  1  0  0  0  0
 26 24  1  0  0  0  0
 26 25  1  1  0  0  0
 27 28  2  0  0  0  0
 27 26  1  0  0  0  0
 29 27  1  0  0  0  0
 31 30  1  6  0  0  0
 31 29  1  0  0  0  0
 32 35  1  0  0  0  0
 32 34  1  0  0  0  0
 33 36  1  0  0  0  0
 34 31  1  0  0  0  0
 34 36  1  0  0  0  0
 35 33  1  0  0  0  0
M  END
>  <MODEL>
9

>  <REMARK>
 VINA RESULT:      -9.0      2.713      6.813
  Name = 
  10 active torsions:
  status: ('A' for Active; 'I' for Inactive)
    1  A    between atoms: N_5  and  C_7
    2  A    between atoms: C_7  and  C_32
    3  A    between atoms: C_11  and  C_21
    4  A    between atoms: C_14  and  C_35
    5  A    between atoms: C_20  and  C_31
    6  A    between atoms: C_20  and  C_34
    7  A    between atoms: C_21  and  C_25
    8  A    between atoms: C_25  and  C_31
    9  A    between atoms: C_26  and  C_27
   10  A    between atoms: C_27  and  C_34
                            x       y       z     vdW  Elec       q    Type
                         _______ _______ _______ _____ _____    ______ ____

>  <TORSDO>
F 10

$$$$
