=
 OpenBabel10222416283D

 38 40  0  0  1  0  0  0  0  0999 V2000
  187.2010  178.1240  142.4900 C   0  0  0  0  0  3  0  0  0  0  0  0
  188.0860  177.2700  143.3810 C   0  0  0  0  0  2  0  0  0  0  0  0
  187.3400  178.1860  141.1560 C   0  0  0  0  0  0  0  0  0  0  0  0
  190.4720  176.3250  140.6080 N   0  0  0  0  0  0  0  0  0  0  0  0
  189.4410  176.8730  141.3040 C   0  0  0  0  0  0  0  0  0  0  0  0
  188.9050  177.3730  138.9290 S   0  0  0  0  0  0  0  0  0  0  0  0
  190.3260  176.5080  139.2700 C   0  0  0  0  0  0  0  0  0  0  0  0
  189.3430  176.8640  142.7340 N   0  0  0  0  0  0  0  0  0  0  0  0
  188.4770  177.4930  140.5470 C   0  0  0  0  0  0  0  0  0  0  0  0
  193.2800  175.1670  136.4530 C   0  0  0  0  0  3  0  0  0  0  0  0
  192.5030  176.7330  138.1190 C   0  0  0  0  0  3  0  0  0  0  0  0
  191.9260  173.3080  135.8570 F   0  0  0  0  0  0  0  0  0  0  0  0
  189.9660  174.0710  137.6280 O   0  0  0  0  0  1  0  0  0  0  0  0
  191.1210  174.8370  137.5120 C   0  0  0  0  0  0  0  0  0  0  0  0
  193.4800  176.3200  137.2120 C   0  0  0  0  0  3  0  0  0  0  0  0
  191.3150  176.0050  138.2850 C   0  0  0  0  0  0  0  0  0  0  0  0
  192.1070  174.4280  136.6020 C   0  0  0  0  0  0  0  0  0  0  0  0
  186.4730  178.9770  140.3280 N   0  0  0  0  0  2  0  0  0  0  0  0
  184.4490  179.8580  139.6070 O   0  0  0  0  0  0  0  0  0  0  0  0
  185.0380  179.0140  140.3310 C   0  0  0  0  0  0  0  0  0  0  0  0
  184.2100  178.0490  141.1210 C   0  0  0  0  0  2  0  0  0  0  0  0
  183.3410  178.7790  142.1320 C   0  0  0  0  0  2  0  0  0  0  0  0
  181.9370  178.7040  141.7410 N   0  0  0  0  0  2  0  0  0  0  0  0
  180.0660  178.0920  143.0280 O   0  0  0  0  0  1  0  0  0  0  0  0
  181.0850  179.0350  142.8830 C   0  0  0  0  0  3  0  0  0  0  0  0
  180.5400  180.3140  142.7390 O   0  0  0  0  0  1  0  0  0  0  0  0
  190.3770  176.2460  143.5490 C   0  0  0  0  0  2  0  0  0  0  0  0
  190.9070  177.2470  144.5620 C   0  0  0  0  0  2  0  0  0  0  0  0
  191.6950  176.5430  145.6560 C   0  0  0  0  0  2  0  0  0  0  0  0
  191.8080  177.0100  147.9960 O   0  0  0  0  0  1  0  0  0  0  0  0
  190.9500  176.5740  146.9850 C   0  0  1  0  0  3  0  0  0  0  0  0
  189.7680  177.5260  146.8940 C   0  0  0  0  0  2  0  0  0  0  0  0
  189.2940  177.9490  148.2750 C   0  0  0  0  0  2  0  0  0  0  0  0
  187.7790  177.9130  148.3430 C   0  0  0  0  0  2  0  0  0  0  0  0
  187.2570  177.8060  147.0550 O   0  0  0  0  0  0  0  0  0  0  0  0
  186.1290  178.6270  147.0680 C   0  0  0  0  0  2  0  0  0  0  0  0
  184.4980  178.8070  145.5940 C   0  0  0  0  0  1  0  0  0  0  0  0
  185.8570  179.0650  145.7720 O   0  0  0  0  0  0  0  0  0  0  0  0
  1  2  1  0  0  0  0
  3  1  2  0  0  0  0
  4  5  1  0  0  0  0
  5  8  1  0  0  0  0
  6  7  1  0  0  0  0
  6  9  1  0  0  0  0
  7  4  2  0  0  0  0
  8  2  1  0  0  0  0
  8 27  1  0  0  0  0
  9  3  1  0  0  0  0
  9  5  2  0  0  0  0
 10 17  2  0  0  0  0
 10 15  1  0  0  0  0
 11 16  1  0  0  0  0
 12 17  1  0  0  0  0
 14 13  1  0  0  0  0
 14 16  2  0  0  0  0
 15 11  2  0  0  0  0
 16  7  1  0  0  0  0
 17 14  1  0  0  0  0
 18 20  1  0  0  0  0
 18  3  1  0  0  0  0
 19 20  2  0  0  0  0
 20 21  1  0  0  0  0
 21 22  1  0  0  0  0
 23 22  1  0  0  0  0
 23 25  1  0  0  0  0
 25 24  1  0  0  0  0
 26 25  1  0  0  0  0
 27 28  1  0  0  0  0
 28 29  1  0  0  0  0
 29 31  1  0  0  0  0
 31 30  1  1  0  0  0
 32 31  1  0  0  0  0
 32 33  1  0  0  0  0
 33 34  1  0  0  0  0
 35 36  1  0  0  0  0
 35 34  1  0  0  0  0
 37 38  1  0  0  0  0
 38 36  1  0  0  0  0
M  END
>  <MODEL>
1

>  <REMARK>
 VINA RESULT:      -7.6      0.000      0.000
  Name = 
  16 active torsions:
  status: ('A' for Active; 'I' for Inactive)
    1  A    between atoms: C_3  and  C_11
    2  A    between atoms: C_3  and  C_27
    3  A    between atoms: C_4  and  C_11
    4  A    between atoms: C_4  and  C_34
    5  A    between atoms: C_5  and  O_35
    6  A    between atoms: C_5  and  O_38
    7  A    between atoms: C_9  and  N_10
    8  A    between atoms: C_17  and  C_25
    9  A    between atoms: C_17  and  C_30
   10  A    between atoms: C_18  and  C_34
   11  A    between atoms: C_18  and  O_35
   12  A    between atoms: C_20  and  N_32
   13  A    between atoms: C_21  and  C_27
   14  A    between atoms: C_21  and  N_36
   15  A    between atoms: C_28  and  C_33
   16  A    between atoms: C_30  and  N_32
                            x       y       z     vdW  Elec       q    Type
                         _______ _______ _______ _____ _____    ______ ____

>  <TORSDO>
F 16

$$$$
=
 OpenBabel10222416283D

 38 40  0  0  1  0  0  0  0  0999 V2000
  185.9180  178.2660  137.7800 C   0  0  0  0  0  3  0  0  0  0  0  0
  184.9990  178.5150  138.9650 C   0  0  0  0  0  2  0  0  0  0  0  0
  187.2150  177.9420  137.9100 C   0  0  0  0  0  0  0  0  0  0  0  0
  187.7770  178.3830  141.5240 N   0  0  0  0  0  0  0  0  0  0  0  0
  187.0880  178.3680  140.3520 C   0  0  0  0  0  0  0  0  0  0  0  0
  189.3630  177.5790  139.7330 S   0  0  0  0  0  0  0  0  0  0  0  0
  189.0580  177.9650  141.3580 C   0  0  0  0  0  0  0  0  0  0  0  0
  185.7250  178.7870  140.2150 N   0  0  0  0  0  0  0  0  0  0  0  0
  187.7980  177.9490  139.2520 C   0  0  0  0  0  0  0  0  0  0  0  0
  191.8410  177.8920  144.6300 C   0  0  0  0  0  3  0  0  0  0  0  0
  190.3960  179.0870  143.1090 C   0  0  0  0  0  3  0  0  0  0  0  0
  192.0200  175.5270  144.4770 F   0  0  0  0  0  0  0  0  0  0  0  0
  190.2490  175.4540  142.3750 O   0  0  0  0  0  1  0  0  0  0  0  0
  190.5780  176.6750  142.9520 C   0  0  0  0  0  0  0  0  0  0  0  0
  191.2980  179.0920  144.1740 C   0  0  0  0  0  3  0  0  0  0  0  0
  190.0220  177.8880  142.4820 C   0  0  0  0  0  0  0  0  0  0  0  0
  191.4830  176.6870  144.0230 C   0  0  0  0  0  0  0  0  0  0  0  0
  188.0580  177.6810  136.7770 N   0  0  0  0  0  2  0  0  0  0  0  0
  189.0060  176.4040  135.0850 O   0  0  0  0  0  0  0  0  0  0  0  0
  188.3240  176.4210  136.1420 C   0  0  0  0  0  0  0  0  0  0  0  0
  187.8680  175.1180  136.7190 C   0  0  0  0  0  2  0  0  0  0  0  0
  187.4170  174.1660  135.6240 C   0  0  0  0  0  2  0  0  0  0  0  0
  186.1220  173.5830  135.9610 N   0  0  0  0  0  2  0  0  0  0  0  0
  185.4950  172.8740  138.1140 O   0  0  0  0  0  1  0  0  0  0  0  0
  185.7310  173.9900  137.3110 C   0  0  0  0  0  3  0  0  0  0  0  0
  184.5960  174.8040  137.2720 O   0  0  0  0  0  1  0  0  0  0  0  0
  184.9740  179.2690  141.3640 C   0  0  0  0  0  2  0  0  0  0  0  0
  184.6220  178.1080  142.2790 C   0  0  0  0  0  2  0  0  0  0  0  0
  184.0280  178.6110  143.5860 C   0  0  0  0  0  2  0  0  0  0  0  0
  184.5500  179.0230  145.8790 O   0  0  0  0  0  1  0  0  0  0  0  0
  185.1160  178.9170  144.6080 C   0  0  1  0  0  3  0  0  0  0  0  0
  186.1490  177.8020  144.6160 C   0  0  0  0  0  2  0  0  0  0  0  0
  186.6480  177.5240  146.0250 C   0  0  0  0  0  2  0  0  0  0  0  0
  188.1440  177.7610  146.1070 C   0  0  0  0  0  2  0  0  0  0  0  0
  188.5820  177.5300  147.4100 O   0  0  0  0  0  0  0  0  0  0  0  0
  189.6060  176.5930  147.2720 C   0  0  0  0  0  2  0  0  0  0  0  0
  191.7130  176.0910  147.6840 C   0  0  0  0  0  1  0  0  0  0  0  0
  190.8100  177.1530  147.6990 O   0  0  0  0  0  0  0  0  0  0  0  0
  1  3  2  0  0  0  0
  1  2  1  0  0  0  0
  2  8  1  0  0  0  0
  3  9  1  0  0  0  0
  5  4  1  0  0  0  0
  6  7  1  0  0  0  0
  7  4  2  0  0  0  0
  7 16  1  0  0  0  0
  8  5  1  0  0  0  0
  8 27  1  0  0  0  0
  9  6  1  0  0  0  0
  9  5  2  0  0  0  0
 11 15  2  0  0  0  0
 13 14  1  0  0  0  0
 14 17  1  0  0  0  0
 15 10  1  0  0  0  0
 16 14  2  0  0  0  0
 16 11  1  0  0  0  0
 17 12  1  0  0  0  0
 17 10  2  0  0  0  0
 18  3  1  0  0  0  0
 19 20  2  0  0  0  0
 20 21  1  0  0  0  0
 20 18  1  0  0  0  0
 22 23  1  0  0  0  0
 22 21  1  0  0  0  0
 23 25  1  0  0  0  0
 25 24  1  0  0  0  0
 26 25  1  0  0  0  0
 27 28  1  0  0  0  0
 28 29  1  0  0  0  0
 29 31  1  0  0  0  0
 31 32  1  0  0  0  0
 31 30  1  1  0  0  0
 32 33  1  0  0  0  0
 33 34  1  0  0  0  0
 34 35  1  0  0  0  0
 36 35  1  0  0  0  0
 36 38  1  0  0  0  0
 37 38  1  0  0  0  0
M  END
>  <MODEL>
2

>  <REMARK>
 VINA RESULT:      -7.5      3.220      6.208
  Name = 
  16 active torsions:
  status: ('A' for Active; 'I' for Inactive)
    1  A    between atoms: C_3  and  C_11
    2  A    between atoms: C_3  and  C_27
    3  A    between atoms: C_4  and  C_11
    4  A    between atoms: C_4  and  C_34
    5  A    between atoms: C_5  and  O_35
    6  A    between atoms: C_5  and  O_38
    7  A    between atoms: C_9  and  N_10
    8  A    between atoms: C_17  and  C_25
    9  A    between atoms: C_17  and  C_30
   10  A    between atoms: C_18  and  C_34
   11  A    between atoms: C_18  and  O_35
   12  A    between atoms: C_20  and  N_32
   13  A    between atoms: C_21  and  C_27
   14  A    between atoms: C_21  and  N_36
   15  A    between atoms: C_28  and  C_33
   16  A    between atoms: C_30  and  N_32
                            x       y       z     vdW  Elec       q    Type
                         _______ _______ _______ _____ _____    ______ ____

>  <TORSDO>
F 16

$$$$
=
 OpenBabel10222416283D

 38 40  0  0  1  0  0  0  0  0999 V2000
  188.1760  178.1470  140.8870 C   0  0  0  0  0  3  0  0  0  0  0  0
  188.1500  177.9810  142.3970 C   0  0  0  0  0  2  0  0  0  0  0  0
  187.0910  178.4650  140.1630 C   0  0  0  0  0  0  0  0  0  0  0  0
  184.3900  178.2410  142.6580 N   0  0  0  0  0  0  0  0  0  0  0  0
  185.6580  178.1910  142.1710 C   0  0  0  0  0  0  0  0  0  0  0  0
  184.2880  178.9160  140.2280 S   0  0  0  0  0  0  0  0  0  0  0  0
  183.5030  178.6340  141.7070 C   0  0  0  0  0  0  0  0  0  0  0  0
  186.7970  177.7790  142.9360 N   0  0  0  0  0  0  0  0  0  0  0  0
  185.7990  178.5340  140.8480 C   0  0  0  0  0  0  0  0  0  0  0  0
  179.2730  179.0240  142.3500 C   0  0  0  0  0  3  0  0  0  0  0  0
  181.1790  178.8190  140.8820 C   0  0  0  0  0  3  0  0  0  0  0  0
  179.5930  179.0560  144.7050 F   0  0  0  0  0  0  0  0  0  0  0  0
  182.3160  178.8080  144.4140 O   0  0  0  0  0  1  0  0  0  0  0  0
  181.5060  178.8500  143.2840 C   0  0  0  0  0  0  0  0  0  0  0  0
  179.8010  178.9450  141.0620 C   0  0  0  0  0  3  0  0  0  0  0  0
  182.0510  178.7700  141.9800 C   0  0  0  0  0  0  0  0  0  0  0  0
  180.1210  178.9770  143.4570 C   0  0  0  0  0  0  0  0  0  0  0  0
  187.1430  178.6470  138.7390 N   0  0  0  0  0  2  0  0  0  0  0  0
  187.4440  178.0080  136.5270 O   0  0  0  0  0  0  0  0  0  0  0  0
  187.5760  177.7090  137.7430 C   0  0  0  0  0  0  0  0  0  0  0  0
  188.2310  176.4090  138.0920 C   0  0  0  0  0  2  0  0  0  0  0  0
  189.5410  176.2410  137.3390 C   0  0  0  0  0  2  0  0  0  0  0  0
  190.5790  177.0750  137.9370 N   0  0  0  0  0  2  0  0  0  0  0  0
  192.8750  176.5990  137.7670 O   0  0  0  0  0  1  0  0  0  0  0  0
  191.6850  176.2360  138.3990 C   0  0  0  0  0  3  0  0  0  0  0  0
  191.4110  174.8860  138.1690 O   0  0  0  0  0  1  0  0  0  0  0  0
  186.6550  177.3750  144.3270 C   0  0  0  0  0  2  0  0  0  0  0  0
  187.9300  177.6930  145.0920 C   0  0  0  0  0  2  0  0  0  0  0  0
  187.6520  177.8010  146.5830 C   0  0  0  0  0  2  0  0  0  0  0  0
  188.6580  178.2240  148.7070 O   0  0  0  0  0  1  0  0  0  0  0  0
  188.9450  177.8830  147.3840 C   0  0  1  0  0  3  0  0  0  0  0  0
  189.6550  176.5390  147.3610 C   0  0  0  0  0  2  0  0  0  0  0  0
  191.1610  176.7100  147.4730 C   0  0  0  0  0  2  0  0  0  0  0  0
  191.8280  176.3590  146.1570 C   0  0  0  0  0  2  0  0  0  0  0  0
  191.8940  177.4930  145.3500 O   0  0  0  0  0  0  0  0  0  0  0  0
  191.4200  177.0650  144.1100 C   0  0  0  0  0  2  0  0  0  0  0  0
  191.7750  177.4270  141.9640 C   0  0  0  0  0  1  0  0  0  0  0  0
  191.5710  178.0890  143.1750 O   0  0  0  0  0  0  0  0  0  0  0  0
  1  2  1  0  0  0  0
  2  8  1  0  0  0  0
  3  9  1  0  0  0  0
  3  1  2  0  0  0  0
  5  4  1  0  0  0  0
  5  8  1  0  0  0  0
  6  9  1  0  0  0  0
  6  7  1  0  0  0  0
  7 16  1  0  0  0  0
  7  4  2  0  0  0  0
  8 27  1  0  0  0  0
  9  5  2  0  0  0  0
 10 17  1  0  0  0  0
 11 15  1  0  0  0  0
 11 16  2  0  0  0  0
 14 17  2  0  0  0  0
 14 13  1  0  0  0  0
 15 10  2  0  0  0  0
 16 14  1  0  0  0  0
 17 12  1  0  0  0  0
 18  3  1  0  0  0  0
 19 20  2  0  0  0  0
 20 21  1  0  0  0  0
 20 18  1  0  0  0  0
 22 23  1  0  0  0  0
 22 21  1  0  0  0  0
 23 25  1  0  0  0  0
 24 25  1  0  0  0  0
 26 25  1  0  0  0  0
 27 28  1  0  0  0  0
 28 29  1  0  0  0  0
 29 31  1  0  0  0  0
 31 30  1  1  0  0  0
 32 31  1  0  0  0  0
 32 33  1  0  0  0  0
 34 33  1  0  0  0  0
 35 34  1  0  0  0  0
 36 35  1  0  0  0  0
 37 38  1  0  0  0  0
 38 36  1  0  0  0  0
M  END
>  <MODEL>
3

>  <REMARK>
 VINA RESULT:      -7.2      3.469      8.281
  Name = 
  16 active torsions:
  status: ('A' for Active; 'I' for Inactive)
    1  A    between atoms: C_3  and  C_11
    2  A    between atoms: C_3  and  C_27
    3  A    between atoms: C_4  and  C_11
    4  A    between atoms: C_4  and  C_34
    5  A    between atoms: C_5  and  O_35
    6  A    between atoms: C_5  and  O_38
    7  A    between atoms: C_9  and  N_10
    8  A    between atoms: C_17  and  C_25
    9  A    between atoms: C_17  and  C_30
   10  A    between atoms: C_18  and  C_34
   11  A    between atoms: C_18  and  O_35
   12  A    between atoms: C_20  and  N_32
   13  A    between atoms: C_21  and  C_27
   14  A    between atoms: C_21  and  N_36
   15  A    between atoms: C_28  and  C_33
   16  A    between atoms: C_30  and  N_32
                            x       y       z     vdW  Elec       q    Type
                         _______ _______ _______ _____ _____    ______ ____

>  <TORSDO>
F 16

$$$$
=
 OpenBabel10222416283D

 38 40  0  0  1  0  0  0  0  0999 V2000
  181.2200  179.0270  141.4540 C   0  0  0  0  0  3  0  0  0  0  0  0
  182.1070  178.9270  142.6840 C   0  0  0  0  0  2  0  0  0  0  0  0
  181.6750  178.8590  140.2020 C   0  0  0  0  0  0  0  0  0  0  0  0
  185.3200  178.6900  140.7100 N   0  0  0  0  0  0  0  0  0  0  0  0
  184.0090  178.8020  141.0480 C   0  0  0  0  0  0  0  0  0  0  0  0
  183.9760  178.4510  138.5870 S   0  0  0  0  0  0  0  0  0  0  0  0
  185.4790  178.4850  139.3770 C   0  0  0  0  0  0  0  0  0  0  0  0
  183.5400  179.0560  142.3780 N   0  0  0  0  0  0  0  0  0  0  0  0
  183.1170  178.6940  140.0080 C   0  0  0  0  0  0  0  0  0  0  0  0
  189.2790  178.0370  137.4230 C   0  0  0  0  0  3  0  0  0  0  0  0
  186.8790  178.2950  137.3470 C   0  0  0  0  0  3  0  0  0  0  0  0
  190.3930  177.9560  139.5200 F   0  0  0  0  0  0  0  0  0  0  0  0
  188.0190  178.2380  140.8770 O   0  0  0  0  0  1  0  0  0  0  0  0
  188.0150  178.2130  139.4870 C   0  0  0  0  0  0  0  0  0  0  0  0
  188.1000  178.1510  136.6870 C   0  0  0  0  0  3  0  0  0  0  0  0
  186.8140  178.3280  138.7490 C   0  0  0  0  0  0  0  0  0  0  0  0
  189.2380  178.0680  138.8170 C   0  0  0  0  0  0  0  0  0  0  0  0
  180.8140  178.9280  139.0550 N   0  0  0  0  0  2  0  0  0  0  0  0
  179.8810  179.8820  137.1550 O   0  0  0  0  0  0  0  0  0  0  0  0
  180.5910  180.0450  138.1810 C   0  0  0  0  0  0  0  0  0  0  0  0
  181.1240  181.4120  138.4720 C   0  0  0  0  0  2  0  0  0  0  0  0
  180.2480  182.4830  137.8420 C   0  0  0  0  0  2  0  0  0  0  0  0
  180.9190  183.0720  136.6880 N   0  0  0  0  0  2  0  0  0  0  0  0
  181.2770  185.2040  135.7630 O   0  0  0  0  0  1  0  0  0  0  0  0
  181.2230  184.4780  136.9540 C   0  0  0  0  0  3  0  0  0  0  0  0
  182.4300  184.6010  137.6470 O   0  0  0  0  0  1  0  0  0  0  0  0
  184.4750  179.2120  143.4810 C   0  0  0  0  0  2  0  0  0  0  0  0
  183.7310  179.1520  144.8050 C   0  0  0  0  0  2  0  0  0  0  0  0
  184.5140  178.3460  145.8290 C   0  0  0  0  0  2  0  0  0  0  0  0
  185.7510  179.6040  147.4390 O   0  0  0  0  0  1  0  0  0  0  0  0
  185.8360  179.0210  146.1740 C   0  0  1  0  0  3  0  0  0  0  0  0
  186.9580  177.9950  146.1750 C   0  0  0  0  0  2  0  0  0  0  0  0
  186.9620  177.1840  144.8890 C   0  0  0  0  0  2  0  0  0  0  0  0
  188.3850  176.9820  144.4010 C   0  0  0  0  0  2  0  0  0  0  0  0
  189.2770  177.2800  145.4300 O   0  0  0  0  0  0  0  0  0  0  0  0
  190.5360  177.1800  144.8380 C   0  0  0  0  0  2  0  0  0  0  0  0
  191.5900  177.5420  142.9360 C   0  0  0  0  0  1  0  0  0  0  0  0
  190.6280  178.0890  143.7840 O   0  0  0  0  0  0  0  0  0  0  0  0
  1  2  1  0  0  0  0
  3  1  2  0  0  0  0
  4  5  1  0  0  0  0
  5  8  1  0  0  0  0
  6  7  1  0  0  0  0
  6  9  1  0  0  0  0
  7  4  2  0  0  0  0
  8  2  1  0  0  0  0
  8 27  1  0  0  0  0
  9  3  1  0  0  0  0
  9  5  2  0  0  0  0
 10 17  1  0  0  0  0
 11 16  2  0  0  0  0
 14 13  1  0  0  0  0
 15 11  1  0  0  0  0
 15 10  2  0  0  0  0
 16  7  1  0  0  0  0
 16 14  1  0  0  0  0
 17 14  2  0  0  0  0
 17 12  1  0  0  0  0
 18  3  1  0  0  0  0
 19 20  2  0  0  0  0
 20 21  1  0  0  0  0
 20 18  1  0  0  0  0
 22 21  1  0  0  0  0
 23 25  1  0  0  0  0
 23 22  1  0  0  0  0
 24 25  1  0  0  0  0
 25 26  1  0  0  0  0
 27 28  1  0  0  0  0
 28 29  1  0  0  0  0
 29 31  1  0  0  0  0
 31 32  1  0  0  0  0
 31 30  1  1  0  0  0
 33 32  1  0  0  0  0
 34 33  1  0  0  0  0
 34 35  1  0  0  0  0
 36 35  1  0  0  0  0
 37 38  1  0  0  0  0
 38 36  1  0  0  0  0
M  END
>  <MODEL>
4

>  <REMARK>
 VINA RESULT:      -7.1      3.619      5.956
  Name = 
  16 active torsions:
  status: ('A' for Active; 'I' for Inactive)
    1  A    between atoms: C_3  and  C_11
    2  A    between atoms: C_3  and  C_27
    3  A    between atoms: C_4  and  C_11
    4  A    between atoms: C_4  and  C_34
    5  A    between atoms: C_5  and  O_35
    6  A    between atoms: C_5  and  O_38
    7  A    between atoms: C_9  and  N_10
    8  A    between atoms: C_17  and  C_25
    9  A    between atoms: C_17  and  C_30
   10  A    between atoms: C_18  and  C_34
   11  A    between atoms: C_18  and  O_35
   12  A    between atoms: C_20  and  N_32
   13  A    between atoms: C_21  and  C_27
   14  A    between atoms: C_21  and  N_36
   15  A    between atoms: C_28  and  C_33
   16  A    between atoms: C_30  and  N_32
                            x       y       z     vdW  Elec       q    Type
                         _______ _______ _______ _____ _____    ______ ____

>  <TORSDO>
F 16

$$$$
=
 OpenBabel10222416283D

 38 40  0  0  1  0  0  0  0  0999 V2000
  189.4590  177.7030  138.6930 C   0  0  0  0  0  3  0  0  0  0  0  0
  187.9680  177.9410  138.8650 C   0  0  0  0  0  2  0  0  0  0  0  0
  190.2790  177.4010  139.7130 C   0  0  0  0  0  0  0  0  0  0  0  0
  188.0930  177.8670  142.6410 N   0  0  0  0  0  0  0  0  0  0  0  0
  188.4450  177.8350  141.3290 C   0  0  0  0  0  0  0  0  0  0  0  0
  190.4890  177.0840  142.5280 S   0  0  0  0  0  0  0  0  0  0  0  0
  189.1130  177.4720  143.4440 C   0  0  0  0  0  0  0  0  0  0  0  0
  187.5830  178.2300  140.2540 N   0  0  0  0  0  0  0  0  0  0  0  0
  189.7310  177.4250  141.0700 C   0  0  0  0  0  0  0  0  0  0  0  0
  188.6020  177.3290  147.7080 C   0  0  0  0  0  3  0  0  0  0  0  0
  187.7070  177.5520  145.4770 C   0  0  0  0  0  3  0  0  0  0  0  0
  190.9370  177.0160  148.0180 F   0  0  0  0  0  0  0  0  0  0  0  0
  191.3840  177.0920  145.3060 O   0  0  0  0  0  1  0  0  0  0  0  0
  190.0890  177.2330  145.7920 C   0  0  0  0  0  0  0  0  0  0  0  0
  187.5120  177.5090  146.8580 C   0  0  0  0  0  3  0  0  0  0  0  0
  188.9880  177.4160  144.9210 C   0  0  0  0  0  0  0  0  0  0  0  0
  189.8860  177.1910  147.1780 C   0  0  0  0  0  0  0  0  0  0  0  0
  191.6810  177.1510  139.5240 N   0  0  0  0  0  2  0  0  0  0  0  0
  193.5970  176.5930  138.3360 O   0  0  0  0  0  0  0  0  0  0  0  0
  192.3390  176.6400  138.3550 C   0  0  0  0  0  0  0  0  0  0  0  0
  191.5870  176.1080  137.1760 C   0  0  0  0  0  2  0  0  0  0  0  0
  191.5630  174.5880  137.1860 C   0  0  0  0  0  2  0  0  0  0  0  0
  190.2850  174.1050  137.7000 N   0  0  0  0  0  2  0  0  0  0  0  0
  188.5250  174.9200  136.3700 O   0  0  0  0  0  1  0  0  0  0  0  0
  189.3750  173.8340  136.5870 C   0  0  0  0  0  3  0  0  0  0  0  0
  188.6270  172.6790  136.8300 O   0  0  0  0  0  1  0  0  0  0  0  0
  186.2330  178.7040  140.5170 C   0  0  0  0  0  2  0  0  0  0  0  0
  185.3990  178.6240  139.2490 C   0  0  0  0  0  2  0  0  0  0  0  0
  184.0850  179.3720  139.4190 C   0  0  0  0  0  2  0  0  0  0  0  0
  183.4460  177.6150  137.9320 O   0  0  0  0  0  1  0  0  0  0  0  0
  182.9390  178.6450  138.7260 C   0  0  1  0  0  3  0  0  0  0  0  0
  181.9970  178.0550  139.7630 C   0  0  0  0  0  2  0  0  0  0  0  0
  182.4270  178.4280  141.1730 C   0  0  0  0  0  2  0  0  0  0  0  0
  181.2360  178.9250  141.9700 C   0  0  0  0  0  2  0  0  0  0  0  0
  181.6580  179.3270  143.2360 O   0  0  0  0  0  0  0  0  0  0  0  0
  182.9910  178.9220  143.3030 C   0  0  0  0  0  2  0  0  0  0  0  0
  184.0470  178.9410  145.2390 C   0  0  0  0  0  1  0  0  0  0  0  0
  183.6910  179.7610  144.1690 O   0  0  0  0  0  0  0  0  0  0  0  0
  1  2  1  0  0  0  0
  1  3  2  0  0  0  0
  2  8  1  0  0  0  0
  3  9  1  0  0  0  0
  4  7  2  0  0  0  0
  5  4  1  0  0  0  0
  6  7  1  0  0  0  0
  7 16  1  0  0  0  0
  8 27  1  0  0  0  0
  8  5  1  0  0  0  0
  9  5  2  0  0  0  0
  9  6  1  0  0  0  0
 11 15  1  0  0  0  0
 13 14  1  0  0  0  0
 14 17  2  0  0  0  0
 15 10  2  0  0  0  0
 16 11  2  0  0  0  0
 16 14  1  0  0  0  0
 17 10  1  0  0  0  0
 17 12  1  0  0  0  0
 18  3  1  0  0  0  0
 19 20  2  0  0  0  0
 20 18  1  0  0  0  0
 21 22  1  0  0  0  0
 21 20  1  0  0  0  0
 22 23  1  0  0  0  0
 24 25  1  0  0  0  0
 25 26  1  0  0  0  0
 25 23  1  0  0  0  0
 28 29  1  0  0  0  0
 28 27  1  0  0  0  0
 31 30  1  1  0  0  0
 31 29  1  0  0  0  0
 31 32  1  0  0  0  0
 32 33  1  0  0  0  0
 33 34  1  0  0  0  0
 34 35  1  0  0  0  0
 35 36  1  0  0  0  0
 36 38  1  0  0  0  0
 38 37  1  0  0  0  0
M  END
>  <MODEL>
5

>  <REMARK>
 VINA RESULT:      -6.9      2.883      8.491
  Name = 
  16 active torsions:
  status: ('A' for Active; 'I' for Inactive)
    1  A    between atoms: C_3  and  C_11
    2  A    between atoms: C_3  and  C_27
    3  A    between atoms: C_4  and  C_11
    4  A    between atoms: C_4  and  C_34
    5  A    between atoms: C_5  and  O_35
    6  A    between atoms: C_5  and  O_38
    7  A    between atoms: C_9  and  N_10
    8  A    between atoms: C_17  and  C_25
    9  A    between atoms: C_17  and  C_30
   10  A    between atoms: C_18  and  C_34
   11  A    between atoms: C_18  and  O_35
   12  A    between atoms: C_20  and  N_32
   13  A    between atoms: C_21  and  C_27
   14  A    between atoms: C_21  and  N_36
   15  A    between atoms: C_28  and  C_33
   16  A    between atoms: C_30  and  N_32
                            x       y       z     vdW  Elec       q    Type
                         _______ _______ _______ _____ _____    ______ ____

>  <TORSDO>
F 16

$$$$
=
 OpenBabel10222416283D

 38 40  0  0  1  0  0  0  0  0999 V2000
  190.6960  177.4190  140.1090 C   0  0  0  0  0  3  0  0  0  0  0  0
  190.9560  177.1020  141.5720 C   0  0  0  0  0  2  0  0  0  0  0  0
  189.5320  177.9140  139.6580 C   0  0  0  0  0  0  0  0  0  0  0  0
  187.3810  177.6960  142.6410 N   0  0  0  0  0  0  0  0  0  0  0  0
  188.5110  177.5740  141.8950 C   0  0  0  0  0  0  0  0  0  0  0  0
  186.8710  178.6250  140.3500 S   0  0  0  0  0  0  0  0  0  0  0  0
  186.3730  178.2680  141.9340 C   0  0  0  0  0  0  0  0  0  0  0  0
  189.7250  176.9770  142.3660 N   0  0  0  0  0  0  0  0  0  0  0  0
  188.4220  178.0360  140.6040 C   0  0  0  0  0  0  0  0  0  0  0  0
  182.5540  179.0210  143.7540 C   0  0  0  0  0  3  0  0  0  0  0  0
  184.9650  178.9310  143.8560 C   0  0  0  0  0  3  0  0  0  0  0  0
  181.4350  178.4550  141.7360 F   0  0  0  0  0  0  0  0  0  0  0  0
  183.8210  177.9430  140.4680 O   0  0  0  0  0  1  0  0  0  0  0  0
  183.8250  178.3540  141.7970 C   0  0  0  0  0  0  0  0  0  0  0  0
  183.7390  179.1830  144.4720 C   0  0  0  0  0  3  0  0  0  0  0  0
  185.0310  178.5150  142.5180 C   0  0  0  0  0  0  0  0  0  0  0  0
  182.5960  178.6080  142.4220 C   0  0  0  0  0  0  0  0  0  0  0  0
  189.3180  178.2360  138.2750 N   0  0  0  0  0  2  0  0  0  0  0  0
  188.8070  177.8080  136.0510 O   0  0  0  0  0  0  0  0  0  0  0  0
  189.0880  177.3340  137.1820 C   0  0  0  0  0  0  0  0  0  0  0  0
  189.2250  175.8510  137.3210 C   0  0  0  0  0  2  0  0  0  0  0  0
  188.1930  175.1270  136.4700 C   0  0  0  0  0  2  0  0  0  0  0  0
  186.9300  175.0140  137.1940 N   0  0  0  0  0  2  0  0  0  0  0  0
  185.5630  173.2450  137.9230 O   0  0  0  0  0  1  0  0  0  0  0  0
  186.2620  173.7640  136.8320 C   0  0  0  0  0  3  0  0  0  0  0  0
  187.1860  172.8270  136.3630 O   0  0  0  0  0  1  0  0  0  0  0  0
  189.8200  176.4480  143.7180 C   0  0  0  0  0  2  0  0  0  0  0  0
  191.2800  176.3000  144.1160 C   0  0  0  0  0  2  0  0  0  0  0  0
  191.5470  176.9810  145.4490 C   0  0  0  0  0  2  0  0  0  0  0  0
  192.8120  176.0440  147.2460 O   0  0  0  0  0  1  0  0  0  0  0  0
  191.5810  175.9730  146.5910 C   0  0  1  0  0  3  0  0  0  0  0  0
  190.4720  176.2770  147.5850 C   0  0  0  0  0  2  0  0  0  0  0  0
  189.7410  177.5590  147.2180 C   0  0  0  0  0  2  0  0  0  0  0  0
  189.0900  178.1620  148.4490 C   0  0  0  0  0  2  0  0  0  0  0  0
  187.7440  177.8030  148.4870 O   0  0  0  0  0  0  0  0  0  0  0  0
  187.3270  177.8790  147.1580 C   0  0  0  0  0  2  0  0  0  0  0  0
  185.9780  179.6130  147.3520 C   0  0  0  0  0  1  0  0  0  0  0  0
  185.9800  178.2400  147.1120 O   0  0  0  0  0  0  0  0  0  0  0  0
  1  2  1  0  0  0  0
  2  8  1  0  0  0  0
  3  1  2  0  0  0  0
  3  9  1  0  0  0  0
  5  8  1  0  0  0  0
  5  4  1  0  0  0  0
  6  9  1  0  0  0  0
  6  7  1  0  0  0  0
  7 16  1  0  0  0  0
  7  4  2  0  0  0  0
  8 27  1  0  0  0  0
  9  5  2  0  0  0  0
 10 15  1  0  0  0  0
 11 15  2  0  0  0  0
 12 17  1  0  0  0  0
 13 14  1  0  0  0  0
 14 17  1  0  0  0  0
 14 16  2  0  0  0  0
 16 11  1  0  0  0  0
 17 10  2  0  0  0  0
 18  3  1  0  0  0  0
 19 20  2  0  0  0  0
 20 21  1  0  0  0  0
 20 18  1  0  0  0  0
 22 23  1  0  0  0  0
 22 21  1  0  0  0  0
 25 23  1  0  0  0  0
 25 24  1  0  0  0  0
 26 25  1  0  0  0  0
 27 28  1  0  0  0  0
 28 29  1  0  0  0  0
 29 31  1  0  0  0  0
 31 30  1  1  0  0  0
 31 32  1  0  0  0  0
 33 32  1  0  0  0  0
 33 34  1  0  0  0  0
 34 35  1  0  0  0  0
 36 35  1  0  0  0  0
 38 36  1  0  0  0  0
 38 37  1  0  0  0  0
M  END
>  <MODEL>
6

>  <REMARK>
 VINA RESULT:      -6.9      3.141      6.548
  Name = 
  16 active torsions:
  status: ('A' for Active; 'I' for Inactive)
    1  A    between atoms: C_3  and  C_11
    2  A    between atoms: C_3  and  C_27
    3  A    between atoms: C_4  and  C_11
    4  A    between atoms: C_4  and  C_34
    5  A    between atoms: C_5  and  O_35
    6  A    between atoms: C_5  and  O_38
    7  A    between atoms: C_9  and  N_10
    8  A    between atoms: C_17  and  C_25
    9  A    between atoms: C_17  and  C_30
   10  A    between atoms: C_18  and  C_34
   11  A    between atoms: C_18  and  O_35
   12  A    between atoms: C_20  and  N_32
   13  A    between atoms: C_21  and  C_27
   14  A    between atoms: C_21  and  N_36
   15  A    between atoms: C_28  and  C_33
   16  A    between atoms: C_30  and  N_32
                            x       y       z     vdW  Elec       q    Type
                         _______ _______ _______ _____ _____    ______ ____

>  <TORSDO>
F 16

$$$$
=
 OpenBabel10222416283D

 38 40  0  0  1  0  0  0  0  0999 V2000
  193.2950  177.1560  139.8520 C   0  0  0  0  0  3  0  0  0  0  0  0
  192.4670  177.5030  141.0780 C   0  0  0  0  0  2  0  0  0  0  0  0
  192.7580  176.8970  138.6500 C   0  0  0  0  0  0  0  0  0  0  0  0
  189.1560  176.7710  139.4120 N   0  0  0  0  0  0  0  0  0  0  0  0
  190.4860  176.9190  139.6490 C   0  0  0  0  0  0  0  0  0  0  0  0
  190.3430  176.5400  137.1970 S   0  0  0  0  0  0  0  0  0  0  0  0
  188.9020  176.5590  138.0940 C   0  0  0  0  0  0  0  0  0  0  0  0
  191.0530  177.1210  140.9500 N   0  0  0  0  0  0  0  0  0  0  0  0
  191.2990  176.8250  138.5460 C   0  0  0  0  0  0  0  0  0  0  0  0
  184.9600  175.8580  136.5360 C   0  0  0  0  0  3  0  0  0  0  0  0
  187.2080  175.1180  137.0140 C   0  0  0  0  0  3  0  0  0  0  0  0
  184.2960  178.0660  137.1120 F   0  0  0  0  0  0  0  0  0  0  0  0
  186.7850  178.6270  138.1380 O   0  0  0  0  0  1  0  0  0  0  0  0
  186.5320  177.3700  137.6020 C   0  0  0  0  0  0  0  0  0  0  0  0
  185.9360  174.8630  136.5010 C   0  0  0  0  0  3  0  0  0  0  0  0
  187.5280  176.3660  137.5690 C   0  0  0  0  0  0  0  0  0  0  0  0
  185.2550  177.1070  137.0850 C   0  0  0  0  0  0  0  0  0  0  0  0
  193.5610  176.6010  137.4960 N   0  0  0  0  0  2  0  0  0  0  0  0
  194.6120  175.2430  135.9340 O   0  0  0  0  0  0  0  0  0  0  0  0
  194.0070  175.3170  137.0340 C   0  0  0  0  0  0  0  0  0  0  0  0
  193.8290  174.0670  137.8380 C   0  0  0  0  0  2  0  0  0  0  0  0
  195.1610  173.5750  138.3800 C   0  0  0  0  0  2  0  0  0  0  0  0
  195.9240  174.6890  138.9350 N   0  0  0  0  0  2  0  0  0  0  0  0
  198.0780  175.6260  139.0530 O   0  0  0  0  0  1  0  0  0  0  0  0
  197.3460  174.5100  138.6440 C   0  0  0  0  0  3  0  0  0  0  0  0
  197.5460  174.2770  137.2810 O   0  0  0  0  0  1  0  0  0  0  0  0
  190.2060  177.1820  142.1310 C   0  0  0  0  0  2  0  0  0  0  0  0
  191.0650  177.2540  143.3830 C   0  0  0  0  0  2  0  0  0  0  0  0
  190.2310  177.6560  144.5890 C   0  0  0  0  0  2  0  0  0  0  0  0
  191.7960  177.1270  146.3130 O   0  0  0  0  0  1  0  0  0  0  0  0
  190.5460  176.7840  145.7980 C   0  0  1  0  0  3  0  0  0  0  0  0
  189.4920  176.9910  146.8740 C   0  0  0  0  0  2  0  0  0  0  0  0
  188.2370  177.6280  146.3010 C   0  0  0  0  0  2  0  0  0  0  0  0
  187.1940  177.8030  147.3880 C   0  0  0  0  0  2  0  0  0  0  0  0
  186.4360  178.9440  147.1280 O   0  0  0  0  0  0  0  0  0  0  0  0
  185.2400  178.4540  146.6050 C   0  0  0  0  0  2  0  0  0  0  0  0
  184.7270  178.7110  144.4760 C   0  0  0  0  0  1  0  0  0  0  0  0
  184.7140  179.3770  145.7010 O   0  0  0  0  0  0  0  0  0  0  0  0
  1  2  1  0  0  0  0
  3  1  2  0  0  0  0
  4  5  1  0  0  0  0
  5  8  1  0  0  0  0
  6  7  1  0  0  0  0
  6  9  1  0  0  0  0
  7  4  2  0  0  0  0
  8  2  1  0  0  0  0
  8 27  1  0  0  0  0
  9  3  1  0  0  0  0
  9  5  2  0  0  0  0
 10 17  1  0  0  0  0
 11 16  2  0  0  0  0
 14 13  1  0  0  0  0
 15 10  2  0  0  0  0
 15 11  1  0  0  0  0
 16 14  1  0  0  0  0
 16  7  1  0  0  0  0
 17 12  1  0  0  0  0
 17 14  2  0  0  0  0
 18  3  1  0  0  0  0
 19 20  2  0  0  0  0
 20 18  1  0  0  0  0
 20 21  1  0  0  0  0
 21 22  1  0  0  0  0
 22 23  1  0  0  0  0
 25 23  1  0  0  0  0
 25 24  1  0  0  0  0
 26 25  1  0  0  0  0
 27 28  1  0  0  0  0
 28 29  1  0  0  0  0
 29 31  1  0  0  0  0
 31 30  1  1  0  0  0
 31 32  1  0  0  0  0
 33 32  1  0  0  0  0
 33 34  1  0  0  0  0
 35 34  1  0  0  0  0
 36 35  1  0  0  0  0
 37 38  1  0  0  0  0
 38 36  1  0  0  0  0
M  END
>  <MODEL>
7

>  <REMARK>
 VINA RESULT:      -6.8      3.572      7.898
  Name = 
  16 active torsions:
  status: ('A' for Active; 'I' for Inactive)
    1  A    between atoms: C_3  and  C_11
    2  A    between atoms: C_3  and  C_27
    3  A    between atoms: C_4  and  C_11
    4  A    between atoms: C_4  and  C_34
    5  A    between atoms: C_5  and  O_35
    6  A    between atoms: C_5  and  O_38
    7  A    between atoms: C_9  and  N_10
    8  A    between atoms: C_17  and  C_25
    9  A    between atoms: C_17  and  C_30
   10  A    between atoms: C_18  and  C_34
   11  A    between atoms: C_18  and  O_35
   12  A    between atoms: C_20  and  N_32
   13  A    between atoms: C_21  and  C_27
   14  A    between atoms: C_21  and  N_36
   15  A    between atoms: C_28  and  C_33
   16  A    between atoms: C_30  and  N_32
                            x       y       z     vdW  Elec       q    Type
                         _______ _______ _______ _____ _____    ______ ____

>  <TORSDO>
F 16

$$$$
=
 OpenBabel10222416283D

 38 40  0  0  1  0  0  0  0  0999 V2000
  183.9180  178.7430  139.2030 C   0  0  0  0  0  3  0  0  0  0  0  0
  185.4030  178.9180  138.9330 C   0  0  0  0  0  2  0  0  0  0  0  0
  183.3980  178.6650  140.4380 C   0  0  0  0  0  0  0  0  0  0  0  0
  186.4130  178.4670  142.5470 N   0  0  0  0  0  0  0  0  0  0  0  0
  185.6830  178.5660  141.4040 C   0  0  0  0  0  0  0  0  0  0  0  0
  183.9810  178.5450  143.2160 S   0  0  0  0  0  0  0  0  0  0  0  0
  185.6200  178.4490  143.6490 C   0  0  0  0  0  0  0  0  0  0  0  0
  186.2470  178.5740  140.0870 N   0  0  0  0  0  0  0  0  0  0  0  0
  184.3210  178.6240  141.5740 C   0  0  0  0  0  0  0  0  0  0  0  0
  187.1030  178.2500  147.6760 C   0  0  0  0  0  3  0  0  0  0  0  0
  185.5480  179.0960  146.0340 C   0  0  0  0  0  3  0  0  0  0  0  0
  188.8000  176.7230  147.0180 F   0  0  0  0  0  0  0  0  0  0  0  0
  187.9380  176.7720  144.4070 O   0  0  0  0  0  1  0  0  0  0  0  0
  187.2780  177.5380  145.3620 C   0  0  0  0  0  0  0  0  0  0  0  0
  186.0090  179.0500  147.3510 C   0  0  0  0  0  3  0  0  0  0  0  0
  186.1690  178.3480  145.0230 C   0  0  0  0  0  0  0  0  0  0  0  0
  187.7360  177.4960  146.6870 C   0  0  0  0  0  0  0  0  0  0  0  0
  181.9880  178.5290  140.6710 N   0  0  0  0  0  2  0  0  0  0  0  0
  179.9520  177.4170  140.7870 O   0  0  0  0  0  0  0  0  0  0  0  0
  181.1530  177.3910  140.4100 C   0  0  0  0  0  0  0  0  0  0  0  0
  181.6390  176.1930  139.6560 C   0  0  0  0  0  2  0  0  0  0  0  0
  180.4800  175.4450  139.0170 C   0  0  0  0  0  2  0  0  0  0  0  0
  180.9080  174.8180  137.7710 N   0  0  0  0  0  2  0  0  0  0  0  0
  180.0930  172.6840  138.3320 O   0  0  0  0  0  1  0  0  0  0  0  0
  179.9890  173.7360  137.4190 C   0  0  0  0  0  3  0  0  0  0  0  0
  180.2390  173.2750  136.1250 O   0  0  0  0  0  1  0  0  0  0  0  0
  187.6850  178.4730  139.8920 C   0  0  0  0  0  2  0  0  0  0  0  0
  187.9880  177.5220  138.7450 C   0  0  0  0  0  2  0  0  0  0  0  0
  189.4870  177.4180  138.5110 C   0  0  0  0  0  2  0  0  0  0  0  0
  190.9370  175.5330  138.7230 O   0  0  0  0  0  1  0  0  0  0  0  0
  190.1270  176.4050  139.4510 C   0  0  1  0  0  3  0  0  0  0  0  0
  190.9770  177.1230  140.4870 C   0  0  0  0  0  2  0  0  0  0  0  0
  190.4460  176.8900  141.8920 C   0  0  0  0  0  2  0  0  0  0  0  0
  190.9820  177.9480  142.8380 C   0  0  0  0  0  2  0  0  0  0  0  0
  191.9510  177.3850  143.6660 O   0  0  0  0  0  0  0  0  0  0  0  0
  191.2240  176.7890  144.6960 C   0  0  0  0  0  2  0  0  0  0  0  0
  192.0550  175.9970  146.5790 C   0  0  0  0  0  1  0  0  0  0  0  0
  191.7430  177.1890  145.9270 O   0  0  0  0  0  0  0  0  0  0  0  0
  1  3  2  0  0  0  0
  2  1  1  0  0  0  0
  2  8  1  0  0  0  0
  3 18  1  0  0  0  0
  3  9  1  0  0  0  0
  4  7  2  0  0  0  0
  5  9  2  0  0  0  0
  5  4  1  0  0  0  0
  6  7  1  0  0  0  0
  7 16  1  0  0  0  0
  8  5  1  0  0  0  0
  9  6  1  0  0  0  0
 11 15  2  0  0  0  0
 13 14  1  0  0  0  0
 14 17  1  0  0  0  0
 15 10  1  0  0  0  0
 16 14  2  0  0  0  0
 16 11  1  0  0  0  0
 17 12  1  0  0  0  0
 17 10  2  0  0  0  0
 20 18  1  0  0  0  0
 20 19  2  0  0  0  0
 21 20  1  0  0  0  0
 22 21  1  0  0  0  0
 23 22  1  0  0  0  0
 25 23  1  0  0  0  0
 25 24  1  0  0  0  0
 26 25  1  0  0  0  0
 27  8  1  0  0  0  0
 28 27  1  0  0  0  0
 29 28  1  0  0  0  0
 29 31  1  0  0  0  0
 31 30  1  6  0  0  0
 31 32  1  0  0  0  0
 32 33  1  0  0  0  0
 33 34  1  0  0  0  0
 34 35  1  0  0  0  0
 35 36  1  0  0  0  0
 36 38  1  0  0  0  0
 38 37  1  0  0  0  0
M  END
>  <MODEL>
8

>  <REMARK>
 VINA RESULT:      -6.8      3.737      7.437
  Name = 
  16 active torsions:
  status: ('A' for Active; 'I' for Inactive)
    1  A    between atoms: C_3  and  C_11
    2  A    between atoms: C_3  and  C_27
    3  A    between atoms: C_4  and  C_11
    4  A    between atoms: C_4  and  C_34
    5  A    between atoms: C_5  and  O_35
    6  A    between atoms: C_5  and  O_38
    7  A    between atoms: C_9  and  N_10
    8  A    between atoms: C_17  and  C_25
    9  A    between atoms: C_17  and  C_30
   10  A    between atoms: C_18  and  C_34
   11  A    between atoms: C_18  and  O_35
   12  A    between atoms: C_20  and  N_32
   13  A    between atoms: C_21  and  C_27
   14  A    between atoms: C_21  and  N_36
   15  A    between atoms: C_28  and  C_33
   16  A    between atoms: C_30  and  N_32
                            x       y       z     vdW  Elec       q    Type
                         _______ _______ _______ _____ _____    ______ ____

>  <TORSDO>
F 16

$$$$
=
 OpenBabel10222416283D

 38 40  0  0  1  0  0  0  0  0999 V2000
  186.7960  178.3810  142.5840 C   0  0  0  0  0  3  0  0  0  0  0  0
  187.6910  177.4240  143.3540 C   0  0  0  0  0  2  0  0  0  0  0  0
  186.8900  178.5720  141.2580 C   0  0  0  0  0  0  0  0  0  0  0  0
  189.9540  176.7090  140.4130 N   0  0  0  0  0  0  0  0  0  0  0  0
  188.9620  177.2070  141.1990 C   0  0  0  0  0  0  0  0  0  0  0  0
  188.3550  177.9500  138.9060 S   0  0  0  0  0  0  0  0  0  0  0  0
  189.7650  177.0270  139.1070 C   0  0  0  0  0  0  0  0  0  0  0  0
  188.9130  177.0580  142.6230 N   0  0  0  0  0  0  0  0  0  0  0  0
  187.9870  177.9190  140.5430 C   0  0  0  0  0  0  0  0  0  0  0  0
  192.3740  175.7790  135.9290 C   0  0  0  0  0  3  0  0  0  0  0  0
  190.1670  176.2170  136.8050 C   0  0  0  0  0  3  0  0  0  0  0  0
  194.2810  176.1270  137.3030 F   0  0  0  0  0  0  0  0  0  0  0  0
  192.7090  176.9420  139.4070 O   0  0  0  0  0  1  0  0  0  0  0  0
  192.1110  176.5720  138.2080 C   0  0  0  0  0  0  0  0  0  0  0  0
  190.9910  175.8070  135.7560 C   0  0  0  0  0  3  0  0  0  0  0  0
  190.7070  176.6030  138.0410 C   0  0  0  0  0  0  0  0  0  0  0  0
  192.9330  176.1600  137.1490 C   0  0  0  0  0  0  0  0  0  0  0  0
  186.0140  179.4590  140.5460 N   0  0  0  0  0  2  0  0  0  0  0  0
  184.0790  180.0840  139.4240 O   0  0  0  0  0  0  0  0  0  0  0  0
  184.7670  179.1470  139.9060 C   0  0  0  0  0  0  0  0  0  0  0  0
  184.2780  177.7430  139.7400 C   0  0  0  0  0  2  0  0  0  0  0  0
  183.9350  177.4540  138.2870 C   0  0  0  0  0  2  0  0  0  0  0  0
  182.5670  176.9560  138.1790 N   0  0  0  0  0  2  0  0  0  0  0  0
  182.2580  174.6650  137.7460 O   0  0  0  0  0  1  0  0  0  0  0  0
  182.4830  175.6110  138.7480 C   0  0  0  0  0  3  0  0  0  0  0  0
  181.4720  175.5430  139.7090 O   0  0  0  0  0  1  0  0  0  0  0  0
  189.9600  176.3410  143.3340 C   0  0  0  0  0  2  0  0  0  0  0  0
  190.6050  177.2520  144.3660 C   0  0  0  0  0  2  0  0  0  0  0  0
  191.4650  176.4520  145.3310 C   0  0  0  0  0  2  0  0  0  0  0  0
  191.9400  176.9200  147.6250 O   0  0  0  0  0  1  0  0  0  0  0  0
  190.9230  176.5280  146.7530 C   0  0  1  0  0  3  0  0  0  0  0  0
  189.7920  177.5420  146.8220 C   0  0  0  0  0  2  0  0  0  0  0  0
  188.5400  176.9300  147.4270 C   0  0  0  0  0  2  0  0  0  0  0  0
  188.0060  177.8160  148.5370 C   0  0  0  0  0  2  0  0  0  0  0  0
  187.3720  178.9260  147.9840 O   0  0  0  0  0  0  0  0  0  0  0  0
  186.2590  178.3990  147.3280 C   0  0  0  0  0  2  0  0  0  0  0  0
  184.7570  178.7040  145.7430 C   0  0  0  0  0  1  0  0  0  0  0  0
  186.0180  179.1260  146.1620 O   0  0  0  0  0  0  0  0  0  0  0  0
  1  2  1  0  0  0  0
  3  1  2  0  0  0  0
  4  5  1  0  0  0  0
  5  8  1  0  0  0  0
  6  7  1  0  0  0  0
  6  9  1  0  0  0  0
  7  4  2  0  0  0  0
  8 27  1  0  0  0  0
  8  2  1  0  0  0  0
  9  5  2  0  0  0  0
  9  3  1  0  0  0  0
 10 17  1  0  0  0  0
 11 16  2  0  0  0  0
 14 13  1  0  0  0  0
 15 10  2  0  0  0  0
 15 11  1  0  0  0  0
 16 14  1  0  0  0  0
 16  7  1  0  0  0  0
 17 12  1  0  0  0  0
 17 14  2  0  0  0  0
 18  3  1  0  0  0  0
 19 20  2  0  0  0  0
 20 18  1  0  0  0  0
 21 20  1  0  0  0  0
 22 21  1  0  0  0  0
 23 22  1  0  0  0  0
 23 25  1  0  0  0  0
 24 25  1  0  0  0  0
 25 26  1  0  0  0  0
 27 28  1  0  0  0  0
 28 29  1  0  0  0  0
 29 31  1  0  0  0  0
 31 32  1  0  0  0  0
 31 30  1  1  0  0  0
 32 33  1  0  0  0  0
 33 34  1  0  0  0  0
 35 34  1  0  0  0  0
 36 35  1  0  0  0  0
 37 38  1  0  0  0  0
 38 36  1  0  0  0  0
M  END
>  <MODEL>
9

>  <REMARK>
 VINA RESULT:      -6.7      1.985      2.376
  Name = 
  16 active torsions:
  status: ('A' for Active; 'I' for Inactive)
    1  A    between atoms: C_3  and  C_11
    2  A    between atoms: C_3  and  C_27
    3  A    between atoms: C_4  and  C_11
    4  A    between atoms: C_4  and  C_34
    5  A    between atoms: C_5  and  O_35
    6  A    between atoms: C_5  and  O_38
    7  A    between atoms: C_9  and  N_10
    8  A    between atoms: C_17  and  C_25
    9  A    between atoms: C_17  and  C_30
   10  A    between atoms: C_18  and  C_34
   11  A    between atoms: C_18  and  O_35
   12  A    between atoms: C_20  and  N_32
   13  A    between atoms: C_21  and  C_27
   14  A    between atoms: C_21  and  N_36
   15  A    between atoms: C_28  and  C_33
   16  A    between atoms: C_30  and  N_32
                            x       y       z     vdW  Elec       q    Type
                         _______ _______ _______ _____ _____    ______ ____

>  <TORSDO>
F 16

$$$$
