=
 OpenBabel10222420123D

 27 29  0  0  1  0  0  0  0  0999 V2000
  189.0420  178.1950  142.8030 C   0  0  2  0  0  3  0  0  0  0  0  0
  190.9690  177.5670  141.5340 O   0  0  0  0  0  0  0  0  0  0  0  0
  190.3740  177.5310  142.6450 C   0  0  0  0  0  0  0  0  0  0  0  0
  191.7160  176.2940  145.7310 C   0  0  0  0  0  0  0  0  0  0  0  0
  191.5430  175.6540  143.7190 O   0  0  0  0  0  0  0  0  0  0  0  0
  190.9860  176.8400  143.7850 C   0  0  0  0  0  0  0  0  0  0  0  0
  191.0620  177.3270  145.0780 C   0  0  0  0  0  3  0  0  0  0  0  0
  191.9970  175.2890  144.8810 N   0  0  0  0  0  0  0  0  0  0  0  0
  192.0600  176.2710  147.1570 C   0  0  0  0  0  0  0  0  0  0  0  0
  192.9300  175.3030  147.6460 O   0  0  0  0  0  0  0  0  0  0  0  0
  191.5730  177.1250  147.9440 O   0  0  0  0  0  1  0  0  0  0  0  0
  187.9890  177.1660  143.1980 C   0  0  0  0  0  2  0  0  0  0  0  0
  184.1980  179.0030  145.4780 N   0  0  0  0  0  0  0  0  0  0  0  0
  186.0800  178.3980  146.8480 N   0  0  0  0  0  0  0  0  0  0  0  0
  185.4260  178.5070  145.6700 C   0  0  0  0  0  0  0  0  0  0  0  0
  186.0140  178.0980  144.4480 C   0  0  2  0  0  3  0  0  0  0  0  0
  187.9370  177.4790  145.6620 N   0  0  0  0  0  0  0  0  0  0  0  0
  187.2980  177.5720  144.4580 C   0  0  0  0  0  0  0  0  0  0  0  0
  184.0020  178.9120  144.1350 C   0  0  0  0  0  3  0  0  0  0  0  0
  187.3450  177.8780  146.8350 C   0  0  0  0  0  3  0  0  0  0  0  0
  185.1000  178.3600  143.4570 C   0  0  0  0  0  3  0  0  0  0  0  0
  188.6810  178.8300  141.6090 O   0  0  0  0  0  0  0  0  0  0  0  0
  187.9200  177.8870  140.9110 C   0  0  0  0  0  2  0  0  0  0  0  0
  187.8570  178.2580  139.4690 C   0  0  0  0  0  0  0  0  0  0  0  0
  186.7460  178.2520  138.8730 O   0  0  0  0  0  0  0  0  0  0  0  0
  189.0550  178.6200  138.7780 N   0  0  0  0  0  2  0  0  0  0  0  0
  189.0550  178.9730  137.3670 C   0  0  0  0  0  1  0  0  0  0  0  0
  1 12  1  6  0  0  0
  2  3  2  0  0  0  0
  3  1  1  0  0  0  0
  3  6  1  0  0  0  0
  4  9  1  0  0  0  0
  5  6  1  0  0  0  0
  5  8  1  0  0  0  0
  6  7  2  0  0  0  0
  7  4  1  0  0  0  0
  8  4  2  0  0  0  0
  9 10  2  0  0  0  0
  9 11  1  0  0  0  0
 12 18  1  0  0  0  0
 13 15  2  0  0  0  0
 15 14  1  0  0  0  0
 16 21  1  6  0  0  0
 16 18  1  0  0  0  0
 16 15  1  0  0  0  0
 17 20  1  0  0  0  0
 18 17  2  0  0  0  0
 19 13  1  0  0  0  0
 20 14  2  0  0  0  0
 21 19  2  0  0  0  0
 22  1  1  0  0  0  0
 23 22  1  0  0  0  0
 24 23  1  0  0  0  0
 25 24  2  0  0  0  0
 26 24  1  0  0  0  0
 27 26  1  0  0  0  0
M  END
>  <MODEL>
1

>  <REMARK>
 VINA RESULT:      -8.1      0.000      0.000
  Name = 
  8 active torsions:
  status: ('A' for Active; 'I' for Inactive)
    1  A    between atoms: C_5  and  C_13
    2  A    between atoms: C_5  and  C_19
    3  A    between atoms: C_6  and  C_23
    4  A    between atoms: C_7  and  C_8
    5  A    between atoms: C_9  and  C_14
    6  A    between atoms: C_9  and  C_19
    7  A    between atoms: C_19  and  O_20
    8  A    between atoms: O_20  and  C_23
                            x       y       z     vdW  Elec       q    Type
                         _______ _______ _______ _____ _____    ______ ____

>  <TORSDO>
F 8

$$$$
=
 OpenBabel10222420123D

 27 29  0  0  1  0  0  0  0  0999 V2000
  189.1240  177.5330  142.2910 C   0  0  2  0  0  3  0  0  0  0  0  0
  191.4040  177.7810  141.6160 O   0  0  0  0  0  0  0  0  0  0  0  0
  190.5980  177.3840  142.5000 C   0  0  0  0  0  0  0  0  0  0  0  0
  191.6540  176.3740  145.7750 C   0  0  0  0  0  0  0  0  0  0  0  0
  191.6560  175.5890  143.8060 O   0  0  0  0  0  0  0  0  0  0  0  0
  191.1030  176.7770  143.7370 C   0  0  0  0  0  0  0  0  0  0  0  0
  191.0670  177.3560  144.9930 C   0  0  0  0  0  3  0  0  0  0  0  0
  192.0030  175.3100  145.0270 N   0  0  0  0  0  0  0  0  0  0  0  0
  191.8710  176.4530  147.2230 C   0  0  0  0  0  0  0  0  0  0  0  0
  191.0250  177.2230  148.0120 O   0  0  0  0  0  1  0  0  0  0  0  0
  192.8230  175.8260  147.7590 O   0  0  0  0  0  0  0  0  0  0  0  0
  188.3640  176.7180  143.3310 C   0  0  0  0  0  2  0  0  0  0  0  0
  185.9540  178.6710  146.9810 N   0  0  0  0  0  0  0  0  0  0  0  0
  184.9450  178.8670  144.8070 N   0  0  0  0  0  0  0  0  0  0  0  0
  185.9230  178.4820  145.6570 C   0  0  0  0  0  0  0  0  0  0  0  0
  187.0710  177.7870  145.2080 C   0  0  2  0  0  3  0  0  0  0  0  0
  186.1920  177.8860  143.0240 N   0  0  0  0  0  0  0  0  0  0  0  0
  187.1980  177.4890  143.8590 C   0  0  0  0  0  0  0  0  0  0  0  0
  187.1200  178.0960  147.3790 C   0  0  0  0  0  3  0  0  0  0  0  0
  185.0890  178.5640  143.4820 C   0  0  0  0  0  3  0  0  0  0  0  0
  187.8450  177.5350  146.3160 C   0  0  0  0  0  3  0  0  0  0  0  0
  188.7810  177.1160  140.9990 O   0  0  0  0  0  0  0  0  0  0  0  0
  188.4110  178.2850  140.3260 C   0  0  0  0  0  2  0  0  0  0  0  0
  189.0230  178.2980  138.9670 C   0  0  0  0  0  0  0  0  0  0  0  0
  189.0070  179.3600  138.2880 O   0  0  0  0  0  0  0  0  0  0  0  0
  189.6240  177.1090  138.4480 N   0  0  0  0  0  2  0  0  0  0  0  0
  190.2190  177.0600  137.1230 C   0  0  0  0  0  1  0  0  0  0  0  0
  1  3  1  0  0  0  0
  1 12  1  1  0  0  0
  2  3  2  0  0  0  0
  3  6  1  0  0  0  0
  4  9  1  0  0  0  0
  5  8  1  0  0  0  0
  6  5  1  0  0  0  0
  6  7  2  0  0  0  0
  7  4  1  0  0  0  0
  8  4  2  0  0  0  0
  9 11  2  0  0  0  0
  9 10  1  0  0  0  0
 12 18  1  0  0  0  0
 13 19  1  0  0  0  0
 14 15  1  0  0  0  0
 15 13  2  0  0  0  0
 16 15  1  0  0  0  0
 16 21  1  1  0  0  0
 17 20  1  0  0  0  0
 17 18  2  0  0  0  0
 18 16  1  0  0  0  0
 20 14  2  0  0  0  0
 21 19  2  0  0  0  0
 22  1  1  0  0  0  0
 23 22  1  0  0  0  0
 24 23  1  0  0  0  0
 25 24  2  0  0  0  0
 26 24  1  0  0  0  0
 27 26  1  0  0  0  0
M  END
>  <MODEL>
2

>  <REMARK>
 VINA RESULT:      -8.1      1.154      2.021
  Name = 
  8 active torsions:
  status: ('A' for Active; 'I' for Inactive)
    1  A    between atoms: C_5  and  C_13
    2  A    between atoms: C_5  and  C_19
    3  A    between atoms: C_6  and  C_23
    4  A    between atoms: C_7  and  C_8
    5  A    between atoms: C_9  and  C_14
    6  A    between atoms: C_9  and  C_19
    7  A    between atoms: C_19  and  O_20
    8  A    between atoms: O_20  and  C_23
                            x       y       z     vdW  Elec       q    Type
                         _______ _______ _______ _____ _____    ______ ____

>  <TORSDO>
F 8

$$$$
=
 OpenBabel10222420123D

 27 29  0  0  1  0  0  0  0  0999 V2000
  189.0890  177.2940  142.9810 C   0  0  2  0  0  3  0  0  0  0  0  0
  187.7850  178.8440  141.7110 O   0  0  0  0  0  0  0  0  0  0  0  0
  188.7000  177.9760  141.7080 C   0  0  0  0  0  0  0  0  0  0  0  0
  190.6600  176.7660  138.9600 C   0  0  0  0  0  0  0  0  0  0  0  0
  189.1330  178.1960  139.2970 O   0  0  0  0  0  0  0  0  0  0  0  0
  189.3860  177.6340  140.4560 C   0  0  0  0  0  0  0  0  0  0  0  0
  190.3810  176.6840  140.3140 C   0  0  0  0  0  3  0  0  0  0  0  0
  189.8870  177.6940  138.3650 N   0  0  0  0  0  0  0  0  0  0  0  0
  191.6540  175.9580  138.2440 C   0  0  0  0  0  0  0  0  0  0  0  0
  192.8020  176.5560  137.7380 O   0  0  0  0  0  0  0  0  0  0  0  0
  191.4730  174.7220  138.0850 O   0  0  0  0  0  1  0  0  0  0  0  0
  187.8910  176.5500  143.5620 C   0  0  0  0  0  2  0  0  0  0  0  0
  184.8200  179.1880  146.1220 N   0  0  0  0  0  0  0  0  0  0  0  0
  186.7530  178.3630  147.2910 N   0  0  0  0  0  0  0  0  0  0  0  0
  185.9640  178.4980  146.2010 C   0  0  0  0  0  0  0  0  0  0  0  0
  186.2960  177.9050  144.9600 C   0  0  2  0  0  3  0  0  0  0  0  0
  188.2440  177.0470  145.9710 N   0  0  0  0  0  0  0  0  0  0  0  0
  187.4640  177.1630  144.8550 C   0  0  0  0  0  0  0  0  0  0  0  0
  184.4220  179.0350  144.8300 C   0  0  0  0  0  3  0  0  0  0  0  0
  187.9000  177.6280  147.1660 C   0  0  0  0  0  3  0  0  0  0  0  0
  185.3050  178.2500  144.0730 C   0  0  0  0  0  3  0  0  0  0  0  0
  189.5710  178.2340  143.8990 O   0  0  0  0  0  0  0  0  0  0  0  0
  190.9640  178.1790  143.7790 C   0  0  0  0  0  2  0  0  0  0  0  0
  191.4870  177.0090  144.5390 C   0  0  0  0  0  0  0  0  0  0  0  0
  191.8070  175.9570  143.9210 O   0  0  0  0  0  0  0  0  0  0  0  0
  191.6250  177.0900  145.9600 N   0  0  0  0  0  2  0  0  0  0  0  0
  192.1120  175.9730  146.7530 C   0  0  0  0  0  1  0  0  0  0  0  0
  1 12  1  1  0  0  0
  1 22  1  0  0  0  0
  3  2  2  0  0  0  0
  3  1  1  0  0  0  0
  4  7  1  0  0  0  0
  5  6  1  0  0  0  0
  6  3  1  0  0  0  0
  7  6  2  0  0  0  0
  8  4  2  0  0  0  0
  8  5  1  0  0  0  0
  9  4  1  0  0  0  0
 10  9  2  0  0  0  0
 11  9  1  0  0  0  0
 12 18  1  0  0  0  0
 13 15  2  0  0  0  0
 15 14  1  0  0  0  0
 16 21  1  6  0  0  0
 16 15  1  0  0  0  0
 17 20  1  0  0  0  0
 18 16  1  0  0  0  0
 18 17  2  0  0  0  0
 19 13  1  0  0  0  0
 20 14  2  0  0  0  0
 21 19  2  0  0  0  0
 23 22  1  0  0  0  0
 23 24  1  0  0  0  0
 24 26  1  0  0  0  0
 25 24  2  0  0  0  0
 26 27  1  0  0  0  0
M  END
>  <MODEL>
3

>  <REMARK>
 VINA RESULT:      -8.1      1.960      5.311
  Name = 
  8 active torsions:
  status: ('A' for Active; 'I' for Inactive)
    1  A    between atoms: C_5  and  C_13
    2  A    between atoms: C_5  and  C_19
    3  A    between atoms: C_6  and  C_23
    4  A    between atoms: C_7  and  C_8
    5  A    between atoms: C_9  and  C_14
    6  A    between atoms: C_9  and  C_19
    7  A    between atoms: C_19  and  O_20
    8  A    between atoms: O_20  and  C_23
                            x       y       z     vdW  Elec       q    Type
                         _______ _______ _______ _____ _____    ______ ____

>  <TORSDO>
F 8

$$$$
=
 OpenBabel10222420123D

 27 29  0  0  1  0  0  0  0  0999 V2000
  188.7600  178.0930  141.8350 C   0  0  2  0  0  3  0  0  0  0  0  0
  190.1960  176.6500  140.5810 O   0  0  0  0  0  0  0  0  0  0  0  0
  189.2890  177.5250  140.5560 C   0  0  0  0  0  0  0  0  0  0  0  0
  187.6680  178.1760  137.4240 C   0  0  0  0  0  0  0  0  0  0  0  0
  189.0710  179.1230  138.6990 O   0  0  0  0  0  0  0  0  0  0  0  0
  188.7480  177.9870  139.2720 C   0  0  0  0  0  0  0  0  0  0  0  0
  187.8290  177.3080  138.4920 C   0  0  0  0  0  3  0  0  0  0  0  0
  188.4360  179.2720  137.5750 N   0  0  0  0  0  0  0  0  0  0  0  0
  186.7820  177.9590  136.2750 C   0  0  0  0  0  0  0  0  0  0  0  0
  185.5570  177.3280  136.4520 O   0  0  0  0  0  1  0  0  0  0  0  0
  187.1260  178.3420  135.1250 O   0  0  0  0  0  0  0  0  0  0  0  0
  188.3540  176.9660  142.7780 C   0  0  0  0  0  2  0  0  0  0  0  0
  188.9460  177.6050  147.4880 N   0  0  0  0  0  0  0  0  0  0  0  0
  190.9090  177.0050  146.2350 N   0  0  0  0  0  0  0  0  0  0  0  0
  189.5920  177.2770  146.3620 C   0  0  0  0  0  0  0  0  0  0  0  0
  188.7140  177.2600  145.2510 C   0  0  2  0  0  3  0  0  0  0  0  0
  190.5560  176.6890  143.8960 N   0  0  0  0  0  0  0  0  0  0  0  0
  189.2200  176.9560  143.9950 C   0  0  0  0  0  0  0  0  0  0  0  0
  187.6580  177.7960  147.0970 C   0  0  0  0  0  3  0  0  0  0  0  0
  191.3870  176.7080  144.9890 C   0  0  0  0  0  3  0  0  0  0  0  0
  187.4680  177.5950  145.7200 C   0  0  0  0  0  3  0  0  0  0  0  0
  187.6670  178.9270  141.5720 O   0  0  0  0  0  0  0  0  0  0  0  0
  186.5680  178.2780  142.1460 C   0  0  0  0  0  2  0  0  0  0  0  0
  185.3200  178.6830  141.4400 C   0  0  0  0  0  0  0  0  0  0  0  0
  185.3900  179.4470  140.4390 O   0  0  0  0  0  0  0  0  0  0  0  0
  184.0560  178.2010  141.9030 N   0  0  0  0  0  2  0  0  0  0  0  0
  182.8050  178.5780  141.2640 C   0  0  0  0  0  1  0  0  0  0  0  0
  1 12  1  1  0  0  0
  3  2  2  0  0  0  0
  3  1  1  0  0  0  0
  4  8  2  0  0  0  0
  4  7  1  0  0  0  0
  5  6  1  0  0  0  0
  6  3  1  0  0  0  0
  7  6  2  0  0  0  0
  8  5  1  0  0  0  0
  9 10  1  0  0  0  0
  9  4  1  0  0  0  0
 11  9  2  0  0  0  0
 12 18  1  0  0  0  0
 14 15  1  0  0  0  0
 15 13  2  0  0  0  0
 16 21  1  6  0  0  0
 16 15  1  0  0  0  0
 17 18  2  0  0  0  0
 17 20  1  0  0  0  0
 18 16  1  0  0  0  0
 19 13  1  0  0  0  0
 20 14  2  0  0  0  0
 21 19  2  0  0  0  0
 22  1  1  0  0  0  0
 22 23  1  0  0  0  0
 24 26  1  0  0  0  0
 24 23  1  0  0  0  0
 25 24  2  0  0  0  0
 27 26  1  0  0  0  0
M  END
>  <MODEL>
4

>  <REMARK>
 VINA RESULT:      -7.8      2.812      6.340
  Name = 
  8 active torsions:
  status: ('A' for Active; 'I' for Inactive)
    1  A    between atoms: C_5  and  C_13
    2  A    between atoms: C_5  and  C_19
    3  A    between atoms: C_6  and  C_23
    4  A    between atoms: C_7  and  C_8
    5  A    between atoms: C_9  and  C_14
    6  A    between atoms: C_9  and  C_19
    7  A    between atoms: C_19  and  O_20
    8  A    between atoms: O_20  and  C_23
                            x       y       z     vdW  Elec       q    Type
                         _______ _______ _______ _____ _____    ______ ____

>  <TORSDO>
F 8

$$$$
=
 OpenBabel10222420123D

 27 29  0  0  1  0  0  0  0  0999 V2000
  189.3710  177.6370  142.7200 C   0  0  2  0  0  3  0  0  0  0  0  0
  188.1300  175.6560  143.2180 O   0  0  0  0  0  0  0  0  0  0  0  0
  188.1030  176.8990  143.0130 C   0  0  0  0  0  0  0  0  0  0  0  0
  184.9790  178.5290  143.6820 C   0  0  0  0  0  0  0  0  0  0  0  0
  186.2900  178.2460  142.0410 O   0  0  0  0  0  0  0  0  0  0  0  0
  186.8290  177.6260  143.0640 C   0  0  0  0  0  0  0  0  0  0  0  0
  186.0230  177.7660  144.1800 C   0  0  0  0  0  3  0  0  0  0  0  0
  185.1670  178.8060  142.3780 N   0  0  0  0  0  0  0  0  0  0  0  0
  183.8190  178.9900  144.4510 C   0  0  0  0  0  0  0  0  0  0  0  0
  183.8650  179.0030  145.8390 O   0  0  0  0  0  1  0  0  0  0  0  0
  182.7760  179.3780  143.8590 O   0  0  0  0  0  0  0  0  0  0  0  0
  189.7190  178.5610  143.8820 C   0  0  0  0  0  2  0  0  0  0  0  0
  188.8080  177.0510  148.3360 N   0  0  0  0  0  0  0  0  0  0  0  0
  190.8930  176.3400  147.3710 N   0  0  0  0  0  0  0  0  0  0  0  0
  189.7060  176.9860  147.3460 C   0  0  0  0  0  0  0  0  0  0  0  0
  189.2770  177.7160  146.2110 C   0  0  2  0  0  3  0  0  0  0  0  0
  191.2910  177.1120  145.1480 N   0  0  0  0  0  0  0  0  0  0  0  0
  190.0960  177.7710  145.0920 C   0  0  0  0  0  0  0  0  0  0  0  0
  187.8060  177.8210  147.8340 C   0  0  0  0  0  3  0  0  0  0  0  0
  191.6850  176.4070  146.2580 C   0  0  0  0  0  3  0  0  0  0  0  0
  188.0530  178.2570  146.5230 C   0  0  0  0  0  3  0  0  0  0  0  0
  189.2330  178.3720  141.5370 O   0  0  0  0  0  0  0  0  0  0  0  0
  189.6540  177.5090  140.5200 C   0  0  0  0  0  2  0  0  0  0  0  0
  189.0480  177.9230  139.2240 C   0  0  0  0  0  0  0  0  0  0  0  0
  188.0020  178.6270  139.2230 O   0  0  0  0  0  0  0  0  0  0  0  0
  189.6590  177.5210  137.9950 N   0  0  0  0  0  2  0  0  0  0  0  0
  189.1000  177.8820  136.7020 C   0  0  0  0  0  1  0  0  0  0  0  0
  1  3  1  0  0  0  0
  1 12  1  1  0  0  0
  3  6  1  0  0  0  0
  3  2  2  0  0  0  0
  4  7  1  0  0  0  0
  4  9  1  0  0  0  0
  5  8  1  0  0  0  0
  5  6  1  0  0  0  0
  6  7  2  0  0  0  0
  8  4  2  0  0  0  0
  9 10  1  0  0  0  0
 11  9  2  0  0  0  0
 12 18  1  0  0  0  0
 15 14  1  0  0  0  0
 15 13  2  0  0  0  0
 16 21  1  1  0  0  0
 16 15  1  0  0  0  0
 17 20  1  0  0  0  0
 18 17  2  0  0  0  0
 18 16  1  0  0  0  0
 19 13  1  0  0  0  0
 20 14  2  0  0  0  0
 21 19  2  0  0  0  0
 22  1  1  0  0  0  0
 23 22  1  0  0  0  0
 24 23  1  0  0  0  0
 25 24  2  0  0  0  0
 26 24  1  0  0  0  0
 27 26  1  0  0  0  0
M  END
>  <MODEL>
5

>  <REMARK>
 VINA RESULT:      -7.8      2.431      5.117
  Name = 
  8 active torsions:
  status: ('A' for Active; 'I' for Inactive)
    1  A    between atoms: C_5  and  C_13
    2  A    between atoms: C_5  and  C_19
    3  A    between atoms: C_6  and  C_23
    4  A    between atoms: C_7  and  C_8
    5  A    between atoms: C_9  and  C_14
    6  A    between atoms: C_9  and  C_19
    7  A    between atoms: C_19  and  O_20
    8  A    between atoms: O_20  and  C_23
                            x       y       z     vdW  Elec       q    Type
                         _______ _______ _______ _____ _____    ______ ____

>  <TORSDO>
F 8

$$$$
=
 OpenBabel10222420123D

 27 29  0  0  1  0  0  0  0  0999 V2000
  189.5350  177.6180  142.6290 C   0  0  2  0  0  3  0  0  0  0  0  0
  188.4260  175.5410  143.0370 O   0  0  0  0  0  0  0  0  0  0  0  0
  188.6310  176.7250  143.4170 C   0  0  0  0  0  0  0  0  0  0  0  0
  186.6550  178.1580  146.0440 C   0  0  0  0  0  0  0  0  0  0  0  0
  188.4510  177.0500  145.8480 O   0  0  0  0  0  0  0  0  0  0  0  0
  187.9840  177.2290  144.6340 C   0  0  0  0  0  0  0  0  0  0  0  0
  186.8050  177.9510  144.6830 C   0  0  0  0  0  3  0  0  0  0  0  0
  187.6710  177.6000  146.7300 N   0  0  0  0  0  0  0  0  0  0  0  0
  185.5460  178.8780  146.6800 C   0  0  0  0  0  0  0  0  0  0  0  0
  184.2370  178.6180  146.2930 O   0  0  0  0  0  0  0  0  0  0  0  0
  185.7730  179.7310  147.5780 O   0  0  0  0  0  1  0  0  0  0  0  0
  190.1900  176.8320  141.4980 C   0  0  0  0  0  2  0  0  0  0  0  0
  190.3200  176.9260  136.7110 N   0  0  0  0  0  0  0  0  0  0  0  0
  188.3900  177.9170  137.7480 N   0  0  0  0  0  0  0  0  0  0  0  0
  189.5760  177.2690  137.7690 C   0  0  0  0  0  0  0  0  0  0  0  0
  190.1940  176.8820  138.9820 C   0  0  2  0  0  3  0  0  0  0  0  0
  188.3720  177.8350  140.1330 N   0  0  0  0  0  0  0  0  0  0  0  0
  189.5670  177.1750  140.1850 C   0  0  0  0  0  0  0  0  0  0  0  0
  191.4130  176.3190  137.2480 C   0  0  0  0  0  3  0  0  0  0  0  0
  187.7890  178.1970  138.9440 C   0  0  0  0  0  3  0  0  0  0  0  0
  191.3790  176.2700  138.6500 C   0  0  0  0  0  3  0  0  0  0  0  0
  190.5100  178.1710  143.4680 O   0  0  0  0  0  0  0  0  0  0  0  0
  191.6340  177.3530  143.3080 C   0  0  0  0  0  2  0  0  0  0  0  0
  191.7850  176.4680  144.4980 C   0  0  0  0  0  0  0  0  0  0  0  0
  191.9540  175.2290  144.3340 O   0  0  0  0  0  0  0  0  0  0  0  0
  191.7390  177.0320  145.8110 N   0  0  0  0  0  2  0  0  0  0  0  0
  191.8620  176.2130  147.0060 C   0  0  0  0  0  1  0  0  0  0  0  0
  1 12  1  6  0  0  0
  1  3  1  0  0  0  0
  1 22  1  0  0  0  0
  2  3  2  0  0  0  0
  3  6  1  0  0  0  0
  4  9  1  0  0  0  0
  4  8  2  0  0  0  0
  5  8  1  0  0  0  0
  6  7  2  0  0  0  0
  6  5  1  0  0  0  0
  7  4  1  0  0  0  0
  9 11  1  0  0  0  0
 10  9  2  0  0  0  0
 13 19  1  0  0  0  0
 13 15  2  0  0  0  0
 14 15  1  0  0  0  0
 14 20  2  0  0  0  0
 15 16  1  0  0  0  0
 16 21  1  1  0  0  0
 16 18  1  0  0  0  0
 17 18  2  0  0  0  0
 18 12  1  0  0  0  0
 19 21  2  0  0  0  0
 20 17  1  0  0  0  0
 23 22  1  0  0  0  0
 23 24  1  0  0  0  0
 24 26  1  0  0  0  0
 25 24  2  0  0  0  0
 26 27  1  0  0  0  0
M  END
>  <MODEL>
6

>  <REMARK>
 VINA RESULT:      -7.7      2.591      6.777
  Name = 
  8 active torsions:
  status: ('A' for Active; 'I' for Inactive)
    1  A    between atoms: C_5  and  C_13
    2  A    between atoms: C_5  and  C_19
    3  A    between atoms: C_6  and  C_23
    4  A    between atoms: C_7  and  C_8
    5  A    between atoms: C_9  and  C_14
    6  A    between atoms: C_9  and  C_19
    7  A    between atoms: C_19  and  O_20
    8  A    between atoms: O_20  and  C_23
                            x       y       z     vdW  Elec       q    Type
                         _______ _______ _______ _____ _____    ______ ____

>  <TORSDO>
F 8

$$$$
=
 OpenBabel10222420123D

 27 29  0  0  1  0  0  0  0  0999 V2000
  189.0490  177.2910  143.0890 C   0  0  2  0  0  3  0  0  0  0  0  0
  188.0560  178.9770  141.7150 O   0  0  0  0  0  0  0  0  0  0  0  0
  188.7590  177.9310  141.7680 C   0  0  0  0  0  0  0  0  0  0  0  0
  190.5550  176.4500  139.0410 C   0  0  0  0  0  0  0  0  0  0  0  0
  188.5940  177.1440  139.4450 O   0  0  0  0  0  0  0  0  0  0  0  0
  189.2950  177.3420  140.5360 C   0  0  0  0  0  0  0  0  0  0  0  0
  190.5960  176.9110  140.3470 C   0  0  0  0  0  3  0  0  0  0  0  0
  189.3250  176.6040  138.5160 N   0  0  0  0  0  0  0  0  0  0  0  0
  191.6820  175.8620  138.3090 C   0  0  0  0  0  0  0  0  0  0  0  0
  191.6620  174.5160  137.9660 O   0  0  0  0  0  0  0  0  0  0  0  0
  192.6710  176.5730  137.9860 O   0  0  0  0  0  1  0  0  0  0  0  0
  187.7990  176.5980  143.6190 C   0  0  0  0  0  2  0  0  0  0  0  0
  187.1540  178.2480  148.0690 N   0  0  0  0  0  0  0  0  0  0  0  0
  185.6400  179.0740  146.3920 N   0  0  0  0  0  0  0  0  0  0  0  0
  186.6890  178.3350  146.8170 C   0  0  0  0  0  0  0  0  0  0  0  0
  187.4350  177.5190  145.9330 C   0  0  2  0  0  3  0  0  0  0  0  0
  186.0130  178.2270  144.1920 N   0  0  0  0  0  0  0  0  0  0  0  0
  187.0800  177.4740  144.5920 C   0  0  0  0  0  0  0  0  0  0  0  0
  188.1950  177.3780  147.9850 C   0  0  0  0  0  3  0  0  0  0  0  0
  185.3070  179.0150  145.0680 C   0  0  0  0  0  3  0  0  0  0  0  0
  188.4050  176.8990  146.6820 C   0  0  0  0  0  3  0  0  0  0  0  0
  189.4960  178.2550  144.0000 O   0  0  0  0  0  0  0  0  0  0  0  0
  190.8920  178.2160  143.9160 C   0  0  0  0  0  2  0  0  0  0  0  0
  191.4080  177.0360  144.6670 C   0  0  0  0  0  0  0  0  0  0  0  0
  191.6830  175.9740  144.0460 O   0  0  0  0  0  0  0  0  0  0  0  0
  191.5880  177.1210  146.0830 N   0  0  0  0  0  2  0  0  0  0  0  0
  192.0700  175.9960  146.8680 C   0  0  0  0  0  1  0  0  0  0  0  0
  1 12  1  1  0  0  0
  1 22  1  0  0  0  0
  2  3  2  0  0  0  0
  3  1  1  0  0  0  0
  4  7  1  0  0  0  0
  5  6  1  0  0  0  0
  6  3  1  0  0  0  0
  7  6  2  0  0  0  0
  8  4  2  0  0  0  0
  8  5  1  0  0  0  0
  9  4  1  0  0  0  0
 10  9  2  0  0  0  0
 11  9  1  0  0  0  0
 12 18  1  0  0  0  0
 14 15  1  0  0  0  0
 15 13  2  0  0  0  0
 16 21  1  1  0  0  0
 16 15  1  0  0  0  0
 17 18  2  0  0  0  0
 17 20  1  0  0  0  0
 18 16  1  0  0  0  0
 19 13  1  0  0  0  0
 20 14  2  0  0  0  0
 21 19  2  0  0  0  0
 23 22  1  0  0  0  0
 23 24  1  0  0  0  0
 24 26  1  0  0  0  0
 25 24  2  0  0  0  0
 26 27  1  0  0  0  0
M  END
>  <MODEL>
7

>  <REMARK>
 VINA RESULT:      -7.6      2.087      5.584
  Name = 
  8 active torsions:
  status: ('A' for Active; 'I' for Inactive)
    1  A    between atoms: C_5  and  C_13
    2  A    between atoms: C_5  and  C_19
    3  A    between atoms: C_6  and  C_23
    4  A    between atoms: C_7  and  C_8
    5  A    between atoms: C_9  and  C_14
    6  A    between atoms: C_9  and  C_19
    7  A    between atoms: C_19  and  O_20
    8  A    between atoms: O_20  and  C_23
                            x       y       z     vdW  Elec       q    Type
                         _______ _______ _______ _____ _____    ______ ____

>  <TORSDO>
F 8

$$$$
=
 OpenBabel10222420123D

 27 29  0  0  1  0  0  0  0  0999 V2000
  187.8440  177.8220  142.8030 C   0  0  2  0  0  3  0  0  0  0  0  0
  190.1710  177.3760  143.1190 O   0  0  0  0  0  0  0  0  0  0  0  0
  189.2210  177.5190  142.3030 C   0  0  0  0  0  0  0  0  0  0  0  0
  189.5410  177.6870  138.7360 C   0  0  0  0  0  0  0  0  0  0  0  0
  190.1090  176.3870  140.3090 O   0  0  0  0  0  0  0  0  0  0  0  0
  189.4630  177.3870  140.8620 C   0  0  0  0  0  0  0  0  0  0  0  0
  189.0570  178.2830  139.8890 C   0  0  0  0  0  3  0  0  0  0  0  0
  190.1770  176.5350  139.0200 N   0  0  0  0  0  0  0  0  0  0  0  0
  189.4010  178.2220  137.3770 C   0  0  0  0  0  0  0  0  0  0  0  0
  188.9970  179.5380  137.1860 O   0  0  0  0  0  1  0  0  0  0  0  0
  189.6460  177.4950  136.3780 O   0  0  0  0  0  0  0  0  0  0  0  0
  187.4600  176.8390  143.9040 C   0  0  0  0  0  2  0  0  0  0  0  0
  187.8130  178.3630  148.4310 N   0  0  0  0  0  0  0  0  0  0  0  0
  185.7490  178.8490  147.2970 N   0  0  0  0  0  0  0  0  0  0  0  0
  187.0000  178.3430  147.3680 C   0  0  0  0  0  0  0  0  0  0  0  0
  187.6050  177.6870  146.2690 C   0  0  2  0  0  3  0  0  0  0  0  0
  185.6300  178.0760  145.0420 N   0  0  0  0  0  0  0  0  0  0  0  0
  186.8940  177.5590  145.0830 C   0  0  0  0  0  0  0  0  0  0  0  0
  188.9360  177.7210  148.0100 C   0  0  0  0  0  3  0  0  0  0  0  0
  185.0660  178.7120  146.1200 C   0  0  0  0  0  3  0  0  0  0  0  0
  188.8520  177.2840  146.6790 C   0  0  0  0  0  3  0  0  0  0  0  0
  186.9270  177.7550  141.7470 O   0  0  0  0  0  0  0  0  0  0  0  0
  186.2410  178.9740  141.7830 C   0  0  0  0  0  2  0  0  0  0  0  0
  184.9610  178.8530  141.0290 C   0  0  0  0  0  0  0  0  0  0  0  0
  184.0820  178.0390  141.4220 O   0  0  0  0  0  0  0  0  0  0  0  0
  184.7410  179.6620  139.8710 N   0  0  0  0  0  2  0  0  0  0  0  0
  183.5200  179.5720  139.0880 C   0  0  0  0  0  1  0  0  0  0  0  0
  1 12  1  1  0  0  0
  3  1  1  0  0  0  0
  3  2  2  0  0  0  0
  4  8  2  0  0  0  0
  4  7  1  0  0  0  0
  5  6  1  0  0  0  0
  6  3  1  0  0  0  0
  7  6  2  0  0  0  0
  8  5  1  0  0  0  0
  9  4  1  0  0  0  0
 10  9  1  0  0  0  0
 11  9  2  0  0  0  0
 12 18  1  0  0  0  0
 14 15  1  0  0  0  0
 15 13  2  0  0  0  0
 16 21  1  1  0  0  0
 16 15  1  0  0  0  0
 17 18  2  0  0  0  0
 17 20  1  0  0  0  0
 18 16  1  0  0  0  0
 19 13  1  0  0  0  0
 20 14  2  0  0  0  0
 21 19  2  0  0  0  0
 22 23  1  0  0  0  0
 22  1  1  0  0  0  0
 24 25  2  0  0  0  0
 24 23  1  0  0  0  0
 26 24  1  0  0  0  0
 27 26  1  0  0  0  0
M  END
>  <MODEL>
8

>  <REMARK>
 VINA RESULT:      -7.6      2.641      5.265
  Name = 
  8 active torsions:
  status: ('A' for Active; 'I' for Inactive)
    1  A    between atoms: C_5  and  C_13
    2  A    between atoms: C_5  and  C_19
    3  A    between atoms: C_6  and  C_23
    4  A    between atoms: C_7  and  C_8
    5  A    between atoms: C_9  and  C_14
    6  A    between atoms: C_9  and  C_19
    7  A    between atoms: C_19  and  O_20
    8  A    between atoms: O_20  and  C_23
                            x       y       z     vdW  Elec       q    Type
                         _______ _______ _______ _____ _____    ______ ____

>  <TORSDO>
F 8

$$$$
=
 OpenBabel10222420123D

 27 29  0  0  1  0  0  0  0  0999 V2000
  187.8380  178.0210  142.6580 C   0  0  2  0  0  3  0  0  0  0  0  0
  190.2010  178.3440  142.8220 O   0  0  0  0  0  0  0  0  0  0  0  0
  189.2180  178.0700  142.0810 C   0  0  0  0  0  0  0  0  0  0  0  0
  189.9290  176.9060  138.7650 C   0  0  0  0  0  0  0  0  0  0  0  0
  189.1020  178.6250  139.6890 O   0  0  0  0  0  0  0  0  0  0  0  0
  189.4240  177.7970  140.6550 C   0  0  0  0  0  0  0  0  0  0  0  0
  189.9760  176.6440  140.1250 C   0  0  0  0  0  3  0  0  0  0  0  0
  189.3940  178.1180  138.5280 N   0  0  0  0  0  0  0  0  0  0  0  0
  190.3880  176.0000  137.7070 C   0  0  0  0  0  0  0  0  0  0  0  0
  191.0760  174.8380  138.0360 O   0  0  0  0  0  1  0  0  0  0  0  0
  190.1620  176.2690  136.4970 O   0  0  0  0  0  0  0  0  0  0  0  0
  187.6980  176.8120  143.5770 C   0  0  0  0  0  2  0  0  0  0  0  0
  185.2650  178.7610  147.2130 N   0  0  0  0  0  0  0  0  0  0  0  0
  187.5330  178.1040  147.6740 N   0  0  0  0  0  0  0  0  0  0  0  0
  186.4470  178.2300  146.8780 C   0  0  0  0  0  0  0  0  0  0  0  0
  186.4560  177.8030  145.5290 C   0  0  2  0  0  3  0  0  0  0  0  0
  188.6950  177.1300  145.8300 N   0  0  0  0  0  0  0  0  0  0  0  0
  187.6120  177.2400  145.0050 C   0  0  0  0  0  0  0  0  0  0  0  0
  184.5210  178.6740  146.0790 C   0  0  0  0  0  3  0  0  0  0  0  0
  188.6610  177.5470  147.1380 C   0  0  0  0  0  3  0  0  0  0  0  0
  185.2170  178.0890  145.0090 C   0  0  0  0  0  3  0  0  0  0  0  0
  186.8920  177.9630  141.6280 O   0  0  0  0  0  0  0  0  0  0  0  0
  186.1490  179.1420  141.7480 C   0  0  0  0  0  2  0  0  0  0  0  0
  184.8610  179.0030  141.0120 C   0  0  0  0  0  0  0  0  0  0  0  0
  183.9270  178.3220  141.5150 O   0  0  0  0  0  0  0  0  0  0  0  0
  184.6960  179.6440  139.7440 N   0  0  0  0  0  2  0  0  0  0  0  0
  183.4690  179.5270  138.9750 C   0  0  0  0  0  1  0  0  0  0  0  0
  1 12  1  1  0  0  0
  3  1  1  0  0  0  0
  3  2  2  0  0  0  0
  4  7  1  0  0  0  0
  5  6  1  0  0  0  0
  6  3  1  0  0  0  0
  7  6  2  0  0  0  0
  8  4  2  0  0  0  0
  8  5  1  0  0  0  0
  9 10  1  0  0  0  0
  9  4  1  0  0  0  0
 11  9  2  0  0  0  0
 12 18  1  0  0  0  0
 15 13  2  0  0  0  0
 15 14  1  0  0  0  0
 16 21  1  6  0  0  0
 16 15  1  0  0  0  0
 17 20  1  0  0  0  0
 18 16  1  0  0  0  0
 18 17  2  0  0  0  0
 19 13  1  0  0  0  0
 20 14  2  0  0  0  0
 21 19  2  0  0  0  0
 22 23  1  0  0  0  0
 22  1  1  0  0  0  0
 24 25  2  0  0  0  0
 24 23  1  0  0  0  0
 26 24  1  0  0  0  0
 27 26  1  0  0  0  0
M  END
>  <MODEL>
9

>  <REMARK>
 VINA RESULT:      -7.6      2.599      4.786
  Name = 
  8 active torsions:
  status: ('A' for Active; 'I' for Inactive)
    1  A    between atoms: C_5  and  C_13
    2  A    between atoms: C_5  and  C_19
    3  A    between atoms: C_6  and  C_23
    4  A    between atoms: C_7  and  C_8
    5  A    between atoms: C_9  and  C_14
    6  A    between atoms: C_9  and  C_19
    7  A    between atoms: C_19  and  O_20
    8  A    between atoms: O_20  and  C_23
                            x       y       z     vdW  Elec       q    Type
                         _______ _______ _______ _____ _____    ______ ____

>  <TORSDO>
F 8

$$$$
