=
 OpenBabel10222419053D

 50 55  0  0  1  0  0  0  0  0999 V2000
  185.5400  178.2640  138.2480 C   0  0  0  0  0  2  0  0  0  0  0  0
  184.5830  178.7500  140.3670 C   0  0  0  0  0  3  0  0  0  0  0  0
  184.4190  178.4050  139.1420 N   0  0  0  0  0  0  0  0  0  0  0  0
  183.4020  178.9110  141.2720 C   0  0  2  0  0  3  0  0  0  0  0  0
  183.8070  178.8240  142.7120 C   0  0  0  0  0  0  0  0  0  0  0  0
  185.5120  178.3500  144.3650 C   0  0  0  0  0  3  0  0  0  0  0  0
  184.9910  178.5280  146.7140 O   0  0  0  0  0  1  0  0  0  0  0  0
  184.6000  178.6260  145.3890 C   0  0  0  0  0  0  0  0  0  0  0  0
  185.1150  178.4490  143.0300 C   0  0  0  0  0  3  0  0  0  0  0  0
  183.2880  178.9990  145.0770 C   0  0  0  0  0  3  0  0  0  0  0  0
  182.8920  179.0980  143.7420 C   0  0  0  0  0  3  0  0  0  0  0  0
  182.4040  177.8960  140.9710 N   0  0  0  0  0  2  0  0  0  0  0  0
  181.1360  179.7670  140.0900 C   0  0  0  0  0  2  0  0  0  0  0  0
  180.0550  177.6330  140.3740 C   0  0  0  0  0  2  0  0  0  0  0  0
  179.7960  179.8230  139.3750 C   0  0  2  0  0  3  0  0  0  0  0  0
  181.1010  178.5440  140.9770 C   0  0  1  0  0  3  0  0  0  0  0  0
  179.0380  178.5560  139.7380 C   0  0  0  0  0  2  0  0  0  0  0  0
  179.8850  181.6100  134.9490 C   0  0  0  0  0  1  0  0  0  0  0  0
  180.0300  178.7680  137.0300 C   0  0  0  0  0  2  0  0  0  0  0  0
  180.6280  182.1640  137.8330 O   0  0  0  0  0  0  0  0  0  0  0  0
  180.8030  180.8050  135.8470 C   0  0  1  0  0  3  0  0  0  0  0  0
  180.4740  181.0540  137.2620 C   0  0  0  0  0  0  0  0  0  0  0  0
  180.5060  179.3110  135.6710 C   0  0  1  0  0  3  0  0  0  0  0  0
  179.9980  179.9040  137.9310 N   0  0  0  0  0  0  0  0  0  0  0  0
  181.9950  177.6200  136.2760 C   0  0  0  0  0  1  0  0  0  0  0  0
  181.7200  178.6240  135.2660 N   0  0  0  0  0  2  0  0  0  0  0  0
  185.4180  177.0460  137.4530 N   0  0  0  0  0  2  0  0  0  0  0  0
  186.3100  177.1620  136.3160 C   0  0  0  0  0  2  0  0  0  0  0  0
  186.9410  175.8180  135.9810 C   0  0  2  0  0  3  0  0  0  0  0  0
  186.2500  174.5450  137.0170 Cl  0  0  0  0  0  0  0  0  0  0  0  0
  188.4640  175.8450  136.0980 C   0  0  0  0  0  2  0  0  0  0  0  0
  188.9900  177.2250  136.4740 C   0  0  0  0  0  2  0  0  0  0  0  0
  191.2660  176.4170  139.3890 C   0  0  2  0  0  3  0  0  0  0  0  0
  188.6770  178.6240  142.4710 C   0  0  0  0  0  3  0  0  0  0  0  0
  189.2660  177.7370  140.1390 C   0  0  0  0  0  0  0  0  0  0  0  0
  190.3490  176.8370  140.4480 N   0  0  0  0  0  0  0  0  0  0  0  0
  192.4380  177.2710  139.3910 N   0  0  0  0  0  1  0  0  0  0  0  0
  188.4940  178.4900  141.1510 C   0  0  0  0  0  3  0  0  0  0  0  0
  190.9510  177.5190  142.6760 C   0  0  0  0  0  2  0  0  0  0  0  0
  190.6270  176.4720  138.0750 N   0  0  0  0  0  0  0  0  0  0  0  0
  189.5690  177.1880  137.8410 C   0  0  0  0  0  0  0  0  0  0  0  0
  190.6080  176.3510  141.7890 C   0  0  0  0  0  2  0  0  0  0  0  0
  189.7350  178.0560  143.2620 N   0  0  0  0  0  0  0  0  0  0  0  0
  188.9110  177.8830  138.9020 N   0  0  0  0  0  0  0  0  0  0  0  0
  188.8120  177.2920  145.3910 C   0  0  2  0  0  3  0  0  0  0  0  0
  190.3100  177.1340  145.4550 C   0  0  0  0  0  2  0  0  0  0  0  0
  189.7120  178.3030  144.7000 C   0  0  1  0  0  3  0  0  0  0  0  0
  188.3530  177.8440  146.5890 O   0  0  0  0  0  0  0  0  0  0  0  0
  187.9620  177.3540  148.5680 O   0  0  0  0  0  1  0  0  0  0  0  0
  188.5980  176.9290  147.5010 O   0  0  0  0  0  0  0  0  0  0  0  0
  1  3  1  0  0  0  0
  3  2  2  0  0  0  0
  4  2  1  6  0  0  0
  4  5  1  0  0  0  0
  5  9  2  0  0  0  0
  5 11  1  0  0  0  0
  6  8  2  0  0  0  0
  8  7  1  0  0  0  0
  9  6  1  0  0  0  0
 10  8  1  0  0  0  0
 11 10  2  0  0  0  0
 12  4  1  0  0  0  0
 13 16  1  0  0  0  0
 14 16  1  0  0  0  0
 15 24  1  6  0  0  0
 15 17  1  0  0  0  0
 15 13  1  0  0  0  0
 16 12  1  6  0  0  0
 17 14  1  0  0  0  0
 19 24  1  0  0  0  0
 21 18  1  6  0  0  0
 21 22  1  0  0  0  0
 22 20  2  0  0  0  0
 22 24  1  0  0  0  0
 23 26  1  1  0  0  0
 23 21  1  0  0  0  0
 23 19  1  0  0  0  0
 26 25  1  0  0  0  0
 27  1  1  0  0  0  0
 28 27  1  0  0  0  0
 29 31  1  0  0  0  0
 29 28  1  0  0  0  0
 29 30  1  1  0  0  0
 31 32  1  0  0  0  0
 32 41  1  0  0  0  0
 33 37  1  6  0  0  0
 33 36  1  0  0  0  0
 34 43  1  0  0  0  0
 35 36  1  0  0  0  0
 35 38  1  0  0  0  0
 36 42  1  0  0  0  0
 38 34  2  0  0  0  0
 39 43  1  0  0  0  0
 40 33  1  0  0  0  0
 41 40  2  0  0  0  0
 41 44  1  0  0  0  0
 42 39  1  0  0  0  0
 44 35  2  0  0  0  0
 45 46  1  0  0  0  0
 45 48  1  1  0  0  0
 47 43  1  6  0  0  0
 47 45  1  0  0  0  0
 47 46  1  0  0  0  0
 48 50  1  0  0  0  0
 50 49  1  0  0  0  0
M  END
>  <MODEL>
1

>  <REMARK>
 VINA RESULT:      -7.6      0.000      0.000
  Name = 
  16 active torsions:
  status: ('A' for Active; 'I' for Inactive)
    1  A    between atoms: C_2  and  C_43
    2  A    between atoms: C_8  and  O_44
    3  A    between atoms: N_13  and  C_32
    4  A    between atoms: N_13  and  C_38
    5  A    between atoms: N_20  and  C_39
    6  A    between atoms: C_25  and  C_35
    7  A    between atoms: C_25  and  C_38
    8  A    between atoms: C_27  and  C_43
    9  A    between atoms: C_28  and  N_42
   10  A    between atoms: C_29  and  N_46
   11  A    between atoms: C_31  and  C_50
   12  A    between atoms: C_32  and  N_48
   13  A    between atoms: C_35  and  C_50
   14  A    between atoms: N_40  and  C_41
   15  A    between atoms: C_43  and  N_46
   16  A    between atoms: O_44  and  O_49
                            x       y       z     vdW  Elec       q    Type
                         _______ _______ _______ _____ _____    ______ ____

>  <TORSDO>
F 16

$$$$
=
 OpenBabel10222419053D

 50 55  0  0  1  0  0  0  0  0999 V2000
  188.8960  177.5920  139.9050 C   0  0  0  0  0  2  0  0  0  0  0  0
  188.3940  177.2880  142.2070 C   0  0  0  0  0  3  0  0  0  0  0  0
  188.5570  178.0870  141.2150 N   0  0  0  0  0  0  0  0  0  0  0  0
  188.0640  177.8260  143.5640 C   0  0  2  0  0  3  0  0  0  0  0  0
  189.1270  177.4740  144.5590 C   0  0  0  0  0  0  0  0  0  0  0  0
  189.7780  177.1210  146.8650 C   0  0  0  0  0  3  0  0  0  0  0  0
  192.0580  176.5360  147.3940 O   0  0  0  0  0  1  0  0  0  0  0  0
  191.0870  176.8470  146.4560 C   0  0  0  0  0  0  0  0  0  0  0  0
  188.8010  177.4350  145.9180 C   0  0  0  0  0  3  0  0  0  0  0  0
  191.4200  176.8880  145.0980 C   0  0  0  0  0  3  0  0  0  0  0  0
  190.4420  177.2010  144.1520 C   0  0  0  0  0  3  0  0  0  0  0  0
  186.7770  177.3080  144.0030 N   0  0  0  0  0  2  0  0  0  0  0  0
  185.3650  178.9750  142.9480 C   0  0  0  0  0  2  0  0  0  0  0  0
  184.6960  178.0210  145.0560 C   0  0  0  0  0  2  0  0  0  0  0  0
  183.9220  179.3760  143.2060 C   0  0  2  0  0  3  0  0  0  0  0  0
  185.9070  178.4470  144.2560 C   0  0  1  0  0  3  0  0  0  0  0  0
  183.5840  178.9510  144.6260 C   0  0  0  0  0  2  0  0  0  0  0  0
  179.9860  177.4190  141.3450 C   0  0  0  0  0  1  0  0  0  0  0  0
  183.4740  177.8890  141.1440 C   0  0  0  0  0  2  0  0  0  0  0  0
  181.0510  179.8130  142.8650 O   0  0  0  0  0  0  0  0  0  0  0  0
  181.0580  178.3970  140.9110 C   0  0  1  0  0  3  0  0  0  0  0  0
  181.6690  179.0370  142.0910 C   0  0  0  0  0  0  0  0  0  0  0  0
  182.2260  177.6270  140.2830 C   0  0  1  0  0  3  0  0  0  0  0  0
  183.0360  178.7200  142.2480 N   0  0  0  0  0  0  0  0  0  0  0  0
  183.6560  178.9210  138.9690 C   0  0  0  0  0  1  0  0  0  0  0  0
  182.4510  178.1140  138.9320 N   0  0  0  0  0  2  0  0  0  0  0  0
  187.7890  177.7930  138.9750 N   0  0  0  0  0  2  0  0  0  0  0  0
  188.0930  177.0730  137.7540 C   0  0  0  0  0  2  0  0  0  0  0  0
  189.1990  177.7670  136.9730 C   0  0  2  0  0  3  0  0  0  0  0  0
  189.1170  179.5270  137.2350 Cl  0  0  0  0  0  0  0  0  0  0  0  0
  189.1540  177.4390  135.4820 C   0  0  0  0  0  2  0  0  0  0  0  0
  189.0310  175.9420  135.2240 C   0  0  0  0  0  2  0  0  0  0  0  0
  191.5010  173.3700  136.4950 C   0  0  2  0  0  3  0  0  0  0  0  0
  195.1790  175.9980  135.6970 C   0  0  0  0  0  3  0  0  0  0  0  0
  192.6720  175.4680  135.7670 C   0  0  0  0  0  0  0  0  0  0  0  0
  192.6640  174.2540  136.5440 N   0  0  0  0  0  0  0  0  0  0  0  0
  191.7220  172.3260  135.5130 N   0  0  0  0  0  1  0  0  0  0  0  0
  193.8860  176.2580  135.4660 C   0  0  0  0  0  3  0  0  0  0  0  0
  194.9750  173.5870  136.4590 C   0  0  0  0  0  2  0  0  0  0  0  0
  190.2840  174.1060  136.1560 N   0  0  0  0  0  0  0  0  0  0  0  0
  190.3070  175.2640  135.5710 C   0  0  0  0  0  0  0  0  0  0  0  0
  193.7900  173.8340  137.3560 C   0  0  0  0  0  2  0  0  0  0  0  0
  195.7310  174.8180  136.3050 N   0  0  0  0  0  0  0  0  0  0  0  0
  191.5470  175.9300  135.3210 N   0  0  0  0  0  0  0  0  0  0  0  0
  197.5060  174.3910  137.9290 C   0  0  2  0  0  3  0  0  0  0  0  0
  197.6260  173.3610  136.8340 C   0  0  0  0  0  2  0  0  0  0  0  0
  197.1770  174.7680  136.4940 C   0  0  1  0  0  3  0  0  0  0  0  0
  198.7750  174.8820  138.2440 O   0  0  0  0  0  0  0  0  0  0  0  0
  197.9480  175.4360  140.0660 O   0  0  0  0  0  1  0  0  0  0  0  0
  198.5530  175.9280  139.0090 O   0  0  0  0  0  0  0  0  0  0  0  0
  1  3  1  0  0  0  0
  3  2  2  0  0  0  0
  4  2  1  6  0  0  0
  4 12  1  0  0  0  0
  4  5  1  0  0  0  0
  5  9  1  0  0  0  0
  8  6  1  0  0  0  0
  8  7  1  0  0  0  0
  9  6  2  0  0  0  0
 10  8  2  0  0  0  0
 11  5  2  0  0  0  0
 11 10  1  0  0  0  0
 13 15  1  0  0  0  0
 13 16  1  0  0  0  0
 15 24  1  6  0  0  0
 15 17  1  0  0  0  0
 16 12  1  6  0  0  0
 16 14  1  0  0  0  0
 17 14  1  0  0  0  0
 19 24  1  0  0  0  0
 21 18  1  1  0  0  0
 21 22  1  0  0  0  0
 22 24  1  0  0  0  0
 22 20  2  0  0  0  0
 23 26  1  6  0  0  0
 23 21  1  0  0  0  0
 23 19  1  0  0  0  0
 26 25  1  0  0  0  0
 27  1  1  0  0  0  0
 28 27  1  0  0  0  0
 29 30  1  6  0  0  0
 29 28  1  0  0  0  0
 31 29  1  0  0  0  0
 32 31  1  0  0  0  0
 32 41  1  0  0  0  0
 33 37  1  6  0  0  0
 33 36  1  0  0  0  0
 34 43  1  0  0  0  0
 35 36  1  0  0  0  0
 36 42  1  0  0  0  0
 38 34  2  0  0  0  0
 38 35  1  0  0  0  0
 39 42  1  0  0  0  0
 40 33  1  0  0  0  0
 41 40  2  0  0  0  0
 43 39  1  0  0  0  0
 44 41  1  0  0  0  0
 44 35  2  0  0  0  0
 45 48  1  6  0  0  0
 46 45  1  0  0  0  0
 47 43  1  1  0  0  0
 47 46  1  0  0  0  0
 47 45  1  0  0  0  0
 48 50  1  0  0  0  0
 50 49  1  0  0  0  0
M  END
>  <MODEL>
2

>  <REMARK>
 VINA RESULT:      -7.5      4.435      6.945
  Name = 
  16 active torsions:
  status: ('A' for Active; 'I' for Inactive)
    1  A    between atoms: C_2  and  C_43
    2  A    between atoms: C_8  and  O_44
    3  A    between atoms: N_13  and  C_32
    4  A    between atoms: N_13  and  C_38
    5  A    between atoms: N_20  and  C_39
    6  A    between atoms: C_25  and  C_35
    7  A    between atoms: C_25  and  C_38
    8  A    between atoms: C_27  and  C_43
    9  A    between atoms: C_28  and  N_42
   10  A    between atoms: C_29  and  N_46
   11  A    between atoms: C_31  and  C_50
   12  A    between atoms: C_32  and  N_48
   13  A    between atoms: C_35  and  C_50
   14  A    between atoms: N_40  and  C_41
   15  A    between atoms: C_43  and  N_46
   16  A    between atoms: O_44  and  O_49
                            x       y       z     vdW  Elec       q    Type
                         _______ _______ _______ _____ _____    ______ ____

>  <TORSDO>
F 16

$$$$
=
 OpenBabel10222419053D

 50 55  0  0  1  0  0  0  0  0999 V2000
  190.4500  177.4620  142.3360 C   0  0  0  0  0  2  0  0  0  0  0  0
  189.9240  176.8380  140.1050 C   0  0  0  0  0  3  0  0  0  0  0  0
  190.7640  177.3410  140.9350 N   0  0  0  0  0  0  0  0  0  0  0  0
  190.2630  176.7420  138.6500 C   0  0  2  0  0  3  0  0  0  0  0  0
  189.0650  177.0240  137.7950 C   0  0  0  0  0  0  0  0  0  0  0  0
  186.9370  176.2980  136.8960 C   0  0  0  0  0  3  0  0  0  0  0  0
  185.7130  177.7360  135.3950 O   0  0  0  0  0  1  0  0  0  0  0  0
  186.8220  177.5000  136.1900 C   0  0  0  0  0  0  0  0  0  0  0  0
  188.0560  176.0620  137.6960 C   0  0  0  0  0  3  0  0  0  0  0  0
  187.8300  178.4660  136.2820 C   0  0  0  0  0  3  0  0  0  0  0  0
  188.9490  178.2290  137.0830 C   0  0  0  0  0  3  0  0  0  0  0  0
  190.7910  175.4200  138.3500 N   0  0  0  0  0  2  0  0  0  0  0  0
  192.5440  175.9120  136.7460 C   0  0  0  0  0  2  0  0  0  0  0  0
  191.1520  173.9730  136.4210 C   0  0  0  0  0  2  0  0  0  0  0  0
  193.1770  175.0600  135.6590 C   0  0  2  0  0  3  0  0  0  0  0  0
  191.1360  175.3940  136.9370 C   0  0  1  0  0  3  0  0  0  0  0  0
  192.1860  173.9580  135.3170 C   0  0  0  0  0  2  0  0  0  0  0  0
  197.8510  174.1440  135.9730 C   0  0  0  0  0  1  0  0  0  0  0  0
  194.5610  173.2470  136.8680 C   0  0  0  0  0  2  0  0  0  0  0  0
  195.7980  176.3550  135.7070 O   0  0  0  0  0  0  0  0  0  0  0  0
  196.7130  174.4780  136.9160 C   0  0  1  0  0  3  0  0  0  0  0  0
  195.6520  175.2040  136.1930 C   0  0  0  0  0  0  0  0  0  0  0  0
  196.0190  173.1830  137.3560 C   0  0  1  0  0  3  0  0  0  0  0  0
  194.4360  174.4900  136.1320 N   0  0  0  0  0  0  0  0  0  0  0  0
  196.2790  174.4320  139.3100 C   0  0  0  0  0  1  0  0  0  0  0  0
  196.0490  173.0910  138.8060 N   0  0  0  0  0  2  0  0  0  0  0  0
  191.6560  177.3380  143.1480 N   0  0  0  0  0  2  0  0  0  0  0  0
  191.3840  176.3940  144.2140 C   0  0  0  0  0  2  0  0  0  0  0  0
  191.6010  177.0340  145.5770 C   0  0  2  0  0  3  0  0  0  0  0  0
  191.8660  175.7740  146.8070 Cl  0  0  0  0  0  0  0  0  0  0  0  0
  190.4480  177.9510  145.9800 C   0  0  0  0  0  2  0  0  0  0  0  0
  189.3580  177.2070  146.7430 C   0  0  0  0  0  2  0  0  0  0  0  0
  185.7780  178.4370  146.7740 C   0  0  2  0  0  3  0  0  0  0  0  0
  185.2940  178.2090  142.2150 C   0  0  0  0  0  3  0  0  0  0  0  0
  186.5400  177.9240  144.4370 C   0  0  0  0  0  0  0  0  0  0  0  0
  185.4680  178.1070  145.3840 N   0  0  0  0  0  0  0  0  0  0  0  0
  185.7200  179.8740  146.9590 N   0  0  0  0  0  1  0  0  0  0  0  0
  186.3640  177.9250  142.9680 C   0  0  0  0  0  3  0  0  0  0  0  0
  183.7590  179.1130  144.0200 C   0  0  0  0  0  2  0  0  0  0  0  0
  187.1030  177.9520  147.1560 N   0  0  0  0  0  0  0  0  0  0  0  0
  188.0210  177.6640  146.2840 C   0  0  0  0  0  0  0  0  0  0  0  0
  184.0690  178.0220  145.0120 C   0  0  0  0  0  2  0  0  0  0  0  0
  183.9960  178.6240  142.6730 N   0  0  0  0  0  0  0  0  0  0  0  0
  187.7370  177.7100  144.8840 N   0  0  0  0  0  0  0  0  0  0  0  0
  183.5910  178.9860  140.2910 C   0  0  2  0  0  3  0  0  0  0  0  0
  182.9230  177.6920  140.6800 C   0  0  0  0  0  2  0  0  0  0  0  0
  182.9620  178.8410  141.6670 C   0  0  1  0  0  3  0  0  0  0  0  0
  182.7290  179.7260  139.4780 O   0  0  0  0  0  0  0  0  0  0  0  0
  184.6520  180.1840  138.8460 O   0  0  0  0  0  1  0  0  0  0  0  0
  183.4640  180.7140  139.0170 O   0  0  0  0  0  0  0  0  0  0  0  0
  1 27  1  0  0  0  0
  2  3  2  0  0  0  0
  3  1  1  0  0  0  0
  4  2  1  1  0  0  0
  5  4  1  0  0  0  0
  6  9  2  0  0  0  0
  7  8  1  0  0  0  0
  8 10  2  0  0  0  0
  8  6  1  0  0  0  0
  9  5  1  0  0  0  0
 10 11  1  0  0  0  0
 11  5  2  0  0  0  0
 12  4  1  0  0  0  0
 13 16  1  0  0  0  0
 14 16  1  0  0  0  0
 15 17  1  1  0  0  0
 15 24  1  0  0  0  0
 15 13  1  0  0  0  0
 16 12  1  1  0  0  0
 17 14  1  0  0  0  0
 19 23  1  0  0  0  0
 20 22  2  0  0  0  0
 21 18  1  6  0  0  0
 21 23  1  0  0  0  0
 22 21  1  0  0  0  0
 23 26  1  1  0  0  0
 24 22  1  0  0  0  0
 24 19  1  0  0  0  0
 26 25  1  0  0  0  0
 27 28  1  0  0  0  0
 28 29  1  0  0  0  0
 29 31  1  0  0  0  0
 29 30  1  1  0  0  0
 31 32  1  0  0  0  0
 33 37  1  6  0  0  0
 33 40  1  0  0  0  0
 34 43  1  0  0  0  0
 34 38  2  0  0  0  0
 35 44  2  0  0  0  0
 35 36  1  0  0  0  0
 36 33  1  0  0  0  0
 38 35  1  0  0  0  0
 39 42  1  0  0  0  0
 41 32  1  0  0  0  0
 41 40  2  0  0  0  0
 42 36  1  0  0  0  0
 43 39  1  0  0  0  0
 44 41  1  0  0  0  0
 45 48  1  6  0  0  0
 45 46  1  0  0  0  0
 45 47  1  0  0  0  0
 47 46  1  6  0  0  0
 47 43  1  0  0  0  0
 49 50  1  0  0  0  0
 50 48  1  0  0  0  0
M  END
>  <MODEL>
3

>  <REMARK>
 VINA RESULT:      -7.4      4.318     10.856
  Name = 
  16 active torsions:
  status: ('A' for Active; 'I' for Inactive)
    1  A    between atoms: C_2  and  C_43
    2  A    between atoms: C_8  and  O_44
    3  A    between atoms: N_13  and  C_32
    4  A    between atoms: N_13  and  C_38
    5  A    between atoms: N_20  and  C_39
    6  A    between atoms: C_25  and  C_35
    7  A    between atoms: C_25  and  C_38
    8  A    between atoms: C_27  and  C_43
    9  A    between atoms: C_28  and  N_42
   10  A    between atoms: C_29  and  N_46
   11  A    between atoms: C_31  and  C_50
   12  A    between atoms: C_32  and  N_48
   13  A    between atoms: C_35  and  C_50
   14  A    between atoms: N_40  and  C_41
   15  A    between atoms: C_43  and  N_46
   16  A    between atoms: O_44  and  O_49
                            x       y       z     vdW  Elec       q    Type
                         _______ _______ _______ _____ _____    ______ ____

>  <TORSDO>
F 16

$$$$
=
 OpenBabel10222419053D

 50 55  0  0  1  0  0  0  0  0999 V2000
  190.7090  177.5180  141.8040 C   0  0  0  0  0  2  0  0  0  0  0  0
  191.1500  176.8160  139.5780 C   0  0  0  0  0  3  0  0  0  0  0  0
  190.3550  176.8340  140.5860 N   0  0  0  0  0  0  0  0  0  0  0  0
  190.7720  176.0810  138.3310 C   0  0  2  0  0  3  0  0  0  0  0  0
  191.9820  175.5380  137.6340 C   0  0  0  0  0  0  0  0  0  0  0  0
  193.2070  173.6310  136.7800 C   0  0  0  0  0  3  0  0  0  0  0  0
  195.3530  173.9540  135.7270 O   0  0  0  0  0  1  0  0  0  0  0  0
  194.2370  174.4780  136.3590 C   0  0  0  0  0  0  0  0  0  0  0  0
  192.0820  174.1610  137.4170 C   0  0  0  0  0  3  0  0  0  0  0  0
  194.1440  175.8570  136.5760 C   0  0  0  0  0  3  0  0  0  0  0  0
  193.0190  176.3860  137.2120 C   0  0  0  0  0  3  0  0  0  0  0  0
  190.0350  176.9630  137.4390 N   0  0  0  0  0  2  0  0  0  0  0  0
  188.1050  175.5220  137.1470 C   0  0  0  0  0  2  0  0  0  0  0  0
  188.7880  176.9650  135.3440 C   0  0  0  0  0  2  0  0  0  0  0  0
  186.9960  175.5300  136.1090 C   0  0  2  0  0  3  0  0  0  0  0  0
  189.3210  176.1280  136.4850 C   0  0  1  0  0  3  0  0  0  0  0  0
  187.5250  176.2670  134.8890 C   0  0  0  0  0  2  0  0  0  0  0  0
  182.4140  176.4180  137.1110 C   0  0  0  0  0  1  0  0  0  0  0  0
  185.7290  177.6100  136.9660 C   0  0  0  0  0  2  0  0  0  0  0  0
  184.5530  174.2730  137.1090 O   0  0  0  0  0  0  0  0  0  0  0  0
  183.7380  176.4210  137.8460 C   0  0  1  0  0  3  0  0  0  0  0  0
  184.6940  175.5210  137.1750 C   0  0  0  0  0  0  0  0  0  0  0  0
  184.3940  177.8000  137.7080 C   0  0  1  0  0  3  0  0  0  0  0  0
  185.8110  176.1990  136.6390 N   0  0  0  0  0  0  0  0  0  0  0  0
  183.7500  179.4820  139.1920 C   0  0  0  0  0  1  0  0  0  0  0  0
  184.6420  178.3500  139.0300 N   0  0  0  0  0  2  0  0  0  0  0  0
  191.7610  176.7970  142.5150 N   0  0  0  0  0  2  0  0  0  0  0  0
  191.1730  176.1990  143.6980 C   0  0  0  0  0  2  0  0  0  0  0  0
  191.4640  177.0380  144.9340 C   0  0  2  0  0  3  0  0  0  0  0  0
  191.9730  175.9870  146.2770 Cl  0  0  0  0  0  0  0  0  0  0  0  0
  190.2750  177.9040  145.3430 C   0  0  0  0  0  2  0  0  0  0  0  0
  189.3180  177.1690  146.2740 C   0  0  0  0  0  2  0  0  0  0  0  0
  185.8700  178.5250  147.0460 C   0  0  2  0  0  3  0  0  0  0  0  0
  184.5190  178.5510  142.6590 C   0  0  0  0  0  3  0  0  0  0  0  0
  186.1490  178.1060  144.5860 C   0  0  0  0  0  0  0  0  0  0  0  0
  185.2860  178.2790  145.7280 N   0  0  0  0  0  0  0  0  0  0  0  0
  185.9130  179.9520  147.3010 N   0  0  0  0  0  1  0  0  0  0  0  0
  185.6980  178.1890  143.1800 C   0  0  0  0  0  3  0  0  0  0  0  0
  183.3970  179.4150  144.7630 C   0  0  0  0  0  2  0  0  0  0  0  0
  187.2200  177.9730  147.1450 N   0  0  0  0  0  0  0  0  0  0  0  0
  187.9410  177.6970  146.1010 C   0  0  0  0  0  0  0  0  0  0  0  0
  183.8400  178.2640  145.6280 C   0  0  0  0  0  2  0  0  0  0  0  0
  183.3510  178.9880  143.3750 N   0  0  0  0  0  0  0  0  0  0  0  0
  187.3980  177.8270  144.7850 N   0  0  0  0  0  0  0  0  0  0  0  0
  181.3760  178.0220  142.3100 C   0  0  2  0  0  3  0  0  0  0  0  0
  180.9040  178.9670  143.3850 C   0  0  0  0  0  2  0  0  0  0  0  0
  182.1560  179.2950  142.5970 C   0  0  1  0  0  3  0  0  0  0  0  0
  180.6120  178.2120  141.1560 O   0  0  0  0  0  0  0  0  0  0  0  0
  179.3250  176.6120  141.4540 O   0  0  0  0  0  1  0  0  0  0  0  0
  179.3810  177.9220  141.5130 O   0  0  0  0  0  0  0  0  0  0  0  0
  1 27  1  0  0  0  0
  2  3  2  0  0  0  0
  3  1  1  0  0  0  0
  4  2  1  1  0  0  0
  5  4  1  0  0  0  0
  6  9  2  0  0  0  0
  7  8  1  0  0  0  0
  8 10  2  0  0  0  0
  8  6  1  0  0  0  0
  9  5  1  0  0  0  0
 10 11  1  0  0  0  0
 11  5  2  0  0  0  0
 12  4  1  0  0  0  0
 14 16  1  0  0  0  0
 15 17  1  6  0  0  0
 15 24  1  0  0  0  0
 15 13  1  0  0  0  0
 16 13  1  0  0  0  0
 16 12  1  1  0  0  0
 17 14  1  0  0  0  0
 19 23  1  0  0  0  0
 20 22  2  0  0  0  0
 21 18  1  6  0  0  0
 22 21  1  0  0  0  0
 23 21  1  0  0  0  0
 23 26  1  1  0  0  0
 24 19  1  0  0  0  0
 24 22  1  0  0  0  0
 26 25  1  0  0  0  0
 27 28  1  0  0  0  0
 28 29  1  0  0  0  0
 29 31  1  0  0  0  0
 29 30  1  1  0  0  0
 31 32  1  0  0  0  0
 33 40  1  0  0  0  0
 33 37  1  6  0  0  0
 34 38  2  0  0  0  0
 34 43  1  0  0  0  0
 35 44  2  0  0  0  0
 35 36  1  0  0  0  0
 36 33  1  0  0  0  0
 38 35  1  0  0  0  0
 39 42  1  0  0  0  0
 41 32  1  0  0  0  0
 41 40  2  0  0  0  0
 42 36  1  0  0  0  0
 43 39  1  0  0  0  0
 44 41  1  0  0  0  0
 45 48  1  6  0  0  0
 45 47  1  0  0  0  0
 45 46  1  0  0  0  0
 47 43  1  1  0  0  0
 47 46  1  0  0  0  0
 48 50  1  0  0  0  0
 49 50  1  0  0  0  0
M  END
>  <MODEL>
4

>  <REMARK>
 VINA RESULT:      -7.1      3.905      8.952
  Name = 
  16 active torsions:
  status: ('A' for Active; 'I' for Inactive)
    1  A    between atoms: C_2  and  C_43
    2  A    between atoms: C_8  and  O_44
    3  A    between atoms: N_13  and  C_32
    4  A    between atoms: N_13  and  C_38
    5  A    between atoms: N_20  and  C_39
    6  A    between atoms: C_25  and  C_35
    7  A    between atoms: C_25  and  C_38
    8  A    between atoms: C_27  and  C_43
    9  A    between atoms: C_28  and  N_42
   10  A    between atoms: C_29  and  N_46
   11  A    between atoms: C_31  and  C_50
   12  A    between atoms: C_32  and  N_48
   13  A    between atoms: C_35  and  C_50
   14  A    between atoms: N_40  and  C_41
   15  A    between atoms: C_43  and  N_46
   16  A    between atoms: O_44  and  O_49
                            x       y       z     vdW  Elec       q    Type
                         _______ _______ _______ _____ _____    ______ ____

>  <TORSDO>
F 16

$$$$
=
 OpenBabel10222419053D

 50 55  0  0  1  0  0  0  0  0999 V2000
  187.1590  175.6550  136.6830 C   0  0  0  0  0  2  0  0  0  0  0  0
  188.9750  176.3420  138.0510 C   0  0  0  0  0  3  0  0  0  0  0  0
  188.3990  176.3550  136.9040 N   0  0  0  0  0  0  0  0  0  0  0  0
  190.2740  177.0580  138.2530 C   0  0  2  0  0  3  0  0  0  0  0  0
  191.4380  176.1420  138.0270 C   0  0  0  0  0  0  0  0  0  0  0  0
  193.7990  175.6770  138.3010 C   0  0  0  0  0  3  0  0  0  0  0  0
  194.7370  173.6480  137.3950 O   0  0  0  0  0  1  0  0  0  0  0  0
  193.6450  174.4740  137.6050 C   0  0  0  0  0  0  0  0  0  0  0  0
  192.6970  176.5090  138.5110 C   0  0  0  0  0  3  0  0  0  0  0  0
  192.3880  174.1030  137.1150 C   0  0  0  0  0  3  0  0  0  0  0  0
  191.2870  174.9350  137.3260 C   0  0  0  0  0  3  0  0  0  0  0  0
  190.3290  177.6150  139.5960 N   0  0  0  0  0  2  0  0  0  0  0  0
  189.1150  176.5500  141.4070 C   0  0  0  0  0  2  0  0  0  0  0  0
  188.4990  178.7740  140.7150 C   0  0  0  0  0  2  0  0  0  0  0  0
  188.1690  177.1190  142.4510 C   0  0  2  0  0  3  0  0  0  0  0  0
  189.0140  177.4490  140.1960 C   0  0  1  0  0  3  0  0  0  0  0  0
  187.6250  178.4270  141.9000 C   0  0  0  0  0  2  0  0  0  0  0  0
  188.9660  178.3080  147.0050 C   0  0  0  0  0  1  0  0  0  0  0  0
  190.3050  177.5900  143.8230 C   0  0  0  0  0  2  0  0  0  0  0  0
  187.1370  176.7510  145.1610 O   0  0  0  0  0  0  0  0  0  0  0  0
  189.3320  177.1760  146.0660 C   0  0  1  0  0  3  0  0  0  0  0  0
  188.3380  177.0760  144.9820 C   0  0  0  0  0  0  0  0  0  0  0  0
  190.6280  177.5270  145.3260 C   0  0  1  0  0  3  0  0  0  0  0  0
  188.8800  177.3470  143.7060 N   0  0  0  0  0  0  0  0  0  0  0  0
  191.7990  175.7750  144.3230 C   0  0  0  0  0  1  0  0  0  0  0  0
  191.6170  176.4900  145.5720 N   0  0  0  0  0  2  0  0  0  0  0  0
  186.2690  176.4380  135.8310 N   0  0  0  0  0  2  0  0  0  0  0  0
  185.0410  176.6740  136.5630 C   0  0  0  0  0  2  0  0  0  0  0  0
  183.8350  176.1740  135.7800 C   0  0  2  0  0  3  0  0  0  0  0  0
  182.9870  177.5450  135.0250 Cl  0  0  0  0  0  0  0  0  0  0  0  0
  182.8790  175.3540  136.6440 C   0  0  0  0  0  2  0  0  0  0  0  0
  181.4790  175.9540  136.6860 C   0  0  0  0  0  2  0  0  0  0  0  0
  179.7810  177.7090  139.5770 C   0  0  2  0  0  3  0  0  0  0  0  0
  183.6720  178.3490  141.9270 C   0  0  0  0  0  3  0  0  0  0  0  0
  182.2630  177.5760  139.9300 C   0  0  0  0  0  0  0  0  0  0  0  0
  180.9980  178.2010  140.2220 N   0  0  0  0  0  0  0  0  0  0  0  0
  179.1170  176.7600  140.4490 N   0  0  0  0  0  1  0  0  0  0  0  0
  183.4850  177.7450  140.7470 C   0  0  0  0  0  3  0  0  0  0  0  0
  181.2510  178.7920  142.5410 C   0  0  0  0  0  2  0  0  0  0  0  0
  180.0760  177.0690  138.2970 N   0  0  0  0  0  0  0  0  0  0  0  0
  181.2570  176.6250  137.9920 C   0  0  0  0  0  0  0  0  0  0  0  0
  180.8590  179.2860  141.1730 C   0  0  0  0  0  2  0  0  0  0  0  0
  182.6760  178.9940  142.7390 N   0  0  0  0  0  0  0  0  0  0  0  0
  182.3650  176.8400  138.8690 N   0  0  0  0  0  0  0  0  0  0  0  0
  183.8660  178.6210  144.8410 C   0  0  2  0  0  3  0  0  0  0  0  0
  184.6320  179.6540  144.0550 C   0  0  0  0  0  2  0  0  0  0  0  0
  183.1190  179.6250  143.9780 C   0  0  1  0  0  3  0  0  0  0  0  0
  183.7800  179.0230  146.1750 O   0  0  0  0  0  0  0  0  0  0  0  0
  185.6390  179.3120  147.0530 O   0  0  0  0  0  1  0  0  0  0  0  0
  184.7520  178.3810  146.7860 O   0  0  0  0  0  0  0  0  0  0  0  0
  1  3  1  0  0  0  0
  3  2  2  0  0  0  0
  4  2  1  1  0  0  0
  4 12  1  0  0  0  0
  5  4  1  0  0  0  0
  5  9  1  0  0  0  0
  6  9  2  0  0  0  0
  7  8  1  0  0  0  0
  8  6  1  0  0  0  0
 10 11  1  0  0  0  0
 10  8  2  0  0  0  0
 11  5  2  0  0  0  0
 14 17  1  0  0  0  0
 15 13  1  6  0  0  0
 15 24  1  0  0  0  0
 16 12  1  1  0  0  0
 16 14  1  0  0  0  0
 16 13  1  0  0  0  0
 17 15  1  0  0  0  0
 19 23  1  0  0  0  0
 21 18  1  1  0  0  0
 22 20  2  0  0  0  0
 22 21  1  0  0  0  0
 23 26  1  6  0  0  0
 23 21  1  0  0  0  0
 24 19  1  0  0  0  0
 24 22  1  0  0  0  0
 25 26  1  0  0  0  0
 27 28  1  0  0  0  0
 27  1  1  0  0  0  0
 29 30  1  1  0  0  0
 29 28  1  0  0  0  0
 29 31  1  0  0  0  0
 31 32  1  0  0  0  0
 32 41  1  0  0  0  0
 33 36  1  0  0  0  0
 33 37  1  1  0  0  0
 34 43  1  0  0  0  0
 35 36  1  0  0  0  0
 35 38  1  0  0  0  0
 36 42  1  0  0  0  0
 38 34  2  0  0  0  0
 39 43  1  0  0  0  0
 40 33  1  0  0  0  0
 41 40  2  0  0  0  0
 41 44  1  0  0  0  0
 42 39  1  0  0  0  0
 44 35  2  0  0  0  0
 45 48  1  1  0  0  0
 46 45  1  0  0  0  0
 47 43  1  6  0  0  0
 47 46  1  0  0  0  0
 47 45  1  0  0  0  0
 48 50  1  0  0  0  0
 50 49  1  0  0  0  0
M  END
>  <MODEL>
5

>  <REMARK>
 VINA RESULT:      -7.1      2.574      9.298
  Name = 
  16 active torsions:
  status: ('A' for Active; 'I' for Inactive)
    1  A    between atoms: C_2  and  C_43
    2  A    between atoms: C_8  and  O_44
    3  A    between atoms: N_13  and  C_32
    4  A    between atoms: N_13  and  C_38
    5  A    between atoms: N_20  and  C_39
    6  A    between atoms: C_25  and  C_35
    7  A    between atoms: C_25  and  C_38
    8  A    between atoms: C_27  and  C_43
    9  A    between atoms: C_28  and  N_42
   10  A    between atoms: C_29  and  N_46
   11  A    between atoms: C_31  and  C_50
   12  A    between atoms: C_32  and  N_48
   13  A    between atoms: C_35  and  C_50
   14  A    between atoms: N_40  and  C_41
   15  A    between atoms: C_43  and  N_46
   16  A    between atoms: O_44  and  O_49
                            x       y       z     vdW  Elec       q    Type
                         _______ _______ _______ _____ _____    ______ ____

>  <TORSDO>
F 16

$$$$
=
 OpenBabel10222419053D

 50 55  0  0  1  0  0  0  0  0999 V2000
  192.8220  177.1270  139.5140 C   0  0  0  0  0  2  0  0  0  0  0  0
  191.8800  177.2160  141.6920 C   0  0  0  0  0  3  0  0  0  0  0  0
  191.7320  176.9660  140.4420 N   0  0  0  0  0  0  0  0  0  0  0  0
  190.7270  177.0630  142.6350 C   0  0  2  0  0  3  0  0  0  0  0  0
  191.1950  176.6610  144.0010 C   0  0  0  0  0  0  0  0  0  0  0  0
  191.6280  177.2600  146.3070 C   0  0  0  0  0  3  0  0  0  0  0  0
  192.5210  175.6150  147.8280 O   0  0  0  0  0  1  0  0  0  0  0  0
  192.0820  175.9620  146.5610 C   0  0  0  0  0  0  0  0  0  0  0  0
  191.1860  177.6080  145.0290 C   0  0  0  0  0  3  0  0  0  0  0  0
  192.0960  175.0110  145.5360 C   0  0  0  0  0  3  0  0  0  0  0  0
  191.6530  175.3600  144.2580 C   0  0  0  0  0  3  0  0  0  0  0  0
  189.7900  176.0780  142.1180 N   0  0  0  0  0  2  0  0  0  0  0  0
  187.5850  176.4560  143.0560 C   0  0  0  0  0  2  0  0  0  0  0  0
  188.7050  178.2520  141.9050 C   0  0  0  0  0  2  0  0  0  0  0  0
  186.8200  177.7390  143.3350 C   0  0  2  0  0  3  0  0  0  0  0  0
  188.5180  176.7510  141.9040 C   0  0  1  0  0  3  0  0  0  0  0  0
  187.4070  178.8180  142.4380 C   0  0  0  0  0  2  0  0  0  0  0  0
  186.0530  179.9950  147.4710 C   0  0  0  0  0  1  0  0  0  0  0  0
  188.1370  177.8990  145.5490 C   0  0  0  0  0  2  0  0  0  0  0  0
  184.6950  178.6190  145.1400 O   0  0  0  0  0  0  0  0  0  0  0  0
  186.2370  178.5680  146.9950 C   0  0  1  0  0  3  0  0  0  0  0  0
  185.8650  178.4570  145.5720 C   0  0  0  0  0  0  0  0  0  0  0  0
  187.7300  178.2180  146.9980 C   0  0  1  0  0  3  0  0  0  0  0  0
  186.9520  178.1120  144.7400 N   0  0  0  0  0  0  0  0  0  0  0  0
  187.9230  177.5110  149.2140 C   0  0  0  0  0  1  0  0  0  0  0  0
  187.9480  177.0520  147.8380 N   0  0  0  0  0  2  0  0  0  0  0  0
  192.3910  176.8230  138.1530 N   0  0  0  0  0  2  0  0  0  0  0  0
  191.2160  175.9780  138.2330 C   0  0  0  0  0  2  0  0  0  0  0  0
  190.0950  176.5190  137.3560 C   0  0  2  0  0  3  0  0  0  0  0  0
  190.6030  176.5170  135.6500 Cl  0  0  0  0  0  0  0  0  0  0  0  0
  189.6410  177.9120  137.7850 C   0  0  0  0  0  2  0  0  0  0  0  0
  188.6240  178.5110  136.8200 C   0  0  0  0  0  2  0  0  0  0  0  0
  185.2160  176.8670  136.7560 C   0  0  2  0  0  3  0  0  0  0  0  0
  183.7770  178.9030  140.6110 C   0  0  0  0  0  3  0  0  0  0  0  0
  185.4380  178.4150  138.7210 C   0  0  0  0  0  0  0  0  0  0  0  0
  184.6010  177.6970  137.7910 N   0  0  0  0  0  0  0  0  0  0  0  0
  185.2880  175.4930  137.2130 N   0  0  0  0  0  1  0  0  0  0  0  0
  184.9600  179.0010  139.9910 C   0  0  0  0  0  3  0  0  0  0  0  0
  182.7120  177.1130  139.1630 C   0  0  0  0  0  2  0  0  0  0  0  0
  186.5580  177.3390  136.4190 N   0  0  0  0  0  0  0  0  0  0  0  0
  187.2530  178.0960  137.2110 C   0  0  0  0  0  0  0  0  0  0  0  0
  183.1540  177.7220  137.8580 C   0  0  0  0  0  2  0  0  0  0  0  0
  182.6310  178.1490  140.1780 N   0  0  0  0  0  0  0  0  0  0  0  0
  186.6860  178.5970  138.4240 N   0  0  0  0  0  0  0  0  0  0  0  0
  180.4600  179.2420  140.4190 C   0  0  2  0  0  3  0  0  0  0  0  0
  180.2140  177.7690  140.2080 C   0  0  0  0  0  2  0  0  0  0  0  0
  181.4260  178.2210  140.9970 C   0  0  1  0  0  3  0  0  0  0  0  0
  179.6320  179.7090  141.4420 O   0  0  0  0  0  0  0  0  0  0  0  0
  180.2910  181.2400  140.2050 O   0  0  0  0  0  1  0  0  0  0  0  0
  179.6800  181.0190  141.3460 O   0  0  0  0  0  0  0  0  0  0  0  0
  1  3  1  0  0  0  0
  3  2  2  0  0  0  0
  4  2  1  6  0  0  0
  4  5  1  0  0  0  0
  5 11  2  0  0  0  0
  5  9  1  0  0  0  0
  6  8  1  0  0  0  0
  8  7  1  0  0  0  0
  9  6  2  0  0  0  0
 10  8  2  0  0  0  0
 11 10  1  0  0  0  0
 12  4  1  0  0  0  0
 13 15  1  0  0  0  0
 14 17  1  0  0  0  0
 15 17  1  6  0  0  0
 15 24  1  0  0  0  0
 16 14  1  0  0  0  0
 16 12  1  1  0  0  0
 16 13  1  0  0  0  0
 19 23  1  0  0  0  0
 20 22  2  0  0  0  0
 21 23  1  0  0  0  0
 21 18  1  6  0  0  0
 22 21  1  0  0  0  0
 23 26  1  1  0  0  0
 24 19  1  0  0  0  0
 24 22  1  0  0  0  0
 26 25  1  0  0  0  0
 27 28  1  0  0  0  0
 27  1  1  0  0  0  0
 29 30  1  6  0  0  0
 29 31  1  0  0  0  0
 29 28  1  0  0  0  0
 32 41  1  0  0  0  0
 32 31  1  0  0  0  0
 33 37  1  1  0  0  0
 33 36  1  0  0  0  0
 35 38  1  0  0  0  0
 36 42  1  0  0  0  0
 36 35  1  0  0  0  0
 38 34  2  0  0  0  0
 39 43  1  0  0  0  0
 40 33  1  0  0  0  0
 40 41  2  0  0  0  0
 41 44  1  0  0  0  0
 42 39  1  0  0  0  0
 43 34  1  0  0  0  0
 44 35  2  0  0  0  0
 45 47  1  0  0  0  0
 45 48  1  1  0  0  0
 46 45  1  0  0  0  0
 46 47  1  0  0  0  0
 47 43  1  6  0  0  0
 49 50  1  0  0  0  0
 50 48  1  0  0  0  0
M  END
>  <MODEL>
6

>  <REMARK>
 VINA RESULT:      -7.1      2.453      8.633
  Name = 
  16 active torsions:
  status: ('A' for Active; 'I' for Inactive)
    1  A    between atoms: C_2  and  C_43
    2  A    between atoms: C_8  and  O_44
    3  A    between atoms: N_13  and  C_32
    4  A    between atoms: N_13  and  C_38
    5  A    between atoms: N_20  and  C_39
    6  A    between atoms: C_25  and  C_35
    7  A    between atoms: C_25  and  C_38
    8  A    between atoms: C_27  and  C_43
    9  A    between atoms: C_28  and  N_42
   10  A    between atoms: C_29  and  N_46
   11  A    between atoms: C_31  and  C_50
   12  A    between atoms: C_32  and  N_48
   13  A    between atoms: C_35  and  C_50
   14  A    between atoms: N_40  and  C_41
   15  A    between atoms: C_43  and  N_46
   16  A    between atoms: O_44  and  O_49
                            x       y       z     vdW  Elec       q    Type
                         _______ _______ _______ _____ _____    ______ ____

>  <TORSDO>
F 16

$$$$
=
 OpenBabel10222419053D

 50 55  0  0  1  0  0  0  0  0999 V2000
  187.5170  178.2330  139.8190 C   0  0  0  0  0  2  0  0  0  0  0  0
  186.5950  178.1540  142.0070 C   0  0  0  0  0  3  0  0  0  0  0  0
  186.5530  178.6290  140.8150 N   0  0  0  0  0  0  0  0  0  0  0  0
  185.5970  178.5950  143.0320 C   0  0  2  0  0  3  0  0  0  0  0  0
  186.1120  178.3690  144.4210 C   0  0  0  0  0  0  0  0  0  0  0  0
  187.8390  177.5020  145.8810 C   0  0  0  0  0  3  0  0  0  0  0  0
  187.5870  177.6730  148.2740 O   0  0  0  0  0  1  0  0  0  0  0  0
  187.0990  177.9030  146.9980 C   0  0  0  0  0  0  0  0  0  0  0  0
  187.3450  177.7340  144.5960 C   0  0  0  0  0  3  0  0  0  0  0  0
  185.8630  178.5350  146.8300 C   0  0  0  0  0  3  0  0  0  0  0  0
  185.3700  178.7680  145.5450 C   0  0  0  0  0  3  0  0  0  0  0  0
  184.3430  177.8850  142.8410 N   0  0  0  0  0  2  0  0  0  0  0  0
  183.0330  178.0760  140.8070 C   0  0  0  0  0  2  0  0  0  0  0  0
  182.1730  178.9990  142.8590 C   0  0  0  0  0  2  0  0  0  0  0  0
  181.5730  178.4310  140.5840 C   0  0  2  0  0  3  0  0  0  0  0  0
  183.4530  178.7580  142.0900 C   0  0  1  0  0  3  0  0  0  0  0  0
  181.1050  179.2030  141.8080 C   0  0  0  0  0  2  0  0  0  0  0  0
  179.7890  174.4890  138.5680 C   0  0  0  0  0  1  0  0  0  0  0  0
  179.5420  176.9250  141.1050 C   0  0  0  0  0  2  0  0  0  0  0  0
  182.3460  176.0030  139.1510 O   0  0  0  0  0  0  0  0  0  0  0  0
  180.3420  174.9000  139.9170 C   0  0  1  0  0  3  0  0  0  0  0  0
  181.2490  176.0530  139.7630 C   0  0  0  0  0  0  0  0  0  0  0  0
  179.2070  175.4580  140.7850 C   0  0  1  0  0  3  0  0  0  0  0  0
  180.7790  177.2180  140.4070 N   0  0  0  0  0  0  0  0  0  0  0  0
  179.6790  173.3810  141.7390 C   0  0  0  0  0  1  0  0  0  0  0  0
  179.1240  174.6930  142.0180 N   0  0  0  0  0  2  0  0  0  0  0  0
  187.1120  178.6980  138.4960 N   0  0  0  0  0  2  0  0  0  0  0  0
  186.2130  177.7110  137.9300 C   0  0  0  0  0  2  0  0  0  0  0  0
  186.3760  177.6290  136.4190 C   0  0  2  0  0  3  0  0  0  0  0  0
  186.1820  175.9440  135.8770 Cl  0  0  0  0  0  0  0  0  0  0  0  0
  187.7110  178.2000  135.9460 C   0  0  0  0  0  2  0  0  0  0  0  0
  188.5020  177.2040  135.1070 C   0  0  0  0  0  2  0  0  0  0  0  0
  191.0450  176.7530  137.8740 C   0  0  2  0  0  3  0  0  0  0  0  0
  193.6290  173.8000  135.4920 C   0  0  0  0  0  3  0  0  0  0  0  0
  191.6640  175.4070  135.8460 C   0  0  0  0  0  0  0  0  0  0  0  0
  192.0520  176.0550  137.0750 N   0  0  0  0  0  0  0  0  0  0  0  0
  190.5440  175.8680  138.9080 N   0  0  0  0  0  1  0  0  0  0  0  0
  192.4890  174.4060  135.1370 C   0  0  0  0  0  3  0  0  0  0  0  0
  193.7690  174.5850  137.8990 C   0  0  0  0  0  2  0  0  0  0  0  0
  189.9310  177.2150  137.0470 N   0  0  0  0  0  0  0  0  0  0  0  0
  189.6700  176.7100  135.8800 C   0  0  0  0  0  0  0  0  0  0  0  0
  193.4060  176.0140  137.5910 C   0  0  0  0  0  2  0  0  0  0  0  0
  194.3550  173.9690  136.7210 N   0  0  0  0  0  0  0  0  0  0  0  0
  190.5380  175.7360  135.2970 N   0  0  0  0  0  0  0  0  0  0  0  0
  196.6490  174.1050  137.5510 C   0  0  2  0  0  3  0  0  0  0  0  0
  195.9350  173.0380  138.3420 C   0  0  0  0  0  2  0  0  0  0  0  0
  195.6040  173.2310  136.8760 C   0  0  1  0  0  3  0  0  0  0  0  0
  197.9180  173.6460  137.1940 O   0  0  0  0  0  0  0  0  0  0  0  0
  198.0540  175.6270  137.7950 O   0  0  0  0  0  1  0  0  0  0  0  0
  198.7530  174.5190  137.7110 O   0  0  0  0  0  0  0  0  0  0  0  0
  1  3  1  0  0  0  0
  3  2  2  0  0  0  0
  4  2  1  6  0  0  0
  4  5  1  0  0  0  0
  5  9  2  0  0  0  0
  5 11  1  0  0  0  0
  6  8  2  0  0  0  0
  8  7  1  0  0  0  0
  9  6  1  0  0  0  0
 10  8  1  0  0  0  0
 11 10  2  0  0  0  0
 12  4  1  0  0  0  0
 13 16  1  0  0  0  0
 15 24  1  1  0  0  0
 15 13  1  0  0  0  0
 15 17  1  0  0  0  0
 16 12  1  1  0  0  0
 16 14  1  0  0  0  0
 17 14  1  0  0  0  0
 20 22  2  0  0  0  0
 21 18  1  6  0  0  0
 21 23  1  0  0  0  0
 22 21  1  0  0  0  0
 22 24  1  0  0  0  0
 23 19  1  0  0  0  0
 23 26  1  1  0  0  0
 24 19  1  0  0  0  0
 25 26  1  0  0  0  0
 27  1  1  0  0  0  0
 28 27  1  0  0  0  0
 29 30  1  1  0  0  0
 29 28  1  0  0  0  0
 31 29  1  0  0  0  0
 32 41  1  0  0  0  0
 32 31  1  0  0  0  0
 33 37  1  1  0  0  0
 34 43  1  0  0  0  0
 35 36  1  0  0  0  0
 36 42  1  0  0  0  0
 36 33  1  0  0  0  0
 38 34  2  0  0  0  0
 38 35  1  0  0  0  0
 40 33  1  0  0  0  0
 41 40  2  0  0  0  0
 42 39  1  0  0  0  0
 43 39  1  0  0  0  0
 44 35  2  0  0  0  0
 44 41  1  0  0  0  0
 45 48  1  6  0  0  0
 45 46  1  0  0  0  0
 47 43  1  1  0  0  0
 47 45  1  0  0  0  0
 47 46  1  0  0  0  0
 48 50  1  0  0  0  0
 50 49  1  0  0  0  0
M  END
>  <MODEL>
7

>  <REMARK>
 VINA RESULT:      -7.0      4.405      6.199
  Name = 
  16 active torsions:
  status: ('A' for Active; 'I' for Inactive)
    1  A    between atoms: C_2  and  C_43
    2  A    between atoms: C_8  and  O_44
    3  A    between atoms: N_13  and  C_32
    4  A    between atoms: N_13  and  C_38
    5  A    between atoms: N_20  and  C_39
    6  A    between atoms: C_25  and  C_35
    7  A    between atoms: C_25  and  C_38
    8  A    between atoms: C_27  and  C_43
    9  A    between atoms: C_28  and  N_42
   10  A    between atoms: C_29  and  N_46
   11  A    between atoms: C_31  and  C_50
   12  A    between atoms: C_32  and  N_48
   13  A    between atoms: C_35  and  C_50
   14  A    between atoms: N_40  and  C_41
   15  A    between atoms: C_43  and  N_46
   16  A    between atoms: O_44  and  O_49
                            x       y       z     vdW  Elec       q    Type
                         _______ _______ _______ _____ _____    ______ ____

>  <TORSDO>
F 16

$$$$
=
 OpenBabel10222419053D

 50 55  0  0  1  0  0  0  0  0999 V2000
  191.7890  176.4040  138.1440 C   0  0  0  0  0  2  0  0  0  0  0  0
  190.3200  176.5120  140.0080 C   0  0  0  0  0  3  0  0  0  0  0  0
  191.4090  176.8940  139.4450 N   0  0  0  0  0  0  0  0  0  0  0  0
  189.9550  177.0180  141.3690 C   0  0  2  0  0  3  0  0  0  0  0  0
  188.5750  177.6010  141.3780 C   0  0  0  0  0  0  0  0  0  0  0  0
  186.7480  178.6310  140.1670 C   0  0  0  0  0  3  0  0  0  0  0  0
  184.7400  179.2740  141.3410 O   0  0  0  0  0  1  0  0  0  0  0  0
  186.0100  178.7200  141.3520 C   0  0  0  0  0  0  0  0  0  0  0  0
  188.0280  178.0730  140.1810 C   0  0  0  0  0  3  0  0  0  0  0  0
  186.5540  178.2520  142.5530 C   0  0  0  0  0  3  0  0  0  0  0  0
  187.8330  177.6940  142.5660 C   0  0  0  0  0  3  0  0  0  0  0  0
  190.9220  178.0140  141.8030 N   0  0  0  0  0  2  0  0  0  0  0  0
  191.2790  178.1760  144.1980 C   0  0  0  0  0  2  0  0  0  0  0  0
  191.2680  176.0080  143.1470 C   0  0  0  0  0  2  0  0  0  0  0  0
  191.2210  177.1250  145.2940 C   0  0  2  0  0  3  0  0  0  0  0  0
  191.6590  177.4530  142.9250 C   0  0  1  0  0  3  0  0  0  0  0  0
  191.4280  175.7720  144.6320 C   0  0  0  0  0  2  0  0  0  0  0  0
  187.9390  176.7040  148.7350 C   0  0  0  0  0  1  0  0  0  0  0  0
  188.6390  177.1420  145.3070 C   0  0  0  0  0  2  0  0  0  0  0  0
  190.7200  177.7280  148.1100 O   0  0  0  0  0  0  0  0  0  0  0  0
  188.3430  177.7320  147.6970 C   0  0  1  0  0  3  0  0  0  0  0  0
  189.7570  177.5450  147.3220 C   0  0  0  0  0  0  0  0  0  0  0  0
  187.5920  177.4570  146.3890 C   0  0  1  0  0  3  0  0  0  0  0  0
  189.9280  177.1720  145.9710 N   0  0  0  0  0  0  0  0  0  0  0  0
  185.4320  178.3120  146.1590 C   0  0  0  0  0  1  0  0  0  0  0  0
  186.8380  178.6410  146.0110 N   0  0  0  0  0  2  0  0  0  0  0  0
  190.7870  176.7590  137.1450 N   0  0  0  0  0  2  0  0  0  0  0  0
  190.4040  175.5490  136.4440 C   0  0  0  0  0  2  0  0  0  0  0  0
  188.9090  175.2930  136.5760 C   0  0  2  0  0  3  0  0  0  0  0  0
  188.3260  174.3570  135.1780 Cl  0  0  0  0  0  0  0  0  0  0  0  0
  188.1090  176.5840  136.7370 C   0  0  0  0  0  2  0  0  0  0  0  0
  186.9750  176.6900  135.7250 C   0  0  0  0  0  2  0  0  0  0  0  0
  183.7930  174.9780  136.8530 C   0  0  2  0  0  3  0  0  0  0  0  0
  182.2150  178.6420  139.1250 C   0  0  0  0  0  3  0  0  0  0  0  0
  183.8740  177.3570  137.6530 C   0  0  0  0  0  0  0  0  0  0  0  0
  183.1080  176.1790  137.3320 N   0  0  0  0  0  0  0  0  0  0  0  0
  184.0450  174.0840  137.9670 N   0  0  0  0  0  1  0  0  0  0  0  0
  183.3610  178.4930  138.4480 C   0  0  0  0  0  3  0  0  0  0  0  0
  181.3420  176.2660  138.9630 C   0  0  0  0  0  2  0  0  0  0  0  0
  185.0580  175.3080  136.1990 N   0  0  0  0  0  0  0  0  0  0  0  0
  185.6750  176.4330  136.3970 C   0  0  0  0  0  0  0  0  0  0  0  0
  181.6710  176.1060  137.5020 C   0  0  0  0  0  2  0  0  0  0  0  0
  181.1610  177.6750  139.2680 N   0  0  0  0  0  0  0  0  0  0  0  0
  185.0830  177.4590  137.1970 N   0  0  0  0  0  0  0  0  0  0  0  0
  180.3640  178.4560  141.4410 C   0  0  2  0  0  3  0  0  0  0  0  0
  180.0620  179.5300  140.4270 C   0  0  0  0  0  2  0  0  0  0  0  0
  179.9770  178.0720  140.0220 C   0  0  1  0  0  3  0  0  0  0  0  0
  179.2560  178.2800  142.2730 O   0  0  0  0  0  0  0  0  0  0  0  0
  179.4240  178.1900  144.3400 O   0  0  0  0  0  1  0  0  0  0  0  0
  179.6830  177.5080  143.2480 O   0  0  0  0  0  0  0  0  0  0  0  0
  1  3  1  0  0  0  0
  3  2  2  0  0  0  0
  4  2  1  6  0  0  0
  4  5  1  0  0  0  0
  4 12  1  0  0  0  0
  5 11  1  0  0  0  0
  6  9  1  0  0  0  0
  6  8  2  0  0  0  0
  7  8  1  0  0  0  0
  8 10  1  0  0  0  0
  9  5  2  0  0  0  0
 10 11  2  0  0  0  0
 14 17  1  0  0  0  0
 15 13  1  6  0  0  0
 15 24  1  0  0  0  0
 16 12  1  6  0  0  0
 16 14  1  0  0  0  0
 16 13  1  0  0  0  0
 17 15  1  0  0  0  0
 19 24  1  0  0  0  0
 19 23  1  0  0  0  0
 21 18  1  1  0  0  0
 22 21  1  0  0  0  0
 22 20  2  0  0  0  0
 23 26  1  6  0  0  0
 23 21  1  0  0  0  0
 24 22  1  0  0  0  0
 26 25  1  0  0  0  0
 27  1  1  0  0  0  0
 28 29  1  0  0  0  0
 28 27  1  0  0  0  0
 29 30  1  6  0  0  0
 29 31  1  0  0  0  0
 32 41  1  0  0  0  0
 32 31  1  0  0  0  0
 33 36  1  0  0  0  0
 33 37  1  1  0  0  0
 34 43  1  0  0  0  0
 35 38  1  0  0  0  0
 36 42  1  0  0  0  0
 36 35  1  0  0  0  0
 38 34  2  0  0  0  0
 39 43  1  0  0  0  0
 40 41  2  0  0  0  0
 40 33  1  0  0  0  0
 41 44  1  0  0  0  0
 42 39  1  0  0  0  0
 44 35  2  0  0  0  0
 45 48  1  1  0  0  0
 46 45  1  0  0  0  0
 47 43  1  6  0  0  0
 47 46  1  0  0  0  0
 47 45  1  0  0  0  0
 48 50  1  0  0  0  0
 50 49  1  0  0  0  0
M  END
>  <MODEL>
8

>  <REMARK>
 VINA RESULT:      -6.9      2.489      9.149
  Name = 
  16 active torsions:
  status: ('A' for Active; 'I' for Inactive)
    1  A    between atoms: C_2  and  C_43
    2  A    between atoms: C_8  and  O_44
    3  A    between atoms: N_13  and  C_32
    4  A    between atoms: N_13  and  C_38
    5  A    between atoms: N_20  and  C_39
    6  A    between atoms: C_25  and  C_35
    7  A    between atoms: C_25  and  C_38
    8  A    between atoms: C_27  and  C_43
    9  A    between atoms: C_28  and  N_42
   10  A    between atoms: C_29  and  N_46
   11  A    between atoms: C_31  and  C_50
   12  A    between atoms: C_32  and  N_48
   13  A    between atoms: C_35  and  C_50
   14  A    between atoms: N_40  and  C_41
   15  A    between atoms: C_43  and  N_46
   16  A    between atoms: O_44  and  O_49
                            x       y       z     vdW  Elec       q    Type
                         _______ _______ _______ _____ _____    ______ ____

>  <TORSDO>
F 16

$$$$
=
 OpenBabel10222419053D

 50 55  0  0  1  0  0  0  0  0999 V2000
  185.5010  178.5740  140.0370 C   0  0  0  0  0  2  0  0  0  0  0  0
  184.4110  178.2930  142.1290 C   0  0  0  0  0  3  0  0  0  0  0  0
  184.8860  179.0840  141.2360 N   0  0  0  0  0  0  0  0  0  0  0  0
  183.7970  178.8440  143.3770 C   0  0  2  0  0  3  0  0  0  0  0  0
  184.6940  178.6380  144.5600 C   0  0  0  0  0  0  0  0  0  0  0  0
  186.8630  178.0140  145.4370 C   0  0  0  0  0  3  0  0  0  0  0  0
  187.2400  178.0090  147.8200 O   0  0  0  0  0  1  0  0  0  0  0  0
  186.3970  178.2180  146.7400 C   0  0  0  0  0  0  0  0  0  0  0  0
  186.0120  178.2230  144.3500 C   0  0  0  0  0  3  0  0  0  0  0  0
  185.0780  178.6300  146.9570 C   0  0  0  0  0  3  0  0  0  0  0  0
  184.2280  178.8400  145.8690 C   0  0  0  0  0  3  0  0  0  0  0  0
  182.5060  178.2170  143.6140 N   0  0  0  0  0  2  0  0  0  0  0  0
  181.4980  179.1850  141.6300 C   0  0  0  0  0  2  0  0  0  0  0  0
  180.1030  178.6220  143.5120 C   0  0  0  0  0  2  0  0  0  0  0  0
  180.0490  179.2670  141.1790 C   0  0  2  0  0  3  0  0  0  0  0  0
  181.4780  179.1320  143.1410 C   0  0  1  0  0  3  0  0  0  0  0  0
  179.1830  179.1200  142.4200 C   0  0  0  0  0  2  0  0  0  0  0  0
  178.9360  177.1160  137.0660 C   0  0  0  0  0  1  0  0  0  0  0  0
  179.2830  176.8790  140.5660 C   0  0  0  0  0  2  0  0  0  0  0  0
  180.7010  179.2280  138.3300 O   0  0  0  0  0  0  0  0  0  0  0  0
  179.9490  176.9410  138.1790 C   0  0  1  0  0  3  0  0  0  0  0  0
  180.1700  178.2240  138.8700 C   0  0  0  0  0  0  0  0  0  0  0  0
  179.3530  176.0470  139.2730 C   0  0  1  0  0  3  0  0  0  0  0  0
  179.7580  178.2050  140.2200 N   0  0  0  0  0  0  0  0  0  0  0  0
  179.5510  173.7560  138.8750 C   0  0  0  0  0  1  0  0  0  0  0  0
  180.2170  174.8960  139.4770 N   0  0  0  0  0  2  0  0  0  0  0  0
  184.8240  179.0890  138.8510 N   0  0  0  0  0  2  0  0  0  0  0  0
  184.2450  177.9650  138.1410 C   0  0  0  0  0  2  0  0  0  0  0  0
  185.1520  177.5130  137.0050 C   0  0  2  0  0  3  0  0  0  0  0  0
  185.4810  175.7690  137.1480 Cl  0  0  0  0  0  0  0  0  0  0  0  0
  186.4540  178.3080  136.9470 C   0  0  0  0  0  2  0  0  0  0  0  0
  187.6540  177.4290  136.6160 C   0  0  0  0  0  2  0  0  0  0  0  0
  190.4520  176.3250  138.9130 C   0  0  2  0  0  3  0  0  0  0  0  0
  188.9040  178.7120  142.5160 C   0  0  0  0  0  3  0  0  0  0  0  0
  188.8340  177.8250  140.1120 C   0  0  0  0  0  0  0  0  0  0  0  0
  189.8590  176.8120  140.1580 N   0  0  0  0  0  0  0  0  0  0  0  0
  191.6750  177.0550  138.6380 N   0  0  0  0  0  1  0  0  0  0  0  0
  188.4040  178.6290  141.2760 C   0  0  0  0  0  3  0  0  0  0  0  0
  191.0340  177.3770  142.1800 C   0  0  0  0  0  2  0  0  0  0  0  0
  189.5320  176.4760  137.7870 N   0  0  0  0  0  0  0  0  0  0  0  0
  188.5300  177.3010  137.8080 C   0  0  0  0  0  0  0  0  0  0  0  0
  190.3720  176.2710  141.4000 C   0  0  0  0  0  2  0  0  0  0  0  0
  190.0530  178.0210  143.0360 N   0  0  0  0  0  0  0  0  0  0  0  0
  188.2150  178.0360  138.9930 N   0  0  0  0  0  0  0  0  0  0  0  0
  191.6990  177.5340  144.7740 C   0  0  2  0  0  3  0  0  0  0  0  0
  191.6800  179.0260  144.5630 C   0  0  0  0  0  2  0  0  0  0  0  0
  190.3930  178.2360  144.4380 C   0  0  1  0  0  3  0  0  0  0  0  0
  191.7230  177.2590  146.1430 O   0  0  0  0  0  0  0  0  0  0  0  0
  192.5250  175.7720  147.3480 O   0  0  0  0  0  1  0  0  0  0  0  0
  191.8690  175.9560  146.2250 O   0  0  0  0  0  0  0  0  0  0  0  0
  1  3  1  0  0  0  0
  3  2  2  0  0  0  0
  4  2  1  6  0  0  0
  4 12  1  0  0  0  0
  4  5  1  0  0  0  0
  5 11  1  0  0  0  0
  6  8  2  0  0  0  0
  8 10  1  0  0  0  0
  8  7  1  0  0  0  0
  9  5  2  0  0  0  0
  9  6  1  0  0  0  0
 11 10  2  0  0  0  0
 13 16  1  0  0  0  0
 15 24  1  6  0  0  0
 15 13  1  0  0  0  0
 15 17  1  0  0  0  0
 16 14  1  0  0  0  0
 16 12  1  6  0  0  0
 17 14  1  0  0  0  0
 20 22  2  0  0  0  0
 21 18  1  6  0  0  0
 21 22  1  0  0  0  0
 21 23  1  0  0  0  0
 22 24  1  0  0  0  0
 23 26  1  1  0  0  0
 23 19  1  0  0  0  0
 24 19  1  0  0  0  0
 25 26  1  0  0  0  0
 27  1  1  0  0  0  0
 28 27  1  0  0  0  0
 29 30  1  1  0  0  0
 29 28  1  0  0  0  0
 31 29  1  0  0  0  0
 32 31  1  0  0  0  0
 32 41  1  0  0  0  0
 33 37  1  6  0  0  0
 33 36  1  0  0  0  0
 34 43  1  0  0  0  0
 35 36  1  0  0  0  0
 35 38  1  0  0  0  0
 36 42  1  0  0  0  0
 38 34  2  0  0  0  0
 39 43  1  0  0  0  0
 40 41  2  0  0  0  0
 40 33  1  0  0  0  0
 41 44  1  0  0  0  0
 42 39  1  0  0  0  0
 44 35  2  0  0  0  0
 45 48  1  1  0  0  0
 46 45  1  0  0  0  0
 47 43  1  6  0  0  0
 47 46  1  0  0  0  0
 47 45  1  0  0  0  0
 48 50  1  0  0  0  0
 50 49  1  0  0  0  0
M  END
>  <MODEL>
9

>  <REMARK>
 VINA RESULT:      -6.8      1.936      2.736
  Name = 
  16 active torsions:
  status: ('A' for Active; 'I' for Inactive)
    1  A    between atoms: C_2  and  C_43
    2  A    between atoms: C_8  and  O_44
    3  A    between atoms: N_13  and  C_32
    4  A    between atoms: N_13  and  C_38
    5  A    between atoms: N_20  and  C_39
    6  A    between atoms: C_25  and  C_35
    7  A    between atoms: C_25  and  C_38
    8  A    between atoms: C_27  and  C_43
    9  A    between atoms: C_28  and  N_42
   10  A    between atoms: C_29  and  N_46
   11  A    between atoms: C_31  and  C_50
   12  A    between atoms: C_32  and  N_48
   13  A    between atoms: C_35  and  C_50
   14  A    between atoms: N_40  and  C_41
   15  A    between atoms: C_43  and  N_46
   16  A    between atoms: O_44  and  O_49
                            x       y       z     vdW  Elec       q    Type
                         _______ _______ _______ _____ _____    ______ ____

>  <TORSDO>
F 16

$$$$
