=
 OpenBabel10222420183D

 27 29  0  0  1  0  0  0  0  0999 V2000
  187.6510  177.6760  146.1350 C   0  0  0  0  0  0  0  0  0  0  0  0
  186.9220  178.4350  147.0380 C   0  0  0  0  0  0  0  0  0  0  0  0
  187.4240  178.7270  148.2650 N   0  0  0  0  0  0  0  0  0  0  0  0
  186.7250  177.4280  144.7530 S   0  0  0  0  0  0  0  0  0  0  0  0
  188.6550  178.2630  148.6310 C   0  0  0  0  0  3  0  0  0  0  0  0
  189.4190  177.4870  147.7410 C   0  0  0  0  0  3  0  0  0  0  0  0
  185.4070  178.3250  145.3110 C   0  0  0  0  0  0  0  0  0  0  0  0
  185.6550  178.8190  146.5920 C   0  0  0  0  0  3  0  0  0  0  0  0
  188.9250  177.1990  146.4620 C   0  0  0  0  0  0  0  0  0  0  0  0
  184.2090  178.5200  144.5500 N   0  0  0  0  0  2  0  0  0  0  0  0
  181.4920  178.5210  144.3200 O   0  0  0  0  0  0  0  0  0  0  0  0
  185.2020  179.1290  142.5200 O   0  0  0  0  0  0  0  0  0  0  0  0
  181.5980  178.8730  143.1160 C   0  0  0  0  0  0  0  0  0  0  0  0
  182.8850  179.0760  142.5160 N   0  0  0  0  0  2  0  0  0  0  0  0
  184.1460  178.9170  143.1730 C   0  0  0  0  0  0  0  0  0  0  0  0
  180.3610  179.0680  142.3040 C   0  0  1  0  0  3  0  0  0  0  0  0
  179.5090  177.9770  142.4710 O   0  0  0  0  0  1  0  0  0  0  0  0
  179.6410  180.3430  142.7110 C   0  0  0  0  0  2  0  0  0  0  0  0
  179.5990  181.2320  141.6380 O   0  0  0  0  0  1  0  0  0  0  0  0
  189.6970  176.3860  145.5710 N   0  0  0  0  0  2  0  0  0  0  0  0
  191.6230  178.4020  143.2130 N   0  0  0  0  0  0  0  0  0  0  0  0
  190.3770  176.8780  144.4140 C   0  0  1  0  0  3  0  0  0  0  0  0
  190.1900  176.1550  142.7760 S   0  0  0  0  0  0  0  0  0  0  0  0
  191.8380  177.4430  141.0560 C   0  0  0  0  0  0  0  0  0  0  0  0
  192.4300  177.3910  139.9710 O   0  0  0  0  0  0  0  0  0  0  0  0
  191.0810  178.0010  144.4610 C   0  0  0  0  0  3  0  0  0  0  0  0
  191.2160  177.4980  142.1990 C   0  0  0  0  0  0  0  0  0  0  0  0
  1  9  2  0  0  0  0
  1  2  1  0  0  0  0
  2  3  2  0  0  0  0
  3  5  1  0  0  0  0
  4  7  1  0  0  0  0
  4  1  1  0  0  0  0
  6  5  2  0  0  0  0
  7  8  2  0  0  0  0
  8  2  1  0  0  0  0
  9  6  1  0  0  0  0
 10  7  1  0  0  0  0
 12 15  2  0  0  0  0
 13 11  2  0  0  0  0
 14 13  1  0  0  0  0
 14 15  1  0  0  0  0
 15 10  1  0  0  0  0
 16 17  1  1  0  0  0
 16 18  1  0  0  0  0
 16 13  1  0  0  0  0
 19 18  1  0  0  0  0
 20  9  1  0  0  0  0
 21 26  2  0  0  0  0
 22 26  1  0  0  0  0
 22 20  1  6  0  0  0
 23 22  1  0  0  0  0
 24 27  2  0  0  0  0
 25 24  2  0  0  0  0
 27 23  1  0  0  0  0
 27 21  1  0  0  0  0
M  END
>  <MODEL>
1

>  <REMARK>
 VINA RESULT:      -8.1      0.000      0.000
  Name = 
  5 active torsions:
  status: ('A' for Active; 'I' for Inactive)
    1  A    between atoms: C_5  and  C_11
    2  A    between atoms: C_5  and  C_18
    3  A    between atoms: N_7  and  C_13
    4  A    between atoms: C_9  and  N_24
    5  A    between atoms: C_23  and  N_24
                            x       y       z     vdW  Elec       q    Type
                         _______ _______ _______ _____ _____    ______ ____

>  <TORSDO>
F 5

$$$$
=
 OpenBabel10222420183D

 27 29  0  0  1  0  0  0  0  0999 V2000
  186.7230  177.9920  145.1710 C   0  0  0  0  0  0  0  0  0  0  0  0
  185.6900  178.7450  145.7090 C   0  0  0  0  0  0  0  0  0  0  0  0
  185.7060  179.1130  147.0160 N   0  0  0  0  0  0  0  0  0  0  0  0
  186.3640  177.6380  143.5660 S   0  0  0  0  0  0  0  0  0  0  0  0
  186.7400  178.7350  147.8220 C   0  0  0  0  0  3  0  0  0  0  0  0
  187.8020  177.9670  147.3100 C   0  0  0  0  0  3  0  0  0  0  0  0
  184.9010  178.4810  143.5640 C   0  0  0  0  0  0  0  0  0  0  0  0
  184.6530  179.0390  144.8200 C   0  0  0  0  0  3  0  0  0  0  0  0
  187.8120  177.6010  145.9570 C   0  0  0  0  0  0  0  0  0  0  0  0
  184.0500  178.5780  142.4170 N   0  0  0  0  0  2  0  0  0  0  0  0
  181.6400  178.2350  141.1870 O   0  0  0  0  0  0  0  0  0  0  0  0
  185.6080  179.4860  140.9250 O   0  0  0  0  0  0  0  0  0  0  0  0
  182.1230  178.6990  140.1210 C   0  0  0  0  0  0  0  0  0  0  0  0
  183.4920  179.1240  140.0520 N   0  0  0  0  0  2  0  0  0  0  0  0
  184.4340  179.0790  141.1290 C   0  0  0  0  0  0  0  0  0  0  0  0
  181.2540  178.7950  138.9100 C   0  0  1  0  0  3  0  0  0  0  0  0
  180.8510  177.5200  138.5160 O   0  0  0  0  0  1  0  0  0  0  0  0
  180.0310  179.6520  139.1890 C   0  0  0  0  0  2  0  0  0  0  0  0
  180.4160  180.9700  139.4370 O   0  0  0  0  0  1  0  0  0  0  0  0
  188.8810  176.7970  145.4480 N   0  0  0  0  0  2  0  0  0  0  0  0
  191.2140  178.6530  143.3380 N   0  0  0  0  0  0  0  0  0  0  0  0
  189.7720  177.2060  144.4070 C   0  0  1  0  0  3  0  0  0  0  0  0
  189.9190  176.3360  142.8370 S   0  0  0  0  0  0  0  0  0  0  0  0
  191.8610  177.5140  141.3610 C   0  0  0  0  0  0  0  0  0  0  0  0
  192.6560  177.3840  140.4230 O   0  0  0  0  0  0  0  0  0  0  0  0
  190.4410  178.3470  144.4870 C   0  0  0  0  0  3  0  0  0  0  0  0
  191.0250  177.6520  142.3510 C   0  0  0  0  0  0  0  0  0  0  0  0
  1  2  2  0  0  0  0
  1  9  1  0  0  0  0
  2  3  1  0  0  0  0
  3  5  2  0  0  0  0
  4  1  1  0  0  0  0
  6  5  1  0  0  0  0
  7  4  1  0  0  0  0
  7  8  2  0  0  0  0
  8  2  1  0  0  0  0
  9  6  2  0  0  0  0
 10  7  1  0  0  0  0
 12 15  2  0  0  0  0
 13 11  2  0  0  0  0
 14 13  1  0  0  0  0
 14 15  1  0  0  0  0
 15 10  1  0  0  0  0
 16 17  1  1  0  0  0
 16 18  1  0  0  0  0
 16 13  1  0  0  0  0
 18 19  1  0  0  0  0
 20  9  1  0  0  0  0
 21 26  2  0  0  0  0
 22 26  1  0  0  0  0
 22 20  1  6  0  0  0
 23 22  1  0  0  0  0
 24 27  2  0  0  0  0
 25 24  2  0  0  0  0
 27 23  1  0  0  0  0
 27 21  1  0  0  0  0
M  END
>  <MODEL>
2

>  <REMARK>
 VINA RESULT:      -7.7      1.831      2.081
  Name = 
  5 active torsions:
  status: ('A' for Active; 'I' for Inactive)
    1  A    between atoms: C_5  and  C_11
    2  A    between atoms: C_5  and  C_18
    3  A    between atoms: N_7  and  C_13
    4  A    between atoms: C_9  and  N_24
    5  A    between atoms: C_23  and  N_24
                            x       y       z     vdW  Elec       q    Type
                         _______ _______ _______ _____ _____    ______ ____

>  <TORSDO>
F 5

$$$$
=
 OpenBabel10222420183D

 27 29  0  0  1  0  0  0  0  0999 V2000
  187.2450  177.8210  142.7150 C   0  0  0  0  0  0  0  0  0  0  0  0
  186.9520  178.6280  141.6250 C   0  0  0  0  0  0  0  0  0  0  0  0
  185.8550  179.4280  141.6280 N   0  0  0  0  0  0  0  0  0  0  0  0
  188.6100  176.9020  142.3660 S   0  0  0  0  0  0  0  0  0  0  0  0
  185.0170  179.4390  142.7050 C   0  0  0  0  0  3  0  0  0  0  0  0
  185.2820  178.6300  143.8250 C   0  0  0  0  0  3  0  0  0  0  0  0
  188.8340  177.5700  140.8310 C   0  0  0  0  0  0  0  0  0  0  0  0
  187.8390  178.5080  140.5520 C   0  0  0  0  0  3  0  0  0  0  0  0
  186.4240  177.8180  143.8470 C   0  0  0  0  0  0  0  0  0  0  0  0
  189.9040  177.1930  139.9570 N   0  0  0  0  0  2  0  0  0  0  0  0
  190.8250  176.2030  137.5880 O   0  0  0  0  0  0  0  0  0  0  0  0
  191.6910  177.7260  141.3710 O   0  0  0  0  0  0  0  0  0  0  0  0
  192.0080  176.3430  137.9950 C   0  0  0  0  0  0  0  0  0  0  0  0
  192.2840  176.8680  139.3010 N   0  0  0  0  0  2  0  0  0  0  0  0
  191.3030  177.2820  140.2570 C   0  0  0  0  0  0  0  0  0  0  0  0
  193.1360  175.9410  137.1020 C   0  0  1  0  0  3  0  0  0  0  0  0
  194.0540  176.9850  137.0020 O   0  0  0  0  0  1  0  0  0  0  0  0
  193.8310  174.6990  137.6340 C   0  0  0  0  0  2  0  0  0  0  0  0
  195.0430  175.0480  138.2320 O   0  0  0  0  0  1  0  0  0  0  0  0
  186.6730  176.9770  144.9790 N   0  0  0  0  0  2  0  0  0  0  0  0
  188.7610  177.8800  147.8360 N   0  0  0  0  0  2  0  0  0  0  0  0
  187.7610  177.1520  145.8900 C   0  0  0  0  0  0  0  0  0  0  0  0
  189.4790  176.8500  145.4440 S   0  0  0  0  0  0  0  0  0  0  0  0
  191.0300  177.2240  147.6330 C   0  0  0  0  0  0  0  0  0  0  0  0
  192.1190  176.9880  148.1700 O   0  0  0  0  0  0  0  0  0  0  0  0
  187.5720  177.6930  147.0850 C   0  0  0  0  0  3  0  0  0  0  0  0
  189.8820  177.4730  147.0690 C   0  0  0  0  0  0  0  0  0  0  0  0
  1  9  1  0  0  0  0
  2  3  1  0  0  0  0
  2  1  2  0  0  0  0
  3  5  2  0  0  0  0
  4  1  1  0  0  0  0
  5  6  1  0  0  0  0
  6  9  2  0  0  0  0
  7  4  1  0  0  0  0
  8  7  2  0  0  0  0
  8  2  1  0  0  0  0
  9 20  1  0  0  0  0
 10 15  1  0  0  0  0
 10  7  1  0  0  0  0
 11 13  2  0  0  0  0
 13 14  1  0  0  0  0
 14 15  1  0  0  0  0
 15 12  2  0  0  0  0
 16 17  1  1  0  0  0
 16 18  1  0  0  0  0
 16 13  1  0  0  0  0
 18 19  1  0  0  0  0
 20 22  1  0  0  0  0
 22 26  2  0  0  0  0
 23 22  1  0  0  0  0
 23 27  1  0  0  0  0
 24 25  2  0  0  0  0
 26 21  1  0  0  0  0
 27 24  2  0  0  0  0
 27 21  1  0  0  0  0
M  END
>  <MODEL>
3

>  <REMARK>
 VINA RESULT:      -7.5      4.817      8.643
  Name = 
  5 active torsions:
  status: ('A' for Active; 'I' for Inactive)
    1  A    between atoms: C_5  and  C_11
    2  A    between atoms: C_5  and  C_18
    3  A    between atoms: N_7  and  C_13
    4  A    between atoms: C_9  and  N_24
    5  A    between atoms: C_23  and  N_24
                            x       y       z     vdW  Elec       q    Type
                         _______ _______ _______ _____ _____    ______ ____

>  <TORSDO>
F 5

$$$$
=
 OpenBabel10222420183D

 27 29  0  0  1  0  0  0  0  0999 V2000
  187.8060  177.6190  145.8900 C   0  0  0  0  0  0  0  0  0  0  0  0
  186.8220  178.2660  146.6240 C   0  0  0  0  0  0  0  0  0  0  0  0
  187.0070  178.5440  147.9400 N   0  0  0  0  0  0  0  0  0  0  0  0
  187.2400  177.3540  144.3290 S   0  0  0  0  0  0  0  0  0  0  0  0
  188.1650  178.1780  148.5620 C   0  0  0  0  0  3  0  0  0  0  0  0
  189.1820  177.5160  147.8490 C   0  0  0  0  0  3  0  0  0  0  0  0
  185.7490  178.1000  144.5960 C   0  0  0  0  0  0  0  0  0  0  0  0
  185.6550  178.5530  145.9130 C   0  0  0  0  0  3  0  0  0  0  0  0
  189.0160  177.2450  146.4840 C   0  0  0  0  0  0  0  0  0  0  0  0
  184.7370  178.2210  143.5890 N   0  0  0  0  0  2  0  0  0  0  0  0
  183.8620  177.9150  141.0240 O   0  0  0  0  0  0  0  0  0  0  0  0
  183.0590  179.1670  144.9190 O   0  0  0  0  0  0  0  0  0  0  0  0
  182.7490  178.4030  141.3510 C   0  0  0  0  0  0  0  0  0  0  0  0
  182.4940  178.8280  142.6970 N   0  0  0  0  0  2  0  0  0  0  0  0
  183.4200  178.7540  143.7850 C   0  0  0  0  0  0  0  0  0  0  0  0
  181.6870  178.5500  140.3110 C   0  0  1  0  0  3  0  0  0  0  0  0
  181.6130  179.8790  139.8960 O   0  0  0  0  0  1  0  0  0  0  0  0
  181.9740  177.6580  139.1150 C   0  0  0  0  0  2  0  0  0  0  0  0
  181.2730  176.4590  139.2320 O   0  0  0  0  0  1  0  0  0  0  0  0
  190.0430  176.5480  145.7710 N   0  0  0  0  0  2  0  0  0  0  0  0
  191.6650  178.5540  143.1860 N   0  0  0  0  0  0  0  0  0  0  0  0
  190.6360  177.0100  144.5540 C   0  0  1  0  0  3  0  0  0  0  0  0
  190.5010  176.1250  142.9920 S   0  0  0  0  0  0  0  0  0  0  0  0
  191.9480  177.4350  141.1150 C   0  0  0  0  0  0  0  0  0  0  0  0
  192.5190  177.3550  140.0210 O   0  0  0  0  0  0  0  0  0  0  0  0
  191.2010  178.2060  144.4810 C   0  0  0  0  0  3  0  0  0  0  0  0
  191.3480  177.5200  142.2680 C   0  0  0  0  0  0  0  0  0  0  0  0
  1  9  2  0  0  0  0
  1  2  1  0  0  0  0
  2  3  2  0  0  0  0
  3  5  1  0  0  0  0
  4  7  1  0  0  0  0
  4  1  1  0  0  0  0
  6  5  2  0  0  0  0
  7  8  2  0  0  0  0
  8  2  1  0  0  0  0
  9  6  1  0  0  0  0
 10 15  1  0  0  0  0
 10  7  1  0  0  0  0
 11 13  2  0  0  0  0
 13 14  1  0  0  0  0
 14 15  1  0  0  0  0
 15 12  2  0  0  0  0
 16 17  1  6  0  0  0
 16 13  1  0  0  0  0
 18 19  1  0  0  0  0
 18 16  1  0  0  0  0
 20  9  1  0  0  0  0
 21 26  2  0  0  0  0
 22 20  1  6  0  0  0
 23 22  1  0  0  0  0
 24 27  2  0  0  0  0
 25 24  2  0  0  0  0
 26 22  1  0  0  0  0
 27 23  1  0  0  0  0
 27 21  1  0  0  0  0
M  END
>  <MODEL>
4

>  <REMARK>
 VINA RESULT:      -7.5      1.546      2.065
  Name = 
  5 active torsions:
  status: ('A' for Active; 'I' for Inactive)
    1  A    between atoms: C_5  and  C_11
    2  A    between atoms: C_5  and  C_18
    3  A    between atoms: N_7  and  C_13
    4  A    between atoms: C_9  and  N_24
    5  A    between atoms: C_23  and  N_24
                            x       y       z     vdW  Elec       q    Type
                         _______ _______ _______ _____ _____    ______ ____

>  <TORSDO>
F 5

$$$$
=
 OpenBabel10222420183D

 27 29  0  0  1  0  0  0  0  0999 V2000
  188.8550  177.8430  138.9340 C   0  0  0  0  0  0  0  0  0  0  0  0
  190.0620  177.1590  138.9220 C   0  0  0  0  0  0  0  0  0  0  0  0
  190.6260  176.7660  137.7520 N   0  0  0  0  0  0  0  0  0  0  0  0
  188.3930  178.1120  140.5290 S   0  0  0  0  0  0  0  0  0  0  0  0
  190.0030  177.0300  136.5670 C   0  0  0  0  0  3  0  0  0  0  0  0
  188.7760  177.7180  136.5420 C   0  0  0  0  0  3  0  0  0  0  0  0
  189.7610  177.3770  141.1920 C   0  0  0  0  0  0  0  0  0  0  0  0
  190.5960  176.8910  140.1850 C   0  0  0  0  0  3  0  0  0  0  0  0
  188.1930  178.1530  137.7410 C   0  0  0  0  0  0  0  0  0  0  0  0
  189.9940  177.2740  142.6020 N   0  0  0  0  0  2  0  0  0  0  0  0
  191.5430  177.6810  144.8090 O   0  0  0  0  0  0  0  0  0  0  0  0
  187.9950  176.2080  143.1900 O   0  0  0  0  0  0  0  0  0  0  0  0
  190.6580  177.1400  145.5240 C   0  0  0  0  0  0  0  0  0  0  0  0
  189.4450  176.6390  144.9460 N   0  0  0  0  0  2  0  0  0  0  0  0
  189.0990  176.6890  143.5580 C   0  0  0  0  0  0  0  0  0  0  0  0
  190.8890  177.0110  146.9940 C   0  0  1  0  0  3  0  0  0  0  0  0
  189.6780  176.7810  147.6440 O   0  0  0  0  0  1  0  0  0  0  0  0
  191.8520  175.8730  147.2920 C   0  0  0  0  0  2  0  0  0  0  0  0
  192.7840  176.2740  148.2490 O   0  0  0  0  0  1  0  0  0  0  0  0
  186.9320  178.8280  137.7110 N   0  0  0  0  0  2  0  0  0  0  0  0
  183.9190  176.7690  137.5780 N   0  0  0  0  0  0  0  0  0  0  0  0
  185.6760  178.2040  137.9890 C   0  0  1  0  0  3  0  0  0  0  0  0
  184.5340  178.8020  139.2470 S   0  0  0  0  0  0  0  0  0  0  0  0
  182.4170  177.1170  139.3790 C   0  0  0  0  0  0  0  0  0  0  0  0
  181.4690  176.7150  140.0640 O   0  0  0  0  0  0  0  0  0  0  0  0
  185.2150  177.2240  137.2250 C   0  0  0  0  0  3  0  0  0  0  0  0
  183.4160  177.5400  138.6570 C   0  0  0  0  0  0  0  0  0  0  0  0
  1  4  1  0  0  0  0
  2  1  1  0  0  0  0
  2  8  1  0  0  0  0
  3  2  2  0  0  0  0
  4  7  1  0  0  0  0
  5  3  1  0  0  0  0
  6  5  2  0  0  0  0
  6  9  1  0  0  0  0
  7 10  1  0  0  0  0
  8  7  2  0  0  0  0
  9  1  2  0  0  0  0
 10 15  1  0  0  0  0
 11 13  2  0  0  0  0
 12 15  2  0  0  0  0
 13 16  1  0  0  0  0
 14 13  1  0  0  0  0
 15 14  1  0  0  0  0
 16 18  1  0  0  0  0
 16 17  1  1  0  0  0
 18 19  1  0  0  0  0
 20  9  1  0  0  0  0
 21 27  1  0  0  0  0
 22 20  1  6  0  0  0
 22 23  1  0  0  0  0
 24 25  2  0  0  0  0
 26 21  2  0  0  0  0
 26 22  1  0  0  0  0
 27 23  1  0  0  0  0
 27 24  2  0  0  0  0
M  END
>  <MODEL>
5

>  <REMARK>
 VINA RESULT:      -7.3      4.559      9.481
  Name = 
  5 active torsions:
  status: ('A' for Active; 'I' for Inactive)
    1  A    between atoms: C_5  and  C_11
    2  A    between atoms: C_5  and  C_18
    3  A    between atoms: N_7  and  C_13
    4  A    between atoms: C_9  and  N_24
    5  A    between atoms: C_23  and  N_24
                            x       y       z     vdW  Elec       q    Type
                         _______ _______ _______ _____ _____    ______ ____

>  <TORSDO>
F 5

$$$$
=
 OpenBabel10222420183D

 27 29  0  0  1  0  0  0  0  0999 V2000
  188.1820  177.6350  142.0850 C   0  0  0  0  0  0  0  0  0  0  0  0
  189.1270  176.8820  142.7680 C   0  0  0  0  0  0  0  0  0  0  0  0
  188.9870  176.6310  144.0940 N   0  0  0  0  0  0  0  0  0  0  0  0
  188.6840  177.8300  140.4920 S   0  0  0  0  0  0  0  0  0  0  0  0
  187.9160  177.1280  144.7780 C   0  0  0  0  0  3  0  0  0  0  0  0
  186.9410  177.8980  144.1180 C   0  0  0  0  0  3  0  0  0  0  0  0
  190.0940  176.9200  140.6810 C   0  0  0  0  0  0  0  0  0  0  0  0
  190.2110  176.4620  141.9940 C   0  0  0  0  0  3  0  0  0  0  0  0
  187.0580  178.1450  142.7430 C   0  0  0  0  0  0  0  0  0  0  0  0
  191.0260  176.6830  139.6200 N   0  0  0  0  0  2  0  0  0  0  0  0
  193.5440  176.7810  138.5770 O   0  0  0  0  0  0  0  0  0  0  0  0
  189.5340  175.7620  138.0700 O   0  0  0  0  0  0  0  0  0  0  0  0
  193.1170  176.2670  137.5100 C   0  0  0  0  0  0  0  0  0  0  0  0
  191.7330  175.9240  137.3560 N   0  0  0  0  0  2  0  0  0  0  0  0
  190.7130  176.1100  138.3430 C   0  0  0  0  0  0  0  0  0  0  0  0
  194.0720  176.0240  136.3880 C   0  0  1  0  0  3  0  0  0  0  0  0
  194.7060  177.2170  136.0420 O   0  0  0  0  0  1  0  0  0  0  0  0
  195.1130  174.9880  136.7770 C   0  0  0  0  0  2  0  0  0  0  0  0
  196.3950  175.4930  136.5620 O   0  0  0  0  0  1  0  0  0  0  0  0
  186.0770  178.9520  142.0830 N   0  0  0  0  0  2  0  0  0  0  0  0
  182.4740  178.5090  141.6790 N   0  0  0  0  0  0  0  0  0  0  0  0
  184.6680  178.8500  142.3030 C   0  0  1  0  0  3  0  0  0  0  0  0
  183.8640  179.3950  143.8200 S   0  0  0  0  0  0  0  0  0  0  0  0
  181.2250  178.8050  143.6720 C   0  0  0  0  0  0  0  0  0  0  0  0
  180.1780  178.6230  144.3060 O   0  0  0  0  0  0  0  0  0  0  0  0
  183.8490  178.4770  141.3300 C   0  0  0  0  0  3  0  0  0  0  0  0
  182.3260  178.9960  143.0030 C   0  0  0  0  0  0  0  0  0  0  0  0
  1  9  2  0  0  0  0
  1  2  1  0  0  0  0
  2  3  2  0  0  0  0
  3  5  1  0  0  0  0
  4  7  1  0  0  0  0
  4  1  1  0  0  0  0
  6  5  2  0  0  0  0
  7  8  2  0  0  0  0
  8  2  1  0  0  0  0
  9  6  1  0  0  0  0
 10  7  1  0  0  0  0
 12 15  2  0  0  0  0
 13 11  2  0  0  0  0
 14 13  1  0  0  0  0
 14 15  1  0  0  0  0
 15 10  1  0  0  0  0
 16 17  1  1  0  0  0
 16 18  1  0  0  0  0
 16 13  1  0  0  0  0
 19 18  1  0  0  0  0
 20  9  1  0  0  0  0
 21 27  1  0  0  0  0
 22 20  1  6  0  0  0
 22 23  1  0  0  0  0
 24 25  2  0  0  0  0
 26 21  2  0  0  0  0
 26 22  1  0  0  0  0
 27 24  2  0  0  0  0
 27 23  1  0  0  0  0
M  END
>  <MODEL>
6

>  <REMARK>
 VINA RESULT:      -7.2      3.307      9.994
  Name = 
  5 active torsions:
  status: ('A' for Active; 'I' for Inactive)
    1  A    between atoms: C_5  and  C_11
    2  A    between atoms: C_5  and  C_18
    3  A    between atoms: N_7  and  C_13
    4  A    between atoms: C_9  and  N_24
    5  A    between atoms: C_23  and  N_24
                            x       y       z     vdW  Elec       q    Type
                         _______ _______ _______ _____ _____    ______ ____

>  <TORSDO>
F 5

$$$$
=
 OpenBabel10222420183D

 27 29  0  0  1  0  0  0  0  0999 V2000
  188.7670  177.8780  139.1620 C   0  0  0  0  0  0  0  0  0  0  0  0
  189.9730  177.1990  139.2530 C   0  0  0  0  0  0  0  0  0  0  0  0
  190.6350  176.8050  138.1350 N   0  0  0  0  0  0  0  0  0  0  0  0
  188.1710  178.1480  140.7110 S   0  0  0  0  0  0  0  0  0  0  0  0
  190.1120  177.0650  136.9010 C   0  0  0  0  0  3  0  0  0  0  0  0
  188.8890  177.7470  136.7720 C   0  0  0  0  0  3  0  0  0  0  0  0
  189.4810  177.4200  141.4890 C   0  0  0  0  0  0  0  0  0  0  0  0
  190.4000  176.9350  140.5560 C   0  0  0  0  0  3  0  0  0  0  0  0
  188.2060  178.1820  137.9160 C   0  0  0  0  0  0  0  0  0  0  0  0
  189.5950  177.3200  142.9130 N   0  0  0  0  0  2  0  0  0  0  0  0
  188.4960  176.9720  145.3850 O   0  0  0  0  0  0  0  0  0  0  0  0
  191.9080  177.6330  143.0830 O   0  0  0  0  0  0  0  0  0  0  0  0
  189.6370  177.0910  145.9040 C   0  0  0  0  0  0  0  0  0  0  0  0
  190.7980  177.3180  145.0930 N   0  0  0  0  0  2  0  0  0  0  0  0
  190.8100  177.4320  143.6660 C   0  0  0  0  0  0  0  0  0  0  0  0
  189.7720  177.0030  147.3880 C   0  0  1  0  0  3  0  0  0  0  0  0
  191.1190  177.0700  147.7440 O   0  0  0  0  0  1  0  0  0  0  0  0
  189.0090  178.1280  148.0680 C   0  0  0  0  0  2  0  0  0  0  0  0
  187.9680  177.6040  148.8350 O   0  0  0  0  0  1  0  0  0  0  0  0
  186.9490  178.8530  137.7790 N   0  0  0  0  0  2  0  0  0  0  0  0
  183.9050  176.8390  137.6510 N   0  0  0  0  0  0  0  0  0  0  0  0
  185.6810  178.2530  138.0560 C   0  0  1  0  0  3  0  0  0  0  0  0
  184.5370  178.8900  139.2920 S   0  0  0  0  0  0  0  0  0  0  0  0
  182.3930  177.2410  139.4330 C   0  0  0  0  0  0  0  0  0  0  0  0
  181.4320  176.8650  140.1150 O   0  0  0  0  0  0  0  0  0  0  0  0
  185.2120  177.2680  137.3030 C   0  0  0  0  0  3  0  0  0  0  0  0
  183.4050  177.6360  138.7130 C   0  0  0  0  0  0  0  0  0  0  0  0
  1  2  1  0  0  0  0
  1  4  1  0  0  0  0
  2  8  1  0  0  0  0
  3  2  2  0  0  0  0
  4  7  1  0  0  0  0
  5  3  1  0  0  0  0
  6  5  2  0  0  0  0
  6  9  1  0  0  0  0
  7 10  1  0  0  0  0
  8  7  2  0  0  0  0
  9  1  2  0  0  0  0
 10 15  1  0  0  0  0
 11 13  2  0  0  0  0
 12 15  2  0  0  0  0
 13 16  1  0  0  0  0
 14 13  1  0  0  0  0
 15 14  1  0  0  0  0
 16 17  1  6  0  0  0
 16 18  1  0  0  0  0
 18 19  1  0  0  0  0
 20  9  1  0  0  0  0
 21 27  1  0  0  0  0
 22 20  1  6  0  0  0
 22 23  1  0  0  0  0
 24 25  2  0  0  0  0
 26 21  2  0  0  0  0
 26 22  1  0  0  0  0
 27 23  1  0  0  0  0
 27 24  2  0  0  0  0
M  END
>  <MODEL>
7

>  <REMARK>
 VINA RESULT:      -7.2      4.372      9.047
  Name = 
  5 active torsions:
  status: ('A' for Active; 'I' for Inactive)
    1  A    between atoms: C_5  and  C_11
    2  A    between atoms: C_5  and  C_18
    3  A    between atoms: N_7  and  C_13
    4  A    between atoms: C_9  and  N_24
    5  A    between atoms: C_23  and  N_24
                            x       y       z     vdW  Elec       q    Type
                         _______ _______ _______ _____ _____    ______ ____

>  <TORSDO>
F 5

$$$$
=
 OpenBabel10222420183D

 27 29  0  0  1  0  0  0  0  0999 V2000
  186.4770  178.1860  143.6040 C   0  0  0  0  0  0  0  0  0  0  0  0
  187.3770  177.4160  144.3250 C   0  0  0  0  0  0  0  0  0  0  0  0
  187.1740  177.1620  145.6430 N   0  0  0  0  0  0  0  0  0  0  0  0
  187.0540  178.3780  142.0360 S   0  0  0  0  0  0  0  0  0  0  0  0
  186.0810  177.6750  146.2800 C   0  0  0  0  0  3  0  0  0  0  0  0
  185.1500  178.4640  145.5800 C   0  0  0  0  0  3  0  0  0  0  0  0
  188.4390  177.4440  142.2850 C   0  0  0  0  0  0  0  0  0  0  0  0
  188.4890  176.9800  143.6000 C   0  0  0  0  0  3  0  0  0  0  0  0
  185.3330  178.7130  144.2130 C   0  0  0  0  0  0  0  0  0  0  0  0
  189.4140  177.1940  141.2660 N   0  0  0  0  0  2  0  0  0  0  0  0
  190.1080  176.3090  138.7810 O   0  0  0  0  0  0  0  0  0  0  0  0
  191.3020  177.9520  142.4220 O   0  0  0  0  0  0  0  0  0  0  0  0
  191.3110  176.5950  139.0210 C   0  0  0  0  0  0  0  0  0  0  0  0
  191.7000  177.1590  140.2810 N   0  0  0  0  0  2  0  0  0  0  0  0
  190.8200  177.4560  141.3690 C   0  0  0  0  0  0  0  0  0  0  0  0
  192.3430  176.3280  137.9750 C   0  0  1  0  0  3  0  0  0  0  0  0
  193.6010  176.6970  138.4490 O   0  0  0  0  0  1  0  0  0  0  0  0
  192.3540  174.8590  137.5890 C   0  0  0  0  0  2  0  0  0  0  0  0
  193.6630  174.3760  137.5800 O   0  0  0  0  0  1  0  0  0  0  0  0
  184.3970  179.5390  143.5120 N   0  0  0  0  0  2  0  0  0  0  0  0
  182.2330  178.3080  140.8400 N   0  0  0  0  0  0  0  0  0  0  0  0
  183.2930  179.0400  142.7520 C   0  0  1  0  0  3  0  0  0  0  0  0
  181.6020  179.0150  143.3700 S   0  0  0  0  0  0  0  0  0  0  0  0
  180.0130  177.8310  141.5230 C   0  0  0  0  0  0  0  0  0  0  0  0
  178.9380  177.2560  141.3130 O   0  0  0  0  0  0  0  0  0  0  0  0
  183.4370  178.7000  141.4800 C   0  0  0  0  0  3  0  0  0  0  0  0
  181.1460  178.4350  141.7430 C   0  0  0  0  0  0  0  0  0  0  0  0
  1  9  2  0  0  0  0
  1  2  1  0  0  0  0
  2  3  2  0  0  0  0
  3  5  1  0  0  0  0
  4  7  1  0  0  0  0
  4  1  1  0  0  0  0
  6  5  2  0  0  0  0
  7  8  2  0  0  0  0
  8  2  1  0  0  0  0
  9  6  1  0  0  0  0
 10 15  1  0  0  0  0
 10  7  1  0  0  0  0
 11 13  2  0  0  0  0
 13 14  1  0  0  0  0
 14 15  1  0  0  0  0
 15 12  2  0  0  0  0
 16 17  1  1  0  0  0
 16 13  1  0  0  0  0
 18 16  1  0  0  0  0
 19 18  1  0  0  0  0
 20  9  1  0  0  0  0
 21 26  2  0  0  0  0
 21 27  1  0  0  0  0
 22 23  1  0  0  0  0
 22 20  1  6  0  0  0
 24 27  2  0  0  0  0
 25 24  2  0  0  0  0
 26 22  1  0  0  0  0
 27 23  1  0  0  0  0
M  END
>  <MODEL>
8

>  <REMARK>
 VINA RESULT:      -7.1      2.716      9.041
  Name = 
  5 active torsions:
  status: ('A' for Active; 'I' for Inactive)
    1  A    between atoms: C_5  and  C_11
    2  A    between atoms: C_5  and  C_18
    3  A    between atoms: N_7  and  C_13
    4  A    between atoms: C_9  and  N_24
    5  A    between atoms: C_23  and  N_24
                            x       y       z     vdW  Elec       q    Type
                         _______ _______ _______ _____ _____    ______ ____

>  <TORSDO>
F 5

$$$$
=
 OpenBabel10222420183D

 27 29  0  0  1  0  0  0  0  0999 V2000
  184.3100  178.7910  140.9570 C   0  0  0  0  0  0  0  0  0  0  0  0
  183.3730  178.6300  141.9670 C   0  0  0  0  0  0  0  0  0  0  0  0
  182.0440  178.7060  141.7010 N   0  0  0  0  0  0  0  0  0  0  0  0
  185.8520  178.7240  141.6230 S   0  0  0  0  0  0  0  0  0  0  0  0
  181.6120  178.9530  140.4300 C   0  0  0  0  0  3  0  0  0  0  0  0
  182.5340  179.1250  139.3820 C   0  0  0  0  0  3  0  0  0  0  0  0
  185.3080  178.4560  143.1990 C   0  0  0  0  0  0  0  0  0  0  0  0
  183.9130  178.4330  143.2400 C   0  0  0  0  0  3  0  0  0  0  0  0
  183.9090  179.0250  139.6370 C   0  0  0  0  0  0  0  0  0  0  0  0
  186.1870  178.2930  144.3180 N   0  0  0  0  0  2  0  0  0  0  0  0
  188.5940  177.5900  145.3900 O   0  0  0  0  0  0  0  0  0  0  0  0
  184.7180  179.0020  145.9970 O   0  0  0  0  0  0  0  0  0  0  0  0
  188.1620  177.8800  146.5370 C   0  0  0  0  0  0  0  0  0  0  0  0
  186.8250  178.3640  146.7240 N   0  0  0  0  0  2  0  0  0  0  0  0
  185.8610  178.5710  145.6870 C   0  0  0  0  0  0  0  0  0  0  0  0
  189.0600  177.7020  147.7180 C   0  0  1  0  0  3  0  0  0  0  0  0
  188.3030  177.3700  148.8400 O   0  0  0  0  0  1  0  0  0  0  0  0
  190.0880  176.6150  147.4560 C   0  0  0  0  0  2  0  0  0  0  0  0
  191.3760  177.1280  147.6110 O   0  0  0  0  0  1  0  0  0  0  0  0
  184.8430  179.2280  138.5710 N   0  0  0  0  0  2  0  0  0  0  0  0
  185.8210  176.2000  136.7800 N   0  0  0  0  0  0  0  0  0  0  0  0
  185.5790  178.1810  137.9340 C   0  0  1  0  0  3  0  0  0  0  0  0
  187.3580  177.9730  138.1160 S   0  0  0  0  0  0  0  0  0  0  0  0
  188.1640  175.9100  136.5580 C   0  0  0  0  0  0  0  0  0  0  0  0
  189.1170  175.3710  135.9830 O   0  0  0  0  0  0  0  0  0  0  0  0
  184.9590  177.2090  137.2810 C   0  0  0  0  0  3  0  0  0  0  0  0
  187.1580  176.4770  137.1630 C   0  0  0  0  0  0  0  0  0  0  0  0
  1  4  1  0  0  0  0
  1  2  1  0  0  0  0
  2  8  1  0  0  0  0
  3  2  2  0  0  0  0
  4  7  1  0  0  0  0
  5  3  1  0  0  0  0
  6  9  1  0  0  0  0
  6  5  2  0  0  0  0
  7  8  2  0  0  0  0
  7 10  1  0  0  0  0
  9  1  2  0  0  0  0
 10 15  1  0  0  0  0
 11 13  2  0  0  0  0
 13 14  1  0  0  0  0
 13 16  1  0  0  0  0
 15 12  2  0  0  0  0
 15 14  1  0  0  0  0
 16 17  1  1  0  0  0
 18 19  1  0  0  0  0
 18 16  1  0  0  0  0
 20  9  1  0  0  0  0
 21 27  1  0  0  0  0
 21 26  2  0  0  0  0
 22 23  1  0  0  0  0
 22 20  1  1  0  0  0
 24 27  2  0  0  0  0
 25 24  2  0  0  0  0
 26 22  1  0  0  0  0
 27 23  1  0  0  0  0
M  END
>  <MODEL>
9

>  <REMARK>
 VINA RESULT:      -7.1      4.239      7.894
  Name = 
  5 active torsions:
  status: ('A' for Active; 'I' for Inactive)
    1  A    between atoms: C_5  and  C_11
    2  A    between atoms: C_5  and  C_18
    3  A    between atoms: N_7  and  C_13
    4  A    between atoms: C_9  and  N_24
    5  A    between atoms: C_23  and  N_24
                            x       y       z     vdW  Elec       q    Type
                         _______ _______ _______ _____ _____    ______ ____

>  <TORSDO>
F 5

$$$$
