=
 OpenBabel10222416073D

 61 66  0  0  1  0  0  0  0  0999 V2000
  181.5930  177.1270  139.0110 C   0  0  1  0  0  3  0  0  0  0  0  0
  180.8240  175.8060  139.0530 C   0  0  0  0  0  1  0  0  0  0  0  0
  182.2460  176.9190  136.4340 C   0  0  2  0  0  3  0  0  0  0  0  0
  183.0910  177.7760  137.1640 O   0  0  0  0  0  0  0  0  0  0  0  0
  181.7420  177.7280  137.5890 C   0  0  2  0  0  0  0  0  0  0  0  0
  178.9320  177.8320  137.1990 O   0  0  0  0  0  1  0  0  0  0  0  0
  179.5090  179.1090  137.1520 C   0  0  2  0  0  3  0  0  0  0  0  0
  180.4000  178.1140  135.1260 O   0  0  0  0  0  1  0  0  0  0  0  0
  180.3920  179.2800  135.9100 C   0  0  2  0  0  3  0  0  0  0  0  0
  181.0300  179.0680  137.2810 C   0  0  2  0  0  0  0  0  0  0  0  0
  181.6000  180.3380  137.8750 C   0  0  0  0  0  1  0  0  0  0  0  0
  182.5800  175.4720  136.7780 C   0  0  0  0  0  2  0  0  0  0  0  0
  182.9580  174.7270  135.5810 N   0  0  0  0  0  0  0  0  0  0  0  0
  182.0700  173.5790  135.5300 C   0  0  0  0  0  2  0  0  0  0  0  0
  182.5310  172.5330  136.5300 C   0  0  0  0  0  2  0  0  0  0  0  0
  180.0540  172.5950  136.8000 C   0  0  0  0  0  1  0  0  0  0  0  0
  181.3400  171.8860  137.1990 C   0  0  0  0  0  2  0  0  0  0  0  0
  184.3050  174.2050  135.7960 C   0  0  0  0  0  2  0  0  0  0  0  0
  185.2370  174.7820  134.7420 C   0  0  0  0  0  2  0  0  0  0  0  0
  186.5100  173.9550  134.6900 C   0  0  0  0  0  2  0  0  0  0  0  0
  186.7420  173.3210  136.0460 C   0  0  0  0  0  2  0  0  0  0  0  0
  187.2920  174.3530  137.0080 C   0  0  0  0  0  2  0  0  0  0  0  0
  188.3010  175.0840  136.3730 O   0  0  0  0  0  0  0  0  0  0  0  0
  188.9800  175.7430  137.4010 C   0  0  2  0  0  3  0  0  0  0  0  0
  188.1200  176.6760  137.9920 O   0  0  0  0  0  0  0  0  0  0  0  0
  187.7120  177.5010  136.9440 C   0  0  0  0  0  1  0  0  0  0  0  0
  190.2140  176.4510  136.8430 C   0  0  2  0  0  3  0  0  0  0  0  0
  190.2460  176.3240  135.4570 O   0  0  0  0  0  1  0  0  0  0  0  0
  192.7200  176.3470  136.9840 O   0  0  0  0  0  0  0  0  0  0  0  0
  191.4110  174.9690  138.2960 O   0  0  0  0  0  1  0  0  0  0  0  0
  191.4750  175.8800  137.4170 C   0  0  0  0  0  0  0  0  0  0  0  0
  181.0120  178.0900  139.8810 O   0  0  0  0  0  0  0  0  0  0  0  0
  180.7360  177.7890  142.1590 O   0  0  0  0  0  0  0  0  0  0  0  0
  181.4160  178.2620  141.2080 C   0  0  0  0  0  0  0  0  0  0  0  0
  184.4910  179.3480  143.2500 C   0  0  2  0  0  3  0  0  0  0  0  0
  183.7780  178.5040  140.5200 C   0  0  0  0  0  2  0  0  0  0  0  0
  182.1670  179.2020  143.8310 O   0  0  0  0  0  1  0  0  0  0  0  0
  182.6980  178.9650  141.5020 C   0  0  2  0  0  3  0  0  0  0  0  0
  185.1050  179.1910  140.8280 C   0  0  2  0  0  3  0  0  0  0  0  0
  183.1310  178.6980  142.9540 C   0  0  1  0  0  3  0  0  0  0  0  0
  186.0750  178.7480  139.9290 O   0  0  0  0  0  1  0  0  0  0  0  0
  185.5410  178.8620  142.2520 C   0  0  0  0  0  2  0  0  0  0  0  0
  184.9230  179.0200  144.6010 N   0  0  0  0  0  0  0  0  0  0  0  0
  189.9870  176.1390  146.7840 C   0  0  0  0  0  2  0  0  0  0  0  0
  188.5490  177.1940  145.4040 C   0  0  1  0  0  3  0  0  0  0  0  0
  186.0800  178.4830  144.8530 C   0  0  0  0  0  0  0  0  0  0  0  0
  186.9430  178.1240  143.8000 O   0  0  0  0  0  0  0  0  0  0  0  0
  188.3030  177.7080  143.9800 C   0  0  2  0  0  3  0  0  0  0  0  0
  188.5270  177.9730  147.8160 C   0  0  1  0  0  3  0  0  0  0  0  0
  189.9130  177.0250  145.6840 O   0  0  0  0  0  0  0  0  0  0  0  0
  187.9730  178.2040  146.3930 C   0  0  2  0  0  3  0  0  0  0  0  0
  187.5700  178.2150  148.8050 O   0  0  0  0  0  1  0  0  0  0  0  0
  186.4560  178.2040  146.2760 C   0  0  0  0  0  2  0  0  0  0  0  0
  189.1470  176.5850  148.0040 C   0  0  0  0  0  2  0  0  0  0  0  0
  191.1580  176.5820  142.5340 C   0  0  0  0  0  2  0  0  0  0  0  0
  190.9410  176.9170  141.0650 C   0  0  2  0  0  3  0  0  0  0  0  0
  188.4850  177.2260  141.4500 C   0  0  0  0  0  2  0  0  0  0  0  0
  189.9260  175.8810  143.1070 C   0  0  0  0  0  2  0  0  0  0  0  0
  192.4030  177.6870  140.4110 Cl  0  0  0  0  0  0  0  0  0  0  0  0
  189.7640  177.8720  140.9240 C   0  0  0  0  0  2  0  0  0  0  0  0
  188.6470  176.6970  142.8780 C   0  0  1  0  0  3  0  0  0  0  0  0
  1  2  1  6  0  0  0
  1 32  1  0  0  0  0
  3 12  1  1  0  0  0
  3  4  1  0  0  0  0
  3  5  1  0  0  0  0
  4  5  1  0  0  0  0
  5  1  1  1  0  0  0
  7  6  1  6  0  0  0
  7 10  1  0  0  0  0
  9  8  1  6  0  0  0
  9  7  1  0  0  0  0
  9 10  1  0  0  0  0
 10  5  1  0  0  0  0
 10 11  1  1  0  0  0
 13 18  1  0  0  0  0
 13 12  1  0  0  0  0
 14 13  1  0  0  0  0
 14 15  1  0  0  0  0
 15 17  1  0  0  0  0
 16 17  1  0  0  0  0
 19 18  1  0  0  0  0
 20 19  1  0  0  0  0
 20 21  1  0  0  0  0
 21 22  1  0  0  0  0
 23 22  1  0  0  0  0
 24 23  1  6  0  0  0
 24 25  1  0  0  0  0
 26 25  1  0  0  0  0
 27 28  1  6  0  0  0
 27 24  1  0  0  0  0
 27 31  1  0  0  0  0
 29 31  2  0  0  0  0
 31 30  1  0  0  0  0
 32 34  1  0  0  0  0
 34 33  2  0  0  0  0
 35 43  1  1  0  0  0
 36 39  1  0  0  0  0
 36 38  1  0  0  0  0
 38 34  1  6  0  0  0
 38 40  1  0  0  0  0
 39 41  1  6  0  0  0
 39 42  1  0  0  0  0
 40 35  1  0  0  0  0
 40 37  1  1  0  0  0
 42 35  1  0  0  0  0
 43 46  2  0  0  0  0
 44 54  1  0  0  0  0
 45 50  1  1  0  0  0
 45 51  1  0  0  0  0
 46 53  1  0  0  0  0
 47 46  1  0  0  0  0
 48 47  1  1  0  0  0
 48 45  1  0  0  0  0
 49 54  1  0  0  0  0
 49 52  1  1  0  0  0
 50 44  1  0  0  0  0
 51 53  1  1  0  0  0
 51 49  1  0  0  0  0
 55 58  1  0  0  0  0
 56 59  1  1  0  0  0
 56 55  1  0  0  0  0
 60 56  1  0  0  0  0
 60 57  1  0  0  0  0
 61 57  1  6  0  0  0
 61 58  1  0  0  0  0
 61 48  1  0  0  0  0
M  END
>  <MODEL>
1

>  <REMARK>
 VINA RESULT:      -6.5      0.000      0.000
  Name = 
  22 active torsions:
  status: ('A' for Active; 'I' for Inactive)
    1  A    between atoms: C_3  and  N_7
    2  A    between atoms: C_3  and  C_16
    3  A    between atoms: C_4  and  N_7
    4  A    between atoms: C_4  and  C_61
    5  A    between atoms: N_5  and  C_15
    6  A    between atoms: N_7  and  C_25
    7  A    between atoms: C_9  and  C_10
    8  A    between atoms: C_9  and  C_18
    9  A    between atoms: C_10  and  C_16
   10  A    between atoms: C_11  and  C_32
   11  A    between atoms: C_11  and  C_42
   12  A    between atoms: C_18  and  O_22
   13  A    between atoms: C_19  and  C_57
   14  A    between atoms: C_20  and  C_25
   15  A    between atoms: O_22  and  C_42
   16  A    between atoms: O_26  and  C_45
   17  A    between atoms: O_26  and  C_60
   18  A    between atoms: C_33  and  C_55
   19  A    between atoms: C_36  and  C_61
   20  A    between atoms: C_37  and  C_60
   21  A    between atoms: C_42  and  O_47
   22  A    between atoms: C_45  and  C_57
                            x       y       z     vdW  Elec       q    Type
                         _______ _______ _______ _____ _____    ______ ____

>  <TORSDO>
F 22

$$$$
=
 OpenBabel10222416073D

 61 66  0  0  1  0  0  0  0  0999 V2000
  187.9930  177.9250  143.6600 C   0  0  1  0  0  3  0  0  0  0  0  0
  187.2390  177.3730  144.8710 C   0  0  0  0  0  1  0  0  0  0  0  0
  189.7720  176.7800  142.0380 C   0  0  2  0  0  3  0  0  0  0  0  0
  189.2210  175.8980  142.9870 O   0  0  0  0  0  0  0  0  0  0  0  0
  189.3610  177.2440  143.4020 C   0  0  2  0  0  0  0  0  0  0  0  0
  190.6920  179.7080  143.8680 O   0  0  0  0  0  1  0  0  0  0  0  0
  191.1030  178.7180  144.7720 C   0  0  2  0  0  3  0  0  0  0  0  0
  192.0300  177.8720  142.6950 O   0  0  0  0  0  1  0  0  0  0  0  0
  191.9040  177.6150  144.0700 C   0  0  2  0  0  3  0  0  0  0  0  0
  190.4570  177.3640  144.4880 C   0  0  2  0  0  0  0  0  0  0  0  0
  190.3360  176.5030  145.7280 C   0  0  0  0  0  1  0  0  0  0  0  0
  188.7430  177.0490  140.9460 C   0  0  0  0  0  2  0  0  0  0  0  0
  189.3920  177.5140  139.7240 N   0  0  0  0  0  0  0  0  0  0  0  0
  188.6090  176.9740  138.6270 C   0  0  0  0  0  2  0  0  0  0  0  0
  188.1130  178.1080  137.7470 C   0  0  0  0  0  2  0  0  0  0  0  0
  186.2130  177.0770  136.5060 C   0  0  0  0  0  1  0  0  0  0  0  0
  187.6490  177.5710  136.4120 C   0  0  0  0  0  2  0  0  0  0  0  0
  190.7050  176.8760  139.6540 C   0  0  0  0  0  2  0  0  0  0  0  0
  190.9030  176.2950  138.2630 C   0  0  0  0  0  2  0  0  0  0  0  0
  192.3180  176.5860  137.7930 C   0  0  0  0  0  2  0  0  0  0  0  0
  193.2910  175.7910  138.6390 C   0  0  0  0  0  2  0  0  0  0  0  0
  194.1200  174.8850  137.7530 C   0  0  0  0  0  2  0  0  0  0  0  0
  194.7650  175.6550  136.7800 O   0  0  0  0  0  0  0  0  0  0  0  0
  194.8490  174.8300  135.6550 C   0  0  2  0  0  3  0  0  0  0  0  0
  194.4120  173.5450  135.9960 O   0  0  0  0  0  0  0  0  0  0  0  0
  193.6080  173.1450  134.9310 C   0  0  0  0  0  1  0  0  0  0  0  0
  196.2910  174.7760  135.1540 C   0  0  2  0  0  3  0  0  0  0  0  0
  196.8820  173.5750  135.5390 O   0  0  0  0  0  1  0  0  0  0  0  0
  196.9850  177.1910  135.1350 O   0  0  0  0  0  0  0  0  0  0  0  0
  197.8920  175.7200  136.6680 O   0  0  0  0  0  1  0  0  0  0  0  0
  197.1000  175.9150  135.6970 C   0  0  0  0  0  0  0  0  0  0  0  0
  187.1950  177.8650  142.4840 O   0  0  0  0  0  0  0  0  0  0  0  0
  187.4410  179.8720  141.3610 O   0  0  0  0  0  0  0  0  0  0  0  0
  186.6770  178.9990  141.8530 C   0  0  0  0  0  0  0  0  0  0  0  0
  183.1380  178.2800  140.5260 C   0  0  2  0  0  3  0  0  0  0  0  0
  184.5200  178.8850  143.0560 C   0  0  0  0  0  2  0  0  0  0  0  0
  185.2430  178.5130  139.3970 O   0  0  0  0  0  1  0  0  0  0  0  0
  185.2000  179.1520  141.7100 C   0  0  2  0  0  3  0  0  0  0  0  0
  183.0050  179.0060  142.9190 C   0  0  2  0  0  3  0  0  0  0  0  0
  184.6680  178.1950  140.6300 C   0  0  1  0  0  3  0  0  0  0  0  0
  182.4060  178.7480  144.1520 O   0  0  0  0  0  1  0  0  0  0  0  0
  182.4960  178.0060  141.8850 C   0  0  0  0  0  2  0  0  0  0  0  0
  182.6440  177.3130  139.5570 N   0  0  0  0  0  0  0  0  0  0  0  0
  178.9330  177.8950  134.5970 C   0  0  0  0  0  2  0  0  0  0  0  0
  180.2840  178.3910  136.3330 C   0  0  1  0  0  3  0  0  0  0  0  0
  181.9360  177.6610  138.5230 C   0  0  0  0  0  0  0  0  0  0  0  0
  181.5520  179.0030  138.3410 O   0  0  0  0  0  0  0  0  0  0  0  0
  180.9420  179.5120  137.1480 C   0  0  2  0  0  3  0  0  0  0  0  0
  180.8560  176.2710  135.0690 C   0  0  1  0  0  3  0  0  0  0  0  0
  179.9080  178.8140  135.0490 O   0  0  0  0  0  0  0  0  0  0  0  0
  181.2770  177.2410  136.1940 C   0  0  2  0  0  3  0  0  0  0  0  0
  181.1430  174.9400  135.3800 O   0  0  0  0  0  1  0  0  0  0  0  0
  181.4920  176.6040  137.5580 C   0  0  0  0  0  2  0  0  0  0  0  0
  179.3860  176.4180  134.6640 C   0  0  0  0  0  2  0  0  0  0  0  0
  179.9250  182.4190  135.7270 C   0  0  0  0  0  2  0  0  0  0  0  0
  180.3250  183.4560  136.7680 C   0  0  2  0  0  3  0  0  0  0  0  0
  180.5810  181.6750  138.5110 C   0  0  0  0  0  2  0  0  0  0  0  0
  179.1810  181.2600  136.3910 C   0  0  0  0  0  2  0  0  0  0  0  0
  181.1450  184.8140  135.9680 Cl  0  0  0  0  0  0  0  0  0  0  0  0
  181.2690  182.8270  137.7840 C   0  0  0  0  0  2  0  0  0  0  0  0
  179.9880  180.6470  137.5420 C   0  0  1  0  0  3  0  0  0  0  0  0
  1  2  1  1  0  0  0
  3 12  1  6  0  0  0
  3  4  1  0  0  0  0
  3  5  1  0  0  0  0
  4  5  1  0  0  0  0
  5  1  1  1  0  0  0
  5 10  1  0  0  0  0
  7  6  1  6  0  0  0
  9  8  1  6  0  0  0
  9 10  1  0  0  0  0
  9  7  1  0  0  0  0
 10  7  1  0  0  0  0
 10 11  1  1  0  0  0
 13 12  1  0  0  0  0
 14 13  1  0  0  0  0
 15 14  1  0  0  0  0
 17 16  1  0  0  0  0
 17 15  1  0  0  0  0
 18 13  1  0  0  0  0
 19 18  1  0  0  0  0
 20 19  1  0  0  0  0
 20 21  1  0  0  0  0
 22 21  1  0  0  0  0
 23 22  1  0  0  0  0
 24 25  1  1  0  0  0
 24 23  1  0  0  0  0
 26 25  1  0  0  0  0
 27 28  1  1  0  0  0
 27 24  1  0  0  0  0
 27 31  1  0  0  0  0
 29 31  2  0  0  0  0
 31 30  1  0  0  0  0
 32  1  1  0  0  0  0
 33 34  2  0  0  0  0
 34 32  1  0  0  0  0
 35 43  1  6  0  0  0
 35 40  1  0  0  0  0
 35 42  1  0  0  0  0
 38 34  1  1  0  0  0
 38 36  1  0  0  0  0
 39 36  1  0  0  0  0
 39 41  1  1  0  0  0
 40 37  1  6  0  0  0
 40 38  1  0  0  0  0
 42 39  1  0  0  0  0
 44 54  1  0  0  0  0
 44 50  1  0  0  0  0
 45 50  1  6  0  0  0
 45 48  1  0  0  0  0
 46 43  2  0  0  0  0
 47 46  1  0  0  0  0
 48 61  1  0  0  0  0
 48 47  1  1  0  0  0
 49 52  1  1  0  0  0
 49 51  1  0  0  0  0
 51 45  1  0  0  0  0
 51 53  1  1  0  0  0
 53 46  1  0  0  0  0
 54 49  1  0  0  0  0
 55 58  1  0  0  0  0
 55 56  1  0  0  0  0
 56 59  1  6  0  0  0
 56 60  1  0  0  0  0
 60 57  1  0  0  0  0
 61 58  1  6  0  0  0
 61 57  1  0  0  0  0
M  END
>  <MODEL>
2

>  <REMARK>
 VINA RESULT:      -6.4      3.224      9.666
  Name = 
  22 active torsions:
  status: ('A' for Active; 'I' for Inactive)
    1  A    between atoms: C_3  and  N_7
    2  A    between atoms: C_3  and  C_16
    3  A    between atoms: C_4  and  N_7
    4  A    between atoms: C_4  and  C_61
    5  A    between atoms: N_5  and  C_15
    6  A    between atoms: N_7  and  C_25
    7  A    between atoms: C_9  and  C_10
    8  A    between atoms: C_9  and  C_18
    9  A    between atoms: C_10  and  C_16
   10  A    between atoms: C_11  and  C_32
   11  A    between atoms: C_11  and  C_42
   12  A    between atoms: C_18  and  O_22
   13  A    between atoms: C_19  and  C_57
   14  A    between atoms: C_20  and  C_25
   15  A    between atoms: O_22  and  C_42
   16  A    between atoms: O_26  and  C_45
   17  A    between atoms: O_26  and  C_60
   18  A    between atoms: C_33  and  C_55
   19  A    between atoms: C_36  and  C_61
   20  A    between atoms: C_37  and  C_60
   21  A    between atoms: C_42  and  O_47
   22  A    between atoms: C_45  and  C_57
                            x       y       z     vdW  Elec       q    Type
                         _______ _______ _______ _____ _____    ______ ____

>  <TORSDO>
F 22

$$$$
=
 OpenBabel10222416073D

 61 66  0  0  1  0  0  0  0  0999 V2000
  189.2080  176.9330  139.2930 C   0  0  1  0  0  3  0  0  0  0  0  0
  189.9510  175.5980  139.2160 C   0  0  0  0  0  1  0  0  0  0  0  0
  188.4330  178.5260  141.2850 C   0  0  2  0  0  3  0  0  0  0  0  0
  189.3260  179.1370  140.3870 O   0  0  0  0  0  0  0  0  0  0  0  0
  189.4990  177.7460  140.5790 C   0  0  2  0  0  0  0  0  0  0  0  0
  189.5990  175.8220  142.6650 O   0  0  0  0  0  1  0  0  0  0  0  0
  190.8620  176.3720  142.4060 C   0  0  2  0  0  3  0  0  0  0  0  0
  189.7030  178.2830  143.3520 O   0  0  0  0  0  1  0  0  0  0  0  0
  190.9270  177.8480  142.8170 C   0  0  2  0  0  3  0  0  0  0  0  0
  190.8170  177.4660  141.3430 C   0  0  2  0  0  0  0  0  0  0  0  0
  192.1250  177.6050  140.5920 C   0  0  0  0  0  1  0  0  0  0  0  0
  187.0560  178.4330  140.6380 C   0  0  0  0  0  2  0  0  0  0  0  0
  186.0620  177.9570  141.5960 N   0  0  0  0  0  0  0  0  0  0  0  0
  184.8830  178.7790  141.3880 C   0  0  0  0  0  2  0  0  0  0  0  0
  183.7380  177.9130  140.8950 C   0  0  0  0  0  2  0  0  0  0  0  0
  181.2590  177.9690  140.6410 C   0  0  0  0  0  1  0  0  0  0  0  0
  182.5460  178.7720  140.5380 C   0  0  0  0  0  2  0  0  0  0  0  0
  186.5580  178.2690  142.9350 C   0  0  0  0  0  2  0  0  0  0  0  0
  185.8090  177.4250  143.9530 C   0  0  0  0  0  2  0  0  0  0  0  0
  185.1680  178.3350  144.9860 C   0  0  0  0  0  2  0  0  0  0  0  0
  185.8410  178.1110  146.3250 C   0  0  0  0  0  2  0  0  0  0  0  0
  186.9760  177.1200  146.1700 C   0  0  0  0  0  2  0  0  0  0  0  0
  188.1900  177.7650  146.4290 O   0  0  0  0  0  0  0  0  0  0  0  0
  188.8430  176.9560  147.3640 C   0  0  2  0  0  3  0  0  0  0  0  0
  188.2760  177.1690  148.6260 O   0  0  0  0  0  0  0  0  0  0  0  0
  188.1960  178.5540  148.7540 C   0  0  0  0  0  1  0  0  0  0  0  0
  190.3320  177.2950  147.3960 C   0  0  2  0  0  3  0  0  0  0  0  0
  190.5910  178.3750  146.5570 O   0  0  0  0  0  1  0  0  0  0  0  0
  192.0020  176.2330  145.8470 O   0  0  0  0  0  0  0  0  0  0  0  0
  191.1090  175.0380  147.6100 O   0  0  0  0  0  1  0  0  0  0  0  0
  191.1660  176.1270  146.9620 C   0  0  0  0  0  0  0  0  0  0  0  0
  189.4690  177.7340  138.1470 O   0  0  0  0  0  0  0  0  0  0  0  0
  191.2700  176.9590  136.9190 O   0  0  0  0  0  0  0  0  0  0  0  0
  190.0400  177.2300  136.9760 C   0  0  0  0  0  0  0  0  0  0  0  0
  187.7200  175.2210  134.6550 C   0  0  2  0  0  3  0  0  0  0  0  0
  187.9920  177.9290  135.7810 C   0  0  0  0  0  2  0  0  0  0  0  0
  189.7740  174.6320  135.7490 O   0  0  0  0  0  1  0  0  0  0  0  0
  189.1730  176.9550  135.7930 C   0  0  2  0  0  3  0  0  0  0  0  0
  187.0780  177.6400  134.5940 C   0  0  2  0  0  3  0  0  0  0  0  0
  188.6800  175.4990  135.8220 C   0  0  1  0  0  3  0  0  0  0  0  0
  186.0040  178.5310  134.6090 O   0  0  0  0  0  1  0  0  0  0  0  0
  186.5550  176.2090  134.6770 C   0  0  0  0  0  2  0  0  0  0  0  0
  187.2020  173.8640  134.7410 N   0  0  0  0  0  0  0  0  0  0  0  0
  181.9510  171.5420  137.1380 C   0  0  0  0  0  2  0  0  0  0  0  0
  183.4920  172.9890  136.3540 C   0  0  1  0  0  3  0  0  0  0  0  0
  186.0190  173.5970  135.2110 C   0  0  0  0  0  0  0  0  0  0  0  0
  185.2110  174.6250  135.7330 O   0  0  0  0  0  0  0  0  0  0  0  0
  183.8340  174.4620  136.0950 C   0  0  2  0  0  3  0  0  0  0  0  0
  183.3900  170.7480  135.1750 C   0  0  1  0  0  3  0  0  0  0  0  0
  182.1100  172.7700  136.4550 O   0  0  0  0  0  0  0  0  0  0  0  0
  184.0330  172.1520  135.1970 C   0  0  2  0  0  3  0  0  0  0  0  0
  184.2920  169.7570  134.7800 O   0  0  0  0  0  1  0  0  0  0  0  0
  185.5530  172.1740  135.2370 C   0  0  0  0  0  2  0  0  0  0  0  0
  182.7270  170.3660  136.5020 C   0  0  0  0  0  2  0  0  0  0  0  0
  181.1510  176.2590  137.1330 C   0  0  0  0  0  2  0  0  0  0  0  0
  181.6970  177.6800  137.1700 C   0  0  2  0  0  3  0  0  0  0  0  0
  184.0520  176.8270  137.1080 C   0  0  0  0  0  2  0  0  0  0  0  0
  182.1100  175.3030  137.8420 C   0  0  0  0  0  2  0  0  0  0  0  0
  180.5440  178.7790  136.3830 Cl  0  0  0  0  0  0  0  0  0  0  0  0
  183.0290  177.7390  136.4360 C   0  0  0  0  0  2  0  0  0  0  0  0
  183.5320  175.3950  137.2750 C   0  0  1  0  0  3  0  0  0  0  0  0
  1  2  1  6  0  0  0
  3 12  1  6  0  0  0
  4  5  1  0  0  0  0
  4  3  1  0  0  0  0
  5  1  1  6  0  0  0
  5  3  1  0  0  0  0
  5 10  1  0  0  0  0
  7  6  1  1  0  0  0
  7  9  1  0  0  0  0
  9  8  1  1  0  0  0
 10 11  1  6  0  0  0
 10  7  1  0  0  0  0
 10  9  1  0  0  0  0
 12 13  1  0  0  0  0
 13 18  1  0  0  0  0
 14 13  1  0  0  0  0
 15 14  1  0  0  0  0
 17 16  1  0  0  0  0
 17 15  1  0  0  0  0
 18 19  1  0  0  0  0
 19 20  1  0  0  0  0
 20 21  1  0  0  0  0
 22 21  1  0  0  0  0
 22 23  1  0  0  0  0
 24 23  1  6  0  0  0
 24 27  1  0  0  0  0
 24 25  1  0  0  0  0
 25 26  1  0  0  0  0
 27 28  1  6  0  0  0
 29 31  2  0  0  0  0
 31 27  1  0  0  0  0
 31 30  1  0  0  0  0
 32  1  1  0  0  0  0
 33 34  2  0  0  0  0
 34 32  1  0  0  0  0
 35 42  1  0  0  0  0
 35 43  1  1  0  0  0
 35 40  1  0  0  0  0
 36 38  1  0  0  0  0
 38 40  1  0  0  0  0
 38 34  1  1  0  0  0
 39 41  1  1  0  0  0
 39 42  1  0  0  0  0
 39 36  1  0  0  0  0
 40 37  1  6  0  0  0
 43 46  2  0  0  0  0
 45 50  1  6  0  0  0
 46 53  1  0  0  0  0
 46 47  1  0  0  0  0
 48 47  1  1  0  0  0
 48 45  1  0  0  0  0
 48 61  1  0  0  0  0
 49 52  1  1  0  0  0
 49 51  1  0  0  0  0
 49 54  1  0  0  0  0
 50 44  1  0  0  0  0
 51 53  1  1  0  0  0
 51 45  1  0  0  0  0
 54 44  1  0  0  0  0
 55 56  1  0  0  0  0
 55 58  1  0  0  0  0
 56 59  1  6  0  0  0
 60 57  1  0  0  0  0
 60 56  1  0  0  0  0
 61 57  1  6  0  0  0
 61 58  1  0  0  0  0
M  END
>  <MODEL>
3

>  <REMARK>
 VINA RESULT:      -5.7      3.018     10.312
  Name = 
  22 active torsions:
  status: ('A' for Active; 'I' for Inactive)
    1  A    between atoms: C_3  and  N_7
    2  A    between atoms: C_3  and  C_16
    3  A    between atoms: C_4  and  N_7
    4  A    between atoms: C_4  and  C_61
    5  A    between atoms: N_5  and  C_15
    6  A    between atoms: N_7  and  C_25
    7  A    between atoms: C_9  and  C_10
    8  A    between atoms: C_9  and  C_18
    9  A    between atoms: C_10  and  C_16
   10  A    between atoms: C_11  and  C_32
   11  A    between atoms: C_11  and  C_42
   12  A    between atoms: C_18  and  O_22
   13  A    between atoms: C_19  and  C_57
   14  A    between atoms: C_20  and  C_25
   15  A    between atoms: O_22  and  C_42
   16  A    between atoms: O_26  and  C_45
   17  A    between atoms: O_26  and  C_60
   18  A    between atoms: C_33  and  C_55
   19  A    between atoms: C_36  and  C_61
   20  A    between atoms: C_37  and  C_60
   21  A    between atoms: C_42  and  O_47
   22  A    between atoms: C_45  and  C_57
                            x       y       z     vdW  Elec       q    Type
                         _______ _______ _______ _____ _____    ______ ____

>  <TORSDO>
F 22

$$$$
=
 OpenBabel10222416073D

 61 66  0  0  1  0  0  0  0  0999 V2000
  191.0810  174.3290  136.4180 C   0  0  1  0  0  3  0  0  0  0  0  0
  191.4640  173.7660  135.0490 C   0  0  0  0  0  1  0  0  0  0  0  0
  191.6400  176.3410  138.0750 C   0  0  2  0  0  3  0  0  0  0  0  0
  191.4310  176.7460  136.7440 O   0  0  0  0  0  0  0  0  0  0  0  0
  192.0080  175.4660  136.9170 C   0  0  2  0  0  0  0  0  0  0  0  0
  193.7730  173.3580  137.6250 O   0  0  0  0  0  1  0  0  0  0  0  0
  194.3900  174.2870  136.7750 C   0  0  2  0  0  3  0  0  0  0  0  0
  194.1220  175.6030  138.7960 O   0  0  0  0  0  1  0  0  0  0  0  0
  194.5990  175.6350  137.4750 C   0  0  2  0  0  3  0  0  0  0  0  0
  193.4830  175.4700  136.4460 C   0  0  2  0  0  0  0  0  0  0  0  0
  193.8080  176.1000  135.1090 C   0  0  0  0  0  1  0  0  0  0  0  0
  190.2970  176.0060  138.7140 C   0  0  0  0  0  2  0  0  0  0  0  0
  190.2230  176.5310  140.0740 N   0  0  0  0  0  0  0  0  0  0  0  0
  189.0490  177.3860  140.1070 C   0  0  0  0  0  2  0  0  0  0  0  0
  188.4790  177.5240  138.7070 C   0  0  0  0  0  2  0  0  0  0  0  0
  188.0410  179.0970  136.8230 C   0  0  0  0  0  1  0  0  0  0  0  0
  188.6410  178.9440  138.2130 C   0  0  0  0  0  2  0  0  0  0  0  0
  191.3790  177.4010  140.2730 C   0  0  0  0  0  2  0  0  0  0  0  0
  192.0180  177.0820  141.6150 C   0  0  0  0  0  2  0  0  0  0  0  0
  191.6430  178.1590  142.6190 C   0  0  0  0  0  2  0  0  0  0  0  0
  191.2380  177.4980  143.9200 C   0  0  0  0  0  2  0  0  0  0  0  0
  189.9940  178.1650  144.4690 C   0  0  0  0  0  2  0  0  0  0  0  0
  189.0640  177.1840  144.8260 O   0  0  0  0  0  0  0  0  0  0  0  0
  188.1660  177.8230  145.6860 C   0  0  2  0  0  3  0  0  0  0  0  0
  188.5250  177.5460  147.0100 O   0  0  0  0  0  0  0  0  0  0  0  0
  189.4090  176.4720  146.9240 C   0  0  0  0  0  1  0  0  0  0  0  0
  186.7450  177.3310  145.4160 C   0  0  2  0  0  3  0  0  0  0  0  0
  186.6230  176.9380  144.0870 O   0  0  0  0  0  1  0  0  0  0  0  0
  185.7320  179.0500  146.9440 O   0  0  0  0  0  1  0  0  0  0  0  0
  184.8770  178.7110  144.8260 O   0  0  0  0  0  0  0  0  0  0  0  0
  185.7340  178.3990  145.7070 C   0  0  0  0  0  0  0  0  0  0  0  0
  189.7280  174.7690  136.4350 O   0  0  0  0  0  0  0  0  0  0  0  0
  188.5510  172.8010  136.7450 O   0  0  0  0  0  0  0  0  0  0  0  0
  188.6460  173.9230  136.1780 C   0  0  0  0  0  0  0  0  0  0  0  0
  185.1410  174.0310  134.5950 C   0  0  2  0  0  3  0  0  0  0  0  0
  187.2650  175.8580  135.5020 C   0  0  0  0  0  2  0  0  0  0  0  0
  186.5720  172.1900  135.1670 O   0  0  0  0  0  1  0  0  0  0  0  0
  187.5600  174.3750  135.2610 C   0  0  2  0  0  3  0  0  0  0  0  0
  186.1330  176.3290  134.5940 C   0  0  2  0  0  3  0  0  0  0  0  0
  186.2960  173.5250  135.4730 C   0  0  1  0  0  3  0  0  0  0  0  0
  185.8730  177.6780  134.8380 O   0  0  0  0  0  1  0  0  0  0  0  0
  184.8740  175.5100  134.8650 C   0  0  0  0  0  2  0  0  0  0  0  0
  183.9310  173.2670  134.8650 N   0  0  0  0  0  0  0  0  0  0  0  0
  179.2800  174.1030  138.9120 C   0  0  0  0  0  2  0  0  0  0  0  0
  181.1050  174.4680  137.6400 C   0  0  1  0  0  3  0  0  0  0  0  0
  183.0260  173.6680  135.7090 C   0  0  0  0  0  0  0  0  0  0  0  0
  183.2230  174.8420  136.4600 O   0  0  0  0  0  0  0  0  0  0  0  0
  182.2120  175.4620  137.2650 C   0  0  2  0  0  3  0  0  0  0  0  0
  179.3060  173.0270  136.5880 C   0  0  1  0  0  3  0  0  0  0  0  0
  179.9860  175.1000  138.2010 O   0  0  0  0  0  0  0  0  0  0  0  0
  180.6640  173.7310  136.3790 C   0  0  2  0  0  3  0  0  0  0  0  0
  179.2350  171.8000  135.9250 O   0  0  0  0  0  1  0  0  0  0  0  0
  181.7980  172.8340  135.9060 C   0  0  0  0  0  2  0  0  0  0  0  0
  178.9360  172.8550  138.0650 C   0  0  0  0  0  2  0  0  0  0  0  0
  181.1600  176.9500  140.1260 C   0  0  0  0  0  2  0  0  0  0  0  0
  181.7600  178.3450  140.0160 C   0  0  2  0  0  3  0  0  0  0  0  0
  183.3410  177.5740  138.2310 C   0  0  0  0  0  2  0  0  0  0  0  0
  182.2190  175.8900  139.8240 C   0  0  0  0  0  2  0  0  0  0  0  0
  180.5240  179.5560  140.4170 Cl  0  0  0  0  0  0  0  0  0  0  0  0
  182.2540  178.5810  138.5950 C   0  0  0  0  0  2  0  0  0  0  0  0
  182.8950  176.1270  138.4670 C   0  0  1  0  0  3  0  0  0  0  0  0
  1  2  1  6  0  0  0
  1 32  1  0  0  0  0
  3 12  1  1  0  0  0
  4  5  1  0  0  0  0
  4  3  1  0  0  0  0
  5  1  1  6  0  0  0
  5  3  1  0  0  0  0
  7  9  1  0  0  0  0
  7  6  1  1  0  0  0
  9  8  1  1  0  0  0
 10 11  1  6  0  0  0
 10  7  1  0  0  0  0
 10  5  1  0  0  0  0
 10  9  1  0  0  0  0
 12 13  1  0  0  0  0
 13 14  1  0  0  0  0
 13 18  1  0  0  0  0
 15 14  1  0  0  0  0
 16 17  1  0  0  0  0
 17 15  1  0  0  0  0
 18 19  1  0  0  0  0
 19 20  1  0  0  0  0
 20 21  1  0  0  0  0
 21 22  1  0  0  0  0
 22 23  1  0  0  0  0
 24 23  1  6  0  0  0
 24 25  1  0  0  0  0
 26 25  1  0  0  0  0
 27 28  1  6  0  0  0
 27 24  1  0  0  0  0
 27 31  1  0  0  0  0
 30 31  2  0  0  0  0
 31 29  1  0  0  0  0
 34 32  1  0  0  0  0
 34 33  2  0  0  0  0
 35 42  1  0  0  0  0
 35 43  1  1  0  0  0
 35 40  1  0  0  0  0
 38 40  1  0  0  0  0
 38 36  1  0  0  0  0
 38 34  1  1  0  0  0
 39 41  1  1  0  0  0
 39 42  1  0  0  0  0
 39 36  1  0  0  0  0
 40 37  1  6  0  0  0
 43 46  2  0  0  0  0
 45 50  1  6  0  0  0
 46 53  1  0  0  0  0
 46 47  1  0  0  0  0
 48 47  1  1  0  0  0
 48 45  1  0  0  0  0
 48 61  1  0  0  0  0
 49 52  1  1  0  0  0
 49 54  1  0  0  0  0
 50 44  1  0  0  0  0
 51 53  1  1  0  0  0
 51 49  1  0  0  0  0
 51 45  1  0  0  0  0
 54 44  1  0  0  0  0
 56 55  1  0  0  0  0
 56 59  1  6  0  0  0
 57 60  1  0  0  0  0
 58 55  1  0  0  0  0
 60 56  1  0  0  0  0
 61 57  1  6  0  0  0
 61 58  1  0  0  0  0
M  END
>  <MODEL>
4

>  <REMARK>
 VINA RESULT:      -5.6      2.799     10.723
  Name = 
  22 active torsions:
  status: ('A' for Active; 'I' for Inactive)
    1  A    between atoms: C_3  and  N_7
    2  A    between atoms: C_3  and  C_16
    3  A    between atoms: C_4  and  N_7
    4  A    between atoms: C_4  and  C_61
    5  A    between atoms: N_5  and  C_15
    6  A    between atoms: N_7  and  C_25
    7  A    between atoms: C_9  and  C_10
    8  A    between atoms: C_9  and  C_18
    9  A    between atoms: C_10  and  C_16
   10  A    between atoms: C_11  and  C_32
   11  A    between atoms: C_11  and  C_42
   12  A    between atoms: C_18  and  O_22
   13  A    between atoms: C_19  and  C_57
   14  A    between atoms: C_20  and  C_25
   15  A    between atoms: O_22  and  C_42
   16  A    between atoms: O_26  and  C_45
   17  A    between atoms: O_26  and  C_60
   18  A    between atoms: C_33  and  C_55
   19  A    between atoms: C_36  and  C_61
   20  A    between atoms: C_37  and  C_60
   21  A    between atoms: C_42  and  O_47
   22  A    between atoms: C_45  and  C_57
                            x       y       z     vdW  Elec       q    Type
                         _______ _______ _______ _____ _____    ______ ____

>  <TORSDO>
F 22

$$$$
=
 OpenBabel10222416073D

 61 66  0  0  1  0  0  0  0  0999 V2000
  190.1350  176.5440  145.0010 C   0  0  1  0  0  3  0  0  0  0  0  0
  191.5930  176.3600  145.4230 C   0  0  0  0  0  1  0  0  0  0  0  0
  188.0340  178.1050  145.5080 C   0  0  2  0  0  3  0  0  0  0  0  0
  189.2590  178.7970  145.4780 O   0  0  0  0  0  0  0  0  0  0  0  0
  189.3150  177.4620  145.9430 C   0  0  2  0  0  0  0  0  0  0  0  0
  187.5630  176.1820  147.7740 O   0  0  0  0  0  1  0  0  0  0  0  0
  188.7130  176.6680  148.4110 C   0  0  2  0  0  3  0  0  0  0  0  0
  187.6020  178.7380  147.8020 O   0  0  0  0  0  1  0  0  0  0  0  0
  188.7400  178.2010  148.4280 C   0  0  2  0  0  3  0  0  0  0  0  0
  189.6310  177.4290  147.4580 C   0  0  2  0  0  0  0  0  0  0  0  0
  191.0830  177.3870  147.8880 C   0  0  0  0  0  1  0  0  0  0  0  0
  187.6140  177.7670  144.0820 C   0  0  0  0  0  2  0  0  0  0  0  0
  186.3900  178.4760  143.7190 N   0  0  0  0  0  0  0  0  0  0  0  0
  185.4840  178.3060  144.8400 C   0  0  0  0  0  2  0  0  0  0  0  0
  184.4740  179.4400  144.8560 C   0  0  0  0  0  2  0  0  0  0  0  0
  182.2610  178.7590  143.9320 C   0  0  0  0  0  1  0  0  0  0  0  0
  183.0980  178.9110  145.1930 C   0  0  0  0  0  2  0  0  0  0  0  0
  185.7940  177.7690  142.5880 C   0  0  0  0  0  2  0  0  0  0  0  0
  185.8590  178.6560  141.3550 C   0  0  0  0  0  2  0  0  0  0  0  0
  184.5150  179.3340  141.1510 C   0  0  0  0  0  2  0  0  0  0  0  0
  183.8440  178.7370  139.9310 C   0  0  0  0  0  2  0  0  0  0  0  0
  182.9820  179.7830  139.2560 C   0  0  0  0  0  2  0  0  0  0  0  0
  181.6640  179.6570  139.7050 O   0  0  0  0  0  0  0  0  0  0  0  0
  180.9400  179.2020  138.5990 C   0  0  2  0  0  3  0  0  0  0  0  0
  179.9730  180.1560  138.2630 O   0  0  0  0  0  0  0  0  0  0  0  0
  180.1800  181.2060  139.1570 C   0  0  0  0  0  1  0  0  0  0  0  0
  180.2680  177.8700  138.9270 C   0  0  2  0  0  3  0  0  0  0  0  0
  180.6600  177.4390  140.1910 O   0  0  0  0  0  1  0  0  0  0  0  0
  180.4480  177.0630  136.5540 O   0  0  0  0  0  0  0  0  0  0  0  0
  181.0820  175.7020  138.3090 O   0  0  0  0  0  1  0  0  0  0  0  0
  180.6230  176.8180  137.9190 C   0  0  0  0  0  0  0  0  0  0  0  0
  190.0410  177.0190  143.6640 O   0  0  0  0  0  0  0  0  0  0  0  0
  192.2370  177.6240  143.2580 O   0  0  0  0  0  0  0  0  0  0  0  0
  191.1480  177.1600  142.8240 C   0  0  0  0  0  0  0  0  0  0  0  0
  189.6720  176.7900  139.2900 C   0  0  2  0  0  3  0  0  0  0  0  0
  192.2630  177.2260  140.6180 C   0  0  0  0  0  2  0  0  0  0  0  0
  188.6610  176.6230  141.4610 O   0  0  0  0  0  1  0  0  0  0  0  0
  191.0600  176.7020  141.4060 C   0  0  2  0  0  3  0  0  0  0  0  0
  192.1720  176.7940  139.1580 C   0  0  2  0  0  3  0  0  0  0  0  0
  189.7420  177.1820  140.7740 C   0  0  1  0  0  3  0  0  0  0  0  0
  193.2710  177.2910  138.4580 O   0  0  0  0  0  1  0  0  0  0  0  0
  190.8850  177.3310  138.5380 C   0  0  0  0  0  2  0  0  0  0  0  0
  188.4560  177.3180  138.6870 N   0  0  0  0  0  0  0  0  0  0  0  0
  184.4230  174.8980  134.6140 C   0  0  0  0  0  2  0  0  0  0  0  0
  186.0940  175.0970  136.1160 C   0  0  1  0  0  3  0  0  0  0  0  0
  187.6950  176.6040  137.9110 C   0  0  0  0  0  0  0  0  0  0  0  0
  188.0660  175.2910  137.5610 O   0  0  0  0  0  0  0  0  0  0  0  0
  187.2090  174.3680  136.8750 C   0  0  2  0  0  3  0  0  0  0  0  0
  184.0800  176.5840  136.5110 C   0  0  1  0  0  3  0  0  0  0  0  0
  185.1000  174.2200  135.6540 O   0  0  0  0  0  0  0  0  0  0  0  0
  185.4460  176.1120  137.0540 C   0  0  2  0  0  3  0  0  0  0  0  0
  183.8420  177.9350  136.7750 O   0  0  0  0  0  1  0  0  0  0  0  0
  186.4470  177.2170  137.3550 C   0  0  0  0  0  2  0  0  0  0  0  0
  183.8900  176.2920  135.0190 C   0  0  0  0  0  2  0  0  0  0  0  0
  190.5280  173.7080  136.6310 C   0  0  0  0  0  2  0  0  0  0  0  0
  190.8340  174.0770  135.1860 C   0  0  2  0  0  3  0  0  0  0  0  0
  188.3970  174.0300  134.6080 C   0  0  0  0  0  2  0  0  0  0  0  0
  189.2850  172.8210  136.7010 C   0  0  0  0  0  2  0  0  0  0  0  0
  192.3080  175.0670  135.1260 Cl  0  0  0  0  0  0  0  0  0  0  0  0
  189.6740  174.8670  134.5990 C   0  0  0  0  0  2  0  0  0  0  0  0
  188.0830  173.4640  135.9960 C   0  0  1  0  0  3  0  0  0  0  0  0
  1  2  1  1  0  0  0
  3 12  1  6  0  0  0
  3  5  1  0  0  0  0
  4  3  1  0  0  0  0
  4  5  1  0  0  0  0
  5  1  1  6  0  0  0
  5 10  1  0  0  0  0
  7  6  1  6  0  0  0
  7  9  1  0  0  0  0
  9  8  1  6  0  0  0
 10 11  1  1  0  0  0
 10  7  1  0  0  0  0
 10  9  1  0  0  0  0
 13 12  1  0  0  0  0
 13 14  1  0  0  0  0
 14 15  1  0  0  0  0
 15 17  1  0  0  0  0
 16 17  1  0  0  0  0
 18 13  1  0  0  0  0
 19 18  1  0  0  0  0
 20 19  1  0  0  0  0
 21 20  1  0  0  0  0
 22 23  1  0  0  0  0
 22 21  1  0  0  0  0
 24 25  1  1  0  0  0
 24 27  1  0  0  0  0
 24 23  1  0  0  0  0
 25 26  1  0  0  0  0
 27 28  1  1  0  0  0
 29 31  2  0  0  0  0
 31 30  1  0  0  0  0
 31 27  1  0  0  0  0
 32  1  1  0  0  0  0
 34 33  2  0  0  0  0
 34 32  1  0  0  0  0
 35 43  1  6  0  0  0
 35 40  1  0  0  0  0
 36 38  1  0  0  0  0
 38 34  1  1  0  0  0
 39 41  1  6  0  0  0
 39 36  1  0  0  0  0
 40 38  1  0  0  0  0
 40 37  1  1  0  0  0
 42 39  1  0  0  0  0
 42 35  1  0  0  0  0
 44 54  1  0  0  0  0
 44 50  1  0  0  0  0
 45 50  1  1  0  0  0
 45 48  1  0  0  0  0
 45 51  1  0  0  0  0
 46 43  2  0  0  0  0
 47 46  1  0  0  0  0
 48 47  1  6  0  0  0
 49 52  1  6  0  0  0
 49 51  1  0  0  0  0
 51 53  1  6  0  0  0
 53 46  1  0  0  0  0
 54 49  1  0  0  0  0
 55 58  1  0  0  0  0
 56 59  1  1  0  0  0
 56 55  1  0  0  0  0
 60 57  1  0  0  0  0
 60 56  1  0  0  0  0
 61 57  1  6  0  0  0
 61 58  1  0  0  0  0
 61 48  1  0  0  0  0
M  END
>  <MODEL>
5

>  <REMARK>
 VINA RESULT:      -5.2      2.281     10.012
  Name = 
  22 active torsions:
  status: ('A' for Active; 'I' for Inactive)
    1  A    between atoms: C_3  and  N_7
    2  A    between atoms: C_3  and  C_16
    3  A    between atoms: C_4  and  N_7
    4  A    between atoms: C_4  and  C_61
    5  A    between atoms: N_5  and  C_15
    6  A    between atoms: N_7  and  C_25
    7  A    between atoms: C_9  and  C_10
    8  A    between atoms: C_9  and  C_18
    9  A    between atoms: C_10  and  C_16
   10  A    between atoms: C_11  and  C_32
   11  A    between atoms: C_11  and  C_42
   12  A    between atoms: C_18  and  O_22
   13  A    between atoms: C_19  and  C_57
   14  A    between atoms: C_20  and  C_25
   15  A    between atoms: O_22  and  C_42
   16  A    between atoms: O_26  and  C_45
   17  A    between atoms: O_26  and  C_60
   18  A    between atoms: C_33  and  C_55
   19  A    between atoms: C_36  and  C_61
   20  A    between atoms: C_37  and  C_60
   21  A    between atoms: C_42  and  O_47
   22  A    between atoms: C_45  and  C_57
                            x       y       z     vdW  Elec       q    Type
                         _______ _______ _______ _____ _____    ______ ____

>  <TORSDO>
F 22

$$$$
=
 OpenBabel10222416073D

 61 66  0  0  1  0  0  0  0  0999 V2000
  181.7450  177.2690  138.4720 C   0  0  1  0  0  3  0  0  0  0  0  0
  181.2200  175.8850  138.8560 C   0  0  0  0  0  1  0  0  0  0  0  0
  182.3260  177.3820  135.8730 C   0  0  2  0  0  3  0  0  0  0  0  0
  182.3340  178.6370  136.5090 O   0  0  0  0  0  0  0  0  0  0  0  0
  181.4120  177.6920  137.0180 C   0  0  2  0  0  0  0  0  0  0  0  0
  180.8400  180.3040  136.0660 O   0  0  0  0  0  1  0  0  0  0  0  0
  179.6900  179.5050  136.1090 C   0  0  2  0  0  3  0  0  0  0  0  0
  180.1640  179.7750  138.4740 O   0  0  0  0  0  1  0  0  0  0  0  0
  179.2820  179.1850  137.5520 C   0  0  2  0  0  3  0  0  0  0  0  0
  179.9610  178.1210  136.6930 C   0  0  2  0  0  0  0  0  0  0  0  0
  179.0000  177.0710  136.1770 C   0  0  0  0  0  1  0  0  0  0  0  0
  183.5840  176.6140  136.2620 C   0  0  0  0  0  2  0  0  0  0  0  0
  184.3130  176.1750  135.0760 N   0  0  0  0  0  0  0  0  0  0  0  0
  184.3820  174.7270  135.1640 C   0  0  0  0  0  2  0  0  0  0  0  0
  183.0470  174.1810  135.6370 C   0  0  0  0  0  2  0  0  0  0  0  0
  184.7200  173.1600  137.1770 C   0  0  0  0  0  1  0  0  0  0  0  0
  183.2510  173.2180  136.7850 C   0  0  0  0  0  2  0  0  0  0  0  0
  185.6830  176.6680  135.1960 C   0  0  0  0  0  2  0  0  0  0  0  0
  185.8290  177.4200  136.5090 C   0  0  0  0  0  2  0  0  0  0  0  0
  187.0600  178.3070  136.4460 C   0  0  0  0  0  2  0  0  0  0  0  0
  187.8770  177.9290  135.2280 C   0  0  0  0  0  2  0  0  0  0  0  0
  189.2330  177.4090  135.6590 C   0  0  0  0  0  2  0  0  0  0  0  0
  189.0990  176.0920  136.1120 O   0  0  0  0  0  0  0  0  0  0  0  0
  190.3750  175.7220  136.5480 C   0  0  2  0  0  3  0  0  0  0  0  0
  191.1960  175.5170  135.4340 O   0  0  0  0  0  0  0  0  0  0  0  0
  192.2440  176.4230  135.5890 C   0  0  0  0  0  1  0  0  0  0  0  0
  190.2910  174.4430  137.3780 C   0  0  2  0  0  3  0  0  0  0  0  0
  191.3810  173.6230  137.0970 O   0  0  0  0  0  1  0  0  0  0  0  0
  189.0360  172.5980  136.2220 O   0  0  0  0  0  0  0  0  0  0  0  0
  187.9420  174.0500  137.6460 O   0  0  0  0  0  1  0  0  0  0  0  0
  189.0260  173.6910  137.0940 C   0  0  0  0  0  0  0  0  0  0  0  0
  181.2860  178.2650  139.3790 O   0  0  0  0  0  0  0  0  0  0  0  0
  180.9720  177.7550  141.6140 O   0  0  0  0  0  0  0  0  0  0  0  0
  181.6700  178.3090  140.7220 C   0  0  0  0  0  0  0  0  0  0  0  0
  184.6300  179.3120  142.9660 C   0  0  2  0  0  3  0  0  0  0  0  0
  184.0800  178.4690  140.1980 C   0  0  0  0  0  2  0  0  0  0  0  0
  182.2670  179.2460  143.3850 O   0  0  0  0  0  1  0  0  0  0  0  0
  182.9510  178.9730  141.1010 C   0  0  2  0  0  3  0  0  0  0  0  0
  185.4050  179.1150  140.5930 C   0  0  2  0  0  3  0  0  0  0  0  0
  183.2730  178.7040  142.5800 C   0  0  1  0  0  3  0  0  0  0  0  0
  186.4200  178.6340  139.7670 O   0  0  0  0  0  1  0  0  0  0  0  0
  185.7300  178.7840  142.0470 C   0  0  0  0  0  2  0  0  0  0  0  0
  184.9560  178.9810  144.3460 N   0  0  0  0  0  0  0  0  0  0  0  0
  189.8520  176.1250  146.9110 C   0  0  0  0  0  2  0  0  0  0  0  0
  188.5200  177.1760  145.4260 C   0  0  1  0  0  3  0  0  0  0  0  0
  186.0930  178.4510  144.6860 C   0  0  0  0  0  0  0  0  0  0  0  0
  187.0400  178.1020  143.7040 O   0  0  0  0  0  0  0  0  0  0  0  0
  188.3840  177.6940  143.9890 C   0  0  2  0  0  3  0  0  0  0  0  0
  188.3030  177.9450  147.8310 C   0  0  1  0  0  3  0  0  0  0  0  0
  189.8590  177.0140  145.8120 O   0  0  0  0  0  0  0  0  0  0  0  0
  187.8610  178.1780  146.3700 C   0  0  2  0  0  3  0  0  0  0  0  0
  187.2690  178.1760  148.7420 O   0  0  0  0  0  1  0  0  0  0  0  0
  186.3580  178.1690  146.1330 C   0  0  0  0  0  2  0  0  0  0  0  0
  188.9160  176.5600  148.0630 C   0  0  0  0  0  2  0  0  0  0  0  0
  191.3460  176.6840  142.6810 C   0  0  0  0  0  2  0  0  0  0  0  0
  191.1800  176.9970  141.2010 C   0  0  2  0  0  3  0  0  0  0  0  0
  188.6980  177.1990  141.4740 C   0  0  0  0  0  2  0  0  0  0  0  0
  190.1220  175.9330  143.2070 C   0  0  0  0  0  2  0  0  0  0  0  0
  192.6340  177.8250  140.6020 Cl  0  0  0  0  0  0  0  0  0  0  0  0
  189.9690  177.8960  140.9980 C   0  0  0  0  0  2  0  0  0  0  0  0
  188.8200  176.6890  142.9140 C   0  0  1  0  0  3  0  0  0  0  0  0
  1  2  1  1  0  0  0
  1 32  1  0  0  0  0
  3 12  1  1  0  0  0
  3  4  1  0  0  0  0
  3  5  1  0  0  0  0
  4  5  1  0  0  0  0
  5  1  1  1  0  0  0
  7  6  1  1  0  0  0
  7 10  1  0  0  0  0
  7  9  1  0  0  0  0
  9  8  1  1  0  0  0
 10 11  1  6  0  0  0
 10  5  1  0  0  0  0
 10  9  1  0  0  0  0
 13 14  1  0  0  0  0
 13 18  1  0  0  0  0
 13 12  1  0  0  0  0
 14 15  1  0  0  0  0
 15 17  1  0  0  0  0
 17 16  1  0  0  0  0
 18 19  1  0  0  0  0
 20 19  1  0  0  0  0
 21 22  1  0  0  0  0
 21 20  1  0  0  0  0
 22 23  1  0  0  0  0
 23 24  1  0  0  0  0
 24 25  1  6  0  0  0
 24 27  1  0  0  0  0
 25 26  1  0  0  0  0
 27 28  1  6  0  0  0
 29 31  2  0  0  0  0
 31 27  1  0  0  0  0
 31 30  1  0  0  0  0
 32 34  1  0  0  0  0
 34 33  2  0  0  0  0
 35 43  1  1  0  0  0
 36 39  1  0  0  0  0
 36 38  1  0  0  0  0
 38 34  1  6  0  0  0
 38 40  1  0  0  0  0
 39 41  1  6  0  0  0
 39 42  1  0  0  0  0
 40 35  1  0  0  0  0
 40 37  1  1  0  0  0
 42 35  1  0  0  0  0
 43 46  2  0  0  0  0
 44 54  1  0  0  0  0
 45 50  1  1  0  0  0
 45 51  1  0  0  0  0
 46 53  1  0  0  0  0
 47 46  1  0  0  0  0
 48 47  1  6  0  0  0
 48 45  1  0  0  0  0
 49 54  1  0  0  0  0
 49 52  1  1  0  0  0
 50 44  1  0  0  0  0
 51 53  1  1  0  0  0
 51 49  1  0  0  0  0
 55 58  1  0  0  0  0
 56 59  1  1  0  0  0
 56 55  1  0  0  0  0
 60 56  1  0  0  0  0
 60 57  1  0  0  0  0
 61 57  1  6  0  0  0
 61 58  1  0  0  0  0
 61 48  1  0  0  0  0
M  END
>  <MODEL>
6

>  <REMARK>
 VINA RESULT:      -5.1      1.238      2.207
  Name = 
  22 active torsions:
  status: ('A' for Active; 'I' for Inactive)
    1  A    between atoms: C_3  and  N_7
    2  A    between atoms: C_3  and  C_16
    3  A    between atoms: C_4  and  N_7
    4  A    between atoms: C_4  and  C_61
    5  A    between atoms: N_5  and  C_15
    6  A    between atoms: N_7  and  C_25
    7  A    between atoms: C_9  and  C_10
    8  A    between atoms: C_9  and  C_18
    9  A    between atoms: C_10  and  C_16
   10  A    between atoms: C_11  and  C_32
   11  A    between atoms: C_11  and  C_42
   12  A    between atoms: C_18  and  O_22
   13  A    between atoms: C_19  and  C_57
   14  A    between atoms: C_20  and  C_25
   15  A    between atoms: O_22  and  C_42
   16  A    between atoms: O_26  and  C_45
   17  A    between atoms: O_26  and  C_60
   18  A    between atoms: C_33  and  C_55
   19  A    between atoms: C_36  and  C_61
   20  A    between atoms: C_37  and  C_60
   21  A    between atoms: C_42  and  O_47
   22  A    between atoms: C_45  and  C_57
                            x       y       z     vdW  Elec       q    Type
                         _______ _______ _______ _____ _____    ______ ____

>  <TORSDO>
F 22

$$$$
=
 OpenBabel10222416073D

 61 66  0  0  1  0  0  0  0  0999 V2000
  181.7730  177.3990  138.4470 C   0  0  1  0  0  3  0  0  0  0  0  0
  181.2820  175.9840  138.7560 C   0  0  0  0  0  1  0  0  0  0  0  0
  182.4640  177.6400  135.8840 C   0  0  2  0  0  3  0  0  0  0  0  0
  182.3900  178.8680  136.5670 O   0  0  0  0  0  0  0  0  0  0  0  0
  181.4880  177.8660  136.9970 C   0  0  2  0  0  0  0  0  0  0  0  0
  179.4420  175.9000  136.8820 O   0  0  0  0  0  1  0  0  0  0  0  0
  178.9390  177.1870  136.6420 C   0  0  2  0  0  3  0  0  0  0  0  0
  180.2830  176.8280  134.6540 O   0  0  0  0  0  1  0  0  0  0  0  0
  179.4430  177.7460  135.3060 C   0  0  2  0  0  3  0  0  0  0  0  0
  180.0350  178.2480  136.6210 C   0  0  2  0  0  0  0  0  0  0  0  0
  179.5290  179.6190  137.0170 C   0  0  0  0  0  1  0  0  0  0  0  0
  183.7350  176.9090  136.3010 C   0  0  0  0  0  2  0  0  0  0  0  0
  184.5250  176.5310  135.1330 N   0  0  0  0  0  0  0  0  0  0  0  0
  184.3550  175.0960  134.9850 C   0  0  0  0  0  2  0  0  0  0  0  0
  184.4350  174.4300  136.3470 C   0  0  0  0  0  2  0  0  0  0  0  0
  184.6110  171.9920  136.8360 C   0  0  0  0  0  1  0  0  0  0  0  0
  183.7080  173.1050  136.3260 C   0  0  0  0  0  2  0  0  0  0  0  0
  185.9310  176.7540  135.4640 C   0  0  0  0  0  2  0  0  0  0  0  0
  186.3140  175.8650  136.6360 C   0  0  0  0  0  2  0  0  0  0  0  0
  187.7080  176.2350  137.1130 C   0  0  0  0  0  2  0  0  0  0  0  0
  188.3770  177.0910  136.0580 C   0  0  0  0  0  2  0  0  0  0  0  0
  189.8400  176.7160  135.9450 C   0  0  0  0  0  2  0  0  0  0  0  0
  190.0180  175.4060  136.4000 O   0  0  0  0  0  0  0  0  0  0  0  0
  191.3840  175.1480  136.2530 C   0  0  2  0  0  3  0  0  0  0  0  0
  191.5490  173.8780  135.6870 O   0  0  0  0  0  0  0  0  0  0  0  0
  190.4500  173.7150  134.8450 C   0  0  0  0  0  1  0  0  0  0  0  0
  192.0760  175.2070  137.6130 C   0  0  2  0  0  3  0  0  0  0  0  0
  191.1380  175.4470  138.6130 O   0  0  0  0  0  1  0  0  0  0  0  0
  193.4560  176.8980  138.8580 O   0  0  0  0  0  1  0  0  0  0  0  0
  193.6890  176.6430  136.5750 O   0  0  0  0  0  0  0  0  0  0  0  0
  193.1170  176.2850  137.6480 C   0  0  0  0  0  0  0  0  0  0  0  0
  181.2400  178.3430  139.3690 O   0  0  0  0  0  0  0  0  0  0  0  0
  180.7460  177.8500  141.5750 O   0  0  0  0  0  0  0  0  0  0  0  0
  181.5480  178.3360  140.7320 C   0  0  0  0  0  0  0  0  0  0  0  0
  184.5490  178.8490  143.0860 C   0  0  2  0  0  3  0  0  0  0  0  0
  183.9690  178.3970  140.2340 C   0  0  0  0  0  2  0  0  0  0  0  0
  182.1830  178.8920  143.4920 O   0  0  0  0  0  1  0  0  0  0  0  0
  182.8670  178.8600  141.1910 C   0  0  2  0  0  3  0  0  0  0  0  0
  185.3300  178.8980  140.7070 C   0  0  2  0  0  3  0  0  0  0  0  0
  183.1570  178.3870  142.6260 C   0  0  1  0  0  3  0  0  0  0  0  0
  186.3180  178.4560  139.8280 O   0  0  0  0  0  1  0  0  0  0  0  0
  185.6190  178.3670  142.1080 C   0  0  0  0  0  2  0  0  0  0  0  0
  184.8390  178.3280  144.4130 N   0  0  0  0  0  0  0  0  0  0  0  0
  190.1460  176.5560  147.1350 C   0  0  0  0  0  2  0  0  0  0  0  0
  188.6840  177.4700  145.6820 C   0  0  1  0  0  3  0  0  0  0  0  0
  186.0520  178.0980  144.8230 C   0  0  0  0  0  0  0  0  0  0  0  0
  187.1440  178.2770  143.9520 O   0  0  0  0  0  0  0  0  0  0  0  0
  188.5170  178.2350  144.3630 C   0  0  2  0  0  3  0  0  0  0  0  0
  188.0150  177.5760  148.1240 C   0  0  1  0  0  3  0  0  0  0  0  0
  189.9630  177.6320  146.2350 O   0  0  0  0  0  0  0  0  0  0  0  0
  187.6540  177.9910  146.6810 C   0  0  2  0  0  3  0  0  0  0  0  0
  186.8860  177.2780  148.8900 O   0  0  0  0  0  1  0  0  0  0  0  0
  186.2630  177.5880  146.2150 C   0  0  0  0  0  2  0  0  0  0  0  0
  189.0210  176.4210  148.1870 C   0  0  0  0  0  2  0  0  0  0  0  0
  189.9830  175.2600  143.6500 C   0  0  0  0  0  2  0  0  0  0  0  0
  191.4450  175.6430  143.4760 C   0  0  2  0  0  3  0  0  0  0  0  0
  190.8310  178.0600  143.2310 C   0  0  0  0  0  2  0  0  0  0  0  0
  189.0860  176.2050  142.8500 C   0  0  0  0  0  2  0  0  0  0  0  0
  192.4690  174.5030  144.3760 Cl  0  0  0  0  0  0  0  0  0  0  0  0
  191.6750  177.0510  144.0060 C   0  0  0  0  0  2  0  0  0  0  0  0
  189.3490  177.6750  143.2010 C   0  0  1  0  0  3  0  0  0  0  0  0
  1  2  1  1  0  0  0
  1 32  1  0  0  0  0
  3 12  1  1  0  0  0
  3  4  1  0  0  0  0
  3  5  1  0  0  0  0
  4  5  1  0  0  0  0
  5  1  1  1  0  0  0
  7  6  1  6  0  0  0
  9  8  1  6  0  0  0
  9 10  1  0  0  0  0
  9  7  1  0  0  0  0
 10  7  1  0  0  0  0
 10  5  1  0  0  0  0
 10 11  1  1  0  0  0
 13 18  1  0  0  0  0
 13 12  1  0  0  0  0
 14 13  1  0  0  0  0
 14 15  1  0  0  0  0
 17 15  1  0  0  0  0
 17 16  1  0  0  0  0
 18 19  1  0  0  0  0
 19 20  1  0  0  0  0
 21 20  1  0  0  0  0
 22 21  1  0  0  0  0
 22 23  1  0  0  0  0
 24 25  1  1  0  0  0
 24 23  1  0  0  0  0
 24 27  1  0  0  0  0
 26 25  1  0  0  0  0
 27 31  1  0  0  0  0
 27 28  1  1  0  0  0
 30 31  2  0  0  0  0
 31 29  1  0  0  0  0
 32 34  1  0  0  0  0
 34 33  2  0  0  0  0
 35 43  1  1  0  0  0
 36 39  1  0  0  0  0
 36 38  1  0  0  0  0
 38 34  1  6  0  0  0
 38 40  1  0  0  0  0
 39 41  1  6  0  0  0
 39 42  1  0  0  0  0
 40 35  1  0  0  0  0
 40 37  1  1  0  0  0
 42 35  1  0  0  0  0
 43 46  2  0  0  0  0
 44 54  1  0  0  0  0
 45 50  1  1  0  0  0
 45 51  1  0  0  0  0
 46 53  1  0  0  0  0
 47 46  1  0  0  0  0
 48 47  1  6  0  0  0
 48 45  1  0  0  0  0
 49 54  1  0  0  0  0
 49 52  1  6  0  0  0
 50 44  1  0  0  0  0
 51 53  1  6  0  0  0
 51 49  1  0  0  0  0
 56 55  1  0  0  0  0
 56 60  1  0  0  0  0
 56 59  1  1  0  0  0
 57 60  1  0  0  0  0
 58 55  1  0  0  0  0
 61 58  1  1  0  0  0
 61 57  1  0  0  0  0
 61 48  1  0  0  0  0
M  END
>  <MODEL>
7

>  <REMARK>
 VINA RESULT:      -5.1      1.535      2.236
  Name = 
  22 active torsions:
  status: ('A' for Active; 'I' for Inactive)
    1  A    between atoms: C_3  and  N_7
    2  A    between atoms: C_3  and  C_16
    3  A    between atoms: C_4  and  N_7
    4  A    between atoms: C_4  and  C_61
    5  A    between atoms: N_5  and  C_15
    6  A    between atoms: N_7  and  C_25
    7  A    between atoms: C_9  and  C_10
    8  A    between atoms: C_9  and  C_18
    9  A    between atoms: C_10  and  C_16
   10  A    between atoms: C_11  and  C_32
   11  A    between atoms: C_11  and  C_42
   12  A    between atoms: C_18  and  O_22
   13  A    between atoms: C_19  and  C_57
   14  A    between atoms: C_20  and  C_25
   15  A    between atoms: O_22  and  C_42
   16  A    between atoms: O_26  and  C_45
   17  A    between atoms: O_26  and  C_60
   18  A    between atoms: C_33  and  C_55
   19  A    between atoms: C_36  and  C_61
   20  A    between atoms: C_37  and  C_60
   21  A    between atoms: C_42  and  O_47
   22  A    between atoms: C_45  and  C_57
                            x       y       z     vdW  Elec       q    Type
                         _______ _______ _______ _____ _____    ______ ____

>  <TORSDO>
F 22

$$$$
=
 OpenBabel10222416073D

 61 66  0  0  1  0  0  0  0  0999 V2000
  188.5880  178.3400  141.8230 C   0  0  1  0  0  3  0  0  0  0  0  0
  187.2050  177.7200  141.6180 C   0  0  0  0  0  1  0  0  0  0  0  0
  188.5370  177.7890  144.4310 C   0  0  2  0  0  3  0  0  0  0  0  0
  189.2790  178.9400  144.1110 O   0  0  0  0  0  0  0  0  0  0  0  0
  189.2850  177.9110  143.1400 C   0  0  2  0  0  0  0  0  0  0  0  0
  189.5770  175.0990  142.8830 O   0  0  0  0  0  1  0  0  0  0  0  0
  190.8150  175.7550  142.8340 C   0  0  2  0  0  3  0  0  0  0  0  0
  190.1780  176.1240  145.1460 O   0  0  0  0  0  1  0  0  0  0  0  0
  191.1770  176.3720  144.1900 C   0  0  2  0  0  3  0  0  0  0  0  0
  190.6870  177.2610  143.0490 C   0  0  2  0  0  0  0  0  0  0  0  0
  191.8000  178.0430  142.3840 C   0  0  0  0  0  1  0  0  0  0  0  0
  187.0490  178.1050  144.3280 C   0  0  0  0  0  2  0  0  0  0  0  0
  186.6070  178.9020  145.4690 N   0  0  0  0  0  0  0  0  0  0  0  0
  186.1650  177.9490  146.4720 C   0  0  0  0  0  2  0  0  0  0  0  0
  186.8710  178.2300  147.7870 C   0  0  0  0  0  2  0  0  0  0  0  0
  189.0820  178.0950  148.9300 C   0  0  0  0  0  1  0  0  0  0  0  0
  188.3700  178.2160  147.5910 C   0  0  0  0  0  2  0  0  0  0  0  0
  185.4220  179.6470  145.0500 C   0  0  0  0  0  2  0  0  0  0  0  0
  184.4800  178.7110  144.3090 C   0  0  0  0  0  2  0  0  0  0  0  0
  183.0450  179.0600  144.6610 C   0  0  0  0  0  2  0  0  0  0  0  0
  182.1120  178.2330  143.8010 C   0  0  0  0  0  2  0  0  0  0  0  0
  181.4450  179.1170  142.7680 C   0  0  0  0  0  2  0  0  0  0  0  0
  182.3810  179.4720  141.7910 O   0  0  0  0  0  0  0  0  0  0  0  0
  181.8860  178.9400  140.5970 C   0  0  2  0  0  3  0  0  0  0  0  0
  182.7210  179.3300  139.5440 O   0  0  0  0  0  0  0  0  0  0  0  0
  184.0160  179.1240  140.0170 C   0  0  0  0  0  1  0  0  0  0  0  0
  180.4650  179.4440  140.3510 C   0  0  2  0  0  3  0  0  0  0  0  0
  179.5810  178.3690  140.3100 O   0  0  0  0  0  1  0  0  0  0  0  0
  180.7210  181.5570  139.0160 O   0  0  0  0  0  1  0  0  0  0  0  0
  179.9730  179.6170  138.0120 O   0  0  0  0  0  0  0  0  0  0  0  0
  180.3720  180.2040  139.0630 C   0  0  0  0  0  0  0  0  0  0  0  0
  189.4420  178.0720  140.7180 O   0  0  0  0  0  0  0  0  0  0  0  0
  188.3860  179.3530  139.1060 O   0  0  0  0  0  0  0  0  0  0  0  0
  189.0860  178.3450  139.3940 C   0  0  0  0  0  0  0  0  0  0  0  0
  189.2860  175.2340  137.1390 C   0  0  2  0  0  3  0  0  0  0  0  0
  189.4220  178.1700  136.9510 C   0  0  0  0  0  2  0  0  0  0  0  0
  189.0740  175.4620  139.5200 O   0  0  0  0  0  1  0  0  0  0  0  0
  189.5890  177.4650  138.3000 C   0  0  2  0  0  3  0  0  0  0  0  0
  189.9020  177.2690  135.8170 C   0  0  2  0  0  3  0  0  0  0  0  0
  188.8380  176.1220  138.3100 C   0  0  1  0  0  3  0  0  0  0  0  0
  189.7320  177.9260  134.5990 O   0  0  0  0  0  1  0  0  0  0  0  0
  189.1030  175.9690  135.8130 C   0  0  0  0  0  2  0  0  0  0  0  0
  188.5110  174.0020  137.1170 N   0  0  0  0  0  0  0  0  0  0  0  0
  182.4390  172.8990  136.3290 C   0  0  0  0  0  2  0  0  0  0  0  0
  184.4400  173.9370  136.3770 C   0  0  1  0  0  3  0  0  0  0  0  0
  187.2400  173.9810  136.8450 C   0  0  0  0  0  0  0  0  0  0  0  0
  186.5380  175.1830  136.6300 O   0  0  0  0  0  0  0  0  0  0  0  0
  185.1920  175.2530  136.1400 C   0  0  2  0  0  3  0  0  0  0  0  0
  184.4900  171.4880  135.7260 C   0  0  1  0  0  3  0  0  0  0  0  0
  183.2200  173.8860  135.6860 O   0  0  0  0  0  0  0  0  0  0  0  0
  185.3160  172.7810  135.9000 C   0  0  2  0  0  3  0  0  0  0  0  0
  185.2070  170.3470  136.0920 O   0  0  0  0  0  1  0  0  0  0  0  0
  186.5250  172.6650  136.8150 C   0  0  0  0  0  2  0  0  0  0  0  0
  183.1440  171.5290  136.4580 C   0  0  0  0  0  2  0  0  0  0  0  0
  182.7520  175.7750  138.4370 C   0  0  0  0  0  2  0  0  0  0  0  0
  181.7280  176.5860  137.6560 C   0  0  2  0  0  3  0  0  0  0  0  0
  183.4270  177.1200  135.8940 C   0  0  0  0  0  2  0  0  0  0  0  0
  184.1520  176.3580  138.2440 C   0  0  0  0  0  2  0  0  0  0  0  0
  180.1050  175.9190  137.9350 Cl  0  0  0  0  0  0  0  0  0  0  0  0
  182.0490  176.5250  136.1700 C   0  0  0  0  0  2  0  0  0  0  0  0
  184.5190  176.4840  136.7600 C   0  0  1  0  0  3  0  0  0  0  0  0
  1  2  1  6  0  0  0
  3 12  1  6  0  0  0
  4  3  1  0  0  0  0
  5  1  1  6  0  0  0
  5  4  1  0  0  0  0
  5  3  1  0  0  0  0
  7  6  1  1  0  0  0
  7 10  1  0  0  0  0
  7  9  1  0  0  0  0
  9  8  1  1  0  0  0
 10 11  1  6  0  0  0
 10  5  1  0  0  0  0
 10  9  1  0  0  0  0
 12 13  1  0  0  0  0
 13 14  1  0  0  0  0
 14 15  1  0  0  0  0
 17 15  1  0  0  0  0
 17 16  1  0  0  0  0
 18 13  1  0  0  0  0
 19 20  1  0  0  0  0
 19 18  1  0  0  0  0
 21 20  1  0  0  0  0
 22 21  1  0  0  0  0
 23 22  1  0  0  0  0
 24 25  1  6  0  0  0
 24 23  1  0  0  0  0
 25 26  1  0  0  0  0
 27 28  1  6  0  0  0
 27 24  1  0  0  0  0
 29 31  1  0  0  0  0
 30 31  2  0  0  0  0
 31 27  1  0  0  0  0
 32  1  1  0  0  0  0
 33 34  2  0  0  0  0
 34 32  1  0  0  0  0
 35 43  1  6  0  0  0
 35 40  1  0  0  0  0
 36 38  1  0  0  0  0
 38 40  1  0  0  0  0
 38 34  1  1  0  0  0
 39 41  1  6  0  0  0
 39 36  1  0  0  0  0
 40 37  1  1  0  0  0
 42 39  1  0  0  0  0
 42 35  1  0  0  0  0
 44 54  1  0  0  0  0
 45 50  1  6  0  0  0
 46 43  2  0  0  0  0
 47 46  1  0  0  0  0
 48 45  1  0  0  0  0
 48 47  1  1  0  0  0
 48 61  1  0  0  0  0
 49 51  1  0  0  0  0
 49 52  1  1  0  0  0
 49 54  1  0  0  0  0
 50 44  1  0  0  0  0
 51 45  1  0  0  0  0
 51 53  1  1  0  0  0
 53 46  1  0  0  0  0
 56 59  1  6  0  0  0
 56 55  1  0  0  0  0
 57 60  1  0  0  0  0
 58 55  1  0  0  0  0
 60 56  1  0  0  0  0
 61 57  1  6  0  0  0
 61 58  1  0  0  0  0
M  END
>  <MODEL>
8

>  <REMARK>
 VINA RESULT:      -4.7      2.591     10.565
  Name = 
  22 active torsions:
  status: ('A' for Active; 'I' for Inactive)
    1  A    between atoms: C_3  and  N_7
    2  A    between atoms: C_3  and  C_16
    3  A    between atoms: C_4  and  N_7
    4  A    between atoms: C_4  and  C_61
    5  A    between atoms: N_5  and  C_15
    6  A    between atoms: N_7  and  C_25
    7  A    between atoms: C_9  and  C_10
    8  A    between atoms: C_9  and  C_18
    9  A    between atoms: C_10  and  C_16
   10  A    between atoms: C_11  and  C_32
   11  A    between atoms: C_11  and  C_42
   12  A    between atoms: C_18  and  O_22
   13  A    between atoms: C_19  and  C_57
   14  A    between atoms: C_20  and  C_25
   15  A    between atoms: O_22  and  C_42
   16  A    between atoms: O_26  and  C_45
   17  A    between atoms: O_26  and  C_60
   18  A    between atoms: C_33  and  C_55
   19  A    between atoms: C_36  and  C_61
   20  A    between atoms: C_37  and  C_60
   21  A    between atoms: C_42  and  O_47
   22  A    between atoms: C_45  and  C_57
                            x       y       z     vdW  Elec       q    Type
                         _______ _______ _______ _____ _____    ______ ____

>  <TORSDO>
F 22

$$$$
=
 OpenBabel10222416073D

 61 66  0  0  1  0  0  0  0  0999 V2000
  179.7810  177.6240  138.7500 C   0  0  1  0  0  3  0  0  0  0  0  0
  179.2060  176.8130  139.9120 C   0  0  0  0  0  1  0  0  0  0  0  0
  180.9360  179.3590  140.4130 C   0  0  2  0  0  3  0  0  0  0  0  0
  179.5450  179.5340  140.2890 O   0  0  0  0  0  0  0  0  0  0  0  0
  180.2140  179.0620  139.1350 C   0  0  2  0  0  0  0  0  0  0  0  0
  182.5420  179.5640  137.5890 O   0  0  0  0  0  1  0  0  0  0  0  0
  181.4580  180.3440  137.1620 C   0  0  2  0  0  3  0  0  0  0  0  0
  181.9110  181.3190  139.3380 O   0  0  0  0  0  1  0  0  0  0  0  0
  181.0770  181.3970  138.2100 C   0  0  2  0  0  3  0  0  0  0  0  0
  180.2180  180.1470  138.0310 C   0  0  2  0  0  0  0  0  0  0  0  0
  178.9310  180.4120  137.2800 C   0  0  0  0  0  1  0  0  0  0  0  0
  181.2120  178.1340  141.2780 C   0  0  0  0  0  2  0  0  0  0  0  0
  182.4180  178.3240  142.0780 N   0  0  0  0  0  0  0  0  0  0  0  0
  182.0430  179.2210  143.1570 C   0  0  0  0  0  2  0  0  0  0  0  0
  182.5570  178.6750  144.4770 C   0  0  0  0  0  2  0  0  0  0  0  0
  184.2300  179.1760  146.2550 C   0  0  0  0  0  1  0  0  0  0  0  0
  183.9420  179.2100  144.7620 C   0  0  0  0  0  2  0  0  0  0  0  0
  183.3840  179.0440  141.2520 C   0  0  0  0  0  2  0  0  0  0  0  0
  184.7060  178.2930  141.2620 C   0  0  0  0  0  2  0  0  0  0  0  0
  185.7550  179.1300  141.9730 C   0  0  0  0  0  2  0  0  0  0  0  0
  186.9490  178.2550  142.2940 C   0  0  0  0  0  2  0  0  0  0  0  0
  186.6830  177.4670  143.5590 C   0  0  0  0  0  2  0  0  0  0  0  0
  187.7870  176.6540  143.8380 O   0  0  0  0  0  0  0  0  0  0  0  0
  188.8510  177.2250  143.1330 C   0  0  2  0  0  3  0  0  0  0  0  0
  189.2300  176.3600  142.1000 O   0  0  0  0  0  0  0  0  0  0  0  0
  189.2990  177.1660  140.9650 C   0  0  0  0  0  1  0  0  0  0  0  0
  190.0300  177.4650  144.0740 C   0  0  2  0  0  3  0  0  0  0  0  0
  189.6180  178.2180  145.1690 O   0  0  0  0  0  1  0  0  0  0  0  0
  191.2110  179.5800  143.4060 O   0  0  0  0  0  1  0  0  0  0  0  0
  192.0310  177.5200  142.7550 O   0  0  0  0  0  0  0  0  0  0  0  0
  191.1450  178.1830  143.3760 C   0  0  0  0  0  0  0  0  0  0  0  0
  180.8670  176.9440  138.1340 O   0  0  0  0  0  0  0  0  0  0  0  0
  180.8910  177.3510  135.8560 O   0  0  0  0  0  0  0  0  0  0  0  0
  180.8460  176.5190  136.8030 C   0  0  0  0  0  0  0  0  0  0  0  0
  182.2040  173.1050  135.6610 C   0  0  2  0  0  3  0  0  0  0  0  0
  180.5060  174.2680  137.7670 C   0  0  0  0  0  2  0  0  0  0  0  0
  182.4070  175.2980  134.7050 O   0  0  0  0  0  1  0  0  0  0  0  0
  180.8270  175.0590  136.4960 C   0  0  2  0  0  3  0  0  0  0  0  0
  180.5140  172.7700  137.4780 C   0  0  2  0  0  3  0  0  0  0  0  0
  182.1780  174.6210  135.9060 C   0  0  1  0  0  3  0  0  0  0  0  0
  180.2320  172.0700  138.6500 O   0  0  0  0  0  1  0  0  0  0  0  0
  181.8830  172.3510  136.9500 C   0  0  0  0  0  2  0  0  0  0  0  0
  183.5150  172.6950  135.1770 N   0  0  0  0  0  0  0  0  0  0  0  0
  189.1870  175.1470  135.9030 C   0  0  0  0  0  2  0  0  0  0  0  0
  186.9890  174.7160  136.1640 C   0  0  1  0  0  3  0  0  0  0  0  0
  184.6080  173.3090  135.5210 C   0  0  0  0  0  0  0  0  0  0  0  0
  184.5550  174.4590  136.3320 O   0  0  0  0  0  0  0  0  0  0  0  0
  185.7040  175.0860  136.9160 C   0  0  2  0  0  3  0  0  0  0  0  0
  188.4390  172.7170  135.5960 C   0  0  1  0  0  3  0  0  0  0  0  0
  188.1450  175.1010  136.8580 O   0  0  0  0  0  0  0  0  0  0  0  0
  187.0210  173.2030  135.9690 C   0  0  2  0  0  3  0  0  0  0  0  0
  188.4150  171.6630  134.6790 O   0  0  0  0  0  1  0  0  0  0  0  0
  185.9190  172.8040  135.0000 C   0  0  0  0  0  2  0  0  0  0  0  0
  189.3490  173.8420  135.0900 C   0  0  0  0  0  2  0  0  0  0  0  0
  187.1940  177.8800  135.6980 C   0  0  0  0  0  2  0  0  0  0  0  0
  187.5150  178.6640  136.9630 C   0  0  2  0  0  3  0  0  0  0  0  0
  185.9240  177.2590  138.2940 C   0  0  0  0  0  2  0  0  0  0  0  0
  185.7450  177.3930  135.7280 C   0  0  0  0  0  2  0  0  0  0  0  0
  189.1880  179.2590  136.8830 Cl  0  0  0  0  0  0  0  0  0  0  0  0
  187.3600  177.7630  138.1800 C   0  0  0  0  0  2  0  0  0  0  0  0
  185.4370  176.5940  137.0020 C   0  0  1  0  0  3  0  0  0  0  0  0
  1  2  1  1  0  0  0
  3 12  1  1  0  0  0
  4  3  1  0  0  0  0
  5  1  1  6  0  0  0
  5  4  1  0  0  0  0
  5  3  1  0  0  0  0
  7  6  1  1  0  0  0
  7 10  1  0  0  0  0
  7  9  1  0  0  0  0
  9  8  1  1  0  0  0
 10 11  1  6  0  0  0
 10  9  1  0  0  0  0
 10  5  1  0  0  0  0
 12 13  1  0  0  0  0
 13 14  1  0  0  0  0
 14 15  1  0  0  0  0
 15 17  1  0  0  0  0
 17 16  1  0  0  0  0
 18 19  1  0  0  0  0
 18 13  1  0  0  0  0
 19 20  1  0  0  0  0
 20 21  1  0  0  0  0
 21 22  1  0  0  0  0
 22 23  1  0  0  0  0
 24 25  1  6  0  0  0
 24 23  1  0  0  0  0
 24 27  1  0  0  0  0
 26 25  1  0  0  0  0
 27 28  1  1  0  0  0
 30 31  2  0  0  0  0
 31 29  1  0  0  0  0
 31 27  1  0  0  0  0
 32  1  1  0  0  0  0
 33 34  2  0  0  0  0
 34 32  1  0  0  0  0
 35 43  1  1  0  0  0
 35 40  1  0  0  0  0
 35 42  1  0  0  0  0
 38 34  1  1  0  0  0
 38 36  1  0  0  0  0
 39 36  1  0  0  0  0
 39 41  1  1  0  0  0
 40 37  1  6  0  0  0
 40 38  1  0  0  0  0
 42 39  1  0  0  0  0
 43 46  2  0  0  0  0
 44 50  1  0  0  0  0
 45 50  1  1  0  0  0
 45 48  1  0  0  0  0
 46 47  1  0  0  0  0
 48 47  1  6  0  0  0
 48 61  1  0  0  0  0
 49 52  1  6  0  0  0
 49 51  1  0  0  0  0
 51 53  1  6  0  0  0
 51 45  1  0  0  0  0
 53 46  1  0  0  0  0
 54 49  1  0  0  0  0
 54 44  1  0  0  0  0
 55 58  1  0  0  0  0
 55 56  1  0  0  0  0
 56 59  1  6  0  0  0
 56 60  1  0  0  0  0
 60 57  1  0  0  0  0
 61 58  1  6  0  0  0
 61 57  1  0  0  0  0
M  END
>  <MODEL>
9

>  <REMARK>
 VINA RESULT:      -4.6      2.239      7.976
  Name = 
  22 active torsions:
  status: ('A' for Active; 'I' for Inactive)
    1  A    between atoms: C_3  and  N_7
    2  A    between atoms: C_3  and  C_16
    3  A    between atoms: C_4  and  N_7
    4  A    between atoms: C_4  and  C_61
    5  A    between atoms: N_5  and  C_15
    6  A    between atoms: N_7  and  C_25
    7  A    between atoms: C_9  and  C_10
    8  A    between atoms: C_9  and  C_18
    9  A    between atoms: C_10  and  C_16
   10  A    between atoms: C_11  and  C_32
   11  A    between atoms: C_11  and  C_42
   12  A    between atoms: C_18  and  O_22
   13  A    between atoms: C_19  and  C_57
   14  A    between atoms: C_20  and  C_25
   15  A    between atoms: O_22  and  C_42
   16  A    between atoms: O_26  and  C_45
   17  A    between atoms: O_26  and  C_60
   18  A    between atoms: C_33  and  C_55
   19  A    between atoms: C_36  and  C_61
   20  A    between atoms: C_37  and  C_60
   21  A    between atoms: C_42  and  O_47
   22  A    between atoms: C_45  and  C_57
                            x       y       z     vdW  Elec       q    Type
                         _______ _______ _______ _____ _____    ______ ____

>  <TORSDO>
F 22

$$$$
