=
 OpenBabel10222418563D

 43 47  0  0  1  0  0  0  0  0999 V2000
  191.9540  177.0020  143.8700 C   0  0  0  0  0  3  0  0  0  0  0  0
  189.4030  176.9930  141.3320 C   0  0  0  0  0  0  0  0  0  0  0  0
  191.2570  177.3440  142.6200 C   0  0  1  0  0  3  0  0  0  0  0  0
  188.1800  177.3290  141.4230 N   0  0  0  0  0  0  0  0  0  0  0  0
  191.3840  176.9050  145.1050 C   0  0  0  0  0  0  0  0  0  0  0  0
  189.9770  177.0840  145.6720 C   0  0  0  0  0  0  0  0  0  0  0  0
  192.0220  177.5750  140.9460 S   0  0  0  0  0  0  0  0  0  0  0  0
  187.5960  177.4590  146.0330 C   0  0  0  0  0  0  0  0  0  0  0  0
  189.1430  177.2450  147.8870 N   0  0  0  0  0  0  0  0  0  0  0  0
  186.2130  177.5150  145.5410 N   0  0  0  0  0  0  0  0  0  0  0  0
  190.2030  176.9940  147.0340 C   0  0  0  0  0  0  0  0  0  0  0  0
  186.5150  177.9730  143.2120 C   0  0  1  0  0  3  0  0  0  0  0  0
  191.5380  176.7620  147.3820 N   0  0  0  0  0  0  0  0  0  0  0  0
  185.8630  177.0160  144.1810 C   0  0  0  0  0  2  0  0  0  0  0  0
  192.2720  176.7060  146.1640 N   0  0  0  0  0  0  0  0  0  0  0  0
  190.3280  177.2810  140.2080 C   0  0  1  0  0  3  0  0  0  0  0  0
  187.6030  177.2760  142.7060 N   0  0  0  0  0  2  0  0  0  0  0  0
  188.7150  177.3430  145.1610 C   0  0  0  0  0  3  0  0  0  0  0  0
  190.0450  176.7050  142.5360 O   0  0  0  0  0  0  0  0  0  0  0  0
  187.8830  177.4690  147.4110 C   0  0  0  0  0  3  0  0  0  0  0  0
  183.6250  178.9420  144.9450 O   0  0  0  0  0  0  0  0  0  0  0  0
  184.9000  178.5930  146.0280 P   0  0  0  0  0  0  0  0  0  0  0  0
  185.6040  179.9310  146.0970 O   0  0  0  0  0  1  0  0  0  0  0  0
  184.3380  178.2710  147.5750 O   0  0  0  0  0  1  0  0  0  0  0  0
  185.7460  178.6470  142.0120 C   0  0  2  0  0  3  0  0  0  0  0  0
  185.4560  180.0940  142.3930 C   0  0  0  0  0  1  0  0  0  0  0  0
  184.5610  177.8350  141.4230 C   0  0  0  0  0  2  0  0  0  0  0  0
  183.5360  178.8700  140.9650 C   0  0  0  0  0  2  0  0  0  0  0  0
  182.1450  178.5080  141.0790 C   0  0  0  0  0  2  0  0  0  0  0  0
  181.5210  178.7840  142.1790 N   0  0  0  0  0  2  0  0  0  0  0  0
  179.4980  178.0870  141.1120 O   0  0  0  0  0  0  0  0  0  0  0  0
  180.2570  178.2420  142.2810 C   0  0  0  0  0  0  0  0  0  0  0  0
  179.7630  177.9310  143.3990 O   0  0  0  0  0  1  0  0  0  0  0  0
  190.7210  175.2570  138.7000 O   0  0  0  0  0  1  0  0  0  0  0  0
  190.2710  176.5970  138.8470 C   0  0  1  0  0  3  0  0  0  0  0  0
  190.0990  176.9680  136.0940 O   0  0  0  0  0  1  0  0  0  0  0  0
  188.9470  176.9320  138.0880 C   0  0  2  0  0  3  0  0  0  0  0  0
  189.0130  177.5250  136.7300 C   0  0  1  0  0  0  0  0  0  0  0  0
  189.1470  178.4030  137.9850 C   0  0  0  0  0  2  0  0  0  0  0  0
  187.5680  177.4930  136.1610 C   0  0  0  0  0  2  0  0  0  0  0  0
  185.3720  177.7420  137.6080 C   0  0  0  0  0  1  0  0  0  0  0  0
  185.7940  175.6500  136.6110 C   0  0  0  0  0  1  0  0  0  0  0  0
  186.4570  176.8850  137.0450 C   0  0  0  0  0  3  0  0  0  0  0  0
  1  5  2  0  0  0  0
  2  4  2  0  0  0  0
  2 19  1  0  0  0  0
  3  1  1  1  0  0  0
  4 17  1  0  0  0  0
  5  6  1  0  0  0  0
  5 15  1  0  0  0  0
  6 11  1  0  0  0  0
  7  3  1  0  0  0  0
  8 20  2  0  0  0  0
 10 22  1  0  0  0  0
 10  8  1  0  0  0  0
 11 13  1  0  0  0  0
 11  9  2  0  0  0  0
 12 25  1  6  0  0  0
 12 14  1  0  0  0  0
 14 10  1  0  0  0  0
 15 13  2  0  0  0  0
 16 35  1  6  0  0  0
 16  7  1  0  0  0  0
 16  2  1  0  0  0  0
 17 12  1  0  0  0  0
 18  6  2  0  0  0  0
 18  8  1  0  0  0  0
 19  3  1  0  0  0  0
 20  9  1  0  0  0  0
 21 22  2  0  0  0  0
 22 23  1  0  0  0  0
 22 24  1  0  0  0  0
 25 26  1  1  0  0  0
 27 25  1  0  0  0  0
 28 29  1  0  0  0  0
 28 27  1  0  0  0  0
 29 30  1  0  0  0  0
 30 32  1  0  0  0  0
 31 32  2  0  0  0  0
 32 33  1  0  0  0  0
 35 34  1  1  0  0  0
 37 35  1  6  0  0  0
 38 36  1  6  0  0  0
 38 39  1  0  0  0  0
 38 37  1  0  0  0  0
 39 37  1  0  0  0  0
 40 38  1  0  0  0  0
 40 43  1  0  0  0  0
 42 43  1  0  0  0  0
 43 41  1  0  0  0  0
M  END
>  <MODEL>
1

>  <REMARK>
 VINA RESULT:      -7.8      0.000      0.000
  Name = 
  10 active torsions:
  status: ('A' for Active; 'I' for Inactive)
    1  A    between atoms: C_2  and  C_24
    2  A    between atoms: C_2  and  C_28
    3  A    between atoms: C_3  and  C_34
    4  A    between atoms: C_3  and  C_40
    5  A    between atoms: C_13  and  C_39
    6  A    between atoms: C_16  and  C_32
    7  A    between atoms: C_16  and  C_33
    8  A    between atoms: N_19  and  P_22
    9  A    between atoms: C_27  and  N_43
   10  A    between atoms: C_28  and  C_39
                            x       y       z     vdW  Elec       q    Type
                         _______ _______ _______ _____ _____    ______ ____

>  <TORSDO>
F 10

$$$$
=
 OpenBabel10222418563D

 43 47  0  0  1  0  0  0  0  0999 V2000
  184.1540  178.7360  141.9350 C   0  0  0  0  0  3  0  0  0  0  0  0
  187.5000  178.4070  140.6500 C   0  0  0  0  0  0  0  0  0  0  0  0
  185.2640  178.2560  141.0950 C   0  0  1  0  0  3  0  0  0  0  0  0
  188.5540  178.0200  141.2480 N   0  0  0  0  0  0  0  0  0  0  0  0
  184.1880  178.9090  143.2870 C   0  0  0  0  0  0  0  0  0  0  0  0
  185.2320  178.7100  144.3840 C   0  0  0  0  0  0  0  0  0  0  0  0
  185.2170  177.9230  139.2710 S   0  0  0  0  0  0  0  0  0  0  0  0
  187.2320  178.2500  145.6990 C   0  0  0  0  0  0  0  0  0  0  0  0
  185.0950  178.6960  146.7530 N   0  0  0  0  0  0  0  0  0  0  0  0
  188.6880  178.0870  145.8130 N   0  0  0  0  0  0  0  0  0  0  0  0
  184.4880  178.9250  145.5300 C   0  0  0  0  0  0  0  0  0  0  0  0
  189.3070  177.4490  143.5910 C   0  0  1  0  0  3  0  0  0  0  0  0
  183.1470  179.2500  145.2940 N   0  0  0  0  0  0  0  0  0  0  0  0
  189.5910  178.4510  144.6850 C   0  0  0  0  0  2  0  0  0  0  0  0
  182.9700  179.2390  143.8830 N   0  0  0  0  0  0  0  0  0  0  0  0
  187.0820  178.0710  139.2670 C   0  0  1  0  0  3  0  0  0  0  0  0
  188.5710  178.1540  142.6490 N   0  0  0  0  0  2  0  0  0  0  0  0
  186.5690  178.3470  144.4430 C   0  0  0  0  0  3  0  0  0  0  0  0
  186.4540  178.8260  141.4730 O   0  0  0  0  0  0  0  0  0  0  0  0
  186.4180  178.3700  146.8410 C   0  0  0  0  0  3  0  0  0  0  0  0
  188.8280  175.6750  147.6180 O   0  0  0  0  0  1  0  0  0  0  0  0
  189.6070  176.9900  146.8510 P   0  0  0  0  0  0  0  0  0  0  0  0
  189.9250  177.8760  148.0360 O   0  0  0  0  0  1  0  0  0  0  0  0
  191.0770  176.5450  146.1810 O   0  0  0  0  0  0  0  0  0  0  0  0
  190.4370  176.6390  142.8470 C   0  0  2  0  0  3  0  0  0  0  0  0
  190.2990  175.1720  143.2360 C   0  0  0  0  0  1  0  0  0  0  0  0
  191.8650  177.2440  142.9180 C   0  0  0  0  0  2  0  0  0  0  0  0
  192.0620  177.9970  141.6050 C   0  0  0  0  0  2  0  0  0  0  0  0
  192.1430  177.2050  140.4030 C   0  0  0  0  0  2  0  0  0  0  0  0
  193.2650  177.1680  139.7590 N   0  0  0  0  0  2  0  0  0  0  0  0
  194.2770  175.7220  138.1450 O   0  0  0  0  0  1  0  0  0  0  0  0
  193.2090  176.5470  138.5290 C   0  0  0  0  0  0  0  0  0  0  0  0
  192.2460  176.7420  137.7370 O   0  0  0  0  0  0  0  0  0  0  0  0
  188.9070  179.4280  138.1040 O   0  0  0  0  0  1  0  0  0  0  0  0
  187.7320  178.6350  138.0090 C   0  0  1  0  0  3  0  0  0  0  0  0
  189.0940  176.2080  138.0890 O   0  0  0  0  0  1  0  0  0  0  0  0
  187.7360  177.5910  136.8460 C   0  0  2  0  0  3  0  0  0  0  0  0
  188.8010  176.5600  136.7920 C   0  0  1  0  0  0  0  0  0  0  0  0
  189.0400  177.9750  136.2410 C   0  0  0  0  0  2  0  0  0  0  0  0
  188.3800  175.5430  135.6950 C   0  0  0  0  0  2  0  0  0  0  0  0
  188.7820  173.1570  136.7520 C   0  0  0  0  0  1  0  0  0  0  0  0
  186.6300  174.0930  136.9510 C   0  0  0  0  0  1  0  0  0  0  0  0
  187.8580  174.1630  136.1520 C   0  0  0  0  0  3  0  0  0  0  0  0
  1  5  2  0  0  0  0
  2  4  2  0  0  0  0
  2 19  1  0  0  0  0
  3 19  1  0  0  0  0
  3  1  1  6  0  0  0
  4 17  1  0  0  0  0
  5 15  1  0  0  0  0
  5  6  1  0  0  0  0
  6 18  2  0  0  0  0
  6 11  1  0  0  0  0
  7  3  1  0  0  0  0
  8 10  1  0  0  0  0
  8 20  2  0  0  0  0
  9 20  1  0  0  0  0
 10 22  1  0  0  0  0
 11  9  2  0  0  0  0
 12 25  1  6  0  0  0
 12 14  1  0  0  0  0
 13 11  1  0  0  0  0
 14 10  1  0  0  0  0
 15 13  2  0  0  0  0
 16 35  1  6  0  0  0
 16  7  1  0  0  0  0
 16  2  1  0  0  0  0
 17 12  1  0  0  0  0
 18  8  1  0  0  0  0
 22 21  1  0  0  0  0
 22 23  1  0  0  0  0
 24 22  2  0  0  0  0
 25 27  1  0  0  0  0
 25 26  1  1  0  0  0
 28 27  1  0  0  0  0
 29 28  1  0  0  0  0
 30 29  1  0  0  0  0
 31 32  1  0  0  0  0
 32 30  1  0  0  0  0
 33 32  2  0  0  0  0
 35 34  1  1  0  0  0
 37 35  1  1  0  0  0
 38 37  1  0  0  0  0
 38 36  1  1  0  0  0
 39 38  1  0  0  0  0
 39 37  1  0  0  0  0
 40 43  1  0  0  0  0
 40 38  1  0  0  0  0
 43 41  1  0  0  0  0
 43 42  1  0  0  0  0
M  END
>  <MODEL>
2

>  <REMARK>
 VINA RESULT:      -7.7      3.034      6.584
  Name = 
  10 active torsions:
  status: ('A' for Active; 'I' for Inactive)
    1  A    between atoms: C_2  and  C_24
    2  A    between atoms: C_2  and  C_28
    3  A    between atoms: C_3  and  C_34
    4  A    between atoms: C_3  and  C_40
    5  A    between atoms: C_13  and  C_39
    6  A    between atoms: C_16  and  C_32
    7  A    between atoms: C_16  and  C_33
    8  A    between atoms: N_19  and  P_22
    9  A    between atoms: C_27  and  N_43
   10  A    between atoms: C_28  and  C_39
                            x       y       z     vdW  Elec       q    Type
                         _______ _______ _______ _____ _____    ______ ____

>  <TORSDO>
F 10

$$$$
=
 OpenBabel10222418563D

 43 47  0  0  1  0  0  0  0  0999 V2000
  183.6720  178.6910  144.1780 C   0  0  0  0  0  3  0  0  0  0  0  0
  185.2500  178.9830  140.9560 C   0  0  0  0  0  0  0  0  0  0  0  0
  183.9010  178.5010  142.7360 C   0  0  1  0  0  3  0  0  0  0  0  0
  186.4140  178.6180  140.5980 N   0  0  0  0  0  0  0  0  0  0  0  0
  184.6190  178.6210  145.1560 C   0  0  0  0  0  0  0  0  0  0  0  0
  186.1200  178.3480  145.2000 C   0  0  0  0  0  0  0  0  0  0  0  0
  182.6190  178.4980  141.3950 S   0  0  0  0  0  0  0  0  0  0  0  0
  188.4630  177.8900  144.7060 C   0  0  0  0  0  0  0  0  0  0  0  0
  187.6220  177.8910  146.9800 N   0  0  0  0  0  0  0  0  0  0  0  0
  189.6040  177.8750  143.7810 N   0  0  0  0  0  0  0  0  0  0  0  0
  186.3570  178.2670  146.5610 C   0  0  0  0  0  0  0  0  0  0  0  0
  188.5320  177.7230  141.6480 C   0  0  1  0  0  3  0  0  0  0  0  0
  185.2250  178.4740  147.3560 N   0  0  0  0  0  0  0  0  0  0  0  0
  189.5190  178.5380  142.4490 C   0  0  0  0  0  2  0  0  0  0  0  0
  184.1390  178.6970  146.4650 N   0  0  0  0  0  0  0  0  0  0  0  0
  183.9940  178.8560  140.1770 C   0  0  1  0  0  3  0  0  0  0  0  0
  187.3810  178.4980  141.6140 N   0  0  0  0  0  2  0  0  0  0  0  0
  187.1300  178.1350  144.2730 C   0  0  0  0  0  3  0  0  0  0  0  0
  185.0540  179.1250  142.3300 O   0  0  0  0  0  0  0  0  0  0  0  0
  188.6420  177.7090  146.0910 C   0  0  0  0  0  3  0  0  0  0  0  0
  191.9390  176.4400  145.0360 O   0  0  0  0  0  1  0  0  0  0  0  0
  190.9400  176.7220  143.6790 P   0  0  0  0  0  0  0  0  0  0  0  0
  191.8980  177.4360  142.7500 O   0  0  0  0  0  0  0  0  0  0  0  0
  190.5060  175.2960  142.9110 O   0  0  0  0  0  1  0  0  0  0  0  0
  188.8270  177.1950  140.1910 C   0  0  2  0  0  3  0  0  0  0  0  0
  190.1860  176.5060  140.2080 C   0  0  0  0  0  1  0  0  0  0  0  0
  188.5760  178.2060  139.0390 C   0  0  0  0  0  2  0  0  0  0  0  0
  189.0910  177.5250  137.7730 C   0  0  0  0  0  2  0  0  0  0  0  0
  188.1030  176.9750  136.8780 C   0  0  0  0  0  2  0  0  0  0  0  0
  186.9490  176.6410  137.3590 N   0  0  0  0  0  2  0  0  0  0  0  0
  185.8100  174.6200  136.7780 O   0  0  0  0  0  1  0  0  0  0  0  0
  186.1330  175.9530  136.4850 C   0  0  0  0  0  0  0  0  0  0  0  0
  185.7140  176.4840  135.4200 O   0  0  0  0  0  0  0  0  0  0  0  0
  184.2590  180.9740  138.7740 O   0  0  0  0  0  1  0  0  0  0  0  0
  183.6430  179.7080  138.9630 C   0  0  1  0  0  3  0  0  0  0  0  0
  181.2310  178.7360  137.9680 O   0  0  0  0  0  1  0  0  0  0  0  0
  183.5120  178.8410  137.6690 C   0  0  2  0  0  3  0  0  0  0  0  0
  182.2920  178.0260  137.4550 C   0  0  1  0  0  0  0  0  0  0  0  0
  183.4460  177.5100  138.3300 C   0  0  0  0  0  2  0  0  0  0  0  0
  182.3560  177.5040  135.9930 C   0  0  0  0  0  2  0  0  0  0  0  0
  182.5130  174.9620  135.2940 C   0  0  0  0  0  1  0  0  0  0  0  0
  180.6640  175.6280  136.5920 C   0  0  0  0  0  1  0  0  0  0  0  0
  181.6910  176.1460  135.6810 C   0  0  0  0  0  3  0  0  0  0  0  0
  1  5  2  0  0  0  0
  2 19  1  0  0  0  0
  3  1  1  1  0  0  0
  4  2  2  0  0  0  0
  4 17  1  0  0  0  0
  5  6  1  0  0  0  0
  5 15  1  0  0  0  0
  6 11  1  0  0  0  0
  7  3  1  0  0  0  0
  8 20  2  0  0  0  0
 10  8  1  0  0  0  0
 11  9  2  0  0  0  0
 11 13  1  0  0  0  0
 12 25  1  6  0  0  0
 12 14  1  0  0  0  0
 14 10  1  0  0  0  0
 15 13  2  0  0  0  0
 16 35  1  1  0  0  0
 16  2  1  0  0  0  0
 16  7  1  0  0  0  0
 17 12  1  0  0  0  0
 18  8  1  0  0  0  0
 18  6  2  0  0  0  0
 19  3  1  0  0  0  0
 20  9  1  0  0  0  0
 22 10  1  0  0  0  0
 22 21  1  0  0  0  0
 23 22  2  0  0  0  0
 24 22  1  0  0  0  0
 25 26  1  1  0  0  0
 27 25  1  0  0  0  0
 28 27  1  0  0  0  0
 29 30  1  0  0  0  0
 29 28  1  0  0  0  0
 32 31  1  0  0  0  0
 32 30  1  0  0  0  0
 33 32  2  0  0  0  0
 35 34  1  6  0  0  0
 37 39  1  0  0  0  0
 37 35  1  1  0  0  0
 38 37  1  0  0  0  0
 38 36  1  1  0  0  0
 38 39  1  0  0  0  0
 40 38  1  0  0  0  0
 41 43  1  0  0  0  0
 43 40  1  0  0  0  0
 43 42  1  0  0  0  0
M  END
>  <MODEL>
3

>  <REMARK>
 VINA RESULT:      -7.6      3.162      6.320
  Name = 
  10 active torsions:
  status: ('A' for Active; 'I' for Inactive)
    1  A    between atoms: C_2  and  C_24
    2  A    between atoms: C_2  and  C_28
    3  A    between atoms: C_3  and  C_34
    4  A    between atoms: C_3  and  C_40
    5  A    between atoms: C_13  and  C_39
    6  A    between atoms: C_16  and  C_32
    7  A    between atoms: C_16  and  C_33
    8  A    between atoms: N_19  and  P_22
    9  A    between atoms: C_27  and  N_43
   10  A    between atoms: C_28  and  C_39
                            x       y       z     vdW  Elec       q    Type
                         _______ _______ _______ _____ _____    ______ ____

>  <TORSDO>
F 10

$$$$
=
 OpenBabel10222418563D

 43 47  0  0  1  0  0  0  0  0999 V2000
  191.9270  176.8580  143.7150 C   0  0  0  0  0  3  0  0  0  0  0  0
  189.2050  177.0960  141.3730 C   0  0  0  0  0  0  0  0  0  0  0  0
  191.1630  177.2910  142.5340 C   0  0  1  0  0  3  0  0  0  0  0  0
  188.0130  177.4930  141.5670 N   0  0  0  0  0  0  0  0  0  0  0  0
  191.4420  176.7390  144.9840 C   0  0  0  0  0  0  0  0  0  0  0  0
  190.0920  176.9690  145.6590 C   0  0  0  0  0  0  0  0  0  0  0  0
  191.8190  177.5520  140.8180 S   0  0  0  0  0  0  0  0  0  0  0  0
  187.7680  177.4560  146.2090 C   0  0  0  0  0  0  0  0  0  0  0  0
  189.4280  177.0790  147.9350 N   0  0  0  0  0  0  0  0  0  0  0  0
  186.3580  177.6070  145.8230 N   0  0  0  0  0  0  0  0  0  0  0  0
  190.4090  176.8080  146.9960 C   0  0  0  0  0  0  0  0  0  0  0  0
  186.5190  178.1480  143.4980 C   0  0  1  0  0  3  0  0  0  0  0  0
  191.7500  176.4900  147.2360 N   0  0  0  0  0  0  0  0  0  0  0  0
  185.8840  177.1870  144.4740 C   0  0  0  0  0  2  0  0  0  0  0  0
  192.3900  176.4470  145.9660 N   0  0  0  0  0  0  0  0  0  0  0  0
  190.0620  177.3810  140.1960 C   0  0  1  0  0  3  0  0  0  0  0  0
  187.5270  177.4150  142.8860 N   0  0  0  0  0  2  0  0  0  0  0  0
  188.8130  177.3170  145.2530 C   0  0  0  0  0  3  0  0  0  0  0  0
  189.9140  176.7220  142.5150 O   0  0  0  0  0  0  0  0  0  0  0  0
  188.1530  177.3910  147.5620 C   0  0  0  0  0  3  0  0  0  0  0  0
  185.6320  180.1480  147.2730 O   0  0  0  0  0  1  0  0  0  0  0  0
  185.1470  178.7320  146.4470 P   0  0  0  0  0  0  0  0  0  0  0  0
  184.5280  177.9320  147.5730 O   0  0  0  0  0  1  0  0  0  0  0  0
  183.9180  179.0370  145.3480 O   0  0  0  0  0  0  0  0  0  0  0  0
  185.7050  178.9140  142.3850 C   0  0  2  0  0  3  0  0  0  0  0  0
  185.4860  180.3440  142.8630 C   0  0  0  0  0  1  0  0  0  0  0  0
  184.4630  178.1720  141.8220 C   0  0  0  0  0  2  0  0  0  0  0  0
  184.3460  178.6100  140.3640 C   0  0  0  0  0  2  0  0  0  0  0  0
  183.3850  177.9120  139.5460 C   0  0  0  0  0  2  0  0  0  0  0  0
  182.9850  176.7400  139.9230 N   0  0  0  0  0  2  0  0  0  0  0  0
  182.7750  174.9530  138.3480 O   0  0  0  0  0  0  0  0  0  0  0  0
  182.2170  176.0630  138.9990 C   0  0  0  0  0  0  0  0  0  0  0  0
  181.0530  176.4490  138.7030 O   0  0  0  0  0  1  0  0  0  0  0  0
  190.0730  175.3680  138.6260 O   0  0  0  0  0  1  0  0  0  0  0  0
  189.8700  176.7610  138.8180 C   0  0  1  0  0  3  0  0  0  0  0  0
  189.7640  177.3190  136.0920 O   0  0  0  0  0  1  0  0  0  0  0  0
  188.6180  177.3490  138.0900 C   0  0  2  0  0  3  0  0  0  0  0  0
  188.7810  178.0030  136.7700 C   0  0  1  0  0  0  0  0  0  0  0  0
  189.0510  178.7720  138.0730 C   0  0  0  0  0  2  0  0  0  0  0  0
  187.3500  178.2370  136.2110 C   0  0  0  0  0  2  0  0  0  0  0  0
  185.6220  176.3900  136.9700 C   0  0  0  0  0  1  0  0  0  0  0  0
  185.6690  176.9720  134.6880 C   0  0  0  0  0  1  0  0  0  0  0  0
  186.4800  176.9970  135.9110 C   0  0  0  0  0  3  0  0  0  0  0  0
  1  5  2  0  0  0  0
  2  4  2  0  0  0  0
  2 19  1  0  0  0  0
  3  1  1  1  0  0  0
  4 17  1  0  0  0  0
  5  6  1  0  0  0  0
  5 15  1  0  0  0  0
  6 11  1  0  0  0  0
  7  3  1  0  0  0  0
  8 20  2  0  0  0  0
 10  8  1  0  0  0  0
 10 22  1  0  0  0  0
 11 13  1  0  0  0  0
 11  9  2  0  0  0  0
 12 25  1  6  0  0  0
 12 14  1  0  0  0  0
 14 10  1  0  0  0  0
 15 13  2  0  0  0  0
 16 35  1  6  0  0  0
 16  7  1  0  0  0  0
 16  2  1  0  0  0  0
 17 12  1  0  0  0  0
 18  6  2  0  0  0  0
 18  8  1  0  0  0  0
 19  3  1  0  0  0  0
 20  9  1  0  0  0  0
 22 21  1  0  0  0  0
 22 23  1  0  0  0  0
 24 22  2  0  0  0  0
 25 26  1  1  0  0  0
 27 25  1  0  0  0  0
 28 27  1  0  0  0  0
 29 30  1  0  0  0  0
 29 28  1  0  0  0  0
 31 32  2  0  0  0  0
 32 30  1  0  0  0  0
 33 32  1  0  0  0  0
 35 34  1  1  0  0  0
 37 35  1  6  0  0  0
 38 36  1  6  0  0  0
 38 39  1  0  0  0  0
 38 37  1  0  0  0  0
 39 37  1  0  0  0  0
 40 38  1  0  0  0  0
 42 43  1  0  0  0  0
 43 40  1  0  0  0  0
 43 41  1  0  0  0  0
M  END
>  <MODEL>
4

>  <REMARK>
 VINA RESULT:      -7.3      1.354      1.725
  Name = 
  10 active torsions:
  status: ('A' for Active; 'I' for Inactive)
    1  A    between atoms: C_2  and  C_24
    2  A    between atoms: C_2  and  C_28
    3  A    between atoms: C_3  and  C_34
    4  A    between atoms: C_3  and  C_40
    5  A    between atoms: C_13  and  C_39
    6  A    between atoms: C_16  and  C_32
    7  A    between atoms: C_16  and  C_33
    8  A    between atoms: N_19  and  P_22
    9  A    between atoms: C_27  and  N_43
   10  A    between atoms: C_28  and  C_39
                            x       y       z     vdW  Elec       q    Type
                         _______ _______ _______ _____ _____    ______ ____

>  <TORSDO>
F 10

$$$$
=
 OpenBabel10222418563D

 43 47  0  0  1  0  0  0  0  0999 V2000
  182.5910  178.1030  139.1300 C   0  0  0  0  0  3  0  0  0  0  0  0
  186.1830  178.3170  139.1870 C   0  0  0  0  0  0  0  0  0  0  0  0
  183.9940  177.7580  138.8480 C   0  0  1  0  0  3  0  0  0  0  0  0
  186.9750  178.2510  140.1800 N   0  0  0  0  0  0  0  0  0  0  0  0
  182.0830  178.4670  140.3410 C   0  0  0  0  0  0  0  0  0  0  0  0
  182.6480  178.6510  141.7480 C   0  0  0  0  0  0  0  0  0  0  0  0
  184.6940  177.1700  137.2340 S   0  0  0  0  0  0  0  0  0  0  0  0
  184.0410  178.8160  143.7410 C   0  0  0  0  0  0  0  0  0  0  0  0
  181.6230  178.9390  143.8690 N   0  0  0  0  0  0  0  0  0  0  0  0
  185.3510  178.9830  144.3850 N   0  0  0  0  0  0  0  0  0  0  0  0
  181.5010  178.8610  142.4930 C   0  0  0  0  0  0  0  0  0  0  0  0
  186.8550  178.1870  142.7040 C   0  0  1  0  0  3  0  0  0  0  0  0
  180.3190  178.8570  141.7430 N   0  0  0  0  0  0  0  0  0  0  0  0
  186.5510  179.3700  143.5920 C   0  0  0  0  0  2  0  0  0  0  0  0
  180.6950  178.6100  140.3940 N   0  0  0  0  0  0  0  0  0  0  0  0
  186.3780  177.7100  137.8470 C   0  0  1  0  0  3  0  0  0  0  0  0
  186.4390  178.5800  141.4390 N   0  0  0  0  0  2  0  0  0  0  0  0
  183.8990  178.5930  142.3430 C   0  0  0  0  0  3  0  0  0  0  0  0
  184.8540  178.6150  139.4880 O   0  0  0  0  0  0  0  0  0  0  0  0
  182.8450  178.9190  144.4770 C   0  0  0  0  0  3  0  0  0  0  0  0
  187.6350  178.1980  146.1900 O   0  0  0  0  0  1  0  0  0  0  0  0
  185.9550  178.2640  145.8830 P   0  0  0  0  0  0  0  0  0  0  0  0
  185.6350  176.8000  145.6770 O   0  0  0  0  0  0  0  0  0  0  0  0
  185.0900  178.7560  147.2320 O   0  0  0  0  0  1  0  0  0  0  0  0
  188.2880  177.5410  142.5840 C   0  0  2  0  0  3  0  0  0  0  0  0
  188.2240  176.1420  143.1860 C   0  0  0  0  0  1  0  0  0  0  0  0
  189.4760  178.4350  143.0330 C   0  0  0  0  0  2  0  0  0  0  0  0
  190.5690  177.4720  143.4890 C   0  0  0  0  0  2  0  0  0  0  0  0
  191.0020  177.5750  144.8600 C   0  0  0  0  0  2  0  0  0  0  0  0
  191.0800  176.4940  145.5680 N   0  0  0  0  0  2  0  0  0  0  0  0
  190.2960  177.2510  147.6970 O   0  0  0  0  0  1  0  0  0  0  0  0
  191.3170  176.6950  146.9120 C   0  0  0  0  0  0  0  0  0  0  0  0
  192.4380  176.4320  147.4290 O   0  0  0  0  0  0  0  0  0  0  0  0
  187.8270  179.5600  136.8490 O   0  0  0  0  0  1  0  0  0  0  0  0
  187.3680  178.2170  136.8050 C   0  0  1  0  0  3  0  0  0  0  0  0
  189.7190  177.9280  138.2680 O   0  0  0  0  0  1  0  0  0  0  0  0
  188.4710  177.1550  136.4930 C   0  0  2  0  0  3  0  0  0  0  0  0
  189.8400  177.3450  137.0270 C   0  0  1  0  0  0  0  0  0  0  0  0
  189.3910  178.0430  135.7340 C   0  0  0  0  0  2  0  0  0  0  0  0
  190.6070  176.0180  136.7680 C   0  0  0  0  0  2  0  0  0  0  0  0
  192.9000  176.1190  138.0750 C   0  0  0  0  0  1  0  0  0  0  0  0
  192.9010  175.1270  135.9390 C   0  0  0  0  0  1  0  0  0  0  0  0
  192.1510  176.0610  136.7850 C   0  0  0  0  0  3  0  0  0  0  0  0
  1  5  2  0  0  0  0
  2 19  1  0  0  0  0
  2  4  2  0  0  0  0
  3  1  1  6  0  0  0
  3 19  1  0  0  0  0
  4 17  1  0  0  0  0
  5 15  1  0  0  0  0
  5  6  1  0  0  0  0
  6 18  2  0  0  0  0
  6 11  1  0  0  0  0
  7 16  1  0  0  0  0
  7  3  1  0  0  0  0
  8 10  1  0  0  0  0
  8 20  2  0  0  0  0
  9 20  1  0  0  0  0
 10 22  1  0  0  0  0
 11  9  2  0  0  0  0
 12 25  1  6  0  0  0
 12 14  1  0  0  0  0
 13 11  1  0  0  0  0
 14 10  1  0  0  0  0
 15 13  2  0  0  0  0
 16 35  1  6  0  0  0
 16  2  1  0  0  0  0
 17 12  1  0  0  0  0
 18  8  1  0  0  0  0
 22 21  1  0  0  0  0
 22 24  1  0  0  0  0
 23 22  2  0  0  0  0
 25 27  1  0  0  0  0
 25 26  1  1  0  0  0
 27 28  1  0  0  0  0
 28 29  1  0  0  0  0
 29 30  1  0  0  0  0
 30 32  1  0  0  0  0
 32 33  2  0  0  0  0
 32 31  1  0  0  0  0
 35 34  1  1  0  0  0
 37 35  1  1  0  0  0
 37 38  1  0  0  0  0
 38 36  1  1  0  0  0
 39 37  1  0  0  0  0
 39 38  1  0  0  0  0
 40 43  1  0  0  0  0
 40 38  1  0  0  0  0
 42 43  1  0  0  0  0
 43 41  1  0  0  0  0
M  END
>  <MODEL>
5

>  <REMARK>
 VINA RESULT:      -7.3      2.681      7.111
  Name = 
  10 active torsions:
  status: ('A' for Active; 'I' for Inactive)
    1  A    between atoms: C_2  and  C_24
    2  A    between atoms: C_2  and  C_28
    3  A    between atoms: C_3  and  C_34
    4  A    between atoms: C_3  and  C_40
    5  A    between atoms: C_13  and  C_39
    6  A    between atoms: C_16  and  C_32
    7  A    between atoms: C_16  and  C_33
    8  A    between atoms: N_19  and  P_22
    9  A    between atoms: C_27  and  N_43
   10  A    between atoms: C_28  and  C_39
                            x       y       z     vdW  Elec       q    Type
                         _______ _______ _______ _____ _____    ______ ____

>  <TORSDO>
F 10

$$$$
=
 OpenBabel10222418563D

 43 47  0  0  1  0  0  0  0  0999 V2000
  186.5430  178.1450  143.7570 C   0  0  0  0  0  3  0  0  0  0  0  0
  185.5970  178.7650  140.3400 C   0  0  0  0  0  0  0  0  0  0  0  0
  185.7490  178.0930  142.5180 C   0  0  1  0  0  3  0  0  0  0  0  0
  186.2110  178.4570  139.2690 N   0  0  0  0  0  0  0  0  0  0  0  0
  187.8970  178.0020  143.8470 C   0  0  0  0  0  0  0  0  0  0  0  0
  189.0340  177.7550  142.8580 C   0  0  0  0  0  0  0  0  0  0  0  0
  183.9020  178.1910  142.3760 S   0  0  0  0  0  0  0  0  0  0  0  0
  190.4330  177.3910  140.8960 C   0  0  0  0  0  0  0  0  0  0  0  0
  191.3140  177.1640  143.1430 N   0  0  0  0  0  0  0  0  0  0  0  0
  190.6690  177.4850  139.4490 N   0  0  0  0  0  0  0  0  0  0  0  0
  190.1100  177.5520  143.7040 C   0  0  0  0  0  0  0  0  0  0  0  0
  188.4460  177.5100  138.5660 C   0  0  1  0  0  3  0  0  0  0  0  0
  189.8020  177.6630  145.0640 N   0  0  0  0  0  0  0  0  0  0  0  0
  189.7530  178.2660  138.5710 C   0  0  0  0  0  2  0  0  0  0  0  0
  188.4110  177.9470  145.1440 N   0  0  0  0  0  0  0  0  0  0  0  0
  184.1360  178.6870  140.5870 C   0  0  1  0  0  3  0  0  0  0  0  0
  187.6010  178.2620  139.3710 N   0  0  0  0  0  2  0  0  0  0  0  0
  189.1620  177.6490  141.4820 C   0  0  0  0  0  3  0  0  0  0  0  0
  186.3700  178.7750  141.5020 O   0  0  0  0  0  0  0  0  0  0  0  0
  191.4770  177.0850  141.7900 C   0  0  0  0  0  3  0  0  0  0  0  0
  193.2510  176.3010  138.4360 O   0  0  0  0  0  1  0  0  0  0  0  0
  191.5440  176.3720  138.3890 P   0  0  0  0  0  0  0  0  0  0  0  0
  191.3110  176.9900  137.0280 O   0  0  0  0  0  0  0  0  0  0  0  0
  190.8540  174.8450  138.3430 O   0  0  0  0  0  1  0  0  0  0  0  0
  187.6740  177.1260  137.2460 C   0  0  2  0  0  3  0  0  0  0  0  0
  187.6350  175.6060  137.1500 C   0  0  0  0  0  1  0  0  0  0  0  0
  188.1010  177.8910  135.9630 C   0  0  0  0  0  2  0  0  0  0  0  0
  186.8050  178.2040  135.2190 C   0  0  0  0  0  2  0  0  0  0  0  0
  185.9850  177.0820  134.8330 C   0  0  0  0  0  2  0  0  0  0  0  0
  184.7160  177.1280  135.0810 N   0  0  0  0  0  2  0  0  0  0  0  0
  184.7790  174.7740  134.6660 O   0  0  0  0  0  0  0  0  0  0  0  0
  184.0370  175.9490  134.8550 C   0  0  0  0  0  0  0  0  0  0  0  0
  182.7780  175.9200  134.7730 O   0  0  0  0  0  1  0  0  0  0  0  0
  183.4800  180.5320  138.9480 O   0  0  0  0  0  1  0  0  0  0  0  0
  183.1080  179.6410  139.9900 C   0  0  1  0  0  3  0  0  0  0  0  0
  182.5330  177.8310  137.9540 O   0  0  0  0  0  1  0  0  0  0  0  0
  181.7210  178.9470  139.7980 C   0  0  2  0  0  3  0  0  0  0  0  0
  181.3760  178.3540  138.4840 C   0  0  1  0  0  0  0  0  0  0  0  0
  181.1890  179.8570  138.7490 C   0  0  0  0  0  2  0  0  0  0  0  0
  180.0730  177.5330  138.6950 C   0  0  0  0  0  2  0  0  0  0  0  0
  179.0250  176.0240  140.5930 C   0  0  0  0  0  1  0  0  0  0  0  0
  180.5310  175.0070  139.0940 C   0  0  0  0  0  1  0  0  0  0  0  0
  180.1360  176.3110  139.6390 C   0  0  0  0  0  3  0  0  0  0  0  0
  1  5  2  0  0  0  0
  2 16  1  0  0  0  0
  2 19  1  0  0  0  0
  3  1  1  1  0  0  0
  4 17  1  0  0  0  0
  4  2  2  0  0  0  0
  5 15  1  0  0  0  0
  6 11  1  0  0  0  0
  6  5  1  0  0  0  0
  7  3  1  0  0  0  0
  8 18  1  0  0  0  0
  8 20  2  0  0  0  0
  9 11  2  0  0  0  0
 10  8  1  0  0  0  0
 11 13  1  0  0  0  0
 12 25  1  6  0  0  0
 12 14  1  0  0  0  0
 12 17  1  0  0  0  0
 13 15  2  0  0  0  0
 14 10  1  0  0  0  0
 16 35  1  1  0  0  0
 16  7  1  0  0  0  0
 18  6  2  0  0  0  0
 19  3  1  0  0  0  0
 20  9  1  0  0  0  0
 22 21  1  0  0  0  0
 22 10  1  0  0  0  0
 23 22  2  0  0  0  0
 24 22  1  0  0  0  0
 25 26  1  6  0  0  0
 27 25  1  0  0  0  0
 28 27  1  0  0  0  0
 29 30  1  0  0  0  0
 29 28  1  0  0  0  0
 31 32  2  0  0  0  0
 32 30  1  0  0  0  0
 33 32  1  0  0  0  0
 35 34  1  6  0  0  0
 37 35  1  6  0  0  0
 38 36  1  6  0  0  0
 38 40  1  0  0  0  0
 38 39  1  0  0  0  0
 38 37  1  0  0  0  0
 39 37  1  0  0  0  0
 40 43  1  0  0  0  0
 42 43  1  0  0  0  0
 43 41  1  0  0  0  0
M  END
>  <MODEL>
6

>  <REMARK>
 VINA RESULT:      -7.1      3.559      7.106
  Name = 
  10 active torsions:
  status: ('A' for Active; 'I' for Inactive)
    1  A    between atoms: C_2  and  C_24
    2  A    between atoms: C_2  and  C_28
    3  A    between atoms: C_3  and  C_34
    4  A    between atoms: C_3  and  C_40
    5  A    between atoms: C_13  and  C_39
    6  A    between atoms: C_16  and  C_32
    7  A    between atoms: C_16  and  C_33
    8  A    between atoms: N_19  and  P_22
    9  A    between atoms: C_27  and  N_43
   10  A    between atoms: C_28  and  C_39
                            x       y       z     vdW  Elec       q    Type
                         _______ _______ _______ _____ _____    ______ ____

>  <TORSDO>
F 10

$$$$
=
 OpenBabel10222418563D

 43 47  0  0  1  0  0  0  0  0999 V2000
  185.7840  178.1050  143.4330 C   0  0  0  0  0  3  0  0  0  0  0  0
  185.0920  178.8760  139.9860 C   0  0  0  0  0  0  0  0  0  0  0  0
  185.0860  178.1060  142.1360 C   0  0  1  0  0  3  0  0  0  0  0  0
  185.7890  178.6220  138.9520 N   0  0  0  0  0  0  0  0  0  0  0  0
  187.1280  177.9680  143.6190 C   0  0  0  0  0  0  0  0  0  0  0  0
  188.3390  177.7760  142.7090 C   0  0  0  0  0  0  0  0  0  0  0  0
  183.2540  178.1960  141.8590 S   0  0  0  0  0  0  0  0  0  0  0  0
  189.8870  177.5120  140.8440 C   0  0  0  0  0  0  0  0  0  0  0  0
  190.5980  177.1880  143.1390 N   0  0  0  0  0  0  0  0  0  0  0  0
  190.2310  177.6740  139.4250 N   0  0  0  0  0  0  0  0  0  0  0  0
  189.3510  177.5410  143.6240 C   0  0  0  0  0  0  0  0  0  0  0  0
  188.0800  177.7250  138.3780 C   0  0  1  0  0  3  0  0  0  0  0  0
  188.9400  177.5870  144.9610 N   0  0  0  0  0  0  0  0  0  0  0  0
  189.3760  178.4890  138.5170 C   0  0  0  0  0  2  0  0  0  0  0  0
  187.5430  177.8570  144.9470 N   0  0  0  0  0  0  0  0  0  0  0  0
  183.6180  178.7760  140.1170 C   0  0  1  0  0  3  0  0  0  0  0  0
  187.1690  178.4330  139.1500 N   0  0  0  0  0  2  0  0  0  0  0  0
  188.5720  177.7340  141.3430 C   0  0  0  0  0  3  0  0  0  0  0  0
  185.7750  178.8380  141.2020 O   0  0  0  0  0  0  0  0  0  0  0  0
  190.8630  177.1730  141.8000 C   0  0  0  0  0  3  0  0  0  0  0  0
  190.9400  176.6080  136.6950 O   0  0  0  0  0  0  0  0  0  0  0  0
  191.1940  176.6180  138.3860 P   0  0  0  0  0  0  0  0  0  0  0  0
  190.6790  175.2480  138.7690 O   0  0  0  0  0  1  0  0  0  0  0  0
  192.8250  176.6380  138.7750 O   0  0  0  0  0  1  0  0  0  0  0  0
  187.4150  177.3960  136.9870 C   0  0  2  0  0  3  0  0  0  0  0  0
  187.2840  178.7000  136.2090 C   0  0  0  0  0  1  0  0  0  0  0  0
  186.1570  176.4880  137.0330 C   0  0  0  0  0  2  0  0  0  0  0  0
  186.6820  175.0540  137.0450 C   0  0  0  0  0  2  0  0  0  0  0  0
  185.7840  174.0240  136.5850 C   0  0  0  0  0  2  0  0  0  0  0  0
  185.1440  173.3230  137.4650 N   0  0  0  0  0  2  0  0  0  0  0  0
  185.1050  171.4040  136.0380 O   0  0  0  0  0  0  0  0  0  0  0  0
  184.4540  172.2420  136.9560 C   0  0  0  0  0  0  0  0  0  0  0  0
  183.2510  172.0240  137.2660 O   0  0  0  0  0  1  0  0  0  0  0  0
  183.0960  180.8960  138.7910 O   0  0  0  0  0  1  0  0  0  0  0  0
  182.6280  179.7490  139.4870 C   0  0  1  0  0  3  0  0  0  0  0  0
  182.8910  178.1660  137.2130 O   0  0  0  0  0  1  0  0  0  0  0  0
  181.4430  179.0000  138.7980 C   0  0  2  0  0  3  0  0  0  0  0  0
  181.5820  178.5500  137.3920 C   0  0  1  0  0  0  0  0  0  0  0  0
  181.1780  179.9950  137.7240 C   0  0  0  0  0  2  0  0  0  0  0  0
  180.3640  177.6300  137.0970 C   0  0  0  0  0  2  0  0  0  0  0  0
  181.4980  175.2690  136.7610 C   0  0  0  0  0  1  0  0  0  0  0  0
  180.5210  175.7250  138.8550 C   0  0  0  0  0  1  0  0  0  0  0  0
  180.4900  176.1310  137.4450 C   0  0  0  0  0  3  0  0  0  0  0  0
  1  5  2  0  0  0  0
  2 16  1  0  0  0  0
  2 19  1  0  0  0  0
  3  1  1  1  0  0  0
  4 17  1  0  0  0  0
  4  2  2  0  0  0  0
  5 15  1  0  0  0  0
  6  5  1  0  0  0  0
  6 11  1  0  0  0  0
  7  3  1  0  0  0  0
  8 18  1  0  0  0  0
  8 20  2  0  0  0  0
  9 11  2  0  0  0  0
 10  8  1  0  0  0  0
 11 13  1  0  0  0  0
 12 25  1  6  0  0  0
 12 14  1  0  0  0  0
 12 17  1  0  0  0  0
 14 10  1  0  0  0  0
 15 13  2  0  0  0  0
 16 35  1  1  0  0  0
 16  7  1  0  0  0  0
 18  6  2  0  0  0  0
 19  3  1  0  0  0  0
 20  9  1  0  0  0  0
 21 22  2  0  0  0  0
 22 23  1  0  0  0  0
 22 24  1  0  0  0  0
 22 10  1  0  0  0  0
 25 26  1  1  0  0  0
 25 27  1  0  0  0  0
 27 28  1  0  0  0  0
 29 28  1  0  0  0  0
 29 30  1  0  0  0  0
 31 32  2  0  0  0  0
 32 33  1  0  0  0  0
 32 30  1  0  0  0  0
 35 34  1  6  0  0  0
 37 35  1  1  0  0  0
 38 36  1  6  0  0  0
 38 39  1  0  0  0  0
 38 37  1  0  0  0  0
 39 37  1  0  0  0  0
 40 38  1  0  0  0  0
 40 43  1  0  0  0  0
 41 43  1  0  0  0  0
 43 42  1  0  0  0  0
M  END
>  <MODEL>
7

>  <REMARK>
 VINA RESULT:      -7.1      3.787      7.071
  Name = 
  10 active torsions:
  status: ('A' for Active; 'I' for Inactive)
    1  A    between atoms: C_2  and  C_24
    2  A    between atoms: C_2  and  C_28
    3  A    between atoms: C_3  and  C_34
    4  A    between atoms: C_3  and  C_40
    5  A    between atoms: C_13  and  C_39
    6  A    between atoms: C_16  and  C_32
    7  A    between atoms: C_16  and  C_33
    8  A    between atoms: N_19  and  P_22
    9  A    between atoms: C_27  and  N_43
   10  A    between atoms: C_28  and  C_39
                            x       y       z     vdW  Elec       q    Type
                         _______ _______ _______ _____ _____    ______ ____

>  <TORSDO>
F 10

$$$$
=
 OpenBabel10222418563D

 43 47  0  0  1  0  0  0  0  0999 V2000
  182.4260  178.1280  139.0930 C   0  0  0  0  0  3  0  0  0  0  0  0
  186.0180  178.3260  139.0190 C   0  0  0  0  0  0  0  0  0  0  0  0
  183.8160  177.7780  138.7580 C   0  0  1  0  0  3  0  0  0  0  0  0
  186.8460  178.2510  139.9820 N   0  0  0  0  0  0  0  0  0  0  0  0
  181.9640  178.4870  140.3250 C   0  0  0  0  0  0  0  0  0  0  0  0
  182.5810  178.6610  141.7110 C   0  0  0  0  0  0  0  0  0  0  0  0
  184.4530  177.1960  137.1160 S   0  0  0  0  0  0  0  0  0  0  0  0
  184.0480  178.8090  143.6520 C   0  0  0  0  0  0  0  0  0  0  0  0
  181.6360  178.9420  143.8690 N   0  0  0  0  0  0  0  0  0  0  0  0
  185.3810  178.9670  144.2480 N   0  0  0  0  0  0  0  0  0  0  0  0
  181.4630  178.8720  142.4980 C   0  0  0  0  0  0  0  0  0  0  0  0
  186.8180  178.1740  142.5080 C   0  0  1  0  0  3  0  0  0  0  0  0
  180.2550  178.8770  141.7930 N   0  0  0  0  0  0  0  0  0  0  0  0
  186.5530  179.3540  143.4140 C   0  0  0  0  0  2  0  0  0  0  0  0
  180.5800  178.6360  140.4290 N   0  0  0  0  0  0  0  0  0  0  0  0
  186.1600  177.7250  137.6700 C   0  0  1  0  0  3  0  0  0  0  0  0
  186.3570  178.5760  141.2620 N   0  0  0  0  0  2  0  0  0  0  0  0
  183.8530  178.5940  142.2590 C   0  0  0  0  0  3  0  0  0  0  0  0
  184.7030  178.6280  139.3710 O   0  0  0  0  0  0  0  0  0  0  0  0
  182.8800  178.9130  144.4320 C   0  0  0  0  0  3  0  0  0  0  0  0
  187.7230  178.2230  145.9950 O   0  0  0  0  0  1  0  0  0  0  0  0
  186.0360  178.2380  145.7190 P   0  0  0  0  0  0  0  0  0  0  0  0
  185.7630  176.7680  145.4860 O   0  0  0  0  0  0  0  0  0  0  0  0
  185.1800  178.6690  147.0940 O   0  0  0  0  0  1  0  0  0  0  0  0
  188.2430  177.5220  142.3330 C   0  0  2  0  0  3  0  0  0  0  0  0
  188.2700  176.2280  143.1370 C   0  0  0  0  0  1  0  0  0  0  0  0
  189.4540  178.4770  142.5140 C   0  0  0  0  0  2  0  0  0  0  0  0
  190.6520  177.5760  142.8050 C   0  0  0  0  0  2  0  0  0  0  0  0
  191.6550  177.4680  141.7750 C   0  0  0  0  0  2  0  0  0  0  0  0
  191.2710  177.4010  140.5410 N   0  0  0  0  0  2  0  0  0  0  0  0
  193.5910  177.4510  139.9650 O   0  0  0  0  0  1  0  0  0  0  0  0
  192.2710  177.1120  139.6360 C   0  0  0  0  0  0  0  0  0  0  0  0
  192.0140  176.5940  138.5150 O   0  0  0  0  0  0  0  0  0  0  0  0
  188.0090  179.3000  136.8790 O   0  0  0  0  0  1  0  0  0  0  0  0
  187.1140  178.2340  136.5950 C   0  0  1  0  0  3  0  0  0  0  0  0
  188.8700  176.3420  137.6380 O   0  0  0  0  0  1  0  0  0  0  0  0
  187.7300  177.0590  135.7690 C   0  0  2  0  0  3  0  0  0  0  0  0
  188.9510  176.3790  136.2640 C   0  0  1  0  0  0  0  0  0  0  0  0
  189.0420  177.6940  135.4730 C   0  0  0  0  0  2  0  0  0  0  0  0
  189.1490  175.1190  135.3760 C   0  0  0  0  0  2  0  0  0  0  0  0
  190.8000  173.6990  136.8700 C   0  0  0  0  0  1  0  0  0  0  0  0
  188.5290  173.0710  136.8480 C   0  0  0  0  0  1  0  0  0  0  0  0
  189.5420  173.7990  136.0740 C   0  0  0  0  0  3  0  0  0  0  0  0
  1  5  2  0  0  0  0
  2 19  1  0  0  0  0
  2  4  2  0  0  0  0
  3  1  1  6  0  0  0
  3 19  1  0  0  0  0
  4 17  1  0  0  0  0
  5 15  1  0  0  0  0
  5  6  1  0  0  0  0
  6 18  2  0  0  0  0
  6 11  1  0  0  0  0
  7 16  1  0  0  0  0
  7  3  1  0  0  0  0
  8 10  1  0  0  0  0
  8 20  2  0  0  0  0
  9 20  1  0  0  0  0
 10 22  1  0  0  0  0
 11  9  2  0  0  0  0
 12 25  1  6  0  0  0
 12 14  1  0  0  0  0
 13 11  1  0  0  0  0
 14 10  1  0  0  0  0
 15 13  2  0  0  0  0
 16 35  1  6  0  0  0
 16  2  1  0  0  0  0
 17 12  1  0  0  0  0
 18  8  1  0  0  0  0
 22 21  1  0  0  0  0
 22 24  1  0  0  0  0
 23 22  2  0  0  0  0
 25 27  1  0  0  0  0
 25 26  1  1  0  0  0
 27 28  1  0  0  0  0
 29 28  1  0  0  0  0
 30 29  1  0  0  0  0
 32 31  1  0  0  0  0
 32 30  1  0  0  0  0
 33 32  2  0  0  0  0
 35 34  1  1  0  0  0
 37 38  1  0  0  0  0
 37 35  1  1  0  0  0
 38 36  1  1  0  0  0
 39 37  1  0  0  0  0
 39 38  1  0  0  0  0
 40 43  1  0  0  0  0
 40 38  1  0  0  0  0
 43 42  1  0  0  0  0
 43 41  1  0  0  0  0
M  END
>  <MODEL>
8

>  <REMARK>
 VINA RESULT:      -7.1      3.163      7.105
  Name = 
  10 active torsions:
  status: ('A' for Active; 'I' for Inactive)
    1  A    between atoms: C_2  and  C_24
    2  A    between atoms: C_2  and  C_28
    3  A    between atoms: C_3  and  C_34
    4  A    between atoms: C_3  and  C_40
    5  A    between atoms: C_13  and  C_39
    6  A    between atoms: C_16  and  C_32
    7  A    between atoms: C_16  and  C_33
    8  A    between atoms: N_19  and  P_22
    9  A    between atoms: C_27  and  N_43
   10  A    between atoms: C_28  and  C_39
                            x       y       z     vdW  Elec       q    Type
                         _______ _______ _______ _____ _____    ______ ____

>  <TORSDO>
F 10

$$$$
=
 OpenBabel10222418563D

 43 47  0  0  1  0  0  0  0  0999 V2000
  182.7070  178.1890  139.0810 C   0  0  0  0  0  3  0  0  0  0  0  0
  186.2930  178.4670  139.2110 C   0  0  0  0  0  0  0  0  0  0  0  0
  184.1210  177.8770  138.8170 C   0  0  1  0  0  3  0  0  0  0  0  0
  187.0670  178.3900  140.2170 N   0  0  0  0  0  0  0  0  0  0  0  0
  182.1700  178.5110  140.2920 C   0  0  0  0  0  0  0  0  0  0  0  0
  182.7050  178.6680  141.7130 C   0  0  0  0  0  0  0  0  0  0  0  0
  184.8610  177.3440  137.2010 S   0  0  0  0  0  0  0  0  0  0  0  0
  184.0590  178.8070  143.7360 C   0  0  0  0  0  0  0  0  0  0  0  0
  181.6370  178.8820  143.8210 N   0  0  0  0  0  0  0  0  0  0  0  0
  185.3530  178.9820  144.4080 N   0  0  0  0  0  0  0  0  0  0  0  0
  181.5410  178.8380  142.4410 C   0  0  0  0  0  0  0  0  0  0  0  0
  186.9020  178.2580  142.7350 C   0  0  1  0  0  3  0  0  0  0  0  0
  180.3740  178.8320  141.6700 N   0  0  0  0  0  0  0  0  0  0  0  0
  186.5600  179.4110  143.6480 C   0  0  0  0  0  2  0  0  0  0  0  0
  180.7790  178.6280  140.3220 N   0  0  0  0  0  0  0  0  0  0  0  0
  186.5230  177.8990  137.8600 C   0  0  1  0  0  3  0  0  0  0  0  0
  186.5020  178.6760  141.4730 N   0  0  0  0  0  2  0  0  0  0  0  0
  183.9460  178.6180  142.3300 C   0  0  0  0  0  3  0  0  0  0  0  0
  184.9530  178.7330  139.4950 O   0  0  0  0  0  0  0  0  0  0  0  0
  182.8480  178.8690  144.4520 C   0  0  0  0  0  3  0  0  0  0  0  0
  187.6140  178.2430  146.2620 O   0  0  0  0  0  1  0  0  0  0  0  0
  185.9440  178.2350  145.8980 P   0  0  0  0  0  0  0  0  0  0  0  0
  185.7090  176.7650  145.6250 O   0  0  0  0  0  0  0  0  0  0  0  0
  185.0080  178.6260  147.2330 O   0  0  0  0  0  1  0  0  0  0  0  0
  188.3500  177.6410  142.6260 C   0  0  2  0  0  3  0  0  0  0  0  0
  188.2950  176.2160  143.1620 C   0  0  0  0  0  1  0  0  0  0  0  0
  189.5090  178.5340  143.1460 C   0  0  0  0  0  2  0  0  0  0  0  0
  190.6260  177.5720  143.5410 C   0  0  0  0  0  2  0  0  0  0  0  0
  191.0740  177.6160  144.9110 C   0  0  0  0  0  2  0  0  0  0  0  0
  190.9030  176.5700  145.6530 N   0  0  0  0  0  2  0  0  0  0  0  0
  192.4300  176.3340  147.4780 O   0  0  0  0  0  0  0  0  0  0  0  0
  191.1840  176.7540  146.9910 C   0  0  0  0  0  0  0  0  0  0  0  0
  190.3320  177.2470  147.7800 O   0  0  0  0  0  1  0  0  0  0  0  0
  188.5250  179.3680  137.2640 O   0  0  0  0  0  1  0  0  0  0  0  0
  187.5220  178.4510  136.8500 C   0  0  1  0  0  3  0  0  0  0  0  0
  188.9490  176.1860  137.6120 O   0  0  0  0  0  1  0  0  0  0  0  0
  188.0100  177.3470  135.8580 C   0  0  2  0  0  3  0  0  0  0  0  0
  189.1000  176.4290  136.2660 C   0  0  1  0  0  0  0  0  0  0  0  0
  189.4090  177.8250  135.7030 C   0  0  0  0  0  2  0  0  0  0  0  0
  189.1660  175.3100  135.1880 C   0  0  0  0  0  2  0  0  0  0  0  0
  189.4200  173.0820  136.5830 C   0  0  0  0  0  1  0  0  0  0  0  0
  187.2550  173.6980  135.8910 C   0  0  0  0  0  1  0  0  0  0  0  0
  188.6750  173.9000  135.5820 C   0  0  0  0  0  3  0  0  0  0  0  0
  1  5  2  0  0  0  0
  2 19  1  0  0  0  0
  2  4  2  0  0  0  0
  3  1  1  6  0  0  0
  3 19  1  0  0  0  0
  4 17  1  0  0  0  0
  5 15  1  0  0  0  0
  5  6  1  0  0  0  0
  6 18  2  0  0  0  0
  6 11  1  0  0  0  0
  7 16  1  0  0  0  0
  7  3  1  0  0  0  0
  8 10  1  0  0  0  0
  8 20  2  0  0  0  0
  9 20  1  0  0  0  0
 10 22  1  0  0  0  0
 11  9  2  0  0  0  0
 12 25  1  6  0  0  0
 12 14  1  0  0  0  0
 13 11  1  0  0  0  0
 14 10  1  0  0  0  0
 15 13  2  0  0  0  0
 16 35  1  6  0  0  0
 16  2  1  0  0  0  0
 17 12  1  0  0  0  0
 18  8  1  0  0  0  0
 22 21  1  0  0  0  0
 22 24  1  0  0  0  0
 23 22  2  0  0  0  0
 25 27  1  0  0  0  0
 25 26  1  1  0  0  0
 27 28  1  0  0  0  0
 28 29  1  0  0  0  0
 29 30  1  0  0  0  0
 30 32  1  0  0  0  0
 32 31  2  0  0  0  0
 32 33  1  0  0  0  0
 35 34  1  1  0  0  0
 37 38  1  0  0  0  0
 37 35  1  1  0  0  0
 38 36  1  1  0  0  0
 39 37  1  0  0  0  0
 39 38  1  0  0  0  0
 40 43  1  0  0  0  0
 40 38  1  0  0  0  0
 43 42  1  0  0  0  0
 43 41  1  0  0  0  0
M  END
>  <MODEL>
9

>  <REMARK>
 VINA RESULT:      -7.1      2.688      6.944
  Name = 
  10 active torsions:
  status: ('A' for Active; 'I' for Inactive)
    1  A    between atoms: C_2  and  C_24
    2  A    between atoms: C_2  and  C_28
    3  A    between atoms: C_3  and  C_34
    4  A    between atoms: C_3  and  C_40
    5  A    between atoms: C_13  and  C_39
    6  A    between atoms: C_16  and  C_32
    7  A    between atoms: C_16  and  C_33
    8  A    between atoms: N_19  and  P_22
    9  A    between atoms: C_27  and  N_43
   10  A    between atoms: C_28  and  C_39
                            x       y       z     vdW  Elec       q    Type
                         _______ _______ _______ _____ _____    ______ ____

>  <TORSDO>
F 10

$$$$
