=
 OpenBabel10222415453D

 44 47  0  0  1  0  0  0  0  0999 V2000
  192.7030  176.3410  138.7100 C   0  0  0  0  0  0  0  0  0  0  0  0
  190.5670  177.1490  139.8670 C   0  0  0  0  0  0  0  0  0  0  0  0
  193.4490  177.2000  139.2490 O   0  0  0  0  0  0  0  0  0  0  0  0
  189.2960  177.3240  139.6800 N   0  0  0  0  0  0  0  0  0  0  0  0
  191.2870  176.3460  138.9230 N   0  0  0  0  0  2  0  0  0  0  0  0
  193.2980  175.3310  137.7950 C   0  0  0  0  0  1  0  0  0  0  0  0
  191.2080  177.6900  141.0840 C   0  0  0  0  0  3  0  0  0  0  0  0
  191.5910  176.2420  143.2230 C   0  0  0  0  0  3  0  0  0  0  0  0
  191.4150  176.9550  142.1410 C   0  0  0  0  0  0  0  0  0  0  0  0
  190.8950  176.7810  146.8930 C   0  0  0  0  0  3  0  0  0  0  0  0
  189.6040  177.2010  146.8380 N   0  0  0  0  0  0  0  0  0  0  0  0
  188.9360  177.3250  145.6560 C   0  0  0  0  0  0  0  0  0  0  0  0
  190.9210  176.5750  144.4880 C   0  0  0  0  0  0  0  0  0  0  0  0
  191.5780  176.4610  145.7210 C   0  0  0  0  0  3  0  0  0  0  0  0
  189.5960  177.0080  144.4590 C   0  0  0  0  0  3  0  0  0  0  0  0
  187.5300  177.7820  145.6460 C   0  0  0  0  0  0  0  0  0  0  0  0
  184.6010  178.2990  143.4720 N   0  0  0  0  0  0  0  0  0  0  0  0
  184.8860  178.6540  145.6320 C   0  0  0  0  0  0  0  0  0  0  0  0
  186.9090  178.2350  146.8400 C   0  0  0  0  0  3  0  0  0  0  0  0
  183.4440  178.7870  143.9690 C   0  0  0  0  0  3  0  0  0  0  0  0
  184.8300  177.9450  142.1630 O   0  0  0  0  0  1  0  0  0  0  0  0
  183.5840  179.0260  145.3420 C   0  0  0  0  0  3  0  0  0  0  0  0
  186.7940  177.7720  144.4400 C   0  0  0  0  0  3  0  0  0  0  0  0
  185.4750  178.2180  144.4800 C   0  0  0  0  0  0  0  0  0  0  0  0
  185.5730  178.6750  146.8420 C   0  0  0  0  0  3  0  0  0  0  0  0
  188.5020  178.0220  140.6000 N   0  0  0  0  0  2  0  0  0  0  0  0
  187.2140  178.4640  140.2570 N   0  0  0  0  0  2  0  0  0  0  0  0
  187.1110  178.4900  138.8010 C   0  0  0  0  0  2  0  0  0  0  0  0
  183.3450  178.2810  138.2150 N   0  0  0  0  0  2  0  0  0  0  0  0
  185.7900  178.0560  138.3710 N   0  0  0  0  0  2  0  0  0  0  0  0
  184.6140  178.8470  138.5420 C   0  0  0  0  0  0  0  0  0  0  0  0
  184.6970  180.0300  138.9690 O   0  0  0  0  0  0  0  0  0  0  0  0
  182.1160  179.0560  138.2490 C   0  0  0  0  0  2  0  0  0  0  0  0
  181.0430  178.2450  138.8040 N   0  0  0  0  0  0  0  0  0  0  0  0
  179.4370  180.0840  142.6040 C   0  0  0  0  0  3  0  0  0  0  0  0
  180.3510  178.6870  139.9880 C   0  0  0  0  0  0  0  0  0  0  0  0
  179.5650  178.3950  144.3050 N   0  0  0  0  0  1  0  0  0  0  0  0
  180.3290  180.0010  140.2820 C   0  0  0  0  0  3  0  0  0  0  0  0
  179.6530  180.6530  141.4200 C   0  0  0  0  0  3  0  0  0  0  0  0
  179.5800  177.7180  140.7300 N   0  0  0  0  0  0  0  0  0  0  0  0
  179.9330  178.7220  142.9390 C   0  0  1  0  0  3  0  0  0  0  0  0
  179.3520  177.7110  142.0100 C   0  0  0  0  0  3  0  0  0  0  0  0
  179.7610  177.4010  136.8950 C   0  0  0  0  0  1  0  0  0  0  0  0
  180.6550  177.0420  138.0670 C   0  0  0  0  0  2  0  0  0  0  0  0
  1  5  1  0  0  0  0
  1  3  2  0  0  0  0
  2  7  1  0  0  0  0
  4  2  2  0  0  0  0
  4 26  1  0  0  0  0
  5  2  1  0  0  0  0
  6  1  1  0  0  0  0
  7  9  2  0  0  0  0
  8 13  1  0  0  0  0
  9  8  2  0  0  0  0
 11 10  1  0  0  0  0
 12 11  2  0  0  0  0
 13 14  1  0  0  0  0
 14 10  2  0  0  0  0
 15 13  2  0  0  0  0
 15 12  1  0  0  0  0
 16 12  1  0  0  0  0
 16 19  1  0  0  0  0
 17 20  1  0  0  0  0
 17 24  1  0  0  0  0
 18 25  1  0  0  0  0
 19 25  2  0  0  0  0
 20 22  2  0  0  0  0
 21 17  1  0  0  0  0
 22 18  1  0  0  0  0
 23 24  1  0  0  0  0
 23 16  2  0  0  0  0
 24 18  2  0  0  0  0
 27 26  1  0  0  0  0
 28 27  1  0  0  0  0
 29 33  1  0  0  0  0
 29 31  1  0  0  0  0
 30 31  1  0  0  0  0
 30 28  1  0  0  0  0
 31 32  2  0  0  0  0
 33 34  1  0  0  0  0
 34 36  1  0  0  0  0
 35 41  1  0  0  0  0
 36 38  2  0  0  0  0
 36 40  1  0  0  0  0
 38 39  1  0  0  0  0
 39 35  2  0  0  0  0
 40 42  2  0  0  0  0
 41 37  1  1  0  0  0
 42 41  1  0  0  0  0
 43 44  1  0  0  0  0
 44 34  1  0  0  0  0
M  END
>  <MODEL>
1

>  <REMARK>
 VINA RESULT:     -10.0      0.000      0.000
  Name = 
  11 active torsions:
  status: ('A' for Active; 'I' for Inactive)
    1  A    between atoms: N_1  and  C_41
    2  A    between atoms: N_2  and  N_12
    3  A    between atoms: N_2  and  C_43
    4  A    between atoms: C_4  and  N_25
    5  A    between atoms: C_5  and  C_24
    6  A    between atoms: N_8  and  C_43
    7  A    between atoms: N_12  and  N_32
    8  A    between atoms: C_15  and  C_22
    9  A    between atoms: C_17  and  N_25
   10  A    between atoms: N_25  and  C_41
   11  A    between atoms: C_30  and  C_31
                            x       y       z     vdW  Elec       q    Type
                         _______ _______ _______ _____ _____    ______ ____

>  <TORSDO>
F 11

$$$$
=
 OpenBabel10222415453D

 44 47  0  0  1  0  0  0  0  0999 V2000
  192.7690  176.3100  138.6500 C   0  0  0  0  0  0  0  0  0  0  0  0
  190.6240  176.9860  139.8730 C   0  0  0  0  0  0  0  0  0  0  0  0
  193.4780  177.2090  139.1730 O   0  0  0  0  0  0  0  0  0  0  0  0
  189.3390  177.0860  139.7230 N   0  0  0  0  0  0  0  0  0  0  0  0
  191.3620  176.2310  138.9030 N   0  0  0  0  0  2  0  0  0  0  0  0
  193.3950  175.3400  137.7120 C   0  0  0  0  0  1  0  0  0  0  0  0
  191.2660  177.5580  141.0750 C   0  0  0  0  0  3  0  0  0  0  0  0
  191.6040  176.1820  143.2680 C   0  0  0  0  0  3  0  0  0  0  0  0
  191.4510  176.8580  142.1590 C   0  0  0  0  0  0  0  0  0  0  0  0
  190.9100  176.9180  146.9040 C   0  0  0  0  0  3  0  0  0  0  0  0
  189.6110  177.3090  146.8300 N   0  0  0  0  0  0  0  0  0  0  0  0
  188.9370  177.3520  145.6460 C   0  0  0  0  0  0  0  0  0  0  0  0
  190.9320  176.5740  144.5140 C   0  0  0  0  0  0  0  0  0  0  0  0
  191.5950  176.5450  145.7490 C   0  0  0  0  0  3  0  0  0  0  0  0
  189.5990  176.9790  144.4660 C   0  0  0  0  0  3  0  0  0  0  0  0
  187.5220  177.7800  145.6160 C   0  0  0  0  0  0  0  0  0  0  0  0
  184.6370  178.3090  143.3880 N   0  0  0  0  0  0  0  0  0  0  0  0
  184.8620  178.5980  145.5640 C   0  0  0  0  0  0  0  0  0  0  0  0
  186.8640  178.1810  146.8080 C   0  0  0  0  0  3  0  0  0  0  0  0
  183.4580  178.7570  143.8720 C   0  0  0  0  0  3  0  0  0  0  0  0
  184.9040  178.0040  142.0740 O   0  0  0  0  0  1  0  0  0  0  0  0
  183.5600  178.9530  145.2550 C   0  0  0  0  0  3  0  0  0  0  0  0
  186.8160  177.7950  144.3930 C   0  0  0  0  0  3  0  0  0  0  0  0
  185.4870  178.2130  144.4140 C   0  0  0  0  0  0  0  0  0  0  0  0
  185.5190  178.5940  146.7910 C   0  0  0  0  0  3  0  0  0  0  0  0
  188.5330  177.7320  140.6700 N   0  0  0  0  0  2  0  0  0  0  0  0
  187.4320  178.5100  140.2750 N   0  0  0  0  0  2  0  0  0  0  0  0
  187.3420  178.4690  138.8190 C   0  0  0  0  0  2  0  0  0  0  0  0
  183.5950  178.0200  138.2460 N   0  0  0  0  0  2  0  0  0  0  0  0
  186.0490  177.9490  138.3970 N   0  0  0  0  0  2  0  0  0  0  0  0
  184.8270  178.6660  138.5640 C   0  0  0  0  0  0  0  0  0  0  0  0
  184.8370  179.8580  138.9770 O   0  0  0  0  0  0  0  0  0  0  0  0
  182.3190  178.7170  138.2760 C   0  0  0  0  0  2  0  0  0  0  0  0
  181.5060  178.1990  139.3650 N   0  0  0  0  0  0  0  0  0  0  0  0
  179.3480  174.2380  139.1350 C   0  0  0  0  0  3  0  0  0  0  0  0
  180.6700  177.0450  139.1500 C   0  0  0  0  0  0  0  0  0  0  0  0
  179.6800  173.3900  136.9140 N   0  0  0  0  0  1  0  0  0  0  0  0
  180.3860  176.2390  140.1900 C   0  0  0  0  0  3  0  0  0  0  0  0
  179.5290  175.0380  140.1840 C   0  0  0  0  0  3  0  0  0  0  0  0
  180.0480  176.8850  137.8580 N   0  0  0  0  0  0  0  0  0  0  0  0
  180.0670  174.4330  137.8470 C   0  0  1  0  0  3  0  0  0  0  0  0
  179.7440  175.7680  137.2670 C   0  0  0  0  0  3  0  0  0  0  0  0
  180.3980  179.6180  141.0270 C   0  0  0  0  0  1  0  0  0  0  0  0
  181.6490  178.8350  140.6750 C   0  0  0  0  0  2  0  0  0  0  0  0
  1  5  1  0  0  0  0
  1  3  2  0  0  0  0
  2  7  1  0  0  0  0
  4  2  2  0  0  0  0
  4 26  1  0  0  0  0
  5  2  1  0  0  0  0
  6  1  1  0  0  0  0
  7  9  2  0  0  0  0
  8 13  1  0  0  0  0
  9  8  2  0  0  0  0
 11 10  1  0  0  0  0
 12 11  2  0  0  0  0
 13 14  1  0  0  0  0
 14 10  2  0  0  0  0
 15 13  2  0  0  0  0
 15 12  1  0  0  0  0
 16 12  1  0  0  0  0
 16 19  1  0  0  0  0
 17 20  1  0  0  0  0
 17 24  1  0  0  0  0
 18 25  1  0  0  0  0
 20 22  2  0  0  0  0
 21 17  1  0  0  0  0
 22 18  1  0  0  0  0
 23 24  1  0  0  0  0
 23 16  2  0  0  0  0
 24 18  2  0  0  0  0
 25 19  2  0  0  0  0
 27 26  1  0  0  0  0
 28 27  1  0  0  0  0
 29 33  1  0  0  0  0
 29 31  1  0  0  0  0
 30 31  1  0  0  0  0
 30 28  1  0  0  0  0
 31 32  2  0  0  0  0
 33 34  1  0  0  0  0
 34 44  1  0  0  0  0
 35 39  2  0  0  0  0
 36 34  1  0  0  0  0
 36 38  2  0  0  0  0
 39 38  1  0  0  0  0
 40 36  1  0  0  0  0
 41 37  1  6  0  0  0
 41 35  1  0  0  0  0
 42 41  1  0  0  0  0
 42 40  2  0  0  0  0
 44 43  1  0  0  0  0
M  END
>  <MODEL>
2

>  <REMARK>
 VINA RESULT:      -9.8      1.297      2.574
  Name = 
  11 active torsions:
  status: ('A' for Active; 'I' for Inactive)
    1  A    between atoms: N_1  and  C_41
    2  A    between atoms: N_2  and  N_12
    3  A    between atoms: N_2  and  C_43
    4  A    between atoms: C_4  and  N_25
    5  A    between atoms: C_5  and  C_24
    6  A    between atoms: N_8  and  C_43
    7  A    between atoms: N_12  and  N_32
    8  A    between atoms: C_15  and  C_22
    9  A    between atoms: C_17  and  N_25
   10  A    between atoms: N_25  and  C_41
   11  A    between atoms: C_30  and  C_31
                            x       y       z     vdW  Elec       q    Type
                         _______ _______ _______ _____ _____    ______ ____

>  <TORSDO>
F 11

$$$$
=
 OpenBabel10222415453D

 44 47  0  0  1  0  0  0  0  0999 V2000
  181.6390  179.8940  139.1690 C   0  0  0  0  0  0  0  0  0  0  0  0
  184.0790  179.1780  139.4680 C   0  0  0  0  0  0  0  0  0  0  0  0
  181.1580  178.7950  139.5520 O   0  0  0  0  0  0  0  0  0  0  0  0
  185.2600  179.2960  138.9450 N   0  0  0  0  0  0  0  0  0  0  0  0
  183.0520  180.0800  139.0350 N   0  0  0  0  0  2  0  0  0  0  0  0
  180.7200  181.0040  138.8020 C   0  0  0  0  0  1  0  0  0  0  0  0
  183.8550  178.1990  140.5530 C   0  0  0  0  0  3  0  0  0  0  0  0
  183.2070  178.9220  142.9760 C   0  0  0  0  0  3  0  0  0  0  0  0
  183.5100  178.5670  141.7550 C   0  0  0  0  0  0  0  0  0  0  0  0
  184.5910  178.5960  146.4720 C   0  0  0  0  0  3  0  0  0  0  0  0
  185.8420  178.1420  146.1980 N   0  0  0  0  0  0  0  0  0  0  0  0
  186.2690  177.9290  144.9210 C   0  0  0  0  0  0  0  0  0  0  0  0
  184.1040  178.6530  144.1090 C   0  0  0  0  0  0  0  0  0  0  0  0
  183.6990  178.8580  145.4340 C   0  0  0  0  0  3  0  0  0  0  0  0
  185.3940  178.1870  143.8540 C   0  0  0  0  0  3  0  0  0  0  0  0
  187.6410  177.4390  144.6720 C   0  0  0  0  0  0  0  0  0  0  0  0
  190.8890  176.7920  146.2840 N   0  0  0  0  0  0  0  0  0  0  0  0
  190.2270  176.5250  144.1960 C   0  0  0  0  0  0  0  0  0  0  0  0
  188.0340  177.0210  143.3740 C   0  0  0  0  0  3  0  0  0  0  0  0
  191.9320  176.3090  145.5760 C   0  0  0  0  0  3  0  0  0  0  0  0
  190.8960  177.0890  147.6270 O   0  0  0  0  0  1  0  0  0  0  0  0
  191.5520  176.1250  144.2400 C   0  0  0  0  0  3  0  0  0  0  0  0
  188.5730  177.3860  145.7320 C   0  0  0  0  0  3  0  0  0  0  0  0
  189.8560  176.9240  145.4470 C   0  0  0  0  0  0  0  0  0  0  0  0
  189.3390  176.5560  143.1250 C   0  0  0  0  0  3  0  0  0  0  0  0
  186.3400  178.5140  139.3740 N   0  0  0  0  0  2  0  0  0  0  0  0
  187.5460  178.4850  138.6540 N   0  0  0  0  0  2  0  0  0  0  0  0
  188.0150  177.1040  138.6010 C   0  0  0  0  0  2  0  0  0  0  0  0
  191.7000  176.6900  137.6980 N   0  0  0  0  0  2  0  0  0  0  0  0
  189.2680  177.0140  137.8650 N   0  0  0  0  0  2  0  0  0  0  0  0
  190.4990  176.6160  138.4660 C   0  0  0  0  0  0  0  0  0  0  0  0
  190.5240  176.1980  139.6550 O   0  0  0  0  0  0  0  0  0  0  0  0
  192.9740  176.1950  138.1940 C   0  0  0  0  0  2  0  0  0  0  0  0
  193.5180  175.2240  137.2580 N   0  0  0  0  0  0  0  0  0  0  0  0
  197.6030  175.3320  135.3310 C   0  0  0  0  0  3  0  0  0  0  0  0
  194.8990  175.3130  136.8560 C   0  0  0  0  0  0  0  0  0  0  0  0
  198.8260  173.4510  136.1840 N   0  0  0  0  0  1  0  0  0  0  0  0
  195.2020  175.8920  135.6780 C   0  0  0  0  0  3  0  0  0  0  0  0
  196.5450  176.1090  135.1060 C   0  0  0  0  0  3  0  0  0  0  0  0
  195.9130  174.9130  137.8010 N   0  0  0  0  0  0  0  0  0  0  0  0
  197.5220  174.0890  136.1450 C   0  0  1  0  0  3  0  0  0  0  0  0
  197.0770  174.4010  137.5340 C   0  0  0  0  0  3  0  0  0  0  0  0
  193.4620  172.9500  136.3470 C   0  0  0  0  0  1  0  0  0  0  0  0
  192.6430  174.1320  136.8320 C   0  0  0  0  0  2  0  0  0  0  0  0
  1  3  2  0  0  0  0
  2  7  1  0  0  0  0
  4 26  1  0  0  0  0
  4  2  2  0  0  0  0
  5  1  1  0  0  0  0
  5  2  1  0  0  0  0
  6  1  1  0  0  0  0
  7  9  2  0  0  0  0
  8 13  1  0  0  0  0
  9  8  2  0  0  0  0
 11 10  1  0  0  0  0
 12 11  2  0  0  0  0
 13 14  1  0  0  0  0
 14 10  2  0  0  0  0
 15 13  2  0  0  0  0
 15 12  1  0  0  0  0
 16 12  1  0  0  0  0
 16 23  1  0  0  0  0
 17 21  1  0  0  0  0
 18 22  1  0  0  0  0
 18 24  1  0  0  0  0
 19 16  2  0  0  0  0
 20 17  1  0  0  0  0
 22 20  2  0  0  0  0
 24 23  2  0  0  0  0
 24 17  1  0  0  0  0
 25 19  1  0  0  0  0
 25 18  2  0  0  0  0
 27 26  1  0  0  0  0
 28 27  1  0  0  0  0
 29 33  1  0  0  0  0
 29 31  1  0  0  0  0
 30 31  1  0  0  0  0
 30 28  1  0  0  0  0
 31 32  2  0  0  0  0
 34 33  1  0  0  0  0
 35 41  1  0  0  0  0
 36 34  1  0  0  0  0
 36 40  1  0  0  0  0
 38 36  2  0  0  0  0
 39 35  2  0  0  0  0
 39 38  1  0  0  0  0
 41 37  1  1  0  0  0
 41 42  1  0  0  0  0
 42 40  2  0  0  0  0
 43 44  1  0  0  0  0
 44 34  1  0  0  0  0
M  END
>  <MODEL>
3

>  <REMARK>
 VINA RESULT:      -9.4      2.865     10.622
  Name = 
  11 active torsions:
  status: ('A' for Active; 'I' for Inactive)
    1  A    between atoms: N_1  and  C_41
    2  A    between atoms: N_2  and  N_12
    3  A    between atoms: N_2  and  C_43
    4  A    between atoms: C_4  and  N_25
    5  A    between atoms: C_5  and  C_24
    6  A    between atoms: N_8  and  C_43
    7  A    between atoms: N_12  and  N_32
    8  A    between atoms: C_15  and  C_22
    9  A    between atoms: C_17  and  N_25
   10  A    between atoms: N_25  and  C_41
   11  A    between atoms: C_30  and  C_31
                            x       y       z     vdW  Elec       q    Type
                         _______ _______ _______ _____ _____    ______ ____

>  <TORSDO>
F 11

$$$$
=
 OpenBabel10222415453D

 44 47  0  0  1  0  0  0  0  0999 V2000
  187.7560  178.2660  139.9740 C   0  0  0  0  0  0  0  0  0  0  0  0
  185.2810  178.8400  139.6560 C   0  0  0  0  0  0  0  0  0  0  0  0
  187.6520  178.0220  141.2050 O   0  0  0  0  0  0  0  0  0  0  0  0
  184.4810  179.6350  139.0160 N   0  0  0  0  0  0  0  0  0  0  0  0
  186.6420  178.7490  139.2150 N   0  0  0  0  0  2  0  0  0  0  0  0
  189.0740  178.0960  139.3060 C   0  0  0  0  0  1  0  0  0  0  0  0
  184.7510  177.9880  140.7410 C   0  0  0  0  0  3  0  0  0  0  0  0
  183.8280  178.9800  142.9730 C   0  0  0  0  0  3  0  0  0  0  0  0
  184.2720  178.4910  141.8440 C   0  0  0  0  0  0  0  0  0  0  0  0
  184.4790  178.5450  146.6650 C   0  0  0  0  0  3  0  0  0  0  0  0
  185.7760  178.1430  146.6380 N   0  0  0  0  0  0  0  0  0  0  0  0
  186.4630  177.9980  145.4690 C   0  0  0  0  0  0  0  0  0  0  0  0
  184.4840  178.6890  144.2550 C   0  0  0  0  0  0  0  0  0  0  0  0
  183.8080  178.8240  145.4760 C   0  0  0  0  0  3  0  0  0  0  0  0
  185.8160  178.2750  144.2560 C   0  0  0  0  0  3  0  0  0  0  0  0
  187.8750  177.5620  145.4910 C   0  0  0  0  0  0  0  0  0  0  0  0
  190.5620  176.1310  143.4170 N   0  0  0  0  0  0  0  0  0  0  0  0
  190.5310  176.7300  145.5400 C   0  0  0  0  0  0  0  0  0  0  0  0
  188.6400  177.6500  146.6830 C   0  0  0  0  0  3  0  0  0  0  0  0
  191.7840  175.8850  143.9360 C   0  0  0  0  0  3  0  0  0  0  0  0
  190.1770  175.8980  142.1170 O   0  0  0  0  0  1  0  0  0  0  0  0
  191.8060  176.2530  145.2870 C   0  0  0  0  0  3  0  0  0  0  0  0
  188.4720  177.0490  144.3180 C   0  0  0  0  0  3  0  0  0  0  0  0
  189.8030  176.6430  144.3890 C   0  0  0  0  0  0  0  0  0  0  0  0
  189.9840  177.2340  146.7170 C   0  0  0  0  0  3  0  0  0  0  0  0
  183.1180  179.7190  139.3270 N   0  0  0  0  0  2  0  0  0  0  0  0
  182.1680  180.0390  138.3430 N   0  0  0  0  0  2  0  0  0  0  0  0
  181.2320  178.9250  138.2310 C   0  0  0  0  0  2  0  0  0  0  0  0
  183.0210  175.6410  137.4670 N   0  0  0  0  0  2  0  0  0  0  0  0
  181.9280  177.6530  138.3650 N   0  0  0  0  0  2  0  0  0  0  0  0
  182.4780  176.9440  137.2560 C   0  0  0  0  0  0  0  0  0  0  0  0
  182.4900  177.4640  136.1070 O   0  0  0  0  0  0  0  0  0  0  0  0
  183.7030  174.9020  136.4170 C   0  0  0  0  0  2  0  0  0  0  0  0
  185.0360  174.5320  136.8690 N   0  0  0  0  0  0  0  0  0  0  0  0
  188.1990  177.5160  135.6500 C   0  0  0  0  0  3  0  0  0  0  0  0
  186.1320  175.4500  136.6930 C   0  0  0  0  0  0  0  0  0  0  0  0
  190.2570  176.3010  135.4290 N   0  0  0  0  0  1  0  0  0  0  0  0
  185.9150  176.6150  136.0530 C   0  0  0  0  0  3  0  0  0  0  0  0
  186.8880  177.6950  135.8030 C   0  0  0  0  0  3  0  0  0  0  0  0
  187.3850  175.1500  137.3430 N   0  0  0  0  0  0  0  0  0  0  0  0
  188.8270  176.1680  135.6410 C   0  0  1  0  0  3  0  0  0  0  0  0
  188.5770  175.4670  136.9340 C   0  0  0  0  0  3  0  0  0  0  0  0
  184.0970  172.2860  137.1430 C   0  0  0  0  0  1  0  0  0  0  0  0
  185.1800  173.2570  137.5720 C   0  0  0  0  0  2  0  0  0  0  0  0
  1  3  2  0  0  0  0
  2  7  1  0  0  0  0
  4 26  1  0  0  0  0
  4  2  2  0  0  0  0
  5  2  1  0  0  0  0
  5  1  1  0  0  0  0
  6  1  1  0  0  0  0
  7  9  2  0  0  0  0
  8 13  1  0  0  0  0
  9  8  2  0  0  0  0
 11 10  1  0  0  0  0
 12 16  1  0  0  0  0
 12 11  2  0  0  0  0
 13 15  2  0  0  0  0
 13 14  1  0  0  0  0
 14 10  2  0  0  0  0
 15 12  1  0  0  0  0
 16 19  1  0  0  0  0
 17 20  1  0  0  0  0
 17 24  1  0  0  0  0
 18 25  1  0  0  0  0
 19 25  2  0  0  0  0
 20 22  2  0  0  0  0
 21 17  1  0  0  0  0
 22 18  1  0  0  0  0
 23 24  1  0  0  0  0
 23 16  2  0  0  0  0
 24 18  2  0  0  0  0
 27 26  1  0  0  0  0
 28 27  1  0  0  0  0
 28 30  1  0  0  0  0
 31 29  1  0  0  0  0
 31 30  1  0  0  0  0
 32 31  2  0  0  0  0
 33 34  1  0  0  0  0
 33 29  1  0  0  0  0
 34 44  1  0  0  0  0
 35 39  2  0  0  0  0
 36 34  1  0  0  0  0
 36 40  1  0  0  0  0
 38 36  2  0  0  0  0
 39 38  1  0  0  0  0
 41 37  1  1  0  0  0
 41 35  1  0  0  0  0
 41 42  1  0  0  0  0
 42 40  2  0  0  0  0
 43 44  1  0  0  0  0
M  END
>  <MODEL>
4

>  <REMARK>
 VINA RESULT:      -9.4      2.768      6.762
  Name = 
  11 active torsions:
  status: ('A' for Active; 'I' for Inactive)
    1  A    between atoms: N_1  and  C_41
    2  A    between atoms: N_2  and  N_12
    3  A    between atoms: N_2  and  C_43
    4  A    between atoms: C_4  and  N_25
    5  A    between atoms: C_5  and  C_24
    6  A    between atoms: N_8  and  C_43
    7  A    between atoms: N_12  and  N_32
    8  A    between atoms: C_15  and  C_22
    9  A    between atoms: C_17  and  N_25
   10  A    between atoms: N_25  and  C_41
   11  A    between atoms: C_30  and  C_31
                            x       y       z     vdW  Elec       q    Type
                         _______ _______ _______ _____ _____    ______ ____

>  <TORSDO>
F 11

$$$$
=
 OpenBabel10222415453D

 44 47  0  0  1  0  0  0  0  0999 V2000
  187.7730  178.2510  139.9280 C   0  0  0  0  0  0  0  0  0  0  0  0
  185.3050  178.8730  139.6600 C   0  0  0  0  0  0  0  0  0  0  0  0
  187.6860  177.9940  141.1580 O   0  0  0  0  0  0  0  0  0  0  0  0
  184.5080  179.6900  139.0420 N   0  0  0  0  0  0  0  0  0  0  0  0
  186.6560  178.7620  139.1940 N   0  0  0  0  0  2  0  0  0  0  0  0
  189.0760  178.0650  139.2360 C   0  0  0  0  0  1  0  0  0  0  0  0
  184.7770  178.0180  140.7440 C   0  0  0  0  0  3  0  0  0  0  0  0
  183.8220  179.0050  142.9640 C   0  0  0  0  0  3  0  0  0  0  0  0
  184.2820  178.5190  141.8400 C   0  0  0  0  0  0  0  0  0  0  0  0
  184.4610  178.6280  146.6650 C   0  0  0  0  0  3  0  0  0  0  0  0
  185.7520  178.2050  146.6480 N   0  0  0  0  0  0  0  0  0  0  0  0
  186.4380  178.0290  145.4830 C   0  0  0  0  0  0  0  0  0  0  0  0
  184.4720  178.7280  144.2530 C   0  0  0  0  0  0  0  0  0  0  0  0
  183.7960  178.8950  145.4690 C   0  0  0  0  0  3  0  0  0  0  0  0
  185.7970  178.2940  144.2630 C   0  0  0  0  0  3  0  0  0  0  0  0
  187.8440  177.5720  145.5150 C   0  0  0  0  0  0  0  0  0  0  0  0
  190.5630  176.2180  143.4320 N   0  0  0  0  0  0  0  0  0  0  0  0
  190.4870  176.7010  145.5840 C   0  0  0  0  0  0  0  0  0  0  0  0
  188.5800  177.5850  146.7290 C   0  0  0  0  0  3  0  0  0  0  0  0
  191.7690  175.9260  143.9670 C   0  0  0  0  0  3  0  0  0  0  0  0
  190.2080  176.0610  142.1130 O   0  0  0  0  0  1  0  0  0  0  0  0
  191.7610  176.2200  145.3360 C   0  0  0  0  0  3  0  0  0  0  0  0
  188.4630  177.1150  144.3310 C   0  0  0  0  0  3  0  0  0  0  0  0
  189.7860  176.6880  144.4130 C   0  0  0  0  0  0  0  0  0  0  0  0
  189.9160  177.1480  146.7720 C   0  0  0  0  0  3  0  0  0  0  0  0
  183.1520  179.7950  139.3780 N   0  0  0  0  0  2  0  0  0  0  0  0
  182.1500  179.3760  138.4860 N   0  0  0  0  0  2  0  0  0  0  0  0
  181.2610  178.4610  139.1950 C   0  0  0  0  0  2  0  0  0  0  0  0
  181.6220  174.8410  138.0410 N   0  0  0  0  0  2  0  0  0  0  0  0
  181.7120  177.0850  139.0440 N   0  0  0  0  0  2  0  0  0  0  0  0
  181.2250  176.2120  138.0260 C   0  0  0  0  0  0  0  0  0  0  0  0
  180.4610  176.6470  137.1220 O   0  0  0  0  0  0  0  0  0  0  0  0
  181.2670  173.9160  136.9770 C   0  0  0  0  0  2  0  0  0  0  0  0
  182.3050  172.9050  136.8430 N   0  0  0  0  0  0  0  0  0  0  0  0
  186.6320  174.1480  137.2190 C   0  0  0  0  0  3  0  0  0  0  0  0
  183.6850  173.3060  136.7300 C   0  0  0  0  0  0  0  0  0  0  0  0
  186.7620  176.4400  136.5200 N   0  0  0  0  0  1  0  0  0  0  0  0
  184.5970  172.7540  137.5530 C   0  0  0  0  0  3  0  0  0  0  0  0
  186.0510  173.0030  137.5730 C   0  0  0  0  0  3  0  0  0  0  0  0
  184.0560  174.1740  135.6390 N   0  0  0  0  0  0  0  0  0  0  0  0
  185.8510  175.3510  136.8230 C   0  0  1  0  0  3  0  0  0  0  0  0
  185.0090  175.0580  135.6280 C   0  0  0  0  0  3  0  0  0  0  0  0
  182.1600  170.7970  135.6040 C   0  0  0  0  0  1  0  0  0  0  0  0
  181.8960  171.5030  136.9210 C   0  0  0  0  0  2  0  0  0  0  0  0
  1  3  2  0  0  0  0
  2  7  1  0  0  0  0
  4 26  1  0  0  0  0
  4  2  2  0  0  0  0
  5  2  1  0  0  0  0
  5  1  1  0  0  0  0
  6  1  1  0  0  0  0
  7  9  2  0  0  0  0
  8 13  1  0  0  0  0
  9  8  2  0  0  0  0
 11 10  1  0  0  0  0
 12 16  1  0  0  0  0
 12 11  2  0  0  0  0
 13 15  2  0  0  0  0
 13 14  1  0  0  0  0
 14 10  2  0  0  0  0
 15 12  1  0  0  0  0
 16 19  1  0  0  0  0
 17 20  1  0  0  0  0
 17 24  1  0  0  0  0
 18 25  1  0  0  0  0
 19 25  2  0  0  0  0
 20 22  2  0  0  0  0
 21 17  1  0  0  0  0
 22 18  1  0  0  0  0
 23 24  1  0  0  0  0
 23 16  2  0  0  0  0
 24 18  2  0  0  0  0
 27 28  1  0  0  0  0
 27 26  1  0  0  0  0
 30 28  1  0  0  0  0
 31 29  1  0  0  0  0
 31 30  1  0  0  0  0
 32 31  2  0  0  0  0
 33 29  1  0  0  0  0
 34 44  1  0  0  0  0
 34 33  1  0  0  0  0
 35 39  2  0  0  0  0
 36 34  1  0  0  0  0
 36 38  2  0  0  0  0
 38 39  1  0  0  0  0
 40 36  1  0  0  0  0
 41 37  1  6  0  0  0
 41 35  1  0  0  0  0
 42 40  2  0  0  0  0
 42 41  1  0  0  0  0
 43 44  1  0  0  0  0
M  END
>  <MODEL>
5

>  <REMARK>
 VINA RESULT:      -9.1      3.204      6.529
  Name = 
  11 active torsions:
  status: ('A' for Active; 'I' for Inactive)
    1  A    between atoms: N_1  and  C_41
    2  A    between atoms: N_2  and  N_12
    3  A    between atoms: N_2  and  C_43
    4  A    between atoms: C_4  and  N_25
    5  A    between atoms: C_5  and  C_24
    6  A    between atoms: N_8  and  C_43
    7  A    between atoms: N_12  and  N_32
    8  A    between atoms: C_15  and  C_22
    9  A    between atoms: C_17  and  N_25
   10  A    between atoms: N_25  and  C_41
   11  A    between atoms: C_30  and  C_31
                            x       y       z     vdW  Elec       q    Type
                         _______ _______ _______ _____ _____    ______ ____

>  <TORSDO>
F 11

$$$$
=
 OpenBabel10222415453D

 44 47  0  0  1  0  0  0  0  0999 V2000
  185.6060  178.7260  146.3140 C   0  0  0  0  0  0  0  0  0  0  0  0
  183.7320  179.2190  144.6420 C   0  0  0  0  0  0  0  0  0  0  0  0
  186.4970  178.5770  145.4360 O   0  0  0  0  0  0  0  0  0  0  0  0
  182.4690  179.0190  144.4190 N   0  0  0  0  0  0  0  0  0  0  0  0
  184.2390  178.9510  145.9560 N   0  0  0  0  0  2  0  0  0  0  0  0
  185.9740  178.6170  147.7510 C   0  0  0  0  0  1  0  0  0  0  0  0
  184.5770  179.8030  143.5800 C   0  0  0  0  0  3  0  0  0  0  0  0
  185.4560  178.3990  141.5620 C   0  0  0  0  0  3  0  0  0  0  0  0
  184.9950  179.1010  142.5640 C   0  0  0  0  0  0  0  0  0  0  0  0
  188.8780  178.1270  139.9920 C   0  0  0  0  0  3  0  0  0  0  0  0
  189.6070  177.7230  141.0650 N   0  0  0  0  0  0  0  0  0  0  0  0
  189.0420  177.5340  142.2910 C   0  0  0  0  0  0  0  0  0  0  0  0
  186.8960  178.1750  141.3700 C   0  0  0  0  0  0  0  0  0  0  0  0
  187.5100  178.3620  140.1240 C   0  0  0  0  0  3  0  0  0  0  0  0
  187.6670  177.7590  142.4540 C   0  0  0  0  0  3  0  0  0  0  0  0
  189.8760  177.0880  143.4280 C   0  0  0  0  0  0  0  0  0  0  0  0
  190.2860  177.3530  147.0790 N   0  0  0  0  0  0  0  0  0  0  0  0
  191.4560  176.2570  145.5630 C   0  0  0  0  0  0  0  0  0  0  0  0
  190.9900  176.2350  143.2160 C   0  0  0  0  0  3  0  0  0  0  0  0
  191.2920  176.7130  147.7130 C   0  0  0  0  0  3  0  0  0  0  0  0
  189.3300  178.1430  147.6750 O   0  0  0  0  0  1  0  0  0  0  0  0
  192.0600  176.0030  146.7830 C   0  0  0  0  0  3  0  0  0  0  0  0
  189.5670  177.5160  144.7380 C   0  0  0  0  0  3  0  0  0  0  0  0
  190.3860  177.0760  145.7760 C   0  0  0  0  0  0  0  0  0  0  0  0
  191.7930  175.8080  144.2890 C   0  0  0  0  0  3  0  0  0  0  0  0
  181.8760  179.3360  143.1900 N   0  0  0  0  0  2  0  0  0  0  0  0
  180.6150  179.9510  143.1300 N   0  0  0  0  0  2  0  0  0  0  0  0
  179.6240  179.0130  143.6500 C   0  0  0  0  0  2  0  0  0  0  0  0
  179.1930  176.5620  140.7560 N   0  0  0  0  0  2  0  0  0  0  0  0
  179.5900  177.8020  142.8420 N   0  0  0  0  0  2  0  0  0  0  0  0
  179.3430  177.8070  141.4370 C   0  0  0  0  0  0  0  0  0  0  0  0
  179.2670  178.8960  140.8060 O   0  0  0  0  0  0  0  0  0  0  0  0
  179.0570  176.4770  139.3110 C   0  0  0  0  0  2  0  0  0  0  0  0
  180.2640  175.9000  138.7400 N   0  0  0  0  0  0  0  0  0  0  0  0
  184.1280  178.1900  138.2560 C   0  0  0  0  0  3  0  0  0  0  0  0
  181.3830  176.7500  138.4220 C   0  0  0  0  0  0  0  0  0  0  0  0
  183.7350  180.4050  139.0920 N   0  0  0  0  0  1  0  0  0  0  0  0
  182.6170  176.2140  138.3630 C   0  0  0  0  0  3  0  0  0  0  0  0
  183.8770  176.9030  138.0230 C   0  0  0  0  0  3  0  0  0  0  0  0
  181.1150  178.1140  138.0320 N   0  0  0  0  0  0  0  0  0  0  0  0
  183.1670  179.0750  138.9690 C   0  0  1  0  0  3  0  0  0  0  0  0
  181.8760  179.1490  138.2260 C   0  0  0  0  0  3  0  0  0  0  0  0
  178.9320  173.8870  138.3180 C   0  0  0  0  0  1  0  0  0  0  0  0
  180.3150  174.4450  138.5990 C   0  0  0  0  0  2  0  0  0  0  0  0
  1  6  1  0  0  0  0
  2  5  1  0  0  0  0
  3  1  2  0  0  0  0
  4  2  2  0  0  0  0
  5  1  1  0  0  0  0
  7  2  1  0  0  0  0
  8  9  2  0  0  0  0
  9  7  2  0  0  0  0
 10 14  2  0  0  0  0
 10 11  1  0  0  0  0
 11 12  2  0  0  0  0
 12 15  1  0  0  0  0
 12 16  1  0  0  0  0
 13  8  1  0  0  0  0
 13 15  2  0  0  0  0
 14 13  1  0  0  0  0
 16 23  1  0  0  0  0
 17 21  1  0  0  0  0
 17 20  1  0  0  0  0
 18 24  1  0  0  0  0
 18 22  1  0  0  0  0
 19 16  2  0  0  0  0
 19 25  1  0  0  0  0
 22 20  2  0  0  0  0
 23 24  2  0  0  0  0
 24 17  1  0  0  0  0
 25 18  2  0  0  0  0
 26  4  1  0  0  0  0
 27 26  1  0  0  0  0
 27 28  1  0  0  0  0
 29 31  1  0  0  0  0
 30 28  1  0  0  0  0
 31 30  1  0  0  0  0
 32 31  2  0  0  0  0
 33 29  1  0  0  0  0
 34 33  1  0  0  0  0
 35 41  1  0  0  0  0
 36 34  1  0  0  0  0
 38 36  2  0  0  0  0
 39 35  2  0  0  0  0
 39 38  1  0  0  0  0
 40 42  2  0  0  0  0
 40 36  1  0  0  0  0
 41 37  1  6  0  0  0
 42 41  1  0  0  0  0
 43 44  1  0  0  0  0
 44 34  1  0  0  0  0
M  END
>  <MODEL>
6

>  <REMARK>
 VINA RESULT:      -9.1      2.608      6.752
  Name = 
  11 active torsions:
  status: ('A' for Active; 'I' for Inactive)
    1  A    between atoms: N_1  and  C_41
    2  A    between atoms: N_2  and  N_12
    3  A    between atoms: N_2  and  C_43
    4  A    between atoms: C_4  and  N_25
    5  A    between atoms: C_5  and  C_24
    6  A    between atoms: N_8  and  C_43
    7  A    between atoms: N_12  and  N_32
    8  A    between atoms: C_15  and  C_22
    9  A    between atoms: C_17  and  N_25
   10  A    between atoms: N_25  and  C_41
   11  A    between atoms: C_30  and  C_31
                            x       y       z     vdW  Elec       q    Type
                         _______ _______ _______ _____ _____    ______ ____

>  <TORSDO>
F 11

$$$$
=
 OpenBabel10222415453D

 44 47  0  0  1  0  0  0  0  0999 V2000
  185.5420  178.7050  146.2030 C   0  0  0  0  0  0  0  0  0  0  0  0
  183.9300  179.2270  144.2850 C   0  0  0  0  0  0  0  0  0  0  0  0
  186.5530  178.5780  145.4620 O   0  0  0  0  0  0  0  0  0  0  0  0
  182.7150  179.0280  143.8760 N   0  0  0  0  0  0  0  0  0  0  0  0
  184.2410  178.9330  145.6530 N   0  0  0  0  0  2  0  0  0  0  0  0
  185.6970  178.5660  147.6760 C   0  0  0  0  0  1  0  0  0  0  0  0
  184.9180  179.8360  143.3700 C   0  0  0  0  0  3  0  0  0  0  0  0
  185.7820  178.6140  141.2310 C   0  0  0  0  0  3  0  0  0  0  0  0
  185.3290  179.2290  142.2920 C   0  0  0  0  0  0  0  0  0  0  0  0
  189.1900  177.8800  139.7830 C   0  0  0  0  0  3  0  0  0  0  0  0
  189.8570  177.5060  140.9060 N   0  0  0  0  0  0  0  0  0  0  0  0
  189.2540  177.4820  142.1290 C   0  0  0  0  0  0  0  0  0  0  0  0
  187.1970  178.2390  141.0980 C   0  0  0  0  0  0  0  0  0  0  0  0
  187.8490  178.2540  139.8570 C   0  0  0  0  0  3  0  0  0  0  0  0
  187.9040  177.8500  142.2350 C   0  0  0  0  0  3  0  0  0  0  0  0
  190.0200  177.0630  143.3220 C   0  0  0  0  0  0  0  0  0  0  0  0
  190.1870  177.3700  146.9890 N   0  0  0  0  0  0  0  0  0  0  0  0
  191.4730  176.2820  145.5640 C   0  0  0  0  0  0  0  0  0  0  0  0
  191.1600  176.2280  143.1920 C   0  0  0  0  0  3  0  0  0  0  0  0
  191.1610  176.7560  147.6940 C   0  0  0  0  0  3  0  0  0  0  0  0
  189.1800  178.1480  147.5130 O   0  0  0  0  0  1  0  0  0  0  0  0
  192.0010  176.0510  146.8230 C   0  0  0  0  0  3  0  0  0  0  0  0
  189.6190  177.4980  144.6050 C   0  0  0  0  0  3  0  0  0  0  0  0
  190.3760  177.0830  145.6980 C   0  0  0  0  0  0  0  0  0  0  0  0
  191.8990  175.8270  144.3200 C   0  0  0  0  0  3  0  0  0  0  0  0
  182.3060  179.3690  142.5800 N   0  0  0  0  0  2  0  0  0  0  0  0
  181.3370  178.6110  141.9020 N   0  0  0  0  0  2  0  0  0  0  0  0
  181.6750  178.6010  140.4820 C   0  0  0  0  0  2  0  0  0  0  0  0
  183.2370  175.7070  138.5450 N   0  0  0  0  0  2  0  0  0  0  0  0
  182.3960  177.3850  140.1350 N   0  0  0  0  0  2  0  0  0  0  0  0
  182.6440  176.9820  138.7890 C   0  0  0  0  0  0  0  0  0  0  0  0
  182.3490  177.7440  137.8290 O   0  0  0  0  0  0  0  0  0  0  0  0
  183.6290  175.2710  137.2150 C   0  0  0  0  0  2  0  0  0  0  0  0
  185.0110  174.8170  137.2370 N   0  0  0  0  0  0  0  0  0  0  0  0
  187.9440  178.0000  135.9470 C   0  0  0  0  0  3  0  0  0  0  0  0
  186.0780  175.7570  137.0030 C   0  0  0  0  0  0  0  0  0  0  0  0
  189.8490  176.8630  135.0310 N   0  0  0  0  0  1  0  0  0  0  0  0
  185.7710  177.0250  136.6710 C   0  0  0  0  0  3  0  0  0  0  0  0
  186.7090  178.1380  136.4250 C   0  0  0  0  0  3  0  0  0  0  0  0
  187.4300  175.3370  137.2800 N   0  0  0  0  0  0  0  0  0  0  0  0
  188.4980  176.6830  135.5310 C   0  0  1  0  0  3  0  0  0  0  0  0
  188.5130  175.7350  136.6820 C   0  0  0  0  0  3  0  0  0  0  0  0
  184.0930  172.5460  137.1560 C   0  0  0  0  0  1  0  0  0  0  0  0
  185.2560  173.4190  137.5920 C   0  0  0  0  0  2  0  0  0  0  0  0
  1  6  1  0  0  0  0
  2  5  1  0  0  0  0
  3  1  2  0  0  0  0
  4  2  2  0  0  0  0
  5  1  1  0  0  0  0
  7  2  1  0  0  0  0
  8  9  2  0  0  0  0
  9  7  2  0  0  0  0
 10 14  2  0  0  0  0
 10 11  1  0  0  0  0
 11 12  2  0  0  0  0
 12 15  1  0  0  0  0
 12 16  1  0  0  0  0
 13  8  1  0  0  0  0
 13 15  2  0  0  0  0
 14 13  1  0  0  0  0
 16 23  1  0  0  0  0
 17 21  1  0  0  0  0
 17 20  1  0  0  0  0
 18 24  1  0  0  0  0
 18 22  1  0  0  0  0
 19 16  2  0  0  0  0
 19 25  1  0  0  0  0
 22 20  2  0  0  0  0
 23 24  2  0  0  0  0
 24 17  1  0  0  0  0
 25 18  2  0  0  0  0
 26  4  1  0  0  0  0
 27 26  1  0  0  0  0
 28 27  1  0  0  0  0
 29 31  1  0  0  0  0
 30 28  1  0  0  0  0
 31 30  1  0  0  0  0
 32 31  2  0  0  0  0
 33 34  1  0  0  0  0
 33 29  1  0  0  0  0
 34 44  1  0  0  0  0
 35 39  2  0  0  0  0
 36 34  1  0  0  0  0
 36 40  1  0  0  0  0
 38 36  2  0  0  0  0
 39 38  1  0  0  0  0
 41 37  1  1  0  0  0
 41 35  1  0  0  0  0
 41 42  1  0  0  0  0
 42 40  2  0  0  0  0
 43 44  1  0  0  0  0
M  END
>  <MODEL>
7

>  <REMARK>
 VINA RESULT:      -9.1      2.799      7.491
  Name = 
  11 active torsions:
  status: ('A' for Active; 'I' for Inactive)
    1  A    between atoms: N_1  and  C_41
    2  A    between atoms: N_2  and  N_12
    3  A    between atoms: N_2  and  C_43
    4  A    between atoms: C_4  and  N_25
    5  A    between atoms: C_5  and  C_24
    6  A    between atoms: N_8  and  C_43
    7  A    between atoms: N_12  and  N_32
    8  A    between atoms: C_15  and  C_22
    9  A    between atoms: C_17  and  N_25
   10  A    between atoms: N_25  and  C_41
   11  A    between atoms: C_30  and  C_31
                            x       y       z     vdW  Elec       q    Type
                         _______ _______ _______ _____ _____    ______ ____

>  <TORSDO>
F 11

$$$$
=
 OpenBabel10222415453D

 44 47  0  0  1  0  0  0  0  0999 V2000
  191.8530  176.4020  146.8960 C   0  0  0  0  0  0  0  0  0  0  0  0
  190.8820  177.1620  144.6530 C   0  0  0  0  0  0  0  0  0  0  0  0
  191.6670  177.5070  147.4730 O   0  0  0  0  0  0  0  0  0  0  0  0
  191.0330  177.0430  143.3700 N   0  0  0  0  0  0  0  0  0  0  0  0
  191.5620  176.2320  145.5050 N   0  0  0  0  0  2  0  0  0  0  0  0
  192.4320  175.2680  147.6640 C   0  0  0  0  0  1  0  0  0  0  0  0
  189.9460  178.1730  145.1870 C   0  0  0  0  0  3  0  0  0  0  0  0
  187.6870  177.5250  146.3250 C   0  0  0  0  0  3  0  0  0  0  0  0
  188.8300  177.8410  145.7740 C   0  0  0  0  0  0  0  0  0  0  0  0
  184.1000  178.6260  145.9190 C   0  0  0  0  0  3  0  0  0  0  0  0
  184.0070  178.6580  144.5630 N   0  0  0  0  0  0  0  0  0  0  0  0
  185.0620  178.3410  143.7600 C   0  0  0  0  0  0  0  0  0  0  0  0
  186.4030  177.9260  145.7340 C   0  0  0  0  0  0  0  0  0  0  0  0
  185.2990  178.2610  146.5290 C   0  0  0  0  0  3  0  0  0  0  0  0
  186.2810  177.9670  144.3450 C   0  0  0  0  0  3  0  0  0  0  0  0
  184.9110  178.3860  142.2900 C   0  0  0  0  0  0  0  0  0  0  0  0
  182.4560  178.1040  139.5580 N   0  0  0  0  0  0  0  0  0  0  0  0
  184.6330  178.4610  139.5210 C   0  0  0  0  0  0  0  0  0  0  0  0
  186.0360  178.6070  141.4550 C   0  0  0  0  0  3  0  0  0  0  0  0
  182.8360  178.2200  138.2680 C   0  0  0  0  0  3  0  0  0  0  0  0
  181.1730  177.8800  140.0040 O   0  0  0  0  0  1  0  0  0  0  0  0
  184.2160  178.4490  138.2010 C   0  0  0  0  0  3  0  0  0  0  0  0
  183.6360  178.2060  141.7070 C   0  0  0  0  0  3  0  0  0  0  0  0
  183.5450  178.2500  140.3180 C   0  0  0  0  0  0  0  0  0  0  0  0
  185.9050  178.6480  140.0550 C   0  0  0  0  0  3  0  0  0  0  0  0
  190.3370  177.8540  142.4650 N   0  0  0  0  0  2  0  0  0  0  0  0
  189.3780  177.3120  141.5930 N   0  0  0  0  0  2  0  0  0  0  0  0
  189.6800  177.7700  140.2400 C   0  0  0  0  0  2  0  0  0  0  0  0
  188.4640  175.9330  137.1230 N   0  0  0  0  0  2  0  0  0  0  0  0
  189.3680  176.7340  139.2650 N   0  0  0  0  0  2  0  0  0  0  0  0
  188.8700  177.0170  137.9580 C   0  0  0  0  0  0  0  0  0  0  0  0
  188.7990  178.2060  137.5460 O   0  0  0  0  0  0  0  0  0  0  0  0
  188.0580  176.1260  135.7400 C   0  0  0  0  0  2  0  0  0  0  0  0
  186.6210  175.9330  135.6220 N   0  0  0  0  0  0  0  0  0  0  0  0
  184.7350  171.8820  136.2850 C   0  0  0  0  0  3  0  0  0  0  0  0
  186.0270  174.6940  136.0600 C   0  0  0  0  0  0  0  0  0  0  0  0
  182.4880  172.2720  137.0330 N   0  0  0  0  0  1  0  0  0  0  0  0
  186.3950  173.5450  135.4630 C   0  0  0  0  0  3  0  0  0  0  0  0
  185.9330  172.1810  135.7850 C   0  0  0  0  0  3  0  0  0  0  0  0
  185.1730  174.7210  137.2230 N   0  0  0  0  0  0  0  0  0  0  0  0
  183.6830  172.9090  136.5080 C   0  0  1  0  0  3  0  0  0  0  0  0
  184.1590  173.9450  137.4690 C   0  0  0  0  0  3  0  0  0  0  0  0
  186.7260  178.1550  134.5970 C   0  0  0  0  0  1  0  0  0  0  0  0
  185.8250  177.0610  135.1380 C   0  0  0  0  0  2  0  0  0  0  0  0
  1  3  2  0  0  0  0
  1  6  1  0  0  0  0
  2  7  1  0  0  0  0
  2  5  1  0  0  0  0
  4  2  2  0  0  0  0
  5  1  1  0  0  0  0
  7  9  2  0  0  0  0
  9  8  2  0  0  0  0
 10 14  1  0  0  0  0
 11 10  2  0  0  0  0
 12 15  2  0  0  0  0
 12 11  1  0  0  0  0
 13  8  1  0  0  0  0
 13 14  2  0  0  0  0
 15 13  1  0  0  0  0
 16 12  1  0  0  0  0
 17 21  1  0  0  0  0
 17 24  1  0  0  0  0
 18 25  2  0  0  0  0
 18 24  1  0  0  0  0
 19 16  2  0  0  0  0
 20 17  1  0  0  0  0
 22 20  2  0  0  0  0
 22 18  1  0  0  0  0
 23 16  1  0  0  0  0
 24 23  2  0  0  0  0
 25 19  1  0  0  0  0
 26  4  1  0  0  0  0
 27 26  1  0  0  0  0
 28 27  1  0  0  0  0
 29 31  1  0  0  0  0
 30 28  1  0  0  0  0
 31 30  1  0  0  0  0
 32 31  2  0  0  0  0
 33 29  1  0  0  0  0
 34 33  1  0  0  0  0
 34 36  1  0  0  0  0
 35 41  1  0  0  0  0
 36 40  1  0  0  0  0
 38 39  1  0  0  0  0
 38 36  2  0  0  0  0
 39 35  2  0  0  0  0
 40 42  2  0  0  0  0
 41 37  1  1  0  0  0
 41 42  1  0  0  0  0
 43 44  1  0  0  0  0
 44 34  1  0  0  0  0
M  END
>  <MODEL>
8

>  <REMARK>
 VINA RESULT:      -9.0      3.454      6.592
  Name = 
  11 active torsions:
  status: ('A' for Active; 'I' for Inactive)
    1  A    between atoms: N_1  and  C_41
    2  A    between atoms: N_2  and  N_12
    3  A    between atoms: N_2  and  C_43
    4  A    between atoms: C_4  and  N_25
    5  A    between atoms: C_5  and  C_24
    6  A    between atoms: N_8  and  C_43
    7  A    between atoms: N_12  and  N_32
    8  A    between atoms: C_15  and  C_22
    9  A    between atoms: C_17  and  N_25
   10  A    between atoms: N_25  and  C_41
   11  A    between atoms: C_30  and  C_31
                            x       y       z     vdW  Elec       q    Type
                         _______ _______ _______ _____ _____    ______ ____

>  <TORSDO>
F 11

$$$$
=
 OpenBabel10222415453D

 44 47  0  0  1  0  0  0  0  0999 V2000
  194.0530  174.7770  136.7720 C   0  0  0  0  0  0  0  0  0  0  0  0
  191.5630  175.1220  136.2860 C   0  0  0  0  0  0  0  0  0  0  0  0
  194.3320  176.0050  136.7780 O   0  0  0  0  0  0  0  0  0  0  0  0
  190.5610  174.6200  135.6330 N   0  0  0  0  0  0  0  0  0  0  0  0
  192.7370  174.3150  136.4510 N   0  0  0  0  0  2  0  0  0  0  0  0
  195.1240  173.7860  137.0580 C   0  0  0  0  0  1  0  0  0  0  0  0
  191.4320  176.4510  136.9180 C   0  0  0  0  0  3  0  0  0  0  0  0
  191.6140  176.7950  139.5000 C   0  0  0  0  0  3  0  0  0  0  0  0
  191.5450  176.6180  138.2060 C   0  0  0  0  0  0  0  0  0  0  0  0
  188.2890  178.3100  140.4430 C   0  0  0  0  0  3  0  0  0  0  0  0
  188.3430  178.1950  141.7960 N   0  0  0  0  0  0  0  0  0  0  0  0
  189.4150  177.6400  142.4310 C   0  0  0  0  0  0  0  0  0  0  0  0
  190.4670  177.2820  140.2780 C   0  0  0  0  0  0  0  0  0  0  0  0
  189.3470  177.8550  139.6590 C   0  0  0  0  0  3  0  0  0  0  0  0
  190.4970  177.1760  141.6680 C   0  0  0  0  0  3  0  0  0  0  0  0
  189.4300  177.5410  143.9050 C   0  0  0  0  0  0  0  0  0  0  0  0
  187.3650  177.9910  146.9230 N   0  0  0  0  0  0  0  0  0  0  0  0
  189.4670  177.3630  146.6830 C   0  0  0  0  0  0  0  0  0  0  0  0
  190.6060  177.1400  144.5900 C   0  0  0  0  0  3  0  0  0  0  0  0
  187.8740  177.7640  148.1530 C   0  0  0  0  0  3  0  0  0  0  0  0
  186.0800  178.3950  146.6440 O   0  0  0  0  0  1  0  0  0  0  0  0
  189.2110  177.3620  148.0440 C   0  0  0  0  0  3  0  0  0  0  0  0
  188.2660  177.8500  144.6440 C   0  0  0  0  0  3  0  0  0  0  0  0
  188.3310  177.7490  146.0320 C   0  0  0  0  0  0  0  0  0  0  0  0
  190.6340  177.0450  145.9940 C   0  0  0  0  0  3  0  0  0  0  0  0
  189.3470  175.3070  135.5000 N   0  0  0  0  0  2  0  0  0  0  0  0
  188.2540  175.0150  136.3330 N   0  0  0  0  0  2  0  0  0  0  0  0
  187.7440  176.2710  136.8750 C   0  0  0  0  0  2  0  0  0  0  0  0
  184.2090  176.9940  138.1210 N   0  0  0  0  0  2  0  0  0  0  0  0
  186.3300  176.1520  137.2040 N   0  0  0  0  0  2  0  0  0  0  0  0
  185.5500  177.2400  137.6960 C   0  0  0  0  0  0  0  0  0  0  0  0
  186.0350  178.4030  137.7470 O   0  0  0  0  0  0  0  0  0  0  0  0
  183.3110  178.0650  138.5230 C   0  0  0  0  0  2  0  0  0  0  0  0
  182.7320  177.7530  139.8210 N   0  0  0  0  0  0  0  0  0  0  0  0
  184.7450  179.4150  143.5070 C   0  0  0  0  0  3  0  0  0  0  0  0
  183.2010  178.4390  140.9980 C   0  0  0  0  0  0  0  0  0  0  0  0
  183.3120  178.9210  145.3680 N   0  0  0  0  0  1  0  0  0  0  0  0
  184.5220  178.6550  141.1470 C   0  0  0  0  0  3  0  0  0  0  0  0
  185.1940  179.3620  142.2540 C   0  0  0  0  0  3  0  0  0  0  0  0
  182.2220  179.0000  141.8970 N   0  0  0  0  0  0  0  0  0  0  0  0
  183.5250  178.6880  143.9510 C   0  0  1  0  0  3  0  0  0  0  0  0
  182.3330  179.1510  143.1830 C   0  0  0  0  0  3  0  0  0  0  0  0
  180.8400  176.8520  138.5510 C   0  0  0  0  0  1  0  0  0  0  0  0
  181.6180  176.8050  139.8530 C   0  0  0  0  0  2  0  0  0  0  0  0
  1  3  2  0  0  0  0
  1  6  1  0  0  0  0
  2  5  1  0  0  0  0
  2  7  1  0  0  0  0
  4  2  2  0  0  0  0
  5  1  1  0  0  0  0
  7  9  2  0  0  0  0
  8 13  1  0  0  0  0
  9  8  2  0  0  0  0
 10 11  1  0  0  0  0
 11 12  2  0  0  0  0
 12 16  1  0  0  0  0
 13 15  2  0  0  0  0
 14 13  1  0  0  0  0
 14 10  2  0  0  0  0
 15 12  1  0  0  0  0
 16 19  2  0  0  0  0
 16 23  1  0  0  0  0
 17 20  1  0  0  0  0
 18 22  1  0  0  0  0
 19 25  1  0  0  0  0
 21 17  1  0  0  0  0
 22 20  2  0  0  0  0
 23 24  2  0  0  0  0
 24 18  1  0  0  0  0
 24 17  1  0  0  0  0
 25 18  2  0  0  0  0
 26  4  1  0  0  0  0
 26 27  1  0  0  0  0
 27 28  1  0  0  0  0
 28 30  1  0  0  0  0
 29 33  1  0  0  0  0
 30 31  1  0  0  0  0
 31 32  2  0  0  0  0
 31 29  1  0  0  0  0
 33 34  1  0  0  0  0
 34 44  1  0  0  0  0
 34 36  1  0  0  0  0
 35 41  1  0  0  0  0
 36 38  2  0  0  0  0
 36 40  1  0  0  0  0
 38 39  1  0  0  0  0
 39 35  2  0  0  0  0
 40 42  2  0  0  0  0
 41 37  1  1  0  0  0
 42 41  1  0  0  0  0
 43 44  1  0  0  0  0
M  END
>  <MODEL>
9

>  <REMARK>
 VINA RESULT:      -8.9      2.242      4.125
  Name = 
  11 active torsions:
  status: ('A' for Active; 'I' for Inactive)
    1  A    between atoms: N_1  and  C_41
    2  A    between atoms: N_2  and  N_12
    3  A    between atoms: N_2  and  C_43
    4  A    between atoms: C_4  and  N_25
    5  A    between atoms: C_5  and  C_24
    6  A    between atoms: N_8  and  C_43
    7  A    between atoms: N_12  and  N_32
    8  A    between atoms: C_15  and  C_22
    9  A    between atoms: C_17  and  N_25
   10  A    between atoms: N_25  and  C_41
   11  A    between atoms: C_30  and  C_31
                            x       y       z     vdW  Elec       q    Type
                         _______ _______ _______ _____ _____    ______ ____

>  <TORSDO>
F 11

$$$$
