=
 OpenBabel10222420453D

 39 45  0  0  1  0  0  0  0  0999 V2000
  181.8670  179.1570  138.4870 C   0  0  1  0  0  3  0  0  0  0  0  0
  182.1450  179.4180  139.9070 N   0  0  0  0  0  0  0  0  0  0  0  0
  182.5370  177.8460  138.1730 C   0  0  2  0  0  0  0  0  0  0  0  0
  183.4650  177.9070  136.9670 C   0  0  2  0  0  3  0  0  0  0  0  0
  182.2090  177.0410  136.9360 C   0  0  0  0  0  2  0  0  0  0  0  0
  180.8530  179.5380  140.5910 C   0  0  0  0  0  3  0  0  0  0  0  0
  182.8250  178.2450  140.4840 C   0  0  1  0  0  3  0  0  0  0  0  0
  180.4290  179.0680  138.3390 N   0  0  0  0  0  0  0  0  0  0  0  0
  179.7470  179.2770  139.5910 C   0  0  0  0  0  3  0  0  0  0  0  0
  183.0470  177.1870  139.4150 C   0  0  0  0  0  2  0  0  0  0  0  0
  180.5290  181.3880  135.7540 C   0  0  0  0  0  2  0  0  0  0  0  0
  179.9410  180.0500  136.1880 C   0  0  0  0  0  0  0  0  0  0  0  0
  179.6640  180.7130  134.8430 C   0  0  0  0  0  2  0  0  0  0  0  0
  179.7840  179.0620  137.0600 C   0  0  0  0  0  3  0  0  0  0  0  0
  184.6320  177.0500  137.1330 N   0  0  0  0  0  2  0  0  0  0  0  0
  187.0020  176.6710  137.6960 N   0  0  0  0  0  2  0  0  0  0  0  0
  185.8920  177.5610  137.5700 C   0  0  0  0  0  0  0  0  0  0  0  0
  186.0230  178.7870  137.8380 O   0  0  0  0  0  0  0  0  0  0  0  0
  188.3290  177.1190  138.0920 C   0  0  0  0  0  2  0  0  0  0  0  0
  189.6300  177.3910  140.1480 C   0  0  2  0  0  3  0  0  0  0  0  0
  189.2280  178.6550  139.6770 O   0  0  0  0  0  0  0  0  0  0  0  0
  188.3060  177.6050  139.5290 C   0  0  1  0  0  3  0  0  0  0  0  0
  190.3480  176.2910  142.2160 C   0  0  0  0  0  2  0  0  0  0  0  0
  189.4910  177.3580  141.6560 C   0  0  1  0  0  3  0  0  0  0  0  0
  190.7410  177.6410  142.2360 O   0  0  0  0  0  0  0  0  0  0  0  0
  184.1660  178.6560  141.0770 C   0  0  0  0  0  2  0  0  0  0  0  0
  184.4150  177.9570  142.4060 C   0  0  0  0  0  2  0  0  0  0  0  0
  182.9970  178.8100  144.2680 C   0  0  0  0  0  1  0  0  0  0  0  0
  184.3360  178.9370  143.5670 C   0  0  1  0  0  3  0  0  0  0  0  0
  185.4120  178.6520  144.5170 C   0  0  0  0  0  0  0  0  0  0  0  0
  186.2960  178.4090  145.3010 C   0  0  0  0  0  0  0  0  0  0  0  0
  187.1300  178.2980  147.6070 C   0  0  0  0  0  3  0  0  0  0  0  0
  188.1540  178.0110  148.5170 C   0  0  0  0  0  3  0  0  0  0  0  0
  187.3430  178.1150  146.2370 C   0  0  0  0  0  0  0  0  0  0  0  0
  189.6000  177.3600  146.6860 C   0  0  0  0  0  0  0  0  0  0  0  0
  188.5770  177.6470  145.7770 C   0  0  0  0  0  3  0  0  0  0  0  0
  189.3880  177.5430  148.0570 C   0  0  0  0  0  3  0  0  0  0  0  0
  191.8900  176.4950  145.8310 N   0  0  0  0  0  0  0  0  0  0  0  0
  190.8680  176.8810  146.2120 C   0  0  0  0  0  0  0  0  0  0  0  0
  1  8  1  1  0  0  0
  1  2  1  0  0  0  0
  2  7  1  0  0  0  0
  2  6  1  0  0  0  0
  3  5  1  6  0  0  0
  3  1  1  0  0  0  0
  3 10  1  0  0  0  0
  4 15  1  1  0  0  0
  4  3  1  0  0  0  0
  5  4  1  0  0  0  0
  7 26  1  6  0  0  0
  8  9  1  0  0  0  0
  9  6  2  0  0  0  0
 10  7  1  0  0  0  0
 11 12  1  0  0  0  0
 12 14  2  0  0  0  0
 13 11  1  0  0  0  0
 13 12  1  0  0  0  0
 14  8  1  0  0  0  0
 15 17  1  0  0  0  0
 16 19  1  0  0  0  0
 17 16  1  0  0  0  0
 17 18  2  0  0  0  0
 20 21  1  1  0  0  0
 20 24  1  0  0  0  0
 22 19  1  6  0  0  0
 22 21  1  0  0  0  0
 22 20  1  0  0  0  0
 23 25  1  0  0  0  0
 24 23  1  6  0  0  0
 24 25  1  0  0  0  0
 26 27  1  0  0  0  0
 27 29  1  0  0  0  0
 29 28  1  1  0  0  0
 29 30  1  0  0  0  0
 30 31  3  0  0  0  0
 31 34  1  0  0  0  0
 32 33  1  0  0  0  0
 34 32  2  0  0  0  0
 35 37  1  0  0  0  0
 36 34  1  0  0  0  0
 36 35  2  0  0  0  0
 37 33  2  0  0  0  0
 38 39  3  0  0  0  0
 39 35  1  0  0  0  0
M  END
>  <MODEL>
1

>  <REMARK>
 VINA RESULT:      -8.5      0.000      0.000
  Name = 
  11 active torsions:
  status: ('A' for Active; 'I' for Inactive)
    1  A    between atoms: C_1  and  C_23
    2  A    between atoms: C_9  and  C_18
    3  A    between atoms: C_11  and  N_12
    4  A    between atoms: C_13  and  C_14
    5  A    between atoms: C_13  and  C_23
    6  A    between atoms: C_14  and  C_30
    7  A    between atoms: N_15  and  C_32
    8  A    between atoms: C_16  and  C_31
    9  A    between atoms: C_19  and  C_28
   10  A    between atoms: C_32  and  C_35
   11  A    between atoms: N_33  and  C_38
                            x       y       z     vdW  Elec       q    Type
                         _______ _______ _______ _____ _____    ______ ____

>  <TORSDO>
F 11

$$$$
=
 OpenBabel10222420453D

 39 45  0  0  1  0  0  0  0  0999 V2000
  181.8410  179.0870  141.0000 C   0  0  1  0  0  3  0  0  0  0  0  0
  181.6300  179.2880  142.4410 N   0  0  0  0  0  0  0  0  0  0  0  0
  183.1330  178.3250  140.8770 C   0  0  2  0  0  0  0  0  0  0  0  0
  184.1380  178.9750  139.9350 C   0  0  2  0  0  3  0  0  0  0  0  0
  183.5380  177.6100  139.6070 C   0  0  0  0  0  2  0  0  0  0  0  0
  180.3440  178.6730  142.7860 C   0  0  0  0  0  3  0  0  0  0  0  0
  182.6670  178.5480  143.1830 C   0  0  1  0  0  3  0  0  0  0  0  0
  180.7200  178.3150  140.5050 N   0  0  0  0  0  0  0  0  0  0  0  0
  179.7720  178.0140  141.5490 C   0  0  0  0  0  3  0  0  0  0  0  0
  183.6230  177.8680  142.2140 C   0  0  0  0  0  2  0  0  0  0  0  0
  181.1550  180.4980  137.8370 C   0  0  0  0  0  2  0  0  0  0  0  0
  180.6940  179.0970  138.2200 C   0  0  0  0  0  0  0  0  0  0  0  0
  180.6970  179.6380  136.7950 C   0  0  0  0  0  2  0  0  0  0  0  0
  180.4630  178.1360  139.1070 C   0  0  0  0  0  3  0  0  0  0  0  0
  185.5100  178.7950  140.3930 N   0  0  0  0  0  2  0  0  0  0  0  0
  187.9230  178.4860  139.9960 N   0  0  0  0  0  2  0  0  0  0  0  0
  186.6040  178.6770  139.4830 C   0  0  0  0  0  0  0  0  0  0  0  0
  186.4050  178.7380  138.2380 O   0  0  0  0  0  0  0  0  0  0  0  0
  189.0850  178.3130  139.1350 C   0  0  0  0  0  2  0  0  0  0  0  0
  190.7720  176.6340  138.5640 C   0  0  2  0  0  3  0  0  0  0  0  0
  190.2870  176.3880  139.8610 O   0  0  0  0  0  0  0  0  0  0  0  0
  189.3520  176.8360  138.9130 C   0  0  1  0  0  3  0  0  0  0  0  0
  191.8120  175.4960  136.6600 C   0  0  0  0  0  2  0  0  0  0  0  0
  190.9380  175.3140  137.8390 C   0  0  1  0  0  3  0  0  0  0  0  0
  192.2970  174.9500  137.8610 O   0  0  0  0  0  0  0  0  0  0  0  0
  183.4480  179.4980  144.0810 C   0  0  0  0  0  2  0  0  0  0  0  0
  184.9440  179.2280  143.9970 C   0  0  0  0  0  2  0  0  0  0  0  0
  184.6410  178.2240  146.2570 C   0  0  0  0  0  1  0  0  0  0  0  0
  185.5520  179.0630  145.3810 C   0  0  1  0  0  3  0  0  0  0  0  0
  186.8550  178.4070  145.2640 C   0  0  0  0  0  0  0  0  0  0  0  0
  187.9330  177.8740  145.1710 C   0  0  0  0  0  0  0  0  0  0  0  0
  189.6960  176.8450  143.8070 C   0  0  0  0  0  3  0  0  0  0  0  0
  190.9500  176.2330  143.7010 C   0  0  0  0  0  3  0  0  0  0  0  0
  189.2190  177.2470  145.0580 C   0  0  0  0  0  0  0  0  0  0  0  0
  191.2460  176.4240  146.0980 C   0  0  0  0  0  0  0  0  0  0  0  0
  189.9930  177.0360  146.2030 C   0  0  0  0  0  3  0  0  0  0  0  0
  191.7240  176.0220  144.8460 C   0  0  0  0  0  3  0  0  0  0  0  0
  192.6790  176.0320  148.2220 N   0  0  0  0  0  0  0  0  0  0  0  0
  192.0400  176.2080  147.2740 C   0  0  0  0  0  0  0  0  0  0  0  0
  1  8  1  1  0  0  0
  1  2  1  0  0  0  0
  2  6  1  0  0  0  0
  2  7  1  0  0  0  0
  3  5  1  6  0  0  0
  3  1  1  0  0  0  0
  3 10  1  0  0  0  0
  4 15  1  1  0  0  0
  4  3  1  0  0  0  0
  5  4  1  0  0  0  0
  7 26  1  1  0  0  0
  8  9  1  0  0  0  0
  9  6  2  0  0  0  0
 10  7  1  0  0  0  0
 11 12  1  0  0  0  0
 12 14  2  0  0  0  0
 13 11  1  0  0  0  0
 13 12  1  0  0  0  0
 14  8  1  0  0  0  0
 17 16  1  0  0  0  0
 17 15  1  0  0  0  0
 18 17  2  0  0  0  0
 19 16  1  0  0  0  0
 20 22  1  0  0  0  0
 20 21  1  1  0  0  0
 22 19  1  1  0  0  0
 22 21  1  0  0  0  0
 23 25  1  0  0  0  0
 24 23  1  6  0  0  0
 24 25  1  0  0  0  0
 24 20  1  0  0  0  0
 27 26  1  0  0  0  0
 27 29  1  0  0  0  0
 29 28  1  1  0  0  0
 30 29  1  0  0  0  0
 31 30  3  0  0  0  0
 32 34  1  0  0  0  0
 33 32  2  0  0  0  0
 33 37  1  0  0  0  0
 34 31  1  0  0  0  0
 34 36  2  0  0  0  0
 35 36  1  0  0  0  0
 35 39  1  0  0  0  0
 37 35  2  0  0  0  0
 39 38  3  0  0  0  0
M  END
>  <MODEL>
2

>  <REMARK>
 VINA RESULT:      -8.4      1.987      3.012
  Name = 
  11 active torsions:
  status: ('A' for Active; 'I' for Inactive)
    1  A    between atoms: C_1  and  C_23
    2  A    between atoms: C_9  and  C_18
    3  A    between atoms: C_11  and  N_12
    4  A    between atoms: C_13  and  C_14
    5  A    between atoms: C_13  and  C_23
    6  A    between atoms: C_14  and  C_30
    7  A    between atoms: N_15  and  C_32
    8  A    between atoms: C_16  and  C_31
    9  A    between atoms: C_19  and  C_28
   10  A    between atoms: C_32  and  C_35
   11  A    between atoms: N_33  and  C_38
                            x       y       z     vdW  Elec       q    Type
                         _______ _______ _______ _____ _____    ______ ____

>  <TORSDO>
F 11

$$$$
=
 OpenBabel10222420453D

 39 45  0  0  1  0  0  0  0  0999 V2000
  189.5270  176.1390  137.9250 C   0  0  1  0  0  3  0  0  0  0  0  0
  190.4290  176.2880  139.0770 N   0  0  0  0  0  0  0  0  0  0  0  0
  188.7620  177.4330  137.8350 C   0  0  2  0  0  0  0  0  0  0  0  0
  187.2510  177.2480  137.7930 C   0  0  2  0  0  3  0  0  0  0  0  0
  187.9930  177.8380  136.5970 C   0  0  0  0  0  2  0  0  0  0  0  0
  191.7990  176.1070  138.5860 C   0  0  0  0  0  3  0  0  0  0  0  0
  190.3360  177.6690  139.5820 C   0  0  1  0  0  3  0  0  0  0  0  0
  190.3540  175.9280  136.7560 N   0  0  0  0  0  0  0  0  0  0  0  0
  191.7570  175.9120  137.0860 C   0  0  0  0  0  3  0  0  0  0  0  0
  189.3140  178.4560  138.7750 C   0  0  0  0  0  2  0  0  0  0  0  0
  188.0890  173.4010  136.0080 C   0  0  0  0  0  2  0  0  0  0  0  0
  188.9490  174.5050  135.4030 C   0  0  0  0  0  0  0  0  0  0  0  0
  188.0470  173.5790  134.5940 C   0  0  0  0  0  2  0  0  0  0  0  0
  189.8170  175.5050  135.4970 C   0  0  0  0  0  3  0  0  0  0  0  0
  186.5510  178.3160  138.4950 N   0  0  0  0  0  2  0  0  0  0  0  0
  184.5070  179.5370  139.1330 N   0  0  0  0  0  2  0  0  0  0  0  0
  185.1320  178.4580  138.4360 C   0  0  0  0  0  0  0  0  0  0  0  0
  184.4370  177.6410  137.7710 O   0  0  0  0  0  0  0  0  0  0  0  0
  183.0720  179.7780  139.0870 C   0  0  0  0  0  2  0  0  0  0  0  0
  181.2600  178.4810  140.1020 C   0  0  2  0  0  3  0  0  0  0  0  0
  182.4990  177.9380  140.4880 O   0  0  0  0  0  0  0  0  0  0  0  0
  182.4290  179.3370  140.3890 C   0  0  1  0  0  3  0  0  0  0  0  0
  178.9540  178.1390  140.8540 C   0  0  0  0  0  2  0  0  0  0  0  0
  180.3250  178.4760  141.2940 C   0  0  1  0  0  3  0  0  0  0  0  0
  179.7940  177.1830  141.4510 O   0  0  0  0  0  0  0  0  0  0  0  0
  189.9280  177.6660  141.0480 C   0  0  0  0  0  2  0  0  0  0  0  0
  190.2040  176.3140  141.6910 C   0  0  0  0  0  2  0  0  0  0  0  0
  191.6680  177.4640  143.3470 C   0  0  0  0  0  1  0  0  0  0  0  0
  190.5410  176.4640  143.1670 C   0  0  1  0  0  3  0  0  0  0  0  0
  189.3570  176.9290  143.8900 C   0  0  0  0  0  0  0  0  0  0  0  0
  188.3860  177.3130  144.4940 C   0  0  0  0  0  0  0  0  0  0  0  0
  187.2910  177.9150  146.6080 C   0  0  0  0  0  3  0  0  0  0  0  0
  186.1650  178.3560  147.3110 C   0  0  0  0  0  3  0  0  0  0  0  0
  187.2330  177.7660  145.2190 C   0  0  0  0  0  0  0  0  0  0  0  0
  184.9240  178.4990  145.2360 C   0  0  0  0  0  0  0  0  0  0  0  0
  186.0500  178.0580  144.5330 C   0  0  0  0  0  3  0  0  0  0  0  0
  184.9820  178.6470  146.6260 C   0  0  0  0  0  3  0  0  0  0  0  0
  182.7310  179.0360  143.9630 N   0  0  0  0  0  0  0  0  0  0  0  0
  183.7100  178.7970  144.5310 C   0  0  0  0  0  0  0  0  0  0  0  0
  1  8  1  6  0  0  0
  1  2  1  0  0  0  0
  2  7  1  0  0  0  0
  3  5  1  6  0  0  0
  3  1  1  0  0  0  0
  3 10  1  0  0  0  0
  4  3  1  0  0  0  0
  4 15  1  1  0  0  0
  5  4  1  0  0  0  0
  6  2  1  0  0  0  0
  7 26  1  1  0  0  0
  8  9  1  0  0  0  0
  9  6  2  0  0  0  0
 10  7  1  0  0  0  0
 12 14  2  0  0  0  0
 12 11  1  0  0  0  0
 13 12  1  0  0  0  0
 13 11  1  0  0  0  0
 14  8  1  0  0  0  0
 17 15  1  0  0  0  0
 17 16  1  0  0  0  0
 18 17  2  0  0  0  0
 19 16  1  0  0  0  0
 20 22  1  0  0  0  0
 20 21  1  1  0  0  0
 20 24  1  0  0  0  0
 22 19  1  6  0  0  0
 22 21  1  0  0  0  0
 23 25  1  0  0  0  0
 24 23  1  6  0  0  0
 24 25  1  0  0  0  0
 26 27  1  0  0  0  0
 27 29  1  0  0  0  0
 29 28  1  6  0  0  0
 29 30  1  0  0  0  0
 30 31  3  0  0  0  0
 31 34  1  0  0  0  0
 32 33  1  0  0  0  0
 34 32  2  0  0  0  0
 35 37  1  0  0  0  0
 36 34  1  0  0  0  0
 36 35  2  0  0  0  0
 37 33  2  0  0  0  0
 38 39  3  0  0  0  0
 39 35  1  0  0  0  0
M  END
>  <MODEL>
3

>  <REMARK>
 VINA RESULT:      -8.4      2.942      7.528
  Name = 
  11 active torsions:
  status: ('A' for Active; 'I' for Inactive)
    1  A    between atoms: C_1  and  C_23
    2  A    between atoms: C_9  and  C_18
    3  A    between atoms: C_11  and  N_12
    4  A    between atoms: C_13  and  C_14
    5  A    between atoms: C_13  and  C_23
    6  A    between atoms: C_14  and  C_30
    7  A    between atoms: N_15  and  C_32
    8  A    between atoms: C_16  and  C_31
    9  A    between atoms: C_19  and  C_28
   10  A    between atoms: C_32  and  C_35
   11  A    between atoms: N_33  and  C_38
                            x       y       z     vdW  Elec       q    Type
                         _______ _______ _______ _____ _____    ______ ____

>  <TORSDO>
F 11

$$$$
=
 OpenBabel10222420453D

 39 45  0  0  1  0  0  0  0  0999 V2000
  189.4370  177.0040  145.4830 C   0  0  1  0  0  3  0  0  0  0  0  0
  188.0260  177.0730  145.0760 N   0  0  0  0  0  0  0  0  0  0  0  0
  190.1830  177.8930  144.5240 C   0  0  2  0  0  0  0  0  0  0  0  0
  191.3640  177.2080  143.8490 C   0  0  2  0  0  3  0  0  0  0  0  0
  191.5880  178.3840  144.7960 C   0  0  0  0  0  2  0  0  0  0  0  0
  187.2610  177.5650  146.2260 C   0  0  0  0  0  3  0  0  0  0  0  0
  187.8850  178.0800  144.0090 C   0  0  1  0  0  3  0  0  0  0  0  0
  189.5170  177.5020  146.8410 N   0  0  0  0  0  0  0  0  0  0  0  0
  188.2230  177.8760  147.3530 C   0  0  0  0  0  3  0  0  0  0  0  0
  189.2420  178.6720  143.6620 C   0  0  0  0  0  2  0  0  0  0  0  0
  192.0560  175.1320  146.7210 C   0  0  0  0  0  2  0  0  0  0  0  0
  191.5640  176.3750  147.4520 C   0  0  0  0  0  0  0  0  0  0  0  0
  192.8460  175.6270  147.8000 C   0  0  0  0  0  2  0  0  0  0  0  0
  190.6920  177.3580  147.6470 C   0  0  0  0  0  3  0  0  0  0  0  0
  191.5450  177.6600  142.4760 N   0  0  0  0  0  2  0  0  0  0  0  0
  191.1360  177.4960  140.0510 N   0  0  0  0  0  2  0  0  0  0  0  0
  190.9040  177.0150  141.3750 C   0  0  0  0  0  0  0  0  0  0  0  0
  190.1420  176.0280  141.5710 O   0  0  0  0  0  0  0  0  0  0  0  0
  190.5550  176.8690  138.8720 C   0  0  0  0  0  2  0  0  0  0  0  0
  188.2800  177.7190  138.5620 C   0  0  2  0  0  3  0  0  0  0  0  0
  189.1040  178.7500  139.0510 O   0  0  0  0  0  0  0  0  0  0  0  0
  189.6850  177.8640  138.1280 C   0  0  1  0  0  3  0  0  0  0  0  0
  186.1860  177.3970  137.3320 C   0  0  0  0  0  2  0  0  0  0  0  0
  187.3570  178.2850  137.5020 C   0  0  1  0  0  3  0  0  0  0  0  0
  186.1140  178.5780  138.0920 O   0  0  0  0  0  0  0  0  0  0  0  0
  187.2770  177.4450  142.7650 C   0  0  0  0  0  2  0  0  0  0  0  0
  186.2620  178.3750  142.1150 C   0  0  0  0  0  2  0  0  0  0  0  0
  184.6960  179.3770  143.7740 C   0  0  0  0  0  1  0  0  0  0  0  0
  184.8980  178.2510  142.7770 C   0  0  1  0  0  3  0  0  0  0  0  0
  183.8550  178.3140  141.7530 C   0  0  0  0  0  0  0  0  0  0  0  0
  183.0000  178.3630  140.9030 C   0  0  0  0  0  0  0  0  0  0  0  0
  181.0940  177.3640  139.7220 C   0  0  0  0  0  3  0  0  0  0  0  0
  180.1100  177.4260  138.7290 C   0  0  0  0  0  3  0  0  0  0  0  0
  181.9900  178.4240  139.8860 C   0  0  0  0  0  0  0  0  0  0  0  0
  180.9210  179.6100  138.0640 C   0  0  0  0  0  0  0  0  0  0  0  0
  181.9040  179.5470  139.0570 C   0  0  0  0  0  3  0  0  0  0  0  0
  180.0240  178.5490  137.9000 C   0  0  0  0  0  3  0  0  0  0  0  0
  180.7630  181.6930  136.5290 N   0  0  0  0  0  0  0  0  0  0  0  0
  180.8340  180.7630  137.2130 C   0  0  0  0  0  0  0  0  0  0  0  0
  1  2  1  6  0  0  0
  1  8  1  0  0  0  0
  2  6  1  0  0  0  0
  3 10  1  6  0  0  0
  3  5  1  0  0  0  0
  3  1  1  0  0  0  0
  4 15  1  6  0  0  0
  4  3  1  0  0  0  0
  4  5  1  0  0  0  0
  6  9  2  0  0  0  0
  7 26  1  6  0  0  0
  7  2  1  0  0  0  0
  8  9  1  0  0  0  0
  8 14  1  0  0  0  0
 10  7  1  0  0  0  0
 11 12  1  0  0  0  0
 11 13  1  0  0  0  0
 12 14  2  0  0  0  0
 12 13  1  0  0  0  0
 16 17  1  0  0  0  0
 17 18  2  0  0  0  0
 17 15  1  0  0  0  0
 19 16  1  0  0  0  0
 20 21  1  1  0  0  0
 22 20  1  0  0  0  0
 22 19  1  1  0  0  0
 22 21  1  0  0  0  0
 23 25  1  0  0  0  0
 24 23  1  6  0  0  0
 24 25  1  0  0  0  0
 24 20  1  0  0  0  0
 27 26  1  0  0  0  0
 27 29  1  0  0  0  0
 29 28  1  1  0  0  0
 30 29  1  0  0  0  0
 31 30  3  0  0  0  0
 32 34  1  0  0  0  0
 33 32  2  0  0  0  0
 34 31  1  0  0  0  0
 35 36  1  0  0  0  0
 36 34  2  0  0  0  0
 37 35  2  0  0  0  0
 37 33  1  0  0  0  0
 38 39  3  0  0  0  0
 39 35  1  0  0  0  0
M  END
>  <MODEL>
4

>  <REMARK>
 VINA RESULT:      -8.0      2.089      9.788
  Name = 
  11 active torsions:
  status: ('A' for Active; 'I' for Inactive)
    1  A    between atoms: C_1  and  C_23
    2  A    between atoms: C_9  and  C_18
    3  A    between atoms: C_11  and  N_12
    4  A    between atoms: C_13  and  C_14
    5  A    between atoms: C_13  and  C_23
    6  A    between atoms: C_14  and  C_30
    7  A    between atoms: N_15  and  C_32
    8  A    between atoms: C_16  and  C_31
    9  A    between atoms: C_19  and  C_28
   10  A    between atoms: C_32  and  C_35
   11  A    between atoms: N_33  and  C_38
                            x       y       z     vdW  Elec       q    Type
                         _______ _______ _______ _____ _____    ______ ____

>  <TORSDO>
F 11

$$$$
=
 OpenBabel10222420453D

 39 45  0  0  1  0  0  0  0  0999 V2000
  190.2540  176.7280  139.4990 C   0  0  1  0  0  3  0  0  0  0  0  0
  189.9310  176.9900  140.9090 N   0  0  0  0  0  0  0  0  0  0  0  0
  189.3670  177.6440  138.6990 C   0  0  2  0  0  0  0  0  0  0  0  0
  188.5570  176.9270  137.6260 C   0  0  2  0  0  3  0  0  0  0  0  0
  189.6210  177.9520  137.2400 C   0  0  0  0  0  2  0  0  0  0  0  0
  191.1690  177.4160  141.5700 C   0  0  0  0  0  3  0  0  0  0  0  0
  188.9960  178.1270  140.9820 C   0  0  1  0  0  3  0  0  0  0  0  0
  191.6540  177.0480  139.3120 N   0  0  0  0  0  0  0  0  0  0  0  0
  192.2730  177.4890  140.5370 C   0  0  0  0  0  3  0  0  0  0  0  0
  188.6500  178.6130  139.5830 C   0  0  0  0  0  2  0  0  0  0  0  0
  191.3700  174.2590  137.2580 C   0  0  0  0  0  2  0  0  0  0  0  0
  192.1270  175.5650  137.4650 C   0  0  0  0  0  0  0  0  0  0  0  0
  192.3870  174.5950  136.3180 C   0  0  0  0  0  2  0  0  0  0  0  0
  192.3760  176.6880  138.1280 C   0  0  0  0  0  3  0  0  0  0  0  0
  187.2370  177.5190  137.4520 N   0  0  0  0  0  2  0  0  0  0  0  0
  184.8100  177.3660  137.0540 N   0  0  0  0  0  2  0  0  0  0  0  0
  186.0720  176.7240  137.2350 C   0  0  0  0  0  0  0  0  0  0  0  0
  186.1580  175.4650  137.2010 O   0  0  0  0  0  0  0  0  0  0  0  0
  183.5830  176.6300  136.7850 C   0  0  0  0  0  2  0  0  0  0  0  0
  182.2050  175.9100  138.6770 C   0  0  2  0  0  3  0  0  0  0  0  0
  183.0250  176.9810  139.0750 O   0  0  0  0  0  0  0  0  0  0  0  0
  182.5040  177.0380  137.7710 C   0  0  1  0  0  3  0  0  0  0  0  0
  179.9310  175.0090  138.8190 C   0  0  0  0  0  2  0  0  0  0  0  0
  180.8270  176.0910  139.2800 C   0  0  1  0  0  3  0  0  0  0  0  0
  180.5340  174.9770  140.0880 O   0  0  0  0  0  0  0  0  0  0  0  0
  187.7210  177.7120  141.7030 C   0  0  0  0  0  2  0  0  0  0  0  0
  186.5620  178.6300  141.3400 C   0  0  0  0  0  2  0  0  0  0  0  0
  184.4310  177.8770  142.3880 C   0  0  0  0  0  1  0  0  0  0  0  0
  185.6160  178.8150  142.5170 C   0  0  1  0  0  3  0  0  0  0  0  0
  186.3300  178.5290  143.7620 C   0  0  0  0  0  0  0  0  0  0  0  0
  186.9160  178.2850  144.7880 C   0  0  0  0  0  0  0  0  0  0  0  0
  186.9680  178.1690  147.2400 C   0  0  0  0  0  3  0  0  0  0  0  0
  187.6470  177.8810  148.4290 C   0  0  0  0  0  3  0  0  0  0  0  0
  187.6080  177.9890  146.0090 C   0  0  0  0  0  0  0  0  0  0  0  0
  189.6030  177.2320  147.1560 C   0  0  0  0  0  0  0  0  0  0  0  0
  188.9250  177.5210  145.9680 C   0  0  0  0  0  3  0  0  0  0  0  0
  188.9640  177.4130  148.3870 C   0  0  0  0  0  3  0  0  0  0  0  0
  192.0460  176.3680  147.0770 N   0  0  0  0  0  0  0  0  0  0  0  0
  190.9560  176.7530  147.1120 C   0  0  0  0  0  0  0  0  0  0  0  0
  1  8  1  1  0  0  0
  1  2  1  0  0  0  0
  2  7  1  0  0  0  0
  2  6  1  0  0  0  0
  3  5  1  6  0  0  0
  3  1  1  0  0  0  0
  3 10  1  0  0  0  0
  4 15  1  1  0  0  0
  4  3  1  0  0  0  0
  5  4  1  0  0  0  0
  7 26  1  6  0  0  0
  8  9  1  0  0  0  0
  9  6  2  0  0  0  0
 10  7  1  0  0  0  0
 11 12  1  0  0  0  0
 12 14  2  0  0  0  0
 13 11  1  0  0  0  0
 13 12  1  0  0  0  0
 14  8  1  0  0  0  0
 16 17  1  0  0  0  0
 17 15  1  0  0  0  0
 18 17  2  0  0  0  0
 19 16  1  0  0  0  0
 20 21  1  1  0  0  0
 20 24  1  0  0  0  0
 22 19  1  6  0  0  0
 22 20  1  0  0  0  0
 22 21  1  0  0  0  0
 23 25  1  0  0  0  0
 24 23  1  6  0  0  0
 24 25  1  0  0  0  0
 27 26  1  0  0  0  0
 27 29  1  0  0  0  0
 29 28  1  6  0  0  0
 29 30  1  0  0  0  0
 30 31  3  0  0  0  0
 31 34  1  0  0  0  0
 32 33  1  0  0  0  0
 34 32  2  0  0  0  0
 35 37  1  0  0  0  0
 36 34  1  0  0  0  0
 36 35  2  0  0  0  0
 37 33  2  0  0  0  0
 38 39  3  0  0  0  0
 39 35  1  0  0  0  0
M  END
>  <MODEL>
5

>  <REMARK>
 VINA RESULT:      -8.0      2.713      7.163
  Name = 
  11 active torsions:
  status: ('A' for Active; 'I' for Inactive)
    1  A    between atoms: C_1  and  C_23
    2  A    between atoms: C_9  and  C_18
    3  A    between atoms: C_11  and  N_12
    4  A    between atoms: C_13  and  C_14
    5  A    between atoms: C_13  and  C_23
    6  A    between atoms: C_14  and  C_30
    7  A    between atoms: N_15  and  C_32
    8  A    between atoms: C_16  and  C_31
    9  A    between atoms: C_19  and  C_28
   10  A    between atoms: C_32  and  C_35
   11  A    between atoms: N_33  and  C_38
                            x       y       z     vdW  Elec       q    Type
                         _______ _______ _______ _____ _____    ______ ____

>  <TORSDO>
F 11

$$$$
=
 OpenBabel10222420453D

 39 45  0  0  1  0  0  0  0  0999 V2000
  189.0820  178.2770  138.9200 C   0  0  1  0  0  3  0  0  0  0  0  0
  188.8620  178.5130  140.3550 N   0  0  0  0  0  0  0  0  0  0  0  0
  189.8770  177.0020  138.8320 C   0  0  2  0  0  0  0  0  0  0  0  0
  191.1480  177.1310  138.0030 C   0  0  2  0  0  3  0  0  0  0  0  0
  190.0130  176.2170  137.5470 C   0  0  0  0  0  2  0  0  0  0  0  0
  187.4120  178.5640  140.5730 C   0  0  0  0  0  3  0  0  0  0  0  0
  189.3660  177.3530  141.1120 C   0  0  1  0  0  3  0  0  0  0  0  0
  187.7790  178.1350  138.3030 N   0  0  0  0  0  0  0  0  0  0  0  0
  186.7120  178.2850  139.2610 C   0  0  0  0  0  3  0  0  0  0  0  0
  189.9770  176.3320  140.1650 C   0  0  0  0  0  2  0  0  0  0  0  0
  185.5100  176.4010  136.3240 C   0  0  0  0  0  2  0  0  0  0  0  0
  186.6620  177.3990  136.2940 C   0  0  0  0  0  0  0  0  0  0  0  0
  185.9250  176.9010  135.0550 C   0  0  0  0  0  2  0  0  0  0  0  0
  187.5940  178.1370  136.8830 C   0  0  0  0  0  3  0  0  0  0  0  0
  192.2320  176.3160  138.5360 N   0  0  0  0  0  2  0  0  0  0  0  0
  194.3320  175.0470  138.2990 N   0  0  0  0  0  2  0  0  0  0  0  0
  193.3080  175.8570  137.7190 C   0  0  0  0  0  0  0  0  0  0  0  0
  193.3520  176.1610  136.4940 O   0  0  0  0  0  0  0  0  0  0  0  0
  195.4380  174.5030  137.5250 C   0  0  0  0  0  2  0  0  0  0  0  0
  196.4910  172.2930  137.5930 C   0  0  2  0  0  3  0  0  0  0  0  0
  195.4310  172.3370  138.5180 O   0  0  0  0  0  0  0  0  0  0  0  0
  195.2360  173.0160  137.3030 C   0  0  1  0  0  3  0  0  0  0  0  0
  197.8670  170.4600  136.7300 C   0  0  0  0  0  2  0  0  0  0  0  0
  196.4820  170.9500  136.8930 C   0  0  1  0  0  3  0  0  0  0  0  0
  197.0310  169.9830  137.7540 O   0  0  0  0  0  0  0  0  0  0  0  0
  190.4150  177.8000  142.1200 C   0  0  0  0  0  2  0  0  0  0  0  0
  190.9630  176.6160  142.9050 C   0  0  0  0  0  2  0  0  0  0  0  0
  191.6580  177.8780  144.9370 C   0  0  0  0  0  1  0  0  0  0  0  0
  190.7410  176.7960  144.3990 C   0  0  1  0  0  3  0  0  0  0  0  0
  189.3480  177.1730  144.6410 C   0  0  0  0  0  0  0  0  0  0  0  0
  188.2010  177.4920  144.8360 C   0  0  0  0  0  0  0  0  0  0  0  0
  186.3750  178.0670  146.3720 C   0  0  0  0  0  3  0  0  0  0  0  0
  185.0450  178.4430  146.5940 C   0  0  0  0  0  3  0  0  0  0  0  0
  186.8390  177.8780  145.0670 C   0  0  0  0  0  0  0  0  0  0  0  0
  184.6450  178.4390  144.2040 C   0  0  0  0  0  0  0  0  0  0  0  0
  185.9740  178.0630  143.9830 C   0  0  0  0  0  3  0  0  0  0  0  0
  184.1810  178.6280  145.5100 C   0  0  0  0  0  3  0  0  0  0  0  0
  183.0450  178.7790  142.1940 N   0  0  0  0  0  0  0  0  0  0  0  0
  183.7590  178.6280  143.0910 C   0  0  0  0  0  0  0  0  0  0  0  0
  1  8  1  6  0  0  0
  1  2  1  0  0  0  0
  2  6  1  0  0  0  0
  2  7  1  0  0  0  0
  3  5  1  6  0  0  0
  3  1  1  0  0  0  0
  3 10  1  0  0  0  0
  4 15  1  1  0  0  0
  4  3  1  0  0  0  0
  5  4  1  0  0  0  0
  7 26  1  1  0  0  0
  8  9  1  0  0  0  0
  9  6  2  0  0  0  0
 10  7  1  0  0  0  0
 12 11  1  0  0  0  0
 12 14  2  0  0  0  0
 13 12  1  0  0  0  0
 13 11  1  0  0  0  0
 14  8  1  0  0  0  0
 17 16  1  0  0  0  0
 17 15  1  0  0  0  0
 18 17  2  0  0  0  0
 19 16  1  0  0  0  0
 20 21  1  1  0  0  0
 22 19  1  1  0  0  0
 22 20  1  0  0  0  0
 22 21  1  0  0  0  0
 23 25  1  0  0  0  0
 24 23  1  6  0  0  0
 24 20  1  0  0  0  0
 24 25  1  0  0  0  0
 26 27  1  0  0  0  0
 27 29  1  0  0  0  0
 29 30  1  0  0  0  0
 29 28  1  6  0  0  0
 30 31  3  0  0  0  0
 31 34  1  0  0  0  0
 32 33  1  0  0  0  0
 34 32  2  0  0  0  0
 35 37  1  0  0  0  0
 36 35  2  0  0  0  0
 36 34  1  0  0  0  0
 37 33  2  0  0  0  0
 38 39  3  0  0  0  0
 39 35  1  0  0  0  0
M  END
>  <MODEL>
6

>  <REMARK>
 VINA RESULT:      -7.9      4.535      7.341
  Name = 
  11 active torsions:
  status: ('A' for Active; 'I' for Inactive)
    1  A    between atoms: C_1  and  C_23
    2  A    between atoms: C_9  and  C_18
    3  A    between atoms: C_11  and  N_12
    4  A    between atoms: C_13  and  C_14
    5  A    between atoms: C_13  and  C_23
    6  A    between atoms: C_14  and  C_30
    7  A    between atoms: N_15  and  C_32
    8  A    between atoms: C_16  and  C_31
    9  A    between atoms: C_19  and  C_28
   10  A    between atoms: C_32  and  C_35
   11  A    between atoms: N_33  and  C_38
                            x       y       z     vdW  Elec       q    Type
                         _______ _______ _______ _____ _____    ______ ____

>  <TORSDO>
F 11

$$$$
=
 OpenBabel10222420453D

 39 45  0  0  1  0  0  0  0  0999 V2000
  189.4400  176.2440  137.9100 C   0  0  1  0  0  3  0  0  0  0  0  0
  190.3050  176.4890  139.0730 N   0  0  0  0  0  0  0  0  0  0  0  0
  188.5750  177.4700  137.7780 C   0  0  2  0  0  0  0  0  0  0  0  0
  187.0850  177.1610  137.7140 C   0  0  2  0  0  3  0  0  0  0  0  0
  187.8000  177.7860  136.5190 C   0  0  0  0  0  2  0  0  0  0  0  0
  191.6950  176.4100  138.6110 C   0  0  0  0  0  3  0  0  0  0  0  0
  190.0910  177.8680  139.5460 C   0  0  1  0  0  3  0  0  0  0  0  0
  190.3040  176.0780  136.7590 N   0  0  0  0  0  0  0  0  0  0  0  0
  191.6970  176.1820  137.1140 C   0  0  0  0  0  3  0  0  0  0  0  0
  189.0250  178.5530  138.7050 C   0  0  0  0  0  2  0  0  0  0  0  0
  188.1410  173.4560  136.0370 C   0  0  0  0  0  2  0  0  0  0  0  0
  188.9920  174.5590  135.4170 C   0  0  0  0  0  0  0  0  0  0  0  0
  188.1480  173.5740  134.6160 C   0  0  0  0  0  2  0  0  0  0  0  0
  189.8270  175.5870  135.5010 C   0  0  0  0  0  3  0  0  0  0  0  0
  186.2880  178.1830  138.3810 N   0  0  0  0  0  2  0  0  0  0  0  0
  184.1440  179.2710  138.9230 N   0  0  0  0  0  2  0  0  0  0  0  0
  184.8670  178.2340  138.2580 C   0  0  0  0  0  0  0  0  0  0  0  0
  184.2560  177.3730  137.5660 O   0  0  0  0  0  0  0  0  0  0  0  0
  182.7000  179.4200  138.8140 C   0  0  0  0  0  2  0  0  0  0  0  0
  181.0550  181.0270  137.9740 C   0  0  2  0  0  3  0  0  0  0  0  0
  181.1280  181.1200  139.3760 O   0  0  0  0  0  0  0  0  0  0  0  0
  182.3360  180.8880  138.6970 C   0  0  1  0  0  3  0  0  0  0  0  0
  180.4660  182.3440  135.9950 C   0  0  0  0  0  2  0  0  0  0  0  0
  180.9450  182.4210  137.3910 C   0  0  1  0  0  3  0  0  0  0  0  0
  179.6020  182.6700  137.0550 O   0  0  0  0  0  0  0  0  0  0  0  0
  189.6570  177.8610  141.0060 C   0  0  0  0  0  2  0  0  0  0  0  0
  189.8560  176.4860  141.6300 C   0  0  0  0  0  2  0  0  0  0  0  0
  190.9600  177.5200  143.6100 C   0  0  0  0  0  1  0  0  0  0  0  0
  189.8720  176.5690  143.1490 C   0  0  1  0  0  3  0  0  0  0  0  0
  188.5720  177.0480  143.6220 C   0  0  0  0  0  0  0  0  0  0  0  0
  187.5060  177.4470  144.0200 C   0  0  0  0  0  0  0  0  0  0  0  0
  186.0460  178.1470  145.8660 C   0  0  0  0  0  3  0  0  0  0  0  0
  184.8100  178.6080  146.3300 C   0  0  0  0  0  3  0  0  0  0  0  0
  186.2390  177.9210  144.5000 C   0  0  0  0  0  0  0  0  0  0  0  0
  183.9610  178.6160  144.0620 C   0  0  0  0  0  0  0  0  0  0  0  0
  185.1970  178.1550  143.5980 C   0  0  0  0  0  3  0  0  0  0  0  0
  183.7670  178.8420  145.4290 C   0  0  0  0  0  3  0  0  0  0  0  0
  182.0280  179.0500  142.3890 N   0  0  0  0  0  0  0  0  0  0  0  0
  182.8910  178.8560  143.1350 C   0  0  0  0  0  0  0  0  0  0  0  0
  1  8  1  6  0  0  0
  1  2  1  0  0  0  0
  2  7  1  0  0  0  0
  3  5  1  6  0  0  0
  3  1  1  0  0  0  0
  3 10  1  0  0  0  0
  4  3  1  0  0  0  0
  4 15  1  1  0  0  0
  5  4  1  0  0  0  0
  6  2  1  0  0  0  0
  7 26  1  1  0  0  0
  8  9  1  0  0  0  0
  9  6  2  0  0  0  0
 10  7  1  0  0  0  0
 12 14  2  0  0  0  0
 12 11  1  0  0  0  0
 13 12  1  0  0  0  0
 13 11  1  0  0  0  0
 14  8  1  0  0  0  0
 17 15  1  0  0  0  0
 17 16  1  0  0  0  0
 18 17  2  0  0  0  0
 19 16  1  0  0  0  0
 20 22  1  0  0  0  0
 20 21  1  1  0  0  0
 22 19  1  1  0  0  0
 22 21  1  0  0  0  0
 23 25  1  0  0  0  0
 24 23  1  6  0  0  0
 24 20  1  0  0  0  0
 25 24  1  0  0  0  0
 26 27  1  0  0  0  0
 27 29  1  0  0  0  0
 29 28  1  6  0  0  0
 29 30  1  0  0  0  0
 30 31  3  0  0  0  0
 31 34  1  0  0  0  0
 32 33  1  0  0  0  0
 34 32  2  0  0  0  0
 35 37  1  0  0  0  0
 36 35  2  0  0  0  0
 36 34  1  0  0  0  0
 37 33  2  0  0  0  0
 38 39  3  0  0  0  0
 39 35  1  0  0  0  0
M  END
>  <MODEL>
7

>  <REMARK>
 VINA RESULT:      -7.9      2.806      7.890
  Name = 
  11 active torsions:
  status: ('A' for Active; 'I' for Inactive)
    1  A    between atoms: C_1  and  C_23
    2  A    between atoms: C_9  and  C_18
    3  A    between atoms: C_11  and  N_12
    4  A    between atoms: C_13  and  C_14
    5  A    between atoms: C_13  and  C_23
    6  A    between atoms: C_14  and  C_30
    7  A    between atoms: N_15  and  C_32
    8  A    between atoms: C_16  and  C_31
    9  A    between atoms: C_19  and  C_28
   10  A    between atoms: C_32  and  C_35
   11  A    between atoms: N_33  and  C_38
                            x       y       z     vdW  Elec       q    Type
                         _______ _______ _______ _____ _____    ______ ____

>  <TORSDO>
F 11

$$$$
=
 OpenBabel10222420453D

 39 45  0  0  1  0  0  0  0  0999 V2000
  182.4950  179.1610  138.2360 C   0  0  1  0  0  3  0  0  0  0  0  0
  182.4680  179.3180  139.6980 N   0  0  0  0  0  0  0  0  0  0  0  0
  183.2110  177.8630  137.9770 C   0  0  2  0  0  0  0  0  0  0  0  0
  184.3730  177.9910  137.0010 C   0  0  2  0  0  3  0  0  0  0  0  0
  183.1480  177.1520  136.6440 C   0  0  0  0  0  2  0  0  0  0  0  0
  181.0610  179.4140  140.1030 C   0  0  0  0  0  3  0  0  0  0  0  0
  183.0070  178.0960  140.3200 C   0  0  1  0  0  3  0  0  0  0  0  0
  181.1200  179.1090  137.7840 N   0  0  0  0  0  0  0  0  0  0  0  0
  180.1890  179.2440  138.8770 C   0  0  0  0  0  3  0  0  0  0  0  0
  183.4460  177.1100  139.2470 C   0  0  0  0  0  2  0  0  0  0  0  0
  180.4360  181.8930  135.8190 C   0  0  0  0  0  2  0  0  0  0  0  0
  180.5320  180.3710  135.8110 C   0  0  0  0  0  0  0  0  0  0  0  0
  180.1640  181.2140  134.5950 C   0  0  0  0  0  2  0  0  0  0  0  0
  180.7590  179.2040  136.4010 C   0  0  0  0  0  3  0  0  0  0  0  0
  185.4760  177.1030  137.3460 N   0  0  0  0  0  2  0  0  0  0  0  0
  187.8560  176.6480  137.7930 N   0  0  0  0  0  2  0  0  0  0  0  0
  186.8180  177.5730  137.4690 C   0  0  0  0  0  0  0  0  0  0  0  0
  187.0830  178.7940  137.2890 O   0  0  0  0  0  0  0  0  0  0  0  0
  189.2550  177.0390  137.8930 C   0  0  0  0  0  2  0  0  0  0  0  0
  191.3810  175.8300  138.0170 C   0  0  2  0  0  3  0  0  0  0  0  0
  190.3150  174.9180  138.1260 O   0  0  0  0  0  0  0  0  0  0  0  0
  190.1360  175.9920  137.2380 C   0  0  1  0  0  3  0  0  0  0  0  0
  193.7860  175.4440  137.7560 C   0  0  0  0  0  2  0  0  0  0  0  0
  192.4590  175.2290  137.1390 C   0  0  1  0  0  3  0  0  0  0  0  0
  193.1160  174.2120  137.8560 O   0  0  0  0  0  0  0  0  0  0  0  0
  184.1940  178.4390  141.2080 C   0  0  0  0  0  2  0  0  0  0  0  0
  183.9720  177.9520  142.6340 C   0  0  0  0  0  2  0  0  0  0  0  0
  182.9610  179.2960  144.4720 C   0  0  0  0  0  1  0  0  0  0  0  0
  184.2090  179.0680  143.6400 C   0  0  1  0  0  3  0  0  0  0  0  0
  185.3200  178.7010  144.5190 C   0  0  0  0  0  0  0  0  0  0  0  0
  186.2370  178.3910  145.2390 C   0  0  0  0  0  0  0  0  0  0  0  0
  187.1890  178.0980  147.4830 C   0  0  0  0  0  3  0  0  0  0  0  0
  188.2540  177.7310  148.3130 C   0  0  0  0  0  3  0  0  0  0  0  0
  187.3260  178.0140  146.0940 C   0  0  0  0  0  0  0  0  0  0  0  0
  189.5910  177.1990  146.3640 C   0  0  0  0  0  0  0  0  0  0  0  0
  188.5270  177.5650  145.5350 C   0  0  0  0  0  3  0  0  0  0  0  0
  189.4540  177.2820  147.7540 C   0  0  0  0  0  3  0  0  0  0  0  0
  191.8160  176.3680  145.3250 N   0  0  0  0  0  0  0  0  0  0  0  0
  190.8230  176.7390  145.7900 C   0  0  0  0  0  0  0  0  0  0  0  0
  1  8  1  1  0  0  0
  1  2  1  0  0  0  0
  2  6  1  0  0  0  0
  2  7  1  0  0  0  0
  3  5  1  6  0  0  0
  3  1  1  0  0  0  0
  3 10  1  0  0  0  0
  4 15  1  1  0  0  0
  4  3  1  0  0  0  0
  5  4  1  0  0  0  0
  7 26  1  1  0  0  0
  8  9  1  0  0  0  0
  9  6  2  0  0  0  0
 10  7  1  0  0  0  0
 12 11  1  0  0  0  0
 12 14  2  0  0  0  0
 13 12  1  0  0  0  0
 13 11  1  0  0  0  0
 14  8  1  0  0  0  0
 15 17  1  0  0  0  0
 16 19  1  0  0  0  0
 17 16  1  0  0  0  0
 18 17  2  0  0  0  0
 20 21  1  1  0  0  0
 22 19  1  1  0  0  0
 22 20  1  0  0  0  0
 22 21  1  0  0  0  0
 23 25  1  0  0  0  0
 24 23  1  1  0  0  0
 24 25  1  0  0  0  0
 24 20  1  0  0  0  0
 26 27  1  0  0  0  0
 27 29  1  0  0  0  0
 29 28  1  1  0  0  0
 29 30  1  0  0  0  0
 30 31  3  0  0  0  0
 31 34  1  0  0  0  0
 32 33  1  0  0  0  0
 34 32  2  0  0  0  0
 35 37  1  0  0  0  0
 36 34  1  0  0  0  0
 36 35  2  0  0  0  0
 37 33  2  0  0  0  0
 38 39  3  0  0  0  0
 39 35  1  0  0  0  0
M  END
>  <MODEL>
8

>  <REMARK>
 VINA RESULT:      -7.8      1.838      1.998
  Name = 
  11 active torsions:
  status: ('A' for Active; 'I' for Inactive)
    1  A    between atoms: C_1  and  C_23
    2  A    between atoms: C_9  and  C_18
    3  A    between atoms: C_11  and  N_12
    4  A    between atoms: C_13  and  C_14
    5  A    between atoms: C_13  and  C_23
    6  A    between atoms: C_14  and  C_30
    7  A    between atoms: N_15  and  C_32
    8  A    between atoms: C_16  and  C_31
    9  A    between atoms: C_19  and  C_28
   10  A    between atoms: C_32  and  C_35
   11  A    between atoms: N_33  and  C_38
                            x       y       z     vdW  Elec       q    Type
                         _______ _______ _______ _____ _____    ______ ____

>  <TORSDO>
F 11

$$$$
=
 OpenBabel10222420453D

 39 45  0  0  1  0  0  0  0  0999 V2000
  183.6720  178.1830  142.3440 C   0  0  1  0  0  3  0  0  0  0  0  0
  184.8570  178.0580  141.4830 N   0  0  0  0  0  0  0  0  0  0  0  0
  184.0660  179.1280  143.4480 C   0  0  2  0  0  0  0  0  0  0  0  0
  183.8090  178.5770  144.8440 C   0  0  2  0  0  3  0  0  0  0  0  0
  183.0500  179.8030  144.3420 C   0  0  0  0  0  2  0  0  0  0  0  0
  184.4660  178.4860  140.1350 C   0  0  0  0  0  3  0  0  0  0  0  0
  185.8870  179.0040  141.9470 C   0  0  1  0  0  3  0  0  0  0  0  0
  182.6060  178.7310  141.5320 N   0  0  0  0  0  0  0  0  0  0  0  0
  183.0270  178.9540  140.1710 C   0  0  0  0  0  3  0  0  0  0  0  0
  185.3980  179.7530  143.1770 C   0  0  0  0  0  2  0  0  0  0  0  0
  179.9610  180.7410  140.5120 C   0  0  0  0  0  2  0  0  0  0  0  0
  180.3590  179.6140  141.4570 C   0  0  0  0  0  0  0  0  0  0  0  0
  178.9570  180.2070  141.3730 C   0  0  0  0  0  2  0  0  0  0  0  0
  181.2420  178.7640  141.9690 C   0  0  0  0  0  3  0  0  0  0  0  0
  184.8290  179.0030  145.7950 N   0  0  0  0  0  2  0  0  0  0  0  0
  186.7580  178.5740  147.2680 N   0  0  0  0  0  2  0  0  0  0  0  0
  185.7950  178.0980  146.3260 C   0  0  0  0  0  0  0  0  0  0  0  0
  185.7970  176.8870  145.9690 O   0  0  0  0  0  0  0  0  0  0  0  0
  187.7480  177.7070  147.8890 C   0  0  0  0  0  2  0  0  0  0  0  0
  189.8310  176.5990  147.2320 C   0  0  2  0  0  3  0  0  0  0  0  0
  189.1490  177.0360  146.0810 O   0  0  0  0  0  0  0  0  0  0  0  0
  189.0910  177.8780  147.2040 C   0  0  1  0  0  3  0  0  0  0  0  0
  192.0770  175.6290  147.3440 C   0  0  0  0  0  2  0  0  0  0  0  0
  191.3130  176.8620  147.0570 C   0  0  1  0  0  3  0  0  0  0  0  0
  191.8030  176.0390  146.0270 O   0  0  0  0  0  0  0  0  0  0  0  0
  187.1700  178.2570  142.2860 C   0  0  0  0  0  2  0  0  0  0  0  0
  188.1320  178.2540  141.1070 C   0  0  0  0  0  2  0  0  0  0  0  0
  189.3290  176.6570  142.5970 C   0  0  0  0  0  1  0  0  0  0  0  0
  189.4900  177.6960  141.5040 C   0  0  1  0  0  3  0  0  0  0  0  0
  190.1230  177.0810  140.3370 C   0  0  0  0  0  0  0  0  0  0  0  0
  190.6360  176.5710  139.3710 C   0  0  0  0  0  0  0  0  0  0  0  0
  190.6170  174.8780  137.5940 C   0  0  0  0  0  3  0  0  0  0  0  0
  191.2120  174.2830  136.4760 C   0  0  0  0  0  3  0  0  0  0  0  0
  191.2420  175.9590  138.2240 C   0  0  0  0  0  0  0  0  0  0  0  0
  193.0530  175.8500  136.6200 C   0  0  0  0  0  0  0  0  0  0  0  0
  192.4590  176.4440  137.7370 C   0  0  0  0  0  3  0  0  0  0  0  0
  192.4290  174.7680  135.9890 C   0  0  0  0  0  3  0  0  0  0  0  0
  195.3120  176.7490  135.7190 N   0  0  0  0  0  0  0  0  0  0  0  0
  194.3040  176.3480  136.1210 C   0  0  0  0  0  0  0  0  0  0  0  0
  1  2  1  6  0  0  0
  1  3  1  0  0  0  0
  2  7  1  0  0  0  0
  3 10  1  6  0  0  0
  3  5  1  0  0  0  0
  3  4  1  0  0  0  0
  4 15  1  1  0  0  0
  5  4  1  0  0  0  0
  6  9  2  0  0  0  0
  6  2  1  0  0  0  0
  7 26  1  1  0  0  0
  7 10  1  0  0  0  0
  8 14  1  0  0  0  0
  8  1  1  0  0  0  0
  9  8  1  0  0  0  0
 11 13  1  0  0  0  0
 11 12  1  0  0  0  0
 12 14  2  0  0  0  0
 13 12  1  0  0  0  0
 15 17  1  0  0  0  0
 16 19  1  0  0  0  0
 17 16  1  0  0  0  0
 18 17  2  0  0  0  0
 20 21  1  6  0  0  0
 21 22  1  0  0  0  0
 22 20  1  0  0  0  0
 22 19  1  1  0  0  0
 24 20  1  0  0  0  0
 24 23  1  1  0  0  0
 25 24  1  0  0  0  0
 25 23  1  0  0  0  0
 27 29  1  0  0  0  0
 27 26  1  0  0  0  0
 29 28  1  1  0  0  0
 30 29  1  0  0  0  0
 31 30  3  0  0  0  0
 32 34  1  0  0  0  0
 33 32  2  0  0  0  0
 34 31  1  0  0  0  0
 35 36  1  0  0  0  0
 36 34  2  0  0  0  0
 37 33  1  0  0  0  0
 37 35  2  0  0  0  0
 38 39  3  0  0  0  0
 39 35  1  0  0  0  0
M  END
>  <MODEL>
9

>  <REMARK>
 VINA RESULT:      -7.7      3.301      7.528
  Name = 
  11 active torsions:
  status: ('A' for Active; 'I' for Inactive)
    1  A    between atoms: C_1  and  C_23
    2  A    between atoms: C_9  and  C_18
    3  A    between atoms: C_11  and  N_12
    4  A    between atoms: C_13  and  C_14
    5  A    between atoms: C_13  and  C_23
    6  A    between atoms: C_14  and  C_30
    7  A    between atoms: N_15  and  C_32
    8  A    between atoms: C_16  and  C_31
    9  A    between atoms: C_19  and  C_28
   10  A    between atoms: C_32  and  C_35
   11  A    between atoms: N_33  and  C_38
                            x       y       z     vdW  Elec       q    Type
                         _______ _______ _______ _____ _____    ______ ____

>  <TORSDO>
F 11

$$$$
