=
 OpenBabel10222418003D

 33 35  0  0  1  0  0  0  0  0999 V2000
  183.5150  179.0130  145.9040 O   0  0  0  0  0  1  0  0  0  0  0  0
  183.9960  178.7860  143.5340 C   0  0  0  0  0  0  0  0  0  0  0  0
  182.5720  179.1380  143.2950 C   0  0  0  0  0  3  0  0  0  0  0  0
  181.7680  178.9740  142.2270 C   0  0  0  0  0  0  0  0  0  0  0  0
  184.9450  178.5440  142.5120 C   0  0  0  0  0  0  0  0  0  0  0  0
  182.1550  178.2930  140.9650 C   0  0  0  0  0  0  0  0  0  0  0  0
  184.4190  178.7600  144.8740 C   0  0  0  0  0  0  0  0  0  0  0  0
  186.2840  178.2470  142.8660 C   0  0  0  0  0  0  0  0  0  0  0  0
  185.7540  178.4800  145.1770 C   0  0  0  0  0  0  0  0  0  0  0  0
  183.4880  177.6710  140.7630 C   0  0  0  0  0  2  0  0  0  0  0  0
  186.6380  178.2390  144.1780 N   0  0  0  0  0  0  0  0  0  0  0  0
  181.3040  178.2090  139.9950 N   0  0  0  0  0  2  0  0  0  0  0  0
  184.5610  178.6790  141.0790 C   0  0  0  0  0  2  0  0  0  0  0  0
  189.3500  177.3590  140.5870 C   0  0  0  0  0  0  0  0  0  0  0  0
  187.4250  178.5310  140.6120 C   0  0  0  0  0  3  0  0  0  0  0  0
  188.7280  177.0160  142.1140 S   0  0  0  0  0  0  0  0  0  0  0  0
  188.5340  178.1900  139.9030 N   0  0  0  0  0  0  0  0  0  0  0  0
  187.3440  177.9500  141.8760 C   0  0  0  0  0  0  0  0  0  0  0  0
  190.6290  176.8690  140.0500 C   0  0  0  0  0  0  0  0  0  0  0  0
  190.6320  175.8620  139.0940 O   0  0  0  0  0  1  0  0  0  0  0  0
  191.7840  177.3760  140.4610 C   0  0  0  0  0  2  0  0  0  0  0  0
  180.3850  179.4850  142.3270 C   0  0  0  0  0  3  0  0  0  0  0  0
  180.1080  180.6280  142.8670 N   0  0  0  0  0  2  0  0  0  0  0  0
  186.2320  178.4680  146.5900 C   0  0  0  0  0  2  0  0  0  0  0  0
  187.2410  177.3550  146.7840 C   0  0  0  0  0  2  0  0  0  0  0  0
  188.5300  177.9300  147.3370 C   0  0  0  0  0  2  0  0  0  0  0  0
  189.7070  177.0590  146.9370 C   0  0  0  0  0  2  0  0  0  0  0  0
  189.9050  177.1200  145.4900 N   0  0  0  0  0  2  0  0  0  0  0  0
  191.5350  175.8730  144.2210 C   0  0  0  0  0  1  0  0  0  0  0  0
  192.0860  176.8460  146.3110 O   0  0  0  0  0  1  0  0  0  0  0  0
  191.3270  177.0510  145.1540 C   0  0  2  0  0  0  0  0  0  0  0  0
  190.6270  179.1710  144.1160 N   0  0  0  0  0  1  0  0  0  0  0  0
  191.7710  178.3350  144.4480 C   0  0  0  0  0  2  0  0  0  0  0  0
  2  7  1  0  0  0  0
  3  2  1  0  0  0  0
  4 22  1  0  0  0  0
  4  3  2  0  0  0  0
  5  8  1  0  0  0  0
  5  2  2  0  0  0  0
  6  4  1  0  0  0  0
  7  9  2  0  0  0  0
  7  1  1  0  0  0  0
  8 11  2  0  0  0  0
  9 24  1  0  0  0  0
 10  6  1  0  0  0  0
 10 13  1  0  0  0  0
 11  9  1  0  0  0  0
 12  6  2  0  0  0  0
 13  5  1  0  0  0  0
 14 16  1  0  0  0  0
 15 18  2  0  0  0  0
 17 14  2  0  0  0  0
 17 15  1  0  0  0  0
 18 16  1  0  0  0  0
 18  8  1  0  0  0  0
 19 21  2  0  0  0  0
 19 14  1  0  0  0  0
 20 19  1  0  0  0  0
 22 23  2  0  0  0  0
 24 25  1  0  0  0  0
 25 26  1  0  0  0  0
 27 26  1  0  0  0  0
 28 27  1  0  0  0  0
 31 29  1  6  0  0  0
 31 28  1  0  0  0  0
 31 30  1  0  0  0  0
 32 33  1  0  0  0  0
 33 31  1  0  0  0  0
M  END
>  <MODEL>
1

>  <REMARK>
 VINA RESULT:      -8.9      0.000      0.000
  Name = 
  10 active torsions:
  status: ('A' for Active; 'I' for Inactive)
    1  A    between atoms: C_1  and  C_8
    2  A    between atoms: C_3  and  C_5
    3  A    between atoms: C_9  and  N_17
    4  A    between atoms: C_9  and  C_22
    5  A    between atoms: N_17  and  C_28
    6  A    between atoms: C_18  and  C_33
    7  A    between atoms: C_22  and  C_32
    8  A    between atoms: C_24  and  C_25
    9  A    between atoms: C_24  and  C_32
   10  A    between atoms: C_28  and  C_31
                            x       y       z     vdW  Elec       q    Type
                         _______ _______ _______ _____ _____    ______ ____

>  <TORSDO>
F 10

$$$$
=
 OpenBabel10222418003D

 33 35  0  0  1  0  0  0  0  0999 V2000
  185.9590  178.9680  140.1200 O   0  0  0  0  0  1  0  0  0  0  0  0
  186.3070  178.2740  142.4210 C   0  0  0  0  0  0  0  0  0  0  0  0
  184.8540  178.5100  142.6260 C   0  0  0  0  0  3  0  0  0  0  0  0
  184.1160  178.6860  143.7380 C   0  0  0  0  0  0  0  0  0  0  0  0
  187.1880  177.7830  143.4150 C   0  0  0  0  0  0  0  0  0  0  0  0
  184.6570  178.7410  145.1210 C   0  0  0  0  0  0  0  0  0  0  0  0
  186.8030  178.5030  141.1260 C   0  0  0  0  0  0  0  0  0  0  0  0
  188.5500  177.5690  143.0890 C   0  0  0  0  0  0  0  0  0  0  0  0
  188.1500  178.2620  140.8450 C   0  0  0  0  0  0  0  0  0  0  0  0
  186.1080  178.6480  145.4210 C   0  0  0  0  0  2  0  0  0  0  0  0
  188.9740  177.8030  141.8190 N   0  0  0  0  0  0  0  0  0  0  0  0
  183.8490  178.8960  146.1190 N   0  0  0  0  0  2  0  0  0  0  0  0
  186.6740  177.4170  144.7640 C   0  0  0  0  0  2  0  0  0  0  0  0
  191.0750  176.6140  145.9340 C   0  0  0  0  0  0  0  0  0  0  0  0
  190.7320  176.4240  143.7140 C   0  0  0  0  0  3  0  0  0  0  0  0
  189.5890  177.3770  145.7230 S   0  0  0  0  0  0  0  0  0  0  0  0
  191.5610  176.1590  144.7590 N   0  0  0  0  0  0  0  0  0  0  0  0
  189.5560  177.0870  144.0620 C   0  0  0  0  0  0  0  0  0  0  0  0
  191.7980  176.4780  147.2080 C   0  0  0  0  0  0  0  0  0  0  0  0
  191.7130  177.4860  148.1590 O   0  0  0  0  0  1  0  0  0  0  0  0
  192.5300  175.4020  147.4680 C   0  0  0  0  0  2  0  0  0  0  0  0
  182.6590  178.8660  143.5710 C   0  0  0  0  0  3  0  0  0  0  0  0
  182.0930  178.8810  142.4070 N   0  0  0  0  0  2  0  0  0  0  0  0
  188.6950  178.4760  139.4730 C   0  0  0  0  0  2  0  0  0  0  0  0
  189.0510  177.1440  138.8450 C   0  0  0  0  0  2  0  0  0  0  0  0
  188.6930  177.1640  137.3720 C   0  0  0  0  0  2  0  0  0  0  0  0
  189.9010  176.7900  136.5330 C   0  0  0  0  0  2  0  0  0  0  0  0
  191.0640  176.5900  137.3940 N   0  0  0  0  0  2  0  0  0  0  0  0
  191.6570  175.0310  135.6500 C   0  0  0  0  0  1  0  0  0  0  0  0
  190.9490  174.2780  137.7830 O   0  0  0  0  0  1  0  0  0  0  0  0
  191.6800  175.2860  137.1450 C   0  0  2  0  0  0  0  0  0  0  0  0
  193.7640  176.5710  137.4100 N   0  0  0  0  0  1  0  0  0  0  0  0
  193.1310  175.2790  137.6330 C   0  0  0  0  0  2  0  0  0  0  0  0
  1  7  1  0  0  0  0
  2  3  1  0  0  0  0
  2  5  1  0  0  0  0
  3  4  2  0  0  0  0
  4  6  1  0  0  0  0
  5 13  1  0  0  0  0
  6 10  1  0  0  0  0
  6 12  2  0  0  0  0
  7  2  2  0  0  0  0
  8  5  2  0  0  0  0
  8 18  1  0  0  0  0
  9  7  1  0  0  0  0
  9 11  2  0  0  0  0
 11  8  1  0  0  0  0
 13 10  1  0  0  0  0
 14 19  1  0  0  0  0
 15 18  2  0  0  0  0
 15 17  1  0  0  0  0
 16 14  1  0  0  0  0
 17 14  2  0  0  0  0
 18 16  1  0  0  0  0
 19 21  2  0  0  0  0
 19 20  1  0  0  0  0
 22  4  1  0  0  0  0
 23 22  2  0  0  0  0
 24  9  1  0  0  0  0
 25 24  1  0  0  0  0
 26 25  1  0  0  0  0
 27 26  1  0  0  0  0
 27 28  1  0  0  0  0
 31 29  1  6  0  0  0
 31 28  1  0  0  0  0
 31 33  1  0  0  0  0
 31 30  1  0  0  0  0
 32 33  1  0  0  0  0
M  END
>  <MODEL>
2

>  <REMARK>
 VINA RESULT:      -8.6      2.710      6.301
  Name = 
  10 active torsions:
  status: ('A' for Active; 'I' for Inactive)
    1  A    between atoms: C_1  and  C_8
    2  A    between atoms: C_3  and  C_5
    3  A    between atoms: C_9  and  N_17
    4  A    between atoms: C_9  and  C_22
    5  A    between atoms: N_17  and  C_28
    6  A    between atoms: C_18  and  C_33
    7  A    between atoms: C_22  and  C_32
    8  A    between atoms: C_24  and  C_25
    9  A    between atoms: C_24  and  C_32
   10  A    between atoms: C_28  and  C_31
                            x       y       z     vdW  Elec       q    Type
                         _______ _______ _______ _____ _____    ______ ____

>  <TORSDO>
F 10

$$$$
=
 OpenBabel10222418003D

 33 35  0  0  1  0  0  0  0  0999 V2000
  186.2020  179.0000  140.0420 O   0  0  0  0  0  1  0  0  0  0  0  0
  186.4740  178.2860  142.3480 C   0  0  0  0  0  0  0  0  0  0  0  0
  185.0160  178.5270  142.5080 C   0  0  0  0  0  3  0  0  0  0  0  0
  184.2430  178.6970  143.5980 C   0  0  0  0  0  0  0  0  0  0  0  0
  187.3210  177.7840  143.3650 C   0  0  0  0  0  0  0  0  0  0  0  0
  184.7410  178.7390  144.9980 C   0  0  0  0  0  0  0  0  0  0  0  0
  187.0110  178.5230  141.0710 C   0  0  0  0  0  0  0  0  0  0  0  0
  188.6920  177.5670  143.0810 C   0  0  0  0  0  0  0  0  0  0  0  0
  188.3660  178.2780  140.8300 C   0  0  0  0  0  0  0  0  0  0  0  0
  186.1810  178.6380  145.3430 C   0  0  0  0  0  2  0  0  0  0  0  0
  189.1560  177.8100  141.8270 N   0  0  0  0  0  0  0  0  0  0  0  0
  183.9020  178.8900  145.9710 N   0  0  0  0  0  2  0  0  0  0  0  0
  186.7630  177.4100  144.6950 C   0  0  0  0  0  2  0  0  0  0  0  0
  191.1390  176.5950  145.9870 C   0  0  0  0  0  0  0  0  0  0  0  0
  190.8180  176.3550  143.7690 C   0  0  0  0  0  3  0  0  0  0  0  0
  189.6870  177.4090  145.7330 S   0  0  0  0  0  0  0  0  0  0  0  0
  191.6210  176.0860  144.8330 N   0  0  0  0  0  0  0  0  0  0  0  0
  189.6650  177.0730  144.0810 C   0  0  0  0  0  0  0  0  0  0  0  0
  191.8380  176.4660  147.2750 C   0  0  0  0  0  0  0  0  0  0  0  0
  191.7780  177.5020  148.1970 O   0  0  0  0  0  1  0  0  0  0  0  0
  192.5260  175.3710  147.5750 C   0  0  0  0  0  2  0  0  0  0  0  0
  182.7930  178.8840  143.3860 C   0  0  0  0  0  3  0  0  0  0  0  0
  182.2470  178.7860  142.2170 N   0  0  0  0  0  2  0  0  0  0  0  0
  188.9550  178.5010  139.4780 C   0  0  0  0  0  2  0  0  0  0  0  0
  188.9200  177.2130  138.6820 C   0  0  0  0  0  2  0  0  0  0  0  0
  189.0850  177.5230  137.2070 C   0  0  0  0  0  2  0  0  0  0  0  0
  187.7500  177.9160  136.6000 C   0  0  0  0  0  2  0  0  0  0  0  0
  186.6800  177.1100  137.1830 N   0  0  0  0  0  2  0  0  0  0  0  0
  186.0430  177.4580  134.8820 C   0  0  0  0  0  1  0  0  0  0  0  0
  184.4160  177.0980  136.5670 O   0  0  0  0  0  1  0  0  0  0  0  0
  185.7030  176.7240  136.1650 C   0  0  2  0  0  0  0  0  0  0  0  0
  186.0880  174.4940  137.1340 N   0  0  0  0  0  1  0  0  0  0  0  0
  185.7620  175.2150  135.9120 C   0  0  0  0  0  2  0  0  0  0  0  0
  1  7  1  0  0  0  0
  2  3  1  0  0  0  0
  2  5  1  0  0  0  0
  3  4  2  0  0  0  0
  4  6  1  0  0  0  0
  5 13  1  0  0  0  0
  6 10  1  0  0  0  0
  6 12  2  0  0  0  0
  7  2  2  0  0  0  0
  8  5  2  0  0  0  0
  8 18  1  0  0  0  0
  9  7  1  0  0  0  0
  9 11  2  0  0  0  0
 11  8  1  0  0  0  0
 13 10  1  0  0  0  0
 14 19  1  0  0  0  0
 15 18  2  0  0  0  0
 15 17  1  0  0  0  0
 16 14  1  0  0  0  0
 17 14  2  0  0  0  0
 18 16  1  0  0  0  0
 19 21  2  0  0  0  0
 19 20  1  0  0  0  0
 22  4  1  0  0  0  0
 23 22  2  0  0  0  0
 24  9  1  0  0  0  0
 25 24  1  0  0  0  0
 26 25  1  0  0  0  0
 27 28  1  0  0  0  0
 27 26  1  0  0  0  0
 31 29  1  6  0  0  0
 31 30  1  0  0  0  0
 31 28  1  0  0  0  0
 33 31  1  0  0  0  0
 33 32  1  0  0  0  0
M  END
>  <MODEL>
3

>  <REMARK>
 VINA RESULT:      -8.2      3.122      6.968
  Name = 
  10 active torsions:
  status: ('A' for Active; 'I' for Inactive)
    1  A    between atoms: C_1  and  C_8
    2  A    between atoms: C_3  and  C_5
    3  A    between atoms: C_9  and  N_17
    4  A    between atoms: C_9  and  C_22
    5  A    between atoms: N_17  and  C_28
    6  A    between atoms: C_18  and  C_33
    7  A    between atoms: C_22  and  C_32
    8  A    between atoms: C_24  and  C_25
    9  A    between atoms: C_24  and  C_32
   10  A    between atoms: C_28  and  C_31
                            x       y       z     vdW  Elec       q    Type
                         _______ _______ _______ _____ _____    ______ ____

>  <TORSDO>
F 10

$$$$
=
 OpenBabel10222418003D

 33 35  0  0  1  0  0  0  0  0999 V2000
  185.2710  178.6160  144.8010 O   0  0  0  0  0  1  0  0  0  0  0  0
  187.4790  177.6960  144.3790 C   0  0  0  0  0  0  0  0  0  0  0  0
  187.5630  177.4430  145.8410 C   0  0  0  0  0  3  0  0  0  0  0  0
  188.6060  177.2030  146.6580 C   0  0  0  0  0  0  0  0  0  0  0  0
  188.4820  177.3410  143.4450 C   0  0  0  0  0  0  0  0  0  0  0  0
  190.0320  177.1940  146.2400 C   0  0  0  0  0  0  0  0  0  0  0  0
  186.2860  178.2710  143.9100 C   0  0  0  0  0  0  0  0  0  0  0  0
  188.2720  177.6060  142.0690 C   0  0  0  0  0  0  0  0  0  0  0  0
  186.1150  178.5000  142.5420 C   0  0  0  0  0  0  0  0  0  0  0  0
  190.4650  177.4990  144.8520 C   0  0  0  0  0  2  0  0  0  0  0  0
  187.0970  178.1620  141.6720 N   0  0  0  0  0  0  0  0  0  0  0  0
  190.9530  176.9320  147.1090 N   0  0  0  0  0  2  0  0  0  0  0  0
  189.7080  176.6220  143.8910 C   0  0  0  0  0  2  0  0  0  0  0  0
  191.2090  176.9970  139.5430 C   0  0  0  0  0  0  0  0  0  0  0  0
  188.9640  177.1470  139.6660 C   0  0  0  0  0  3  0  0  0  0  0  0
  190.9450  177.2510  141.1860 S   0  0  0  0  0  0  0  0  0  0  0  0
  190.0440  176.9690  138.8600 N   0  0  0  0  0  0  0  0  0  0  0  0
  189.2680  177.3010  141.0180 C   0  0  0  0  0  0  0  0  0  0  0  0
  192.5220  176.8570  138.8950 C   0  0  0  0  0  0  0  0  0  0  0  0
  193.6720  177.2210  139.5840 O   0  0  0  0  0  1  0  0  0  0  0  0
  192.6300  176.3840  137.6590 C   0  0  0  0  0  2  0  0  0  0  0  0
  188.3160  176.9560  148.0850 C   0  0  0  0  0  3  0  0  0  0  0  0
  188.0560  177.9160  148.9140 N   0  0  0  0  0  2  0  0  0  0  0  0
  184.8490  179.0900  142.0180 C   0  0  0  0  0  2  0  0  0  0  0  0
  184.8500  179.0490  140.5030 C   0  0  0  0  0  2  0  0  0  0  0  0
  183.4320  178.8630  139.9990 C   0  0  0  0  0  2  0  0  0  0  0  0
  182.5060  178.5210  141.1520 C   0  0  0  0  0  2  0  0  0  0  0  0
  181.1520  178.9880  140.8610 N   0  0  0  0  0  2  0  0  0  0  0  0
  179.5610  180.5600  141.7660 C   0  0  0  0  0  1  0  0  0  0  0  0
  181.3880  179.7790  143.0570 O   0  0  0  0  0  1  0  0  0  0  0  0
  180.4610  179.3820  142.0890 C   0  0  2  0  0  0  0  0  0  0  0  0
  179.5390  178.2460  144.0690 N   0  0  0  0  0  1  0  0  0  0  0  0
  179.6070  178.2260  142.6150 C   0  0  0  0  0  2  0  0  0  0  0  0
  2  3  1  0  0  0  0
  3  4  2  0  0  0  0
  4 22  1  0  0  0  0
  5 13  1  0  0  0  0
  5  2  2  0  0  0  0
  6  4  1  0  0  0  0
  6 12  2  0  0  0  0
  7  2  1  0  0  0  0
  7  1  1  0  0  0  0
  8  5  1  0  0  0  0
  9  7  2  0  0  0  0
 10  6  1  0  0  0  0
 11  8  2  0  0  0  0
 11  9  1  0  0  0  0
 13 10  1  0  0  0  0
 14 16  1  0  0  0  0
 15 18  2  0  0  0  0
 17 14  2  0  0  0  0
 17 15  1  0  0  0  0
 18 16  1  0  0  0  0
 18  8  1  0  0  0  0
 19 14  1  0  0  0  0
 19 20  1  0  0  0  0
 21 19  2  0  0  0  0
 22 23  2  0  0  0  0
 24  9  1  0  0  0  0
 25 24  1  0  0  0  0
 26 25  1  0  0  0  0
 26 27  1  0  0  0  0
 28 27  1  0  0  0  0
 28 31  1  0  0  0  0
 31 29  1  6  0  0  0
 31 33  1  0  0  0  0
 31 30  1  0  0  0  0
 33 32  1  0  0  0  0
M  END
>  <MODEL>
4

>  <REMARK>
 VINA RESULT:      -8.0      2.118      7.417
  Name = 
  10 active torsions:
  status: ('A' for Active; 'I' for Inactive)
    1  A    between atoms: C_1  and  C_8
    2  A    between atoms: C_3  and  C_5
    3  A    between atoms: C_9  and  N_17
    4  A    between atoms: C_9  and  C_22
    5  A    between atoms: N_17  and  C_28
    6  A    between atoms: C_18  and  C_33
    7  A    between atoms: C_22  and  C_32
    8  A    between atoms: C_24  and  C_25
    9  A    between atoms: C_24  and  C_32
   10  A    between atoms: C_28  and  C_31
                            x       y       z     vdW  Elec       q    Type
                         _______ _______ _______ _____ _____    ______ ____

>  <TORSDO>
F 10

$$$$
=
 OpenBabel10222418003D

 33 35  0  0  1  0  0  0  0  0999 V2000
  186.0020  178.6380  138.5140 O   0  0  0  0  0  1  0  0  0  0  0  0
  188.2530  178.0130  139.1780 C   0  0  0  0  0  0  0  0  0  0  0  0
  188.5640  177.9110  137.7280 C   0  0  0  0  0  3  0  0  0  0  0  0
  189.5610  177.3010  137.0590 C   0  0  0  0  0  0  0  0  0  0  0  0
  189.1930  177.8040  140.2160 C   0  0  0  0  0  0  0  0  0  0  0  0
  190.6290  176.4770  137.6830 C   0  0  0  0  0  0  0  0  0  0  0  0
  186.9460  178.4060  139.5130 C   0  0  0  0  0  0  0  0  0  0  0  0
  188.7830  177.9610  141.5630 C   0  0  0  0  0  0  0  0  0  0  0  0
  186.5900  178.5650  140.8540 C   0  0  0  0  0  0  0  0  0  0  0  0
  190.6820  176.2020  139.1410 C   0  0  0  0  0  2  0  0  0  0  0  0
  187.5070  178.3460  141.8280 N   0  0  0  0  0  0  0  0  0  0  0  0
  191.5490  175.9530  136.9420 N   0  0  0  0  0  2  0  0  0  0  0  0
  190.6160  177.5030  139.8960 C   0  0  0  0  0  2  0  0  0  0  0  0
  190.9020  177.0200  144.7270 C   0  0  0  0  0  0  0  0  0  0  0  0
  190.4030  178.7420  143.3600 C   0  0  0  0  0  3  0  0  0  0  0  0
  189.8750  176.3100  143.5960 S   0  0  0  0  0  0  0  0  0  0  0  0
  191.0840  178.3320  144.4630 N   0  0  0  0  0  0  0  0  0  0  0  0
  189.6780  177.7380  142.7210 C   0  0  0  0  0  0  0  0  0  0  0  0
  191.5080  176.3420  145.8820 C   0  0  0  0  0  0  0  0  0  0  0  0
  192.3490  175.2560  145.6790 O   0  0  0  0  0  1  0  0  0  0  0  0
  191.2680  176.7530  147.1210 C   0  0  0  0  0  2  0  0  0  0  0  0
  189.5800  177.4360  135.5880 C   0  0  0  0  0  3  0  0  0  0  0  0
  188.6010  177.0330  134.8430 N   0  0  0  0  0  2  0  0  0  0  0  0
  185.2150  179.0030  141.2340 C   0  0  0  0  0  2  0  0  0  0  0  0
  185.1590  179.2980  142.7190 C   0  0  0  0  0  2  0  0  0  0  0  0
  183.8810  178.7270  143.3020 C   0  0  0  0  0  2  0  0  0  0  0  0
  183.8380  178.9640  144.8010 C   0  0  0  0  0  2  0  0  0  0  0  0
  185.0660  179.6230  145.2390 N   0  0  0  0  0  2  0  0  0  0  0  0
  184.6890  177.8810  146.8660 C   0  0  0  0  0  1  0  0  0  0  0  0
  186.0550  179.7530  147.3630 O   0  0  0  0  0  1  0  0  0  0  0  0
  185.6970  178.8800  146.3300 C   0  0  2  0  0  0  0  0  0  0  0  0
  187.7040  177.5850  146.9280 N   0  0  0  0  0  1  0  0  0  0  0  0
  186.9290  178.1260  145.8210 C   0  0  0  0  0  2  0  0  0  0  0  0
  1  7  1  0  0  0  0
  2  7  2  0  0  0  0
  2  5  1  0  0  0  0
  3  2  1  0  0  0  0
  4  6  1  0  0  0  0
  4  3  2  0  0  0  0
  5  8  2  0  0  0  0
  6 10  1  0  0  0  0
  7  9  1  0  0  0  0
  8 11  1  0  0  0  0
  8 18  1  0  0  0  0
  9 24  1  0  0  0  0
  9 11  2  0  0  0  0
 10 13  1  0  0  0  0
 12  6  2  0  0  0  0
 13  5  1  0  0  0  0
 14 19  1  0  0  0  0
 15 17  1  0  0  0  0
 16 14  1  0  0  0  0
 17 14  2  0  0  0  0
 18 15  2  0  0  0  0
 18 16  1  0  0  0  0
 19 21  2  0  0  0  0
 20 19  1  0  0  0  0
 22  4  1  0  0  0  0
 23 22  2  0  0  0  0
 24 25  1  0  0  0  0
 25 26  1  0  0  0  0
 26 27  1  0  0  0  0
 27 28  1  0  0  0  0
 28 31  1  0  0  0  0
 31 29  1  1  0  0  0
 31 30  1  0  0  0  0
 33 31  1  0  0  0  0
 33 32  1  0  0  0  0
M  END
>  <MODEL>
5

>  <REMARK>
 VINA RESULT:      -8.0      2.426      6.709
  Name = 
  10 active torsions:
  status: ('A' for Active; 'I' for Inactive)
    1  A    between atoms: C_1  and  C_8
    2  A    between atoms: C_3  and  C_5
    3  A    between atoms: C_9  and  N_17
    4  A    between atoms: C_9  and  C_22
    5  A    between atoms: N_17  and  C_28
    6  A    between atoms: C_18  and  C_33
    7  A    between atoms: C_22  and  C_32
    8  A    between atoms: C_24  and  C_25
    9  A    between atoms: C_24  and  C_32
   10  A    between atoms: C_28  and  C_31
                            x       y       z     vdW  Elec       q    Type
                         _______ _______ _______ _____ _____    ______ ____

>  <TORSDO>
F 10

$$$$
=
 OpenBabel10222418003D

 33 35  0  0  1  0  0  0  0  0999 V2000
  191.7360  176.5290  143.0310 O   0  0  0  0  0  1  0  0  0  0  0  0
  189.6880  177.3120  144.0770 C   0  0  0  0  0  0  0  0  0  0  0  0
  190.4120  177.2200  145.3720 C   0  0  0  0  0  3  0  0  0  0  0  0
  189.9800  177.1730  146.6470 C   0  0  0  0  0  0  0  0  0  0  0  0
  188.3580  177.7740  143.9330 C   0  0  0  0  0  0  0  0  0  0  0  0
  188.5540  177.1430  147.0630 C   0  0  0  0  0  0  0  0  0  0  0  0
  190.4180  176.9700  142.9260 C   0  0  0  0  0  0  0  0  0  0  0  0
  187.7860  177.8460  142.6380 C   0  0  0  0  0  0  0  0  0  0  0  0
  189.8200  177.0720  141.6670 C   0  0  0  0  0  0  0  0  0  0  0  0
  187.4320  177.1200  146.0900 C   0  0  0  0  0  2  0  0  0  0  0  0
  188.5400  177.5060  141.5600 N   0  0  0  0  0  0  0  0  0  0  0  0
  188.2550  177.1170  148.3210 N   0  0  0  0  0  2  0  0  0  0  0  0
  187.5950  178.2580  145.1170 C   0  0  0  0  0  2  0  0  0  0  0  0
  183.9770  178.6800  142.2230 C   0  0  0  0  0  0  0  0  0  0  0  0
  185.9840  178.9650  141.2370 C   0  0  0  0  0  3  0  0  0  0  0  0
  185.0280  177.9260  143.3010 S   0  0  0  0  0  0  0  0  0  0  0  0
  184.6440  179.1860  141.1630 N   0  0  0  0  0  0  0  0  0  0  0  0
  186.3970  178.2870  142.3830 C   0  0  0  0  0  0  0  0  0  0  0  0
  182.5150  178.7630  142.3640 C   0  0  0  0  0  0  0  0  0  0  0  0
  181.7060  178.5910  141.2480 O   0  0  0  0  0  1  0  0  0  0  0  0
  181.9520  178.9960  143.5430 C   0  0  0  0  0  2  0  0  0  0  0  0
  191.0010  177.1170  147.7130 C   0  0  0  0  0  3  0  0  0  0  0  0
  192.0770  176.4070  147.6040 N   0  0  0  0  0  2  0  0  0  0  0  0
  190.5800  176.7360  140.4290 C   0  0  0  0  0  2  0  0  0  0  0  0
  190.2460  177.7270  139.3330 C   0  0  0  0  0  2  0  0  0  0  0  0
  190.4090  177.0620  137.9800 C   0  0  0  0  0  2  0  0  0  0  0  0
  189.0760  176.5190  137.4980 C   0  0  0  0  0  2  0  0  0  0  0  0
  187.9810  177.2260  138.1580 N   0  0  0  0  0  2  0  0  0  0  0  0
  187.4450  177.5400  135.8260 C   0  0  0  0  0  1  0  0  0  0  0  0
  187.8820  179.3860  137.2460 O   0  0  0  0  0  1  0  0  0  0  0  0
  187.2950  178.1160  137.2210 C   0  0  2  0  0  0  0  0  0  0  0  0
  185.1960  176.8930  137.6180 N   0  0  0  0  0  1  0  0  0  0  0  0
  185.8070  178.2130  137.5670 C   0  0  0  0  0  2  0  0  0  0  0  0
  2  3  1  0  0  0  0
  3  4  2  0  0  0  0
  4  6  1  0  0  0  0
  4 22  1  0  0  0  0
  5  2  1  0  0  0  0
  5 13  1  0  0  0  0
  6 12  2  0  0  0  0
  7  1  1  0  0  0  0
  7  2  2  0  0  0  0
  8  5  2  0  0  0  0
  9  7  1  0  0  0  0
 10  6  1  0  0  0  0
 11  9  2  0  0  0  0
 11  8  1  0  0  0  0
 13 10  1  0  0  0  0
 14 19  1  0  0  0  0
 14 16  1  0  0  0  0
 15 18  2  0  0  0  0
 17 15  1  0  0  0  0
 17 14  2  0  0  0  0
 18  8  1  0  0  0  0
 18 16  1  0  0  0  0
 19 21  2  0  0  0  0
 20 19  1  0  0  0  0
 23 22  2  0  0  0  0
 24  9  1  0  0  0  0
 25 24  1  0  0  0  0
 26 25  1  0  0  0  0
 27 26  1  0  0  0  0
 27 28  1  0  0  0  0
 31 29  1  6  0  0  0
 31 30  1  0  0  0  0
 31 33  1  0  0  0  0
 31 28  1  0  0  0  0
 33 32  1  0  0  0  0
M  END
>  <MODEL>
6

>  <REMARK>
 VINA RESULT:      -7.9      2.615      8.022
  Name = 
  10 active torsions:
  status: ('A' for Active; 'I' for Inactive)
    1  A    between atoms: C_1  and  C_8
    2  A    between atoms: C_3  and  C_5
    3  A    between atoms: C_9  and  N_17
    4  A    between atoms: C_9  and  C_22
    5  A    between atoms: N_17  and  C_28
    6  A    between atoms: C_18  and  C_33
    7  A    between atoms: C_22  and  C_32
    8  A    between atoms: C_24  and  C_25
    9  A    between atoms: C_24  and  C_32
   10  A    between atoms: C_28  and  C_31
                            x       y       z     vdW  Elec       q    Type
                         _______ _______ _______ _____ _____    ______ ____

>  <TORSDO>
F 10

$$$$
=
 OpenBabel10222418003D

 33 35  0  0  1  0  0  0  0  0999 V2000
  191.7290  176.4850  143.0290 O   0  0  0  0  0  1  0  0  0  0  0  0
  189.6630  177.2880  144.0220 C   0  0  0  0  0  0  0  0  0  0  0  0
  190.3480  177.1770  145.3360 C   0  0  0  0  0  3  0  0  0  0  0  0
  189.8790  177.1250  146.5980 C   0  0  0  0  0  0  0  0  0  0  0  0
  188.3440  177.7700  143.8440 C   0  0  0  0  0  0  0  0  0  0  0  0
  188.4410  177.1120  146.9730 C   0  0  0  0  0  0  0  0  0  0  0  0
  190.4200  176.9450  142.8890 C   0  0  0  0  0  0  0  0  0  0  0  0
  187.8100  177.8590  142.5340 C   0  0  0  0  0  0  0  0  0  0  0  0
  189.8600  177.0650  141.6150 C   0  0  0  0  0  0  0  0  0  0  0  0
  187.3480  177.1120  145.9690 C   0  0  0  0  0  2  0  0  0  0  0  0
  188.5890  177.5170  141.4750 N   0  0  0  0  0  0  0  0  0  0  0  0
  188.1060  177.0800  148.2220 N   0  0  0  0  0  2  0  0  0  0  0  0
  187.5530  178.2540  145.0100 C   0  0  0  0  0  2  0  0  0  0  0  0
  184.0250  178.7450  142.0130 C   0  0  0  0  0  0  0  0  0  0  0  0
  186.0660  179.0250  141.0980 C   0  0  0  0  0  3  0  0  0  0  0  0
  185.0330  177.9580  143.1090 S   0  0  0  0  0  0  0  0  0  0  0  0
  184.7320  179.2630  140.9850 N   0  0  0  0  0  0  0  0  0  0  0  0
  186.4340  178.3210  142.2430 C   0  0  0  0  0  0  0  0  0  0  0  0
  182.5610  178.8420  142.1080 C   0  0  0  0  0  0  0  0  0  0  0  0
  181.9750  179.2580  143.2970 O   0  0  0  0  0  1  0  0  0  0  0  0
  181.7850  178.5410  141.0740 C   0  0  0  0  0  2  0  0  0  0  0  0
  190.8680  177.0470  147.6930 C   0  0  0  0  0  3  0  0  0  0  0  0
  192.0590  176.5730  147.5160 N   0  0  0  0  0  2  0  0  0  0  0  0
  190.6510  176.7270  140.3960 C   0  0  0  0  0  2  0  0  0  0  0  0
  190.0610  177.4270  139.1890 C   0  0  0  0  0  2  0  0  0  0  0  0
  189.6630  176.3970  138.1500 C   0  0  0  0  0  2  0  0  0  0  0  0
  190.8470  175.5120  137.8070 C   0  0  0  0  0  2  0  0  0  0  0  0
  191.6970  176.1740  136.8210 N   0  0  0  0  0  2  0  0  0  0  0  0
  193.2720  174.5480  137.6570 C   0  0  0  0  0  1  0  0  0  0  0  0
  193.5390  176.8600  138.1030 O   0  0  0  0  0  1  0  0  0  0  0  0
  193.1130  175.9580  137.1220 C   0  0  2  0  0  0  0  0  0  0  0  0
  193.1180  176.1420  134.6670 N   0  0  0  0  0  1  0  0  0  0  0  0
  193.9580  176.1140  135.8550 C   0  0  0  0  0  2  0  0  0  0  0  0
  2  3  1  0  0  0  0
  3  4  2  0  0  0  0
  4  6  1  0  0  0  0
  4 22  1  0  0  0  0
  5  2  1  0  0  0  0
  5 13  1  0  0  0  0
  6 12  2  0  0  0  0
  7  1  1  0  0  0  0
  7  2  2  0  0  0  0
  8  5  2  0  0  0  0
  9  7  1  0  0  0  0
 10  6  1  0  0  0  0
 11  9  2  0  0  0  0
 11  8  1  0  0  0  0
 13 10  1  0  0  0  0
 14 19  1  0  0  0  0
 14 16  1  0  0  0  0
 15 18  2  0  0  0  0
 17 15  1  0  0  0  0
 17 14  2  0  0  0  0
 18  8  1  0  0  0  0
 18 16  1  0  0  0  0
 19 20  1  0  0  0  0
 21 19  2  0  0  0  0
 23 22  2  0  0  0  0
 24  9  1  0  0  0  0
 25 24  1  0  0  0  0
 26 25  1  0  0  0  0
 27 26  1  0  0  0  0
 28 31  1  0  0  0  0
 28 27  1  0  0  0  0
 31 29  1  1  0  0  0
 31 30  1  0  0  0  0
 32 33  1  0  0  0  0
 33 31  1  0  0  0  0
M  END
>  <MODEL>
7

>  <REMARK>
 VINA RESULT:      -7.8      2.810      7.908
  Name = 
  10 active torsions:
  status: ('A' for Active; 'I' for Inactive)
    1  A    between atoms: C_1  and  C_8
    2  A    between atoms: C_3  and  C_5
    3  A    between atoms: C_9  and  N_17
    4  A    between atoms: C_9  and  C_22
    5  A    between atoms: N_17  and  C_28
    6  A    between atoms: C_18  and  C_33
    7  A    between atoms: C_22  and  C_32
    8  A    between atoms: C_24  and  C_25
    9  A    between atoms: C_24  and  C_32
   10  A    between atoms: C_28  and  C_31
                            x       y       z     vdW  Elec       q    Type
                         _______ _______ _______ _____ _____    ______ ____

>  <TORSDO>
F 10

$$$$
=
 OpenBabel10222418003D

 33 35  0  0  1  0  0  0  0  0999 V2000
  185.6690  178.8590  140.3820 O   0  0  0  0  0  1  0  0  0  0  0  0
  187.8770  178.2630  141.2010 C   0  0  0  0  0  0  0  0  0  0  0  0
  188.3450  178.4020  139.7970 C   0  0  0  0  0  3  0  0  0  0  0  0
  189.4470  177.9560  139.1640 C   0  0  0  0  0  0  0  0  0  0  0  0
  188.7140  177.9480  142.2980 C   0  0  0  0  0  0  0  0  0  0  0  0
  190.4990  177.1060  139.7800 C   0  0  0  0  0  0  0  0  0  0  0  0
  186.5170  178.5280  141.4370 C   0  0  0  0  0  0  0  0  0  0  0  0
  188.1550  177.8750  143.5980 C   0  0  0  0  0  0  0  0  0  0  0  0
  186.0110  178.4610  142.7380 C   0  0  0  0  0  0  0  0  0  0  0  0
  190.4180  176.6130  141.1790 C   0  0  0  0  0  2  0  0  0  0  0  0
  186.8340  178.1450  143.7680 N   0  0  0  0  0  0  0  0  0  0  0  0
  191.5280  176.7520  139.0800 N   0  0  0  0  0  2  0  0  0  0  0  0
  190.1810  177.7780  142.1030 C   0  0  0  0  0  2  0  0  0  0  0  0
  190.5390  176.7980  146.5200 C   0  0  0  0  0  0  0  0  0  0  0  0
  188.3780  177.2340  146.0480 C   0  0  0  0  0  3  0  0  0  0  0  0
  190.5970  177.2410  144.8970 S   0  0  0  0  0  0  0  0  0  0  0  0
  189.2740  176.8420  146.9930 N   0  0  0  0  0  0  0  0  0  0  0  0
  188.9370  177.5250  144.8050 C   0  0  0  0  0  0  0  0  0  0  0  0
  191.6860  176.3750  147.3380 C   0  0  0  0  0  0  0  0  0  0  0  0
  192.0560  177.1280  148.4450 O   0  0  0  0  0  1  0  0  0  0  0  0
  192.3760  175.2820  147.0380 C   0  0  0  0  0  2  0  0  0  0  0  0
  189.6120  178.3160  137.7410 C   0  0  0  0  0  3  0  0  0  0  0  0
  189.0610  179.3690  137.2260 N   0  0  0  0  0  2  0  0  0  0  0  0
  184.5770  178.7590  143.0180 C   0  0  0  0  0  2  0  0  0  0  0  0
  184.3020  178.6270  144.5010 C   0  0  0  0  0  2  0  0  0  0  0  0
  182.8610  179.0040  144.7870 C   0  0  0  0  0  2  0  0  0  0  0  0
  182.1510  179.3750  143.4980 C   0  0  0  0  0  2  0  0  0  0  0  0
  180.8970  178.6320  143.3860 N   0  0  0  0  0  2  0  0  0  0  0  0
  179.6390  177.6270  141.5890 C   0  0  0  0  0  1  0  0  0  0  0  0
  181.1560  179.4030  141.1850 O   0  0  0  0  0  1  0  0  0  0  0  0
  180.2300  178.9210  142.1170 C   0  0  2  0  0  0  0  0  0  0  0  0
  179.4330  181.2120  141.6950 N   0  0  0  0  0  1  0  0  0  0  0  0
  179.1060  179.9400  142.3240 C   0  0  0  0  0  2  0  0  0  0  0  0
  1  7  1  0  0  0  0
  2  7  2  0  0  0  0
  2  5  1  0  0  0  0
  3  2  1  0  0  0  0
  4  6  1  0  0  0  0
  4  3  2  0  0  0  0
  5  8  2  0  0  0  0
  6 10  1  0  0  0  0
  7  9  1  0  0  0  0
  8 11  1  0  0  0  0
  8 18  1  0  0  0  0
  9 24  1  0  0  0  0
  9 11  2  0  0  0  0
 10 13  1  0  0  0  0
 12  6  2  0  0  0  0
 13  5  1  0  0  0  0
 14 17  2  0  0  0  0
 14 19  1  0  0  0  0
 15 17  1  0  0  0  0
 16 14  1  0  0  0  0
 18 16  1  0  0  0  0
 18 15  2  0  0  0  0
 19 20  1  0  0  0  0
 21 19  2  0  0  0  0
 22  4  1  0  0  0  0
 23 22  2  0  0  0  0
 24 25  1  0  0  0  0
 25 26  1  0  0  0  0
 27 26  1  0  0  0  0
 28 27  1  0  0  0  0
 30 31  1  0  0  0  0
 31 29  1  6  0  0  0
 31 33  1  0  0  0  0
 31 28  1  0  0  0  0
 32 33  1  0  0  0  0
M  END
>  <MODEL>
8

>  <REMARK>
 VINA RESULT:      -7.7      2.327      7.804
  Name = 
  10 active torsions:
  status: ('A' for Active; 'I' for Inactive)
    1  A    between atoms: C_1  and  C_8
    2  A    between atoms: C_3  and  C_5
    3  A    between atoms: C_9  and  N_17
    4  A    between atoms: C_9  and  C_22
    5  A    between atoms: N_17  and  C_28
    6  A    between atoms: C_18  and  C_33
    7  A    between atoms: C_22  and  C_32
    8  A    between atoms: C_24  and  C_25
    9  A    between atoms: C_24  and  C_32
   10  A    between atoms: C_28  and  C_31
                            x       y       z     vdW  Elec       q    Type
                         _______ _______ _______ _____ _____    ______ ____

>  <TORSDO>
F 10

$$$$
=
 OpenBabel10222418003D

 33 35  0  0  1  0  0  0  0  0999 V2000
  192.2720  177.0990  141.7730 O   0  0  0  0  0  1  0  0  0  0  0  0
  190.2020  177.3640  140.5310 C   0  0  0  0  0  0  0  0  0  0  0  0
  190.9540  176.8980  139.3370 C   0  0  0  0  0  3  0  0  0  0  0  0
  190.7050  176.9980  138.0170 C   0  0  0  0  0  0  0  0  0  0  0  0
  188.8230  177.6830  140.5360 C   0  0  0  0  0  0  0  0  0  0  0  0
  189.5460  177.7090  137.4190 C   0  0  0  0  0  0  0  0  0  0  0  0
  190.9180  177.4240  141.7390 C   0  0  0  0  0  0  0  0  0  0  0  0
  188.2090  178.0870  141.7470 C   0  0  0  0  0  0  0  0  0  0  0  0
  190.2680  177.8110  142.9140 C   0  0  0  0  0  0  0  0  0  0  0  0
  188.5410  178.4370  138.2350 C   0  0  0  0  0  2  0  0  0  0  0  0
  188.9490  178.1230  142.8860 N   0  0  0  0  0  0  0  0  0  0  0  0
  189.3970  177.7240  136.1340 N   0  0  0  0  0  2  0  0  0  0  0  0
  188.0060  177.5180  139.3010 C   0  0  0  0  0  2  0  0  0  0  0  0
  184.3960  178.7890  142.3400 C   0  0  0  0  0  0  0  0  0  0  0  0
  186.0380  179.0240  140.8140 C   0  0  0  0  0  3  0  0  0  0  0  0
  185.7390  178.1670  143.1420 S   0  0  0  0  0  0  0  0  0  0  0  0
  184.7210  179.2070  141.0970 N   0  0  0  0  0  0  0  0  0  0  0  0
  186.7830  178.4690  141.8520 C   0  0  0  0  0  0  0  0  0  0  0  0
  183.0280  178.8520  142.8750 C   0  0  0  0  0  0  0  0  0  0  0  0
  181.9500  178.9100  142.0010 O   0  0  0  0  0  1  0  0  0  0  0  0
  182.8020  178.8490  144.1830 C   0  0  0  0  0  2  0  0  0  0  0  0
  191.6740  176.3770  137.0900 C   0  0  0  0  0  3  0  0  0  0  0  0
  192.3610  175.3280  137.4080 N   0  0  0  0  0  2  0  0  0  0  0  0
  191.0010  177.8610  144.2120 C   0  0  0  0  0  2  0  0  0  0  0  0
  190.9470  176.5060  144.8870 C   0  0  0  0  0  2  0  0  0  0  0  0
  191.7870  176.5340  146.1500 C   0  0  0  0  0  2  0  0  0  0  0  0
  190.9580  177.0290  147.3200 C   0  0  0  0  0  2  0  0  0  0  0  0
  189.6620  176.3540  147.3360 N   0  0  0  0  0  2  0  0  0  0  0  0
  189.2290  178.4540  148.4420 C   0  0  0  0  0  1  0  0  0  0  0  0
  187.7030  176.6470  148.5940 O   0  0  0  0  0  1  0  0  0  0  0  0
  188.5960  177.2790  147.7220 C   0  0  2  0  0  0  0  0  0  0  0  0
  186.4860  178.1590  146.8080 N   0  0  0  0  0  1  0  0  0  0  0  0
  187.8550  177.7880  146.4830 C   0  0  0  0  0  2  0  0  0  0  0  0
  2  5  2  0  0  0  0
  2  7  1  0  0  0  0
  3  2  1  0  0  0  0
  4  3  2  0  0  0  0
  5  8  1  0  0  0  0
  6  4  1  0  0  0  0
  6 10  1  0  0  0  0
  7  1  1  0  0  0  0
  7  9  2  0  0  0  0
  8 18  1  0  0  0  0
  8 11  2  0  0  0  0
  9 24  1  0  0  0  0
 10 13  1  0  0  0  0
 11  9  1  0  0  0  0
 12  6  2  0  0  0  0
 13  5  1  0  0  0  0
 14 19  1  0  0  0  0
 14 16  1  0  0  0  0
 15 17  1  0  0  0  0
 15 18  2  0  0  0  0
 17 14  2  0  0  0  0
 18 16  1  0  0  0  0
 19 21  2  0  0  0  0
 20 19  1  0  0  0  0
 22 23  2  0  0  0  0
 22  4  1  0  0  0  0
 24 25  1  0  0  0  0
 25 26  1  0  0  0  0
 26 27  1  0  0  0  0
 27 28  1  0  0  0  0
 28 31  1  0  0  0  0
 31 29  1  1  0  0  0
 31 30  1  0  0  0  0
 33 32  1  0  0  0  0
 33 31  1  0  0  0  0
M  END
>  <MODEL>
9

>  <REMARK>
 VINA RESULT:      -7.7      2.428      6.789
  Name = 
  10 active torsions:
  status: ('A' for Active; 'I' for Inactive)
    1  A    between atoms: C_1  and  C_8
    2  A    between atoms: C_3  and  C_5
    3  A    between atoms: C_9  and  N_17
    4  A    between atoms: C_9  and  C_22
    5  A    between atoms: N_17  and  C_28
    6  A    between atoms: C_18  and  C_33
    7  A    between atoms: C_22  and  C_32
    8  A    between atoms: C_24  and  C_25
    9  A    between atoms: C_24  and  C_32
   10  A    between atoms: C_28  and  C_31
                            x       y       z     vdW  Elec       q    Type
                         _______ _______ _______ _____ _____    ______ ____

>  <TORSDO>
F 10

$$$$
