=
 OpenBabel10222419253D

 64 70  0  0  1  0  0  0  0  0999 V2000
  182.5240  177.0990  138.4430 C   0  0  2  0  0  3  0  0  0  0  0  0
  181.5790  179.5870  137.6190 C   0  0  0  0  0  3  0  0  0  0  0  0
  184.7570  177.9580  138.3060 C   0  0  1  0  0  3  0  0  0  0  0  0
  183.5000  177.5870  137.5320 C   0  0  2  0  0  0  0  0  0  0  0  0
  182.2880  178.4700  137.7970 C   0  0  0  0  0  0  0  0  0  0  0  0
  184.5520  177.5640  139.6980 N   0  0  2  0  0  0  0  0  0  0  0  0
  183.1190  177.2870  139.8260 C   0  0  0  0  0  2  0  0  0  0  0  0
  186.8230  177.5410  143.3330 C   0  0  0  0  0  3  0  0  0  0  0  0
  186.1090  178.2930  145.6220 C   0  0  0  0  0  0  0  0  0  0  0  0
  184.7690  178.7810  142.8830 C   0  0  0  0  0  0  0  0  0  0  0  0
  186.3130  178.5480  141.1220 C   0  0  0  0  0  2  0  0  0  0  0  0
  186.2210  178.7150  142.6350 C   0  0  2  0  0  3  0  0  0  0  0  0
  184.8940  178.7120  140.5460 C   0  0  2  0  0  3  0  0  0  0  0  0
  184.9730  178.9560  145.3470 C   0  0  0  0  0  3  0  0  0  0  0  0
  186.7880  177.3880  144.6590 C   0  0  0  0  0  3  0  0  0  0  0  0
  184.2180  178.9570  144.0790 C   0  0  0  0  0  3  0  0  0  0  0  0
  184.0040  178.7920  141.6960 N   0  0  0  0  0  2  0  0  0  0  0  0
  186.6380  178.4740  146.9070 O   0  0  0  0  0  0  0  0  0  0  0  0
  188.6430  177.1230  146.6250 N   0  0  0  0  0  2  0  0  0  0  0  0
  187.7450  177.5490  148.7250 O   0  0  0  0  0  0  0  0  0  0  0  0
  187.6590  177.7030  147.4770 C   0  0  0  0  0  0  0  0  0  0  0  0
  189.9440  177.7400  146.4230 C   0  0  2  0  0  3  0  0  0  0  0  0
  190.6280  177.1010  145.2470 C   0  0  2  0  0  3  0  0  0  0  0  0
  190.8520  177.3350  147.5540 C   0  0  0  0  0  2  0  0  0  0  0  0
  191.3270  176.0470  147.2790 O   0  0  0  0  0  0  0  0  0  0  0  0
  191.3610  175.9280  145.8740 C   0  0  0  0  0  2  0  0  0  0  0  0
  191.5700  177.9880  144.7190 O   0  0  0  0  0  0  0  0  0  0  0  0
  190.9130  178.6580  143.6810 C   0  0  0  0  0  2  0  0  0  0  0  0
  190.0340  177.5090  141.6700 C   0  0  0  0  0  1  0  0  0  0  0  0
  191.2850  178.0270  142.3490 C   0  0  2  0  0  3  0  0  0  0  0  0
  192.1760  176.9720  142.5490 O   0  0  0  0  0  1  0  0  0  0  0  0
  183.5370  176.8780  136.2060 C   0  0  0  0  0  0  0  0  0  0  0  0
  183.6420  175.3920  136.1500 C   0  0  0  0  0  1  0  0  0  0  0  0
  183.5160  177.5190  135.1670 O   0  0  0  0  0  0  0  0  0  0  0  0
  180.2770  179.8230  138.3260 C   0  0  2  0  0  3  0  0  0  0  0  0
  179.6990  181.0210  137.9000 O   0  0  0  0  0  0  0  0  0  0  0  0
  180.1530  181.1930  136.6750 O   0  0  0  0  0  1  0  0  0  0  0  0
  180.4850  179.8380  139.8370 C   0  0  0  0  0  2  0  0  0  0  0  0
  179.1810  179.5750  140.5790 C   0  0  0  0  0  2  0  0  0  0  0  0
  179.3360  178.4240  141.5620 C   0  0  0  0  0  2  0  0  0  0  0  0
  180.6020  178.5890  142.3830 C   0  0  0  0  0  1  0  0  0  0  0  0
  185.9360  177.2880  137.7760 N   0  0  0  0  0  2  0  0  0  0  0  0
  188.1890  178.2430  137.9190 C   0  0  0  0  0  2  0  0  0  0  0  0
  188.2250  177.6200  135.2130 C   0  0  0  0  0  2  0  0  0  0  0  0
  186.9020  178.2020  135.7140 C   0  0  0  0  0  2  0  0  0  0  0  0
  186.8140  178.3210  137.2460 C   0  0  1  0  0  3  0  0  0  0  0  0
  188.6880  176.4790  136.1150 C   0  0  2  0  0  3  0  0  0  0  0  0
  188.9510  176.9610  137.5510 C   0  0  0  0  0  2  0  0  0  0  0  0
  190.6210  174.8520  136.2370 C   0  0  0  0  0  0  0  0  0  0  0  0
  190.2550  174.4450  137.3730 O   0  0  0  0  0  0  0  0  0  0  0  0
  189.8940  175.8800  135.5630 N   0  0  0  0  0  2  0  0  0  0  0  0
  191.8220  174.2600  135.5840 C   0  0  0  0  0  2  0  0  0  0  0  0
  193.2860  172.5400  136.5640 C   0  0  0  0  0  2  0  0  0  0  0  0
  192.9360  174.0210  136.6010 C   0  0  1  0  0  3  0  0  0  0  0  0
  194.1300  174.8180  136.2560 N   0  0  0  0  0  0  0  0  0  0  0  0
  195.3570  173.1710  137.7050 C   0  0  0  0  0  0  0  0  0  0  0  0
  194.3250  172.2610  137.4860 O   0  0  0  0  0  0  0  0  0  0  0  0
  195.2820  174.5750  137.1530 C   0  0  1  0  0  3  0  0  0  0  0  0
  196.3270  172.8350  138.4370 O   0  0  0  0  0  0  0  0  0  0  0  0
  197.3860  175.7000  136.9950 O   0  0  0  0  0  1  0  0  0  0  0  0
  196.5600  174.9250  136.4470 C   0  0  0  0  0  0  0  0  0  0  0  0
  196.8360  174.3960  135.1900 O   0  0  0  0  0  0  0  0  0  0  0  0
  193.8030  176.2490  136.3330 C   0  0  0  0  0  2  0  0  0  0  0  0
  193.6440  176.6620  137.6640 O   0  0  0  0  0  1  0  0  0  0  0  0
  1  7  1  1  0  0  0
  2  5  2  0  0  0  0
  3 42  1  6  0  0  0
  3  6  1  0  0  0  0
  4 32  1  6  0  0  0
  4  5  1  0  0  0  0
  4  3  1  0  0  0  0
  4  1  1  0  0  0  0
  5  1  1  0  0  0  0
  6  7  1  6  0  0  0
  6 13  1  0  0  0  0
  8 15  2  0  0  0  0
  9 18  1  0  0  0  0
 10 16  2  0  0  0  0
 12 11  1  6  0  0  0
 12 10  1  0  0  0  0
 12  8  1  0  0  0  0
 13 11  1  1  0  0  0
 13 17  1  0  0  0  0
 14  9  2  0  0  0  0
 15  9  1  0  0  0  0
 16 14  1  0  0  0  0
 17 10  1  0  0  0  0
 18 21  1  0  0  0  0
 19 21  1  0  0  0  0
 21 20  2  0  0  0  0
 22 19  1  1  0  0  0
 22 24  1  0  0  0  0
 23 27  1  1  0  0  0
 23 26  1  0  0  0  0
 23 22  1  0  0  0  0
 25 24  1  0  0  0  0
 26 25  1  0  0  0  0
 28 27  1  0  0  0  0
 30 29  1  1  0  0  0
 30 31  1  0  0  0  0
 30 28  1  0  0  0  0
 33 32  1  0  0  0  0
 34 32  2  0  0  0  0
 35  2  1  6  0  0  0
 35 38  1  0  0  0  0
 36 35  1  0  0  0  0
 37 36  1  0  0  0  0
 38 39  1  0  0  0  0
 39 40  1  0  0  0  0
 40 41  1  0  0  0  0
 44 45  1  0  0  0  0
 44 47  1  0  0  0  0
 45 46  1  0  0  0  0
 46 42  1  1  0  0  0
 46 43  1  0  0  0  0
 47 51  1  6  0  0  0
 47 48  1  0  0  0  0
 48 43  1  0  0  0  0
 49 50  2  0  0  0  0
 51 49  1  0  0  0  0
 52 49  1  0  0  0  0
 53 54  1  0  0  0  0
 53 57  1  0  0  0  0
 54 52  1  6  0  0  0
 55 63  1  0  0  0  0
 55 54  1  0  0  0  0
 55 58  1  0  0  0  0
 56 59  2  0  0  0  0
 57 56  1  0  0  0  0
 58 61  1  6  0  0  0
 58 56  1  0  0  0  0
 61 60  1  0  0  0  0
 62 61  2  0  0  0  0
 63 64  1  0  0  0  0
M  END
>  <MODEL>
1

>  <REMARK>
 VINA RESULT:      -8.0      0.000      0.000
  Name = 
  20 active torsions:
  status: ('A' for Active; 'I' for Inactive)
    1  A    between atoms: C_1  and  C_38
    2  A    between atoms: N_5  and  C_6
    3  A    between atoms: C_7  and  C_47
    4  A    between atoms: C_13  and  C_51
    5  A    between atoms: C_14  and  C_38
    6  A    between atoms: C_14  and  C_47
    7  A    between atoms: C_15  and  N_50
    8  A    between atoms: C_16  and  O_55
    9  A    between atoms: C_17  and  C_51
   10  A    between atoms: C_18  and  C_30
   11  A    between atoms: N_19  and  C_28
   12  A    between atoms: C_21  and  O_35
   13  A    between atoms: C_25  and  N_50
   14  A    between atoms: N_27  and  C_33
   15  A    between atoms: C_29  and  C_36
   16  A    between atoms: O_32  and  C_47
   17  A    between atoms: O_35  and  C_43
   18  A    between atoms: C_41  and  N_57
   19  A    between atoms: O_55  and  C_56
   20  A    between atoms: C_56  and  C_63
                            x       y       z     vdW  Elec       q    Type
                         _______ _______ _______ _____ _____    ______ ____

>  <TORSDO>
F 20

$$$$
=
 OpenBabel10222419253D

 64 70  0  0  1  0  0  0  0  0999 V2000
  182.4880  176.1260  137.0820 C   0  0  2  0  0  3  0  0  0  0  0  0
  181.5100  178.2850  135.6180 C   0  0  0  0  0  3  0  0  0  0  0  0
  184.5150  177.3540  137.4430 C   0  0  1  0  0  3  0  0  0  0  0  0
  183.6210  176.6710  136.4170 C   0  0  2  0  0  0  0  0  0  0  0  0
  182.2770  177.3450  136.1750 C   0  0  0  0  0  0  0  0  0  0  0  0
  183.9480  177.0970  138.7650 N   0  0  2  0  0  0  0  0  0  0  0  0
  182.5980  176.5810  138.5250 C   0  0  0  0  0  2  0  0  0  0  0  0
  185.8280  178.1970  142.4560 C   0  0  0  0  0  3  0  0  0  0  0  0
  184.7410  178.9320  144.6000 C   0  0  0  0  0  0  0  0  0  0  0  0
  183.5310  178.6640  141.7720 C   0  0  0  0  0  0  0  0  0  0  0  0
  185.2020  178.7390  140.1160 C   0  0  0  0  0  2  0  0  0  0  0  0
  184.9470  179.0350  141.5900 C   0  0  2  0  0  3  0  0  0  0  0  0
  183.8510  178.3810  139.4700 C   0  0  2  0  0  3  0  0  0  0  0  0
  183.4800  179.1660  144.1990 C   0  0  0  0  0  3  0  0  0  0  0  0
  185.7390  178.1880  143.7890 C   0  0  0  0  0  3  0  0  0  0  0  0
  182.8620  178.7870  142.9130 C   0  0  0  0  0  3  0  0  0  0  0  0
  182.8950  178.3010  140.5650 N   0  0  0  0  0  2  0  0  0  0  0  0
  185.0880  179.4110  145.8710 O   0  0  0  0  0  0  0  0  0  0  0  0
  186.8830  177.8450  146.3680 N   0  0  0  0  0  2  0  0  0  0  0  0
  185.6610  178.8770  148.0540 O   0  0  0  0  0  0  0  0  0  0  0  0
  185.8480  178.7150  146.8180 C   0  0  0  0  0  0  0  0  0  0  0  0
  188.2750  178.2600  146.3340 C   0  0  2  0  0  3  0  0  0  0  0  0
  189.1460  177.0770  146.0160 C   0  0  2  0  0  3  0  0  0  0  0  0
  188.7170  178.5870  147.7360 C   0  0  0  0  0  2  0  0  0  0  0  0
  189.0050  177.3810  148.3860 O   0  0  0  0  0  0  0  0  0  0  0  0
  189.4310  176.4830  147.3850 C   0  0  0  0  0  2  0  0  0  0  0  0
  190.3500  177.5220  145.4610 O   0  0  0  0  0  0  0  0  0  0  0  0
  189.9910  178.2300  144.3080 C   0  0  0  0  0  2  0  0  0  0  0  0
  189.4490  176.6500  142.4810 C   0  0  0  0  0  1  0  0  0  0  0  0
  190.5350  177.5180  143.0810 C   0  0  2  0  0  3  0  0  0  0  0  0
  191.6260  176.7220  143.4310 O   0  0  0  0  0  1  0  0  0  0  0  0
  184.1610  175.8280  135.2950 C   0  0  0  0  0  0  0  0  0  0  0  0
  183.6230  174.4580  135.0560 C   0  0  0  0  0  1  0  0  0  0  0  0
  185.0690  176.2490  134.5940 O   0  0  0  0  0  0  0  0  0  0  0  0
  180.0350  178.3630  135.8770 C   0  0  2  0  0  3  0  0  0  0  0  0
  179.3210  177.8170  134.8070 O   0  0  0  0  0  0  0  0  0  0  0  0
  179.0580  176.5810  135.1790 O   0  0  0  0  0  1  0  0  0  0  0  0
  179.6100  179.8070  136.1200 C   0  0  0  0  0  2  0  0  0  0  0  0
  180.6050  180.7880  135.5150 C   0  0  0  0  0  2  0  0  0  0  0  0
  180.6040  182.1060  136.2750 C   0  0  0  0  0  2  0  0  0  0  0  0
  179.3540  182.9050  135.9570 C   0  0  0  0  0  1  0  0  0  0  0  0
  185.8810  176.8500  137.3890 N   0  0  0  0  0  2  0  0  0  0  0  0
  187.9720  177.8040  138.2390 C   0  0  0  0  0  2  0  0  0  0  0  0
  188.6080  177.8730  135.5360 C   0  0  0  0  0  2  0  0  0  0  0  0
  187.1680  178.2740  135.8620 C   0  0  0  0  0  2  0  0  0  0  0  0
  186.7620  178.0080  137.3220 C   0  0  1  0  0  3  0  0  0  0  0  0
  188.9690  176.5580  136.2220 C   0  0  2  0  0  3  0  0  0  0  0  0
  188.8950  176.6760  137.7540 C   0  0  0  0  0  2  0  0  0  0  0  0
  190.6680  174.7810  135.6250 C   0  0  0  0  0  0  0  0  0  0  0  0
  189.8320  173.8600  135.8340 O   0  0  0  0  0  0  0  0  0  0  0  0
  190.3060  176.1490  135.8200 N   0  0  0  0  0  2  0  0  0  0  0  0
  192.0460  174.4490  135.1700 C   0  0  0  0  0  2  0  0  0  0  0  0
  193.2060  172.3660  135.7860 C   0  0  0  0  0  2  0  0  0  0  0  0
  192.8380  173.7580  136.2790 C   0  0  1  0  0  3  0  0  0  0  0  0
  194.0690  174.5150  136.5830 N   0  0  0  0  0  0  0  0  0  0  0  0
  194.8690  172.3510  137.5820 C   0  0  0  0  0  0  0  0  0  0  0  0
  193.9520  171.6790  136.7760 O   0  0  0  0  0  0  0  0  0  0  0  0
  194.9300  173.8610  137.5940 C   0  0  1  0  0  3  0  0  0  0  0  0
  195.6020  171.6870  138.3640 O   0  0  0  0  0  0  0  0  0  0  0  0
  196.9230  174.9190  138.3820 O   0  0  0  0  0  1  0  0  0  0  0  0
  196.3470  174.3250  137.4330 C   0  0  0  0  0  0  0  0  0  0  0  0
  197.0290  174.1020  136.2400 O   0  0  0  0  0  0  0  0  0  0  0  0
  193.7120  175.8440  137.0990 C   0  0  0  0  0  2  0  0  0  0  0  0
  194.3530  176.8580  136.3740 O   0  0  0  0  0  1  0  0  0  0  0  0
  1  7  1  1  0  0  0
  2  5  2  0  0  0  0
  3 42  1  1  0  0  0
  3  6  1  0  0  0  0
  4 32  1  6  0  0  0
  4  1  1  0  0  0  0
  4  3  1  0  0  0  0
  5  4  1  0  0  0  0
  5  1  1  0  0  0  0
  6  7  1  6  0  0  0
  6 13  1  0  0  0  0
  8 15  2  0  0  0  0
  9 18  1  0  0  0  0
 10 16  2  0  0  0  0
 12 11  1  6  0  0  0
 12 10  1  0  0  0  0
 12  8  1  0  0  0  0
 13 11  1  1  0  0  0
 13 17  1  0  0  0  0
 14  9  2  0  0  0  0
 15  9  1  0  0  0  0
 16 14  1  0  0  0  0
 17 10  1  0  0  0  0
 18 21  1  0  0  0  0
 19 21  1  0  0  0  0
 21 20  2  0  0  0  0
 22 19  1  1  0  0  0
 22 24  1  0  0  0  0
 23 27  1  1  0  0  0
 23 22  1  0  0  0  0
 23 26  1  0  0  0  0
 24 25  1  0  0  0  0
 26 25  1  0  0  0  0
 28 27  1  0  0  0  0
 30 29  1  1  0  0  0
 30 31  1  0  0  0  0
 30 28  1  0  0  0  0
 33 32  1  0  0  0  0
 34 32  2  0  0  0  0
 35  2  1  6  0  0  0
 35 38  1  0  0  0  0
 36 37  1  0  0  0  0
 36 35  1  0  0  0  0
 39 38  1  0  0  0  0
 39 40  1  0  0  0  0
 41 40  1  0  0  0  0
 44 45  1  0  0  0  0
 44 47  1  0  0  0  0
 45 46  1  0  0  0  0
 46 42  1  6  0  0  0
 46 43  1  0  0  0  0
 47 51  1  1  0  0  0
 47 48  1  0  0  0  0
 48 43  1  0  0  0  0
 49 51  1  0  0  0  0
 49 50  2  0  0  0  0
 52 49  1  0  0  0  0
 53 54  1  0  0  0  0
 53 57  1  0  0  0  0
 54 52  1  6  0  0  0
 54 55  1  0  0  0  0
 55 63  1  0  0  0  0
 55 58  1  0  0  0  0
 56 58  1  0  0  0  0
 56 59  2  0  0  0  0
 57 56  1  0  0  0  0
 58 61  1  6  0  0  0
 61 60  1  0  0  0  0
 62 61  2  0  0  0  0
 64 63  1  0  0  0  0
M  END
>  <MODEL>
2

>  <REMARK>
 VINA RESULT:      -7.1      1.702      2.273
  Name = 
  20 active torsions:
  status: ('A' for Active; 'I' for Inactive)
    1  A    between atoms: C_1  and  C_38
    2  A    between atoms: N_5  and  C_6
    3  A    between atoms: C_7  and  C_47
    4  A    between atoms: C_13  and  C_51
    5  A    between atoms: C_14  and  C_38
    6  A    between atoms: C_14  and  C_47
    7  A    between atoms: C_15  and  N_50
    8  A    between atoms: C_16  and  O_55
    9  A    between atoms: C_17  and  C_51
   10  A    between atoms: C_18  and  C_30
   11  A    between atoms: N_19  and  C_28
   12  A    between atoms: C_21  and  O_35
   13  A    between atoms: C_25  and  N_50
   14  A    between atoms: N_27  and  C_33
   15  A    between atoms: C_29  and  C_36
   16  A    between atoms: O_32  and  C_47
   17  A    between atoms: O_35  and  C_43
   18  A    between atoms: C_41  and  N_57
   19  A    between atoms: O_55  and  C_56
   20  A    between atoms: C_56  and  C_63
                            x       y       z     vdW  Elec       q    Type
                         _______ _______ _______ _____ _____    ______ ____

>  <TORSDO>
F 20

$$$$
=
 OpenBabel10222419253D

 64 70  0  0  1  0  0  0  0  0999 V2000
  189.4900  174.8510  135.3080 C   0  0  2  0  0  3  0  0  0  0  0  0
  191.5310  174.6050  137.1880 C   0  0  0  0  0  3  0  0  0  0  0  0
  188.0110  175.5120  137.0740 C   0  0  1  0  0  3  0  0  0  0  0  0
  188.8540  174.3860  136.4910 C   0  0  2  0  0  0  0  0  0  0  0  0
  190.3600  174.6060  136.5470 C   0  0  0  0  0  0  0  0  0  0  0  0
  188.0610  176.6330  136.1370 N   0  0  2  0  0  0  0  0  0  0  0  0
  189.1530  176.3270  135.2100 C   0  0  0  0  0  2  0  0  0  0  0  0
  190.2580  176.8680  139.8100 C   0  0  0  0  0  3  0  0  0  0  0  0
  189.5090  177.8110  142.0160 C   0  0  0  0  0  0  0  0  0  0  0  0
  188.2330  178.0970  139.2190 C   0  0  0  0  0  0  0  0  0  0  0  0
  189.8090  177.7020  137.5160 C   0  0  0  0  0  2  0  0  0  0  0  0
  189.6890  177.9910  139.0080 C   0  0  2  0  0  3  0  0  0  0  0  0
  188.4040  177.8400  136.8980 C   0  0  2  0  0  3  0  0  0  0  0  0
  188.3900  178.4650  141.6650 C   0  0  0  0  0  3  0  0  0  0  0  0
  190.1930  176.8220  141.1430 C   0  0  0  0  0  3  0  0  0  0  0  0
  187.6610  178.3760  140.3850 C   0  0  0  0  0  3  0  0  0  0  0  0
  187.4930  178.0240  138.0190 N   0  0  0  0  0  2  0  0  0  0  0  0
  190.0150  178.0860  143.2940 O   0  0  0  0  0  0  0  0  0  0  0  0
  188.4990  178.1910  145.1950 N   0  0  0  0  0  2  0  0  0  0  0  0
  189.9960  176.4350  144.9240 O   0  0  0  0  0  0  0  0  0  0  0  0
  189.5440  177.5280  144.4880 C   0  0  0  0  0  0  0  0  0  0  0  0
  187.1090  177.7830  145.0720 C   0  0  2  0  0  3  0  0  0  0  0  0
  186.2160  178.9790  145.2480 C   0  0  2  0  0  3  0  0  0  0  0  0
  186.7410  176.9550  146.2750 C   0  0  0  0  0  2  0  0  0  0  0  0
  186.4770  177.8330  147.3330 O   0  0  0  0  0  0  0  0  0  0  0  0
  185.9960  179.0240  146.7510 C   0  0  0  0  0  2  0  0  0  0  0  0
  184.9890  178.7370  144.6230 O   0  0  0  0  0  0  0  0  0  0  0  0
  185.2840  178.5990  143.2620 C   0  0  0  0  0  2  0  0  0  0  0  0
  182.8280  178.8990  143.3650 C   0  0  0  0  0  1  0  0  0  0  0  0
  184.0260  178.8290  142.4410 C   0  0  2  0  0  3  0  0  0  0  0  0
  183.8490  177.7870  141.5290 O   0  0  0  0  0  1  0  0  0  0  0  0
  188.3850  172.9580  136.4370 C   0  0  0  0  0  0  0  0  0  0  0  0
  188.5280  172.1660  135.1830 C   0  0  0  0  0  1  0  0  0  0  0  0
  187.8530  172.4500  137.4130 O   0  0  0  0  0  0  0  0  0  0  0  0
  192.8060  175.0190  136.5140 C   0  0  2  0  0  3  0  0  0  0  0  0
  192.5710  175.3310  135.1720 O   0  0  0  0  0  0  0  0  0  0  0  0
  193.7170  175.8150  134.7380 O   0  0  0  0  0  1  0  0  0  0  0  0
  193.8540  173.9190  136.6300 C   0  0  0  0  0  2  0  0  0  0  0  0
  194.4350  173.8500  138.0370 C   0  0  0  0  0  2  0  0  0  0  0  0
  195.9500  173.9780  138.0090 C   0  0  0  0  0  2  0  0  0  0  0  0
  196.4210  174.4580  136.6480 C   0  0  0  0  0  1  0  0  0  0  0  0
  186.6280  175.1020  137.2750 N   0  0  0  0  0  2  0  0  0  0  0  0
  184.8850  174.1880  135.8130 C   0  0  0  0  0  2  0  0  0  0  0  0
  183.8160  176.7340  136.1120 C   0  0  0  0  0  2  0  0  0  0  0  0
  185.3360  176.6990  135.9330 C   0  0  0  0  0  2  0  0  0  0  0  0
  185.9390  175.2850  136.0050 C   0  0  1  0  0  3  0  0  0  0  0  0
  183.3780  175.7490  137.1930 C   0  0  2  0  0  3  0  0  0  0  0  0
  183.7300  174.3000  136.8190 C   0  0  0  0  0  2  0  0  0  0  0  0
  181.3650  175.9040  138.7170 C   0  0  0  0  0  0  0  0  0  0  0  0
  182.0880  175.7890  139.7440 O   0  0  0  0  0  0  0  0  0  0  0  0
  181.9450  175.8720  137.4120 N   0  0  0  0  0  2  0  0  0  0  0  0
  179.8920  176.0750  138.8570 C   0  0  0  0  0  2  0  0  0  0  0  0
  180.2260  177.4740  140.8560 C   0  0  0  0  0  2  0  0  0  0  0  0
  179.5550  177.4240  139.4900 C   0  0  1  0  0  3  0  0  0  0  0  0
  180.0610  178.5290  138.6520 N   0  0  0  0  0  0  0  0  0  0  0  0
  179.8750  179.8940  140.7540 C   0  0  0  0  0  0  0  0  0  0  0  0
  179.9530  178.7130  141.4880 O   0  0  0  0  0  0  0  0  0  0  0  0
  179.8430  179.8680  139.2430 C   0  0  1  0  0  3  0  0  0  0  0  0
  179.7550  180.9900  141.3650 O   0  0  0  0  0  0  0  0  0  0  0  0
  180.4390  181.8550  138.0560 O   0  0  0  0  0  0  0  0  0  0  0  0
  180.8390  180.8400  138.6850 C   0  0  0  0  0  0  0  0  0  0  0  0
  182.2030  180.6270  138.8600 O   0  0  0  0  0  1  0  0  0  0  0  0
  179.3820  178.5060  137.3480 C   0  0  0  0  0  2  0  0  0  0  0  0
  180.3060  178.5440  136.2940 O   0  0  0  0  0  1  0  0  0  0  0  0
  1  7  1  1  0  0  0
  1  4  1  0  0  0  0
  1  5  1  0  0  0  0
  3 42  1  6  0  0  0
  4 32  1  1  0  0  0
  4  5  1  0  0  0  0
  4  3  1  0  0  0  0
  5  2  2  0  0  0  0
  6  7  1  6  0  0  0
  6 13  1  0  0  0  0
  6  3  1  0  0  0  0
  8 15  2  0  0  0  0
  9 18  1  0  0  0  0
 10 16  2  0  0  0  0
 12 11  1  6  0  0  0
 12 10  1  0  0  0  0
 12  8  1  0  0  0  0
 13 11  1  1  0  0  0
 13 17  1  0  0  0  0
 14  9  2  0  0  0  0
 15  9  1  0  0  0  0
 16 14  1  0  0  0  0
 17 10  1  0  0  0  0
 18 21  1  0  0  0  0
 21 20  2  0  0  0  0
 21 19  1  0  0  0  0
 22 19  1  1  0  0  0
 22 23  1  0  0  0  0
 22 24  1  0  0  0  0
 23 27  1  6  0  0  0
 23 26  1  0  0  0  0
 24 25  1  0  0  0  0
 26 25  1  0  0  0  0
 28 27  1  0  0  0  0
 30 28  1  0  0  0  0
 30 29  1  1  0  0  0
 31 30  1  0  0  0  0
 32 34  2  0  0  0  0
 33 32  1  0  0  0  0
 35 38  1  6  0  0  0
 35  2  1  0  0  0  0
 36 35  1  0  0  0  0
 37 36  1  0  0  0  0
 38 39  1  0  0  0  0
 40 39  1  0  0  0  0
 41 40  1  0  0  0  0
 43 46  1  0  0  0  0
 43 48  1  0  0  0  0
 44 47  1  0  0  0  0
 45 46  1  0  0  0  0
 45 44  1  0  0  0  0
 46 42  1  1  0  0  0
 47 51  1  6  0  0  0
 48 47  1  0  0  0  0
 49 52  1  0  0  0  0
 49 50  2  0  0  0  0
 51 49  1  0  0  0  0
 53 57  1  0  0  0  0
 54 52  1  6  0  0  0
 54 53  1  0  0  0  0
 55 58  1  0  0  0  0
 55 54  1  0  0  0  0
 56 59  2  0  0  0  0
 56 57  1  0  0  0  0
 58 61  1  6  0  0  0
 58 56  1  0  0  0  0
 60 61  2  0  0  0  0
 61 62  1  0  0  0  0
 63 55  1  0  0  0  0
 64 63  1  0  0  0  0
M  END
>  <MODEL>
3

>  <REMARK>
 VINA RESULT:      -6.5      2.300     10.118
  Name = 
  20 active torsions:
  status: ('A' for Active; 'I' for Inactive)
    1  A    between atoms: C_1  and  C_38
    2  A    between atoms: N_5  and  C_6
    3  A    between atoms: C_7  and  C_47
    4  A    between atoms: C_13  and  C_51
    5  A    between atoms: C_14  and  C_38
    6  A    between atoms: C_14  and  C_47
    7  A    between atoms: C_15  and  N_50
    8  A    between atoms: C_16  and  O_55
    9  A    between atoms: C_17  and  C_51
   10  A    between atoms: C_18  and  C_30
   11  A    between atoms: N_19  and  C_28
   12  A    between atoms: C_21  and  O_35
   13  A    between atoms: C_25  and  N_50
   14  A    between atoms: N_27  and  C_33
   15  A    between atoms: C_29  and  C_36
   16  A    between atoms: O_32  and  C_47
   17  A    between atoms: O_35  and  C_43
   18  A    between atoms: C_41  and  N_57
   19  A    between atoms: O_55  and  C_56
   20  A    between atoms: C_56  and  C_63
                            x       y       z     vdW  Elec       q    Type
                         _______ _______ _______ _____ _____    ______ ____

>  <TORSDO>
F 20

$$$$
=
 OpenBabel10222419253D

 64 70  0  0  1  0  0  0  0  0999 V2000
  193.0100  176.2850  137.3920 C   0  0  2  0  0  3  0  0  0  0  0  0
  194.2310  173.9020  138.1610 C   0  0  0  0  0  3  0  0  0  0  0  0
  191.3060  175.8820  139.0280 C   0  0  1  0  0  3  0  0  0  0  0  0
  191.9410  175.4090  137.7290 C   0  0  2  0  0  0  0  0  0  0  0  0
  193.3580  174.8660  137.8570 C   0  0  0  0  0  0  0  0  0  0  0  0
  191.9460  177.1420  139.4010 N   0  0  2  0  0  0  0  0  0  0  0  0
  193.1390  177.2470  138.5580 C   0  0  0  0  0  2  0  0  0  0  0  0
  189.5050  176.1340  142.7760 C   0  0  0  0  0  3  0  0  0  0  0  0
  189.0500  177.5030  144.8350 C   0  0  0  0  0  0  0  0  0  0  0  0
  191.1960  177.8900  142.6490 C   0  0  0  0  0  0  0  0  0  0  0  0
  191.6170  175.8810  141.4980 C   0  0  0  0  0  2  0  0  0  0  0  0
  190.9660  176.4380  142.7600 C   0  0  2  0  0  3  0  0  0  0  0  0
  192.3600  177.0390  140.8050 C   0  0  2  0  0  3  0  0  0  0  0  0
  189.9800  178.4670  144.7310 C   0  0  0  0  0  3  0  0  0  0  0  0
  188.6790  176.5920  143.7210 C   0  0  0  0  0  3  0  0  0  0  0  0
  190.8180  178.7830  143.5580 C   0  0  0  0  0  3  0  0  0  0  0  0
  192.0000  178.2410  141.5430 N   0  0  0  0  0  2  0  0  0  0  0  0
  188.3990  177.3980  146.0720 O   0  0  0  0  0  0  0  0  0  0  0  0
  186.4530  178.6830  145.3740 N   0  0  0  0  0  2  0  0  0  0  0  0
  186.6590  177.8580  147.5370 O   0  0  0  0  0  0  0  0  0  0  0  0
  187.1660  177.9800  146.3890 C   0  0  0  0  0  0  0  0  0  0  0  0
  185.3720  178.0650  144.6260 C   0  0  2  0  0  3  0  0  0  0  0  0
  185.0700  178.8860  143.4040 C   0  0  2  0  0  3  0  0  0  0  0  0
  184.0940  178.2160  145.4100 C   0  0  0  0  0  2  0  0  0  0  0  0
  183.6130  179.5130  145.1960 O   0  0  0  0  0  0  0  0  0  0  0  0
  184.0500  179.8920  143.9100 C   0  0  0  0  0  2  0  0  0  0  0  0
  184.4620  178.0780  142.4400 O   0  0  0  0  0  0  0  0  0  0  0  0
  184.2710  178.9040  141.3260 C   0  0  0  0  0  2  0  0  0  0  0  0
  181.8060  178.9090  141.0800 C   0  0  0  0  0  1  0  0  0  0  0  0
  183.1050  178.3860  140.5000 C   0  0  2  0  0  3  0  0  0  0  0  0
  183.0900  176.9900  140.5110 O   0  0  0  0  0  1  0  0  0  0  0  0
  191.1360  174.9150  136.5580 C   0  0  0  0  0  0  0  0  0  0  0  0
  191.1080  175.6880  135.2840 C   0  0  0  0  0  1  0  0  0  0  0  0
  190.4730  173.8940  136.6580 O   0  0  0  0  0  0  0  0  0  0  0  0
  195.7120  174.1050  138.0420 C   0  0  2  0  0  3  0  0  0  0  0  0
  196.1240  175.1800  138.8350 O   0  0  0  0  0  0  0  0  0  0  0  0
  196.6830  174.6210  139.8880 O   0  0  0  0  0  1  0  0  0  0  0  0
  196.1050  174.3350  136.5870 C   0  0  0  0  0  2  0  0  0  0  0  0
  196.0380  173.0430  135.7830 C   0  0  0  0  0  2  0  0  0  0  0  0
  194.9300  173.1040  134.7420 C   0  0  0  0  0  2  0  0  0  0  0  0
  193.8980  172.0220  134.9960 C   0  0  0  0  0  1  0  0  0  0  0  0
  189.8710  176.0850  138.8860 N   0  0  0  0  0  2  0  0  0  0  0  0
  189.3770  177.9080  137.3230 C   0  0  0  0  0  2  0  0  0  0  0  0
  187.1980  178.2670  139.0060 C   0  0  0  0  0  2  0  0  0  0  0  0
  188.5120  177.9470  139.7240 C   0  0  0  0  0  2  0  0  0  0  0  0
  189.6490  177.5200  138.7800 C   0  0  1  0  0  3  0  0  0  0  0  0
  186.9460  177.2740  137.8750 C   0  0  2  0  0  3  0  0  0  0  0  0
  188.0470  177.3430  136.8030 C   0  0  0  0  0  2  0  0  0  0  0  0
  185.1330  176.7720  136.1860 C   0  0  0  0  0  0  0  0  0  0  0  0
  185.8130  175.8410  135.6770 O   0  0  0  0  0  0  0  0  0  0  0  0
  185.6490  177.5400  137.2740 N   0  0  0  0  0  2  0  0  0  0  0  0
  183.7760  177.0800  135.6550 C   0  0  0  0  0  2  0  0  0  0  0  0
  181.9350  178.4310  136.5770 C   0  0  0  0  0  2  0  0  0  0  0  0
  182.7500  177.1620  136.7840 C   0  0  1  0  0  3  0  0  0  0  0  0
  181.8540  175.9890  136.7540 N   0  0  0  0  0  0  0  0  0  0  0  0
  180.3070  177.4340  138.1090 C   0  0  0  0  0  0  0  0  0  0  0  0
  180.9580  178.5540  137.5970 O   0  0  0  0  0  0  0  0  0  0  0  0
  180.7800  176.0390  137.7710 C   0  0  1  0  0  3  0  0  0  0  0  0
  179.3580  177.5950  138.9230 O   0  0  0  0  0  0  0  0  0  0  0  0
  179.1370  174.3390  138.1250 O   0  0  0  0  0  1  0  0  0  0  0  0
  179.6240  175.1900  137.3340 C   0  0  0  0  0  0  0  0  0  0  0  0
  179.0850  175.3370  136.0590 O   0  0  0  0  0  0  0  0  0  0  0  0
  182.6350  174.7680  136.9950 C   0  0  0  0  0  2  0  0  0  0  0  0
  183.3260  174.8400  138.2130 O   0  0  0  0  0  1  0  0  0  0  0  0
  1  4  1  0  0  0  0
  1  5  1  0  0  0  0
  1  7  1  1  0  0  0
  3 42  1  6  0  0  0
  3  6  1  0  0  0  0
  4 32  1  6  0  0  0
  4  5  1  0  0  0  0
  4  3  1  0  0  0  0
  5  2  2  0  0  0  0
  6  7  1  6  0  0  0
  6 13  1  0  0  0  0
  8 15  2  0  0  0  0
  9 18  1  0  0  0  0
 10 12  1  0  0  0  0
 10 16  2  0  0  0  0
 12 11  1  6  0  0  0
 12  8  1  0  0  0  0
 13 11  1  1  0  0  0
 13 17  1  0  0  0  0
 14  9  2  0  0  0  0
 15  9  1  0  0  0  0
 16 14  1  0  0  0  0
 17 10  1  0  0  0  0
 18 21  1  0  0  0  0
 19 21  1  0  0  0  0
 21 20  2  0  0  0  0
 22 19  1  1  0  0  0
 22 24  1  0  0  0  0
 23 27  1  6  0  0  0
 23 26  1  0  0  0  0
 23 22  1  0  0  0  0
 25 24  1  0  0  0  0
 26 25  1  0  0  0  0
 28 27  1  0  0  0  0
 30 31  1  0  0  0  0
 30 29  1  1  0  0  0
 30 28  1  0  0  0  0
 32 34  2  0  0  0  0
 33 32  1  0  0  0  0
 35 38  1  6  0  0  0
 35  2  1  0  0  0  0
 35 36  1  0  0  0  0
 36 37  1  0  0  0  0
 39 38  1  0  0  0  0
 40 41  1  0  0  0  0
 40 39  1  0  0  0  0
 43 46  1  0  0  0  0
 44 45  1  0  0  0  0
 46 42  1  6  0  0  0
 46 45  1  0  0  0  0
 47 51  1  6  0  0  0
 47 44  1  0  0  0  0
 48 43  1  0  0  0  0
 48 47  1  0  0  0  0
 49 51  1  0  0  0  0
 50 49  2  0  0  0  0
 52 49  1  0  0  0  0
 53 54  1  0  0  0  0
 53 57  1  0  0  0  0
 54 52  1  6  0  0  0
 55 54  1  0  0  0  0
 55 63  1  0  0  0  0
 55 58  1  0  0  0  0
 56 59  2  0  0  0  0
 57 56  1  0  0  0  0
 58 61  1  6  0  0  0
 58 56  1  0  0  0  0
 61 60  1  0  0  0  0
 62 61  2  0  0  0  0
 63 64  1  0  0  0  0
M  END
>  <MODEL>
4

>  <REMARK>
 VINA RESULT:      -6.3      2.541     10.300
  Name = 
  20 active torsions:
  status: ('A' for Active; 'I' for Inactive)
    1  A    between atoms: C_1  and  C_38
    2  A    between atoms: N_5  and  C_6
    3  A    between atoms: C_7  and  C_47
    4  A    between atoms: C_13  and  C_51
    5  A    between atoms: C_14  and  C_38
    6  A    between atoms: C_14  and  C_47
    7  A    between atoms: C_15  and  N_50
    8  A    between atoms: C_16  and  O_55
    9  A    between atoms: C_17  and  C_51
   10  A    between atoms: C_18  and  C_30
   11  A    between atoms: N_19  and  C_28
   12  A    between atoms: C_21  and  O_35
   13  A    between atoms: C_25  and  N_50
   14  A    between atoms: N_27  and  C_33
   15  A    between atoms: C_29  and  C_36
   16  A    between atoms: O_32  and  C_47
   17  A    between atoms: O_35  and  C_43
   18  A    between atoms: C_41  and  N_57
   19  A    between atoms: O_55  and  C_56
   20  A    between atoms: C_56  and  C_63
                            x       y       z     vdW  Elec       q    Type
                         _______ _______ _______ _____ _____    ______ ____

>  <TORSDO>
F 20

$$$$
=
 OpenBabel10222419253D

 64 70  0  0  1  0  0  0  0  0999 V2000
  189.1540  178.6230  143.0820 C   0  0  2  0  0  3  0  0  0  0  0  0
  188.0120  177.2260  145.2050 C   0  0  0  0  0  3  0  0  0  0  0  0
  187.7280  177.4130  141.5840 C   0  0  1  0  0  3  0  0  0  0  0  0
  188.8820  177.3240  142.5720 C   0  0  2  0  0  0  0  0  0  0  0  0
  188.5170  177.5950  144.0250 C   0  0  0  0  0  0  0  0  0  0  0  0
  187.3920  178.8260  141.4220 N   0  0  2  0  0  0  0  0  0  0  0  0
  188.0760  179.5250  142.5130 C   0  0  0  0  0  2  0  0  0  0  0  0
  184.2890  176.9080  139.1720 C   0  0  0  0  0  3  0  0  0  0  0  0
  182.4620  177.9730  137.8140 C   0  0  0  0  0  0  0  0  0  0  0  0
  184.3680  179.2410  139.8860 C   0  0  0  0  0  0  0  0  0  0  0  0
  185.2390  177.6190  141.3520 C   0  0  0  0  0  2  0  0  0  0  0  0
  184.1410  177.8500  140.3200 C   0  0  2  0  0  3  0  0  0  0  0  0
  185.9410  178.9670  141.5980 C   0  0  2  0  0  3  0  0  0  0  0  0
  182.5390  179.2530  138.2130 C   0  0  0  0  0  3  0  0  0  0  0  0
  183.5160  176.9610  138.0840 C   0  0  0  0  0  3  0  0  0  0  0  0
  183.6150  179.8850  139.0010 C   0  0  0  0  0  3  0  0  0  0  0  0
  185.3870  179.8900  140.6180 N   0  0  0  0  0  2  0  0  0  0  0  0
  181.3200  177.6170  137.0840 O   0  0  0  0  0  0  0  0  0  0  0  0
  179.7930  175.7600  136.7040 N   0  0  0  0  0  2  0  0  0  0  0  0
  179.8160  176.9290  138.7120 O   0  0  0  0  0  0  0  0  0  0  0  0
  180.2860  176.7960  137.5490 C   0  0  0  0  0  0  0  0  0  0  0  0
  180.2360  174.3820  136.8370 C   0  0  2  0  0  3  0  0  0  0  0  0
  181.5940  174.2260  136.2150 C   0  0  2  0  0  3  0  0  0  0  0  0
  179.3940  173.5150  135.9380 C   0  0  0  0  0  2  0  0  0  0  0  0
  179.8940  173.6370  134.6370 O   0  0  0  0  0  0  0  0  0  0  0  0
  181.2730  173.9070  134.7650 C   0  0  0  0  0  2  0  0  0  0  0  0
  182.2420  173.1250  136.7830 O   0  0  0  0  0  0  0  0  0  0  0  0
  183.3850  172.9200  136.0020 C   0  0  0  0  0  2  0  0  0  0  0  0
  185.1430  173.1850  137.7270 C   0  0  0  0  0  1  0  0  0  0  0  0
  184.4390  172.1940  136.8210 C   0  0  2  0  0  3  0  0  0  0  0  0
  185.3730  171.5910  135.9780 O   0  0  0  0  0  1  0  0  0  0  0  0
  190.0980  176.4720  142.3320 C   0  0  0  0  0  0  0  0  0  0  0  0
  191.3820  177.0960  141.9000 C   0  0  0  0  0  1  0  0  0  0  0  0
  190.0310  175.2590  142.4580 O   0  0  0  0  0  0  0  0  0  0  0  0
  187.9520  178.1660  146.3720 C   0  0  2  0  0  3  0  0  0  0  0  0
  188.9280  177.8360  147.3170 O   0  0  0  0  0  0  0  0  0  0  0  0
  188.7030  178.6520  148.3260 O   0  0  0  0  0  1  0  0  0  0  0  0
  186.5670  178.1420  147.0070 C   0  0  0  0  0  2  0  0  0  0  0  0
  185.6200  179.1130  146.3120 C   0  0  0  0  0  2  0  0  0  0  0  0
  184.9900  178.4740  145.0830 C   0  0  0  0  0  2  0  0  0  0  0  0
  183.7600  179.2500  144.6500 C   0  0  0  0  0  1  0  0  0  0  0  0
  188.0780  176.8410  140.2910 N   0  0  0  0  0  2  0  0  0  0  0  0
  189.7160  178.2520  139.1370 C   0  0  0  0  0  2  0  0  0  0  0  0
  188.4170  177.2790  136.8830 C   0  0  0  0  0  2  0  0  0  0  0  0
  187.4900  177.6390  138.0470 C   0  0  0  0  0  2  0  0  0  0  0  0
  188.2300  177.9500  139.3590 C   0  0  1  0  0  3  0  0  0  0  0  0
  189.5660  176.3960  137.3620 C   0  0  2  0  0  3  0  0  0  0  0  0
  190.4430  177.1180  138.3990 C   0  0  0  0  0  2  0  0  0  0  0  0
  191.1850  174.8120  136.2370 C   0  0  0  0  0  0  0  0  0  0  0  0
  191.2540  174.0920  137.2690 O   0  0  0  0  0  0  0  0  0  0  0  0
  190.3750  175.9890  136.2240 N   0  0  0  0  0  2  0  0  0  0  0  0
  191.9510  174.4410  135.0150 C   0  0  0  0  0  2  0  0  0  0  0  0
  193.6130  176.0240  135.9050 C   0  0  0  0  0  2  0  0  0  0  0  0
  193.4470  174.6800  135.2110 C   0  0  1  0  0  3  0  0  0  0  0  0
  194.0330  173.6160  136.0510 N   0  0  0  0  0  0  0  0  0  0  0  0
  195.8790  175.2750  136.4490 C   0  0  0  0  0  0  0  0  0  0  0  0
  194.9870  176.2940  136.1220 O   0  0  0  0  0  0  0  0  0  0  0  0
  195.4670  173.8240  136.3530 C   0  0  1  0  0  3  0  0  0  0  0  0
  197.0650  175.5720  136.7550 O   0  0  0  0  0  0  0  0  0  0  0  0
  196.9900  172.6170  137.7450 O   0  0  0  0  0  0  0  0  0  0  0  0
  195.8330  173.0960  137.6120 C   0  0  0  0  0  0  0  0  0  0  0  0
  194.9020  172.9470  138.6350 O   0  0  0  0  0  1  0  0  0  0  0  0
  193.9100  172.3230  135.3620 C   0  0  0  0  0  2  0  0  0  0  0  0
  195.1120  171.9660  134.7340 O   0  0  0  0  0  1  0  0  0  0  0  0
  1  7  1  6  0  0  0
  1  5  1  0  0  0  0
  3 42  1  6  0  0  0
  3  4  1  0  0  0  0
  4 32  1  6  0  0  0
  4  1  1  0  0  0  0
  4  5  1  0  0  0  0
  5  2  2  0  0  0  0
  6  3  1  0  0  0  0
  6 13  1  0  0  0  0
  6  7  1  1  0  0  0
  9 15  1  0  0  0  0
  9 14  2  0  0  0  0
 10 12  1  0  0  0  0
 10 17  1  0  0  0  0
 12  8  1  6  0  0  0
 12 11  1  0  0  0  0
 13 11  1  6  0  0  0
 14 16  1  0  0  0  0
 15  8  2  0  0  0  0
 16 10  2  0  0  0  0
 17 13  1  0  0  0  0
 18 21  1  0  0  0  0
 18  9  1  0  0  0  0
 19 21  1  0  0  0  0
 21 20  2  0  0  0  0
 22 19  1  6  0  0  0
 23 27  1  1  0  0  0
 23 22  1  0  0  0  0
 24 22  1  0  0  0  0
 25 26  1  0  0  0  0
 25 24  1  0  0  0  0
 26 23  1  0  0  0  0
 28 27  1  0  0  0  0
 28 30  1  0  0  0  0
 30 29  1  1  0  0  0
 31 30  1  0  0  0  0
 32 34  2  0  0  0  0
 33 32  1  0  0  0  0
 35  2  1  6  0  0  0
 35 38  1  0  0  0  0
 35 36  1  0  0  0  0
 36 37  1  0  0  0  0
 39 38  1  0  0  0  0
 40 39  1  0  0  0  0
 41 40  1  0  0  0  0
 43 46  1  0  0  0  0
 44 47  1  0  0  0  0
 44 45  1  0  0  0  0
 45 46  1  0  0  0  0
 46 42  1  1  0  0  0
 47 51  1  6  0  0  0
 47 48  1  0  0  0  0
 48 43  1  0  0  0  0
 49 50  2  0  0  0  0
 51 49  1  0  0  0  0
 52 49  1  0  0  0  0
 53 57  1  0  0  0  0
 54 52  1  1  0  0  0
 54 53  1  0  0  0  0
 54 55  1  0  0  0  0
 55 58  1  0  0  0  0
 56 59  2  0  0  0  0
 57 56  1  0  0  0  0
 58 56  1  0  0  0  0
 58 61  1  1  0  0  0
 61 60  2  0  0  0  0
 61 62  1  0  0  0  0
 63 55  1  0  0  0  0
 64 63  1  0  0  0  0
M  END
>  <MODEL>
5

>  <REMARK>
 VINA RESULT:      -5.6      2.333      8.149
  Name = 
  20 active torsions:
  status: ('A' for Active; 'I' for Inactive)
    1  A    between atoms: C_1  and  C_38
    2  A    between atoms: N_5  and  C_6
    3  A    between atoms: C_7  and  C_47
    4  A    between atoms: C_13  and  C_51
    5  A    between atoms: C_14  and  C_38
    6  A    between atoms: C_14  and  C_47
    7  A    between atoms: C_15  and  N_50
    8  A    between atoms: C_16  and  O_55
    9  A    between atoms: C_17  and  C_51
   10  A    between atoms: C_18  and  C_30
   11  A    between atoms: N_19  and  C_28
   12  A    between atoms: C_21  and  O_35
   13  A    between atoms: C_25  and  N_50
   14  A    between atoms: N_27  and  C_33
   15  A    between atoms: C_29  and  C_36
   16  A    between atoms: O_32  and  C_47
   17  A    between atoms: O_35  and  C_43
   18  A    between atoms: C_41  and  N_57
   19  A    between atoms: O_55  and  C_56
   20  A    between atoms: C_56  and  C_63
                            x       y       z     vdW  Elec       q    Type
                         _______ _______ _______ _____ _____    ______ ____

>  <TORSDO>
F 20

$$$$
=
 OpenBabel10222419253D

 64 70  0  0  1  0  0  0  0  0999 V2000
  191.1180  177.3900  137.3930 C   0  0  2  0  0  3  0  0  0  0  0  0
  192.3900  174.9300  137.6980 C   0  0  0  0  0  3  0  0  0  0  0  0
  189.0110  176.2730  137.6300 C   0  0  1  0  0  3  0  0  0  0  0  0
  190.2570  176.4440  136.7720 C   0  0  2  0  0  0  0  0  0  0  0  0
  191.5470  175.9170  137.3870 C   0  0  0  0  0  0  0  0  0  0  0  0
  189.0920  177.2370  138.7250 N   0  0  2  0  0  0  0  0  0  0  0  0
  190.4730  177.7240  138.7250 C   0  0  0  0  0  2  0  0  0  0  0  0
  189.8340  178.6030  142.7190 C   0  0  0  0  0  3  0  0  0  0  0  0
  191.3160  177.5730  144.4690 C   0  0  0  0  0  0  0  0  0  0  0  0
  190.2940  176.3860  141.8070 C   0  0  0  0  0  0  0  0  0  0  0  0
  188.3530  177.4910  141.0670 C   0  0  0  0  0  2  0  0  0  0  0  0
  189.2430  177.3010  142.2900 C   0  0  2  0  0  3  0  0  0  0  0  0
  188.8380  176.5160  139.9790 C   0  0  2  0  0  3  0  0  0  0  0  0
  191.5660  176.3650  143.9350 C   0  0  0  0  0  3  0  0  0  0  0  0
  190.7290  178.7050  143.7050 C   0  0  0  0  0  3  0  0  0  0  0  0
  191.2860  175.9160  142.5570 C   0  0  0  0  0  3  0  0  0  0  0  0
  190.0650  175.9240  140.4930 N   0  0  0  0  0  2  0  0  0  0  0  0
  191.6650  177.7420  145.8150 O   0  0  0  0  0  0  0  0  0  0  0  0
  190.1650  177.3130  147.6830 N   0  0  0  0  0  2  0  0  0  0  0  0
  191.8190  175.7990  147.0750 O   0  0  0  0  0  0  0  0  0  0  0  0
  191.2610  176.9100  146.8660 C   0  0  0  0  0  0  0  0  0  0  0  0
  188.8190  176.8080  147.4660 C   0  0  2  0  0  3  0  0  0  0  0  0
  187.9490  177.9080  146.9250 C   0  0  2  0  0  3  0  0  0  0  0  0
  188.1780  176.5520  148.8060 C   0  0  0  0  0  2  0  0  0  0  0  0
  187.7270  177.7800  149.3050 O   0  0  0  0  0  0  0  0  0  0  0  0
  187.4200  178.5760  148.1820 C   0  0  0  0  0  2  0  0  0  0  0  0
  186.8740  177.3480  146.2290 O   0  0  0  0  0  0  0  0  0  0  0  0
  186.9180  177.9200  144.9520 C   0  0  0  0  0  2  0  0  0  0  0  0
  184.7710  178.6650  145.9360 C   0  0  0  0  0  1  0  0  0  0  0  0
  185.6910  178.7910  144.7390 C   0  0  2  0  0  3  0  0  0  0  0  0
  185.0120  178.3920  143.5870 O   0  0  0  0  0  1  0  0  0  0  0  0
  190.2110  176.5210  135.2710 C   0  0  0  0  0  0  0  0  0  0  0  0
  189.7840  177.7790  134.5950 C   0  0  0  0  0  1  0  0  0  0  0  0
  190.4910  175.5410  134.5980 O   0  0  0  0  0  0  0  0  0  0  0  0
  193.6690  175.1820  138.4410 C   0  0  2  0  0  3  0  0  0  0  0  0
  193.5530  176.3220  139.2400 O   0  0  0  0  0  0  0  0  0  0  0  0
  194.7280  176.4370  139.8270 O   0  0  0  0  0  1  0  0  0  0  0  0
  194.8320  175.3300  137.4670 C   0  0  0  0  0  2  0  0  0  0  0  0
  194.7420  174.3140  136.3360 C   0  0  0  0  0  2  0  0  0  0  0  0
  195.5690  174.7560  135.1380 C   0  0  0  0  0  2  0  0  0  0  0  0
  196.9200  175.2820  135.5850 C   0  0  0  0  0  1  0  0  0  0  0  0
  187.7930  176.5020  136.8640 N   0  0  0  0  0  2  0  0  0  0  0  0
  186.3650  174.5450  137.2420 C   0  0  0  0  0  2  0  0  0  0  0  0
  185.3240  175.2900  134.7770 C   0  0  0  0  0  2  0  0  0  0  0  0
  186.8470  175.4030  134.8850 C   0  0  0  0  0  2  0  0  0  0  0  0
  187.3850  175.2160  136.3150 C   0  0  1  0  0  3  0  0  0  0  0  0
  184.6470  175.9710  135.9630 C   0  0  2  0  0  3  0  0  0  0  0  0
  185.0310  175.3050  137.2950 C   0  0  0  0  0  2  0  0  0  0  0  0
  182.3710  177.0730  136.0180 C   0  0  0  0  0  0  0  0  0  0  0  0
  182.8660  178.1590  136.4240 O   0  0  0  0  0  0  0  0  0  0  0  0
  183.2040  175.9350  135.7870 N   0  0  0  0  0  2  0  0  0  0  0  0
  180.9060  176.9660  135.7730 C   0  0  0  0  0  2  0  0  0  0  0  0
  180.8700  175.8920  137.9880 C   0  0  0  0  0  2  0  0  0  0  0  0
  180.1350  176.8760  137.0890 C   0  0  1  0  0  3  0  0  0  0  0  0
  180.0790  178.1970  137.7450 N   0  0  0  0  0  0  0  0  0  0  0  0
  179.5910  176.8770  139.8280 C   0  0  0  0  0  0  0  0  0  0  0  0
  180.2010  175.7750  139.2320 O   0  0  0  0  0  0  0  0  0  0  0  0
  179.4160  178.1710  139.0680 C   0  0  1  0  0  3  0  0  0  0  0  0
  179.1160  176.7610  140.9900 O   0  0  0  0  0  0  0  0  0  0  0  0
  181.0050  179.2680  140.4780 O   0  0  0  0  0  1  0  0  0  0  0  0
  179.8890  179.3290  139.8980 C   0  0  0  0  0  0  0  0  0  0  0  0
  179.1020  180.4680  140.0290 O   0  0  0  0  0  0  0  0  0  0  0  0
  179.3320  179.1360  136.8950 C   0  0  0  0  0  2  0  0  0  0  0  0
  180.1350  180.2180  136.5090 O   0  0  0  0  0  1  0  0  0  0  0  0
  1  7  1  1  0  0  0
  2 35  1  0  0  0  0
  3 42  1  6  0  0  0
  3  6  1  0  0  0  0
  4 32  1  6  0  0  0
  4  5  1  0  0  0  0
  4  1  1  0  0  0  0
  4  3  1  0  0  0  0
  5  1  1  0  0  0  0
  5  2  2  0  0  0  0
  6  7  1  1  0  0  0
  6 13  1  0  0  0  0
  8 15  2  0  0  0  0
  9 18  1  0  0  0  0
 10 12  1  0  0  0  0
 10 16  2  0  0  0  0
 12 11  1  6  0  0  0
 12  8  1  0  0  0  0
 13 17  1  0  0  0  0
 13 11  1  1  0  0  0
 14  9  2  0  0  0  0
 15  9  1  0  0  0  0
 16 14  1  0  0  0  0
 17 10  1  0  0  0  0
 18 21  1  0  0  0  0
 21 20  2  0  0  0  0
 21 19  1  0  0  0  0
 22 19  1  1  0  0  0
 22 24  1  0  0  0  0
 23 27  1  6  0  0  0
 23 22  1  0  0  0  0
 23 26  1  0  0  0  0
 24 25  1  0  0  0  0
 26 25  1  0  0  0  0
 28 27  1  0  0  0  0
 30 28  1  0  0  0  0
 30 29  1  1  0  0  0
 31 30  1  0  0  0  0
 33 32  1  0  0  0  0
 34 32  2  0  0  0  0
 35 38  1  6  0  0  0
 35 36  1  0  0  0  0
 36 37  1  0  0  0  0
 39 38  1  0  0  0  0
 40 41  1  0  0  0  0
 40 39  1  0  0  0  0
 43 48  1  0  0  0  0
 44 45  1  0  0  0  0
 44 47  1  0  0  0  0
 45 46  1  0  0  0  0
 46 42  1  1  0  0  0
 46 43  1  0  0  0  0
 47 51  1  6  0  0  0
 47 48  1  0  0  0  0
 49 50  2  0  0  0  0
 51 49  1  0  0  0  0
 52 49  1  0  0  0  0
 53 57  1  0  0  0  0
 54 52  1  6  0  0  0
 54 55  1  0  0  0  0
 54 53  1  0  0  0  0
 55 58  1  0  0  0  0
 56 59  2  0  0  0  0
 57 56  1  0  0  0  0
 58 56  1  0  0  0  0
 58 61  1  1  0  0  0
 61 62  2  0  0  0  0
 61 60  1  0  0  0  0
 63 55  1  0  0  0  0
 64 63  1  0  0  0  0
M  END
>  <MODEL>
6

>  <REMARK>
 VINA RESULT:      -5.0      2.414     10.036
  Name = 
  20 active torsions:
  status: ('A' for Active; 'I' for Inactive)
    1  A    between atoms: C_1  and  C_38
    2  A    between atoms: N_5  and  C_6
    3  A    between atoms: C_7  and  C_47
    4  A    between atoms: C_13  and  C_51
    5  A    between atoms: C_14  and  C_38
    6  A    between atoms: C_14  and  C_47
    7  A    between atoms: C_15  and  N_50
    8  A    between atoms: C_16  and  O_55
    9  A    between atoms: C_17  and  C_51
   10  A    between atoms: C_18  and  C_30
   11  A    between atoms: N_19  and  C_28
   12  A    between atoms: C_21  and  O_35
   13  A    between atoms: C_25  and  N_50
   14  A    between atoms: N_27  and  C_33
   15  A    between atoms: C_29  and  C_36
   16  A    between atoms: O_32  and  C_47
   17  A    between atoms: O_35  and  C_43
   18  A    between atoms: C_41  and  N_57
   19  A    between atoms: O_55  and  C_56
   20  A    between atoms: C_56  and  C_63
                            x       y       z     vdW  Elec       q    Type
                         _______ _______ _______ _____ _____    ______ ____

>  <TORSDO>
F 20

$$$$
