=
 OpenBabel10222416203D

 46 51  0  0  1  0  0  0  0  0999 V2000
  184.2400  175.6100  137.5660 C   0  0  0  0  0  1  0  0  0  0  0  0
  188.7190  177.2460  144.2660 C   0  0  0  0  0  0  0  0  0  0  0  0
  187.1500  176.4370  138.6480 O   0  0  0  0  0  0  0  0  0  0  0  0
  189.9690  176.8570  138.5640 O   0  0  0  0  0  0  0  0  0  0  0  0
  182.4060  179.7980  139.5850 C   0  0  0  0  0  3  0  0  0  0  0  0
  190.0700  176.7440  144.0430 C   0  0  2  0  0  3  0  0  0  0  0  0
  186.2910  177.5410  136.7750 N   0  0  0  0  0  2  0  0  0  0  0  0
  185.5320  178.0880  141.4330 S   0  0  0  0  0  0  0  0  0  0  0  0
  182.6420  177.4780  137.9640 C   0  0  1  0  0  3  0  0  0  0  0  0
  191.2280  176.8850  139.2300 C   0  0  0  0  0  2  0  0  0  0  0  0
  187.2880  176.7560  137.4340 C   0  0  0  0  0  0  0  0  0  0  0  0
  191.4600  173.6950  135.2400 F   0  0  0  0  0  0  0  0  0  0  0  0
  183.2980  178.7560  142.3550 C   0  0  0  0  0  3  0  0  0  0  0  0
  185.0870  177.9910  137.4580 C   0  0  0  0  0  2  0  0  0  0  0  0
  186.2400  178.0930  145.2850 O   0  0  0  0  0  0  0  0  0  0  0  0
  190.4240  174.3530  135.8100 C   0  0  0  0  0  0  0  0  0  0  0  0
  184.0810  178.5200  143.4450 N   0  0  0  0  0  0  0  0  0  0  0  0
  183.9570  178.5860  141.1400 C   0  0  0  0  0  0  0  0  0  0  0  0
  191.1490  177.7140  140.5010 C   0  0  0  0  0  2  0  0  0  0  0  0
  190.6580  175.1900  137.0020 C   0  0  0  0  0  3  0  0  0  0  0  0
  185.3350  178.1430  143.1010 C   0  0  0  0  0  0  0  0  0  0  0  0
  183.3790  178.6800  139.7730 C   0  0  1  0  0  3  0  0  0  0  0  0
  190.4260  176.9390  141.5870 C   0  0  0  0  0  2  0  0  0  0  0  0
  190.4470  177.2310  145.2920 N   0  0  0  0  0  2  0  0  0  0  0  0
  182.8010  177.4600  139.3760 O   0  0  0  0  0  0  0  0  0  0  0  0
  181.9700  178.7540  137.3920 C   0  0  0  0  0  2  0  0  0  0  0  0
  181.7050  179.8100  138.4410 C   0  0  0  0  0  0  0  0  0  0  0  0
  188.0290  174.9420  135.9220 C   0  0  0  0  0  2  0  0  0  0  0  0
  189.7270  176.0610  137.4350 C   0  0  0  0  0  0  0  0  0  0  0  0
  188.4410  176.2380  136.6350 C   0  0  2  0  0  3  0  0  0  0  0  0
  186.4000  177.8450  144.0600 C   0  0  0  0  0  0  0  0  0  0  0  0
  183.9050  177.0460  137.2010 C   0  0  1  0  0  3  0  0  0  0  0  0
  189.2100  174.2850  135.2630 C   0  0  0  0  0  3  0  0  0  0  0  0
  189.1690  177.6970  145.5680 O   0  0  0  0  0  0  0  0  0  0  0  0
  187.6200  177.2820  143.5790 N   0  0  0  0  0  0  0  0  0  0  0  0
  190.7530  177.5400  142.9420 C   0  0  0  0  0  2  0  0  0  0  0  0
  179.2570  183.5550  136.9860 C   0  0  0  0  0  1  0  0  0  0  0  0
  181.3120  180.8550  135.0940 C   0  0  0  0  0  1  0  0  0  0  0  0
  180.1710  181.4380  135.9320 C   0  0  0  0  0  0  0  0  0  0  0  0
  181.6380  182.5400  137.8320 S   0  0  0  0  0  0  0  0  0  0  0  0
  180.7810  180.9450  138.0980 C   0  0  1  0  0  3  0  0  0  0  0  0
  179.9290  180.5890  137.0270 O   0  0  0  0  0  0  0  0  0  0  0  0
  180.5130  182.8510  136.4460 C   0  0  2  0  0  0  0  0  0  0  0  0
  178.9330  181.4510  135.0360 C   0  0  0  0  0  1  0  0  0  0  0  0
  181.1170  183.6040  135.4070 O   0  0  0  0  0  0  0  0  0  0  0  0
  180.9020  184.9790  135.6170 C   0  0  0  0  0  1  0  0  0  0  0  0
  2 34  1  0  0  0  0
  4 10  1  0  0  0  0
  6 36  1  6  0  0  0
  6  2  1  0  0  0  0
  6 24  1  0  0  0  0
  7 11  1  0  0  0  0
  7 14  1  0  0  0  0
  8 21  1  0  0  0  0
  9 26  1  6  0  0  0
  9 25  1  0  0  0  0
 10 19  1  0  0  0  0
 11  3  2  0  0  0  0
 12 16  1  0  0  0  0
 13 17  1  0  0  0  0
 16 20  1  0  0  0  0
 18  8  1  0  0  0  0
 18 13  2  0  0  0  0
 19 23  1  0  0  0  0
 20 29  2  0  0  0  0
 21 17  2  0  0  0  0
 21 31  1  0  0  0  0
 22  5  1  1  0  0  0
 22 18  1  0  0  0  0
 23 36  1  0  0  0  0
 24 34  1  0  0  0  0
 25 22  1  0  0  0  0
 26 27  1  0  0  0  0
 27  5  2  0  0  0  0
 29  4  1  0  0  0  0
 30 28  1  1  0  0  0
 30 11  1  0  0  0  0
 30 29  1  0  0  0  0
 31 15  2  0  0  0  0
 32 14  1  0  0  0  0
 32  1  1  1  0  0  0
 32  9  1  0  0  0  0
 33 16  2  0  0  0  0
 33 28  1  0  0  0  0
 35 31  1  0  0  0  0
 35  2  2  0  0  0  0
 38 39  1  0  0  0  0
 39 43  1  0  0  0  0
 39 42  1  0  0  0  0
 40 41  1  0  0  0  0
 41 27  1  6  0  0  0
 42 41  1  0  0  0  0
 43 37  1  1  0  0  0
 43 40  1  0  0  0  0
 44 39  1  0  0  0  0
 45 46  1  0  0  0  0
 45 43  1  0  0  0  0
M  END
>  <MODEL>
1

>  <REMARK>
 VINA RESULT:      -8.3      0.000      0.000
  Name = 
  2 active torsions:
  status: ('A' for Active; 'I' for Inactive)
    1  A    between atoms: O_17  and  C_27
    2  A    between atoms: C_19  and  C_35
                            x       y       z     vdW  Elec       q    Type
                         _______ _______ _______ _____ _____    ______ ____

>  <TORSDO>
F 2

$$$$
=
 OpenBabel10222416203D

 46 51  0  0  1  0  0  0  0  0999 V2000
  183.0710  179.8080  140.1140 C   0  0  0  0  0  1  0  0  0  0  0  0
  190.7960  177.2960  138.8360 C   0  0  0  0  0  0  0  0  0  0  0  0
  185.6070  178.3300  141.4200 O   0  0  0  0  0  0  0  0  0  0  0  0
  187.2450  177.2400  143.4840 O   0  0  0  0  0  0  0  0  0  0  0  0
  182.9050  176.2340  136.6250 C   0  0  0  0  0  3  0  0  0  0  0  0
  191.5370  177.4520  140.0830 C   0  0  2  0  0  3  0  0  0  0  0  0
  183.4790  177.4220  141.7570 N   0  0  0  0  0  2  0  0  0  0  0  0
  186.5120  177.1820  138.1090 S   0  0  0  0  0  0  0  0  0  0  0  0
  182.1230  178.3900  138.2990 C   0  0  1  0  0  3  0  0  0  0  0  0
  188.5390  176.9260  143.9890 C   0  0  0  0  0  2  0  0  0  0  0  0
  184.7150  177.9590  142.2350 C   0  0  0  0  0  0  0  0  0  0  0  0
  186.0520  179.8720  147.3470 F   0  0  0  0  0  0  0  0  0  0  0  0
  185.7360  177.0940  135.7270 C   0  0  0  0  0  3  0  0  0  0  0  0
  183.1910  177.2920  140.3370 C   0  0  0  0  0  2  0  0  0  0  0  0
  189.9160  177.0960  136.1740 O   0  0  0  0  0  0  0  0  0  0  0  0
  185.7530  179.4970  146.0820 C   0  0  0  0  0  0  0  0  0  0  0  0
  187.0950  177.1590  135.6600 N   0  0  0  0  0  0  0  0  0  0  0  0
  185.2360  177.0720  137.0270 C   0  0  0  0  0  0  0  0  0  0  0  0
  189.3530  176.1690  142.9530 C   0  0  0  0  0  2  0  0  0  0  0  0
  186.7010  178.6550  145.3270 C   0  0  0  0  0  3  0  0  0  0  0  0
  187.6650  177.2150  136.8860 C   0  0  0  0  0  0  0  0  0  0  0  0
  183.8110  177.0880  137.4510 C   0  0  1  0  0  3  0  0  0  0  0  0
  189.8440  177.1210  141.8770 C   0  0  0  0  0  2  0  0  0  0  0  0
  192.6660  176.9180  139.4670 N   0  0  0  0  0  2  0  0  0  0  0  0
  183.3110  178.4020  137.5200 O   0  0  0  0  0  0  0  0  0  0  0  0
  181.0900  177.3010  137.9110 C   0  0  0  0  0  2  0  0  0  0  0  0
  181.5870  176.3650  136.8320 C   0  0  0  0  0  0  0  0  0  0  0  0
  184.2630  179.5050  144.1130 C   0  0  0  0  0  2  0  0  0  0  0  0
  186.3350  178.0450  144.1850 C   0  0  0  0  0  0  0  0  0  0  0  0
  184.8910  178.1650  143.7050 C   0  0  2  0  0  3  0  0  0  0  0  0
  189.1080  177.2690  137.1250 C   0  0  0  0  0  0  0  0  0  0  0  0
  182.3850  178.4870  139.8110 C   0  0  1  0  0  3  0  0  0  0  0  0
  184.5840  179.8430  145.5430 C   0  0  0  0  0  3  0  0  0  0  0  0
  192.0170  176.7800  138.2490 O   0  0  0  0  0  0  0  0  0  0  0  0
  189.5770  177.5100  138.4510 N   0  0  0  0  0  0  0  0  0  0  0  0
  191.0080  176.4900  141.1340 C   0  0  0  0  0  2  0  0  0  0  0  0
  178.9310  173.1910  134.5950 C   0  0  0  0  0  1  0  0  0  0  0  0
  181.4990  172.8990  137.4950 C   0  0  0  0  0  1  0  0  0  0  0  0
  180.2040  173.3010  136.7840 C   0  0  0  0  0  0  0  0  0  0  0  0
  181.2870  174.5490  134.7240 S   0  0  0  0  0  0  0  0  0  0  0  0
  180.5900  175.4780  136.1390 C   0  0  1  0  0  3  0  0  0  0  0  0
  179.9250  174.6500  137.0720 O   0  0  0  0  0  0  0  0  0  0  0  0
  180.3160  173.1160  135.2580 C   0  0  2  0  0  0  0  0  0  0  0  0
  179.0940  172.4320  137.3760 C   0  0  0  0  0  1  0  0  0  0  0  0
  180.9560  171.8830  134.9720 O   0  0  0  0  0  0  0  0  0  0  0  0
  180.0020  170.9170  134.5970 C   0  0  0  0  0  1  0  0  0  0  0  0
  2  6  1  0  0  0  0
  3 11  2  0  0  0  0
  4 10  1  0  0  0  0
  4 29  1  0  0  0  0
  5 27  2  0  0  0  0
  6 36  1  1  0  0  0
  7 11  1  0  0  0  0
  9 26  1  1  0  0  0
  9 32  1  0  0  0  0
 11 30  1  0  0  0  0
 13 18  2  0  0  0  0
 14  7  1  0  0  0  0
 15 31  2  0  0  0  0
 16 12  1  0  0  0  0
 17 13  1  0  0  0  0
 17 21  2  0  0  0  0
 18 22  1  0  0  0  0
 18  8  1  0  0  0  0
 19 10  1  0  0  0  0
 20 16  1  0  0  0  0
 21 31  1  0  0  0  0
 21  8  1  0  0  0  0
 22  5  1  6  0  0  0
 22 25  1  0  0  0  0
 23 19  1  0  0  0  0
 24  6  1  0  0  0  0
 25  9  1  0  0  0  0
 27 26  1  0  0  0  0
 28 33  1  0  0  0  0
 29 20  2  0  0  0  0
 30 28  1  6  0  0  0
 30 29  1  0  0  0  0
 31 35  1  0  0  0  0
 32  1  1  6  0  0  0
 32 14  1  0  0  0  0
 33 16  2  0  0  0  0
 34  2  1  0  0  0  0
 34 24  1  0  0  0  0
 35  2  2  0  0  0  0
 36 23  1  0  0  0  0
 39 42  1  0  0  0  0
 39 44  1  0  0  0  0
 39 38  1  0  0  0  0
 40 43  1  0  0  0  0
 40 41  1  0  0  0  0
 41 27  1  1  0  0  0
 41 42  1  0  0  0  0
 43 37  1  6  0  0  0
 43 39  1  0  0  0  0
 45 43  1  0  0  0  0
 46 45  1  0  0  0  0
M  END
>  <MODEL>
2

>  <REMARK>
 VINA RESULT:      -7.1      3.959      7.463
  Name = 
  2 active torsions:
  status: ('A' for Active; 'I' for Inactive)
    1  A    between atoms: O_17  and  C_27
    2  A    between atoms: C_19  and  C_35
                            x       y       z     vdW  Elec       q    Type
                         _______ _______ _______ _____ _____    ______ ____

>  <TORSDO>
F 2

$$$$
=
 OpenBabel10222416203D

 46 51  0  0  1  0  0  0  0  0999 V2000
  187.8960  178.0720  135.1850 C   0  0  0  0  0  1  0  0  0  0  0  0
  186.2450  178.8640  143.2010 C   0  0  0  0  0  0  0  0  0  0  0  0
  185.6960  177.5960  137.4770 O   0  0  0  0  0  0  0  0  0  0  0  0
  183.1240  177.0700  138.5900 O   0  0  0  0  0  0  0  0  0  0  0  0
  190.9790  174.9990  137.6410 C   0  0  0  0  0  3  0  0  0  0  0  0
  184.8310  179.1980  143.3440 C   0  0  2  0  0  3  0  0  0  0  0  0
  186.0580  175.9100  135.8990 N   0  0  0  0  0  2  0  0  0  0  0  0
  188.4030  177.1540  139.8390 S   0  0  0  0  0  0  0  0  0  0  0  0
  189.8280  176.5440  135.5550 C   0  0  1  0  0  3  0  0  0  0  0  0
  182.1820  177.2440  139.6440 C   0  0  0  0  0  2  0  0  0  0  0  0
  185.2180  176.8460  136.5810 C   0  0  0  0  0  0  0  0  0  0  0  0
  180.1000  178.7200  135.2140 F   0  0  0  0  0  0  0  0  0  0  0  0
  190.8950  176.9580  140.0310 C   0  0  0  0  0  3  0  0  0  0  0  0
  187.4780  175.7900  136.1930 C   0  0  0  0  0  2  0  0  0  0  0  0
  189.0270  178.5480  143.4460 O   0  0  0  0  0  0  0  0  0  0  0  0
  181.3620  178.3590  135.5410 C   0  0  0  0  0  0  0  0  0  0  0  0
  190.4900  177.5510  141.1890 N   0  0  0  0  0  0  0  0  0  0  0  0
  189.8510  176.6420  139.1650 C   0  0  0  0  0  0  0  0  0  0  0  0
  182.8180  176.9470  140.9920 C   0  0  0  0  0  2  0  0  0  0  0  0
  181.6830  178.0140  136.9390 C   0  0  0  0  0  3  0  0  0  0  0  0
  189.1490  177.7280  141.2320 C   0  0  0  0  0  0  0  0  0  0  0  0
  189.9490  176.0700  137.7960 C   0  0  1  0  0  3  0  0  0  0  0  0
  183.7180  178.0960  141.4100 C   0  0  0  0  0  2  0  0  0  0  0  0
  184.9800  179.1940  144.7280 N   0  0  0  0  0  2  0  0  0  0  0  0
  190.1460  177.0770  136.8330 O   0  0  0  0  0  0  0  0  0  0  0  0
  190.4770  175.1730  135.2310 C   0  0  0  0  0  2  0  0  0  0  0  0
  191.2510  174.5910  136.3930 C   0  0  0  0  0  0  0  0  0  0  0  0
  183.7210  177.9430  134.9440 C   0  0  0  0  0  2  0  0  0  0  0  0
  182.8380  177.4010  137.2570 C   0  0  0  0  0  0  0  0  0  0  0  0
  183.7950  176.9880  136.1440 C   0  0  2  0  0  3  0  0  0  0  0  0
  188.4290  178.3190  142.3600 C   0  0  0  0  0  0  0  0  0  0  0  0
  188.3290  176.6160  135.2200 C   0  0  1  0  0  3  0  0  0  0  0  0
  182.2950  178.2650  134.5940 C   0  0  0  0  0  3  0  0  0  0  0  0
  186.3360  178.9110  144.6480 O   0  0  0  0  0  0  0  0  0  0  0  0
  187.0420  178.6190  142.2100 N   0  0  0  0  0  0  0  0  0  0  0  0
  183.9670  178.0270  142.9060 C   0  0  0  0  0  2  0  0  0  0  0  0
  194.5770  171.4260  135.3630 C   0  0  0  0  0  1  0  0  0  0  0  0
  194.6710  174.8310  137.2300 C   0  0  0  0  0  1  0  0  0  0  0  0
  194.3240  173.3610  136.9810 C   0  0  0  0  0  0  0  0  0  0  0  0
  193.1920  173.6470  134.6120 S   0  0  0  0  0  0  0  0  0  0  0  0
  192.1860  173.4440  136.1270 C   0  0  1  0  0  3  0  0  0  0  0  0
  192.9630  173.1580  137.2740 O   0  0  0  0  0  0  0  0  0  0  0  0
  194.5990  172.9550  135.5190 C   0  0  2  0  0  0  0  0  0  0  0  0
  195.1650  172.5420  137.9600 C   0  0  0  0  0  1  0  0  0  0  0  0
  195.8420  173.4950  135.1000 O   0  0  0  0  0  0  0  0  0  0  0  0
  196.6700  172.4730  134.5990 C   0  0  0  0  0  1  0  0  0  0  0  0
  2  6  1  0  0  0  0
  2 34  1  0  0  0  0
  4 10  1  0  0  0  0
  6 36  1  1  0  0  0
  6 24  1  0  0  0  0
  7 14  1  0  0  0  0
  7 11  1  0  0  0  0
  8 21  1  0  0  0  0
  9 26  1  1  0  0  0
  9 25  1  0  0  0  0
 10 19  1  0  0  0  0
 11  3  2  0  0  0  0
 12 16  1  0  0  0  0
 13 17  1  0  0  0  0
 16 20  1  0  0  0  0
 17 21  2  0  0  0  0
 18  8  1  0  0  0  0
 18 13  2  0  0  0  0
 19 23  1  0  0  0  0
 20 29  2  0  0  0  0
 21 31  1  0  0  0  0
 22  5  1  1  0  0  0
 22 18  1  0  0  0  0
 23 36  1  0  0  0  0
 25 22  1  0  0  0  0
 26 27  1  0  0  0  0
 27  5  2  0  0  0  0
 29  4  1  0  0  0  0
 30 28  1  6  0  0  0
 30 11  1  0  0  0  0
 30 29  1  0  0  0  0
 31 15  2  0  0  0  0
 32  1  1  1  0  0  0
 32  9  1  0  0  0  0
 32 14  1  0  0  0  0
 33 28  1  0  0  0  0
 33 16  2  0  0  0  0
 34 24  1  0  0  0  0
 35 31  1  0  0  0  0
 35  2  2  0  0  0  0
 39 38  1  0  0  0  0
 39 42  1  0  0  0  0
 39 44  1  0  0  0  0
 40 43  1  0  0  0  0
 40 41  1  0  0  0  0
 41 27  1  1  0  0  0
 41 42  1  0  0  0  0
 43 37  1  6  0  0  0
 43 39  1  0  0  0  0
 45 43  1  0  0  0  0
 46 45  1  0  0  0  0
M  END
>  <MODEL>
3

>  <REMARK>
 VINA RESULT:      -6.4      3.690      9.930
  Name = 
  2 active torsions:
  status: ('A' for Active; 'I' for Inactive)
    1  A    between atoms: O_17  and  C_27
    2  A    between atoms: C_19  and  C_35
                            x       y       z     vdW  Elec       q    Type
                         _______ _______ _______ _____ _____    ______ ____

>  <TORSDO>
F 2

$$$$
=
 OpenBabel10222416203D

 46 51  0  0  1  0  0  0  0  0999 V2000
  184.8590  180.1250  143.3140 C   0  0  0  0  0  1  0  0  0  0  0  0
  191.8410  177.6920  139.7160 C   0  0  0  0  0  0  0  0  0  0  0  0
  187.4650  178.2700  143.6140 O   0  0  0  0  0  0  0  0  0  0  0  0
  189.4020  176.6430  144.9290 O   0  0  0  0  0  0  0  0  0  0  0  0
  183.5930  177.5240  139.2380 C   0  0  0  0  0  3  0  0  0  0  0  0
  192.8480  177.5080  140.7560 C   0  0  2  0  0  3  0  0  0  0  0  0
  185.3840  177.3940  144.2240 N   0  0  0  0  0  2  0  0  0  0  0  0
  187.5110  177.9330  140.0100 S   0  0  0  0  0  0  0  0  0  0  0  0
  183.4060  179.2340  141.4980 C   0  0  1  0  0  3  0  0  0  0  0  0
  190.7390  176.1630  145.0290 C   0  0  0  0  0  2  0  0  0  0  0  0
  186.7410  177.7480  144.5070 C   0  0  0  0  0  0  0  0  0  0  0  0
  189.3380  178.2940  149.4610 F   0  0  0  0  0  0  0  0  0  0  0  0
  186.2280  178.4630  137.9220 C   0  0  0  0  0  3  0  0  0  0  0  0
  184.7820  177.6280  142.9200 C   0  0  0  0  0  2  0  0  0  0  0  0
  190.3860  178.1860  137.3620 O   0  0  0  0  0  0  0  0  0  0  0  0
  188.7360  178.2530  148.2500 C   0  0  0  0  0  0  0  0  0  0  0  0
  187.5400  178.4870  137.5550 N   0  0  0  0  0  0  0  0  0  0  0  0
  186.0250  178.1430  139.2620 C   0  0  0  0  0  0  0  0  0  0  0  0
  191.2310  175.6500  143.6860 C   0  0  0  0  0  2  0  0  0  0  0  0
  189.4110  177.5840  147.1220 C   0  0  0  0  0  3  0  0  0  0  0  0
  188.3670  178.2180  138.5910 C   0  0  0  0  0  0  0  0  0  0  0  0
  184.7350  178.1120  140.0020 C   0  0  1  0  0  3  0  0  0  0  0  0
  191.5640  176.8160  142.7720 C   0  0  0  0  0  2  0  0  0  0  0  0
  193.7590  177.0960  139.7860 N   0  0  0  0  0  2  0  0  0  0  0  0
  184.3900  179.3890  140.4850 O   0  0  0  0  0  0  0  0  0  0  0  0
  182.2130  178.3160  141.1240 C   0  0  0  0  0  2  0  0  0  0  0  0
  182.3710  177.6530  139.7740 C   0  0  0  0  0  0  0  0  0  0  0  0
  186.8600  178.8030  146.7420 C   0  0  0  0  0  2  0  0  0  0  0  0
  188.7480  177.2880  145.9890 C   0  0  0  0  0  0  0  0  0  0  0  0
  187.2530  177.5800  145.9020 C   0  0  2  0  0  3  0  0  0  0  0  0
  189.8250  178.1540  138.4900 C   0  0  0  0  0  0  0  0  0  0  0  0
  183.9990  178.9470  142.8870 C   0  0  1  0  0  3  0  0  0  0  0  0
  187.5160  178.7670  148.0950 C   0  0  0  0  0  3  0  0  0  0  0  0
  192.8490  177.2870  138.7560 O   0  0  0  0  0  0  0  0  0  0  0  0
  190.5940  178.0430  139.6880 N   0  0  0  0  0  0  0  0  0  0  0  0
  192.4720  176.3400  141.6530 C   0  0  0  0  0  2  0  0  0  0  0  0
  178.9310  175.6060  137.3020 C   0  0  0  0  0  1  0  0  0  0  0  0
  182.7390  174.9020  137.5950 C   0  0  0  0  0  1  0  0  0  0  0  0
  181.2770  174.9910  138.0380 C   0  0  0  0  0  0  0  0  0  0  0  0
  180.8590  177.5240  137.4230 S   0  0  0  0  0  0  0  0  0  0  0  0
  181.1670  177.0050  139.1500 C   0  0  1  0  0  3  0  0  0  0  0  0
  181.2200  175.6000  139.3050 O   0  0  0  0  0  0  0  0  0  0  0  0
  180.4330  175.8070  137.0390 C   0  0  2  0  0  0  0  0  0  0  0  0
  180.7700  173.5540  138.1600 C   0  0  0  0  0  1  0  0  0  0  0  0
  180.7740  175.4390  135.7130 O   0  0  0  0  0  0  0  0  0  0  0  0
  180.7760  176.5740  134.8800 C   0  0  0  0  0  1  0  0  0  0  0  0
  2  6  1  0  0  0  0
  3 11  2  0  0  0  0
  4 10  1  0  0  0  0
  4 29  1  0  0  0  0
  5 27  2  0  0  0  0
  6 36  1  1  0  0  0
  7 11  1  0  0  0  0
  9 26  1  6  0  0  0
  9 32  1  0  0  0  0
 11 30  1  0  0  0  0
 13 18  2  0  0  0  0
 14  7  1  0  0  0  0
 15 31  2  0  0  0  0
 16 12  1  0  0  0  0
 17 13  1  0  0  0  0
 17 21  2  0  0  0  0
 18 22  1  0  0  0  0
 18  8  1  0  0  0  0
 19 10  1  0  0  0  0
 20 16  1  0  0  0  0
 21  8  1  0  0  0  0
 22  5  1  6  0  0  0
 22 25  1  0  0  0  0
 23 19  1  0  0  0  0
 24  6  1  0  0  0  0
 25  9  1  0  0  0  0
 27 26  1  0  0  0  0
 28 33  1  0  0  0  0
 29 20  2  0  0  0  0
 30 29  1  0  0  0  0
 30 28  1  1  0  0  0
 31 21  1  0  0  0  0
 31 35  1  0  0  0  0
 32 14  1  0  0  0  0
 32  1  1  6  0  0  0
 33 16  2  0  0  0  0
 34  2  1  0  0  0  0
 34 24  1  0  0  0  0
 35  2  2  0  0  0  0
 36 23  1  0  0  0  0
 38 39  1  0  0  0  0
 39 44  1  0  0  0  0
 39 42  1  0  0  0  0
 40 41  1  0  0  0  0
 41 42  1  0  0  0  0
 41 27  1  6  0  0  0
 43 37  1  1  0  0  0
 43 40  1  0  0  0  0
 43 39  1  0  0  0  0
 45 43  1  0  0  0  0
 46 45  1  0  0  0  0
M  END
>  <MODEL>
4

>  <REMARK>
 VINA RESULT:      -5.8      4.179      7.091
  Name = 
  2 active torsions:
  status: ('A' for Active; 'I' for Inactive)
    1  A    between atoms: O_17  and  C_27
    2  A    between atoms: C_19  and  C_35
                            x       y       z     vdW  Elec       q    Type
                         _______ _______ _______ _____ _____    ______ ____

>  <TORSDO>
F 2

$$$$
=
 OpenBabel10222416203D

 46 51  0  0  1  0  0  0  0  0999 V2000
  187.0900  179.9350  137.5130 C   0  0  0  0  0  1  0  0  0  0  0  0
  186.5780  178.7150  145.6280 C   0  0  0  0  0  0  0  0  0  0  0  0
  185.1410  179.1160  139.9320 O   0  0  0  0  0  0  0  0  0  0  0  0
  182.6760  178.6110  141.2720 O   0  0  0  0  0  0  0  0  0  0  0  0
  189.9410  175.9760  138.5960 C   0  0  0  0  0  3  0  0  0  0  0  0
  185.2610  179.1590  146.0730 C   0  0  2  0  0  3  0  0  0  0  0  0
  185.0430  177.8900  137.9440 N   0  0  0  0  0  2  0  0  0  0  0  0
  188.0170  177.7400  141.6450 S   0  0  0  0  0  0  0  0  0  0  0  0
  188.7950  178.1510  137.1750 C   0  0  1  0  0  3  0  0  0  0  0  0
  181.9090  178.6020  142.4720 C   0  0  0  0  0  2  0  0  0  0  0  0
  184.4480  178.6970  138.9630 C   0  0  0  0  0  0  0  0  0  0  0  0
  179.5500  181.4530  138.9430 F   0  0  0  0  0  0  0  0  0  0  0  0
  190.4540  177.2110  141.3830 C   0  0  0  0  0  3  0  0  0  0  0  0
  186.4530  177.5310  137.9690 C   0  0  0  0  0  2  0  0  0  0  0  0
  189.2870  178.0240  145.3400 O   0  0  0  0  0  0  0  0  0  0  0  0
  180.7730  180.8730  138.9640 C   0  0  0  0  0  0  0  0  0  0  0  0
  190.2910  177.5110  142.7020 N   0  0  0  0  0  0  0  0  0  0  0  0
  189.2750  177.2650  140.6430 C   0  0  0  0  0  0  0  0  0  0  0  0
  182.6520  177.8790  143.5820 C   0  0  0  0  0  2  0  0  0  0  0  0
  181.2060  180.1270  140.1610 C   0  0  0  0  0  3  0  0  0  0  0  0
  189.0090  177.8240  143.0000 C   0  0  0  0  0  0  0  0  0  0  0  0
  189.1150  177.0770  139.1770 C   0  0  1  0  0  3  0  0  0  0  0  0
  183.7630  178.7590  144.1270 C   0  0  0  0  0  2  0  0  0  0  0  0
  185.5770  178.7640  147.3700 N   0  0  0  0  0  2  0  0  0  0  0  0
  189.3460  178.2770  138.4780 O   0  0  0  0  0  0  0  0  0  0  0  0
  189.1800  176.8530  136.4180 C   0  0  0  0  0  2  0  0  0  0  0  0
  189.9920  175.8930  137.2580 C   0  0  0  0  0  0  0  0  0  0  0  0
  182.9480  180.3620  137.9140 C   0  0  0  0  0  2  0  0  0  0  0  0
  182.2830  179.3210  140.1280 C   0  0  0  0  0  0  0  0  0  0  0  0
  183.0210  179.1160  138.8080 C   0  0  2  0  0  3  0  0  0  0  0  0
  188.5320  178.1680  144.3410 C   0  0  0  0  0  0  0  0  0  0  0  0
  187.2950  178.4850  137.1110 C   0  0  1  0  0  3  0  0  0  0  0  0
  181.5560  180.9310  137.8870 C   0  0  0  0  0  3  0  0  0  0  0  0
  186.8520  178.3570  147.0070 O   0  0  0  0  0  0  0  0  0  0  0  0
  187.2000  178.6560  144.4930 N   0  0  0  0  0  0  0  0  0  0  0  0
  184.1800  178.2600  145.4980 C   0  0  0  0  0  2  0  0  0  0  0  0
  192.6230  172.7650  134.9260 C   0  0  0  0  0  1  0  0  0  0  0  0
  193.5020  175.5830  137.4510 C   0  0  0  0  0  1  0  0  0  0  0  0
  192.9150  174.2600  136.9520 C   0  0  0  0  0  0  0  0  0  0  0  0
  191.4610  175.2280  134.9710 S   0  0  0  0  0  0  0  0  0  0  0  0
  190.7000  174.7600  136.5680 C   0  0  1  0  0  3  0  0  0  0  0  0
  191.6060  174.1260  137.4500 O   0  0  0  0  0  0  0  0  0  0  0  0
  192.8860  174.2000  135.4120 C   0  0  2  0  0  0  0  0  0  0  0  0
  193.7820  173.1480  137.5420 C   0  0  0  0  0  1  0  0  0  0  0  0
  194.1070  174.7020  134.8920 O   0  0  0  0  0  0  0  0  0  0  0  0
  194.9800  173.6390  134.5940 C   0  0  0  0  0  1  0  0  0  0  0  0
  2  6  1  0  0  0  0
  2 34  1  0  0  0  0
  4 10  1  0  0  0  0
  6 36  1  6  0  0  0
  6 24  1  0  0  0  0
  7 14  1  0  0  0  0
  7 11  1  0  0  0  0
  8 21  1  0  0  0  0
  9 26  1  1  0  0  0
  9 25  1  0  0  0  0
 10 19  1  0  0  0  0
 11  3  2  0  0  0  0
 12 16  1  0  0  0  0
 13 17  1  0  0  0  0
 16 20  1  0  0  0  0
 17 21  2  0  0  0  0
 18 13  2  0  0  0  0
 18  8  1  0  0  0  0
 19 23  1  0  0  0  0
 21 31  1  0  0  0  0
 22  5  1  6  0  0  0
 22 18  1  0  0  0  0
 23 36  1  0  0  0  0
 25 22  1  0  0  0  0
 26 27  1  0  0  0  0
 27  5  2  0  0  0  0
 29 20  2  0  0  0  0
 29  4  1  0  0  0  0
 30 28  1  1  0  0  0
 30 11  1  0  0  0  0
 30 29  1  0  0  0  0
 31 35  1  0  0  0  0
 31 15  2  0  0  0  0
 32  9  1  0  0  0  0
 32  1  1  1  0  0  0
 32 14  1  0  0  0  0
 33 28  1  0  0  0  0
 33 16  2  0  0  0  0
 34 24  1  0  0  0  0
 35  2  2  0  0  0  0
 39 42  1  0  0  0  0
 39 38  1  0  0  0  0
 39 44  1  0  0  0  0
 40 43  1  0  0  0  0
 40 41  1  0  0  0  0
 41 27  1  1  0  0  0
 41 42  1  0  0  0  0
 43 37  1  6  0  0  0
 43 39  1  0  0  0  0
 45 43  1  0  0  0  0
 46 45  1  0  0  0  0
M  END
>  <MODEL>
5

>  <REMARK>
 VINA RESULT:      -5.8      3.509      9.372
  Name = 
  2 active torsions:
  status: ('A' for Active; 'I' for Inactive)
    1  A    between atoms: O_17  and  C_27
    2  A    between atoms: C_19  and  C_35
                            x       y       z     vdW  Elec       q    Type
                         _______ _______ _______ _____ _____    ______ ____

>  <TORSDO>
F 2

$$$$
