=
 OpenBabel10222419273D

 42 46  0  0  1  0  0  0  0  0999 V2000
  185.0310  178.6510  145.4180 C   0  0  0  0  0  0  0  0  0  0  0  0
  180.6860  179.3030  143.2550 C   0  0  0  0  0  2  0  0  0  0  0  0
  186.2990  178.2610  144.9950 C   0  0  0  0  0  0  0  0  0  0  0  0
  184.6290  178.3220  143.1440 C   0  0  0  0  0  0  0  0  0  0  0  0
  182.7420  179.0310  144.5060 C   0  0  0  0  0  3  0  0  0  0  0  0
  182.4970  178.6490  142.1100 C   0  0  0  0  0  0  0  0  0  0  0  0
  181.9670  179.0030  143.3410 C   0  0  0  0  0  0  0  0  0  0  0  0
  186.2650  177.9670  143.3290 S   0  0  0  0  0  0  0  0  0  0  0  0
  184.7310  178.9790  146.7360 O   0  0  0  0  0  1  0  0  0  0  0  0
  180.2820  179.1380  141.8180 C   0  0  2  0  0  3  0  0  0  0  0  0
  184.0930  178.6810  144.3830 C   0  0  0  0  0  0  0  0  0  0  0  0
  183.8590  178.2920  141.9710 C   0  0  0  0  0  0  0  0  0  0  0  0
  181.5670  178.7090  141.1710 C   0  0  0  0  0  2  0  0  0  0  0  0
  179.8010  180.4350  141.2340 C   0  0  0  0  0  0  0  0  0  0  0  0
  179.4460  181.3790  141.9900 O   0  0  0  0  0  0  0  0  0  0  0  0
  180.7410  181.3600  139.2100 N   0  0  0  0  0  1  0  0  0  0  0  0
  179.7700  180.6250  139.8530 O   0  0  0  0  0  0  0  0  0  0  0  0
  184.4700  177.9200  140.7260 N   0  0  0  0  0  2  0  0  0  0  0  0
  185.0560  178.8510  139.7720 C   0  0  0  0  0  2  0  0  0  0  0  0
  184.6350  178.4820  138.3620 C   0  0  0  0  0  2  0  0  0  0  0  0
  185.7830  177.8120  137.6230 C   0  0  0  0  0  2  0  0  0  0  0  0
  187.1080  178.1800  138.2680 C   0  0  0  0  0  2  0  0  0  0  0  0
  188.1440  178.4930  137.2030 C   0  0  0  0  0  2  0  0  0  0  0  0
  189.4510  177.8070  137.5530 C   0  0  0  0  0  2  0  0  0  0  0  0
  190.2820  176.8480  139.6880 C   0  0  0  0  0  0  0  0  0  0  0  0
  190.7370  175.7290  138.9940 O   0  0  0  0  0  1  0  0  0  0  0  0
  189.6690  177.8350  139.0310 C   0  0  0  0  0  3  0  0  0  0  0  0
  190.4820  176.9300  141.1500 C   0  0  0  0  0  0  0  0  0  0  0  0
  190.6030  177.6930  143.8950 C   0  0  0  0  0  2  0  0  0  0  0  0
  189.7150  176.5220  143.4690 C   0  0  0  0  0  2  0  0  0  0  0  0
  191.8240  177.7760  143.0190 C   0  0  0  0  0  3  0  0  0  0  0  0
  191.7470  177.4540  141.7230 C   0  0  0  0  0  3  0  0  0  0  0  0
  189.5060  176.5310  141.9780 C   0  0  0  0  0  3  0  0  0  0  0  0
  187.5130  178.1670  145.8580 C   0  0  0  0  0  2  0  0  0  0  0  0
  187.1280  177.8770  147.2990 C   0  0  0  0  0  2  0  0  0  0  0  0
  188.3690  177.5500  148.1150 C   0  0  0  0  0  2  0  0  0  0  0  0
  189.3540  176.7350  147.2900 C   0  0  0  0  0  2  0  0  0  0  0  0
  190.7750  177.2730  147.4140 C   0  0  0  0  0  2  0  0  0  0  0  0
  191.4810  175.0450  147.7570 O   0  0  0  0  0  0  0  0  0  0  0  0
  192.5860  175.9640  148.1790 C   0  0  0  0  0  0  0  0  0  0  0  0
  193.5190  176.2830  148.9580 O   0  0  0  0  0  0  0  0  0  0  0  0
  191.7900  176.1930  147.0780 C   0  0  2  0  0  3  0  0  0  0  0  0
  1  9  1  0  0  0  0
  2  7  1  0  0  0  0
  3  1  2  0  0  0  0
  3 34  1  0  0  0  0
  4  8  1  0  0  0  0
  4 11  1  0  0  0  0
  6  7  2  0  0  0  0
  7  5  1  0  0  0  0
  8  3  1  0  0  0  0
 10 14  1  6  0  0  0
 10  2  1  0  0  0  0
 11  5  2  0  0  0  0
 11  1  1  0  0  0  0
 12  6  1  0  0  0  0
 12  4  2  0  0  0  0
 13 10  1  0  0  0  0
 13  6  1  0  0  0  0
 14 15  2  0  0  0  0
 16 17  1  0  0  0  0
 17 14  1  0  0  0  0
 18 12  1  0  0  0  0
 19 18  1  0  0  0  0
 20 19  1  0  0  0  0
 21 22  1  0  0  0  0
 21 20  1  0  0  0  0
 23 24  1  0  0  0  0
 23 22  1  0  0  0  0
 24 27  1  0  0  0  0
 25 28  1  0  0  0  0
 26 25  1  0  0  0  0
 27 25  2  0  0  0  0
 28 32  1  0  0  0  0
 28 33  2  0  0  0  0
 30 29  1  0  0  0  0
 31 29  1  0  0  0  0
 32 31  2  0  0  0  0
 33 30  1  0  0  0  0
 34 35  1  0  0  0  0
 35 36  1  0  0  0  0
 37 38  1  0  0  0  0
 37 36  1  0  0  0  0
 39 40  1  0  0  0  0
 40 41  2  0  0  0  0
 42 38  1  1  0  0  0
 42 39  1  0  0  0  0
 42 40  1  0  0  0  0
M  END
>  <MODEL>
1

>  <REMARK>
 VINA RESULT:      -8.5      0.000      0.000
  Name = 
  17 active torsions:
  status: ('A' for Active; 'I' for Inactive)
    1  A    between atoms: C_1  and  C_5
    2  A    between atoms: C_1  and  C_33
    3  A    between atoms: C_4  and  C_7
    4  A    between atoms: C_5  and  C_6
    5  A    between atoms: C_6  and  C_21
    6  A    between atoms: C_8  and  C_33
    7  A    between atoms: C_8  and  C_41
    8  A    between atoms: C_14  and  C_24
    9  A    between atoms: C_16  and  C_36
   10  A    between atoms: C_16  and  O_37
   11  A    between atoms: C_17  and  C_24
   12  A    between atoms: C_17  and  C_38
   13  A    between atoms: C_21  and  N_28
   14  A    between atoms: C_22  and  C_27
   15  A    between atoms: C_27  and  C_31
   16  A    between atoms: N_28  and  C_40
   17  A    between atoms: C_31  and  C_38
                            x       y       z     vdW  Elec       q    Type
                         _______ _______ _______ _____ _____    ______ ____

>  <TORSDO>
F 17

$$$$
=
 OpenBabel10222419273D

 42 46  0  0  1  0  0  0  0  0999 V2000
  185.6990  178.5980  145.8770 C   0  0  0  0  0  0  0  0  0  0  0  0
  190.3830  177.4920  146.7820 C   0  0  0  0  0  2  0  0  0  0  0  0
  184.8670  178.5450  144.7610 C   0  0  0  0  0  0  0  0  0  0  0  0
  187.1840  177.7550  144.2880 C   0  0  0  0  0  0  0  0  0  0  0  0
  188.0520  178.1020  146.5340 C   0  0  0  0  0  3  0  0  0  0  0  0
  189.4680  177.2210  144.7550 C   0  0  0  0  0  0  0  0  0  0  0  0
  189.2820  177.6250  146.0680 C   0  0  0  0  0  0  0  0  0  0  0  0
  185.7380  177.9390  143.4440 S   0  0  0  0  0  0  0  0  0  0  0  0
  185.2770  179.0390  147.1260 O   0  0  0  0  0  1  0  0  0  0  0  0
  191.4440  176.9430  145.8730 C   0  0  2  0  0  3  0  0  0  0  0  0
  186.9990  178.1600  145.6120 C   0  0  0  0  0  0  0  0  0  0  0  0
  188.4150  177.2750  143.8130 C   0  0  0  0  0  0  0  0  0  0  0  0
  190.7110  176.8060  144.5700 C   0  0  0  0  0  2  0  0  0  0  0  0
  191.9330  175.6050  146.3500 C   0  0  0  0  0  0  0  0  0  0  0  0
  192.2700  174.7200  145.5180 O   0  0  0  0  0  0  0  0  0  0  0  0
  193.0200  175.9320  148.4810 N   0  0  0  0  0  1  0  0  0  0  0  0
  192.0480  175.3330  147.7120 O   0  0  0  0  0  0  0  0  0  0  0  0
  188.5400  176.8680  142.4420 N   0  0  0  0  0  2  0  0  0  0  0  0
  188.9620  177.7330  141.3480 C   0  0  0  0  0  2  0  0  0  0  0  0
  190.3650  177.3590  140.9030 C   0  0  0  0  0  2  0  0  0  0  0  0
  190.4680  177.3970  139.3870 C   0  0  0  0  0  2  0  0  0  0  0  0
  189.0990  177.6390  138.7730 C   0  0  0  0  0  2  0  0  0  0  0  0
  189.1890  178.6900  137.6820 C   0  0  0  0  0  2  0  0  0  0  0  0
  188.6990  178.1020  136.3720 C   0  0  0  0  0  2  0  0  0  0  0  0
  186.7030  176.6380  136.5720 C   0  0  0  0  0  0  0  0  0  0  0  0
  185.8870  177.7350  136.3020 O   0  0  0  0  0  1  0  0  0  0  0  0
  188.0280  176.7890  136.6150 C   0  0  0  0  0  3  0  0  0  0  0  0
  186.0890  175.3150  136.8090 C   0  0  0  0  0  0  0  0  0  0  0  0
  185.0920  172.8740  137.8950 C   0  0  0  0  0  2  0  0  0  0  0  0
  184.1210  173.8940  137.2990 C   0  0  0  0  0  2  0  0  0  0  0  0
  186.4090  172.9110  137.1670 C   0  0  0  0  0  3  0  0  0  0  0  0
  186.8870  174.0680  136.6970 C   0  0  0  0  0  3  0  0  0  0  0  0
  184.7920  175.2330  137.1370 C   0  0  0  0  0  3  0  0  0  0  0  0
  183.4210  178.9130  144.7370 C   0  0  0  0  0  2  0  0  0  0  0  0
  182.7660  178.4420  143.4500 C   0  0  0  0  0  2  0  0  0  0  0  0
  181.5220  179.2680  143.1640 C   0  0  0  0  0  2  0  0  0  0  0  0
  181.0060  178.9910  141.7590 C   0  0  0  0  0  2  0  0  0  0  0  0
  182.1000  178.4350  140.8550 C   0  0  0  0  0  2  0  0  0  0  0  0
  182.6470  178.3280  138.5590 O   0  0  0  0  0  0  0  0  0  0  0  0
  183.3970  179.4700  139.1740 C   0  0  0  0  0  0  0  0  0  0  0  0
  184.4310  180.1740  139.2940 O   0  0  0  0  0  0  0  0  0  0  0  0
  182.1010  179.1460  139.5110 C   0  0  2  0  0  3  0  0  0  0  0  0
  1  9  1  0  0  0  0
  3  1  2  0  0  0  0
  4 11  1  0  0  0  0
  6  7  2  0  0  0  0
  7  5  1  0  0  0  0
  7  2  1  0  0  0  0
  8  4  1  0  0  0  0
  8  3  1  0  0  0  0
 10 14  1  1  0  0  0
 10  2  1  0  0  0  0
 11  1  1  0  0  0  0
 11  5  2  0  0  0  0
 12  4  2  0  0  0  0
 12  6  1  0  0  0  0
 13  6  1  0  0  0  0
 13 10  1  0  0  0  0
 14 17  1  0  0  0  0
 15 14  2  0  0  0  0
 17 16  1  0  0  0  0
 18 12  1  0  0  0  0
 19 18  1  0  0  0  0
 20 19  1  0  0  0  0
 21 20  1  0  0  0  0
 22 21  1  0  0  0  0
 23 22  1  0  0  0  0
 24 27  1  0  0  0  0
 24 23  1  0  0  0  0
 25 27  2  0  0  0  0
 25 28  1  0  0  0  0
 26 25  1  0  0  0  0
 28 33  2  0  0  0  0
 30 29  1  0  0  0  0
 31 29  1  0  0  0  0
 32 28  1  0  0  0  0
 32 31  2  0  0  0  0
 33 30  1  0  0  0  0
 34  3  1  0  0  0  0
 35 34  1  0  0  0  0
 36 35  1  0  0  0  0
 37 36  1  0  0  0  0
 38 37  1  0  0  0  0
 39 40  1  0  0  0  0
 39 42  1  0  0  0  0
 40 41  2  0  0  0  0
 40 42  1  0  0  0  0
 42 38  1  1  0  0  0
M  END
>  <MODEL>
2

>  <REMARK>
 VINA RESULT:      -8.4      2.977      8.613
  Name = 
  17 active torsions:
  status: ('A' for Active; 'I' for Inactive)
    1  A    between atoms: C_1  and  C_5
    2  A    between atoms: C_1  and  C_33
    3  A    between atoms: C_4  and  C_7
    4  A    between atoms: C_5  and  C_6
    5  A    between atoms: C_6  and  C_21
    6  A    between atoms: C_8  and  C_33
    7  A    between atoms: C_8  and  C_41
    8  A    between atoms: C_14  and  C_24
    9  A    between atoms: C_16  and  C_36
   10  A    between atoms: C_16  and  O_37
   11  A    between atoms: C_17  and  C_24
   12  A    between atoms: C_17  and  C_38
   13  A    between atoms: C_21  and  N_28
   14  A    between atoms: C_22  and  C_27
   15  A    between atoms: C_27  and  C_31
   16  A    between atoms: N_28  and  C_40
   17  A    between atoms: C_31  and  C_38
                            x       y       z     vdW  Elec       q    Type
                         _______ _______ _______ _____ _____    ______ ____

>  <TORSDO>
F 17

$$$$
=
 OpenBabel10222419273D

 42 46  0  0  1  0  0  0  0  0999 V2000
  185.7640  178.5580  146.0650 C   0  0  0  0  0  0  0  0  0  0  0  0
  190.4730  177.4600  146.8360 C   0  0  0  0  0  2  0  0  0  0  0  0
  184.8990  178.5000  144.9750 C   0  0  0  0  0  0  0  0  0  0  0  0
  187.2020  177.7080  144.4360 C   0  0  0  0  0  0  0  0  0  0  0  0
  188.1350  178.0670  146.6540 C   0  0  0  0  0  3  0  0  0  0  0  0
  189.4990  177.1780  144.8380 C   0  0  0  0  0  0  0  0  0  0  0  0
  189.3520  177.5890  146.1540 C   0  0  0  0  0  0  0  0  0  0  0  0
  185.7310  177.8880  143.6350 S   0  0  0  0  0  0  0  0  0  0  0  0
  185.3780  179.0050  147.3240 O   0  0  0  0  0  1  0  0  0  0  0  0
  191.5080  176.9070  145.8990 C   0  0  2  0  0  3  0  0  0  0  0  0
  187.0560  178.1200  145.7630 C   0  0  0  0  0  0  0  0  0  0  0  0
  188.4180  177.2270  143.9270 C   0  0  0  0  0  0  0  0  0  0  0  0
  190.7360  176.7630  144.6190 C   0  0  0  0  0  2  0  0  0  0  0  0
  192.0110  175.5720  146.3670 C   0  0  0  0  0  0  0  0  0  0  0  0
  192.3420  174.6890  145.5310 O   0  0  0  0  0  0  0  0  0  0  0  0
  193.0910  175.9440  148.4950 N   0  0  0  0  0  1  0  0  0  0  0  0
  192.1470  175.3000  147.7280 O   0  0  0  0  0  0  0  0  0  0  0  0
  188.5030  176.8140  142.5550 N   0  0  0  0  0  2  0  0  0  0  0  0
  188.9730  177.6490  141.4580 C   0  0  0  0  0  2  0  0  0  0  0  0
  190.4650  177.4540  141.2600 C   0  0  0  0  0  2  0  0  0  0  0  0
  190.7650  177.0830  139.8170 C   0  0  0  0  0  2  0  0  0  0  0  0
  189.6970  177.6490  138.8960 C   0  0  0  0  0  2  0  0  0  0  0  0
  190.0170  177.3170  137.4500 C   0  0  0  0  0  2  0  0  0  0  0  0
  188.7250  177.1260  136.6780 C   0  0  0  0  0  2  0  0  0  0  0  0
  186.3330  177.6090  137.1370 C   0  0  0  0  0  0  0  0  0  0  0  0
  186.1220  177.7980  135.7730 O   0  0  0  0  0  1  0  0  0  0  0  0
  187.5510  177.2980  137.5850 C   0  0  0  0  0  3  0  0  0  0  0  0
  185.2020  177.7580  138.0760 C   0  0  0  0  0  0  0  0  0  0  0  0
  183.3130  177.5340  140.2010 C   0  0  0  0  0  2  0  0  0  0  0  0
  184.1580  178.8020  140.0650 C   0  0  0  0  0  2  0  0  0  0  0  0
  183.0210  176.9460  138.8470 C   0  0  0  0  0  3  0  0  0  0  0  0
  183.9300  177.0210  137.8690 C   0  0  0  0  0  3  0  0  0  0  0  0
  185.3230  178.5650  139.1400 C   0  0  0  0  0  3  0  0  0  0  0  0
  183.4530  178.8660  144.9920 C   0  0  0  0  0  2  0  0  0  0  0  0
  182.9130  178.9960  143.5780 C   0  0  0  0  0  2  0  0  0  0  0  0
  181.4000  178.8410  143.5790 C   0  0  0  0  0  2  0  0  0  0  0  0
  180.8030  179.3890  142.2920 C   0  0  0  0  0  2  0  0  0  0  0  0
  180.0300  178.3200  141.5270 C   0  0  0  0  0  2  0  0  0  0  0  0
  179.5330  178.1400  139.2250 O   0  0  0  0  0  0  0  0  0  0  0  0
  180.2610  179.4290  139.4540 C   0  0  0  0  0  0  0  0  0  0  0  0
  181.1020  180.2980  139.1110 O   0  0  0  0  0  0  0  0  0  0  0  0
  179.3210  178.9250  140.3260 C   0  0  2  0  0  3  0  0  0  0  0  0
  1  9  1  0  0  0  0
  3 34  1  0  0  0  0
  3  1  2  0  0  0  0
  4 11  1  0  0  0  0
  6  7  2  0  0  0  0
  7  5  1  0  0  0  0
  7  2  1  0  0  0  0
  8  4  1  0  0  0  0
  8  3  1  0  0  0  0
 10 14  1  1  0  0  0
 10  2  1  0  0  0  0
 11  1  1  0  0  0  0
 11  5  2  0  0  0  0
 12  4  2  0  0  0  0
 12  6  1  0  0  0  0
 13  6  1  0  0  0  0
 13 10  1  0  0  0  0
 14 17  1  0  0  0  0
 15 14  2  0  0  0  0
 17 16  1  0  0  0  0
 18 12  1  0  0  0  0
 19 18  1  0  0  0  0
 20 19  1  0  0  0  0
 21 20  1  0  0  0  0
 22 21  1  0  0  0  0
 23 22  1  0  0  0  0
 24 23  1  0  0  0  0
 24 27  1  0  0  0  0
 25 27  2  0  0  0  0
 25 28  1  0  0  0  0
 26 25  1  0  0  0  0
 28 33  2  0  0  0  0
 30 29  1  0  0  0  0
 31 29  1  0  0  0  0
 32 28  1  0  0  0  0
 32 31  2  0  0  0  0
 33 30  1  0  0  0  0
 35 36  1  0  0  0  0
 35 34  1  0  0  0  0
 37 36  1  0  0  0  0
 38 37  1  0  0  0  0
 39 40  1  0  0  0  0
 39 42  1  0  0  0  0
 40 42  1  0  0  0  0
 41 40  2  0  0  0  0
 42 38  1  1  0  0  0
M  END
>  <MODEL>
3

>  <REMARK>
 VINA RESULT:      -8.3      2.485      8.954
  Name = 
  17 active torsions:
  status: ('A' for Active; 'I' for Inactive)
    1  A    between atoms: C_1  and  C_5
    2  A    between atoms: C_1  and  C_33
    3  A    between atoms: C_4  and  C_7
    4  A    between atoms: C_5  and  C_6
    5  A    between atoms: C_6  and  C_21
    6  A    between atoms: C_8  and  C_33
    7  A    between atoms: C_8  and  C_41
    8  A    between atoms: C_14  and  C_24
    9  A    between atoms: C_16  and  C_36
   10  A    between atoms: C_16  and  O_37
   11  A    between atoms: C_17  and  C_24
   12  A    between atoms: C_17  and  C_38
   13  A    between atoms: C_21  and  N_28
   14  A    between atoms: C_22  and  C_27
   15  A    between atoms: C_27  and  C_31
   16  A    between atoms: N_28  and  C_40
   17  A    between atoms: C_31  and  C_38
                            x       y       z     vdW  Elec       q    Type
                         _______ _______ _______ _____ _____    ______ ____

>  <TORSDO>
F 17

$$$$
=
 OpenBabel10222419273D

 42 46  0  0  1  0  0  0  0  0999 V2000
  185.4930  178.4300  145.9190 C   0  0  0  0  0  0  0  0  0  0  0  0
  190.2060  177.4810  146.8530 C   0  0  0  0  0  2  0  0  0  0  0  0
  184.6940  178.4480  144.7790 C   0  0  0  0  0  0  0  0  0  0  0  0
  187.0630  177.8310  144.3000 C   0  0  0  0  0  0  0  0  0  0  0  0
  187.8520  177.9910  146.5960 C   0  0  0  0  0  3  0  0  0  0  0  0
  189.3600  177.3710  144.7820 C   0  0  0  0  0  0  0  0  0  0  0  0
  189.1180  177.6290  146.1220 C   0  0  0  0  0  0  0  0  0  0  0  0
  185.6310  178.0260  143.4350 S   0  0  0  0  0  0  0  0  0  0  0  0
  185.0160  178.7180  147.1930 O   0  0  0  0  0  1  0  0  0  0  0  0
  191.3190  177.0820  145.9260 C   0  0  2  0  0  3  0  0  0  0  0  0
  186.8220  178.0890  145.6520 C   0  0  0  0  0  0  0  0  0  0  0  0
  188.3290  177.4670  143.8170 C   0  0  0  0  0  0  0  0  0  0  0  0
  190.6280  177.0420  144.5940 C   0  0  0  0  0  2  0  0  0  0  0  0
  191.8670  175.7300  146.2810 C   0  0  0  0  0  0  0  0  0  0  0  0
  192.2030  174.9240  145.3720 O   0  0  0  0  0  0  0  0  0  0  0  0
  193.0510  175.8920  148.3800 N   0  0  0  0  0  1  0  0  0  0  0  0
  192.0390  175.3590  147.6130 O   0  0  0  0  0  0  0  0  0  0  0  0
  188.5110  177.2100  142.4170 N   0  0  0  0  0  2  0  0  0  0  0  0
  189.0920  178.1460  141.4640 C   0  0  0  0  0  2  0  0  0  0  0  0
  190.1320  177.4410  140.6130 C   0  0  0  0  0  2  0  0  0  0  0  0
  189.6320  177.2830  139.1860 C   0  0  0  0  0  2  0  0  0  0  0  0
  189.0320  178.5880  138.6920 C   0  0  0  0  0  2  0  0  0  0  0  0
  189.0770  178.6500  137.1760 C   0  0  0  0  0  2  0  0  0  0  0  0
  187.6630  178.6920  136.6300 C   0  0  0  0  0  2  0  0  0  0  0  0
  186.9350  176.3710  136.1260 C   0  0  0  0  0  0  0  0  0  0  0  0
  187.6000  176.4420  134.9030 O   0  0  0  0  0  1  0  0  0  0  0  0
  186.9470  177.4210  136.9510 C   0  0  0  0  0  3  0  0  0  0  0  0
  186.2200  175.1330  136.4960 C   0  0  0  0  0  0  0  0  0  0  0  0
  184.8930  172.9880  137.8280 C   0  0  0  0  0  2  0  0  0  0  0  0
  184.1240  173.8560  136.8290 C   0  0  0  0  0  2  0  0  0  0  0  0
  186.3350  172.8640  137.4180 C   0  0  0  0  0  3  0  0  0  0  0  0
  186.9600  173.8900  136.8310 C   0  0  0  0  0  3  0  0  0  0  0  0
  184.8800  175.1260  136.5400 C   0  0  0  0  0  3  0  0  0  0  0  0
  183.2310  178.7420  144.7470 C   0  0  0  0  0  2  0  0  0  0  0  0
  182.7750  179.0600  143.3330 C   0  0  0  0  0  2  0  0  0  0  0  0
  181.2570  179.1120  143.2730 C   0  0  0  0  0  2  0  0  0  0  0  0
  180.7510  178.5130  141.9690 C   0  0  0  0  0  2  0  0  0  0  0  0
  181.7840  178.6310  140.8540 C   0  0  0  0  0  2  0  0  0  0  0  0
  180.3200  177.0330  139.9160 O   0  0  0  0  0  0  0  0  0  0  0  0
  181.7290  176.6260  139.6070 C   0  0  0  0  0  0  0  0  0  0  0  0
  182.6210  175.7510  139.4760 O   0  0  0  0  0  0  0  0  0  0  0  0
  181.2980  177.9350  139.5940 C   0  0  2  0  0  3  0  0  0  0  0  0
  1  9  1  0  0  0  0
  3  1  2  0  0  0  0
  4 11  1  0  0  0  0
  6  7  2  0  0  0  0
  7  5  1  0  0  0  0
  7  2  1  0  0  0  0
  8  4  1  0  0  0  0
  8  3  1  0  0  0  0
 10 14  1  1  0  0  0
 10  2  1  0  0  0  0
 11  1  1  0  0  0  0
 11  5  2  0  0  0  0
 12  4  2  0  0  0  0
 12  6  1  0  0  0  0
 13  6  1  0  0  0  0
 13 10  1  0  0  0  0
 14 17  1  0  0  0  0
 15 14  2  0  0  0  0
 17 16  1  0  0  0  0
 18 12  1  0  0  0  0
 19 18  1  0  0  0  0
 20 19  1  0  0  0  0
 21 20  1  0  0  0  0
 22 21  1  0  0  0  0
 23 22  1  0  0  0  0
 24 27  1  0  0  0  0
 24 23  1  0  0  0  0
 25 28  1  0  0  0  0
 25 27  2  0  0  0  0
 26 25  1  0  0  0  0
 28 33  2  0  0  0  0
 28 32  1  0  0  0  0
 30 29  1  0  0  0  0
 31 29  1  0  0  0  0
 32 31  2  0  0  0  0
 33 30  1  0  0  0  0
 34  3  1  0  0  0  0
 35 34  1  0  0  0  0
 36 35  1  0  0  0  0
 37 36  1  0  0  0  0
 38 37  1  0  0  0  0
 40 39  1  0  0  0  0
 41 40  2  0  0  0  0
 42 40  1  0  0  0  0
 42 39  1  0  0  0  0
 42 38  1  1  0  0  0
M  END
>  <MODEL>
4

>  <REMARK>
 VINA RESULT:      -8.2      3.013      8.670
  Name = 
  17 active torsions:
  status: ('A' for Active; 'I' for Inactive)
    1  A    between atoms: C_1  and  C_5
    2  A    between atoms: C_1  and  C_33
    3  A    between atoms: C_4  and  C_7
    4  A    between atoms: C_5  and  C_6
    5  A    between atoms: C_6  and  C_21
    6  A    between atoms: C_8  and  C_33
    7  A    between atoms: C_8  and  C_41
    8  A    between atoms: C_14  and  C_24
    9  A    between atoms: C_16  and  C_36
   10  A    between atoms: C_16  and  O_37
   11  A    between atoms: C_17  and  C_24
   12  A    between atoms: C_17  and  C_38
   13  A    between atoms: C_21  and  N_28
   14  A    between atoms: C_22  and  C_27
   15  A    between atoms: C_27  and  C_31
   16  A    between atoms: N_28  and  C_40
   17  A    between atoms: C_31  and  C_38
                            x       y       z     vdW  Elec       q    Type
                         _______ _______ _______ _____ _____    ______ ____

>  <TORSDO>
F 17

$$$$
=
 OpenBabel10222419273D

 42 46  0  0  1  0  0  0  0  0999 V2000
  185.4070  178.3930  145.9220 C   0  0  0  0  0  0  0  0  0  0  0  0
  190.1740  177.4950  146.5930 C   0  0  0  0  0  2  0  0  0  0  0  0
  184.5500  178.4250  144.8240 C   0  0  0  0  0  0  0  0  0  0  0  0
  186.9000  177.8540  144.2120 C   0  0  0  0  0  0  0  0  0  0  0  0
  187.8030  177.9750  146.4680 C   0  0  0  0  0  3  0  0  0  0  0  0
  189.2250  177.4180  144.5660 C   0  0  0  0  0  0  0  0  0  0  0  0
  189.0480  177.6420  145.9220 C   0  0  0  0  0  0  0  0  0  0  0  0
  185.4230  178.0470  143.4250 S   0  0  0  0  0  0  0  0  0  0  0  0
  184.9910  178.6460  147.2250 O   0  0  0  0  0  1  0  0  0  0  0  0
  191.2430  177.1340  145.6030 C   0  0  2  0  0  3  0  0  0  0  0  0
  186.7250  178.0780  145.5800 C   0  0  0  0  0  0  0  0  0  0  0  0
  188.1450  177.5200  143.6580 C   0  0  0  0  0  0  0  0  0  0  0  0
  190.4860  177.1120  144.3070 C   0  0  0  0  0  2  0  0  0  0  0  0
  191.8280  175.7820  145.8980 C   0  0  0  0  0  0  0  0  0  0  0  0
  192.1930  175.0300  144.9550 O   0  0  0  0  0  0  0  0  0  0  0  0
  193.1610  175.6260  147.9060 N   0  0  0  0  0  1  0  0  0  0  0  0
  192.0020  175.3540  147.2130 O   0  0  0  0  0  0  0  0  0  0  0  0
  188.2590  177.2960  142.2440 N   0  0  0  0  0  2  0  0  0  0  0  0
  188.1250  178.3250  141.2220 C   0  0  0  0  0  2  0  0  0  0  0  0
  189.0510  178.0230  140.0580 C   0  0  0  0  0  2  0  0  0  0  0  0
  190.3650  177.4470  140.5610 C   0  0  0  0  0  2  0  0  0  0  0  0
  191.1000  176.7490  139.4290 C   0  0  0  0  0  2  0  0  0  0  0  0
  190.2320  176.7030  138.1850 C   0  0  0  0  0  2  0  0  0  0  0  0
  190.7530  175.6320  137.2450 C   0  0  0  0  0  2  0  0  0  0  0  0
  192.7310  174.1360  137.1260 C   0  0  0  0  0  0  0  0  0  0  0  0
  192.1120  173.4190  136.1040 O   0  0  0  0  0  1  0  0  0  0  0  0
  192.1070  175.1770  137.6810 C   0  0  0  0  0  3  0  0  0  0  0  0
  194.0760  173.7330  137.5870 C   0  0  0  0  0  0  0  0  0  0  0  0
  196.8700  173.2720  137.9250 C   0  0  0  0  0  2  0  0  0  0  0  0
  196.1110  174.1270  138.9430 C   0  0  0  0  0  2  0  0  0  0  0  0
  195.9760  172.1990  137.3660 C   0  0  0  0  0  3  0  0  0  0  0  0
  194.6740  172.4390  137.1730 C   0  0  0  0  0  3  0  0  0  0  0  0
  194.7760  174.5490  138.3880 C   0  0  0  0  0  3  0  0  0  0  0  0
  183.0840  178.6960  144.8740 C   0  0  0  0  0  2  0  0  0  0  0  0
  182.5980  179.2740  143.5550 C   0  0  0  0  0  2  0  0  0  0  0  0
  181.2150  178.7350  143.2270 C   0  0  0  0  0  2  0  0  0  0  0  0
  181.0930  178.4420  141.7390 C   0  0  0  0  0  2  0  0  0  0  0  0
  182.0090  179.3340  140.9100 C   0  0  0  0  0  2  0  0  0  0  0  0
  183.5860  177.6500  140.4050 O   0  0  0  0  0  0  0  0  0  0  0  0
  184.0270  178.9250  139.7530 C   0  0  0  0  0  0  0  0  0  0  0  0
  184.9240  179.7380  139.4130 O   0  0  0  0  0  0  0  0  0  0  0  0
  182.7100  178.5290  139.8280 C   0  0  2  0  0  3  0  0  0  0  0  0
  1  9  1  0  0  0  0
  3 34  1  0  0  0  0
  3  1  2  0  0  0  0
  4 11  1  0  0  0  0
  6  7  2  0  0  0  0
  7  5  1  0  0  0  0
  7  2  1  0  0  0  0
  8  4  1  0  0  0  0
  8  3  1  0  0  0  0
 10 14  1  1  0  0  0
 10  2  1  0  0  0  0
 11  1  1  0  0  0  0
 11  5  2  0  0  0  0
 12  4  2  0  0  0  0
 12  6  1  0  0  0  0
 13  6  1  0  0  0  0
 13 10  1  0  0  0  0
 14 17  1  0  0  0  0
 15 14  2  0  0  0  0
 17 16  1  0  0  0  0
 18 12  1  0  0  0  0
 19 18  1  0  0  0  0
 20 21  1  0  0  0  0
 20 19  1  0  0  0  0
 22 21  1  0  0  0  0
 23 22  1  0  0  0  0
 24 27  1  0  0  0  0
 24 23  1  0  0  0  0
 25 28  1  0  0  0  0
 25 27  2  0  0  0  0
 26 25  1  0  0  0  0
 28 33  2  0  0  0  0
 29 30  1  0  0  0  0
 31 29  1  0  0  0  0
 32 31  2  0  0  0  0
 32 28  1  0  0  0  0
 33 30  1  0  0  0  0
 35 34  1  0  0  0  0
 36 35  1  0  0  0  0
 37 36  1  0  0  0  0
 38 37  1  0  0  0  0
 40 42  1  0  0  0  0
 40 39  1  0  0  0  0
 41 40  2  0  0  0  0
 42 39  1  0  0  0  0
 42 38  1  1  0  0  0
M  END
>  <MODEL>
5

>  <REMARK>
 VINA RESULT:      -8.1      3.635      8.321
  Name = 
  17 active torsions:
  status: ('A' for Active; 'I' for Inactive)
    1  A    between atoms: C_1  and  C_5
    2  A    between atoms: C_1  and  C_33
    3  A    between atoms: C_4  and  C_7
    4  A    between atoms: C_5  and  C_6
    5  A    between atoms: C_6  and  C_21
    6  A    between atoms: C_8  and  C_33
    7  A    between atoms: C_8  and  C_41
    8  A    between atoms: C_14  and  C_24
    9  A    between atoms: C_16  and  C_36
   10  A    between atoms: C_16  and  O_37
   11  A    between atoms: C_17  and  C_24
   12  A    between atoms: C_17  and  C_38
   13  A    between atoms: C_21  and  N_28
   14  A    between atoms: C_22  and  C_27
   15  A    between atoms: C_27  and  C_31
   16  A    between atoms: N_28  and  C_40
   17  A    between atoms: C_31  and  C_38
                            x       y       z     vdW  Elec       q    Type
                         _______ _______ _______ _____ _____    ______ ____

>  <TORSDO>
F 17

$$$$
=
 OpenBabel10222419273D

 42 46  0  0  1  0  0  0  0  0999 V2000
  186.4770  177.9080  138.4430 C   0  0  0  0  0  0  0  0  0  0  0  0
  190.3010  175.6580  136.3710 C   0  0  0  0  0  2  0  0  0  0  0  0
  186.2170  178.4730  139.6900 C   0  0  0  0  0  0  0  0  0  0  0  0
  188.5160  177.5210  139.5110 C   0  0  0  0  0  0  0  0  0  0  0  0
  188.3050  176.7380  137.2170 C   0  0  0  0  0  3  0  0  0  0  0  0
  190.3700  176.4210  138.4760 C   0  0  0  0  0  0  0  0  0  0  0  0
  189.6200  176.2700  137.3190 C   0  0  0  0  0  0  0  0  0  0  0  0
  187.5890  178.3200  140.6680 S   0  0  0  0  0  0  0  0  0  0  0  0
  185.5520  177.8850  137.4060 O   0  0  0  0  0  1  0  0  0  0  0  0
  191.6620  175.3470  136.9240 C   0  0  2  0  0  3  0  0  0  0  0  0
  187.7630  177.3700  138.3440 C   0  0  0  0  0  0  0  0  0  0  0  0
  189.8350  177.0550  139.6210 C   0  0  0  0  0  0  0  0  0  0  0  0
  191.5780  175.9050  138.3150 C   0  0  0  0  0  2  0  0  0  0  0  0
  192.7410  176.0370  136.1400 C   0  0  0  0  0  0  0  0  0  0  0  0
  192.5960  176.2430  134.9050 O   0  0  0  0  0  0  0  0  0  0  0  0
  195.0850  176.6180  136.0780 N   0  0  0  0  0  1  0  0  0  0  0  0
  193.9020  176.4860  136.7690 O   0  0  0  0  0  0  0  0  0  0  0  0
  190.5580  177.2460  140.8460 N   0  0  0  0  0  2  0  0  0  0  0  0
  190.5000  176.3570  141.9990 C   0  0  0  0  0  2  0  0  0  0  0  0
  190.5190  177.1690  143.2810 C   0  0  0  0  0  2  0  0  0  0  0  0
  191.3110  176.4430  144.3570 C   0  0  0  0  0  2  0  0  0  0  0  0
  191.4950  177.3390  145.5700 C   0  0  0  0  0  2  0  0  0  0  0  0
  191.3460  176.5350  146.8480 C   0  0  0  0  0  2  0  0  0  0  0  0
  190.1480  177.0420  147.6270 C   0  0  0  0  0  2  0  0  0  0  0  0
  187.8300  177.7780  147.1200 C   0  0  0  0  0  0  0  0  0  0  0  0
  187.6710  178.1520  148.4530 O   0  0  0  0  0  1  0  0  0  0  0  0
  188.9860  177.2480  146.7110 C   0  0  0  0  0  3  0  0  0  0  0  0
  186.7150  177.9700  146.1700 C   0  0  0  0  0  0  0  0  0  0  0  0
  184.7910  178.9670  144.3160 C   0  0  0  0  0  2  0  0  0  0  0  0
  185.7790  177.8830  143.8790 C   0  0  0  0  0  2  0  0  0  0  0  0
  184.4460  178.8100  145.7720 C   0  0  0  0  0  3  0  0  0  0  0  0
  185.3680  178.3810  146.6410 C   0  0  0  0  0  3  0  0  0  0  0  0
  186.9180  177.7790  144.8590 C   0  0  0  0  0  3  0  0  0  0  0  0
  184.9510  179.1530  140.0880 C   0  0  0  0  0  2  0  0  0  0  0  0
  183.9950  178.1710  140.7460 C   0  0  0  0  0  2  0  0  0  0  0  0
  182.6380  178.8240  140.9560 C   0  0  0  0  0  2  0  0  0  0  0  0
  181.5190  177.8770  140.5500 C   0  0  0  0  0  2  0  0  0  0  0  0
  181.4150  177.7410  139.0360 C   0  0  0  0  0  2  0  0  0  0  0  0
  181.3390  175.4830  139.7260 O   0  0  0  0  0  0  0  0  0  0  0  0
  182.3470  175.6100  138.6250 C   0  0  0  0  0  0  0  0  0  0  0  0
  183.4510  175.3170  138.1000 O   0  0  0  0  0  0  0  0  0  0  0  0
  181.1520  176.2970  138.6410 C   0  0  2  0  0  3  0  0  0  0  0  0
  1  3  2  0  0  0  0
  2 10  1  0  0  0  0
  2  7  1  0  0  0  0
  3 34  1  0  0  0  0
  3  8  1  0  0  0  0
  4 12  1  0  0  0  0
  4  8  1  0  0  0  0
  5  7  2  0  0  0  0
  5 11  1  0  0  0  0
  6 12  2  0  0  0  0
  7  6  1  0  0  0  0
  9  1  1  0  0  0  0
 10 14  1  6  0  0  0
 10 13  1  0  0  0  0
 11  1  1  0  0  0  0
 11  4  2  0  0  0  0
 12 18  1  0  0  0  0
 13  6  1  0  0  0  0
 14 17  1  0  0  0  0
 15 14  2  0  0  0  0
 16 17  1  0  0  0  0
 18 19  1  0  0  0  0
 19 20  1  0  0  0  0
 20 21  1  0  0  0  0
 21 22  1  0  0  0  0
 22 23  1  0  0  0  0
 23 24  1  0  0  0  0
 25 26  1  0  0  0  0
 27 25  2  0  0  0  0
 27 24  1  0  0  0  0
 28 32  1  0  0  0  0
 28 25  1  0  0  0  0
 29 31  1  0  0  0  0
 30 29  1  0  0  0  0
 30 33  1  0  0  0  0
 31 32  2  0  0  0  0
 33 28  2  0  0  0  0
 34 35  1  0  0  0  0
 35 36  1  0  0  0  0
 37 36  1  0  0  0  0
 38 37  1  0  0  0  0
 40 42  1  0  0  0  0
 40 39  1  0  0  0  0
 41 40  2  0  0  0  0
 42 38  1  1  0  0  0
 42 39  1  0  0  0  0
M  END
>  <MODEL>
6

>  <REMARK>
 VINA RESULT:      -8.0      3.236      9.899
  Name = 
  17 active torsions:
  status: ('A' for Active; 'I' for Inactive)
    1  A    between atoms: C_1  and  C_5
    2  A    between atoms: C_1  and  C_33
    3  A    between atoms: C_4  and  C_7
    4  A    between atoms: C_5  and  C_6
    5  A    between atoms: C_6  and  C_21
    6  A    between atoms: C_8  and  C_33
    7  A    between atoms: C_8  and  C_41
    8  A    between atoms: C_14  and  C_24
    9  A    between atoms: C_16  and  C_36
   10  A    between atoms: C_16  and  O_37
   11  A    between atoms: C_17  and  C_24
   12  A    between atoms: C_17  and  C_38
   13  A    between atoms: C_21  and  N_28
   14  A    between atoms: C_22  and  C_27
   15  A    between atoms: C_27  and  C_31
   16  A    between atoms: N_28  and  C_40
   17  A    between atoms: C_31  and  C_38
                            x       y       z     vdW  Elec       q    Type
                         _______ _______ _______ _____ _____    ______ ____

>  <TORSDO>
F 17

$$$$
=
 OpenBabel10222419273D

 42 46  0  0  1  0  0  0  0  0999 V2000
  186.5280  175.0200  136.6730 C   0  0  0  0  0  0  0  0  0  0  0  0
  191.3670  174.3070  136.9150 C   0  0  0  0  0  2  0  0  0  0  0  0
  185.6510  176.0150  137.0970 C   0  0  0  0  0  0  0  0  0  0  0  0
  188.0310  176.5030  137.6660 C   0  0  0  0  0  0  0  0  0  0  0  0
  188.9600  174.4730  136.7000 C   0  0  0  0  0  3  0  0  0  0  0  0
  190.3910  176.1330  137.7690 C   0  0  0  0  0  0  0  0  0  0  0  0
  190.2200  174.9290  137.1060 C   0  0  0  0  0  0  0  0  0  0  0  0
  186.5300  177.2430  137.8610 S   0  0  0  0  0  0  0  0  0  0  0  0
  186.1180  173.8760  135.9960 O   0  0  0  0  0  1  0  0  0  0  0  0
  192.4470  175.1650  137.5080 C   0  0  2  0  0  3  0  0  0  0  0  0
  187.8610  175.2900  136.9950 C   0  0  0  0  0  0  0  0  0  0  0  0
  189.2900  176.9670  138.0760 C   0  0  0  0  0  0  0  0  0  0  0  0
  191.6720  176.3380  138.0340 C   0  0  0  0  0  2  0  0  0  0  0  0
  193.4320  175.6060  136.4630 C   0  0  0  0  0  0  0  0  0  0  0  0
  193.5300  174.9740  135.3780 O   0  0  0  0  0  0  0  0  0  0  0  0
  195.1430  177.1410  135.7220 N   0  0  0  0  0  1  0  0  0  0  0  0
  194.2260  176.7340  136.6650 O   0  0  0  0  0  0  0  0  0  0  0  0
  189.4000  178.2260  138.7560 N   0  0  0  0  0  2  0  0  0  0  0  0
  189.2420  178.4180  140.1910 C   0  0  0  0  0  2  0  0  0  0  0  0
  189.7620  177.2020  140.9360 C   0  0  0  0  0  2  0  0  0  0  0  0
  191.1260  177.4930  141.5410 C   0  0  0  0  0  2  0  0  0  0  0  0
  191.2570  176.8160  142.8940 C   0  0  0  0  0  2  0  0  0  0  0  0
  190.9570  177.8010  144.0090 C   0  0  0  0  0  2  0  0  0  0  0  0
  190.0930  177.1280  145.0580 C   0  0  0  0  0  2  0  0  0  0  0  0
  187.7300  177.1560  144.2940 C   0  0  0  0  0  0  0  0  0  0  0  0
  187.9820  176.0330  143.5100 O   0  0  0  0  0  1  0  0  0  0  0  0
  188.7100  177.6910  145.0260 C   0  0  0  0  0  3  0  0  0  0  0  0
  186.3750  177.7460  144.3060 C   0  0  0  0  0  0  0  0  0  0  0  0
  184.0950  179.4600  144.3030 C   0  0  0  0  0  2  0  0  0  0  0  0
  184.3280  178.5010  143.1340 C   0  0  0  0  0  2  0  0  0  0  0  0
  184.6060  178.8630  145.5860 C   0  0  0  0  0  3  0  0  0  0  0  0
  185.7000  178.0930  145.5820 C   0  0  0  0  0  3  0  0  0  0  0  0
  185.7420  177.9810  143.1480 C   0  0  0  0  0  3  0  0  0  0  0  0
  184.1770  176.0290  136.8710 C   0  0  0  0  0  2  0  0  0  0  0  0
  183.4720  175.1140  137.8590 C   0  0  0  0  0  2  0  0  0  0  0  0
  182.4260  175.8950  138.6390 C   0  0  0  0  0  2  0  0  0  0  0  0
  183.0910  176.8620  139.6070 C   0  0  0  0  0  2  0  0  0  0  0  0
  182.1130  177.9140  140.1170 C   0  0  0  0  0  2  0  0  0  0  0  0
  182.9080  179.0590  138.2090 O   0  0  0  0  0  0  0  0  0  0  0  0
  183.7350  179.4710  139.3890 C   0  0  0  0  0  0  0  0  0  0  0  0
  184.8370  179.7690  139.9150 O   0  0  0  0  0  0  0  0  0  0  0  0
  182.3750  179.2570  139.4540 C   0  0  2  0  0  3  0  0  0  0  0  0
  1 11  1  0  0  0  0
  1  3  2  0  0  0  0
  2  7  1  0  0  0  0
  2 10  1  0  0  0  0
  3  8  1  0  0  0  0
  4  8  1  0  0  0  0
  4 12  1  0  0  0  0
  5 11  1  0  0  0  0
  5  7  2  0  0  0  0
  6 13  1  0  0  0  0
  6 12  2  0  0  0  0
  7  6  1  0  0  0  0
  9  1  1  0  0  0  0
 10 14  1  6  0  0  0
 10 13  1  0  0  0  0
 11  4  2  0  0  0  0
 12 18  1  0  0  0  0
 14 17  1  0  0  0  0
 15 14  2  0  0  0  0
 16 17  1  0  0  0  0
 18 19  1  0  0  0  0
 19 20  1  0  0  0  0
 20 21  1  0  0  0  0
 21 22  1  0  0  0  0
 22 23  1  0  0  0  0
 23 24  1  0  0  0  0
 25 28  1  0  0  0  0
 25 27  2  0  0  0  0
 26 25  1  0  0  0  0
 27 24  1  0  0  0  0
 28 32  1  0  0  0  0
 29 31  1  0  0  0  0
 30 33  1  0  0  0  0
 30 29  1  0  0  0  0
 32 31  2  0  0  0  0
 33 28  2  0  0  0  0
 34  3  1  0  0  0  0
 34 35  1  0  0  0  0
 35 36  1  0  0  0  0
 36 37  1  0  0  0  0
 37 38  1  0  0  0  0
 39 40  1  0  0  0  0
 39 42  1  0  0  0  0
 40 42  1  0  0  0  0
 40 41  2  0  0  0  0
 42 38  1  1  0  0  0
M  END
>  <MODEL>
7

>  <REMARK>
 VINA RESULT:      -8.0      3.481      9.932
  Name = 
  17 active torsions:
  status: ('A' for Active; 'I' for Inactive)
    1  A    between atoms: C_1  and  C_5
    2  A    between atoms: C_1  and  C_33
    3  A    between atoms: C_4  and  C_7
    4  A    between atoms: C_5  and  C_6
    5  A    between atoms: C_6  and  C_21
    6  A    between atoms: C_8  and  C_33
    7  A    between atoms: C_8  and  C_41
    8  A    between atoms: C_14  and  C_24
    9  A    between atoms: C_16  and  C_36
   10  A    between atoms: C_16  and  O_37
   11  A    between atoms: C_17  and  C_24
   12  A    between atoms: C_17  and  C_38
   13  A    between atoms: C_21  and  N_28
   14  A    between atoms: C_22  and  C_27
   15  A    between atoms: C_27  and  C_31
   16  A    between atoms: N_28  and  C_40
   17  A    between atoms: C_31  and  C_38
                            x       y       z     vdW  Elec       q    Type
                         _______ _______ _______ _____ _____    ______ ____

>  <TORSDO>
F 17

$$$$
=
 OpenBabel10222419273D

 42 46  0  0  1  0  0  0  0  0999 V2000
  187.3870  176.8040  137.0510 C   0  0  0  0  0  0  0  0  0  0  0  0
  191.7590  174.6560  136.5510 C   0  0  0  0  0  2  0  0  0  0  0  0
  186.8080  177.6660  137.9780 C   0  0  0  0  0  0  0  0  0  0  0  0
  189.1640  177.0690  138.5400 C   0  0  0  0  0  0  0  0  0  0  0  0
  189.5380  175.6180  136.6230 C   0  0  0  0  0  3  0  0  0  0  0  0
  191.2910  176.0100  138.2720 C   0  0  0  0  0  0  0  0  0  0  0  0
  190.8330  175.4100  137.1100 C   0  0  0  0  0  0  0  0  0  0  0  0
  187.9360  178.0240  139.1870 S   0  0  0  0  0  0  0  0  0  0  0  0
  186.7210  176.3310  135.9250 O   0  0  0  0  0  1  0  0  0  0  0  0
  192.9860  174.7360  137.4140 C   0  0  2  0  0  3  0  0  0  0  0  0
  188.7050  176.4650  137.3670 C   0  0  0  0  0  0  0  0  0  0  0  0
  190.4620  176.8670  139.0330 C   0  0  0  0  0  0  0  0  0  0  0  0
  192.5460  175.6630  138.5100 C   0  0  0  0  0  2  0  0  0  0  0  0
  194.1460  175.3200  136.6600 C   0  0  0  0  0  0  0  0  0  0  0  0
  195.3020  175.3030  137.1630 O   0  0  0  0  0  0  0  0  0  0  0  0
  194.3590  177.1480  135.0950 N   0  0  0  0  0  1  0  0  0  0  0  0
  193.9690  175.8600  135.3870 O   0  0  0  0  0  0  0  0  0  0  0  0
  190.8750  177.5220  140.2420 N   0  0  0  0  0  2  0  0  0  0  0  0
  190.5530  177.0720  141.5890 C   0  0  0  0  0  2  0  0  0  0  0  0
  191.7730  177.1940  142.4830 C   0  0  0  0  0  2  0  0  0  0  0  0
  191.4900  178.1370  143.6410 C   0  0  0  0  0  2  0  0  0  0  0  0
  190.2190  177.7190  144.3610 C   0  0  0  0  0  2  0  0  0  0  0  0
  190.5200  177.3810  145.8100 C   0  0  0  0  0  2  0  0  0  0  0  0
  189.2180  177.2180  146.5710 C   0  0  0  0  0  2  0  0  0  0  0  0
  186.9050  177.9800  146.0830 C   0  0  0  0  0  0  0  0  0  0  0  0
  186.7500  178.3290  147.4240 O   0  0  0  0  0  1  0  0  0  0  0  0
  188.0550  177.4510  145.6620 C   0  0  0  0  0  3  0  0  0  0  0  0
  185.7890  178.2000  145.1400 C   0  0  0  0  0  0  0  0  0  0  0  0
  183.8550  179.2530  143.3270 C   0  0  0  0  0  2  0  0  0  0  0  0
  184.8600  178.2050  142.8440 C   0  0  0  0  0  2  0  0  0  0  0  0
  183.5090  179.0260  144.7740 C   0  0  0  0  0  3  0  0  0  0  0  0
  184.4350  178.5700  145.6250 C   0  0  0  0  0  3  0  0  0  0  0  0
  185.9980  178.0720  143.8220 C   0  0  0  0  0  3  0  0  0  0  0  0
  185.4290  178.2310  137.8970 C   0  0  0  0  0  2  0  0  0  0  0  0
  185.0400  178.8930  139.2080 C   0  0  0  0  0  2  0  0  0  0  0  0
  183.5950  179.3640  139.1470 C   0  0  0  0  0  2  0  0  0  0  0  0
  182.6730  178.3510  139.8100 C   0  0  0  0  0  2  0  0  0  0  0  0
  181.3010  178.9450  140.1070 C   0  0  0  0  0  2  0  0  0  0  0  0
  179.3870  178.4960  141.4160 O   0  0  0  0  0  0  0  0  0  0  0  0
  180.2630  179.4510  142.1680 C   0  0  0  0  0  0  0  0  0  0  0  0
  180.4220  180.4550  142.9080 O   0  0  0  0  0  0  0  0  0  0  0  0
  180.7530  178.4040  141.4170 C   0  0  2  0  0  3  0  0  0  0  0  0
  1 11  1  0  0  0  0
  1  3  2  0  0  0  0
  2  7  1  0  0  0  0
  2 10  1  0  0  0  0
  3  8  1  0  0  0  0
  4 12  1  0  0  0  0
  4  8  1  0  0  0  0
  5  7  2  0  0  0  0
  5 11  1  0  0  0  0
  6 13  1  0  0  0  0
  6 12  2  0  0  0  0
  7  6  1  0  0  0  0
  9  1  1  0  0  0  0
 10 14  1  6  0  0  0
 10 13  1  0  0  0  0
 11  4  2  0  0  0  0
 12 18  1  0  0  0  0
 14 15  2  0  0  0  0
 16 17  1  0  0  0  0
 17 14  1  0  0  0  0
 18 19  1  0  0  0  0
 19 20  1  0  0  0  0
 20 21  1  0  0  0  0
 21 22  1  0  0  0  0
 22 23  1  0  0  0  0
 23 24  1  0  0  0  0
 25 26  1  0  0  0  0
 27 25  2  0  0  0  0
 27 24  1  0  0  0  0
 28 32  1  0  0  0  0
 28 25  1  0  0  0  0
 29 31  1  0  0  0  0
 30 29  1  0  0  0  0
 30 33  1  0  0  0  0
 31 32  2  0  0  0  0
 33 28  2  0  0  0  0
 34  3  1  0  0  0  0
 34 35  1  0  0  0  0
 36 35  1  0  0  0  0
 36 37  1  0  0  0  0
 37 38  1  0  0  0  0
 39 42  1  0  0  0  0
 39 40  1  0  0  0  0
 40 41  2  0  0  0  0
 42 38  1  6  0  0  0
 42 40  1  0  0  0  0
M  END
>  <MODEL>
8

>  <REMARK>
 VINA RESULT:      -8.0      3.056     10.383
  Name = 
  17 active torsions:
  status: ('A' for Active; 'I' for Inactive)
    1  A    between atoms: C_1  and  C_5
    2  A    between atoms: C_1  and  C_33
    3  A    between atoms: C_4  and  C_7
    4  A    between atoms: C_5  and  C_6
    5  A    between atoms: C_6  and  C_21
    6  A    between atoms: C_8  and  C_33
    7  A    between atoms: C_8  and  C_41
    8  A    between atoms: C_14  and  C_24
    9  A    between atoms: C_16  and  C_36
   10  A    between atoms: C_16  and  O_37
   11  A    between atoms: C_17  and  C_24
   12  A    between atoms: C_17  and  C_38
   13  A    between atoms: C_21  and  N_28
   14  A    between atoms: C_22  and  C_27
   15  A    between atoms: C_27  and  C_31
   16  A    between atoms: N_28  and  C_40
   17  A    between atoms: C_31  and  C_38
                            x       y       z     vdW  Elec       q    Type
                         _______ _______ _______ _____ _____    ______ ____

>  <TORSDO>
F 17

$$$$
=
 OpenBabel10222419273D

 42 46  0  0  1  0  0  0  0  0999 V2000
  183.5500  178.7950  143.6450 C   0  0  0  0  0  0  0  0  0  0  0  0
  180.4450  178.5520  139.8670 C   0  0  0  0  0  2  0  0  0  0  0  0
  184.9240  178.9770  143.7870 C   0  0  0  0  0  0  0  0  0  0  0  0
  184.1800  178.9940  141.4070 C   0  0  0  0  0  0  0  0  0  0  0  0
  181.8160  178.6370  141.8610 C   0  0  0  0  0  3  0  0  0  0  0  0
  182.6430  178.8740  139.5780 C   0  0  0  0  0  0  0  0  0  0  0  0
  181.6060  178.6790  140.4780 C   0  0  0  0  0  0  0  0  0  0  0  0
  185.6240  179.1600  142.2580 S   0  0  0  0  0  0  0  0  0  0  0  0
  182.6850  178.6280  144.7200 O   0  0  0  0  0  1  0  0  0  0  0  0
  180.6990  178.6680  138.3910 C   0  0  2  0  0  3  0  0  0  0  0  0
  183.1330  178.7990  142.3110 C   0  0  0  0  0  0  0  0  0  0  0  0
  183.9770  179.0370  140.0180 C   0  0  0  0  0  0  0  0  0  0  0  0
  182.1840  178.8810  138.3370 C   0  0  0  0  0  2  0  0  0  0  0  0
  179.9720  179.8430  137.8020 C   0  0  0  0  0  0  0  0  0  0  0  0
  179.6630  179.8500  136.5800 O   0  0  0  0  0  0  0  0  0  0  0  0
  180.3520  182.0810  138.6270 N   0  0  0  0  0  1  0  0  0  0  0  0
  179.6040  180.9250  138.6000 O   0  0  0  0  0  0  0  0  0  0  0  0
  185.0940  179.2460  139.1410 N   0  0  0  0  0  2  0  0  0  0  0  0
  186.0130  178.2080  138.6960 C   0  0  0  0  0  2  0  0  0  0  0  0
  185.5190  177.6020  137.3950 C   0  0  0  0  0  2  0  0  0  0  0  0
  186.6940  177.2270  136.5050 C   0  0  0  0  0  2  0  0  0  0  0  0
  187.6000  176.2390  137.2190 C   0  0  0  0  0  2  0  0  0  0  0  0
  188.9810  176.2400  136.5910 C   0  0  0  0  0  2  0  0  0  0  0  0
  189.7400  177.4750  137.0410 C   0  0  0  0  0  2  0  0  0  0  0  0
  190.5690  177.0700  139.3470 C   0  0  0  0  0  0  0  0  0  0  0  0
  191.6270  176.3290  138.8230 O   0  0  0  0  0  1  0  0  0  0  0  0
  189.6670  177.6130  138.5260 C   0  0  0  0  0  3  0  0  0  0  0  0
  190.4570  177.2450  140.8090 C   0  0  0  0  0  0  0  0  0  0  0  0
  190.1630  178.2260  143.4710 C   0  0  0  0  0  2  0  0  0  0  0  0
  189.1190  177.2680  142.8930 C   0  0  0  0  0  2  0  0  0  0  0  0
  191.5260  177.9240  142.9090 C   0  0  0  0  0  3  0  0  0  0  0  0
  191.6550  177.5030  141.6460 C   0  0  0  0  0  3  0  0  0  0  0  0
  189.2530  177.1790  141.3960 C   0  0  0  0  0  3  0  0  0  0  0  0
  185.6610  179.0520  145.0820 C   0  0  0  0  0  2  0  0  0  0  0  0
  186.5350  177.8250  145.2780 C   0  0  0  0  0  2  0  0  0  0  0  0
  187.2200  177.8830  146.6340 C   0  0  0  0  0  2  0  0  0  0  0  0
  188.3330  176.8470  146.7160 C   0  0  0  0  0  2  0  0  0  0  0  0
  189.7040  177.5000  146.8490 C   0  0  0  0  0  2  0  0  0  0  0  0
  191.9200  177.1350  147.5800 O   0  0  0  0  0  0  0  0  0  0  0  0
  191.6770  176.2960  146.3630 C   0  0  0  0  0  0  0  0  0  0  0  0
  192.0530  175.8010  145.2700 O   0  0  0  0  0  0  0  0  0  0  0  0
  190.7320  176.4970  147.3450 C   0  0  2  0  0  3  0  0  0  0  0  0
  1  3  2  0  0  0  0
  1  9  1  0  0  0  0
  2  7  1  0  0  0  0
  3 34  1  0  0  0  0
  4  8  1  0  0  0  0
  4 11  1  0  0  0  0
  5 11  2  0  0  0  0
  6 12  1  0  0  0  0
  6  7  2  0  0  0  0
  7  5  1  0  0  0  0
  8  3  1  0  0  0  0
 10 14  1  1  0  0  0
 10  2  1  0  0  0  0
 11  1  1  0  0  0  0
 12  4  2  0  0  0  0
 13 10  1  0  0  0  0
 13  6  1  0  0  0  0
 14 17  1  0  0  0  0
 15 14  2  0  0  0  0
 17 16  1  0  0  0  0
 18 12  1  0  0  0  0
 19 18  1  0  0  0  0
 20 19  1  0  0  0  0
 21 22  1  0  0  0  0
 21 20  1  0  0  0  0
 23 24  1  0  0  0  0
 23 22  1  0  0  0  0
 24 27  1  0  0  0  0
 25 28  1  0  0  0  0
 26 25  1  0  0  0  0
 27 25  2  0  0  0  0
 28 33  2  0  0  0  0
 28 32  1  0  0  0  0
 30 29  1  0  0  0  0
 31 29  1  0  0  0  0
 32 31  2  0  0  0  0
 33 30  1  0  0  0  0
 34 35  1  0  0  0  0
 35 36  1  0  0  0  0
 36 37  1  0  0  0  0
 37 38  1  0  0  0  0
 40 42  1  0  0  0  0
 40 39  1  0  0  0  0
 41 40  2  0  0  0  0
 42 38  1  6  0  0  0
 42 39  1  0  0  0  0
M  END
>  <MODEL>
9

>  <REMARK>
 VINA RESULT:      -7.8      1.570      2.217
  Name = 
  17 active torsions:
  status: ('A' for Active; 'I' for Inactive)
    1  A    between atoms: C_1  and  C_5
    2  A    between atoms: C_1  and  C_33
    3  A    between atoms: C_4  and  C_7
    4  A    between atoms: C_5  and  C_6
    5  A    between atoms: C_6  and  C_21
    6  A    between atoms: C_8  and  C_33
    7  A    between atoms: C_8  and  C_41
    8  A    between atoms: C_14  and  C_24
    9  A    between atoms: C_16  and  C_36
   10  A    between atoms: C_16  and  O_37
   11  A    between atoms: C_17  and  C_24
   12  A    between atoms: C_17  and  C_38
   13  A    between atoms: C_21  and  N_28
   14  A    between atoms: C_22  and  C_27
   15  A    between atoms: C_27  and  C_31
   16  A    between atoms: N_28  and  C_40
   17  A    between atoms: C_31  and  C_38
                            x       y       z     vdW  Elec       q    Type
                         _______ _______ _______ _____ _____    ______ ____

>  <TORSDO>
F 17

$$$$
