=
 OpenBabel10222419393D

 36 40  0  0  1  0  0  0  0  0999 V2000
  183.6430  178.5840  143.1330 N   0  0  0  0  0  0  0  0  0  0  0  0
  188.7010  177.2910  141.5300 C   0  0  0  0  0  0  0  0  0  0  0  0
  189.9440  176.6370  141.5600 C   0  0  0  0  0  0  0  0  0  0  0  0
  186.5960  177.9180  142.5770 C   0  0  0  0  0  0  0  0  0  0  0  0
  183.0210  179.2100  139.6680 C   0  0  2  0  0  3  0  0  0  0  0  0
  185.9260  177.9440  143.7340 C   0  0  0  0  0  2  0  0  0  0  0  0
  183.7470  178.7290  141.8510 C   0  0  0  0  0  0  0  0  0  0  0  0
  181.2400  178.6660  141.4330 C   0  0  0  0  0  1  0  0  0  0  0  0
  184.5360  179.4860  139.7440 C   0  0  0  0  0  2  0  0  0  0  0  0
  188.3340  178.0370  140.3970 C   0  0  0  0  0  0  0  0  0  0  0  0
  184.9640  179.0290  141.1110 C   0  0  2  0  0  3  0  0  0  0  0  0
  187.8220  177.2500  142.6120 C   0  0  0  0  0  3  0  0  0  0  0  0
  189.2190  178.1110  139.3090 C   0  0  0  0  0  0  0  0  0  0  0  0
  190.4100  177.4570  139.3610 N   0  0  0  0  0  0  0  0  0  0  0  0
  187.1160  178.6370  140.3500 N   0  0  0  0  0  0  0  0  0  0  0  0
  190.7840  176.7320  140.4490 C   0  0  0  0  0  3  0  0  0  0  0  0
  182.6230  178.7630  140.9950 N   0  0  0  0  0  0  0  0  0  0  0  0
  184.7500  178.8060  144.0450 C   0  0  0  0  0  2  0  0  0  0  0  0
  186.2120  178.5800  141.3710 C   0  0  0  0  0  0  0  0  0  0  0  0
  182.7540  178.1650  138.6870 N   0  0  0  0  0  0  0  0  0  0  0  0
  182.0780  178.3420  137.5430 C   0  0  0  0  0  3  0  0  0  0  0  0
  182.7580  176.2560  137.6950 C   0  0  0  0  0  3  0  0  0  0  0  0
  182.0570  177.1290  136.8760 C   0  0  0  0  0  3  0  0  0  0  0  0
  183.1730  176.9180  138.7910 N   0  0  0  0  0  0  0  0  0  0  0  0
  190.4830  175.6700  142.9750 S   0  0  0  0  0  0  0  0  0  0  0  0
  191.4210  177.0550  143.6860 C   0  0  1  0  0  3  0  0  0  0  0  0
  191.4270  178.1250  142.7920 O   0  0  0  0  0  1  0  0  0  0  0  0
  190.3620  179.0560  145.1880 O   0  0  0  0  0  0  0  0  0  0  0  0
  190.6560  177.5740  145.2470 P   0  0  1  0  0  0  0  0  0  0  0  0
  189.2120  176.7230  145.4770 O   0  0  0  0  0  1  0  0  0  0  0  0
  192.0420  175.8180  146.5520 C   0  0  0  0  0  1  0  0  0  0  0  0
  191.7580  177.2420  146.5700 N   0  0  0  0  0  2  0  0  0  0  0  0
  188.8580  178.8670  138.0690 C   0  0  0  0  0  2  0  0  0  0  0  0
  188.3110  177.9290  137.0040 C   0  0  0  0  0  2  0  0  0  0  0  0
  186.1270  177.6670  136.8200 C   0  0  0  0  0  1  0  0  0  0  0  0
  187.1780  178.4860  136.4090 O   0  0  0  0  0  0  0  0  0  0  0  0
  1 18  1  0  0  0  0
  2  3  1  0  0  0  0
  2 12  1  0  0  0  0
  3 25  1  0  0  0  0
  4 12  2  0  0  0  0
  4  6  1  0  0  0  0
  5 20  1  6  0  0  0
  5  9  1  0  0  0  0
  5 17  1  0  0  0  0
  6 18  1  0  0  0  0
  7  1  2  0  0  0  0
 10  2  2  0  0  0  0
 11  9  1  6  0  0  0
 11 19  1  0  0  0  0
 11  7  1  0  0  0  0
 13 14  2  0  0  0  0
 13 10  1  0  0  0  0
 14 16  1  0  0  0  0
 15 10  1  0  0  0  0
 15 19  2  0  0  0  0
 16  3  2  0  0  0  0
 17  8  1  0  0  0  0
 17  7  1  0  0  0  0
 19  4  1  0  0  0  0
 20 24  1  0  0  0  0
 21 20  1  0  0  0  0
 22 24  2  0  0  0  0
 23 21  2  0  0  0  0
 23 22  1  0  0  0  0
 25 26  1  0  0  0  0
 26 27  1  6  0  0  0
 26 29  1  0  0  0  0
 29 28  2  6  0  0  0
 29 30  1  0  0  0  0
 29 32  1  0  0  0  0
 31 32  1  0  0  0  0
 33 13  1  0  0  0  0
 34 33  1  0  0  0  0
 36 35  1  0  0  0  0
 36 34  1  0  0  0  0
M  END
>  <MODEL>
1

>  <REMARK>
 VINA RESULT:      -8.0      0.000      0.000
  Name = 
  8 active torsions:
  status: ('A' for Active; 'I' for Inactive)
    1  A    between atoms: S_1  and  C_4
    2  A    between atoms: S_1  and  C_8
    3  A    between atoms: C_4  and  P_32
    4  A    between atoms: C_10  and  C_13
    5  A    between atoms: C_10  and  C_26
    6  A    between atoms: C_11  and  N_15
    7  A    between atoms: C_13  and  O_23
    8  A    between atoms: N_21  and  P_32
                            x       y       z     vdW  Elec       q    Type
                         _______ _______ _______ _____ _____    ______ ____

>  <TORSDO>
F 8

$$$$
=
 OpenBabel10222419393D

 36 40  0  0  1  0  0  0  0  0999 V2000
  182.1120  178.8720  142.0700 N   0  0  0  0  0  0  0  0  0  0  0  0
  187.4360  177.6570  142.1230 C   0  0  0  0  0  0  0  0  0  0  0  0
  188.6290  177.0710  142.5790 C   0  0  0  0  0  0  0  0  0  0  0  0
  185.1100  178.2920  142.4520 C   0  0  0  0  0  0  0  0  0  0  0  0
  182.4950  179.0830  138.5210 C   0  0  2  0  0  3  0  0  0  0  0  0
  184.1370  178.4120  143.3620 C   0  0  0  0  0  2  0  0  0  0  0  0
  182.5750  178.8800  140.8620 C   0  0  0  0  0  0  0  0  0  0  0  0
  180.2930  178.6500  139.7650 C   0  0  0  0  0  1  0  0  0  0  0  0
  183.9210  179.4390  138.9880 C   0  0  0  0  0  2  0  0  0  0  0  0
  187.3960  178.2560  140.8520 C   0  0  0  0  0  0  0  0  0  0  0  0
  183.9470  179.1550  140.4640 C   0  0  2  0  0  3  0  0  0  0  0  0
  186.2850  177.6920  142.9110 C   0  0  0  0  0  3  0  0  0  0  0  0
  188.5530  178.2530  140.0560 C   0  0  0  0  0  0  0  0  0  0  0  0
  189.6900  177.6670  140.5190 N   0  0  0  0  0  0  0  0  0  0  0  0
  186.2330  178.7870  140.3930 N   0  0  0  0  0  0  0  0  0  0  0  0
  189.7490  177.0850  141.7470 C   0  0  0  0  0  3  0  0  0  0  0  0
  181.7420  178.7650  139.7260 N   0  0  0  0  0  0  0  0  0  0  0  0
  182.9080  179.2440  143.2240 C   0  0  0  0  0  2  0  0  0  0  0  0
  185.0770  178.7990  141.1170 C   0  0  0  0  0  0  0  0  0  0  0  0
  182.5360  177.9260  137.6360 N   0  0  0  0  0  0  0  0  0  0  0  0
  182.9570  176.7030  137.9900 C   0  0  0  0  0  3  0  0  0  0  0  0
  182.2990  176.6890  135.8910 C   0  0  0  0  0  3  0  0  0  0  0  0
  182.8220  175.8770  136.8870 C   0  0  0  0  0  3  0  0  0  0  0  0
  182.1320  177.9320  136.3790 N   0  0  0  0  0  0  0  0  0  0  0  0
  188.7550  176.2920  144.1930 S   0  0  0  0  0  0  0  0  0  0  0  0
  189.5850  177.7310  144.9290 C   0  0  1  0  0  3  0  0  0  0  0  0
  189.0320  178.0020  146.1800 O   0  0  0  0  0  1  0  0  0  0  0  0
  191.6800  177.2040  146.5770 O   0  0  0  0  0  1  0  0  0  0  0  0
  191.3580  177.3870  145.1120 P   0  0  1  0  0  0  0  0  0  0  0  0
  191.7470  175.9730  144.2680 O   0  0  0  0  0  0  0  0  0  0  0  0
  191.3250  179.7210  143.9900 C   0  0  0  0  0  1  0  0  0  0  0  0
  192.2780  178.7340  144.4690 N   0  0  0  0  0  2  0  0  0  0  0  0
  188.5500  178.8500  138.6840 C   0  0  0  0  0  2  0  0  0  0  0  0
  189.4490  178.0580  137.7480 C   0  0  0  0  0  2  0  0  0  0  0  0
  189.6660  175.9160  137.2650 C   0  0  0  0  0  1  0  0  0  0  0  0
  188.7530  176.9690  137.2210 O   0  0  0  0  0  0  0  0  0  0  0  0
  1 18  1  0  0  0  0
  2  3  1  0  0  0  0
  2 12  1  0  0  0  0
  3 25  1  0  0  0  0
  4 12  2  0  0  0  0
  4  6  1  0  0  0  0
  5 20  1  6  0  0  0
  5  9  1  0  0  0  0
  5 17  1  0  0  0  0
  7  1  2  0  0  0  0
 10  2  2  0  0  0  0
 11  9  1  6  0  0  0
 11  7  1  0  0  0  0
 11 19  1  0  0  0  0
 13 14  2  0  0  0  0
 13 10  1  0  0  0  0
 14 16  1  0  0  0  0
 15 10  1  0  0  0  0
 15 19  2  0  0  0  0
 16  3  2  0  0  0  0
 17  8  1  0  0  0  0
 17  7  1  0  0  0  0
 18  6  1  0  0  0  0
 19  4  1  0  0  0  0
 20 21  1  0  0  0  0
 22 24  2  0  0  0  0
 22 23  1  0  0  0  0
 23 21  2  0  0  0  0
 24 20  1  0  0  0  0
 25 26  1  0  0  0  0
 26 29  1  0  0  0  0
 26 27  1  1  0  0  0
 29 30  2  6  0  0  0
 29 28  1  0  0  0  0
 31 32  1  0  0  0  0
 32 29  1  0  0  0  0
 33 13  1  0  0  0  0
 34 33  1  0  0  0  0
 36 35  1  0  0  0  0
 36 34  1  0  0  0  0
M  END
>  <MODEL>
2

>  <REMARK>
 VINA RESULT:      -7.3      1.604      2.095
  Name = 
  8 active torsions:
  status: ('A' for Active; 'I' for Inactive)
    1  A    between atoms: S_1  and  C_4
    2  A    between atoms: S_1  and  C_8
    3  A    between atoms: C_4  and  P_32
    4  A    between atoms: C_10  and  C_13
    5  A    between atoms: C_10  and  C_26
    6  A    between atoms: C_11  and  N_15
    7  A    between atoms: C_13  and  O_23
    8  A    between atoms: N_21  and  P_32
                            x       y       z     vdW  Elec       q    Type
                         _______ _______ _______ _____ _____    ______ ____

>  <TORSDO>
F 8

$$$$
=
 OpenBabel10222419393D

 36 40  0  0  1  0  0  0  0  0999 V2000
  190.9580  176.6830  139.4500 N   0  0  0  0  0  0  0  0  0  0  0  0
  185.9690  176.7540  137.2310 C   0  0  0  0  0  0  0  0  0  0  0  0
  184.8890  176.3050  136.4520 C   0  0  0  0  0  0  0  0  0  0  0  0
  188.3130  176.6650  137.8770 C   0  0  0  0  0  0  0  0  0  0  0  0
  189.4550  178.4580  142.1660 C   0  0  2  0  0  3  0  0  0  0  0  0
  189.5120  176.1730  137.5460 C   0  0  0  0  0  2  0  0  0  0  0  0
  190.1380  177.3040  140.2360 C   0  0  0  0  0  0  0  0  0  0  0  0
  191.6080  177.0700  142.2960 C   0  0  0  0  0  1  0  0  0  0  0  0
  188.5400  178.8840  141.0010 C   0  0  0  0  0  2  0  0  0  0  0  0
  185.7820  177.8110  138.1380 C   0  0  0  0  0  0  0  0  0  0  0  0
  188.9310  178.0140  139.8390 C   0  0  2  0  0  3  0  0  0  0  0  0
  187.2430  176.1990  137.1090 C   0  0  0  0  0  3  0  0  0  0  0  0
  184.5110  178.3980  138.2540 C   0  0  0  0  0  0  0  0  0  0  0  0
  183.4810  177.9340  137.4970 N   0  0  0  0  0  0  0  0  0  0  0  0
  186.8150  178.2190  138.9200 N   0  0  0  0  0  0  0  0  0  0  0  0
  183.6430  176.9150  136.6110 C   0  0  0  0  0  3  0  0  0  0  0  0
  190.4030  177.5040  141.6090 N   0  0  0  0  0  0  0  0  0  0  0  0
  190.8300  176.6950  138.0050 C   0  0  0  0  0  2  0  0  0  0  0  0
  188.0630  177.6700  138.8610 C   0  0  0  0  0  0  0  0  0  0  0  0
  188.6640  177.8250  143.2150 N   0  0  0  0  0  0  0  0  0  0  0  0
  188.9460  177.8750  144.5240 C   0  0  0  0  0  3  0  0  0  0  0  0
  187.0930  176.7350  144.2010 C   0  0  0  0  0  3  0  0  0  0  0  0
  187.9550  177.1780  145.1940 C   0  0  0  0  0  3  0  0  0  0  0  0
  187.5510  177.1480  143.0040 N   0  0  0  0  0  0  0  0  0  0  0  0
  185.0540  174.9640  135.2690 S   0  0  0  0  0  0  0  0  0  0  0  0
  183.7980  173.9470  136.1010 C   0  0  1  0  0  3  0  0  0  0  0  0
  182.8740  173.4840  135.1650 O   0  0  0  0  0  1  0  0  0  0  0  0
  185.2390  173.0000  138.2010 O   0  0  0  0  0  1  0  0  0  0  0  0
  184.5960  172.5340  136.9140 P   0  0  1  0  0  0  0  0  0  0  0  0
  183.4340  171.3530  137.2600 O   0  0  0  0  0  0  0  0  0  0  0  0
  185.2450  170.7010  135.2040 C   0  0  0  0  0  1  0  0  0  0  0  0
  185.8190  171.8690  135.8490 N   0  0  0  0  0  2  0  0  0  0  0  0
  184.2570  179.5040  139.2290 C   0  0  0  0  0  2  0  0  0  0  0  0
  183.9890  178.9480  140.6190 C   0  0  0  0  0  2  0  0  0  0  0  0
  184.4920  179.0180  142.7660 C   0  0  0  0  0  1  0  0  0  0  0  0
  184.9660  179.3940  141.5100 O   0  0  0  0  0  0  0  0  0  0  0  0
  1  7  2  0  0  0  0
  2 10  1  0  0  0  0
  3 16  2  0  0  0  0
  3  2  1  0  0  0  0
  4 19  2  0  0  0  0
  5  9  1  6  0  0  0
  5 20  1  0  0  0  0
  6  4  1  0  0  0  0
  6 18  1  0  0  0  0
  7 17  1  0  0  0  0
 10 13  1  0  0  0  0
 10 15  2  0  0  0  0
 11  7  1  0  0  0  0
 11  9  1  1  0  0  0
 12  2  2  0  0  0  0
 12  4  1  0  0  0  0
 13 33  1  0  0  0  0
 14 13  2  0  0  0  0
 16 14  1  0  0  0  0
 17  5  1  0  0  0  0
 17  8  1  0  0  0  0
 18  1  1  0  0  0  0
 19 15  1  0  0  0  0
 19 11  1  0  0  0  0
 20 21  1  0  0  0  0
 21 23  2  0  0  0  0
 22 23  1  0  0  0  0
 24 20  1  0  0  0  0
 24 22  2  0  0  0  0
 25 26  1  0  0  0  0
 25  3  1  0  0  0  0
 26 27  1  6  0  0  0
 26 29  1  0  0  0  0
 29 30  2  1  0  0  0
 29 28  1  0  0  0  0
 31 32  1  0  0  0  0
 32 29  1  0  0  0  0
 33 34  1  0  0  0  0
 34 36  1  0  0  0  0
 36 35  1  0  0  0  0
M  END
>  <MODEL>
3

>  <REMARK>
 VINA RESULT:      -7.3      4.014      8.182
  Name = 
  8 active torsions:
  status: ('A' for Active; 'I' for Inactive)
    1  A    between atoms: S_1  and  C_4
    2  A    between atoms: S_1  and  C_8
    3  A    between atoms: C_4  and  P_32
    4  A    between atoms: C_10  and  C_13
    5  A    between atoms: C_10  and  C_26
    6  A    between atoms: C_11  and  N_15
    7  A    between atoms: C_13  and  O_23
    8  A    between atoms: N_21  and  P_32
                            x       y       z     vdW  Elec       q    Type
                         _______ _______ _______ _____ _____    ______ ____

>  <TORSDO>
F 8

$$$$
=
 OpenBabel10222419393D

 36 40  0  0  1  0  0  0  0  0999 V2000
  190.0710  176.5620  136.6840 N   0  0  0  0  0  0  0  0  0  0  0  0
  184.6260  176.8460  136.9960 C   0  0  0  0  0  0  0  0  0  0  0  0
  183.2920  176.4830  136.7470 C   0  0  0  0  0  0  0  0  0  0  0  0
  187.0030  176.7060  136.4920 C   0  0  0  0  0  0  0  0  0  0  0  0
  190.0390  177.9750  139.9690 C   0  0  2  0  0  3  0  0  0  0  0  0
  187.8990  176.2710  135.6000 C   0  0  0  0  0  2  0  0  0  0  0  0
  189.7240  177.0730  137.8220 C   0  0  0  0  0  0  0  0  0  0  0  0
  191.9540  176.6050  138.9490 C   0  0  0  0  0  1  0  0  0  0  0  0
  188.7170  178.5290  139.4030 C   0  0  0  0  0  2  0  0  0  0  0  0
  184.9170  177.7820  138.0030 C   0  0  0  0  0  0  0  0  0  0  0  0
  188.5010  177.8120  138.0990 C   0  0  2  0  0  3  0  0  0  0  0  0
  185.6820  176.3250  136.2470 C   0  0  0  0  0  3  0  0  0  0  0  0
  183.8640  178.3360  138.7490 C   0  0  0  0  0  0  0  0  0  0  0  0
  182.5840  177.9570  138.4940 N   0  0  0  0  0  0  0  0  0  0  0  0
  186.2100  178.1040  138.2710 N   0  0  0  0  0  0  0  0  0  0  0  0
  182.2810  177.0550  137.5220 C   0  0  0  0  0  3  0  0  0  0  0  0
  190.5890  177.1060  138.9380 N   0  0  0  0  0  0  0  0  0  0  0  0
  189.3050  176.7480  135.4670 C   0  0  0  0  0  2  0  0  0  0  0  0
  187.2700  177.5800  137.5900 C   0  0  0  0  0  0  0  0  0  0  0  0
  189.7790  177.2100  141.1830 N   0  0  0  0  0  0  0  0  0  0  0  0
  188.5930  177.1340  141.8030 C   0  0  0  0  0  3  0  0  0  0  0  0
  190.0720  175.9000  142.8650 C   0  0  0  0  0  3  0  0  0  0  0  0
  188.7440  176.2990  142.8970 C   0  0  0  0  0  3  0  0  0  0  0  0
  190.6780  176.4700  141.8060 N   0  0  0  0  0  0  0  0  0  0  0  0
  182.8440  175.2980  135.4730 S   0  0  0  0  0  0  0  0  0  0  0  0
  182.5030  173.9840  136.6820 C   0  0  1  0  0  3  0  0  0  0  0  0
  181.3530  173.2900  136.3070 O   0  0  0  0  0  1  0  0  0  0  0  0
  184.6360  172.8650  135.4250 O   0  0  0  0  0  0  0  0  0  0  0  0
  183.9070  172.8370  136.7490 P   0  0  1  0  0  0  0  0  0  0  0  0
  184.9630  173.3110  137.9830 O   0  0  0  0  0  1  0  0  0  0  0  0
  183.5280  170.4350  135.8580 C   0  0  0  0  0  1  0  0  0  0  0  0
  183.3160  171.2160  137.0640 N   0  0  0  0  0  2  0  0  0  0  0  0
  184.1280  179.3120  139.8520 C   0  0  0  0  0  2  0  0  0  0  0  0
  184.2850  178.5940  141.1820 C   0  0  0  0  0  2  0  0  0  0  0  0
  184.7570  178.9190  143.3130 C   0  0  0  0  0  1  0  0  0  0  0  0
  185.1160  179.3280  142.0300 O   0  0  0  0  0  0  0  0  0  0  0  0
  1  7  2  0  0  0  0
  2 10  1  0  0  0  0
  3  2  2  0  0  0  0
  3 16  1  0  0  0  0
  4 19  1  0  0  0  0
  5  9  1  6  0  0  0
  5 20  1  0  0  0  0
  6  4  1  0  0  0  0
  7 11  1  0  0  0  0
  7 17  1  0  0  0  0
 10 15  1  0  0  0  0
 10 13  2  0  0  0  0
 11  9  1  1  0  0  0
 12  4  2  0  0  0  0
 12  2  1  0  0  0  0
 13 33  1  0  0  0  0
 14 13  1  0  0  0  0
 16 14  2  0  0  0  0
 17  8  1  0  0  0  0
 17  5  1  0  0  0  0
 18  6  1  0  0  0  0
 18  1  1  0  0  0  0
 19 11  1  0  0  0  0
 19 15  2  0  0  0  0
 20 21  1  0  0  0  0
 20 24  1  0  0  0  0
 21 23  2  0  0  0  0
 22 23  1  0  0  0  0
 24 22  2  0  0  0  0
 25 26  1  0  0  0  0
 25  3  1  0  0  0  0
 26 27  1  6  0  0  0
 26 29  1  0  0  0  0
 29 28  2  6  0  0  0
 29 32  1  0  0  0  0
 29 30  1  0  0  0  0
 31 32  1  0  0  0  0
 33 34  1  0  0  0  0
 34 36  1  0  0  0  0
 36 35  1  0  0  0  0
M  END
>  <MODEL>
4

>  <REMARK>
 VINA RESULT:      -6.6      3.978      8.686
  Name = 
  8 active torsions:
  status: ('A' for Active; 'I' for Inactive)
    1  A    between atoms: S_1  and  C_4
    2  A    between atoms: S_1  and  C_8
    3  A    between atoms: C_4  and  P_32
    4  A    between atoms: C_10  and  C_13
    5  A    between atoms: C_10  and  C_26
    6  A    between atoms: C_11  and  N_15
    7  A    between atoms: C_13  and  O_23
    8  A    between atoms: N_21  and  P_32
                            x       y       z     vdW  Elec       q    Type
                         _______ _______ _______ _____ _____    ______ ____

>  <TORSDO>
F 8

$$$$
=
 OpenBabel10222419393D

 36 40  0  0  1  0  0  0  0  0999 V2000
  183.3420  178.6220  139.2240 N   0  0  0  0  0  0  0  0  0  0  0  0
  188.0660  177.8470  141.8530 C   0  0  0  0  0  0  0  0  0  0  0  0
  188.9190  177.5930  142.9400 C   0  0  0  0  0  0  0  0  0  0  0  0
  185.8870  178.4370  140.9460 C   0  0  0  0  0  0  0  0  0  0  0  0
  185.0290  177.2370  136.3920 C   0  0  2  0  0  3  0  0  0  0  0  0
  184.6710  178.9010  141.2580 C   0  0  0  0  0  2  0  0  0  0  0  0
  184.2150  178.1110  138.4150 C   0  0  0  0  0  0  0  0  0  0  0  0
  182.4880  177.2910  136.7390 C   0  0  0  0  0  1  0  0  0  0  0  0
  186.2160  177.8390  137.1690 C   0  0  0  0  0  2  0  0  0  0  0  0
  188.5760  177.8080  140.5430 C   0  0  0  0  0  0  0  0  0  0  0  0
  185.6600  178.2510  138.5040 C   0  0  2  0  0  3  0  0  0  0  0  0
  186.7210  178.1700  142.0340 C   0  0  0  0  0  3  0  0  0  0  0  0
  189.9330  177.5090  140.3450 C   0  0  0  0  0  0  0  0  0  0  0  0
  190.7320  177.2560  141.4150 N   0  0  0  0  0  0  0  0  0  0  0  0
  187.7430  178.0130  139.4890 N   0  0  0  0  0  0  0  0  0  0  0  0
  190.2590  177.2910  142.6900 C   0  0  0  0  0  3  0  0  0  0  0  0
  183.8510  177.4550  137.2190 N   0  0  0  0  0  0  0  0  0  0  0  0
  183.6990  179.5160  140.3090 C   0  0  0  0  0  2  0  0  0  0  0  0
  186.4130  178.2870  139.6260 C   0  0  0  0  0  0  0  0  0  0  0  0
  185.2420  175.8090  136.1880 N   0  0  0  0  0  0  0  0  0  0  0  0
  185.1510  174.8750  137.1460 C   0  0  0  0  0  3  0  0  0  0  0  0
  185.6260  173.9260  135.2200 C   0  0  0  0  0  3  0  0  0  0  0  0
  185.3960  173.6460  136.5590 C   0  0  0  0  0  3  0  0  0  0  0  0
  185.5220  175.2540  135.0240 N   0  0  0  0  0  0  0  0  0  0  0  0
  188.3400  177.6300  144.6400 S   0  0  0  0  0  0  0  0  0  0  0  0
  190.0270  177.6940  145.3140 C   0  0  1  0  0  3  0  0  0  0  0  0
  190.5570  178.9710  145.1330 O   0  0  0  0  0  1  0  0  0  0  0  0
  189.2400  176.0030  147.2890 O   0  0  0  0  0  0  0  0  0  0  0  0
  189.9920  177.2980  147.0850 P   0  0  1  0  0  0  0  0  0  0  0  0
  191.5760  177.1260  147.6550 O   0  0  0  0  0  1  0  0  0  0  0  0
  187.9360  178.0590  148.4620 C   0  0  0  0  0  1  0  0  0  0  0  0
  189.1860  178.5920  147.9510 N   0  0  0  0  0  2  0  0  0  0  0  0
  190.5130  177.4250  138.9680 C   0  0  0  0  0  2  0  0  0  0  0  0
  191.6230  176.3880  138.9120 C   0  0  0  0  0  2  0  0  0  0  0  0
  190.7490  175.5730  137.0570 C   0  0  0  0  0  1  0  0  0  0  0  0
  191.1470  175.2060  138.3420 O   0  0  0  0  0  0  0  0  0  0  0  0
  1 18  1  0  0  0  0
  2 12  1  0  0  0  0
  2  3  2  0  0  0  0
  3 25  1  0  0  0  0
  4  6  1  0  0  0  0
  4 12  2  0  0  0  0
  5 20  1  1  0  0  0
  5  9  1  0  0  0  0
  5 17  1  0  0  0  0
  7 11  1  0  0  0  0
  7  1  2  0  0  0  0
  8 17  1  0  0  0  0
 10  2  1  0  0  0  0
 11  9  1  6  0  0  0
 11 19  1  0  0  0  0
 13 10  2  0  0  0  0
 13 14  1  0  0  0  0
 14 16  2  0  0  0  0
 15 19  2  0  0  0  0
 15 10  1  0  0  0  0
 16  3  1  0  0  0  0
 17  7  1  0  0  0  0
 18  6  1  0  0  0  0
 19  4  1  0  0  0  0
 20 21  1  0  0  0  0
 22 23  1  0  0  0  0
 23 21  2  0  0  0  0
 24 22  2  0  0  0  0
 24 20  1  0  0  0  0
 25 26  1  0  0  0  0
 26 27  1  1  0  0  0
 26 29  1  0  0  0  0
 29 28  2  1  0  0  0
 29 30  1  0  0  0  0
 29 32  1  0  0  0  0
 32 31  1  0  0  0  0
 33 13  1  0  0  0  0
 34 33  1  0  0  0  0
 35 36  1  0  0  0  0
 36 34  1  0  0  0  0
M  END
>  <MODEL>
5

>  <REMARK>
 VINA RESULT:      -6.3      2.471      3.469
  Name = 
  8 active torsions:
  status: ('A' for Active; 'I' for Inactive)
    1  A    between atoms: S_1  and  C_4
    2  A    between atoms: S_1  and  C_8
    3  A    between atoms: C_4  and  P_32
    4  A    between atoms: C_10  and  C_13
    5  A    between atoms: C_10  and  C_26
    6  A    between atoms: C_11  and  N_15
    7  A    between atoms: C_13  and  O_23
    8  A    between atoms: N_21  and  P_32
                            x       y       z     vdW  Elec       q    Type
                         _______ _______ _______ _____ _____    ______ ____

>  <TORSDO>
F 8

$$$$
=
 OpenBabel10222419393D

 36 40  0  0  1  0  0  0  0  0999 V2000
  181.4190  177.6190  135.1460 N   0  0  0  0  0  0  0  0  0  0  0  0
  186.1120  177.8830  137.9270 C   0  0  0  0  0  0  0  0  0  0  0  0
  187.5030  177.8980  138.1270 C   0  0  0  0  0  0  0  0  0  0  0  0
  184.1630  177.4640  136.5320 C   0  0  0  0  0  0  0  0  0  0  0  0
  180.0960  179.6700  137.7600 C   0  0  2  0  0  3  0  0  0  0  0  0
  183.7460  176.9090  135.3880 C   0  0  0  0  0  2  0  0  0  0  0  0
  181.2540  178.3270  136.2180 C   0  0  0  0  0  0  0  0  0  0  0  0
  179.1410  179.4700  135.3880 C   0  0  0  0  0  1  0  0  0  0  0  0
  181.2220  178.9330  138.5130 C   0  0  0  0  0  2  0  0  0  0  0  0
  185.2530  178.2390  138.9810 C   0  0  0  0  0  0  0  0  0  0  0  0
  182.0080  178.2070  137.4570 C   0  0  2  0  0  3  0  0  0  0  0  0
  185.5480  177.4910  136.7130 C   0  0  0  0  0  3  0  0  0  0  0  0
  185.8040  178.6100  140.2190 C   0  0  0  0  0  0  0  0  0  0  0  0
  187.1540  178.6280  140.3780 N   0  0  0  0  0  0  0  0  0  0  0  0
  183.9100  178.2630  138.7780 N   0  0  0  0  0  0  0  0  0  0  0  0
  188.0020  178.2840  139.3720 C   0  0  0  0  0  3  0  0  0  0  0  0
  180.1830  179.2350  136.3740 N   0  0  0  0  0  0  0  0  0  0  0  0
  182.3470  176.5070  135.0690 C   0  0  0  0  0  2  0  0  0  0  0  0
  183.3250  177.9300  137.5910 C   0  0  0  0  0  0  0  0  0  0  0  0
  180.2990  181.1110  137.8470 N   0  0  0  0  0  0  0  0  0  0  0  0
  181.4940  181.7140  137.9260 C   0  0  0  0  0  3  0  0  0  0  0  0
  179.8940  183.2230  137.9060 C   0  0  0  0  0  3  0  0  0  0  0  0
  181.2730  183.0790  137.9690 C   0  0  0  0  0  3  0  0  0  0  0  0
  179.3270  182.0050  137.8300 N   0  0  0  0  0  0  0  0  0  0  0  0
  188.6600  177.4510  136.8280 S   0  0  0  0  0  0  0  0  0  0  0  0
  188.9340  175.7890  137.5120 C   0  0  1  0  0  3  0  0  0  0  0  0
  188.1480  174.8640  136.8260 O   0  0  0  0  0  1  0  0  0  0  0  0
  190.8430  173.8580  137.5940 O   0  0  0  0  0  1  0  0  0  0  0  0
  190.6840  175.3400  137.3440 P   0  0  1  0  0  0  0  0  0  0  0  0
  191.2120  175.7080  135.7790 O   0  0  0  0  0  0  0  0  0  0  0  0
  192.9700  176.3780  137.9790 C   0  0  0  0  0  1  0  0  0  0  0  0
  191.6280  176.2410  138.5150 N   0  0  0  0  0  2  0  0  0  0  0  0
  184.9300  179.0280  141.3600 C   0  0  0  0  0  2  0  0  0  0  0  0
  185.3030  178.2760  142.6280 C   0  0  0  0  0  2  0  0  0  0  0  0
  184.2900  179.4720  144.1810 C   0  0  0  0  0  1  0  0  0  0  0  0
  184.2200  178.2530  143.5080 O   0  0  0  0  0  0  0  0  0  0  0  0
  1  7  2  0  0  0  0
  2  3  2  0  0  0  0
  2 10  1  0  0  0  0
  3 16  1  0  0  0  0
  4 12  2  0  0  0  0
  4 19  1  0  0  0  0
  5 20  1  6  0  0  0
  5  9  1  0  0  0  0
  6  4  1  0  0  0  0
  7 17  1  0  0  0  0
  7 11  1  0  0  0  0
  8 17  1  0  0  0  0
 10 13  2  0  0  0  0
 11 19  1  0  0  0  0
 11  9  1  6  0  0  0
 12  2  1  0  0  0  0
 13 14  1  0  0  0  0
 13 33  1  0  0  0  0
 15 10  1  0  0  0  0
 16 14  2  0  0  0  0
 17  5  1  0  0  0  0
 18  1  1  0  0  0  0
 18  6  1  0  0  0  0
 19 15  2  0  0  0  0
 20 21  1  0  0  0  0
 21 23  2  0  0  0  0
 22 23  1  0  0  0  0
 24 20  1  0  0  0  0
 24 22  2  0  0  0  0
 25 26  1  0  0  0  0
 25  3  1  0  0  0  0
 26 27  1  6  0  0  0
 29 30  2  6  0  0  0
 29 26  1  0  0  0  0
 29 28  1  0  0  0  0
 29 32  1  0  0  0  0
 31 32  1  0  0  0  0
 33 34  1  0  0  0  0
 34 36  1  0  0  0  0
 36 35  1  0  0  0  0
M  END
>  <MODEL>
6

>  <REMARK>
 VINA RESULT:      -5.8      3.760      6.429
  Name = 
  8 active torsions:
  status: ('A' for Active; 'I' for Inactive)
    1  A    between atoms: S_1  and  C_4
    2  A    between atoms: S_1  and  C_8
    3  A    between atoms: C_4  and  P_32
    4  A    between atoms: C_10  and  C_13
    5  A    between atoms: C_10  and  C_26
    6  A    between atoms: C_11  and  N_15
    7  A    between atoms: C_13  and  O_23
    8  A    between atoms: N_21  and  P_32
                            x       y       z     vdW  Elec       q    Type
                         _______ _______ _______ _____ _____    ______ ____

>  <TORSDO>
F 8

$$$$
=
 OpenBabel10222419393D

 36 40  0  0  1  0  0  0  0  0999 V2000
  182.8300  177.9040  136.2180 N   0  0  0  0  0  0  0  0  0  0  0  0
  184.8130  178.5330  141.2680 C   0  0  0  0  0  0  0  0  0  0  0  0
  185.7860  178.6790  142.2710 C   0  0  0  0  0  0  0  0  0  0  0  0
  184.1660  177.9720  138.9900 C   0  0  0  0  0  0  0  0  0  0  0  0
  179.9950  179.7220  137.4210 C   0  0  2  0  0  3  0  0  0  0  0  0
  184.5870  177.4190  137.8480 C   0  0  0  0  0  2  0  0  0  0  0  0
  181.9790  178.5540  136.9450 C   0  0  0  0  0  0  0  0  0  0  0  0
  180.7040  179.5110  134.9650 C   0  0  0  0  0  1  0  0  0  0  0  0
  180.4990  179.0750  138.7270 C   0  0  0  0  0  2  0  0  0  0  0  0
  183.4600  178.7660  141.5710 C   0  0  0  0  0  0  0  0  0  0  0  0
  181.8320  178.4670  138.3900 C   0  0  2  0  0  3  0  0  0  0  0  0
  185.1440  178.1300  139.9740 C   0  0  0  0  0  3  0  0  0  0  0  0
  183.1050  179.1470  142.8750 C   0  0  0  0  0  0  0  0  0  0  0  0
  184.0710  179.2920  143.8220 N   0  0  0  0  0  0  0  0  0  0  0  0
  182.5230  178.6640  140.5930 N   0  0  0  0  0  0  0  0  0  0  0  0
  185.3840  179.0690  143.5490 C   0  0  0  0  0  3  0  0  0  0  0  0
  180.9500  179.3460  136.3880 N   0  0  0  0  0  0  0  0  0  0  0  0
  183.7190  176.8920  136.7570 C   0  0  0  0  0  2  0  0  0  0  0  0
  182.8160  178.3170  139.3060 C   0  0  0  0  0  0  0  0  0  0  0  0
  179.9590  181.1720  137.5670 N   0  0  0  0  0  0  0  0  0  0  0  0
  178.9510  181.8630  138.1170 C   0  0  0  0  0  3  0  0  0  0  0  0
  180.5550  183.2390  137.5080 C   0  0  0  0  0  3  0  0  0  0  0  0
  179.2980  183.2030  138.0930 C   0  0  0  0  0  3  0  0  0  0  0  0
  180.9330  181.9840  137.2000 N   0  0  0  0  0  0  0  0  0  0  0  0
  187.5310  178.3940  141.9580 S   0  0  0  0  0  0  0  0  0  0  0  0
  187.7800  177.5620  143.5560 C   0  0  1  0  0  3  0  0  0  0  0  0
  187.0690  176.3630  143.5760 O   0  0  0  0  0  1  0  0  0  0  0  0
  189.8630  177.2840  145.2770 O   0  0  0  0  0  1  0  0  0  0  0  0
  189.5460  177.2240  143.8000 P   0  0  1  0  0  0  0  0  0  0  0  0
  189.9110  175.6810  143.2080 O   0  0  0  0  0  0  0  0  0  0  0  0
  190.9850  179.3730  143.9280 C   0  0  0  0  0  1  0  0  0  0  0  0
  190.4890  178.4270  142.9430 N   0  0  0  0  0  2  0  0  0  0  0  0
  181.6820  179.4360  143.2360 C   0  0  0  0  0  2  0  0  0  0  0  0
  181.0850  178.2900  144.0360 C   0  0  0  0  0  2  0  0  0  0  0  0
  179.3120  179.0830  142.9870 C   0  0  0  0  0  1  0  0  0  0  0  0
  179.7070  178.4680  144.1750 O   0  0  0  0  0  0  0  0  0  0  0  0
  1 18  1  0  0  0  0
  1  7  2  0  0  0  0
  2 10  1  0  0  0  0
  2  3  2  0  0  0  0
  3 16  1  0  0  0  0
  4 19  1  0  0  0  0
  4 12  2  0  0  0  0
  5 20  1  1  0  0  0
  5  9  1  0  0  0  0
  6  4  1  0  0  0  0
  7 11  1  0  0  0  0
  8 17  1  0  0  0  0
 10 13  2  0  0  0  0
 11  9  1  1  0  0  0
 11 19  1  0  0  0  0
 12  2  1  0  0  0  0
 13 33  1  0  0  0  0
 13 14  1  0  0  0  0
 15 10  1  0  0  0  0
 16 14  2  0  0  0  0
 17  7  1  0  0  0  0
 17  5  1  0  0  0  0
 18  6  1  0  0  0  0
 19 15  2  0  0  0  0
 20 21  1  0  0  0  0
 22 23  1  0  0  0  0
 23 21  2  0  0  0  0
 24 22  2  0  0  0  0
 24 20  1  0  0  0  0
 25  3  1  0  0  0  0
 25 26  1  0  0  0  0
 26 27  1  6  0  0  0
 26 29  1  0  0  0  0
 29 30  2  6  0  0  0
 29 28  1  0  0  0  0
 32 29  1  0  0  0  0
 32 31  1  0  0  0  0
 33 34  1  0  0  0  0
 34 36  1  0  0  0  0
 35 36  1  0  0  0  0
M  END
>  <MODEL>
7

>  <REMARK>
 VINA RESULT:      -5.5      3.086      5.873
  Name = 
  8 active torsions:
  status: ('A' for Active; 'I' for Inactive)
    1  A    between atoms: S_1  and  C_4
    2  A    between atoms: S_1  and  C_8
    3  A    between atoms: C_4  and  P_32
    4  A    between atoms: C_10  and  C_13
    5  A    between atoms: C_10  and  C_26
    6  A    between atoms: C_11  and  N_15
    7  A    between atoms: C_13  and  O_23
    8  A    between atoms: N_21  and  P_32
                            x       y       z     vdW  Elec       q    Type
                         _______ _______ _______ _____ _____    ______ ____

>  <TORSDO>
F 8

$$$$
=
 OpenBabel10222419393D

 36 40  0  0  1  0  0  0  0  0999 V2000
  182.4150  178.4150  138.3370 N   0  0  0  0  0  0  0  0  0  0  0  0
  187.6780  177.9960  139.7330 C   0  0  0  0  0  0  0  0  0  0  0  0
  188.8070  178.0480  140.5680 C   0  0  0  0  0  0  0  0  0  0  0  0
  185.3480  178.5180  139.2640 C   0  0  0  0  0  0  0  0  0  0  0  0
  183.1390  175.8300  135.9750 C   0  0  2  0  0  3  0  0  0  0  0  0
  184.2960  179.2390  139.6650 C   0  0  0  0  0  2  0  0  0  0  0  0
  182.9910  177.5140  137.6080 C   0  0  0  0  0  0  0  0  0  0  0  0
  180.8190  176.3890  136.9170 C   0  0  0  0  0  1  0  0  0  0  0  0
  184.5220  176.4980  136.1060 C   0  0  0  0  0  2  0  0  0  0  0  0
  187.7750  177.3920  138.4680 C   0  0  0  0  0  0  0  0  0  0  0  0
  184.4020  177.4610  137.2550 C   0  0  2  0  0  3  0  0  0  0  0  0
  186.4590  178.5600  140.1090 C   0  0  0  0  0  3  0  0  0  0  0  0
  189.0020  176.8420  138.0620 C   0  0  0  0  0  0  0  0  0  0  0  0
  190.0740  176.8960  138.8960 N   0  0  0  0  0  0  0  0  0  0  0  0
  186.6740  177.3060  137.6760 N   0  0  0  0  0  0  0  0  0  0  0  0
  190.0020  177.4790  140.1230 C   0  0  0  0  0  3  0  0  0  0  0  0
  182.2670  176.5160  136.9180 N   0  0  0  0  0  0  0  0  0  0  0  0
  183.1070  179.5890  138.8370 C   0  0  0  0  0  2  0  0  0  0  0  0
  185.4540  177.8050  138.0300 C   0  0  0  0  0  0  0  0  0  0  0  0
  183.2350  174.4170  136.3180 N   0  0  0  0  0  0  0  0  0  0  0  0
  184.1520  173.8870  137.1400 C   0  0  0  0  0  3  0  0  0  0  0  0
  182.7930  172.3140  136.4220 C   0  0  0  0  0  3  0  0  0  0  0  0
  183.9010  172.5290  137.2300 C   0  0  0  0  0  3  0  0  0  0  0  0
  182.4080  173.4840  135.8810 N   0  0  0  0  0  0  0  0  0  0  0  0
  188.7610  178.8080  142.1940 S   0  0  0  0  0  0  0  0  0  0  0  0
  188.8580  177.2080  143.0510 C   0  0  1  0  0  3  0  0  0  0  0  0
  188.6710  176.1740  142.1350 O   0  0  0  0  0  1  0  0  0  0  0  0
  191.0970  175.7160  143.4250 O   0  0  0  0  0  1  0  0  0  0  0  0
  190.4840  177.0340  143.8380 P   0  0  1  0  0  0  0  0  0  0  0  0
  191.4880  178.3020  143.3420 O   0  0  0  0  0  0  0  0  0  0  0  0
  188.8720  177.2230  145.8560 C   0  0  0  0  0  1  0  0  0  0  0  0
  190.2910  177.0760  145.5800 N   0  0  0  0  0  2  0  0  0  0  0  0
  189.1440  176.1600  136.7370 C   0  0  0  0  0  2  0  0  0  0  0  0
  189.8370  177.0690  135.7340 C   0  0  0  0  0  2  0  0  0  0  0  0
  191.2150  175.3610  135.4950 C   0  0  0  0  0  1  0  0  0  0  0  0
  190.4910  176.3040  134.7660 O   0  0  0  0  0  0  0  0  0  0  0  0
  1 18  1  0  0  0  0
  2 12  1  0  0  0  0
  2  3  2  0  0  0  0
  3 25  1  0  0  0  0
  4  6  1  0  0  0  0
  4 12  2  0  0  0  0
  5  9  1  1  0  0  0
  5 20  1  0  0  0  0
  5 17  1  0  0  0  0
  7  1  2  0  0  0  0
  8 17  1  0  0  0  0
 10  2  1  0  0  0  0
 11  9  1  1  0  0  0
 11  7  1  0  0  0  0
 11 19  1  0  0  0  0
 13 10  2  0  0  0  0
 13 14  1  0  0  0  0
 14 16  2  0  0  0  0
 15 19  2  0  0  0  0
 15 10  1  0  0  0  0
 16  3  1  0  0  0  0
 17  7  1  0  0  0  0
 18  6  1  0  0  0  0
 19  4  1  0  0  0  0
 20 21  1  0  0  0  0
 21 23  2  0  0  0  0
 22 23  1  0  0  0  0
 24 20  1  0  0  0  0
 24 22  2  0  0  0  0
 25 26  1  0  0  0  0
 26 27  1  6  0  0  0
 26 29  1  0  0  0  0
 28 29  1  0  0  0  0
 29 30  2  6  0  0  0
 29 32  1  0  0  0  0
 32 31  1  0  0  0  0
 33 13  1  0  0  0  0
 34 33  1  0  0  0  0
 36 35  1  0  0  0  0
 36 34  1  0  0  0  0
M  END
>  <MODEL>
8

>  <REMARK>
 VINA RESULT:      -5.3      2.422      3.803
  Name = 
  8 active torsions:
  status: ('A' for Active; 'I' for Inactive)
    1  A    between atoms: S_1  and  C_4
    2  A    between atoms: S_1  and  C_8
    3  A    between atoms: C_4  and  P_32
    4  A    between atoms: C_10  and  C_13
    5  A    between atoms: C_10  and  C_26
    6  A    between atoms: C_11  and  N_15
    7  A    between atoms: C_13  and  O_23
    8  A    between atoms: N_21  and  P_32
                            x       y       z     vdW  Elec       q    Type
                         _______ _______ _______ _____ _____    ______ ____

>  <TORSDO>
F 8

$$$$
=
 OpenBabel10222419393D

 36 40  0  0  1  0  0  0  0  0999 V2000
  189.9880  177.8660  138.0620 N   0  0  0  0  0  0  0  0  0  0  0  0
  184.8350  178.2360  139.8330 C   0  0  0  0  0  0  0  0  0  0  0  0
  183.4420  178.0520  139.8190 C   0  0  0  0  0  0  0  0  0  0  0  0
  187.0010  178.2010  138.7240 C   0  0  0  0  0  0  0  0  0  0  0  0
  190.8720  177.9130  141.5260 C   0  0  2  0  0  3  0  0  0  0  0  0
  187.6110  178.1040  137.5380 C   0  0  0  0  0  2  0  0  0  0  0  0
  189.9720  177.9170  139.3550 C   0  0  0  0  0  0  0  0  0  0  0  0
  192.3120  176.9610  139.6280 C   0  0  0  0  0  1  0  0  0  0  0  0
  189.5450  178.6960  141.5560 C   0  0  0  0  0  2  0  0  0  0  0  0
  185.4650  178.7020  141.0000 C   0  0  0  0  0  0  0  0  0  0  0  0
  188.9520  178.5430  140.1830 C   0  0  2  0  0  3  0  0  0  0  0  0
  185.6190  177.9980  138.7040 C   0  0  0  0  0  3  0  0  0  0  0  0
  184.6870  178.9710  142.1380 C   0  0  0  0  0  0  0  0  0  0  0  0
  183.3430  178.7720  142.0990 N   0  0  0  0  0  0  0  0  0  0  0  0
  186.8160  178.8420  141.0270 N   0  0  0  0  0  0  0  0  0  0  0  0
  182.7140  178.3250  140.9790 C   0  0  0  0  0  3  0  0  0  0  0  0
  191.0590  177.4840  140.1470 N   0  0  0  0  0  0  0  0  0  0  0  0
  189.0050  178.5370  137.2320 C   0  0  0  0  0  2  0  0  0  0  0  0
  187.6200  178.5760  139.9570 C   0  0  0  0  0  0  0  0  0  0  0  0
  190.7860  176.7530  142.4050 N   0  0  0  0  0  0  0  0  0  0  0  0
  191.7010  176.4170  143.3240 C   0  0  0  0  0  3  0  0  0  0  0  0
  190.0340  174.9830  143.3700 C   0  0  0  0  0  3  0  0  0  0  0  0
  191.2520  175.2760  143.9660 C   0  0  0  0  0  3  0  0  0  0  0  0
  189.7750  175.9040  142.4230 N   0  0  0  0  0  0  0  0  0  0  0  0
  182.5690  177.4650  138.3640 S   0  0  0  0  0  0  0  0  0  0  0  0
  180.9360  177.7800  139.0980 C   0  0  1  0  0  3  0  0  0  0  0  0
  180.3650  178.9050  138.5040 O   0  0  0  0  0  1  0  0  0  0  0  0
  178.9310  176.1960  140.0180 O   0  0  0  0  0  1  0  0  0  0  0  0
  179.8610  176.3430  138.8350 P   0  0  1  0  0  0  0  0  0  0  0  0
  178.9500  176.5700  137.4280 O   0  0  0  0  0  0  0  0  0  0  0  0
  180.5020  174.2750  137.4150 C   0  0  0  0  0  1  0  0  0  0  0  0
  180.8480  174.9030  138.6780 N   0  0  0  0  0  2  0  0  0  0  0  0
  185.3170  179.4380  143.4120 C   0  0  0  0  0  2  0  0  0  0  0  0
  185.5260  178.2750  144.3690 C   0  0  0  0  0  2  0  0  0  0  0  0
  186.8750  177.7910  146.0470 C   0  0  0  0  0  1  0  0  0  0  0  0
  186.8770  178.1650  144.7040 O   0  0  0  0  0  0  0  0  0  0  0  0
  1  7  2  0  0  0  0
  2 10  1  0  0  0  0
  3  2  2  0  0  0  0
  3 16  1  0  0  0  0
  4 19  1  0  0  0  0
  5  9  1  6  0  0  0
  5 20  1  0  0  0  0
  6  4  1  0  0  0  0
  7 17  1  0  0  0  0
  7 11  1  0  0  0  0
  8 17  1  0  0  0  0
 10 15  1  0  0  0  0
 10 13  2  0  0  0  0
 11  9  1  1  0  0  0
 12  4  2  0  0  0  0
 12  2  1  0  0  0  0
 13 33  1  0  0  0  0
 14 13  1  0  0  0  0
 16 14  2  0  0  0  0
 17  5  1  0  0  0  0
 18  6  1  0  0  0  0
 18  1  1  0  0  0  0
 19 11  1  0  0  0  0
 19 15  2  0  0  0  0
 20 24  1  0  0  0  0
 20 21  1  0  0  0  0
 21 23  2  0  0  0  0
 22 23  1  0  0  0  0
 24 22  2  0  0  0  0
 25 26  1  0  0  0  0
 25  3  1  0  0  0  0
 26 27  1  6  0  0  0
 29 30  2  6  0  0  0
 29 26  1  0  0  0  0
 29 28  1  0  0  0  0
 31 32  1  0  0  0  0
 32 29  1  0  0  0  0
 33 34  1  0  0  0  0
 34 36  1  0  0  0  0
 36 35  1  0  0  0  0
M  END
>  <MODEL>
9

>  <REMARK>
 VINA RESULT:      -5.1      3.939      8.845
  Name = 
  8 active torsions:
  status: ('A' for Active; 'I' for Inactive)
    1  A    between atoms: S_1  and  C_4
    2  A    between atoms: S_1  and  C_8
    3  A    between atoms: C_4  and  P_32
    4  A    between atoms: C_10  and  C_13
    5  A    between atoms: C_10  and  C_26
    6  A    between atoms: C_11  and  N_15
    7  A    between atoms: C_13  and  O_23
    8  A    between atoms: N_21  and  P_32
                            x       y       z     vdW  Elec       q    Type
                         _______ _______ _______ _____ _____    ______ ____

>  <TORSDO>
F 8

$$$$
