=
 OpenBabel10222420583D

 51 57  0  0  1  0  0  0  0  0999 V2000
  188.1930  178.3440  145.5510 N   0  0  0  0  0  0  0  0  0  0  0  0
  188.3940  177.3460  144.5320 N   0  0  2  0  0  0  0  0  0  0  0  0
  192.5570  178.5070  140.5040 O   0  0  0  0  0  0  0  0  0  0  0  0
  192.9770  176.6220  139.0080 O   0  0  0  0  0  0  0  0  0  0  0  0
  188.8710  175.9160  142.0720 C   0  0  0  0  0  1  0  0  0  0  0  0
  186.9640  177.7170  139.7980 C   0  0  0  0  0  2  0  0  0  0  0  0
  189.4510  177.7980  143.7310 N   0  0  0  0  0  2  0  0  0  0  0  0
  188.2040  177.9950  138.9580 C   0  0  2  0  0  3  0  0  0  0  0  0
  185.5790  180.2790  141.9610 F   0  0  0  0  0  0  0  0  0  0  0  0
  184.4260  178.4450  142.9710 C   0  0  0  0  0  2  0  0  0  0  0  0
  185.3740  178.9120  141.8750 C   0  0  1  0  0  3  0  0  0  0  0  0
  187.3520  178.3030  144.3820 C   0  0  1  0  0  3  0  0  0  0  0  0
  190.5190  177.7140  138.9340 C   0  0  2  0  0  3  0  0  0  0  0  0
  189.9010  176.6840  142.9000 C   0  0  2  0  0  0  0  0  0  0  0  0
  191.9530  177.2650  139.9030 S   0  0  0  0  0  0  0  0  0  0  0  0
  188.3600  176.7040  137.6880 S   0  0  0  0  0  0  0  0  0  0  0  0
  184.8300  178.5200  140.4970 C   0  0  2  0  0  3  0  0  0  0  0  0
  189.3870  177.9810  139.8060 N   0  0  0  0  0  2  0  0  0  0  0  0
  191.3190  176.8510  142.3880 C   0  0  1  0  0  3  0  0  0  0  0  0
  185.0360  178.6550  144.3480 C   0  0  0  0  0  2  0  0  0  0  0  0
  185.8730  178.6320  139.4580 N   0  0  0  0  0  0  0  0  0  0  0  0
  191.0100  175.8620  143.5090 C   0  0  0  0  0  2  0  0  0  0  0  0
  186.0600  177.6580  144.6000 N   0  0  0  0  0  2  0  0  0  0  0  0
  185.3080  178.1560  138.1940 C   0  0  0  0  0  1  0  0  0  0  0  0
  190.1480  176.6010  137.9750 C   0  0  1  0  0  3  0  0  0  0  0  0
  191.5160  176.1280  141.1390 N   0  0  0  0  0  2  0  0  0  0  0  0
  183.6090  179.3930  140.1740 C   0  0  0  0  0  2  0  0  0  0  0  0
  179.8030  175.6070  139.8410 C   0  0  0  0  0  1  0  0  0  0  0  0
  182.3690  178.5690  139.9510 C   0  0  0  0  0  0  0  0  0  0  0  0
  181.0550  179.0590  139.9030 C   0  0  0  0  0  0  0  0  0  0  0  0
  180.6220  176.8460  139.9080 C   0  0  0  0  0  0  0  0  0  0  0  0
  182.2990  176.8810  139.9960 S   0  0  0  0  0  0  0  0  0  0  0  0
  180.0970  178.0910  139.8610 N   0  0  0  0  0  0  0  0  0  0  0  0
  180.6990  180.4900  139.8230 C   0  0  0  0  0  0  0  0  0  0  0  0
  180.0850  181.0400  140.7760 O   0  0  0  0  0  0  0  0  0  0  0  0
  181.1180  181.2900  138.7150 N   0  0  0  0  0  2  0  0  0  0  0  0
  180.3860  182.2820  136.5050 C   0  0  0  0  0  2  0  0  0  0  0  0
  179.2250  181.5130  137.1250 C   0  0  0  0  0  2  0  0  0  0  0  0
  180.6450  181.0620  137.3530 C   0  0  0  0  0  0  0  0  0  0  0  0
  181.0550  179.7860  136.6430 C   0  0  0  0  0  1  0  0  0  0  0  0
  190.8980  176.7700  136.6670 C   0  0  0  0  0  2  0  0  0  0  0  0
  191.3210  174.4850  136.7980 C   0  0  0  0  0  1  0  0  0  0  0  0
  190.8610  175.5330  135.9070 N   0  0  0  0  0  2  0  0  0  0  0  0
  187.6390  177.6430  146.7070 C   0  0  0  0  0  2  0  0  0  0  0  0
  188.6740  177.5820  147.8230 C   0  0  1  0  0  3  0  0  0  0  0  0
  188.0340  177.5620  149.0600 O   0  0  0  0  0  1  0  0  0  0  0  0
  189.6120  176.3780  147.6740 C   0  0  0  0  0  2  0  0  0  0  0  0
  191.5970  177.6920  148.5160 O   0  0  0  0  0  1  0  0  0  0  0  0
  191.7630  176.7540  146.2490 C   0  0  0  0  0  2  0  0  0  0  0  0
  191.0850  176.7730  147.6000 C   0  0  0  0  0  0  0  0  0  0  0  0
  192.0410  175.6500  147.2660 C   0  0  0  0  0  2  0  0  0  0  0  0
  1 44  1  0  0  0  0
  2  7  1  6  0  0  0
  2  1  1  0  0  0  0
  4 15  2  0  0  0  0
  8  6  1  1  0  0  0
  8 18  1  0  0  0  0
 10 20  1  0  0  0  0
 11  9  1  6  0  0  0
 11 10  1  0  0  0  0
 12  2  1  0  0  0  0
 12 23  1  1  0  0  0
 12  1  1  0  0  0  0
 13 18  1  1  0  0  0
 13 15  1  0  0  0  0
 14  5  1  6  0  0  0
 14 22  1  0  0  0  0
 14  7  1  0  0  0  0
 15  3  2  0  0  0  0
 15 26  1  0  0  0  0
 16 25  1  0  0  0  0
 16  8  1  0  0  0  0
 17 27  1  6  0  0  0
 17 11  1  0  0  0  0
 19 14  1  0  0  0  0
 19 22  1  1  0  0  0
 20 23  1  0  0  0  0
 21  6  1  0  0  0  0
 21 17  1  0  0  0  0
 24 21  1  0  0  0  0
 25 41  1  6  0  0  0
 25 13  1  0  0  0  0
 26 19  1  0  0  0  0
 28 31  1  0  0  0  0
 29 32  1  0  0  0  0
 29 27  1  0  0  0  0
 30 29  2  0  0  0  0
 31 32  1  0  0  0  0
 33 30  1  0  0  0  0
 33 31  2  0  0  0  0
 34 30  1  0  0  0  0
 34 35  2  0  0  0  0
 36 34  1  0  0  0  0
 37 38  1  0  0  0  0
 37 39  1  0  0  0  0
 38 39  1  0  0  0  0
 39 36  1  0  0  0  0
 40 39  1  0  0  0  0
 43 41  1  0  0  0  0
 43 42  1  0  0  0  0
 44 45  1  0  0  0  0
 45 46  1  1  0  0  0
 47 45  1  0  0  0  0
 49 51  1  0  0  0  0
 49 50  1  0  0  0  0
 50 47  1  0  0  0  0
 50 48  1  0  0  0  0
 51 50  1  0  0  0  0
M  END
>  <MODEL>
1

>  <REMARK>
 VINA RESULT:      -6.5      0.000      0.000
  Name = 
  10 active torsions:
  status: ('A' for Active; 'I' for Inactive)
    1  A    between atoms: N_1  and  C_37
    2  A    between atoms: C_9  and  C_17
    3  A    between atoms: C_9  and  C_37
    4  A    between atoms: C_11  and  C_35
    5  A    between atoms: C_17  and  C_28
    6  A    between atoms: C_25  and  C_31
    7  A    between atoms: C_31  and  C_34
    8  A    between atoms: C_32  and  N_38
    9  A    between atoms: C_32  and  C_49
   10  A    between atoms: N_33  and  C_36
                            x       y       z     vdW  Elec       q    Type
                         _______ _______ _______ _____ _____    ______ ____

>  <TORSDO>
F 10

$$$$
=
 OpenBabel10222420583D

 51 57  0  0  1  0  0  0  0  0999 V2000
  187.7880  176.6210  136.9370 N   0  0  0  0  0  0  0  0  0  0  0  0
  188.1680  177.4990  138.0130 N   0  0  2  0  0  0  0  0  0  0  0  0
  190.1450  174.9090  142.9410 O   0  0  0  0  0  0  0  0  0  0  0  0
  191.0050  176.5110  144.5720 O   0  0  0  0  0  0  0  0  0  0  0  0
  188.6220  178.7580  140.5700 C   0  0  0  0  0  1  0  0  0  0  0  0
  185.5930  178.2430  142.1870 C   0  0  0  0  0  2  0  0  0  0  0  0
  188.6530  176.6830  139.0450 N   0  0  0  0  0  2  0  0  0  0  0  0
  186.3040  177.4990  143.3100 C   0  0  2  0  0  3  0  0  0  0  0  0
  183.7670  176.4280  139.6310 F   0  0  0  0  0  0  0  0  0  0  0  0
  183.8980  178.4910  138.4310 C   0  0  0  0  0  2  0  0  0  0  0  0
  184.2090  177.7370  139.7160 C   0  0  1  0  0  3  0  0  0  0  0  0
  186.8010  177.1460  137.8450 C   0  0  1  0  0  3  0  0  0  0  0  0
  188.3930  176.6840  143.9530 C   0  0  2  0  0  3  0  0  0  0  0  0
  189.3450  177.5330  140.0100 C   0  0  2  0  0  0  0  0  0  0  0  0
  190.0610  176.3360  143.4140 S   0  0  0  0  0  0  0  0  0  0  0  0
  186.7200  178.6780  144.6290 S   0  0  0  0  0  0  0  0  0  0  0  0
  183.5850  178.4540  140.9190 C   0  0  2  0  0  3  0  0  0  0  0  0
  187.5270  176.8930  142.8040 N   0  0  0  0  0  2  0  0  0  0  0  0
  190.3410  176.7770  140.8700 C   0  0  1  0  0  3  0  0  0  0  0  0
  184.6640  177.9040  137.2550 C   0  0  0  0  0  2  0  0  0  0  0  0
  184.1560  177.9660  142.1900 N   0  0  0  0  0  0  0  0  0  0  0  0
  190.8220  177.6960  139.7490 C   0  0  0  0  0  2  0  0  0  0  0  0
  186.0610  178.2920  137.3230 N   0  0  0  0  0  2  0  0  0  0  0  0
  183.5820  178.7560  143.2790 C   0  0  0  0  0  1  0  0  0  0  0  0
  188.3560  177.9220  144.8260 C   0  0  1  0  0  3  0  0  0  0  0  0
  190.5320  177.4350  142.1550 N   0  0  0  0  0  2  0  0  0  0  0  0
  182.0600  178.2730  140.8730 C   0  0  0  0  0  2  0  0  0  0  0  0
  180.7720  182.0800  137.2980 C   0  0  0  0  0  1  0  0  0  0  0  0
  181.4120  179.1970  139.8770 C   0  0  0  0  0  0  0  0  0  0  0  0
  180.3390  178.8730  139.0340 C   0  0  0  0  0  0  0  0  0  0  0  0
  180.8880  180.8830  138.1730 C   0  0  0  0  0  0  0  0  0  0  0  0
  182.0280  180.6940  139.3910 S   0  0  0  0  0  0  0  0  0  0  0  0
  180.0470  179.8270  138.1050 N   0  0  0  0  0  0  0  0  0  0  0  0
  179.5170  177.6520  139.1590 C   0  0  0  0  0  0  0  0  0  0  0  0
  178.9320  177.3940  140.2450 O   0  0  0  0  0  0  0  0  0  0  0  0
  179.2990  176.7960  138.0340 N   0  0  0  0  0  2  0  0  0  0  0  0
  180.2760  174.5420  137.4240 C   0  0  0  0  0  2  0  0  0  0  0  0
  181.2310  175.2720  138.3610 C   0  0  0  0  0  2  0  0  0  0  0  0
  180.3750  176.0470  137.3930 C   0  0  0  0  0  0  0  0  0  0  0  0
  181.1080  176.6790  136.2240 C   0  0  0  0  0  1  0  0  0  0  0  0
  188.5850  177.5410  146.2780 C   0  0  0  0  0  2  0  0  0  0  0  0
  187.9920  178.1160  148.4530 C   0  0  0  0  0  1  0  0  0  0  0  0
  187.4870  178.0200  147.0980 N   0  0  0  0  0  2  0  0  0  0  0  0
  187.9360  177.3950  135.7070 C   0  0  0  0  0  2  0  0  0  0  0  0
  188.8590  176.6650  134.7400 C   0  0  1  0  0  3  0  0  0  0  0  0
  190.0500  177.3730  134.5960 O   0  0  0  0  0  1  0  0  0  0  0  0
  189.1320  175.2220  135.1830 C   0  0  0  0  0  2  0  0  0  0  0  0
  191.0620  175.9820  136.6230 O   0  0  0  0  0  1  0  0  0  0  0  0
  191.5460  174.2720  134.9230 C   0  0  0  0  0  2  0  0  0  0  0  0
  190.5340  175.0250  135.7540 C   0  0  0  0  0  0  0  0  0  0  0  0
  190.8890  173.6040  136.1270 C   0  0  0  0  0  2  0  0  0  0  0  0
  1 12  1  0  0  0  0
  1  2  1  0  0  0  0
  2  7  1  1  0  0  0
  3 15  2  0  0  0  0
  6 21  1  0  0  0  0
  7 14  1  0  0  0  0
  8  6  1  6  0  0  0
  8 16  1  0  0  0  0
 10 11  1  0  0  0  0
 11  9  1  6  0  0  0
 11 17  1  0  0  0  0
 12 23  1  6  0  0  0
 12  2  1  0  0  0  0
 13 18  1  6  0  0  0
 13 25  1  0  0  0  0
 14  5  1  1  0  0  0
 14 19  1  0  0  0  0
 15 13  1  0  0  0  0
 15  4  2  0  0  0  0
 16 25  1  0  0  0  0
 17 27  1  1  0  0  0
 17 21  1  0  0  0  0
 18  8  1  0  0  0  0
 19 22  1  6  0  0  0
 19 26  1  0  0  0  0
 20 23  1  0  0  0  0
 20 10  1  0  0  0  0
 21 24  1  0  0  0  0
 22 14  1  0  0  0  0
 25 41  1  1  0  0  0
 26 15  1  0  0  0  0
 28 31  1  0  0  0  0
 29 27  1  0  0  0  0
 30 34  1  0  0  0  0
 30 29  2  0  0  0  0
 31 32  1  0  0  0  0
 32 29  1  0  0  0  0
 33 31  2  0  0  0  0
 33 30  1  0  0  0  0
 34 35  2  0  0  0  0
 36 34  1  0  0  0  0
 37 38  1  0  0  0  0
 39 37  1  0  0  0  0
 39 36  1  0  0  0  0
 39 38  1  0  0  0  0
 40 39  1  0  0  0  0
 41 43  1  0  0  0  0
 43 42  1  0  0  0  0
 44  1  1  0  0  0  0
 45 46  1  1  0  0  0
 45 47  1  0  0  0  0
 45 44  1  0  0  0  0
 47 50  1  0  0  0  0
 49 50  1  0  0  0  0
 49 51  1  0  0  0  0
 50 51  1  0  0  0  0
 50 48  1  0  0  0  0
M  END
>  <MODEL>
2

>  <REMARK>
 VINA RESULT:      -6.1      2.607      7.129
  Name = 
  10 active torsions:
  status: ('A' for Active; 'I' for Inactive)
    1  A    between atoms: N_1  and  C_37
    2  A    between atoms: C_9  and  C_17
    3  A    between atoms: C_9  and  C_37
    4  A    between atoms: C_11  and  C_35
    5  A    between atoms: C_17  and  C_28
    6  A    between atoms: C_25  and  C_31
    7  A    between atoms: C_31  and  C_34
    8  A    between atoms: C_32  and  N_38
    9  A    between atoms: C_32  and  C_49
   10  A    between atoms: N_33  and  C_36
                            x       y       z     vdW  Elec       q    Type
                         _______ _______ _______ _____ _____    ______ ____

>  <TORSDO>
F 10

$$$$
=
 OpenBabel10222420583D

 51 57  0  0  1  0  0  0  0  0999 V2000
  188.5100  178.3280  145.4350 N   0  0  0  0  0  0  0  0  0  0  0  0
  188.7580  177.3280  144.4290 N   0  0  2  0  0  0  0  0  0  0  0  0
  192.8150  178.6590  140.3460 O   0  0  0  0  0  0  0  0  0  0  0  0
  193.3270  176.7780  138.8740 O   0  0  0  0  0  0  0  0  0  0  0  0
  189.2930  175.8900  141.9850 C   0  0  0  0  0  1  0  0  0  0  0  0
  187.2690  177.5470  139.7030 C   0  0  0  0  0  2  0  0  0  0  0  0
  189.7810  177.8260  143.6120 N   0  0  0  0  0  2  0  0  0  0  0  0
  188.4850  177.8820  138.8480 C   0  0  2  0  0  3  0  0  0  0  0  0
  185.7610  180.0590  141.8420 F   0  0  0  0  0  0  0  0  0  0  0  0
  184.7220  178.1790  142.8880 C   0  0  0  0  0  2  0  0  0  0  0  0
  185.6330  178.6820  141.7780 C   0  0  1  0  0  3  0  0  0  0  0  0
  187.6630  178.2220  144.2750 C   0  0  1  0  0  3  0  0  0  0  0  0
  190.8120  177.7300  138.8070 C   0  0  2  0  0  3  0  0  0  0  0  0
  190.2860  176.7260  142.7930 C   0  0  2  0  0  0  0  0  0  0  0  0
  192.2760  177.3770  139.7690 S   0  0  0  0  0  0  0  0  0  0  0  0
  188.7030  176.5820  137.5950 S   0  0  0  0  0  0  0  0  0  0  0  0
  185.1000  178.2390  140.4100 C   0  0  2  0  0  3  0  0  0  0  0  0
  189.6740  177.9460  139.6850 N   0  0  0  0  0  2  0  0  0  0  0  0
  191.6880  176.9650  142.2650 C   0  0  1  0  0  3  0  0  0  0  0  0
  185.3300  178.4440  144.2570 C   0  0  0  0  0  2  0  0  0  0  0  0
  186.1260  178.3940  139.3600 N   0  0  0  0  0  0  0  0  0  0  0  0
  191.4440  175.9760  143.4030 C   0  0  0  0  0  2  0  0  0  0  0  0
  186.4110  177.5090  144.5130 N   0  0  0  0  0  2  0  0  0  0  0  0
  185.5790  177.8690  138.1090 C   0  0  0  0  0  1  0  0  0  0  0  0
  190.4960  176.5840  137.8680 C   0  0  1  0  0  3  0  0  0  0  0  0
  191.9140  176.2350  141.0260 N   0  0  0  0  0  2  0  0  0  0  0  0
  183.8290  179.0380  140.0860 C   0  0  0  0  0  2  0  0  0  0  0  0
  180.4300  175.0030  139.0390 C   0  0  0  0  0  1  0  0  0  0  0  0
  182.6550  178.1400  139.8000 C   0  0  0  0  0  0  0  0  0  0  0  0
  181.3300  178.3700  140.1960 C   0  0  0  0  0  0  0  0  0  0  0  0
  181.1210  176.2620  139.4250 C   0  0  0  0  0  0  0  0  0  0  0  0
  182.7580  176.5640  139.1990 S   0  0  0  0  0  0  0  0  0  0  0  0
  180.4850  177.3260  139.9640 N   0  0  0  0  0  0  0  0  0  0  0  0
  180.8310  179.6480  140.7470 C   0  0  0  0  0  0  0  0  0  0  0  0
  181.0940  180.7310  140.1610 O   0  0  0  0  0  0  0  0  0  0  0  0
  179.9760  179.6690  141.8920 N   0  0  0  0  0  2  0  0  0  0  0  0
  179.8070  177.9630  143.7540 C   0  0  0  0  0  2  0  0  0  0  0  0
  179.3410  179.3200  144.2670 C   0  0  0  0  0  2  0  0  0  0  0  0
  180.4160  179.2320  143.2130 C   0  0  0  0  0  0  0  0  0  0  0  0
  181.8180  179.5880  143.6700 C   0  0  0  0  0  1  0  0  0  0  0  0
  191.2240  176.7750  136.5500 C   0  0  0  0  0  2  0  0  0  0  0  0
  192.2010  175.7140  134.7230 C   0  0  0  0  0  1  0  0  0  0  0  0
  191.7650  175.5080  136.0900 N   0  0  0  0  0  2  0  0  0  0  0  0
  188.0060  177.6140  146.6060 C   0  0  0  0  0  2  0  0  0  0  0  0
  189.0660  177.5940  147.7000 C   0  0  1  0  0  3  0  0  0  0  0  0
  188.4690  177.7970  148.9410 O   0  0  0  0  0  1  0  0  0  0  0  0
  189.8790  176.2940  147.6900 C   0  0  0  0  0  2  0  0  0  0  0  0
  191.6330  177.6380  146.4680 O   0  0  0  0  0  1  0  0  0  0  0  0
  192.1070  175.2520  146.8260 C   0  0  0  0  0  2  0  0  0  0  0  0
  191.3050  176.4830  147.1800 C   0  0  0  0  0  0  0  0  0  0  0  0
  192.3960  176.0150  148.1150 C   0  0  0  0  0  2  0  0  0  0  0  0
  1 44  1  0  0  0  0
  2  7  1  6  0  0  0
  2  1  1  0  0  0  0
  4 15  2  0  0  0  0
  8 18  1  0  0  0  0
  8  6  1  1  0  0  0
 10 20  1  0  0  0  0
 11  9  1  6  0  0  0
 11 10  1  0  0  0  0
 12  2  1  0  0  0  0
 12 23  1  1  0  0  0
 12  1  1  0  0  0  0
 13 18  1  1  0  0  0
 13 15  1  0  0  0  0
 14  5  1  6  0  0  0
 14 22  1  0  0  0  0
 14  7  1  0  0  0  0
 15  3  2  0  0  0  0
 15 26  1  0  0  0  0
 16 25  1  0  0  0  0
 16  8  1  0  0  0  0
 17 27  1  6  0  0  0
 17 11  1  0  0  0  0
 19 14  1  0  0  0  0
 19 22  1  1  0  0  0
 20 23  1  0  0  0  0
 21  6  1  0  0  0  0
 21 17  1  0  0  0  0
 24 21  1  0  0  0  0
 25 41  1  6  0  0  0
 25 13  1  0  0  0  0
 26 19  1  0  0  0  0
 28 31  1  0  0  0  0
 29 27  1  0  0  0  0
 29 30  2  0  0  0  0
 30 34  1  0  0  0  0
 31 33  2  0  0  0  0
 32 31  1  0  0  0  0
 32 29  1  0  0  0  0
 33 30  1  0  0  0  0
 34 36  1  0  0  0  0
 35 34  2  0  0  0  0
 36 39  1  0  0  0  0
 37 38  1  0  0  0  0
 39 40  1  0  0  0  0
 39 37  1  0  0  0  0
 39 38  1  0  0  0  0
 42 43  1  0  0  0  0
 43 41  1  0  0  0  0
 44 45  1  0  0  0  0
 45 46  1  1  0  0  0
 47 45  1  0  0  0  0
 48 50  1  0  0  0  0
 49 50  1  0  0  0  0
 49 51  1  0  0  0  0
 50 47  1  0  0  0  0
 50 51  1  0  0  0  0
M  END
>  <MODEL>
3

>  <REMARK>
 VINA RESULT:      -6.1      1.477      2.246
  Name = 
  10 active torsions:
  status: ('A' for Active; 'I' for Inactive)
    1  A    between atoms: N_1  and  C_37
    2  A    between atoms: C_9  and  C_17
    3  A    between atoms: C_9  and  C_37
    4  A    between atoms: C_11  and  C_35
    5  A    between atoms: C_17  and  C_28
    6  A    between atoms: C_25  and  C_31
    7  A    between atoms: C_31  and  C_34
    8  A    between atoms: C_32  and  N_38
    9  A    between atoms: C_32  and  C_49
   10  A    between atoms: N_33  and  C_36
                            x       y       z     vdW  Elec       q    Type
                         _______ _______ _______ _____ _____    ______ ____

>  <TORSDO>
F 10

$$$$
=
 OpenBabel10222420583D

 51 57  0  0  1  0  0  0  0  0999 V2000
  185.4420  178.0660  142.9100 N   0  0  0  0  0  0  0  0  0  0  0  0
  184.7170  178.6660  141.8200 N   0  0  2  0  0  0  0  0  0  0  0  0
  180.6630  175.2760  139.1800 O   0  0  0  0  0  0  0  0  0  0  0  0
  179.3280  176.5010  137.5400 O   0  0  0  0  0  0  0  0  0  0  0  0
  183.3360  179.2230  139.3480 C   0  0  0  0  0  1  0  0  0  0  0  0
  185.3600  177.6470  137.0090 C   0  0  0  0  0  2  0  0  0  0  0  0
  183.7830  177.7150  141.3870 N   0  0  0  0  0  2  0  0  0  0  0  0
  184.1880  176.7860  136.5550 C   0  0  2  0  0  3  0  0  0  0  0  0
  187.9390  176.2800  139.1630 F   0  0  0  0  0  0  0  0  0  0  0  0
  188.4840  178.5750  139.5420 C   0  0  0  0  0  2  0  0  0  0  0  0
  187.6050  177.5750  138.8040 C   0  0  1  0  0  3  0  0  0  0  0  0
  185.9970  178.0940  141.5810 C   0  0  1  0  0  3  0  0  0  0  0  0
  181.9650  176.2840  137.0510 C   0  0  2  0  0  3  0  0  0  0  0  0
  182.8190  178.3860  140.5180 C   0  0  2  0  0  0  0  0  0  0  0  0
  180.6530  176.4620  138.2520 S   0  0  0  0  0  0  0  0  0  0  0  0
  183.3530  177.6080  135.1660 S   0  0  0  0  0  0  0  0  0  0  0  0
  187.7240  177.7770  137.2890 C   0  0  2  0  0  3  0  0  0  0  0  0
  183.2450  176.6190  137.6520 N   0  0  0  0  0  2  0  0  0  0  0  0
  181.4990  177.6480  140.4030 C   0  0  1  0  0  3  0  0  0  0  0  0
  188.2370  178.5180  141.0420 C   0  0  0  0  0  2  0  0  0  0  0  0
  186.6370  177.0840  136.5690 N   0  0  0  0  0  0  0  0  0  0  0  0
  181.6050  178.9240  141.2340 C   0  0  0  0  0  2  0  0  0  0  0  0
  186.9760  179.1570  141.3660 N   0  0  0  0  0  2  0  0  0  0  0  0
  186.7640  177.3970  135.1460 C   0  0  0  0  0  1  0  0  0  0  0  0
  181.7300  177.1900  135.8590 C   0  0  1  0  0  3  0  0  0  0  0  0
  180.8410  177.9430  139.1380 N   0  0  0  0  0  2  0  0  0  0  0  0
  189.1090  177.2980  136.8280 C   0  0  0  0  0  2  0  0  0  0  0  0
  188.8510  171.9670  136.1560 C   0  0  0  0  0  1  0  0  0  0  0  0
  189.2370  175.7990  136.8900 C   0  0  0  0  0  0  0  0  0  0  0  0
  190.3380  175.0900  137.3920 C   0  0  0  0  0  0  0  0  0  0  0  0
  189.1780  173.3790  136.4920 C   0  0  0  0  0  0  0  0  0  0  0  0
  188.2110  174.7000  136.1190 S   0  0  0  0  0  0  0  0  0  0  0  0
  190.2830  173.7440  137.1800 N   0  0  0  0  0  0  0  0  0  0  0  0
  191.4450  175.6970  138.1600 C   0  0  0  0  0  0  0  0  0  0  0  0
  191.2230  176.6840  138.9100 O   0  0  0  0  0  0  0  0  0  0  0  0
  192.7550  175.1260  138.1340 N   0  0  0  0  0  2  0  0  0  0  0  0
  193.7830  173.7310  136.2890 C   0  0  0  0  0  2  0  0  0  0  0  0
  194.8900  174.3750  137.1150 C   0  0  0  0  0  2  0  0  0  0  0  0
  193.5730  175.0820  136.9260 C   0  0  0  0  0  0  0  0  0  0  0  0
  193.6010  176.2980  136.0190 C   0  0  0  0  0  1  0  0  0  0  0  0
  180.8860  176.4750  134.8200 C   0  0  0  0  0  2  0  0  0  0  0  0
  179.9340  174.3640  134.5950 C   0  0  0  0  0  1  0  0  0  0  0  0
  181.1880  175.0550  134.8240 N   0  0  0  0  0  2  0  0  0  0  0  0
  185.8840  179.1660  143.7630 C   0  0  0  0  0  2  0  0  0  0  0  0
  185.8730  178.7310  145.2220 C   0  0  1  0  0  3  0  0  0  0  0  0
  184.5610  178.5620  145.6570 O   0  0  0  0  0  1  0  0  0  0  0  0
  186.6920  177.4550  145.4490 C   0  0  0  0  0  2  0  0  0  0  0  0
  189.1170  178.1450  145.5970 O   0  0  0  0  0  1  0  0  0  0  0  0
  188.2080  176.8550  147.4830 C   0  0  0  0  0  2  0  0  0  0  0  0
  187.9680  177.6960  146.2510 C   0  0  0  0  0  0  0  0  0  0  0  0
  187.7690  178.3100  147.6180 C   0  0  0  0  0  2  0  0  0  0  0  0
  1 44  1  0  0  0  0
  2  7  1  6  0  0  0
  2  1  1  0  0  0  0
  4 15  2  0  0  0  0
  8  6  1  1  0  0  0
  8 18  1  0  0  0  0
 10 20  1  0  0  0  0
 11  9  1  6  0  0  0
 11 10  1  0  0  0  0
 12 23  1  1  0  0  0
 12  2  1  0  0  0  0
 12  1  1  0  0  0  0
 13 18  1  1  0  0  0
 13 15  1  0  0  0  0
 14  5  1  6  0  0  0
 14 22  1  0  0  0  0
 14  7  1  0  0  0  0
 15 26  1  0  0  0  0
 15  3  2  0  0  0  0
 16 25  1  0  0  0  0
 16  8  1  0  0  0  0
 17 27  1  6  0  0  0
 17 11  1  0  0  0  0
 19 14  1  0  0  0  0
 19 22  1  1  0  0  0
 20 23  1  0  0  0  0
 21  6  1  0  0  0  0
 21 17  1  0  0  0  0
 24 21  1  0  0  0  0
 25 41  1  6  0  0  0
 25 13  1  0  0  0  0
 26 19  1  0  0  0  0
 27 29  1  0  0  0  0
 28 31  1  0  0  0  0
 29 30  2  0  0  0  0
 30 34  1  0  0  0  0
 31 33  2  0  0  0  0
 32 31  1  0  0  0  0
 32 29  1  0  0  0  0
 33 30  1  0  0  0  0
 34 35  2  0  0  0  0
 36 34  1  0  0  0  0
 37 39  1  0  0  0  0
 37 38  1  0  0  0  0
 39 38  1  0  0  0  0
 39 36  1  0  0  0  0
 40 39  1  0  0  0  0
 41 43  1  0  0  0  0
 42 43  1  0  0  0  0
 44 45  1  0  0  0  0
 45 47  1  0  0  0  0
 45 46  1  6  0  0  0
 47 50  1  0  0  0  0
 48 50  1  0  0  0  0
 49 51  1  0  0  0  0
 50 49  1  0  0  0  0
 50 51  1  0  0  0  0
M  END
>  <MODEL>
4

>  <REMARK>
 VINA RESULT:      -5.9      2.968      8.709
  Name = 
  10 active torsions:
  status: ('A' for Active; 'I' for Inactive)
    1  A    between atoms: N_1  and  C_37
    2  A    between atoms: C_9  and  C_17
    3  A    between atoms: C_9  and  C_37
    4  A    between atoms: C_11  and  C_35
    5  A    between atoms: C_17  and  C_28
    6  A    between atoms: C_25  and  C_31
    7  A    between atoms: C_31  and  C_34
    8  A    between atoms: C_32  and  N_38
    9  A    between atoms: C_32  and  C_49
   10  A    between atoms: N_33  and  C_36
                            x       y       z     vdW  Elec       q    Type
                         _______ _______ _______ _____ _____    ______ ____

>  <TORSDO>
F 10

$$$$
=
 OpenBabel10222420583D

 51 57  0  0  1  0  0  0  0  0999 V2000
  183.6740  180.0160  138.9100 N   0  0  0  0  0  0  0  0  0  0  0  0
  183.8040  178.9740  139.8950 N   0  0  2  0  0  0  0  0  0  0  0  0
  185.3070  180.6850  145.3460 O   0  0  0  0  0  0  0  0  0  0  0  0
  185.2260  178.8590  146.9670 O   0  0  0  0  0  0  0  0  0  0  0  0
  184.6190  177.2760  142.0810 C   0  0  0  0  0  1  0  0  0  0  0  0
  188.0740  177.2550  141.7420 C   0  0  0  0  0  2  0  0  0  0  0  0
  184.1060  179.6050  141.1090 N   0  0  0  0  0  2  0  0  0  0  0  0
  188.2280  177.8130  143.1510 C   0  0  2  0  0  3  0  0  0  0  0  0
  188.4780  179.4020  138.8460 F   0  0  0  0  0  0  0  0  0  0  0  0
  187.3700  177.6270  137.6920 C   0  0  0  0  0  2  0  0  0  0  0  0
  187.9430  178.1350  139.0070 C   0  0  1  0  0  3  0  0  0  0  0  0
  184.8920  179.2580  139.0250 C   0  0  1  0  0  3  0  0  0  0  0  0
  187.0020  178.6300  144.9590 C   0  0  2  0  0  3  0  0  0  0  0  0
  183.9240  178.6330  142.1850 C   0  0  2  0  0  0  0  0  0  0  0  0
  185.3970  179.1910  145.5090 S   0  0  0  0  0  0  0  0  0  0  0  0
  188.4120  176.4310  144.3170 S   0  0  0  0  0  0  0  0  0  0  0  0
  188.9940  177.1570  139.5440 C   0  0  2  0  0  3  0  0  0  0  0  0
  187.0490  178.5890  143.5070 N   0  0  0  0  0  2  0  0  0  0  0  0
  183.7020  179.2740  143.5420 C   0  0  1  0  0  3  0  0  0  0  0  0
  186.1970  178.4830  137.2390 C   0  0  0  0  0  2  0  0  0  0  0  0
  189.3010  177.4260  140.9630 N   0  0  0  0  0  0  0  0  0  0  0  0
  182.5420  178.6270  142.7900 C   0  0  0  0  0  2  0  0  0  0  0  0
  185.0230  178.1870  138.0400 N   0  0  0  0  0  2  0  0  0  0  0  0
  190.2360  176.4010  141.4280 C   0  0  0  0  0  1  0  0  0  0  0  0
  187.3030  177.2460  145.4980 C   0  0  1  0  0  3  0  0  0  0  0  0
  184.1390  178.3940  144.6160 N   0  0  0  0  0  2  0  0  0  0  0  0
  190.2500  177.2380  138.6640 C   0  0  0  0  0  2  0  0  0  0  0  0
  190.2840  172.7030  135.7710 C   0  0  0  0  0  1  0  0  0  0  0  0
  190.5490  175.9270  137.9850 C   0  0  0  0  0  0  0  0  0  0  0  0
  191.8260  175.4300  137.6870 C   0  0  0  0  0  0  0  0  0  0  0  0
  190.5750  173.9190  136.5760 C   0  0  0  0  0  0  0  0  0  0  0  0
  189.4090  174.9470  137.2120 S   0  0  0  0  0  0  0  0  0  0  0  0
  191.8250  174.3050  136.9180 N   0  0  0  0  0  0  0  0  0  0  0  0
  193.0870  176.0000  138.2050 C   0  0  0  0  0  0  0  0  0  0  0  0
  193.0580  176.9820  138.9930 O   0  0  0  0  0  0  0  0  0  0  0  0
  194.3460  175.3980  137.8940 N   0  0  0  0  0  2  0  0  0  0  0  0
  195.1660  173.9860  135.9600 C   0  0  0  0  0  2  0  0  0  0  0  0
  196.3070  174.8570  136.4720 C   0  0  0  0  0  2  0  0  0  0  0  0
  194.8850  175.3510  136.5380 C   0  0  0  0  0  0  0  0  0  0  0  0
  194.5270  176.4630  135.5720 C   0  0  0  0  0  1  0  0  0  0  0  0
  187.9720  177.3510  146.8560 C   0  0  0  0  0  2  0  0  0  0  0  0
  190.1760  176.9840  147.5060 C   0  0  0  0  0  1  0  0  0  0  0  0
  189.3280  177.8470  146.7070 N   0  0  0  0  0  2  0  0  0  0  0  0
  182.7510  179.5100  137.8970 C   0  0  0  0  0  2  0  0  0  0  0  0
  181.4820  180.3530  137.8800 C   0  0  1  0  0  3  0  0  0  0  0  0
  180.4960  179.7400  138.6500 O   0  0  0  0  0  1  0  0  0  0  0  0
  181.7370  181.7870  138.3580 C   0  0  0  0  0  2  0  0  0  0  0  0
  179.5200  182.9960  138.3720 O   0  0  0  0  0  1  0  0  0  0  0  0
  180.8000  183.0390  136.2720 C   0  0  0  0  0  2  0  0  0  0  0  0
  180.7610  182.7990  137.7640 C   0  0  0  0  0  0  0  0  0  0  0  0
  181.3870  184.0690  137.2330 C   0  0  0  0  0  2  0  0  0  0  0  0
  1 12  1  0  0  0  0
  1  2  1  0  0  0  0
  2  7  1  1  0  0  0
  3 15  2  0  0  0  0
  7 14  1  0  0  0  0
  8  6  1  6  0  0  0
  8 18  1  0  0  0  0
  8 16  1  0  0  0  0
 10 11  1  0  0  0  0
 11  9  1  6  0  0  0
 11 17  1  0  0  0  0
 12 23  1  6  0  0  0
 12  2  1  0  0  0  0
 13 18  1  6  0  0  0
 13 25  1  0  0  0  0
 13 15  1  0  0  0  0
 14  5  1  6  0  0  0
 14 22  1  0  0  0  0
 14 19  1  0  0  0  0
 15  4  2  0  0  0  0
 16 25  1  0  0  0  0
 17 27  1  6  0  0  0
 17 21  1  0  0  0  0
 19 22  1  1  0  0  0
 19 26  1  0  0  0  0
 20 10  1  0  0  0  0
 20 23  1  0  0  0  0
 21 24  1  0  0  0  0
 21  6  1  0  0  0  0
 25 41  1  1  0  0  0
 26 15  1  0  0  0  0
 28 31  1  0  0  0  0
 29 27  1  0  0  0  0
 30 29  2  0  0  0  0
 30 34  1  0  0  0  0
 31 33  2  0  0  0  0
 31 32  1  0  0  0  0
 32 29  1  0  0  0  0
 33 30  1  0  0  0  0
 34 35  2  0  0  0  0
 36 34  1  0  0  0  0
 37 38  1  0  0  0  0
 37 39  1  0  0  0  0
 38 39  1  0  0  0  0
 39 36  1  0  0  0  0
 40 39  1  0  0  0  0
 43 41  1  0  0  0  0
 43 42  1  0  0  0  0
 44  1  1  0  0  0  0
 45 44  1  0  0  0  0
 45 47  1  0  0  0  0
 45 46  1  1  0  0  0
 49 51  1  0  0  0  0
 49 50  1  0  0  0  0
 50 47  1  0  0  0  0
 50 48  1  0  0  0  0
 51 50  1  0  0  0  0
M  END
>  <MODEL>
5

>  <REMARK>
 VINA RESULT:      -5.4      2.597     10.471
  Name = 
  10 active torsions:
  status: ('A' for Active; 'I' for Inactive)
    1  A    between atoms: N_1  and  C_37
    2  A    between atoms: C_9  and  C_17
    3  A    between atoms: C_9  and  C_37
    4  A    between atoms: C_11  and  C_35
    5  A    between atoms: C_17  and  C_28
    6  A    between atoms: C_25  and  C_31
    7  A    between atoms: C_31  and  C_34
    8  A    between atoms: C_32  and  N_38
    9  A    between atoms: C_32  and  C_49
   10  A    between atoms: N_33  and  C_36
                            x       y       z     vdW  Elec       q    Type
                         _______ _______ _______ _____ _____    ______ ____

>  <TORSDO>
F 10

$$$$
=
 OpenBabel10222420583D

 51 57  0  0  1  0  0  0  0  0999 V2000
  186.1720  179.1150  143.9920 N   0  0  0  0  0  0  0  0  0  0  0  0
  186.8350  177.9580  143.4500 N   0  0  2  0  0  0  0  0  0  0  0  0
  192.1790  178.8520  141.0980 O   0  0  0  0  0  0  0  0  0  0  0  0
  193.2960  176.7720  140.4680 O   0  0  0  0  0  0  0  0  0  0  0  0
  188.3610  176.0960  141.8590 C   0  0  0  0  0  1  0  0  0  0  0  0
  187.4160  176.9490  138.6290 C   0  0  0  0  0  2  0  0  0  0  0  0
  188.0920  178.3870  143.0040 N   0  0  0  0  0  2  0  0  0  0  0  0
  188.8680  177.2360  138.2660 C   0  0  2  0  0  3  0  0  0  0  0  0
  185.1040  179.6630  139.2990 F   0  0  0  0  0  0  0  0  0  0  0  0
  183.7700  177.9450  140.2880 C   0  0  0  0  0  2  0  0  0  0  0  0
  185.0460  178.3000  139.5380 C   0  0  1  0  0  3  0  0  0  0  0  0
  185.8800  178.6540  142.6600 C   0  0  1  0  0  3  0  0  0  0  0  0
  191.0090  177.3670  139.1820 C   0  0  2  0  0  3  0  0  0  0  0  0
  188.9140  177.2050  142.7540 C   0  0  2  0  0  0  0  0  0  0  0  0
  191.9560  177.4180  140.6970 S   0  0  0  0  0  0  0  0  0  0  0  0
  189.6110  175.7300  137.5690 S   0  0  0  0  0  0  0  0  0  0  0  0
  185.1330  177.5060  138.2290 C   0  0  2  0  0  3  0  0  0  0  0  0
  189.6060  177.6290  139.4580 N   0  0  0  0  0  2  0  0  0  0  0  0
  190.4030  177.4940  142.7780 C   0  0  1  0  0  3  0  0  0  0  0  0
  183.7560  178.5760  141.6720 C   0  0  0  0  0  2  0  0  0  0  0  0
  186.4960  177.5520  137.6640 N   0  0  0  0  0  0  0  0  0  0  0  0
  189.7360  176.7570  143.9360 C   0  0  0  0  0  2  0  0  0  0  0  0
  184.6570  177.8610  142.5580 N   0  0  0  0  0  2  0  0  0  0  0  0
  186.5230  176.7020  136.4740 C   0  0  0  0  0  1  0  0  0  0  0  0
  191.1330  176.0130  138.5140 C   0  0  1  0  0  3  0  0  0  0  0  0
  191.1360  176.5440  141.9530 N   0  0  0  0  0  2  0  0  0  0  0  0
  184.0890  178.0510  137.2430 C   0  0  0  0  0  2  0  0  0  0  0  0
  180.5840  173.9710  137.2710 C   0  0  0  0  0  1  0  0  0  0  0  0
  182.9370  177.0990  137.0570 C   0  0  0  0  0  0  0  0  0  0  0  0
  181.6140  177.4590  136.7650 C   0  0  0  0  0  0  0  0  0  0  0  0
  181.3150  175.2630  137.1740 C   0  0  0  0  0  0  0  0  0  0  0  0
  182.9620  175.4530  137.4380 S   0  0  0  0  0  0  0  0  0  0  0  0
  180.7260  176.4260  136.8160 N   0  0  0  0  0  0  0  0  0  0  0  0
  181.1860  178.8130  136.3560 C   0  0  0  0  0  0  0  0  0  0  0  0
  181.5150  179.2630  135.2260 O   0  0  0  0  0  0  0  0  0  0  0  0
  180.3260  179.5950  137.1890 N   0  0  0  0  0  2  0  0  0  0  0  0
  180.7990  181.5780  138.6870 C   0  0  0  0  0  2  0  0  0  0  0  0
  182.0750  180.7650  138.5050 C   0  0  0  0  0  2  0  0  0  0  0  0
  180.7310  180.0830  138.5030 C   0  0  0  0  0  0  0  0  0  0  0  0
  180.4180  179.2380  139.7240 C   0  0  0  0  0  1  0  0  0  0  0  0
  192.3340  175.9990  137.5860 C   0  0  0  0  0  2  0  0  0  0  0  0
  194.2980  174.7620  137.7590 C   0  0  0  0  0  1  0  0  0  0  0  0
  192.8770  174.6550  137.4930 N   0  0  0  0  0  2  0  0  0  0  0  0
  185.2480  178.6190  145.0090 C   0  0  0  0  0  2  0  0  0  0  0  0
  185.9250  178.6220  146.3740 C   0  0  1  0  0  3  0  0  0  0  0  0
  184.9660  178.7170  147.3790 O   0  0  0  0  0  1  0  0  0  0  0  0
  186.8110  177.3870  146.5800 C   0  0  0  0  0  2  0  0  0  0  0  0
  187.5820  177.9420  148.9190 O   0  0  0  0  0  1  0  0  0  0  0  0
  189.2480  178.1390  147.1210 C   0  0  0  0  0  2  0  0  0  0  0  0
  187.9190  177.6080  147.6060 C   0  0  0  0  0  0  0  0  0  0  0  0
  189.0980  176.6690  147.5010 C   0  0  0  0  0  2  0  0  0  0  0  0
  1 44  1  0  0  0  0
  2  7  1  6  0  0  0
  2  1  1  0  0  0  0
  4 15  2  0  0  0  0
  8  6  1  1  0  0  0
  8 18  1  0  0  0  0
 10 20  1  0  0  0  0
 11  9  1  6  0  0  0
 11 10  1  0  0  0  0
 12 23  1  1  0  0  0
 12  2  1  0  0  0  0
 12  1  1  0  0  0  0
 13 18  1  1  0  0  0
 13 15  1  0  0  0  0
 14  5  1  6  0  0  0
 14 19  1  0  0  0  0
 14  7  1  0  0  0  0
 14 22  1  0  0  0  0
 15  3  2  0  0  0  0
 15 26  1  0  0  0  0
 16  8  1  0  0  0  0
 16 25  1  0  0  0  0
 17 27  1  6  0  0  0
 17 11  1  0  0  0  0
 19 22  1  1  0  0  0
 20 23  1  0  0  0  0
 21 17  1  0  0  0  0
 21  6  1  0  0  0  0
 24 21  1  0  0  0  0
 25 41  1  6  0  0  0
 25 13  1  0  0  0  0
 26 19  1  0  0  0  0
 29 27  1  0  0  0  0
 29 32  1  0  0  0  0
 30 33  1  0  0  0  0
 30 29  2  0  0  0  0
 31 28  1  0  0  0  0
 31 32  1  0  0  0  0
 33 31  2  0  0  0  0
 34 30  1  0  0  0  0
 34 36  1  0  0  0  0
 35 34  2  0  0  0  0
 36 39  1  0  0  0  0
 38 37  1  0  0  0  0
 39 38  1  0  0  0  0
 39 37  1  0  0  0  0
 39 40  1  0  0  0  0
 43 41  1  0  0  0  0
 43 42  1  0  0  0  0
 44 45  1  0  0  0  0
 45 47  1  0  0  0  0
 45 46  1  1  0  0  0
 47 50  1  0  0  0  0
 49 51  1  0  0  0  0
 49 50  1  0  0  0  0
 50 48  1  0  0  0  0
 51 50  1  0  0  0  0
M  END
>  <MODEL>
6

>  <REMARK>
 VINA RESULT:      -5.2      2.014      2.670
  Name = 
  10 active torsions:
  status: ('A' for Active; 'I' for Inactive)
    1  A    between atoms: N_1  and  C_37
    2  A    between atoms: C_9  and  C_17
    3  A    between atoms: C_9  and  C_37
    4  A    between atoms: C_11  and  C_35
    5  A    between atoms: C_17  and  C_28
    6  A    between atoms: C_25  and  C_31
    7  A    between atoms: C_31  and  C_34
    8  A    between atoms: C_32  and  N_38
    9  A    between atoms: C_32  and  C_49
   10  A    between atoms: N_33  and  C_36
                            x       y       z     vdW  Elec       q    Type
                         _______ _______ _______ _____ _____    ______ ____

>  <TORSDO>
F 10

$$$$
=
 OpenBabel10222420583D

 51 57  0  0  1  0  0  0  0  0999 V2000
  183.9720  180.1170  139.3330 N   0  0  0  0  0  0  0  0  0  0  0  0
  184.0960  179.0460  140.2880 N   0  0  2  0  0  0  0  0  0  0  0  0
  185.6240  180.5870  145.7820 O   0  0  0  0  0  0  0  0  0  0  0  0
  185.5310  178.7150  147.3500 O   0  0  0  0  0  0  0  0  0  0  0  0
  184.9020  177.2790  142.4220 C   0  0  0  0  0  1  0  0  0  0  0  0
  188.3560  177.2420  142.0750 C   0  0  0  0  0  2  0  0  0  0  0  0
  184.4050  179.6390  141.5190 N   0  0  0  0  0  2  0  0  0  0  0  0
  188.5180  177.7580  143.4990 C   0  0  2  0  0  3  0  0  0  0  0  0
  188.7710  179.4690  139.2410 F   0  0  0  0  0  0  0  0  0  0  0  0
  187.6480  177.7360  138.0390 C   0  0  0  0  0  2  0  0  0  0  0  0
  188.2270  178.2020  139.3660 C   0  0  1  0  0  3  0  0  0  0  0  0
  185.1850  179.3460  139.4240 C   0  0  1  0  0  3  0  0  0  0  0  0
  187.3010  178.5310  145.3320 C   0  0  2  0  0  3  0  0  0  0  0  0
  184.2180  178.6380  142.5660 C   0  0  2  0  0  0  0  0  0  0  0  0
  185.7020  179.0880  145.9020 S   0  0  0  0  0  0  0  0  0  0  0  0
  188.6930  176.3410  144.6240 S   0  0  0  0  0  0  0  0  0  0  0  0
  189.2710  177.2000  139.8730 C   0  0  2  0  0  3  0  0  0  0  0  0
  187.3460  178.5320  143.8800 N   0  0  0  0  0  2  0  0  0  0  0  0
  184.0040  179.2410  143.9420 C   0  0  1  0  0  3  0  0  0  0  0  0
  186.4800  178.6140  137.6140 C   0  0  0  0  0  2  0  0  0  0  0  0
  189.5840  177.4260  141.2980 N   0  0  0  0  0  0  0  0  0  0  0  0
  182.8370  178.6250  143.1740 C   0  0  0  0  0  2  0  0  0  0  0  0
  185.3060  178.3040  138.4080 N   0  0  0  0  0  2  0  0  0  0  0  0
  190.5110  176.3810  141.7310 C   0  0  0  0  0  1  0  0  0  0  0  0
  187.5930  177.1300  145.8310 C   0  0  1  0  0  3  0  0  0  0  0  0
  184.4360  178.3270  144.9900 N   0  0  0  0  0  2  0  0  0  0  0  0
  190.5260  177.2970  138.9920 C   0  0  0  0  0  2  0  0  0  0  0  0
  190.3330  172.9380  135.8460 C   0  0  0  0  0  1  0  0  0  0  0  0
  190.7710  176.0290  138.2180 C   0  0  0  0  0  0  0  0  0  0  0  0
  192.0200  175.5560  137.7920 C   0  0  0  0  0  0  0  0  0  0  0  0
  190.6860  174.1070  136.6950 C   0  0  0  0  0  0  0  0  0  0  0  0
  189.5740  175.0910  137.4800 S   0  0  0  0  0  0  0  0  0  0  0  0
  191.9590  174.4770  136.9620 N   0  0  0  0  0  0  0  0  0  0  0  0
  193.3180  176.1000  138.2430 C   0  0  0  0  0  0  0  0  0  0  0  0
  193.3510  177.1170  138.9850 O   0  0  0  0  0  0  0  0  0  0  0  0
  194.5430  175.4360  137.9220 N   0  0  0  0  0  2  0  0  0  0  0  0
  195.2680  173.9060  136.0410 C   0  0  0  0  0  2  0  0  0  0  0  0
  196.4440  174.7760  136.4680 C   0  0  0  0  0  2  0  0  0  0  0  0
  195.0350  175.3040  136.5550 C   0  0  0  0  0  0  0  0  0  0  0  0
  194.6680  176.3720  135.5420 C   0  0  0  0  0  1  0  0  0  0  0  0
  188.2660  177.1910  147.1900 C   0  0  0  0  0  2  0  0  0  0  0  0
  190.5500  177.0260  147.6020 C   0  0  0  0  0  1  0  0  0  0  0  0
  189.5220  177.9120  147.0930 N   0  0  0  0  0  2  0  0  0  0  0  0
  183.0430  179.6470  138.3090 C   0  0  0  0  0  2  0  0  0  0  0  0
  181.6590  179.4480  138.9120 C   0  0  1  0  0  3  0  0  0  0  0  0
  180.8590  180.5550  138.6390 O   0  0  0  0  0  1  0  0  0  0  0  0
  180.9950  178.1580  138.4160 C   0  0  0  0  0  2  0  0  0  0  0  0
  180.4690  177.0810  140.6380 O   0  0  0  0  0  1  0  0  0  0  0  0
  182.3840  176.1770  139.3880 C   0  0  0  0  0  2  0  0  0  0  0  0
  181.1180  177.0020  139.4050 C   0  0  0  0  0  0  0  0  0  0  0  0
  181.0940  175.6190  138.7940 C   0  0  0  0  0  2  0  0  0  0  0  0
  1 12  1  0  0  0  0
  1  2  1  0  0  0  0
  2  7  1  1  0  0  0
  3 15  2  0  0  0  0
  7 14  1  0  0  0  0
  8  6  1  6  0  0  0
  8 18  1  0  0  0  0
  8 16  1  0  0  0  0
 10 11  1  0  0  0  0
 11  9  1  6  0  0  0
 11 17  1  0  0  0  0
 12 23  1  6  0  0  0
 12  2  1  0  0  0  0
 13 18  1  6  0  0  0
 13 25  1  0  0  0  0
 13 15  1  0  0  0  0
 14  5  1  6  0  0  0
 14 22  1  0  0  0  0
 14 19  1  0  0  0  0
 15  4  2  0  0  0  0
 16 25  1  0  0  0  0
 17 27  1  6  0  0  0
 17 21  1  0  0  0  0
 19 22  1  1  0  0  0
 19 26  1  0  0  0  0
 20 10  1  0  0  0  0
 20 23  1  0  0  0  0
 21 24  1  0  0  0  0
 21  6  1  0  0  0  0
 25 41  1  1  0  0  0
 26 15  1  0  0  0  0
 28 31  1  0  0  0  0
 29 27  1  0  0  0  0
 30 29  2  0  0  0  0
 30 34  1  0  0  0  0
 31 33  2  0  0  0  0
 31 32  1  0  0  0  0
 32 29  1  0  0  0  0
 33 30  1  0  0  0  0
 34 35  2  0  0  0  0
 36 34  1  0  0  0  0
 37 38  1  0  0  0  0
 37 39  1  0  0  0  0
 38 39  1  0  0  0  0
 39 36  1  0  0  0  0
 40 39  1  0  0  0  0
 43 41  1  0  0  0  0
 43 42  1  0  0  0  0
 44 45  1  0  0  0  0
 44  1  1  0  0  0  0
 45 46  1  6  0  0  0
 47 45  1  0  0  0  0
 47 50  1  0  0  0  0
 49 50  1  0  0  0  0
 50 48  1  0  0  0  0
 51 49  1  0  0  0  0
 51 50  1  0  0  0  0
M  END
>  <MODEL>
7

>  <REMARK>
 VINA RESULT:      -5.1      2.608     10.092
  Name = 
  10 active torsions:
  status: ('A' for Active; 'I' for Inactive)
    1  A    between atoms: N_1  and  C_37
    2  A    between atoms: C_9  and  C_17
    3  A    between atoms: C_9  and  C_37
    4  A    between atoms: C_11  and  C_35
    5  A    between atoms: C_17  and  C_28
    6  A    between atoms: C_25  and  C_31
    7  A    between atoms: C_31  and  C_34
    8  A    between atoms: C_32  and  N_38
    9  A    between atoms: C_32  and  C_49
   10  A    between atoms: N_33  and  C_36
                            x       y       z     vdW  Elec       q    Type
                         _______ _______ _______ _____ _____    ______ ____

>  <TORSDO>
F 10

$$$$
=
 OpenBabel10222420583D

 51 57  0  0  1  0  0  0  0  0999 V2000
  187.8170  176.3170  135.5860 N   0  0  0  0  0  0  0  0  0  0  0  0
  186.6130  175.9860  136.3020 N   0  0  2  0  0  0  0  0  0  0  0  0
  181.9920  179.5710  135.4640 O   0  0  0  0  0  0  0  0  0  0  0  0
  179.9490  178.7430  136.5180 O   0  0  0  0  0  0  0  0  0  0  0  0
  184.1560  176.0280  137.8150 C   0  0  0  0  0  1  0  0  0  0  0  0
  184.8390  178.4030  140.2530 C   0  0  0  0  0  2  0  0  0  0  0  0
  185.6450  176.9230  135.9140 N   0  0  0  0  0  2  0  0  0  0  0  0
  183.6510  179.2370  139.7920 C   0  0  2  0  0  3  0  0  0  0  0  0
  188.2230  179.3440  139.3460 F   0  0  0  0  0  0  0  0  0  0  0  0
  188.7480  177.1020  139.9870 C   0  0  0  0  0  2  0  0  0  0  0  0
  187.6800  178.1790  139.8620 C   0  0  1  0  0  3  0  0  0  0  0  0
  187.6360  176.7270  136.9540 C   0  0  1  0  0  3  0  0  0  0  0  0
  182.0020  179.3520  138.1470 C   0  0  2  0  0  3  0  0  0  0  0  0
  184.3390  176.4380  136.3540 C   0  0  2  0  0  0  0  0  0  0  0  0
  181.4520  178.7070  136.5740 S   0  0  0  0  0  0  0  0  0  0  0  0
  182.1880  178.7700  140.7660 S   0  0  0  0  0  0  0  0  0  0  0  0
  187.0180  178.4340  141.2210 C   0  0  2  0  0  3  0  0  0  0  0  0
  183.3890  178.9870  138.3820 N   0  0  0  0  0  2  0  0  0  0  0  0
  183.1820  177.0430  135.5800 C   0  0  1  0  0  3  0  0  0  0  0  0
  189.2830  176.7010  138.6210 C   0  0  0  0  0  2  0  0  0  0  0  0
  185.7610  179.1930  141.0710 N   0  0  0  0  0  0  0  0  0  0  0  0
  183.6110  175.5990  135.3320 C   0  0  0  0  0  2  0  0  0  0  0  0
  188.3140  175.8730  137.9270 N   0  0  0  0  0  2  0  0  0  0  0  0
  185.1440  179.3170  142.3920 C   0  0  0  0  0  1  0  0  0  0  0  0
  181.1530  178.8070  139.2780 C   0  0  1  0  0  3  0  0  0  0  0  0
  181.9670  177.0590  136.3820 N   0  0  0  0  0  2  0  0  0  0  0  0
  188.0160  179.1610  142.1350 C   0  0  0  0  0  2  0  0  0  0  0  0
  191.8530  176.4610  144.7660 C   0  0  0  0  0  1  0  0  0  0  0  0
  188.8540  178.1980  142.9340 C   0  0  0  0  0  0  0  0  0  0  0  0
  188.3850  177.3450  143.9430 C   0  0  0  0  0  0  0  0  0  0  0  0
  190.6030  177.0450  144.2110 C   0  0  0  0  0  0  0  0  0  0  0  0
  190.5430  178.1650  142.9600 S   0  0  0  0  0  0  0  0  0  0  0  0
  189.3660  176.6970  144.6320 N   0  0  0  0  0  0  0  0  0  0  0  0
  186.9570  177.0800  144.2180 C   0  0  0  0  0  0  0  0  0  0  0  0
  186.1550  176.9020  143.2640 O   0  0  0  0  0  0  0  0  0  0  0  0
  186.4830  176.9350  145.5590 N   0  0  0  0  0  2  0  0  0  0  0  0
  185.1670  178.5260  147.0220 C   0  0  0  0  0  2  0  0  0  0  0  0
  185.9480  179.3210  145.9830 C   0  0  0  0  0  2  0  0  0  0  0  0
  186.5010  178.0290  146.5250 C   0  0  0  0  0  0  0  0  0  0  0  0
  187.6910  178.1590  147.4580 C   0  0  0  0  0  1  0  0  0  0  0  0
  179.9480  179.7030  139.5020 C   0  0  0  0  0  2  0  0  0  0  0  0
  179.2320  181.8640  139.0190 C   0  0  0  0  0  1  0  0  0  0  0  0
  180.3580  181.0960  139.5140 N   0  0  0  0  0  2  0  0  0  0  0  0
  188.5580  175.0670  135.4320 C   0  0  0  0  0  2  0  0  0  0  0  0
  189.8330  175.3120  134.6340 C   0  0  1  0  0  3  0  0  0  0  0  0
  190.3420  176.5740  134.9300 O   0  0  0  0  0  1  0  0  0  0  0  0
  190.8860  174.2250  134.8840 C   0  0  0  0  0  2  0  0  0  0  0  0
  190.4840  173.5140  137.2740 O   0  0  0  0  0  1  0  0  0  0  0  0
  192.2030  175.2320  136.8970 C   0  0  0  0  0  2  0  0  0  0  0  0
  191.3200  174.1370  136.3450 C   0  0  0  0  0  0  0  0  0  0  0  0
  192.7890  173.8620  136.5700 C   0  0  0  0  0  2  0  0  0  0  0  0
  1  2  1  0  0  0  0
  1 12  1  0  0  0  0
  2  7  1  6  0  0  0
  2 12  1  0  0  0  0
  3 15  2  0  0  0  0
  4 15  2  0  0  0  0
  6 21  1  0  0  0  0
  7 14  1  0  0  0  0
  8  6  1  1  0  0  0
  8 16  1  0  0  0  0
 11  9  1  1  0  0  0
 11 10  1  0  0  0  0
 11 17  1  0  0  0  0
 12 23  1  1  0  0  0
 13 18  1  1  0  0  0
 13 25  1  0  0  0  0
 14  5  1  1  0  0  0
 15 13  1  0  0  0  0
 17 27  1  1  0  0  0
 18  8  1  0  0  0  0
 19 22  1  6  0  0  0
 19 14  1  0  0  0  0
 19 26  1  0  0  0  0
 20 10  1  0  0  0  0
 21 17  1  0  0  0  0
 21 24  1  0  0  0  0
 22 14  1  0  0  0  0
 23 20  1  0  0  0  0
 25 41  1  1  0  0  0
 25 16  1  0  0  0  0
 26 15  1  0  0  0  0
 27 29  1  0  0  0  0
 29 32  1  0  0  0  0
 29 30  2  0  0  0  0
 30 34  1  0  0  0  0
 30 33  1  0  0  0  0
 31 33  2  0  0  0  0
 31 28  1  0  0  0  0
 32 31  1  0  0  0  0
 34 36  1  0  0  0  0
 35 34  2  0  0  0  0
 36 39  1  0  0  0  0
 38 39  1  0  0  0  0
 38 37  1  0  0  0  0
 39 37  1  0  0  0  0
 39 40  1  0  0  0  0
 41 43  1  0  0  0  0
 42 43  1  0  0  0  0
 44  1  1  0  0  0  0
 45 47  1  0  0  0  0
 45 46  1  1  0  0  0
 45 44  1  0  0  0  0
 47 50  1  0  0  0  0
 50 51  1  0  0  0  0
 50 49  1  0  0  0  0
 50 48  1  0  0  0  0
 51 49  1  0  0  0  0
M  END
>  <MODEL>
8

>  <REMARK>
 VINA RESULT:      -5.1      2.826      9.679
  Name = 
  10 active torsions:
  status: ('A' for Active; 'I' for Inactive)
    1  A    between atoms: N_1  and  C_37
    2  A    between atoms: C_9  and  C_17
    3  A    between atoms: C_9  and  C_37
    4  A    between atoms: C_11  and  C_35
    5  A    between atoms: C_17  and  C_28
    6  A    between atoms: C_25  and  C_31
    7  A    between atoms: C_31  and  C_34
    8  A    between atoms: C_32  and  N_38
    9  A    between atoms: C_32  and  C_49
   10  A    between atoms: N_33  and  C_36
                            x       y       z     vdW  Elec       q    Type
                         _______ _______ _______ _____ _____    ______ ____

>  <TORSDO>
F 10

$$$$
=
 OpenBabel10222420583D

 51 57  0  0  1  0  0  0  0  0999 V2000
  184.8030  179.3950  141.2180 N   0  0  0  0  0  0  0  0  0  0  0  0
  185.3730  178.2770  141.9240 N   0  0  2  0  0  0  0  0  0  0  0  0
  188.8310  179.5670  146.5370 O   0  0  0  0  0  0  0  0  0  0  0  0
  189.5050  177.5860  147.7970 O   0  0  0  0  0  0  0  0  0  0  0  0
  187.0860  176.4580  143.3680 C   0  0  0  0  0  1  0  0  0  0  0  0
  190.1140  176.8340  141.7110 C   0  0  0  0  0  2  0  0  0  0  0  0
  186.1000  178.8080  142.9980 N   0  0  0  0  0  2  0  0  0  0  0  0
  190.7870  177.2580  143.0100 C   0  0  2  0  0  3  0  0  0  0  0  0
  189.2090  179.2970  139.2070 F   0  0  0  0  0  0  0  0  0  0  0  0
  187.8320  177.5440  138.3450 C   0  0  0  0  0  2  0  0  0  0  0  0
  188.8540  177.9720  139.3900 C   0  0  1  0  0  3  0  0  0  0  0  0
  186.0060  178.7610  140.7460 C   0  0  1  0  0  3  0  0  0  0  0  0
  190.3410  177.7520  145.2460 C   0  0  2  0  0  3  0  0  0  0  0  0
  186.4160  177.7170  143.9170 C   0  0  2  0  0  0  0  0  0  0  0  0
  189.0600  178.0820  146.4480 S   0  0  0  0  0  0  0  0  0  0  0  0
  191.4970  175.7900  143.8140 S   0  0  0  0  0  0  0  0  0  0  0  0
  190.0840  177.0580  139.3380 C   0  0  2  0  0  3  0  0  0  0  0  0
  189.8070  177.8650  143.8990 N   0  0  0  0  0  2  0  0  0  0  0  0
  186.7200  178.1890  145.3270 C   0  0  1  0  0  3  0  0  0  0  0  0
  186.5310  178.3140  138.5060 C   0  0  0  0  0  2  0  0  0  0  0  0
  190.9170  177.2110  140.5470 N   0  0  0  0  0  0  0  0  0  0  0  0
  185.3930  177.5040  145.0060 C   0  0  0  0  0  2  0  0  0  0  0  0
  185.7920  177.8160  139.6520 N   0  0  0  0  0  2  0  0  0  0  0  0
  192.0140  176.2480  140.4670 C   0  0  0  0  0  1  0  0  0  0  0  0
  190.9080  176.3590  145.4320 C   0  0  1  0  0  3  0  0  0  0  0  0
  187.5970  177.2530  146.0160 N   0  0  0  0  0  2  0  0  0  0  0  0
  190.8770  177.3600  138.0570 C   0  0  0  0  0  2  0  0  0  0  0  0
  190.6870  173.0550  134.8380 C   0  0  0  0  0  1  0  0  0  0  0  0
  191.1300  176.1190  137.2440 C   0  0  0  0  0  0  0  0  0  0  0  0
  192.3720  175.7070  136.7390 C   0  0  0  0  0  0  0  0  0  0  0  0
  191.0390  174.2230  135.6900 C   0  0  0  0  0  0  0  0  0  0  0  0
  189.9330  175.1440  136.5560 S   0  0  0  0  0  0  0  0  0  0  0  0
  192.3080  174.6420  135.8920 N   0  0  0  0  0  0  0  0  0  0  0  0
  193.6700  176.2980  137.1270 C   0  0  0  0  0  0  0  0  0  0  0  0
  193.9640  177.4660  136.7590 O   0  0  0  0  0  0  0  0  0  0  0  0
  194.5670  175.5960  137.9910 N   0  0  0  0  0  2  0  0  0  0  0  0
  194.7730  173.0970  138.3340 C   0  0  0  0  0  2  0  0  0  0  0  0
  196.0960  173.7680  138.6860 C   0  0  0  0  0  2  0  0  0  0  0  0
  195.2130  174.3440  137.6090 C   0  0  0  0  0  0  0  0  0  0  0  0
  195.7180  174.1890  136.1870 C   0  0  0  0  0  1  0  0  0  0  0  0
  192.0570  176.3940  146.4240 C   0  0  0  0  0  2  0  0  0  0  0  0
  192.8990  175.6300  148.4540 C   0  0  0  0  0  1  0  0  0  0  0  0
  191.7660  175.5320  147.5550 N   0  0  0  0  0  2  0  0  0  0  0  0
  183.5820  178.9010  140.5860 C   0  0  0  0  0  2  0  0  0  0  0  0
  182.5230  178.6240  141.6450 C   0  0  1  0  0  3  0  0  0  0  0  0
  182.8460  179.2890  142.8250 O   0  0  0  0  0  1  0  0  0  0  0  0
  181.1170  179.0080  141.1680 C   0  0  0  0  0  2  0  0  0  0  0  0
  179.5600  177.5260  142.4930 O   0  0  0  0  0  1  0  0  0  0  0  0
  180.2560  176.7130  140.2780 C   0  0  0  0  0  2  0  0  0  0  0  0
  180.1190  177.8570  141.2570 C   0  0  0  0  0  0  0  0  0  0  0  0
  179.1490  177.7480  140.1030 C   0  0  0  0  0  2  0  0  0  0  0  0
  1  2  1  0  0  0  0
  2  7  1  1  0  0  0
  7 14  1  0  0  0  0
  8  6  1  6  0  0  0
  8 16  1  0  0  0  0
  8 18  1  0  0  0  0
 10 20  1  0  0  0  0
 10 11  1  0  0  0  0
 11  9  1  6  0  0  0
 12 23  1  6  0  0  0
 12  1  1  0  0  0  0
 12  2  1  0  0  0  0
 13 18  1  6  0  0  0
 13 25  1  0  0  0  0
 13 15  1  0  0  0  0
 14  5  1  6  0  0  0
 14 22  1  0  0  0  0
 14 19  1  0  0  0  0
 15  3  2  0  0  0  0
 15  4  2  0  0  0  0
 16 25  1  0  0  0  0
 17 27  1  6  0  0  0
 17 11  1  0  0  0  0
 17 21  1  0  0  0  0
 19 22  1  1  0  0  0
 19 26  1  0  0  0  0
 20 23  1  0  0  0  0
 21  6  1  0  0  0  0
 24 21  1  0  0  0  0
 25 41  1  1  0  0  0
 26 15  1  0  0  0  0
 28 31  1  0  0  0  0
 29 27  1  0  0  0  0
 30 34  1  0  0  0  0
 30 29  2  0  0  0  0
 31 33  2  0  0  0  0
 31 32  1  0  0  0  0
 32 29  1  0  0  0  0
 33 30  1  0  0  0  0
 34 36  1  0  0  0  0
 35 34  2  0  0  0  0
 37 38  1  0  0  0  0
 39 36  1  0  0  0  0
 39 37  1  0  0  0  0
 39 38  1  0  0  0  0
 40 39  1  0  0  0  0
 41 43  1  0  0  0  0
 43 42  1  0  0  0  0
 44  1  1  0  0  0  0
 44 45  1  0  0  0  0
 45 46  1  1  0  0  0
 47 50  1  0  0  0  0
 47 45  1  0  0  0  0
 49 50  1  0  0  0  0
 50 48  1  0  0  0  0
 51 49  1  0  0  0  0
 51 50  1  0  0  0  0
M  END
>  <MODEL>
9

>  <REMARK>
 VINA RESULT:      -5.0      2.758      9.785
  Name = 
  10 active torsions:
  status: ('A' for Active; 'I' for Inactive)
    1  A    between atoms: N_1  and  C_37
    2  A    between atoms: C_9  and  C_17
    3  A    between atoms: C_9  and  C_37
    4  A    between atoms: C_11  and  C_35
    5  A    between atoms: C_17  and  C_28
    6  A    between atoms: C_25  and  C_31
    7  A    between atoms: C_31  and  C_34
    8  A    between atoms: C_32  and  N_38
    9  A    between atoms: C_32  and  C_49
   10  A    between atoms: N_33  and  C_36
                            x       y       z     vdW  Elec       q    Type
                         _______ _______ _______ _____ _____    ______ ____

>  <TORSDO>
F 10

$$$$
