=
 OpenBabel10222419043D

 50 53  0  0  1  0  0  0  0  0999 V2000
  185.5170  178.4860  142.8690 C   0  0  1  0  0  3  0  0  0  0  0  0
  184.6410  179.5530  143.5300 C   0  0  0  0  0  2  0  0  0  0  0  0
  183.3090  178.9680  143.9780 C   0  0  0  0  0  2  0  0  0  0  0  0
  182.3890  178.8830  142.8530 N   0  0  0  0  0  2  0  0  0  0  0  0
  180.4720  178.6560  144.1680 O   0  0  0  0  0  0  0  0  0  0  0  0
  180.9720  178.7850  143.0190 C   0  0  0  0  0  0  0  0  0  0  0  0
  180.0660  178.8800  141.8290 C   0  0  2  0  0  3  0  0  0  0  0  0
  180.0040  176.6920  140.5550 C   0  0  0  0  0  0  0  0  0  0  0  0
  180.5630  175.8290  139.4830 C   0  0  0  0  0  1  0  0  0  0  0  0
  179.0710  176.2540  141.2830 O   0  0  0  0  0  0  0  0  0  0  0  0
  180.5270  178.0080  140.7530 N   0  0  0  0  0  2  0  0  0  0  0  0
  180.3550  180.6190  140.0480 O   0  0  0  0  0  0  0  0  0  0  0  0
  179.9780  180.2900  141.3440 C   0  0  0  0  0  0  0  0  0  0  0  0
  179.5530  181.1880  142.1130 O   0  0  0  0  0  1  0  0  0  0  0  0
  186.4030  179.0220  141.8820 O   0  0  0  0  0  0  0  0  0  0  0  0
  185.4250  179.0270  139.7200 N   0  0  0  0  0  0  0  0  0  0  0  0
  184.3390  177.5330  137.7440 S   0  0  0  0  0  0  0  0  0  0  0  0
  187.4920  177.9260  139.8850 C   0  0  0  0  0  2  0  0  0  0  0  0
  186.3920  178.7010  140.5190 C   0  0  0  0  0  0  0  0  0  0  0  0
  187.3600  176.8850  137.5970 C   0  0  0  0  0  0  0  0  0  0  0  0
  185.6940  178.5760  138.3670 C   0  0  2  0  0  3  0  0  0  0  0  0
  186.5720  176.7020  136.3590 C   0  0  0  0  0  3  0  0  0  0  0  0
  185.2740  177.0250  136.2880 C   0  0  0  0  0  3  0  0  0  0  0  0
  186.9240  177.7480  138.5240 C   0  0  0  0  0  0  0  0  0  0  0  0
  189.8450  177.0050  136.0210 O   0  0  0  0  0  0  0  0  0  0  0  0
  188.5870  176.1720  137.8220 N   0  0  0  0  0  2  0  0  0  0  0  0
  189.7850  176.2570  137.0350 C   0  0  0  0  0  0  0  0  0  0  0  0
  190.8050  174.2570  137.7700 O   0  0  0  0  0  0  0  0  0  0  0  0
  190.9540  175.4590  137.4140 C   0  0  0  0  0  0  0  0  0  0  0  0
  192.2280  176.0310  137.3730 O   0  0  0  0  0  0  0  0  0  0  0  0
  193.1830  175.6720  136.3790 C   0  0  1  0  0  3  0  0  0  0  0  0
  194.3700  176.6070  136.4520 C   0  0  1  0  0  3  0  0  0  0  0  0
  194.4960  175.2000  136.9990 C   0  0  1  0  0  3  0  0  0  0  0  0
  195.0440  176.6790  135.0990 C   0  0  0  0  0  2  0  0  0  0  0  0
  196.3910  177.0260  135.2620 O   0  0  0  0  0  1  0  0  0  0  0  0
  194.4450  175.2290  138.3950 O   0  0  0  0  0  0  0  0  0  0  0  0
  195.5480  174.4780  138.8080 C   0  0  0  0  0  2  0  0  0  0  0  0
  195.7360  173.4120  137.9310 O   0  0  0  0  0  1  0  0  0  0  0  0
  186.2190  177.5350  143.8440 C   0  0  0  0  0  2  0  0  0  0  0  0
  186.6310  178.2060  145.1440 C   0  0  0  0  0  2  0  0  0  0  0  0
  188.9870  177.9520  144.5560 C   0  0  0  0  0  3  0  0  0  0  0  0
  188.0330  177.8370  145.4870 C   0  0  0  0  0  0  0  0  0  0  0  0
  190.7190  177.0430  146.1770 C   0  0  0  0  0  0  0  0  0  0  0  0
  188.3400  177.4030  146.9020 C   0  0  0  0  0  2  0  0  0  0  0  0
  190.3780  177.5940  144.8570 C   0  0  0  0  0  0  0  0  0  0  0  0
  189.7640  176.9400  147.1140 C   0  0  0  0  0  3  0  0  0  0  0  0
  191.2660  177.7380  143.9770 O   0  0  0  0  0  0  0  0  0  0  0  0
  192.0380  176.6350  146.4260 O   0  0  0  0  0  0  0  0  0  0  0  0
  192.9320  175.9250  148.5500 C   0  0  0  0  0  1  0  0  0  0  0  0
  192.3670  175.4920  147.2090 C   0  0  0  0  0  2  0  0  0  0  0  0
  1  2  1  1  0  0  0
  1 39  1  0  0  0  0
  2  3  1  0  0  0  0
  4  6  1  0  0  0  0
  4  3  1  0  0  0  0
  6  5  2  0  0  0  0
  7 11  1  6  0  0  0
  7  6  1  0  0  0  0
  8 11  1  0  0  0  0
  8 10  2  0  0  0  0
  9  8  1  0  0  0  0
 12 13  2  0  0  0  0
 13  7  1  0  0  0  0
 13 14  1  0  0  0  0
 15  1  1  0  0  0  0
 16 19  2  0  0  0  0
 18 19  1  0  0  0  0
 19 15  1  0  0  0  0
 20 26  1  0  0  0  0
 20 24  2  0  0  0  0
 21 17  1  1  0  0  0
 21 24  1  0  0  0  0
 21 16  1  0  0  0  0
 22 20  1  0  0  0  0
 23 22  2  0  0  0  0
 23 17  1  0  0  0  0
 24 18  1  0  0  0  0
 25 27  2  0  0  0  0
 27 29  1  0  0  0  0
 27 26  1  0  0  0  0
 29 28  2  0  0  0  0
 30 29  1  0  0  0  0
 31 32  1  0  0  0  0
 31 33  1  0  0  0  0
 31 30  1  1  0  0  0
 32 34  1  6  0  0  0
 32 33  1  0  0  0  0
 33 36  1  1  0  0  0
 34 35  1  0  0  0  0
 36 37  1  0  0  0  0
 38 37  1  0  0  0  0
 39 40  1  0  0  0  0
 40 42  1  0  0  0  0
 41 45  1  0  0  0  0
 41 42  2  0  0  0  0
 42 44  1  0  0  0  0
 43 48  1  0  0  0  0
 43 46  2  0  0  0  0
 44 46  1  0  0  0  0
 45 43  1  0  0  0  0
 47 45  2  0  0  0  0
 48 50  1  0  0  0  0
 50 49  1  0  0  0  0
M  END
>  <MODEL>
1

>  <REMARK>
 VINA RESULT:      -7.8      0.000      0.000
  Name = 
  20 active torsions:
  status: ('A' for Active; 'I' for Inactive)
    1  A    between atoms: C_2  and  C_7
    2  A    between atoms: C_2  and  O_8
    3  A    between atoms: C_2  and  C_35
    4  A    between atoms: N_3  and  C_18
    5  A    between atoms: O_4  and  C_9
    6  A    between atoms: O_4  and  C_40
    7  A    between atoms: C_6  and  C_7
    8  A    between atoms: C_6  and  C_15
    9  A    between atoms: O_8  and  C_23
   10  A    between atoms: C_11  and  C_36
   11  A    between atoms: C_18  and  C_35
   12  A    between atoms: C_22  and  CA_50
   13  A    between atoms: C_25  and  CA_50
   14  A    between atoms: N_26  and  C_28
   15  A    between atoms: C_30  and  C_37
   16  A    between atoms: C_30  and  O_48
   17  A    between atoms: C_33  and  O_48
   18  A    between atoms: O_38  and  C_39
   19  A    between atoms: O_38  and  C_42
   20  A    between atoms: N_47  and  CA_50
                            x       y       z     vdW  Elec       q    Type
                         _______ _______ _______ _____ _____    ______ ____

>  <TORSDO>
F 20

$$$$
=
 OpenBabel10222419043D

 50 53  0  0  1  0  0  0  0  0999 V2000
  185.2420  178.5600  142.6820 C   0  0  1  0  0  3  0  0  0  0  0  0
  184.4020  179.4500  143.6010 C   0  0  0  0  0  2  0  0  0  0  0  0
  183.1490  178.7230  144.0730 C   0  0  0  0  0  2  0  0  0  0  0  0
  182.1870  178.6130  142.9850 N   0  0  0  0  0  2  0  0  0  0  0  0
  180.3460  178.2410  144.3730 O   0  0  0  0  0  0  0  0  0  0  0  0
  180.7870  178.4280  143.2080 C   0  0  0  0  0  0  0  0  0  0  0  0
  179.8260  178.5010  142.0590 C   0  0  2  0  0  3  0  0  0  0  0  0
  179.8160  176.3480  140.7270 C   0  0  0  0  0  0  0  0  0  0  0  0
  180.3730  175.5410  139.6100 C   0  0  0  0  0  1  0  0  0  0  0  0
  178.9310  175.8470  141.4740 O   0  0  0  0  0  0  0  0  0  0  0  0
  180.2860  177.6800  140.9430 N   0  0  0  0  0  2  0  0  0  0  0  0
  179.9910  180.9710  142.4450 O   0  0  0  0  0  1  0  0  0  0  0  0
  179.6410  179.9150  141.6140 C   0  0  0  0  0  0  0  0  0  0  0  0
  179.1710  180.1520  140.4740 O   0  0  0  0  0  0  0  0  0  0  0  0
  185.7350  179.2510  141.5310 O   0  0  0  0  0  0  0  0  0  0  0  0
  184.1820  179.3090  139.7380 N   0  0  0  0  0  0  0  0  0  0  0  0
  182.6470  177.8550  138.0500 S   0  0  0  0  0  0  0  0  0  0  0  0
  186.2590  178.3360  139.2370 C   0  0  0  0  0  2  0  0  0  0  0  0
  185.3500  179.0030  140.2080 C   0  0  0  0  0  0  0  0  0  0  0  0
  185.5280  177.4120  137.0120 C   0  0  0  0  0  0  0  0  0  0  0  0
  184.0740  178.9480  138.3370 C   0  0  2  0  0  3  0  0  0  0  0  0
  184.4290  177.2450  136.0370 C   0  0  0  0  0  3  0  0  0  0  0  0
  183.1510  177.4870  136.3570 C   0  0  0  0  0  3  0  0  0  0  0  0
  185.3350  178.1950  138.0820 C   0  0  0  0  0  0  0  0  0  0  0  0
  187.9450  178.4960  135.7240 O   0  0  0  0  0  0  0  0  0  0  0  0
  186.8000  176.7690  136.8320 N   0  0  0  0  0  2  0  0  0  0  0  0
  187.9630  177.3280  136.2020 C   0  0  0  0  0  0  0  0  0  0  0  0
  189.2250  175.5250  135.3440 O   0  0  0  0  0  0  0  0  0  0  0  0
  189.1870  176.5280  136.1090 C   0  0  0  0  0  0  0  0  0  0  0  0
  190.3080  176.8850  136.8640 O   0  0  0  0  0  0  0  0  0  0  0  0
  191.1790  175.9080  137.4250 C   0  0  1  0  0  3  0  0  0  0  0  0
  192.4920  176.5560  137.8080 C   0  0  1  0  0  3  0  0  0  0  0  0
  191.4920  176.2020  138.8900 C   0  0  1  0  0  3  0  0  0  0  0  0
  193.5940  175.5210  137.7880 C   0  0  0  0  0  2  0  0  0  0  0  0
  194.5560  175.8760  136.8340 O   0  0  0  0  0  1  0  0  0  0  0  0
  190.8440  177.3590  139.3320 O   0  0  0  0  0  0  0  0  0  0  0  0
  190.5300  177.1030  140.6680 C   0  0  0  0  0  2  0  0  0  0  0  0
  189.2830  177.6470  140.9630 O   0  0  0  0  0  1  0  0  0  0  0  0
  186.3260  177.7430  143.3940 C   0  0  0  0  0  2  0  0  0  0  0  0
  186.5640  178.1840  144.8290 C   0  0  0  0  0  2  0  0  0  0  0  0
  188.9660  178.1070  144.4030 C   0  0  0  0  0  3  0  0  0  0  0  0
  187.9560  177.8500  145.2410 C   0  0  0  0  0  0  0  0  0  0  0  0
  190.6260  177.1220  146.0550 C   0  0  0  0  0  0  0  0  0  0  0  0
  188.1850  177.2890  146.6260 C   0  0  0  0  0  2  0  0  0  0  0  0
  190.3500  177.7880  144.7730 C   0  0  0  0  0  0  0  0  0  0  0  0
  189.6130  176.8770  146.9000 C   0  0  0  0  0  3  0  0  0  0  0  0
  191.2890  178.0650  143.9830 O   0  0  0  0  0  0  0  0  0  0  0  0
  191.9450  176.7560  146.3630 O   0  0  0  0  0  0  0  0  0  0  0  0
  192.8700  175.8930  148.4170 C   0  0  0  0  0  1  0  0  0  0  0  0
  192.2800  175.5590  147.0590 C   0  0  0  0  0  2  0  0  0  0  0  0
  1 39  1  1  0  0  0
  1  2  1  0  0  0  0
  2  3  1  0  0  0  0
  4  6  1  0  0  0  0
  4  3  1  0  0  0  0
  6  5  2  0  0  0  0
  7 11  1  6  0  0  0
  7  6  1  0  0  0  0
  8 11  1  0  0  0  0
  8 10  2  0  0  0  0
  9  8  1  0  0  0  0
 13  7  1  0  0  0  0
 13 12  1  0  0  0  0
 14 13  2  0  0  0  0
 15  1  1  0  0  0  0
 16 19  2  0  0  0  0
 18 19  1  0  0  0  0
 19 15  1  0  0  0  0
 20 24  2  0  0  0  0
 21 17  1  1  0  0  0
 21 16  1  0  0  0  0
 22 23  2  0  0  0  0
 22 20  1  0  0  0  0
 23 17  1  0  0  0  0
 24 21  1  0  0  0  0
 24 18  1  0  0  0  0
 25 27  2  0  0  0  0
 26 20  1  0  0  0  0
 27 26  1  0  0  0  0
 28 29  2  0  0  0  0
 29 27  1  0  0  0  0
 29 30  1  0  0  0  0
 31 30  1  6  0  0  0
 31 32  1  0  0  0  0
 31 33  1  0  0  0  0
 32 34  1  1  0  0  0
 32 33  1  0  0  0  0
 33 36  1  6  0  0  0
 35 34  1  0  0  0  0
 36 37  1  0  0  0  0
 37 38  1  0  0  0  0
 39 40  1  0  0  0  0
 40 42  1  0  0  0  0
 41 45  1  0  0  0  0
 41 42  2  0  0  0  0
 42 44  1  0  0  0  0
 43 48  1  0  0  0  0
 43 46  2  0  0  0  0
 44 46  1  0  0  0  0
 45 43  1  0  0  0  0
 47 45  2  0  0  0  0
 48 50  1  0  0  0  0
 50 49  1  0  0  0  0
M  END
>  <MODEL>
2

>  <REMARK>
 VINA RESULT:      -7.7      1.289      2.200
  Name = 
  20 active torsions:
  status: ('A' for Active; 'I' for Inactive)
    1  A    between atoms: C_2  and  C_7
    2  A    between atoms: C_2  and  O_8
    3  A    between atoms: C_2  and  C_35
    4  A    between atoms: N_3  and  C_18
    5  A    between atoms: O_4  and  C_9
    6  A    between atoms: O_4  and  C_40
    7  A    between atoms: C_6  and  C_7
    8  A    between atoms: C_6  and  C_15
    9  A    between atoms: O_8  and  C_23
   10  A    between atoms: C_11  and  C_36
   11  A    between atoms: C_18  and  C_35
   12  A    between atoms: C_22  and  CA_50
   13  A    between atoms: C_25  and  CA_50
   14  A    between atoms: N_26  and  C_28
   15  A    between atoms: C_30  and  C_37
   16  A    between atoms: C_30  and  O_48
   17  A    between atoms: C_33  and  O_48
   18  A    between atoms: O_38  and  C_39
   19  A    between atoms: O_38  and  C_42
   20  A    between atoms: N_47  and  CA_50
                            x       y       z     vdW  Elec       q    Type
                         _______ _______ _______ _____ _____    ______ ____

>  <TORSDO>
F 20

$$$$
=
 OpenBabel10222419043D

 50 53  0  0  1  0  0  0  0  0999 V2000
  188.2170  177.6680  139.0090 C   0  0  1  0  0  3  0  0  0  0  0  0
  189.3410  176.7860  139.5590 C   0  0  0  0  0  2  0  0  0  0  0  0
  190.7040  177.2850  139.0990 C   0  0  0  0  0  2  0  0  0  0  0  0
  191.4500  176.2080  138.4620 N   0  0  0  0  0  2  0  0  0  0  0  0
  193.5140  177.2950  138.5660 O   0  0  0  0  0  0  0  0  0  0  0  0
  192.8670  176.2540  138.2770 C   0  0  0  0  0  0  0  0  0  0  0  0
  193.6000  175.0450  137.7800 C   0  0  2  0  0  3  0  0  0  0  0  0
  195.7910  174.1270  138.6560 C   0  0  0  0  0  0  0  0  0  0  0  0
  197.2340  174.3390  138.9440 C   0  0  0  0  0  1  0  0  0  0  0  0
  195.2490  173.0310  138.9670 O   0  0  0  0  0  0  0  0  0  0  0  0
  195.0330  175.1650  138.0310 N   0  0  0  0  0  2  0  0  0  0  0  0
  192.9640  175.8970  135.5110 O   0  0  0  0  0  0  0  0  0  0  0  0
  193.3510  174.8380  136.3220 C   0  0  0  0  0  0  0  0  0  0  0  0
  193.4990  173.6950  135.8210 O   0  0  0  0  0  1  0  0  0  0  0  0
  187.7690  178.6520  139.9450 O   0  0  0  0  0  0  0  0  0  0  0  0
  185.5300  178.3270  140.6570 N   0  0  0  0  0  0  0  0  0  0  0  0
  183.4360  179.3620  142.0240 S   0  0  0  0  0  0  0  0  0  0  0  0
  187.1290  178.4010  142.3740 C   0  0  0  0  0  2  0  0  0  0  0  0
  186.7910  178.4540  140.9270 C   0  0  0  0  0  0  0  0  0  0  0  0
  185.4380  178.5360  144.2340 C   0  0  0  0  0  0  0  0  0  0  0  0
  184.7570  178.1200  141.8690 C   0  0  2  0  0  3  0  0  0  0  0  0
  184.0090  178.6040  144.6110 C   0  0  0  0  0  3  0  0  0  0  0  0
  183.0490  178.8750  143.7170 C   0  0  0  0  0  3  0  0  0  0  0  0
  185.7620  178.3270  142.9510 C   0  0  0  0  0  0  0  0  0  0  0  0
  186.6150  176.4430  145.9380 O   0  0  0  0  0  0  0  0  0  0  0  0
  186.4830  178.6720  145.2100 N   0  0  0  0  0  2  0  0  0  0  0  0
  187.0390  177.6280  146.0230 C   0  0  0  0  0  0  0  0  0  0  0  0
  187.8440  178.0960  148.1940 O   0  0  0  0  0  0  0  0  0  0  0  0
  188.1110  177.9460  146.9700 C   0  0  0  0  0  0  0  0  0  0  0  0
  189.4260  178.0730  146.5120 O   0  0  0  0  0  0  0  0  0  0  0  0
  189.8910  177.3790  145.3590 C   0  0  1  0  0  3  0  0  0  0  0  0
  191.1510  178.0390  144.8410 C   0  0  1  0  0  3  0  0  0  0  0  0
  191.2530  176.7310  145.5990 C   0  0  1  0  0  3  0  0  0  0  0  0
  191.2930  177.7700  143.3590 C   0  0  0  0  0  2  0  0  0  0  0  0
  191.6350  176.4280  143.1550 O   0  0  0  0  0  1  0  0  0  0  0  0
  191.7150  176.9710  146.8960 O   0  0  0  0  0  0  0  0  0  0  0  0
  192.3650  175.7920  147.2660 C   0  0  0  0  0  2  0  0  0  0  0  0
  192.9850  175.9730  148.5000 O   0  0  0  0  0  1  0  0  0  0  0  0
  188.4790  178.2490  137.6160 C   0  0  0  0  0  2  0  0  0  0  0  0
  187.2050  178.5510  136.8430 C   0  0  0  0  0  2  0  0  0  0  0  0
  185.1380  177.3040  137.2050 C   0  0  0  0  0  3  0  0  0  0  0  0
  186.3820  177.3160  136.7140 C   0  0  0  0  0  0  0  0  0  0  0  0
  184.8510  174.8800  136.5010 C   0  0  0  0  0  0  0  0  0  0  0  0
  186.9620  176.1350  135.9690 C   0  0  0  0  0  2  0  0  0  0  0  0
  184.2990  176.1040  137.1000 C   0  0  0  0  0  0  0  0  0  0  0  0
  186.0940  174.8970  135.9960 C   0  0  0  0  0  3  0  0  0  0  0  0
  183.1210  176.1230  137.5420 O   0  0  0  0  0  0  0  0  0  0  0  0
  184.0640  173.7190  136.4740 O   0  0  0  0  0  0  0  0  0  0  0  0
  183.3000  171.5060  137.0560 C   0  0  0  0  0  1  0  0  0  0  0  0
  184.4430  172.5040  137.1140 C   0  0  0  0  0  2  0  0  0  0  0  0
  1 39  1  6  0  0  0
  1  2  1  0  0  0  0
  1 15  1  0  0  0  0
  3  2  1  0  0  0  0
  4  3  1  0  0  0  0
  6  4  1  0  0  0  0
  6  5  2  0  0  0  0
  7 13  1  6  0  0  0
  7 11  1  0  0  0  0
  7  6  1  0  0  0  0
  8  9  1  0  0  0  0
  8 10  2  0  0  0  0
 11  8  1  0  0  0  0
 12 13  2  0  0  0  0
 14 13  1  0  0  0  0
 15 19  1  0  0  0  0
 16 19  2  0  0  0  0
 17 23  1  0  0  0  0
 18 24  1  0  0  0  0
 19 18  1  0  0  0  0
 20 22  1  0  0  0  0
 20 26  1  0  0  0  0
 21 16  1  6  0  0  0
 21 17  1  0  0  0  0
 21 24  1  0  0  0  0
 23 22  2  0  0  0  0
 24 20  2  0  0  0  0
 25 27  2  0  0  0  0
 26 27  1  0  0  0  0
 27 29  1  0  0  0  0
 29 28  2  0  0  0  0
 30 29  1  0  0  0  0
 31 33  1  0  0  0  0
 31 30  1  1  0  0  0
 32 34  1  6  0  0  0
 32 31  1  0  0  0  0
 32 33  1  0  0  0  0
 33 36  1  1  0  0  0
 35 34  1  0  0  0  0
 36 37  1  0  0  0  0
 37 38  1  0  0  0  0
 40 39  1  0  0  0  0
 42 40  1  0  0  0  0
 42 41  2  0  0  0  0
 43 45  1  0  0  0  0
 44 46  1  0  0  0  0
 44 42  1  0  0  0  0
 45 41  1  0  0  0  0
 45 47  2  0  0  0  0
 46 43  2  0  0  0  0
 48 43  1  0  0  0  0
 48 50  1  0  0  0  0
 49 50  1  0  0  0  0
M  END
>  <MODEL>
3

>  <REMARK>
 VINA RESULT:      -7.2      2.920     10.640
  Name = 
  20 active torsions:
  status: ('A' for Active; 'I' for Inactive)
    1  A    between atoms: C_2  and  C_7
    2  A    between atoms: C_2  and  O_8
    3  A    between atoms: C_2  and  C_35
    4  A    between atoms: N_3  and  C_18
    5  A    between atoms: O_4  and  C_9
    6  A    between atoms: O_4  and  C_40
    7  A    between atoms: C_6  and  C_7
    8  A    between atoms: C_6  and  C_15
    9  A    between atoms: O_8  and  C_23
   10  A    between atoms: C_11  and  C_36
   11  A    between atoms: C_18  and  C_35
   12  A    between atoms: C_22  and  CA_50
   13  A    between atoms: C_25  and  CA_50
   14  A    between atoms: N_26  and  C_28
   15  A    between atoms: C_30  and  C_37
   16  A    between atoms: C_30  and  O_48
   17  A    between atoms: C_33  and  O_48
   18  A    between atoms: O_38  and  C_39
   19  A    between atoms: O_38  and  C_42
   20  A    between atoms: N_47  and  CA_50
                            x       y       z     vdW  Elec       q    Type
                         _______ _______ _______ _____ _____    ______ ____

>  <TORSDO>
F 20

$$$$
=
 OpenBabel10222419043D

 50 53  0  0  1  0  0  0  0  0999 V2000
  186.2050  178.5240  140.9010 C   0  0  1  0  0  3  0  0  0  0  0  0
  185.1040  179.0450  141.8290 C   0  0  0  0  0  2  0  0  0  0  0  0
  183.8680  178.1570  141.7660 C   0  0  0  0  0  2  0  0  0  0  0  0
  182.6720  178.9670  141.5870 N   0  0  0  0  0  2  0  0  0  0  0  0
  181.5610  177.4040  140.2530 O   0  0  0  0  0  0  0  0  0  0  0  0
  181.5280  178.5050  140.8630 C   0  0  0  0  0  0  0  0  0  0  0  0
  180.2620  179.3090  140.8640 C   0  0  2  0  0  3  0  0  0  0  0  0
  180.4260  180.6650  138.7320 C   0  0  0  0  0  0  0  0  0  0  0  0
  180.6880  181.9710  138.0720 C   0  0  0  0  0  1  0  0  0  0  0  0
  180.1860  179.6480  138.0240 O   0  0  0  0  0  0  0  0  0  0  0  0
  180.4480  180.5730  140.1580 N   0  0  0  0  0  2  0  0  0  0  0  0
  179.2190  178.5520  143.0130 O   0  0  0  0  0  1  0  0  0  0  0  0
  179.8000  179.5650  142.2610 C   0  0  0  0  0  0  0  0  0  0  0  0
  179.9440  180.7070  142.7650 O   0  0  0  0  0  0  0  0  0  0  0  0
  186.0440  178.9520  139.5460 O   0  0  0  0  0  0  0  0  0  0  0  0
  184.5840  177.9500  137.9670 N   0  0  0  0  0  0  0  0  0  0  0  0
  183.4660  175.6480  137.0890 S   0  0  0  0  0  0  0  0  0  0  0  0
  186.8400  177.3240  137.7880 C   0  0  0  0  0  2  0  0  0  0  0  0
  185.7720  178.1160  138.4560 C   0  0  0  0  0  0  0  0  0  0  0  0
  186.4110  175.4490  136.1640 C   0  0  0  0  0  0  0  0  0  0  0  0
  184.6100  177.0410  136.8360 C   0  0  2  0  0  3  0  0  0  0  0  0
  185.4120  174.6730  135.3980 C   0  0  0  0  0  3  0  0  0  0  0  0
  184.1010  174.7450  135.6620 C   0  0  0  0  0  3  0  0  0  0  0  0
  186.0130  176.5360  136.8390 C   0  0  0  0  0  0  0  0  0  0  0  0
  187.5980  172.9380  137.1470 O   0  0  0  0  0  0  0  0  0  0  0  0
  187.7980  175.0750  136.1900 N   0  0  0  0  0  2  0  0  0  0  0  0
  188.3450  173.8380  136.6730 C   0  0  0  0  0  0  0  0  0  0  0  0
  190.3130  173.1130  135.5870 O   0  0  0  0  0  0  0  0  0  0  0  0
  189.7930  173.6200  136.6190 C   0  0  0  0  0  0  0  0  0  0  0  0
  190.5900  173.9820  137.7080 O   0  0  0  0  0  0  0  0  0  0  0  0
  191.9060  174.4980  137.5380 C   0  0  1  0  0  3  0  0  0  0  0  0
  191.8390  175.8550  136.8730 C   0  0  1  0  0  3  0  0  0  0  0  0
  192.1280  175.7670  138.3570 C   0  0  1  0  0  3  0  0  0  0  0  0
  193.1290  176.1210  136.1270 C   0  0  0  0  0  2  0  0  0  0  0  0
  194.2170  175.9340  136.9890 O   0  0  0  0  0  1  0  0  0  0  0  0
  190.9860  176.1160  139.0830 O   0  0  0  0  0  0  0  0  0  0  0  0
  191.3000  177.3440  139.6710 C   0  0  0  0  0  2  0  0  0  0  0  0
  192.6310  177.3340  140.0820 O   0  0  0  0  0  1  0  0  0  0  0  0
  187.6320  178.7220  141.4210 C   0  0  0  0  0  2  0  0  0  0  0  0
  188.4070  177.4220  141.5590 C   0  0  0  0  0  2  0  0  0  0  0  0
  188.0080  177.4480  143.9670 C   0  0  0  0  0  3  0  0  0  0  0  0
  188.8700  177.2500  142.9640 C   0  0  0  0  0  0  0  0  0  0  0  0
  189.8340  176.9730  145.6690 C   0  0  0  0  0  0  0  0  0  0  0  0
  190.2910  176.7920  143.2050 C   0  0  0  0  0  2  0  0  0  0  0  0
  188.4300  177.2910  145.3640 C   0  0  0  0  0  0  0  0  0  0  0  0
  190.6940  176.7620  144.6620 C   0  0  0  0  0  3  0  0  0  0  0  0
  187.5960  177.4520  146.2920 O   0  0  0  0  0  0  0  0  0  0  0  0
  190.2400  176.9000  147.0100 O   0  0  0  0  0  0  0  0  0  0  0  0
  192.0500  175.4460  147.6630 C   0  0  0  0  0  1  0  0  0  0  0  0
  191.6060  176.8760  147.4110 C   0  0  0  0  0  2  0  0  0  0  0  0
  1 39  1  1  0  0  0
  1  2  1  0  0  0  0
  3  2  1  0  0  0  0
  4  3  1  0  0  0  0
  5  6  2  0  0  0  0
  6  7  1  0  0  0  0
  6  4  1  0  0  0  0
  7 11  1  1  0  0  0
  7 13  1  0  0  0  0
  8 11  1  0  0  0  0
  9  8  1  0  0  0  0
 10  8  2  0  0  0  0
 13 14  2  0  0  0  0
 13 12  1  0  0  0  0
 15  1  1  0  0  0  0
 16 19  2  0  0  0  0
 18 19  1  0  0  0  0
 19 15  1  0  0  0  0
 20 26  1  0  0  0  0
 20 24  2  0  0  0  0
 21 24  1  1  0  0  0
 21 17  1  0  0  0  0
 21 16  1  0  0  0  0
 22 23  2  0  0  0  0
 22 20  1  0  0  0  0
 23 17  1  0  0  0  0
 24 18  1  0  0  0  0
 26 27  1  0  0  0  0
 27 25  2  0  0  0  0
 28 29  2  0  0  0  0
 29 27  1  0  0  0  0
 29 30  1  0  0  0  0
 31 30  1  1  0  0  0
 31 33  1  0  0  0  0
 32 34  1  6  0  0  0
 32 31  1  0  0  0  0
 32 33  1  0  0  0  0
 33 36  1  1  0  0  0
 34 35  1  0  0  0  0
 36 37  1  0  0  0  0
 37 38  1  0  0  0  0
 39 40  1  0  0  0  0
 40 42  1  0  0  0  0
 41 45  1  0  0  0  0
 42 44  1  0  0  0  0
 42 41  2  0  0  0  0
 43 48  1  0  0  0  0
 44 46  1  0  0  0  0
 45 43  1  0  0  0  0
 45 47  2  0  0  0  0
 46 43  2  0  0  0  0
 48 50  1  0  0  0  0
 50 49  1  0  0  0  0
M  END
>  <MODEL>
4

>  <REMARK>
 VINA RESULT:      -7.2      1.998      2.997
  Name = 
  20 active torsions:
  status: ('A' for Active; 'I' for Inactive)
    1  A    between atoms: C_2  and  C_7
    2  A    between atoms: C_2  and  O_8
    3  A    between atoms: C_2  and  C_35
    4  A    between atoms: N_3  and  C_18
    5  A    between atoms: O_4  and  C_9
    6  A    between atoms: O_4  and  C_40
    7  A    between atoms: C_6  and  C_7
    8  A    between atoms: C_6  and  C_15
    9  A    between atoms: O_8  and  C_23
   10  A    between atoms: C_11  and  C_36
   11  A    between atoms: C_18  and  C_35
   12  A    between atoms: C_22  and  CA_50
   13  A    between atoms: C_25  and  CA_50
   14  A    between atoms: N_26  and  C_28
   15  A    between atoms: C_30  and  C_37
   16  A    between atoms: C_30  and  O_48
   17  A    between atoms: C_33  and  O_48
   18  A    between atoms: O_38  and  C_39
   19  A    between atoms: O_38  and  C_42
   20  A    between atoms: N_47  and  CA_50
                            x       y       z     vdW  Elec       q    Type
                         _______ _______ _______ _____ _____    ______ ____

>  <TORSDO>
F 20

$$$$
=
 OpenBabel10222419043D

 50 53  0  0  1  0  0  0  0  0999 V2000
  185.9290  178.2470  144.2310 C   0  0  1  0  0  3  0  0  0  0  0  0
  186.6920  178.5790  145.5160 C   0  0  0  0  0  2  0  0  0  0  0  0
  186.9770  177.3200  146.3250 C   0  0  0  0  0  2  0  0  0  0  0  0
  188.3690  176.9220  146.1680 N   0  0  0  0  0  2  0  0  0  0  0  0
  189.0960  177.9240  148.1490 O   0  0  0  0  0  0  0  0  0  0  0  0
  189.3700  177.2090  147.1490 C   0  0  0  0  0  0  0  0  0  0  0  0
  190.7420  176.6220  147.0170 C   0  0  2  0  0  3  0  0  0  0  0  0
  192.7420  176.3780  148.5510 C   0  0  0  0  0  0  0  0  0  0  0  0
  193.5650  176.9220  149.6630 C   0  0  0  0  0  1  0  0  0  0  0  0
  193.0370  175.2590  148.0490 O   0  0  0  0  0  0  0  0  0  0  0  0
  191.6270  177.1270  148.0620 N   0  0  0  0  0  2  0  0  0  0  0  0
  191.4530  178.2270  145.2300 O   0  0  0  0  0  1  0  0  0  0  0  0
  191.3170  176.9180  145.6710 C   0  0  0  0  0  0  0  0  0  0  0  0
  191.6870  175.9730  144.9310 O   0  0  0  0  0  0  0  0  0  0  0  0
  185.1190  179.3300  143.7670 O   0  0  0  0  0  0  0  0  0  0  0  0
  182.7520  179.4960  143.7870 N   0  0  0  0  0  0  0  0  0  0  0  0
  180.4070  178.1500  143.6930 S   0  0  0  0  0  0  0  0  0  0  0  0
  183.6860  178.6950  141.7870 C   0  0  0  0  0  2  0  0  0  0  0  0
  183.8560  179.2050  143.1750 C   0  0  0  0  0  0  0  0  0  0  0  0
  181.4860  177.9760  140.7990 C   0  0  0  0  0  0  0  0  0  0  0  0
  181.6060  179.2820  142.9220 C   0  0  2  0  0  3  0  0  0  0  0  0
  180.0220  177.8550  140.9800 C   0  0  0  0  0  3  0  0  0  0  0  0
  179.4400  177.9930  142.1780 C   0  0  0  0  0  3  0  0  0  0  0  0
  182.2030  178.6280  141.7230 C   0  0  0  0  0  0  0  0  0  0  0  0
  181.2600  175.2520  139.7020 O   0  0  0  0  0  0  0  0  0  0  0  0
  182.1510  177.4250  139.6510 N   0  0  0  0  0  2  0  0  0  0  0  0
  182.0160  176.0910  139.1390 C   0  0  0  0  0  0  0  0  0  0  0  0
  182.1600  175.2510  136.9360 O   0  0  0  0  0  0  0  0  0  0  0  0
  182.7710  175.6970  137.9470 C   0  0  0  0  0  0  0  0  0  0  0  0
  184.1630  175.8220  137.9340 O   0  0  0  0  0  0  0  0  0  0  0  0
  184.8610  176.3370  136.8050 C   0  0  1  0  0  3  0  0  0  0  0  0
  186.2740  176.7050  137.2050 C   0  0  1  0  0  3  0  0  0  0  0  0
  186.0310  175.4410  136.4050 C   0  0  1  0  0  3  0  0  0  0  0  0
  186.7970  177.7860  136.2850 C   0  0  0  0  0  2  0  0  0  0  0  0
  186.8390  179.0070  136.9690 O   0  0  0  0  0  1  0  0  0  0  0  0
  186.1340  174.3260  137.2410 O   0  0  0  0  0  0  0  0  0  0  0  0
  186.9920  173.4540  136.5670 C   0  0  0  0  0  2  0  0  0  0  0  0
  187.2750  173.9670  135.3040 O   0  0  0  0  0  1  0  0  0  0  0  0
  186.7800  177.6240  143.1210 C   0  0  0  0  0  2  0  0  0  0  0  0
  187.1960  178.6210  142.0520 C   0  0  0  0  0  2  0  0  0  0  0  0
  189.5190  177.8700  142.0430 C   0  0  0  0  0  3  0  0  0  0  0  0
  188.4100  178.1310  141.3410 C   0  0  0  0  0  0  0  0  0  0  0  0
  190.7570  177.2510  139.9120 C   0  0  0  0  0  0  0  0  0  0  0  0
  188.3250  177.8830  139.8520 C   0  0  0  0  0  2  0  0  0  0  0  0
  190.7350  177.3900  141.3760 C   0  0  0  0  0  0  0  0  0  0  0  0
  189.6400  177.5010  139.2110 C   0  0  0  0  0  3  0  0  0  0  0  0
  191.7580  177.1210  142.0570 O   0  0  0  0  0  0  0  0  0  0  0  0
  191.9480  176.8630  139.2810 O   0  0  0  0  0  0  0  0  0  0  0  0
  193.4370  176.0850  137.5510 C   0  0  0  0  0  1  0  0  0  0  0  0
  191.9990  176.3630  137.9490 C   0  0  0  0  0  2  0  0  0  0  0  0
  1 39  1  6  0  0  0
  1  2  1  0  0  0  0
  2  3  1  0  0  0  0
  4  3  1  0  0  0  0
  4  6  1  0  0  0  0
  6  5  2  0  0  0  0
  7 13  1  6  0  0  0
  7  6  1  0  0  0  0
  7 11  1  0  0  0  0
  8  9  1  0  0  0  0
 10  8  2  0  0  0  0
 11  8  1  0  0  0  0
 12 13  1  0  0  0  0
 14 13  2  0  0  0  0
 15  1  1  0  0  0  0
 18 19  1  0  0  0  0
 19 15  1  0  0  0  0
 19 16  2  0  0  0  0
 20 22  1  0  0  0  0
 20 24  2  0  0  0  0
 21 24  1  6  0  0  0
 21 17  1  0  0  0  0
 21 16  1  0  0  0  0
 22 23  2  0  0  0  0
 23 17  1  0  0  0  0
 24 18  1  0  0  0  0
 26 20  1  0  0  0  0
 27 26  1  0  0  0  0
 27 25  2  0  0  0  0
 28 29  2  0  0  0  0
 29 27  1  0  0  0  0
 30 29  1  0  0  0  0
 31 32  1  0  0  0  0
 31 30  1  1  0  0  0
 32 34  1  6  0  0  0
 33 31  1  0  0  0  0
 33 32  1  0  0  0  0
 33 36  1  1  0  0  0
 34 35  1  0  0  0  0
 37 36  1  0  0  0  0
 38 37  1  0  0  0  0
 40 39  1  0  0  0  0
 42 41  2  0  0  0  0
 42 40  1  0  0  0  0
 43 45  1  0  0  0  0
 44 42  1  0  0  0  0
 45 41  1  0  0  0  0
 45 47  2  0  0  0  0
 46 44  1  0  0  0  0
 46 43  2  0  0  0  0
 48 43  1  0  0  0  0
 49 50  1  0  0  0  0
 50 48  1  0  0  0  0
M  END
>  <MODEL>
5

>  <REMARK>
 VINA RESULT:      -7.0      3.071      8.569
  Name = 
  20 active torsions:
  status: ('A' for Active; 'I' for Inactive)
    1  A    between atoms: C_2  and  C_7
    2  A    between atoms: C_2  and  O_8
    3  A    between atoms: C_2  and  C_35
    4  A    between atoms: N_3  and  C_18
    5  A    between atoms: O_4  and  C_9
    6  A    between atoms: O_4  and  C_40
    7  A    between atoms: C_6  and  C_7
    8  A    between atoms: C_6  and  C_15
    9  A    between atoms: O_8  and  C_23
   10  A    between atoms: C_11  and  C_36
   11  A    between atoms: C_18  and  C_35
   12  A    between atoms: C_22  and  CA_50
   13  A    between atoms: C_25  and  CA_50
   14  A    between atoms: N_26  and  C_28
   15  A    between atoms: C_30  and  C_37
   16  A    between atoms: C_30  and  O_48
   17  A    between atoms: C_33  and  O_48
   18  A    between atoms: O_38  and  C_39
   19  A    between atoms: O_38  and  C_42
   20  A    between atoms: N_47  and  CA_50
                            x       y       z     vdW  Elec       q    Type
                         _______ _______ _______ _____ _____    ______ ____

>  <TORSDO>
F 20

$$$$
=
 OpenBabel10222419043D

 50 53  0  0  1  0  0  0  0  0999 V2000
  189.8720  177.7130  138.9900 C   0  0  1  0  0  3  0  0  0  0  0  0
  188.5810  178.4810  138.6980 C   0  0  0  0  0  2  0  0  0  0  0  0
  188.2450  178.4440  137.2130 C   0  0  0  0  0  2  0  0  0  0  0  0
  186.8160  178.2390  137.0220 N   0  0  0  0  0  2  0  0  0  0  0  0
  186.9290  175.9070  137.0980 O   0  0  0  0  0  0  0  0  0  0  0  0
  186.2140  176.9420  137.0320 C   0  0  0  0  0  0  0  0  0  0  0  0
  184.7210  176.8060  137.0090 C   0  0  2  0  0  3  0  0  0  0  0  0
  182.9190  178.2680  138.0230 C   0  0  0  0  0  0  0  0  0  0  0  0
  182.3930  179.0030  139.2020 C   0  0  0  0  0  1  0  0  0  0  0  0
  182.3010  178.3300  136.9250 O   0  0  0  0  0  0  0  0  0  0  0  0
  184.1180  177.4980  138.1430 N   0  0  0  0  0  2  0  0  0  0  0  0
  184.4150  174.6000  135.8610 O   0  0  0  0  0  0  0  0  0  0  0  0
  184.3220  175.3670  137.0150 C   0  0  0  0  0  0  0  0  0  0  0  0
  183.9030  174.8410  138.0770 O   0  0  0  0  0  1  0  0  0  0  0  0
  189.7410  176.7900  140.0750 O   0  0  0  0  0  0  0  0  0  0  0  0
  191.2090  176.8310  141.9380 N   0  0  0  0  0  0  0  0  0  0  0  0
  191.7460  175.8340  144.3960 S   0  0  0  0  0  0  0  0  0  0  0  0
  189.0360  177.6160  142.3550 C   0  0  0  0  0  2  0  0  0  0  0  0
  190.0470  177.0610  141.4140 C   0  0  0  0  0  0  0  0  0  0  0  0
  189.3140  177.6900  144.8560 C   0  0  0  0  0  0  0  0  0  0  0  0
  191.2370  177.2230  143.3350 C   0  0  2  0  0  3  0  0  0  0  0  0
  190.1960  177.4370  146.0160 C   0  0  0  0  0  3  0  0  0  0  0  0
  191.3180  176.7130  145.9120 C   0  0  0  0  0  3  0  0  0  0  0  0
  189.8150  177.5680  143.6190 C   0  0  0  0  0  0  0  0  0  0  0  0
  187.6280  177.4160  147.2550 O   0  0  0  0  0  0  0  0  0  0  0  0
  187.9410  178.0770  145.0220 N   0  0  0  0  0  2  0  0  0  0  0  0
  187.1470  177.9330  146.2100 C   0  0  0  0  0  0  0  0  0  0  0  0
  185.2750  178.9520  147.2300 O   0  0  0  0  0  0  0  0  0  0  0  0
  185.7550  178.3910  146.2060 C   0  0  0  0  0  0  0  0  0  0  0  0
  184.9670  178.2080  145.0660 O   0  0  0  0  0  0  0  0  0  0  0  0
  185.2500  178.8780  143.8420 C   0  0  1  0  0  3  0  0  0  0  0  0
  184.6880  178.0820  142.6840 C   0  0  1  0  0  3  0  0  0  0  0  0
  183.9750  179.3380  143.1400 C   0  0  1  0  0  3  0  0  0  0  0  0
  185.4780  178.3830  141.4290 C   0  0  0  0  0  2  0  0  0  0  0  0
  185.3380  179.7370  141.0980 O   0  0  0  0  0  1  0  0  0  0  0  0
  182.8340  178.9950  143.8700 O   0  0  0  0  0  0  0  0  0  0  0  0
  181.8130  178.9150  142.9200 C   0  0  0  0  0  2  0  0  0  0  0  0
  180.9990  180.0410  143.0190 O   0  0  0  0  0  1  0  0  0  0  0  0
  190.5450  177.0940  137.7620 C   0  0  0  0  0  2  0  0  0  0  0  0
  190.9850  175.6550  137.9800 C   0  0  0  0  0  2  0  0  0  0  0  0
  192.9880  176.4760  136.8510 C   0  0  0  0  0  3  0  0  0  0  0  0
  192.3340  175.4390  137.3870 C   0  0  0  0  0  0  0  0  0  0  0  0
  194.9140  174.9570  136.1880 C   0  0  0  0  0  0  0  0  0  0  0  0
  192.9480  174.0600  137.4700 C   0  0  0  0  0  2  0  0  0  0  0  0
  194.3170  176.3000  136.2540 C   0  0  0  0  0  0  0  0  0  0  0  0
  194.2630  173.9210  136.7370 C   0  0  0  0  0  3  0  0  0  0  0  0
  194.9280  177.2930  135.7820 O   0  0  0  0  0  0  0  0  0  0  0  0
  196.1510  174.7920  135.5480 O   0  0  0  0  0  0  0  0  0  0  0  0
  198.5570  174.6240  135.5220 C   0  0  0  0  0  1  0  0  0  0  0  0
  197.3510  175.4150  135.9940 C   0  0  0  0  0  2  0  0  0  0  0  0
  1 39  1  6  0  0  0
  1 15  1  0  0  0  0
  2  1  1  0  0  0  0
  3  2  1  0  0  0  0
  4  6  1  0  0  0  0
  4  3  1  0  0  0  0
  6  5  2  0  0  0  0
  7 13  1  1  0  0  0
  7  6  1  0  0  0  0
  7 11  1  0  0  0  0
  8 11  1  0  0  0  0
  8  9  1  0  0  0  0
 10  8  2  0  0  0  0
 12 13  2  0  0  0  0
 13 14  1  0  0  0  0
 15 19  1  0  0  0  0
 17 23  1  0  0  0  0
 18 24  1  0  0  0  0
 19 16  2  0  0  0  0
 19 18  1  0  0  0  0
 20 26  1  0  0  0  0
 20 22  1  0  0  0  0
 21 16  1  6  0  0  0
 21 24  1  0  0  0  0
 21 17  1  0  0  0  0
 23 22  2  0  0  0  0
 24 20  2  0  0  0  0
 26 27  1  0  0  0  0
 27 25  2  0  0  0  0
 29 27  1  0  0  0  0
 29 28  2  0  0  0  0
 30 29  1  0  0  0  0
 31 30  1  1  0  0  0
 32 34  1  6  0  0  0
 32 33  1  0  0  0  0
 32 31  1  0  0  0  0
 33 31  1  0  0  0  0
 33 36  1  1  0  0  0
 35 34  1  0  0  0  0
 37 38  1  0  0  0  0
 37 36  1  0  0  0  0
 39 40  1  0  0  0  0
 41 42  2  0  0  0  0
 42 44  1  0  0  0  0
 42 40  1  0  0  0  0
 43 45  1  0  0  0  0
 43 46  2  0  0  0  0
 45 41  1  0  0  0  0
 46 44  1  0  0  0  0
 47 45  2  0  0  0  0
 48 50  1  0  0  0  0
 48 43  1  0  0  0  0
 49 50  1  0  0  0  0
M  END
>  <MODEL>
6

>  <REMARK>
 VINA RESULT:      -7.0      3.081      9.692
  Name = 
  20 active torsions:
  status: ('A' for Active; 'I' for Inactive)
    1  A    between atoms: C_2  and  C_7
    2  A    between atoms: C_2  and  O_8
    3  A    between atoms: C_2  and  C_35
    4  A    between atoms: N_3  and  C_18
    5  A    between atoms: O_4  and  C_9
    6  A    between atoms: O_4  and  C_40
    7  A    between atoms: C_6  and  C_7
    8  A    between atoms: C_6  and  C_15
    9  A    between atoms: O_8  and  C_23
   10  A    between atoms: C_11  and  C_36
   11  A    between atoms: C_18  and  C_35
   12  A    between atoms: C_22  and  CA_50
   13  A    between atoms: C_25  and  CA_50
   14  A    between atoms: N_26  and  C_28
   15  A    between atoms: C_30  and  C_37
   16  A    between atoms: C_30  and  O_48
   17  A    between atoms: C_33  and  O_48
   18  A    between atoms: O_38  and  C_39
   19  A    between atoms: O_38  and  C_42
   20  A    between atoms: N_47  and  CA_50
                            x       y       z     vdW  Elec       q    Type
                         _______ _______ _______ _____ _____    ______ ____

>  <TORSDO>
F 20

$$$$
=
 OpenBabel10222419043D

 50 53  0  0  1  0  0  0  0  0999 V2000
  184.0980  178.2140  139.7940 C   0  0  1  0  0  3  0  0  0  0  0  0
  182.5690  178.1440  139.7910 C   0  0  0  0  0  2  0  0  0  0  0  0
  182.0850  176.7130  139.9820 C   0  0  0  0  0  2  0  0  0  0  0  0
  181.7270  176.1250  138.6980 N   0  0  0  0  0  2  0  0  0  0  0  0
  179.5480  175.5670  139.3270 O   0  0  0  0  0  0  0  0  0  0  0  0
  180.4180  175.6200  138.4190 C   0  0  0  0  0  0  0  0  0  0  0  0
  180.0590  175.1920  137.0280 C   0  0  2  0  0  3  0  0  0  0  0  0
  181.0800  172.8750  137.0810 C   0  0  0  0  0  0  0  0  0  0  0  0
  182.1050  171.9260  136.5740 C   0  0  0  0  0  1  0  0  0  0  0  0
  180.2890  172.5080  137.9920 O   0  0  0  0  0  0  0  0  0  0  0  0
  181.0000  174.1930  136.5320 N   0  0  0  0  0  2  0  0  0  0  0  0
  180.2240  176.2030  134.7420 O   0  0  0  0  0  0  0  0  0  0  0  0
  180.0230  176.3660  136.1060 C   0  0  0  0  0  0  0  0  0  0  0  0
  179.8030  177.5140  136.5690 O   0  0  0  0  0  1  0  0  0  0  0  0
  184.6430  178.5870  138.5250 O   0  0  0  0  0  0  0  0  0  0  0  0
  184.4420  177.3920  136.4850 N   0  0  0  0  0  0  0  0  0  0  0  0
  184.2110  174.9610  135.3210 S   0  0  0  0  0  0  0  0  0  0  0  0
  186.4270  177.0130  137.6800 C   0  0  0  0  0  2  0  0  0  0  0  0
  185.1130  177.6990  137.5490 C   0  0  0  0  0  0  0  0  0  0  0  0
  187.1550  175.0620  136.2650 C   0  0  0  0  0  0  0  0  0  0  0  0
  185.1830  176.4630  135.6520 C   0  0  2  0  0  3  0  0  0  0  0  0
  186.8420  174.1630  135.1330 C   0  0  0  0  0  3  0  0  0  0  0  0
  185.6180  174.0980  134.5940 C   0  0  0  0  0  3  0  0  0  0  0  0
  186.3600  176.1150  136.4970 C   0  0  0  0  0  0  0  0  0  0  0  0
  189.9050  176.0480  135.8920 O   0  0  0  0  0  0  0  0  0  0  0  0
  188.2970  174.8430  137.1090 N   0  0  0  0  0  2  0  0  0  0  0  0
  189.6260  175.3430  136.9000 C   0  0  0  0  0  0  0  0  0  0  0  0
  191.5770  174.1920  137.5730 O   0  0  0  0  0  0  0  0  0  0  0  0
  190.6760  175.0250  137.8720 C   0  0  0  0  0  0  0  0  0  0  0  0
  190.6780  175.6510  139.1220 O   0  0  0  0  0  0  0  0  0  0  0  0
  190.2870  177.0100  139.2820 C   0  0  1  0  0  3  0  0  0  0  0  0
  189.1400  177.0970  140.2650 C   0  0  1  0  0  3  0  0  0  0  0  0
  190.5310  177.5060  140.7060 C   0  0  1  0  0  3  0  0  0  0  0  0
  188.3210  178.3380  139.9820 C   0  0  0  0  0  2  0  0  0  0  0  0
  188.9830  179.1330  139.0390 O   0  0  0  0  0  1  0  0  0  0  0  0
  191.0840  176.5060  141.5100 O   0  0  0  0  0  0  0  0  0  0  0  0
  190.4650  176.6650  142.7520 C   0  0  0  0  0  2  0  0  0  0  0  0
  191.3600  177.2500  143.6440 O   0  0  0  0  0  1  0  0  0  0  0  0
  184.7050  179.0050  140.9560 C   0  0  0  0  0  2  0  0  0  0  0  0
  183.9300  178.8510  142.2550 C   0  0  0  0  0  2  0  0  0  0  0  0
  184.5210  178.8210  144.6240 C   0  0  0  0  0  3  0  0  0  0  0  0
  184.8610  178.5120  143.3670 C   0  0  0  0  0  0  0  0  0  0  0  0
  186.7270  177.8970  145.4800 C   0  0  0  0  0  0  0  0  0  0  0  0
  186.1360  177.7670  143.0410 C   0  0  0  0  0  2  0  0  0  0  0  0
  185.4140  178.5050  145.7440 C   0  0  0  0  0  0  0  0  0  0  0  0
  187.0620  177.5760  144.2210 C   0  0  0  0  0  3  0  0  0  0  0  0
  185.0630  178.7770  146.9210 O   0  0  0  0  0  0  0  0  0  0  0  0
  187.6020  177.6690  146.5530 O   0  0  0  0  0  0  0  0  0  0  0  0
  189.6670  177.5080  147.7880 C   0  0  0  0  0  1  0  0  0  0  0  0
  189.0090  177.8730  146.4700 C   0  0  0  0  0  2  0  0  0  0  0  0
  1  2  1  6  0  0  0
  1 39  1  0  0  0  0
  2  3  1  0  0  0  0
  4  3  1  0  0  0  0
  6  4  1  0  0  0  0
  6  5  2  0  0  0  0
  7 13  1  6  0  0  0
  7  6  1  0  0  0  0
  8 10  2  0  0  0  0
  9  8  1  0  0  0  0
 11  7  1  0  0  0  0
 11  8  1  0  0  0  0
 12 13  2  0  0  0  0
 13 14  1  0  0  0  0
 15  1  1  0  0  0  0
 16 19  2  0  0  0  0
 19 18  1  0  0  0  0
 19 15  1  0  0  0  0
 20 24  2  0  0  0  0
 20 26  1  0  0  0  0
 21 17  1  1  0  0  0
 21 16  1  0  0  0  0
 21 24  1  0  0  0  0
 22 20  1  0  0  0  0
 23 22  2  0  0  0  0
 23 17  1  0  0  0  0
 24 18  1  0  0  0  0
 25 27  2  0  0  0  0
 27 26  1  0  0  0  0
 27 29  1  0  0  0  0
 28 29  2  0  0  0  0
 29 30  1  0  0  0  0
 31 30  1  1  0  0  0
 31 32  1  0  0  0  0
 31 33  1  0  0  0  0
 32 34  1  6  0  0  0
 32 33  1  0  0  0  0
 33 36  1  1  0  0  0
 35 34  1  0  0  0  0
 36 37  1  0  0  0  0
 37 38  1  0  0  0  0
 39 40  1  0  0  0  0
 40 42  1  0  0  0  0
 41 45  1  0  0  0  0
 42 41  2  0  0  0  0
 43 45  1  0  0  0  0
 43 48  1  0  0  0  0
 44 42  1  0  0  0  0
 44 46  1  0  0  0  0
 45 47  2  0  0  0  0
 46 43  2  0  0  0  0
 50 48  1  0  0  0  0
 50 49  1  0  0  0  0
M  END
>  <MODEL>
7

>  <REMARK>
 VINA RESULT:      -7.0      2.981      4.825
  Name = 
  20 active torsions:
  status: ('A' for Active; 'I' for Inactive)
    1  A    between atoms: C_2  and  C_7
    2  A    between atoms: C_2  and  O_8
    3  A    between atoms: C_2  and  C_35
    4  A    between atoms: N_3  and  C_18
    5  A    between atoms: O_4  and  C_9
    6  A    between atoms: O_4  and  C_40
    7  A    between atoms: C_6  and  C_7
    8  A    between atoms: C_6  and  C_15
    9  A    between atoms: O_8  and  C_23
   10  A    between atoms: C_11  and  C_36
   11  A    between atoms: C_18  and  C_35
   12  A    between atoms: C_22  and  CA_50
   13  A    between atoms: C_25  and  CA_50
   14  A    between atoms: N_26  and  C_28
   15  A    between atoms: C_30  and  C_37
   16  A    between atoms: C_30  and  O_48
   17  A    between atoms: C_33  and  O_48
   18  A    between atoms: O_38  and  C_39
   19  A    between atoms: O_38  and  C_42
   20  A    between atoms: N_47  and  CA_50
                            x       y       z     vdW  Elec       q    Type
                         _______ _______ _______ _____ _____    ______ ____

>  <TORSDO>
F 20

$$$$
=
 OpenBabel10222419043D

 50 53  0  0  1  0  0  0  0  0999 V2000
  185.4410  179.3730  140.7810 C   0  0  1  0  0  3  0  0  0  0  0  0
  186.2960  178.1560  140.4200 C   0  0  0  0  0  2  0  0  0  0  0  0
  187.6060  178.5810  139.7680 C   0  0  0  0  0  2  0  0  0  0  0  0
  188.6950  177.7250  140.2160 N   0  0  0  0  0  2  0  0  0  0  0  0
  190.0280  178.0820  138.3310 O   0  0  0  0  0  0  0  0  0  0  0  0
  189.9060  177.5640  139.4720 C   0  0  0  0  0  0  0  0  0  0  0  0
  191.0600  176.8140  140.0670 C   0  0  2  0  0  3  0  0  0  0  0  0
  191.1990  177.0880  142.5810 C   0  0  0  0  0  0  0  0  0  0  0  0
  191.6920  177.8620  143.7490 C   0  0  0  0  0  1  0  0  0  0  0  0
  190.4610  176.0820  142.7680 O   0  0  0  0  0  0  0  0  0  0  0  0
  191.5620  177.4910  141.2580 N   0  0  0  0  0  2  0  0  0  0  0  0
  192.0250  175.7670  138.0050 O   0  0  0  0  0  0  0  0  0  0  0  0
  192.1570  176.6520  139.0670 C   0  0  0  0  0  0  0  0  0  0  0  0
  193.2090  177.3290  139.1830 O   0  0  0  0  0  1  0  0  0  0  0  0
  184.4320  179.6560  139.8070 O   0  0  0  0  0  0  0  0  0  0  0  0
  182.0850  179.5100  140.1170 N   0  0  0  0  0  0  0  0  0  0  0  0
  180.0630  178.2430  141.3920 S   0  0  0  0  0  0  0  0  0  0  0  0
  183.0830  177.6380  139.1130 C   0  0  0  0  0  2  0  0  0  0  0  0
  183.2000  179.0000  139.6990 C   0  0  0  0  0  0  0  0  0  0  0  0
  181.0390  176.1810  139.3030 C   0  0  0  0  0  0  0  0  0  0  0  0
  180.9730  178.6130  139.8600 C   0  0  2  0  0  3  0  0  0  0  0  0
  179.6400  176.0570  139.7670 C   0  0  0  0  0  3  0  0  0  0  0  0
  179.0900  176.9410  140.6100 C   0  0  0  0  0  3  0  0  0  0  0  0
  181.6440  177.3740  139.3710 C   0  0  0  0  0  0  0  0  0  0  0  0
  180.9080  175.0730  136.5770 O   0  0  0  0  0  0  0  0  0  0  0  0
  181.7580  175.0580  138.7670 N   0  0  0  0  0  2  0  0  0  0  0  0
  181.6740  174.5450  137.4290 C   0  0  0  0  0  0  0  0  0  0  0  0
  181.9270  172.3220  136.6700 O   0  0  0  0  0  0  0  0  0  0  0  0
  182.4880  173.3870  137.0490 C   0  0  0  0  0  0  0  0  0  0  0  0
  183.8820  173.4720  137.1020 O   0  0  0  0  0  0  0  0  0  0  0  0
  184.6100  174.4070  136.3120 C   0  0  1  0  0  3  0  0  0  0  0  0
  185.3890  175.3380  137.2150 C   0  0  1  0  0  3  0  0  0  0  0  0
  186.1180  174.2350  136.4740 C   0  0  1  0  0  3  0  0  0  0  0  0
  185.6240  176.6540  136.5060 C   0  0  0  0  0  2  0  0  0  0  0  0
  186.9350  177.0870  136.7390 O   0  0  0  0  0  1  0  0  0  0  0  0
  186.4240  173.1960  137.3570 O   0  0  0  0  0  0  0  0  0  0  0  0
  187.6200  172.6590  136.8740 C   0  0  0  0  0  2  0  0  0  0  0  0
  187.3390  171.7190  135.8860 O   0  0  0  0  0  1  0  0  0  0  0  0
  184.9010  179.3780  142.2140 C   0  0  0  0  0  2  0  0  0  0  0  0
  184.8380  177.9930  142.8360 C   0  0  0  0  0  2  0  0  0  0  0  0
  185.2900  178.5180  145.1770 C   0  0  0  0  0  3  0  0  0  0  0  0
  185.7060  177.9370  144.0460 C   0  0  0  0  0  0  0  0  0  0  0  0
  187.4510  177.8630  146.3430 C   0  0  0  0  0  0  0  0  0  0  0  0
  187.0040  177.1660  143.9700 C   0  0  0  0  0  2  0  0  0  0  0  0
  186.1190  178.4870  146.3870 C   0  0  0  0  0  0  0  0  0  0  0  0
  187.8610  177.2700  145.2110 C   0  0  0  0  0  3  0  0  0  0  0  0
  185.6970  179.0130  147.4490 O   0  0  0  0  0  0  0  0  0  0  0  0
  188.2630  177.9070  147.4850 O   0  0  0  0  0  0  0  0  0  0  0  0
  190.1830  176.4540  147.3460 C   0  0  0  0  0  1  0  0  0  0  0  0
  189.6860  177.8860  147.4330 C   0  0  0  0  0  2  0  0  0  0  0  0
  1  2  1  6  0  0  0
  1 39  1  0  0  0  0
  3  4  1  0  0  0  0
  3  2  1  0  0  0  0
  5  6  2  0  0  0  0
  6  7  1  0  0  0  0
  6  4  1  0  0  0  0
  7 13  1  6  0  0  0
  7 11  1  0  0  0  0
  8 10  2  0  0  0  0
  8  9  1  0  0  0  0
 11  8  1  0  0  0  0
 12 13  2  0  0  0  0
 13 14  1  0  0  0  0
 15  1  1  0  0  0  0
 18 24  1  0  0  0  0
 18 19  1  0  0  0  0
 19 15  1  0  0  0  0
 19 16  2  0  0  0  0
 20 24  2  0  0  0  0
 20 22  1  0  0  0  0
 21 24  1  1  0  0  0
 21 16  1  0  0  0  0
 21 17  1  0  0  0  0
 22 23  2  0  0  0  0
 23 17  1  0  0  0  0
 25 27  2  0  0  0  0
 26 20  1  0  0  0  0
 27 26  1  0  0  0  0
 28 29  2  0  0  0  0
 29 30  1  0  0  0  0
 29 27  1  0  0  0  0
 31 33  1  0  0  0  0
 31 30  1  1  0  0  0
 31 32  1  0  0  0  0
 32 34  1  6  0  0  0
 33 32  1  0  0  0  0
 33 36  1  1  0  0  0
 34 35  1  0  0  0  0
 37 36  1  0  0  0  0
 38 37  1  0  0  0  0
 39 40  1  0  0  0  0
 40 42  1  0  0  0  0
 41 45  1  0  0  0  0
 42 41  2  0  0  0  0
 43 45  1  0  0  0  0
 43 48  1  0  0  0  0
 44 42  1  0  0  0  0
 44 46  1  0  0  0  0
 45 47  2  0  0  0  0
 46 43  2  0  0  0  0
 49 50  1  0  0  0  0
 50 48  1  0  0  0  0
M  END
>  <MODEL>
8

>  <REMARK>
 VINA RESULT:      -6.9      3.019      7.821
  Name = 
  20 active torsions:
  status: ('A' for Active; 'I' for Inactive)
    1  A    between atoms: C_2  and  C_7
    2  A    between atoms: C_2  and  O_8
    3  A    between atoms: C_2  and  C_35
    4  A    between atoms: N_3  and  C_18
    5  A    between atoms: O_4  and  C_9
    6  A    between atoms: O_4  and  C_40
    7  A    between atoms: C_6  and  C_7
    8  A    between atoms: C_6  and  C_15
    9  A    between atoms: O_8  and  C_23
   10  A    between atoms: C_11  and  C_36
   11  A    between atoms: C_18  and  C_35
   12  A    between atoms: C_22  and  CA_50
   13  A    between atoms: C_25  and  CA_50
   14  A    between atoms: N_26  and  C_28
   15  A    between atoms: C_30  and  C_37
   16  A    between atoms: C_30  and  O_48
   17  A    between atoms: C_33  and  O_48
   18  A    between atoms: O_38  and  C_39
   19  A    between atoms: O_38  and  C_42
   20  A    between atoms: N_47  and  CA_50
                            x       y       z     vdW  Elec       q    Type
                         _______ _______ _______ _____ _____    ______ ____

>  <TORSDO>
F 20

$$$$
=
 OpenBabel10222419043D

 50 53  0  0  1  0  0  0  0  0999 V2000
  185.5080  178.1970  143.9940 C   0  0  1  0  0  3  0  0  0  0  0  0
  186.1720  178.5960  145.3140 C   0  0  0  0  0  2  0  0  0  0  0  0
  186.9750  177.4390  145.8950 C   0  0  0  0  0  2  0  0  0  0  0  0
  188.4010  177.6730  145.7150 N   0  0  0  0  0  2  0  0  0  0  0  0
  189.0430  176.5480  147.6590 O   0  0  0  0  0  0  0  0  0  0  0  0
  189.3890  177.1490  146.6070 C   0  0  0  0  0  0  0  0  0  0  0  0
  190.8450  177.2710  146.2730 C   0  0  2  0  0  3  0  0  0  0  0  0
  191.4860  177.6700  143.8560 C   0  0  0  0  0  0  0  0  0  0  0  0
  191.6770  177.1280  142.4850 C   0  0  0  0  0  1  0  0  0  0  0  0
  191.6580  178.9020  144.0670 O   0  0  0  0  0  0  0  0  0  0  0  0
  191.1100  176.7920  144.9200 N   0  0  0  0  0  2  0  0  0  0  0  0
  192.0620  177.1000  148.4560 O   0  0  0  0  0  1  0  0  0  0  0  0
  191.6770  176.5160  147.2560 C   0  0  0  0  0  0  0  0  0  0  0  0
  192.0290  175.3370  147.0000 O   0  0  0  0  0  0  0  0  0  0  0  0
  184.6920  179.2340  143.4420 O   0  0  0  0  0  0  0  0  0  0  0  0
  182.3290  179.2780  143.2370 N   0  0  0  0  0  0  0  0  0  0  0  0
  180.0740  177.8140  142.9370 S   0  0  0  0  0  0  0  0  0  0  0  0
  183.4880  178.5130  141.3440 C   0  0  0  0  0  2  0  0  0  0  0  0
  183.4990  179.0400  142.7350 C   0  0  0  0  0  0  0  0  0  0  0  0
  181.4300  177.6750  140.1600 C   0  0  0  0  0  0  0  0  0  0  0  0
  181.2820  179.0000  142.2700 C   0  0  2  0  0  3  0  0  0  0  0  0
  179.9640  177.4810  140.2030 C   0  0  0  0  0  3  0  0  0  0  0  0
  179.2650  177.5970  141.3400 C   0  0  0  0  0  3  0  0  0  0  0  0
  182.0230  178.3700  141.1400 C   0  0  0  0  0  0  0  0  0  0  0  0
  181.7730  178.7730  137.4490 O   0  0  0  0  0  0  0  0  0  0  0  0
  182.2290  177.1520  139.0870 N   0  0  0  0  0  2  0  0  0  0  0  0
  182.3780  177.7150  137.7750 C   0  0  0  0  0  0  0  0  0  0  0  0
  183.2570  177.4410  135.6000 O   0  0  0  0  0  0  0  0  0  0  0  0
  183.2440  177.0480  136.7990 C   0  0  0  0  0  0  0  0  0  0  0  0
  184.0540  175.9830  137.2030 O   0  0  0  0  0  0  0  0  0  0  0  0
  184.9490  175.3350  136.3050 C   0  0  1  0  0  3  0  0  0  0  0  0
  185.6710  174.2160  137.0240 C   0  0  1  0  0  3  0  0  0  0  0  0
  184.5520  173.8820  136.0580 C   0  0  1  0  0  3  0  0  0  0  0  0
  187.0030  173.9580  136.3540 C   0  0  0  0  0  2  0  0  0  0  0  0
  187.8250  173.2180  137.2120 O   0  0  0  0  0  1  0  0  0  0  0  0
  183.4010  173.5360  136.7700 O   0  0  0  0  0  0  0  0  0  0  0  0
  183.6360  172.2330  137.2150 C   0  0  0  0  0  2  0  0  0  0  0  0
  182.9000  171.3390  136.4410 O   0  0  0  0  0  1  0  0  0  0  0  0
  186.4530  177.5730  142.9620 C   0  0  0  0  0  2  0  0  0  0  0  0
  187.4250  178.5720  142.3570 C   0  0  0  0  0  2  0  0  0  0  0  0
  186.7260  178.5820  140.0180 C   0  0  0  0  0  3  0  0  0  0  0  0
  187.6570  178.2540  140.9210 C   0  0  0  0  0  0  0  0  0  0  0  0
  188.1220  177.5530  138.1600 C   0  0  0  0  0  0  0  0  0  0  0  0
  188.9740  177.6240  140.5230 C   0  0  0  0  0  2  0  0  0  0  0  0
  186.9190  178.2800  138.5950 C   0  0  0  0  0  0  0  0  0  0  0  0
  189.0600  177.2360  139.0650 C   0  0  0  0  0  3  0  0  0  0  0  0
  186.0450  178.6240  137.7580 O   0  0  0  0  0  0  0  0  0  0  0  0
  188.2570  177.2050  136.8090 O   0  0  0  0  0  0  0  0  0  0  0  0
  190.2210  176.2140  135.8200 C   0  0  0  0  0  1  0  0  0  0  0  0
  189.4240  177.4870  136.0430 C   0  0  0  0  0  2  0  0  0  0  0  0
  1 39  1  6  0  0  0
  1  2  1  0  0  0  0
  2  3  1  0  0  0  0
  4  3  1  0  0  0  0
  4  6  1  0  0  0  0
  6  5  2  0  0  0  0
  7 11  1  6  0  0  0
  7  6  1  0  0  0  0
  7 13  1  0  0  0  0
  8 10  2  0  0  0  0
  8 11  1  0  0  0  0
  9  8  1  0  0  0  0
 13 12  1  0  0  0  0
 14 13  2  0  0  0  0
 15  1  1  0  0  0  0
 18 19  1  0  0  0  0
 19 16  2  0  0  0  0
 19 15  1  0  0  0  0
 20 22  1  0  0  0  0
 20 24  2  0  0  0  0
 21 24  1  6  0  0  0
 21 17  1  0  0  0  0
 21 16  1  0  0  0  0
 22 23  2  0  0  0  0
 23 17  1  0  0  0  0
 24 18  1  0  0  0  0
 25 27  2  0  0  0  0
 26 20  1  0  0  0  0
 27 26  1  0  0  0  0
 28 29  2  0  0  0  0
 29 30  1  0  0  0  0
 29 27  1  0  0  0  0
 31 32  1  0  0  0  0
 31 30  1  1  0  0  0
 32 34  1  6  0  0  0
 33 31  1  0  0  0  0
 33 36  1  1  0  0  0
 33 32  1  0  0  0  0
 34 35  1  0  0  0  0
 36 37  1  0  0  0  0
 38 37  1  0  0  0  0
 40 39  1  0  0  0  0
 41 42  2  0  0  0  0
 42 40  1  0  0  0  0
 43 45  1  0  0  0  0
 43 46  2  0  0  0  0
 44 42  1  0  0  0  0
 45 41  1  0  0  0  0
 46 44  1  0  0  0  0
 47 45  2  0  0  0  0
 48 43  1  0  0  0  0
 49 50  1  0  0  0  0
 50 48  1  0  0  0  0
M  END
>  <MODEL>
9

>  <REMARK>
 VINA RESULT:      -6.8      3.389      8.863
  Name = 
  20 active torsions:
  status: ('A' for Active; 'I' for Inactive)
    1  A    between atoms: C_2  and  C_7
    2  A    between atoms: C_2  and  O_8
    3  A    between atoms: C_2  and  C_35
    4  A    between atoms: N_3  and  C_18
    5  A    between atoms: O_4  and  C_9
    6  A    between atoms: O_4  and  C_40
    7  A    between atoms: C_6  and  C_7
    8  A    between atoms: C_6  and  C_15
    9  A    between atoms: O_8  and  C_23
   10  A    between atoms: C_11  and  C_36
   11  A    between atoms: C_18  and  C_35
   12  A    between atoms: C_22  and  CA_50
   13  A    between atoms: C_25  and  CA_50
   14  A    between atoms: N_26  and  C_28
   15  A    between atoms: C_30  and  C_37
   16  A    between atoms: C_30  and  O_48
   17  A    between atoms: C_33  and  O_48
   18  A    between atoms: O_38  and  C_39
   19  A    between atoms: O_38  and  C_42
   20  A    between atoms: N_47  and  CA_50
                            x       y       z     vdW  Elec       q    Type
                         _______ _______ _______ _____ _____    ______ ____

>  <TORSDO>
F 20

$$$$
