=
 OpenBabel10222420333D

 61 64  0  0  1  0  0  0  0  0999 V2000
  189.4760  174.7600  135.0910 C   0  0  0  0  0  2  0  0  0  0  0  0
  188.2510  175.5560  134.6760 C   0  0  0  0  0  2  0  0  0  0  0  0
  188.8100  177.0760  136.6510 C   0  0  0  0  0  0  0  0  0  0  0  0
  190.0990  176.7070  136.5430 C   0  0  0  0  0  3  0  0  0  0  0  0
  187.7190  176.3740  135.8580 C   0  0  1  0  0  3  0  0  0  0  0  0
  190.5800  175.7310  135.4960 C   0  0  1  0  0  3  0  0  0  0  0  0
  192.8370  174.9470  134.9030 N   0  0  0  0  0  1  0  0  0  0  0  0
  191.8210  174.9620  135.9470 C   0  0  2  0  0  3  0  0  0  0  0  0
  191.4710  173.5440  136.3680 C   0  0  0  0  0  2  0  0  0  0  0  0
  192.6570  172.6920  136.2640 C   0  0  0  0  0  0  0  0  0  0  0  0
  193.6480  172.0090  136.1880 C   0  0  0  0  0  0  0  0  0  0  0  0
  194.5450  169.8510  136.2470 O   0  0  0  0  0  1  0  0  0  0  0  0
  194.8660  171.2020  136.1000 C   0  0  2  0  0  3  0  0  0  0  0  0
  196.0190  171.6940  137.4140 P   0  0  2  0  0  0  0  0  0  0  0  0
  196.9990  170.3700  137.8020 O   0  0  0  0  0  0  0  0  0  0  0  0
  195.2190  172.1020  138.6310 O   0  0  0  0  0  1  0  0  0  0  0  0
  196.9440  173.0040  136.8510 O   0  0  0  0  0  0  0  0  0  0  0  0
  197.8010  175.5390  137.6680 O   0  0  0  0  0  1  0  0  0  0  0  0
  196.6610  173.8600  139.3030 O   0  0  0  0  0  1  0  0  0  0  0  0
  195.0970  174.9730  137.5400 O   0  0  0  0  0  0  0  0  0  0  0  0
  196.6280  174.3340  137.8680 P   0  0  0  0  0  0  0  0  0  0  0  0
  188.3590  178.1480  138.0240 S   0  0  0  0  0  0  0  0  0  0  0  0
  188.7730  176.9210  139.3040 C   0  0  0  0  0  2  0  0  0  0  0  0
  188.9130  177.6050  140.6620 C   0  0  0  0  0  2  0  0  0  0  0  0
  189.4620  176.7170  141.6970 N   0  0  0  0  0  0  0  0  0  0  0  0
  190.8900  176.3980  141.4510 C   0  0  1  0  0  3  0  0  0  0  0  0
  191.5230  177.4190  140.4940 C   0  0  1  0  0  3  0  0  0  0  0  0
  192.3430  178.3300  141.1690 O   0  0  0  0  0  1  0  0  0  0  0  0
  193.6240  177.0790  139.3700 O   0  0  0  0  0  1  0  0  0  0  0  0
  192.2650  176.7660  139.3330 C   0  0  0  0  0  2  0  0  0  0  0  0
  191.6870  176.3360  142.7600 C   0  0  0  0  0  2  0  0  0  0  0  0
  191.2010  175.1650  143.5950 C   0  0  0  0  0  1  0  0  0  0  0  0
  189.1580  177.3120  143.0170 C   0  0  1  0  0  3  0  0  0  0  0  0
  190.2360  179.4050  143.5360 O   0  0  0  0  0  1  0  0  0  0  0  0
  189.1080  178.8360  142.9420 C   0  0  0  0  0  2  0  0  0  0  0  0
  187.9650  176.6950  143.7640 C   0  0  0  0  0  2  0  0  0  0  0  0
  188.0720  177.9680  147.3980 C   0  0  0  0  0  0  0  0  0  0  0  0
  185.7160  178.0760  146.5490 C   0  0  1  0  0  3  0  0  0  0  0  0
  188.5670  177.3760  146.0990 C   0  0  0  0  0  2  0  0  0  0  0  0
  186.1720  177.1380  145.4290 C   0  0  0  0  0  2  0  0  0  0  0  0
  189.0330  178.1370  148.5240 C   0  0  0  0  0  1  0  0  0  0  0  0
  186.7700  178.2090  147.6210 C   0  0  0  0  0  3  0  0  0  0  0  0
  187.5630  177.5450  144.9570 C   0  0  2  0  0  3  0  0  0  0  0  0
  185.4340  179.3380  146.0160 O   0  0  0  0  0  0  0  0  0  0  0  0
  184.1760  179.2050  145.4190 C   0  0  0  0  0  2  0  0  0  0  0  0
  184.2550  179.6530  143.9740 C   0  0  0  0  0  2  0  0  0  0  0  0
  182.9970  179.5470  143.3780 O   0  0  0  0  0  1  0  0  0  0  0  0
  186.6710  177.3500  135.3540 C   0  0  0  0  0  2  0  0  0  0  0  0
  185.2730  176.8160  135.6180 C   0  0  0  0  0  2  0  0  0  0  0  0
  185.3640  175.5070  136.2460 N   0  0  0  0  0  2  0  0  0  0  0  0
  184.1620  175.3150  137.0440 C   0  0  0  0  0  2  0  0  0  0  0  0
  184.0550  176.3810  138.1390 C   0  0  0  0  0  2  0  0  0  0  0  0
  180.5060  180.1360  140.2540 C   0  0  0  0  0  2  0  0  0  0  0  0
  182.2240  177.1140  139.7330 C   0  0  0  0  0  2  0  0  0  0  0  0
  181.0400  179.0460  140.7710 C   0  0  0  0  0  2  0  0  0  0  0  0
  182.6460  178.4540  137.7190 C   0  0  0  0  0  2  0  0  0  0  0  0
  181.6660  176.1890  137.5040 C   0  0  0  0  0  1  0  0  0  0  0  0
  182.1250  178.5260  140.0230 N   0  0  2  0  0  0  0  0  0  0  0  0
  182.5320  179.3690  138.9230 C   0  0  2  0  0  3  0  0  0  0  0  0
  182.6670  177.0270  138.2760 C   0  0  1  0  0  0  0  0  0  0  0  0
  181.2310  180.6210  138.6880 S   0  0  0  0  0  0  0  0  0  0  0  0
  1  6  1  0  0  0  0
  2  1  1  0  0  0  0
  2  5  1  0  0  0  0
  3 22  1  0  0  0  0
  4  3  2  0  0  0  0
  5 48  1  6  0  0  0
  5  3  1  0  0  0  0
  6  8  1  1  0  0  0
  6  4  1  0  0  0  0
  8  7  1  6  0  0  0
  8  9  1  0  0  0  0
 10  9  1  0  0  0  0
 11 10  3  0  0  0  0
 13 11  1  0  0  0  0
 13 12  1  1  0  0  0
 13 14  1  0  0  0  0
 14 15  2  1  0  0  0
 14 16  1  0  0  0  0
 17 14  1  0  0  0  0
 17 21  1  0  0  0  0
 18 21  1  0  0  0  0
 20 21  2  0  0  0  0
 21 19  1  0  0  0  0
 22 23  1  0  0  0  0
 23 24  1  0  0  0  0
 24 25  1  0  0  0  0
 25 33  1  0  0  0  0
 26 25  1  0  0  0  0
 26 31  1  1  0  0  0
 27 28  1  1  0  0  0
 27 26  1  0  0  0  0
 30 29  1  0  0  0  0
 30 27  1  0  0  0  0
 31 32  1  0  0  0  0
 33 35  1  6  0  0  0
 33 36  1  0  0  0  0
 35 34  1  0  0  0  0
 37 42  2  0  0  0  0
 37 41  1  0  0  0  0
 38 44  1  6  0  0  0
 38 42  1  0  0  0  0
 39 37  1  0  0  0  0
 40 38  1  0  0  0  0
 43 36  1  6  0  0  0
 43 40  1  0  0  0  0
 43 39  1  0  0  0  0
 45 44  1  0  0  0  0
 46 45  1  0  0  0  0
 47 46  1  0  0  0  0
 48 49  1  0  0  0  0
 49 50  1  0  0  0  0
 50 51  1  0  0  0  0
 51 52  1  0  0  0  0
 52 60  1  0  0  0  0
 53 55  1  0  0  0  0
 56 60  1  0  0  0  0
 58 54  1  6  0  0  0
 58 55  1  0  0  0  0
 59 56  1  6  0  0  0
 59 58  1  0  0  0  0
 60 57  1  6  0  0  0
 60 54  1  0  0  0  0
 61 59  1  0  0  0  0
 61 53  1  0  0  0  0
M  END
>  <MODEL>
1

>  <REMARK>
 VINA RESULT:      -5.8      0.000      0.000
  Name = 
  28 active torsions:
  status: ('A' for Active; 'I' for Inactive)
    1  A    between atoms: N_1  and  C_24
    2  A    between atoms: N_1  and  C_35
    3  A    between atoms: N_1  and  C_52
    4  A    between atoms: C_3  and  C_52
    5  A    between atoms: C_6  and  C_35
    6  A    between atoms: C_6  and  C_61
    7  A    between atoms: C_7  and  C_15
    8  A    between atoms: P_10  and  O_27
    9  A    between atoms: P_10  and  C_60
   10  A    between atoms: C_15  and  C_29
   11  A    between atoms: O_16  and  C_28
   12  A    between atoms: O_16  and  C_47
   13  A    between atoms: C_17  and  C_52
   14  A    between atoms: C_17  and  C_57
   15  A    between atoms: C_18  and  C_24
   16  A    between atoms: C_18  and  S_43
   17  A    between atoms: C_19  and  C_25
   18  A    between atoms: C_19  and  N_39
   19  A    between atoms: C_21  and  C_50
   20  A    between atoms: C_21  and  C_53
   21  A    between atoms: C_23  and  C_60
   22  A    between atoms: C_25  and  C_49
   23  A    between atoms: O_27  and  P_58
   24  A    between atoms: C_29  and  C_59
   25  A    between atoms: C_34  and  C_47
   26  A    between atoms: C_35  and  C_56
   27  A    between atoms: N_39  and  C_53
   28  A    between atoms: C_42  and  S_43
                            x       y       z     vdW  Elec       q    Type
                         _______ _______ _______ _____ _____    ______ ____

>  <TORSDO>
F 28

$$$$
=
 OpenBabel10222420333D

 61 64  0  0  1  0  0  0  0  0999 V2000
  189.5750  176.7110  140.1690 C   0  0  0  0  0  2  0  0  0  0  0  0
  190.2270  176.6620  138.7970 C   0  0  0  0  0  2  0  0  0  0  0  0
  188.1370  177.8780  137.9750 C   0  0  0  0  0  0  0  0  0  0  0  0
  187.9700  178.3820  139.2100 C   0  0  0  0  0  3  0  0  0  0  0  0
  189.1690  176.7960  137.6970 C   0  0  1  0  0  3  0  0  0  0  0  0
  188.9130  178.0730  140.3490 C   0  0  1  0  0  3  0  0  0  0  0  0
  188.4310  176.9240  142.4720 N   0  0  0  0  0  1  0  0  0  0  0  0
  188.2220  178.1480  141.7100 C   0  0  2  0  0  3  0  0  0  0  0  0
  186.7360  178.4330  141.5610 C   0  0  0  0  0  2  0  0  0  0  0  0
  186.0870  178.3640  142.8720 C   0  0  0  0  0  0  0  0  0  0  0  0
  185.5420  178.3290  143.9460 C   0  0  0  0  0  0  0  0  0  0  0  0
  183.9430  179.3490  145.3130 O   0  0  0  0  0  1  0  0  0  0  0  0
  184.8740  178.3120  145.2490 C   0  0  2  0  0  3  0  0  0  0  0  0
  186.1050  178.5240  146.5670 P   0  0  2  0  0  0  0  0  0  0  0  0
  185.7260  177.4740  147.8400 O   0  0  0  0  0  1  0  0  0  0  0  0
  186.0460  179.9530  147.0580 O   0  0  0  0  0  0  0  0  0  0  0  0
  187.6410  178.1850  145.9240 O   0  0  0  0  0  0  0  0  0  0  0  0
  188.5140  178.7500  148.5210 O   0  0  0  0  0  1  0  0  0  0  0  0
  190.0740  177.6790  146.7290 O   0  0  0  0  0  0  0  0  0  0  0  0
  188.2250  176.1230  147.7040 O   0  0  0  0  0  1  0  0  0  0  0  0
  188.6410  177.6860  147.2090 P   0  0  0  0  0  0  0  0  0  0  0  0
  186.8680  178.2300  136.7490 S   0  0  0  0  0  0  0  0  0  0  0  0
  185.4840  177.7920  137.8480 C   0  0  0  0  0  2  0  0  0  0  0  0
  184.4060  177.0460  137.0640 C   0  0  0  0  0  2  0  0  0  0  0  0
  183.0830  177.1150  137.7020 N   0  0  0  0  0  0  0  0  0  0  0  0
  182.0350  177.5630  136.7520 C   0  0  1  0  0  3  0  0  0  0  0  0
  181.2480  178.7520  137.3240 C   0  0  1  0  0  3  0  0  0  0  0  0
  181.1200  179.7880  136.3930 O   0  0  0  0  0  1  0  0  0  0  0  0
  179.9390  178.2780  139.2860 O   0  0  0  0  0  1  0  0  0  0  0  0
  179.8920  178.3510  137.8940 C   0  0  0  0  0  2  0  0  0  0  0  0
  182.6300  177.9290  135.3880 C   0  0  0  0  0  2  0  0  0  0  0  0
  182.9400  176.6620  134.6110 C   0  0  0  0  0  1  0  0  0  0  0  0
  182.8300  175.8190  138.3680 C   0  0  1  0  0  3  0  0  0  0  0  0
  182.9870  177.1910  140.3440 O   0  0  0  0  0  1  0  0  0  0  0  0
  182.4440  176.0110  139.8330 C   0  0  0  0  0  2  0  0  0  0  0  0
  181.9030  174.8540  137.6110 C   0  0  0  0  0  2  0  0  0  0  0  0
  182.6860  171.3460  136.2230 C   0  0  0  0  0  0  0  0  0  0  0  0
  184.8270  172.4900  136.8500 C   0  0  1  0  0  3  0  0  0  0  0  0
  181.8620  172.5230  136.6920 C   0  0  0  0  0  2  0  0  0  0  0  0
  183.9660  173.4670  137.6540 C   0  0  0  0  0  2  0  0  0  0  0  0
  181.9860  170.1260  135.7350 C   0  0  0  0  0  1  0  0  0  0  0  0
  184.0200  171.3080  136.3700 C   0  0  0  0  0  3  0  0  0  0  0  0
  182.6990  173.7910  136.8720 C   0  0  2  0  0  3  0  0  0  0  0  0
  185.3810  173.1520  135.7490 O   0  0  0  0  0  0  0  0  0  0  0  0
  186.5640  172.4600  135.4690 C   0  0  0  0  0  2  0  0  0  0  0  0
  187.7190  173.1280  136.1850 C   0  0  0  0  0  2  0  0  0  0  0  0
  188.2010  172.2890  137.1910 O   0  0  0  0  0  1  0  0  0  0  0  0
  189.8630  177.0080  136.3630 C   0  0  0  0  0  2  0  0  0  0  0  0
  190.3630  175.6860  135.8060 C   0  0  0  0  0  2  0  0  0  0  0  0
  191.1500  175.9310  134.6070 N   0  0  0  0  0  2  0  0  0  0  0  0
  192.5440  175.6710  134.9340 C   0  0  0  0  0  2  0  0  0  0  0  0
  192.6610  174.6150  136.0370 C   0  0  0  0  0  2  0  0  0  0  0  0
  197.9030  173.2630  137.4070 C   0  0  0  0  0  2  0  0  0  0  0  0
  194.3890  173.3700  137.4140 C   0  0  0  0  0  2  0  0  0  0  0  0
  196.7610  172.6210  137.5660 C   0  0  0  0  0  2  0  0  0  0  0  0
  195.0940  175.3450  136.1360 C   0  0  0  0  0  2  0  0  0  0  0  0
  193.6050  175.6180  138.0980 C   0  0  0  0  0  1  0  0  0  0  0  0
  195.6870  173.1610  136.8160 N   0  0  2  0  0  0  0  0  0  0  0  0
  196.0800  174.2160  135.9110 C   0  0  2  0  0  3  0  0  0  0  0  0
  193.9210  174.7320  136.9090 C   0  0  1  0  0  0  0  0  0  0  0  0
  197.7740  174.7110  136.3580 S   0  0  0  0  0  0  0  0  0  0  0  0
  1  6  1  0  0  0  0
  2  1  1  0  0  0  0
  3  4  2  0  0  0  0
  4  6  1  0  0  0  0
  5 48  1  6  0  0  0
  5  3  1  0  0  0  0
  5  2  1  0  0  0  0
  6  8  1  1  0  0  0
  8  7  1  6  0  0  0
  9  8  1  0  0  0  0
  9 10  1  0  0  0  0
 10 11  3  0  0  0  0
 11 13  1  0  0  0  0
 13 12  1  6  0  0  0
 13 14  1  0  0  0  0
 14 16  2  1  0  0  0
 14 15  1  0  0  0  0
 17 14  1  0  0  0  0
 17 21  1  0  0  0  0
 19 21  2  0  0  0  0
 21 20  1  0  0  0  0
 21 18  1  0  0  0  0
 22 23  1  0  0  0  0
 22  3  1  0  0  0  0
 24 25  1  0  0  0  0
 24 23  1  0  0  0  0
 25 33  1  0  0  0  0
 26 31  1  6  0  0  0
 26 27  1  0  0  0  0
 26 25  1  0  0  0  0
 27 28  1  6  0  0  0
 27 30  1  0  0  0  0
 30 29  1  0  0  0  0
 32 31  1  0  0  0  0
 33 36  1  6  0  0  0
 33 35  1  0  0  0  0
 35 34  1  0  0  0  0
 37 42  2  0  0  0  0
 37 39  1  0  0  0  0
 38 44  1  6  0  0  0
 38 40  1  0  0  0  0
 39 43  1  0  0  0  0
 41 37  1  0  0  0  0
 42 38  1  0  0  0  0
 43 36  1  1  0  0  0
 43 40  1  0  0  0  0
 45 44  1  0  0  0  0
 45 46  1  0  0  0  0
 46 47  1  0  0  0  0
 49 48  1  0  0  0  0
 50 51  1  0  0  0  0
 50 49  1  0  0  0  0
 51 52  1  0  0  0  0
 52 60  1  0  0  0  0
 53 55  1  0  0  0  0
 56 60  1  0  0  0  0
 58 54  1  1  0  0  0
 58 55  1  0  0  0  0
 59 56  1  1  0  0  0
 59 61  1  0  0  0  0
 59 58  1  0  0  0  0
 60 54  1  0  0  0  0
 60 57  1  1  0  0  0
 61 53  1  0  0  0  0
M  END
>  <MODEL>
2

>  <REMARK>
 VINA RESULT:      -5.6      4.509     11.432
  Name = 
  28 active torsions:
  status: ('A' for Active; 'I' for Inactive)
    1  A    between atoms: N_1  and  C_24
    2  A    between atoms: N_1  and  C_35
    3  A    between atoms: N_1  and  C_52
    4  A    between atoms: C_3  and  C_52
    5  A    between atoms: C_6  and  C_35
    6  A    between atoms: C_6  and  C_61
    7  A    between atoms: C_7  and  C_15
    8  A    between atoms: P_10  and  O_27
    9  A    between atoms: P_10  and  C_60
   10  A    between atoms: C_15  and  C_29
   11  A    between atoms: O_16  and  C_28
   12  A    between atoms: O_16  and  C_47
   13  A    between atoms: C_17  and  C_52
   14  A    between atoms: C_17  and  C_57
   15  A    between atoms: C_18  and  C_24
   16  A    between atoms: C_18  and  S_43
   17  A    between atoms: C_19  and  C_25
   18  A    between atoms: C_19  and  N_39
   19  A    between atoms: C_21  and  C_50
   20  A    between atoms: C_21  and  C_53
   21  A    between atoms: C_23  and  C_60
   22  A    between atoms: C_25  and  C_49
   23  A    between atoms: O_27  and  P_58
   24  A    between atoms: C_29  and  C_59
   25  A    between atoms: C_34  and  C_47
   26  A    between atoms: C_35  and  C_56
   27  A    between atoms: N_39  and  C_53
   28  A    between atoms: C_42  and  S_43
                            x       y       z     vdW  Elec       q    Type
                         _______ _______ _______ _____ _____    ______ ____

>  <TORSDO>
F 28

$$$$
=
 OpenBabel10222420333D

 61 64  0  0  1  0  0  0  0  0999 V2000
  189.4220  177.8840  137.2580 C   0  0  0  0  0  2  0  0  0  0  0  0
  189.5830  177.7280  138.7620 C   0  0  0  0  0  2  0  0  0  0  0  0
  187.0520  178.0520  138.8700 C   0  0  0  0  0  0  0  0  0  0  0  0
  186.9590  177.5790  137.6150 C   0  0  0  0  0  3  0  0  0  0  0  0
  188.4020  178.3710  139.4950 C   0  0  1  0  0  3  0  0  0  0  0  0
  188.1650  177.1400  136.8200 C   0  0  1  0  0  3  0  0  0  0  0  0
  187.2650  176.1430  134.7570 N   0  0  0  0  0  1  0  0  0  0  0  0
  187.9560  177.2980  135.3150 C   0  0  2  0  0  3  0  0  0  0  0  0
  189.2740  177.5280  134.5940 C   0  0  0  0  0  2  0  0  0  0  0  0
  190.1970  176.4300  134.8920 C   0  0  0  0  0  0  0  0  0  0  0  0
  190.9740  175.5440  135.1430 C   0  0  0  0  0  0  0  0  0  0  0  0
  191.2790  173.2570  135.5180 O   0  0  0  0  0  1  0  0  0  0  0  0
  191.9380  174.4850  135.4470 C   0  0  2  0  0  3  0  0  0  0  0  0
  192.7400  174.8320  137.0390 P   0  0  2  0  0  0  0  0  0  0  0  0
  191.5500  174.9250  138.2390 O   0  0  0  0  0  1  0  0  0  0  0  0
  193.4590  176.1590  136.9390 O   0  0  0  0  0  0  0  0  0  0  0  0
  193.8490  173.5850  137.3630 O   0  0  0  0  0  0  0  0  0  0  0  0
  196.2840  174.9100  136.9920 O   0  0  0  0  0  0  0  0  0  0  0  0
  195.9050  173.2090  138.9290 O   0  0  0  0  0  1  0  0  0  0  0  0
  194.7080  175.5090  139.1850 O   0  0  0  0  0  1  0  0  0  0  0  0
  195.2000  174.2810  138.1310 P   0  0  0  0  0  0  0  0  0  0  0  0
  185.5470  178.6560  139.6520 S   0  0  0  0  0  0  0  0  0  0  0  0
  184.4350  177.8450  138.4600 C   0  0  0  0  0  2  0  0  0  0  0  0
  183.1160  178.6090  138.3690 C   0  0  0  0  0  2  0  0  0  0  0  0
  181.9610  177.7320  138.1260 N   0  0  0  0  0  0  0  0  0  0  0  0
  180.9330  177.8650  139.1880 C   0  0  1  0  0  3  0  0  0  0  0  0
  179.9450  176.6900  139.1440 C   0  0  1  0  0  3  0  0  0  0  0  0
  179.1190  176.7440  138.0160 O   0  0  0  0  0  1  0  0  0  0  0  0
  179.9630  174.5180  140.1790 O   0  0  0  0  0  1  0  0  0  0  0  0
  180.6280  175.3320  139.2620 C   0  0  0  0  0  2  0  0  0  0  0  0
  181.5700  177.9700  140.5780 C   0  0  0  0  0  2  0  0  0  0  0  0
  181.1700  179.2850  141.2230 C   0  0  0  0  0  1  0  0  0  0  0  0
  181.4880  177.9730  136.7450 C   0  0  1  0  0  3  0  0  0  0  0  0
  180.2860  179.5650  135.3920 O   0  0  0  0  0  1  0  0  0  0  0  0
  181.0490  179.4230  136.5520 C   0  0  0  0  0  2  0  0  0  0  0  0
  182.4110  177.4580  135.6290 C   0  0  0  0  0  2  0  0  0  0  0  0
  180.4520  174.1480  135.4090 C   0  0  0  0  0  0  0  0  0  0  0  0
  182.7940  173.6780  136.1690 C   0  0  1  0  0  3  0  0  0  0  0  0
  180.7110  175.6360  135.3630 C   0  0  0  0  0  2  0  0  0  0  0  0
  182.8970  175.1730  136.4820 C   0  0  0  0  0  2  0  0  0  0  0  0
  179.0800  173.6470  135.1140 C   0  0  0  0  0  1  0  0  0  0  0  0
  181.3750  173.2770  135.8480 C   0  0  0  0  0  3  0  0  0  0  0  0
  182.2040  175.9720  135.3850 C   0  0  2  0  0  3  0  0  0  0  0  0
  183.6200  173.3710  135.0820 O   0  0  0  0  0  0  0  0  0  0  0  0
  184.8540  173.0360  135.6490 C   0  0  0  0  0  2  0  0  0  0  0  0
  185.1410  171.5700  135.4010 C   0  0  0  0  0  2  0  0  0  0  0  0
  184.1410  171.0230  134.5950 O   0  0  0  0  0  1  0  0  0  0  0  0
  188.4530  177.9750  140.9610 C   0  0  0  0  0  2  0  0  0  0  0  0
  189.6580  177.0920  141.2320 C   0  0  0  0  0  2  0  0  0  0  0  0
  190.6220  177.8210  142.0420 N   0  0  0  0  0  2  0  0  0  0  0  0
  191.3200  176.8530  142.8760 C   0  0  0  0  0  2  0  0  0  0  0  0
  190.4420  176.4060  144.0480 C   0  0  0  0  0  2  0  0  0  0  0  0
  186.8480  178.5510  147.7450 C   0  0  0  0  0  2  0  0  0  0  0  0
  188.3860  177.7470  144.6870 C   0  0  0  0  0  2  0  0  0  0  0  0
  186.7150  178.2430  146.4690 C   0  0  0  0  0  2  0  0  0  0  0  0
  190.0810  177.2880  146.4050 C   0  0  0  0  0  2  0  0  0  0  0  0
  190.6090  178.8310  144.5390 C   0  0  0  0  0  1  0  0  0  0  0  0
  187.7650  177.4430  145.9560 N   0  0  2  0  0  0  0  0  0  0  0  0
  188.7010  176.9950  146.9610 C   0  0  2  0  0  3  0  0  0  0  0  0
  189.8830  177.5510  144.9080 C   0  0  1  0  0  0  0  0  0  0  0  0
  188.3740  177.9560  148.4730 S   0  0  0  0  0  0  0  0  0  0  0  0
  1  2  1  0  0  0  0
  2  5  1  0  0  0  0
  3  5  1  0  0  0  0
  3 22  1  0  0  0  0
  4  3  2  0  0  0  0
  5 48  1  1  0  0  0
  6  8  1  6  0  0  0
  6  1  1  0  0  0  0
  6  4  1  0  0  0  0
  8  7  1  6  0  0  0
  9 10  1  0  0  0  0
  9  8  1  0  0  0  0
 10 11  3  0  0  0  0
 11 13  1  0  0  0  0
 13 12  1  1  0  0  0
 13 14  1  0  0  0  0
 14 16  2  6  0  0  0
 14 17  1  0  0  0  0
 14 15  1  0  0  0  0
 17 21  1  0  0  0  0
 18 21  2  0  0  0  0
 21 19  1  0  0  0  0
 21 20  1  0  0  0  0
 23 22  1  0  0  0  0
 24 23  1  0  0  0  0
 25 24  1  0  0  0  0
 25 26  1  0  0  0  0
 26 31  1  1  0  0  0
 27 28  1  6  0  0  0
 27 26  1  0  0  0  0
 27 30  1  0  0  0  0
 30 29  1  0  0  0  0
 31 32  1  0  0  0  0
 33 36  1  6  0  0  0
 33 25  1  0  0  0  0
 34 35  1  0  0  0  0
 35 33  1  0  0  0  0
 37 42  2  0  0  0  0
 38 44  1  6  0  0  0
 38 40  1  0  0  0  0
 39 43  1  0  0  0  0
 39 37  1  0  0  0  0
 41 37  1  0  0  0  0
 42 38  1  0  0  0  0
 43 36  1  1  0  0  0
 43 40  1  0  0  0  0
 44 45  1  0  0  0  0
 46 45  1  0  0  0  0
 47 46  1  0  0  0  0
 48 49  1  0  0  0  0
 49 50  1  0  0  0  0
 50 51  1  0  0  0  0
 51 52  1  0  0  0  0
 52 60  1  0  0  0  0
 53 61  1  0  0  0  0
 54 60  1  0  0  0  0
 55 53  1  0  0  0  0
 58 54  1  6  0  0  0
 58 55  1  0  0  0  0
 58 59  1  0  0  0  0
 59 56  1  6  0  0  0
 59 61  1  0  0  0  0
 60 57  1  6  0  0  0
 60 56  1  0  0  0  0
M  END
>  <MODEL>
3

>  <REMARK>
 VINA RESULT:      -5.6      3.530      9.078
  Name = 
  28 active torsions:
  status: ('A' for Active; 'I' for Inactive)
    1  A    between atoms: N_1  and  C_24
    2  A    between atoms: N_1  and  C_35
    3  A    between atoms: N_1  and  C_52
    4  A    between atoms: C_3  and  C_52
    5  A    between atoms: C_6  and  C_35
    6  A    between atoms: C_6  and  C_61
    7  A    between atoms: C_7  and  C_15
    8  A    between atoms: P_10  and  O_27
    9  A    between atoms: P_10  and  C_60
   10  A    between atoms: C_15  and  C_29
   11  A    between atoms: O_16  and  C_28
   12  A    between atoms: O_16  and  C_47
   13  A    between atoms: C_17  and  C_52
   14  A    between atoms: C_17  and  C_57
   15  A    between atoms: C_18  and  C_24
   16  A    between atoms: C_18  and  S_43
   17  A    between atoms: C_19  and  C_25
   18  A    between atoms: C_19  and  N_39
   19  A    between atoms: C_21  and  C_50
   20  A    between atoms: C_21  and  C_53
   21  A    between atoms: C_23  and  C_60
   22  A    between atoms: C_25  and  C_49
   23  A    between atoms: O_27  and  P_58
   24  A    between atoms: C_29  and  C_59
   25  A    between atoms: C_34  and  C_47
   26  A    between atoms: C_35  and  C_56
   27  A    between atoms: N_39  and  C_53
   28  A    between atoms: C_42  and  S_43
                            x       y       z     vdW  Elec       q    Type
                         _______ _______ _______ _____ _____    ______ ____

>  <TORSDO>
F 28

$$$$
=
 OpenBabel10222420333D

 61 64  0  0  1  0  0  0  0  0999 V2000
  186.3940  177.9550  143.9960 C   0  0  0  0  0  2  0  0  0  0  0  0
  186.6530  178.3560  142.5530 C   0  0  0  0  0  2  0  0  0  0  0  0
  184.1500  178.8540  142.4480 C   0  0  0  0  0  0  0  0  0  0  0  0
  184.1580  179.0660  143.7750 C   0  0  0  0  0  3  0  0  0  0  0  0
  185.3600  178.2700  141.7340 C   0  0  1  0  0  3  0  0  0  0  0  0
  185.4100  178.9430  144.6120 C   0  0  1  0  0  3  0  0  0  0  0  0
  185.6650  179.5220  146.9910 N   0  0  0  0  0  1  0  0  0  0  0  0
  185.1050  178.5530  146.0570 C   0  0  2  0  0  3  0  0  0  0  0  0
  185.6140  177.1560  146.3720 C   0  0  0  0  0  2  0  0  0  0  0  0
  187.0310  177.2190  146.7400 C   0  0  0  0  0  0  0  0  0  0  0  0
  188.1910  177.2560  147.0620 C   0  0  0  0  0  0  0  0  0  0  0  0
  189.8850  178.5380  148.0380 O   0  0  0  0  0  1  0  0  0  0  0  0
  189.5950  177.2930  147.4780 C   0  0  2  0  0  3  0  0  0  0  0  0
  190.6640  177.0160  146.0360 P   0  0  2  0  0  0  0  0  0  0  0  0
  191.7240  175.7420  146.3820 O   0  0  0  0  0  1  0  0  0  0  0  0
  191.4580  178.2760  145.7730 O   0  0  0  0  0  0  0  0  0  0  0  0
  189.6770  176.6540  144.7000 O   0  0  0  0  0  0  0  0  0  0  0  0
  189.7680  176.3590  141.9200 O   0  0  0  0  0  0  0  0  0  0  0  0
  191.8850  176.0990  143.4190 O   0  0  0  0  0  1  0  0  0  0  0  0
  190.9940  178.5300  143.1180 O   0  0  0  0  0  1  0  0  0  0  0  0
  190.6040  176.8930  143.2930 P   0  0  0  0  0  0  0  0  0  0  0  0
  182.5630  178.9130  141.6000 S   0  0  0  0  0  0  0  0  0  0  0  0
  182.9900  177.6030  140.4110 C   0  0  0  0  0  2  0  0  0  0  0  0
  182.4490  177.9540  139.0260 C   0  0  0  0  0  2  0  0  0  0  0  0
  181.5980  176.8980  138.4590 N   0  0  0  0  0  0  0  0  0  0  0  0
  180.1900  177.3420  138.3110 C   0  0  1  0  0  3  0  0  0  0  0  0
  179.2340  176.3880  139.0430 C   0  0  1  0  0  3  0  0  0  0  0  0
  179.2200  175.1160  138.4620 O   0  0  0  0  0  1  0  0  0  0  0  0
  179.7190  174.9870  140.9380 O   0  0  0  0  0  1  0  0  0  0  0  0
  179.5060  176.3070  140.5410 C   0  0  0  0  0  2  0  0  0  0  0  0
  179.9960  178.7770  138.8160 C   0  0  0  0  0  2  0  0  0  0  0  0
  179.3690  179.6210  137.7210 C   0  0  0  0  0  1  0  0  0  0  0  0
  182.2450  176.4050  137.2230 C   0  0  1  0  0  3  0  0  0  0  0  0
  181.4760  177.7240  135.3580 O   0  0  0  0  0  1  0  0  0  0  0  0
  182.5330  177.5470  136.2520 C   0  0  0  0  0  2  0  0  0  0  0  0
  183.4410  175.4620  137.4320 C   0  0  0  0  0  2  0  0  0  0  0  0
  181.7550  172.0340  136.9270 C   0  0  0  0  0  0  0  0  0  0  0  0
  184.1810  171.8650  136.3180 C   0  0  1  0  0  3  0  0  0  0  0  0
  181.9020  173.4870  137.3170 C   0  0  0  0  0  2  0  0  0  0  0  0
  184.3700  173.1830  137.0720 C   0  0  0  0  0  2  0  0  0  0  0  0
  180.4380  171.3670  137.1230 C   0  0  0  0  0  1  0  0  0  0  0  0
  182.8060  171.2880  136.5500 C   0  0  0  0  0  3  0  0  0  0  0  0
  183.1940  174.1090  136.7840 C   0  0  2  0  0  3  0  0  0  0  0  0
  184.3680  172.0800  134.9480 O   0  0  0  0  0  0  0  0  0  0  0  0
  185.6920  171.7040  134.7010 C   0  0  0  0  0  2  0  0  0  0  0  0
  185.8070  170.1950  134.7650 C   0  0  0  0  0  2  0  0  0  0  0  0
  186.8770  169.8370  135.5870 O   0  0  0  0  0  1  0  0  0  0  0  0
  185.5850  178.9210  140.3810 C   0  0  0  0  0  2  0  0  0  0  0  0
  186.6950  178.2110  139.6260 C   0  0  0  0  0  2  0  0  0  0  0  0
  186.5450  178.4550  138.1990 N   0  0  0  0  0  2  0  0  0  0  0  0
  187.8370  178.2180  137.5730 C   0  0  0  0  0  2  0  0  0  0  0  0
  187.6850  177.3710  136.3060 C   0  0  0  0  0  2  0  0  0  0  0  0
  192.3370  174.4000  135.4610 C   0  0  0  0  0  2  0  0  0  0  0  0
  189.1550  175.8060  134.9550 C   0  0  0  0  0  2  0  0  0  0  0  0
  191.4550  174.9070  134.6210 C   0  0  0  0  0  2  0  0  0  0  0  0
  189.6120  176.0840  137.3520 C   0  0  0  0  0  2  0  0  0  0  0  0
  187.5530  174.9150  136.6220 C   0  0  0  0  0  1  0  0  0  0  0  0
  190.5770  175.8510  135.2080 N   0  0  2  0  0  0  0  0  0  0  0  0
  190.9090  176.1860  136.5730 C   0  0  2  0  0  3  0  0  0  0  0  0
  188.4930  176.0630  136.3060 C   0  0  1  0  0  0  0  0  0  0  0  0
  192.1310  174.9660  137.1490 S   0  0  0  0  0  0  0  0  0  0  0  0
  1  6  1  0  0  0  0
  2  1  1  0  0  0  0
  3  4  2  0  0  0  0
  4  6  1  0  0  0  0
  5 48  1  6  0  0  0
  5  3  1  0  0  0  0
  5  2  1  0  0  0  0
  6  8  1  1  0  0  0
  8  9  1  0  0  0  0
  8  7  1  1  0  0  0
  9 10  1  0  0  0  0
 10 11  3  0  0  0  0
 11 13  1  0  0  0  0
 13 12  1  6  0  0  0
 14 16  2  6  0  0  0
 14 15  1  0  0  0  0
 14 13  1  0  0  0  0
 17 14  1  0  0  0  0
 18 21  2  0  0  0  0
 20 21  1  0  0  0  0
 21 19  1  0  0  0  0
 21 17  1  0  0  0  0
 22  3  1  0  0  0  0
 23 22  1  0  0  0  0
 24 23  1  0  0  0  0
 25 24  1  0  0  0  0
 26 25  1  0  0  0  0
 26 31  1  1  0  0  0
 26 27  1  0  0  0  0
 27 28  1  6  0  0  0
 27 30  1  0  0  0  0
 30 29  1  0  0  0  0
 32 31  1  0  0  0  0
 33 35  1  1  0  0  0
 33 36  1  0  0  0  0
 33 25  1  0  0  0  0
 34 35  1  0  0  0  0
 37 41  1  0  0  0  0
 37 39  1  0  0  0  0
 38 44  1  6  0  0  0
 38 42  1  0  0  0  0
 38 40  1  0  0  0  0
 42 37  2  0  0  0  0
 43 40  1  0  0  0  0
 43 39  1  0  0  0  0
 43 36  1  1  0  0  0
 45 46  1  0  0  0  0
 45 44  1  0  0  0  0
 46 47  1  0  0  0  0
 49 48  1  0  0  0  0
 50 49  1  0  0  0  0
 51 50  1  0  0  0  0
 52 60  1  0  0  0  0
 52 51  1  0  0  0  0
 53 61  1  0  0  0  0
 54 58  1  0  0  0  0
 54 60  1  0  0  0  0
 55 53  1  0  0  0  0
 58 55  1  1  0  0  0
 58 59  1  0  0  0  0
 59 61  1  0  0  0  0
 59 56  1  1  0  0  0
 60 57  1  1  0  0  0
 60 56  1  0  0  0  0
M  END
>  <MODEL>
4

>  <REMARK>
 VINA RESULT:      -5.4      4.005     10.782
  Name = 
  28 active torsions:
  status: ('A' for Active; 'I' for Inactive)
    1  A    between atoms: N_1  and  C_24
    2  A    between atoms: N_1  and  C_35
    3  A    between atoms: N_1  and  C_52
    4  A    between atoms: C_3  and  C_52
    5  A    between atoms: C_6  and  C_35
    6  A    between atoms: C_6  and  C_61
    7  A    between atoms: C_7  and  C_15
    8  A    between atoms: P_10  and  O_27
    9  A    between atoms: P_10  and  C_60
   10  A    between atoms: C_15  and  C_29
   11  A    between atoms: O_16  and  C_28
   12  A    between atoms: O_16  and  C_47
   13  A    between atoms: C_17  and  C_52
   14  A    between atoms: C_17  and  C_57
   15  A    between atoms: C_18  and  C_24
   16  A    between atoms: C_18  and  S_43
   17  A    between atoms: C_19  and  C_25
   18  A    between atoms: C_19  and  N_39
   19  A    between atoms: C_21  and  C_50
   20  A    between atoms: C_21  and  C_53
   21  A    between atoms: C_23  and  C_60
   22  A    between atoms: C_25  and  C_49
   23  A    between atoms: O_27  and  P_58
   24  A    between atoms: C_29  and  C_59
   25  A    between atoms: C_34  and  C_47
   26  A    between atoms: C_35  and  C_56
   27  A    between atoms: N_39  and  C_53
   28  A    between atoms: C_42  and  S_43
                            x       y       z     vdW  Elec       q    Type
                         _______ _______ _______ _____ _____    ______ ____

>  <TORSDO>
F 28

$$$$
=
 OpenBabel10222420333D

 61 64  0  0  1  0  0  0  0  0999 V2000
  186.0080  178.2920  143.8020 C   0  0  0  0  0  2  0  0  0  0  0  0
  186.1410  178.7120  142.3480 C   0  0  0  0  0  2  0  0  0  0  0  0
  183.6020  178.9850  142.3990 C   0  0  0  0  0  0  0  0  0  0  0  0
  183.6720  179.2000  143.7240 C   0  0  0  0  0  3  0  0  0  0  0  0
  184.8130  178.5110  141.6100 C   0  0  1  0  0  3  0  0  0  0  0  0
  184.9790  179.1900  144.4810 C   0  0  1  0  0  3  0  0  0  0  0  0
  185.5510  179.6530  146.8310 N   0  0  0  0  0  1  0  0  0  0  0  0
  184.7990  178.7760  145.9410 C   0  0  2  0  0  3  0  0  0  0  0  0
  185.2010  177.3270  146.1590 C   0  0  0  0  0  2  0  0  0  0  0  0
  186.6160  177.2580  146.5330 C   0  0  0  0  0  0  0  0  0  0  0  0
  187.7730  177.1880  146.8600 C   0  0  0  0  0  0  0  0  0  0  0  0
  189.4250  178.0330  148.2830 O   0  0  0  0  0  1  0  0  0  0  0  0
  189.1730  177.0940  147.2820 C   0  0  2  0  0  3  0  0  0  0  0  0
  190.2580  177.4180  145.8620 P   0  0  2  0  0  0  0  0  0  0  0  0
  191.8520  177.5530  146.4160 O   0  0  0  0  0  1  0  0  0  0  0  0
  189.8370  178.7200  145.2180 O   0  0  0  0  0  0  0  0  0  0  0  0
  190.0940  176.1350  144.7590 O   0  0  0  0  0  0  0  0  0  0  0  0
  189.3200  177.9540  142.7810 O   0  0  0  0  0  1  0  0  0  0  0  0
  190.3130  175.6130  142.2090 O   0  0  0  0  0  0  0  0  0  0  0  0
  191.9980  177.3680  143.1420 O   0  0  0  0  0  1  0  0  0  0  0  0
  190.4270  176.7450  143.2050 P   0  0  0  0  0  0  0  0  0  0  0  0
  181.9670  178.9020  141.6500 S   0  0  0  0  0  0  0  0  0  0  0  0
  182.3700  177.4760  140.5920 C   0  0  0  0  0  2  0  0  0  0  0  0
  182.0300  177.7900  139.1360 C   0  0  0  0  0  2  0  0  0  0  0  0
  181.3590  176.6760  138.4510 N   0  0  0  0  0  0  0  0  0  0  0  0
  179.9480  176.9990  138.1220 C   0  0  1  0  0  3  0  0  0  0  0  0
  179.7820  178.4990  137.8340 C   0  0  1  0  0  3  0  0  0  0  0  0
  179.2780  178.7310  136.5500 O   0  0  0  0  0  1  0  0  0  0  0  0
  178.9310  178.4980  140.0850 O   0  0  0  0  0  1  0  0  0  0  0  0
  178.9530  179.2200  138.8910 C   0  0  0  0  0  2  0  0  0  0  0  0
  179.4440  176.1730  136.9340 C   0  0  0  0  0  2  0  0  0  0  0  0
  178.9640  174.8180  137.4230 C   0  0  0  0  0  1  0  0  0  0  0  0
  182.2040  176.2670  137.3080 C   0  0  1  0  0  3  0  0  0  0  0  0
  182.1960  177.5710  135.2810 O   0  0  0  0  0  1  0  0  0  0  0  0
  182.7510  177.4790  136.5580 C   0  0  0  0  0  2  0  0  0  0  0  0
  183.2710  175.2050  137.6190 C   0  0  0  0  0  2  0  0  0  0  0  0
  184.1390  172.1320  135.4630 C   0  0  0  0  0  0  0  0  0  0  0  0
  181.8310  172.9240  134.8900 C   0  0  1  0  0  3  0  0  0  0  0  0
  184.3290  173.2500  136.4630 C   0  0  0  0  0  2  0  0  0  0  0  0
  182.2000  174.2300  135.5980 C   0  0  0  0  0  2  0  0  0  0  0  0
  185.2730  171.2040  135.1980 C   0  0  0  0  0  1  0  0  0  0  0  0
  183.0370  172.0380  134.7010 C   0  0  0  0  0  3  0  0  0  0  0  0
  183.0100  173.9200  136.8510 C   0  0  2  0  0  3  0  0  0  0  0  0
  180.8670  172.2420  135.6420 O   0  0  0  0  0  0  0  0  0  0  0  0
  181.2100  170.8910  135.5270 C   0  0  0  0  0  2  0  0  0  0  0  0
  180.2150  170.1950  134.6210 C   0  0  0  0  0  2  0  0  0  0  0  0
  178.9370  170.2720  135.1770 O   0  0  0  0  0  1  0  0  0  0  0  0
  184.8960  179.1770  140.2480 C   0  0  0  0  0  2  0  0  0  0  0  0
  186.0490  178.6020  139.4420 C   0  0  0  0  0  2  0  0  0  0  0  0
  185.6160  178.3710  138.0730 N   0  0  0  0  0  2  0  0  0  0  0  0
  186.8080  178.2240  137.2520 C   0  0  0  0  0  2  0  0  0  0  0  0
  186.7450  176.9410  136.4180 C   0  0  0  0  0  2  0  0  0  0  0  0
  192.1480  175.7500  135.6660 C   0  0  0  0  0  2  0  0  0  0  0  0
  188.6650  175.8170  135.1990 C   0  0  0  0  0  2  0  0  0  0  0  0
  191.1290  175.7660  134.8290 C   0  0  0  0  0  2  0  0  0  0  0  0
  189.0250  176.6180  137.4930 C   0  0  0  0  0  2  0  0  0  0  0  0
  187.5280  174.6860  137.0870 C   0  0  0  0  0  1  0  0  0  0  0  0
  189.9750  176.4110  135.3380 N   0  0  2  0  0  0  0  0  0  0  0  0
  190.1820  177.0550  136.6140 C   0  0  2  0  0  3  0  0  0  0  0  0
  187.9760  176.0290  136.5440 C   0  0  1  0  0  0  0  0  0  0  0  0
  191.7760  176.4640  137.2680 S   0  0  0  0  0  0  0  0  0  0  0  0
  1  6  1  0  0  0  0
  2  1  1  0  0  0  0
  3  4  2  0  0  0  0
  4  6  1  0  0  0  0
  5 48  1  6  0  0  0
  5  2  1  0  0  0  0
  5  3  1  0  0  0  0
  6  8  1  1  0  0  0
  8  9  1  0  0  0  0
  8  7  1  1  0  0  0
  9 10  1  0  0  0  0
 10 11  3  0  0  0  0
 11 13  1  0  0  0  0
 13 12  1  1  0  0  0
 14 16  2  6  0  0  0
 14 15  1  0  0  0  0
 14 13  1  0  0  0  0
 17 14  1  0  0  0  0
 18 21  1  0  0  0  0
 19 21  2  0  0  0  0
 20 21  1  0  0  0  0
 21 17  1  0  0  0  0
 22  3  1  0  0  0  0
 23 22  1  0  0  0  0
 24 23  1  0  0  0  0
 25 24  1  0  0  0  0
 26 31  1  6  0  0  0
 26 25  1  0  0  0  0
 27 28  1  6  0  0  0
 27 26  1  0  0  0  0
 27 30  1  0  0  0  0
 30 29  1  0  0  0  0
 31 32  1  0  0  0  0
 33 35  1  1  0  0  0
 33 36  1  0  0  0  0
 33 25  1  0  0  0  0
 34 35  1  0  0  0  0
 37 39  1  0  0  0  0
 38 40  1  0  0  0  0
 38 44  1  1  0  0  0
 39 43  1  0  0  0  0
 40 43  1  0  0  0  0
 41 37  1  0  0  0  0
 42 38  1  0  0  0  0
 42 37  2  0  0  0  0
 43 36  1  6  0  0  0
 45 44  1  0  0  0  0
 46 47  1  0  0  0  0
 46 45  1  0  0  0  0
 49 48  1  0  0  0  0
 50 49  1  0  0  0  0
 51 50  1  0  0  0  0
 52 60  1  0  0  0  0
 52 51  1  0  0  0  0
 53 61  1  0  0  0  0
 54 58  1  0  0  0  0
 54 60  1  0  0  0  0
 55 53  1  0  0  0  0
 58 55  1  1  0  0  0
 58 59  1  0  0  0  0
 59 61  1  0  0  0  0
 59 56  1  1  0  0  0
 60 57  1  1  0  0  0
 60 56  1  0  0  0  0
M  END
>  <MODEL>
5

>  <REMARK>
 VINA RESULT:      -5.3      4.191     10.868
  Name = 
  28 active torsions:
  status: ('A' for Active; 'I' for Inactive)
    1  A    between atoms: N_1  and  C_24
    2  A    between atoms: N_1  and  C_35
    3  A    between atoms: N_1  and  C_52
    4  A    between atoms: C_3  and  C_52
    5  A    between atoms: C_6  and  C_35
    6  A    between atoms: C_6  and  C_61
    7  A    between atoms: C_7  and  C_15
    8  A    between atoms: P_10  and  O_27
    9  A    between atoms: P_10  and  C_60
   10  A    between atoms: C_15  and  C_29
   11  A    between atoms: O_16  and  C_28
   12  A    between atoms: O_16  and  C_47
   13  A    between atoms: C_17  and  C_52
   14  A    between atoms: C_17  and  C_57
   15  A    between atoms: C_18  and  C_24
   16  A    between atoms: C_18  and  S_43
   17  A    between atoms: C_19  and  C_25
   18  A    between atoms: C_19  and  N_39
   19  A    between atoms: C_21  and  C_50
   20  A    between atoms: C_21  and  C_53
   21  A    between atoms: C_23  and  C_60
   22  A    between atoms: C_25  and  C_49
   23  A    between atoms: O_27  and  P_58
   24  A    between atoms: C_29  and  C_59
   25  A    between atoms: C_34  and  C_47
   26  A    between atoms: C_35  and  C_56
   27  A    between atoms: N_39  and  C_53
   28  A    between atoms: C_42  and  S_43
                            x       y       z     vdW  Elec       q    Type
                         _______ _______ _______ _____ _____    ______ ____

>  <TORSDO>
F 28

$$$$
=
 OpenBabel10222420333D

 61 64  0  0  1  0  0  0  0  0999 V2000
  187.8210  175.0780  135.8960 C   0  0  0  0  0  2  0  0  0  0  0  0
  186.5840  175.9610  135.9200 C   0  0  0  0  0  2  0  0  0  0  0  0
  187.9500  177.4970  137.4350 C   0  0  0  0  0  0  0  0  0  0  0  0
  189.0740  177.0160  136.8760 C   0  0  0  0  0  3  0  0  0  0  0  0
  186.5960  176.8630  137.1590 C   0  0  1  0  0  3  0  0  0  0  0  0
  189.0570  175.9650  135.7910 C   0  0  1  0  0  3  0  0  0  0  0  0
  191.0700  175.2820  137.0320 N   0  0  0  0  0  1  0  0  0  0  0  0
  190.3230  175.1100  135.7930 C   0  0  2  0  0  3  0  0  0  0  0  0
  191.2040  175.4230  134.5940 C   0  0  0  0  0  2  0  0  0  0  0  0
  192.5560  174.9120  134.8290 C   0  0  0  0  0  0  0  0  0  0  0  0
  193.6760  174.5140  135.0290 C   0  0  0  0  0  0  0  0  0  0  0  0
  195.0200  172.8450  135.9630 O   0  0  0  0  0  1  0  0  0  0  0  0
  195.0460  174.0560  135.2700 C   0  0  2  0  0  3  0  0  0  0  0  0
  195.9370  175.2960  136.2550 P   0  0  2  0  0  0  0  0  0  0  0  0
  195.3120  175.2910  137.8280 O   0  0  0  0  0  1  0  0  0  0  0  0
  195.7200  176.6560  135.6310 O   0  0  0  0  0  0  0  0  0  0  0  0
  197.5900  174.9000  136.2440 O   0  0  0  0  0  0  0  0  0  0  0  0
  196.5660  173.6750  138.5410 O   0  0  0  0  0  1  0  0  0  0  0  0
  198.6200  175.2780  138.6150 O   0  0  0  0  0  1  0  0  0  0  0  0
  199.0460  172.9290  137.5690 O   0  0  0  0  0  0  0  0  0  0  0  0
  197.9660  174.2180  137.7580 P   0  0  0  0  0  0  0  0  0  0  0  0
  188.1250  178.6530  138.8040 S   0  0  0  0  0  0  0  0  0  0  0  0
  188.8810  177.4330  139.9230 C   0  0  0  0  0  2  0  0  0  0  0  0
  189.4080  178.1270  141.1780 C   0  0  0  0  0  2  0  0  0  0  0  0
  189.2940  177.2940  142.3840 N   0  0  0  0  0  0  0  0  0  0  0  0
  190.4790  177.4360  143.2670 C   0  0  1  0  0  3  0  0  0  0  0  0
  191.3550  176.1750  143.2150 C   0  0  1  0  0  3  0  0  0  0  0  0
  192.4210  176.3170  142.3200 O   0  0  0  0  0  1  0  0  0  0  0  0
  191.6970  176.7590  145.5240 O   0  0  0  0  0  1  0  0  0  0  0  0
  191.8450  175.7330  144.5890 C   0  0  0  0  0  2  0  0  0  0  0  0
  191.3080  178.6720  142.9030 C   0  0  0  0  0  2  0  0  0  0  0  0
  191.2160  179.6940  144.0210 C   0  0  0  0  0  1  0  0  0  0  0  0
  187.9890  177.5830  143.0160 C   0  0  1  0  0  3  0  0  0  0  0  0
  186.2390  178.8420  141.9360 O   0  0  0  0  0  1  0  0  0  0  0  0
  186.8610  177.5940  141.9860 C   0  0  0  0  0  2  0  0  0  0  0  0
  187.6630  176.7580  144.2720 C   0  0  0  0  0  2  0  0  0  0  0  0
  188.1680  178.1970  147.8110 C   0  0  0  0  0  0  0  0  0  0  0  0
  185.7290  178.2430  147.2350 C   0  0  1  0  0  3  0  0  0  0  0  0
  188.5190  177.5510  146.4900 C   0  0  0  0  0  2  0  0  0  0  0  0
  186.0670  177.2590  146.1120 C   0  0  0  0  0  2  0  0  0  0  0  0
  189.2490  178.4260  148.8090 C   0  0  0  0  0  1  0  0  0  0  0  0
  186.8970  178.4350  148.1710 C   0  0  0  0  0  3  0  0  0  0  0  0
  187.3880  177.6580  145.4660 C   0  0  2  0  0  3  0  0  0  0  0  0
  185.3680  179.4760  146.6830 O   0  0  0  0  0  0  0  0  0  0  0  0
  185.1600  179.2170  145.3240 C   0  0  0  0  0  2  0  0  0  0  0  0
  183.6740  179.1090  145.0550 C   0  0  0  0  0  2  0  0  0  0  0  0
  183.4070  179.4670  143.7320 O   0  0  0  0  0  1  0  0  0  0  0  0
  185.5010  177.9060  137.0230 C   0  0  0  0  0  2  0  0  0  0  0  0
  184.1420  177.2400  136.8910 C   0  0  0  0  0  2  0  0  0  0  0  0
  184.0470  176.1390  137.8380 N   0  0  0  0  0  2  0  0  0  0  0  0
  182.7540  176.2350  138.4980 C   0  0  0  0  0  2  0  0  0  0  0  0
  181.6370  176.4860  137.4810 C   0  0  0  0  0  2  0  0  0  0  0  0
  180.1130  181.3510  139.7590 C   0  0  0  0  0  2  0  0  0  0  0  0
  180.7540  177.9150  139.3820 C   0  0  0  0  0  2  0  0  0  0  0  0
  180.5290  180.2210  140.2990 C   0  0  0  0  0  2  0  0  0  0  0  0
  180.7020  178.8180  137.0980 C   0  0  0  0  0  2  0  0  0  0  0  0
  179.2100  176.9370  137.7100 C   0  0  0  0  0  1  0  0  0  0  0  0
  181.1040  179.3170  139.3730 N   0  0  2  0  0  0  0  0  0  0  0  0
  181.2610  179.8630  138.0450 C   0  0  2  0  0  3  0  0  0  0  0  0
  180.5920  177.5260  137.9150 C   0  0  1  0  0  0  0  0  0  0  0  0
  180.2980  181.4070  137.9770 S   0  0  0  0  0  0  0  0  0  0  0  0
  1  2  1  0  0  0  0
  2  5  1  0  0  0  0
  3 22  1  0  0  0  0
  4  3  2  0  0  0  0
  5 48  1  6  0  0  0
  5  3  1  0  0  0  0
  6  8  1  1  0  0  0
  6  1  1  0  0  0  0
  6  4  1  0  0  0  0
  8  7  1  1  0  0  0
  9 10  1  0  0  0  0
  9  8  1  0  0  0  0
 10 11  3  0  0  0  0
 11 13  1  0  0  0  0
 13 12  1  1  0  0  0
 13 14  1  0  0  0  0
 14 16  2  6  0  0  0
 14 15  1  0  0  0  0
 17 14  1  0  0  0  0
 17 21  1  0  0  0  0
 20 21  2  0  0  0  0
 21 18  1  0  0  0  0
 21 19  1  0  0  0  0
 22 23  1  0  0  0  0
 23 24  1  0  0  0  0
 24 25  1  0  0  0  0
 25 33  1  0  0  0  0
 25 26  1  0  0  0  0
 26 31  1  6  0  0  0
 27 28  1  6  0  0  0
 27 26  1  0  0  0  0
 27 30  1  0  0  0  0
 30 29  1  0  0  0  0
 31 32  1  0  0  0  0
 33 35  1  6  0  0  0
 33 36  1  0  0  0  0
 34 35  1  0  0  0  0
 37 42  2  0  0  0  0
 37 41  1  0  0  0  0
 38 44  1  6  0  0  0
 38 42  1  0  0  0  0
 39 37  1  0  0  0  0
 40 38  1  0  0  0  0
 43 36  1  6  0  0  0
 43 40  1  0  0  0  0
 43 39  1  0  0  0  0
 45 44  1  0  0  0  0
 46 45  1  0  0  0  0
 47 46  1  0  0  0  0
 49 48  1  0  0  0  0
 49 50  1  0  0  0  0
 50 51  1  0  0  0  0
 52 60  1  0  0  0  0
 52 51  1  0  0  0  0
 53 55  1  0  0  0  0
 56 60  1  0  0  0  0
 58 54  1  6  0  0  0
 58 55  1  0  0  0  0
 59 56  1  6  0  0  0
 59 58  1  0  0  0  0
 60 57  1  6  0  0  0
 60 54  1  0  0  0  0
 61 59  1  0  0  0  0
 61 53  1  0  0  0  0
M  END
>  <MODEL>
6

>  <REMARK>
 VINA RESULT:      -5.0      1.707      2.499
  Name = 
  28 active torsions:
  status: ('A' for Active; 'I' for Inactive)
    1  A    between atoms: N_1  and  C_24
    2  A    between atoms: N_1  and  C_35
    3  A    between atoms: N_1  and  C_52
    4  A    between atoms: C_3  and  C_52
    5  A    between atoms: C_6  and  C_35
    6  A    between atoms: C_6  and  C_61
    7  A    between atoms: C_7  and  C_15
    8  A    between atoms: P_10  and  O_27
    9  A    between atoms: P_10  and  C_60
   10  A    between atoms: C_15  and  C_29
   11  A    between atoms: O_16  and  C_28
   12  A    between atoms: O_16  and  C_47
   13  A    between atoms: C_17  and  C_52
   14  A    between atoms: C_17  and  C_57
   15  A    between atoms: C_18  and  C_24
   16  A    between atoms: C_18  and  S_43
   17  A    between atoms: C_19  and  C_25
   18  A    between atoms: C_19  and  N_39
   19  A    between atoms: C_21  and  C_50
   20  A    between atoms: C_21  and  C_53
   21  A    between atoms: C_23  and  C_60
   22  A    between atoms: C_25  and  C_49
   23  A    between atoms: O_27  and  P_58
   24  A    between atoms: C_29  and  C_59
   25  A    between atoms: C_34  and  C_47
   26  A    between atoms: C_35  and  C_56
   27  A    between atoms: N_39  and  C_53
   28  A    between atoms: C_42  and  S_43
                            x       y       z     vdW  Elec       q    Type
                         _______ _______ _______ _____ _____    ______ ____

>  <TORSDO>
F 28

$$$$
=
 OpenBabel10222420333D

 61 64  0  0  1  0  0  0  0  0999 V2000
  190.2170  176.9700  140.6160 C   0  0  0  0  0  2  0  0  0  0  0  0
  190.9450  176.3910  139.4140 C   0  0  0  0  0  2  0  0  0  0  0  0
  188.8220  176.9460  138.1080 C   0  0  0  0  0  0  0  0  0  0  0  0
  188.5520  177.9160  138.9980 C   0  0  0  0  0  3  0  0  0  0  0  0
  189.9410  175.9450  138.3460 C   0  0  1  0  0  3  0  0  0  0  0  0
  189.4500  178.2120  140.1760 C   0  0  1  0  0  3  0  0  0  0  0  0
  189.5130  178.8530  142.5520 N   0  0  0  0  0  1  0  0  0  0  0  0
  188.6820  178.8050  141.3560 C   0  0  2  0  0  3  0  0  0  0  0  0
  187.4030  178.0300  141.6290 C   0  0  0  0  0  2  0  0  0  0  0  0
  187.2830  177.7670  143.0650 C   0  0  0  0  0  0  0  0  0  0  0  0
  187.1620  177.5620  144.2460 C   0  0  0  0  0  0  0  0  0  0  0  0
  186.1480  178.3020  146.2190 O   0  0  0  0  0  1  0  0  0  0  0  0
  186.9950  177.3300  145.6830 C   0  0  2  0  0  3  0  0  0  0  0  0
  188.6120  177.4180  146.5040 P   0  0  2  0  0  0  0  0  0  0  0  0
  188.4070  177.0580  148.1460 O   0  0  0  0  0  1  0  0  0  0  0  0
  189.1520  178.8230  146.3600 O   0  0  0  0  0  0  0  0  0  0  0  0
  189.6550  176.3060  145.7530 O   0  0  0  0  0  0  0  0  0  0  0  0
  191.4470  177.2850  147.6650 O   0  0  0  0  0  1  0  0  0  0  0  0
  191.5520  178.0010  145.1610 O   0  0  0  0  0  0  0  0  0  0  0  0
  192.3420  175.5740  145.6850 O   0  0  0  0  0  1  0  0  0  0  0  0
  191.2530  176.8150  146.0490 P   0  0  0  0  0  0  0  0  0  0  0  0
  187.6000  176.6230  136.8260 S   0  0  0  0  0  0  0  0  0  0  0  0
  186.2740  176.1980  138.0000 C   0  0  0  0  0  2  0  0  0  0  0  0
  185.2140  175.3430  137.3080 C   0  0  0  0  0  2  0  0  0  0  0  0
  183.8440  175.8060  137.5710 N   0  0  0  0  0  0  0  0  0  0  0  0
  183.8210  176.9660  138.4970 C   0  0  1  0  0  3  0  0  0  0  0  0
  183.4870  178.2630  137.7430 C   0  0  1  0  0  3  0  0  0  0  0  0
  182.1880  178.7040  138.0140 O   0  0  0  0  0  1  0  0  0  0  0  0
  184.1720  180.1190  139.1120 O   0  0  0  0  0  1  0  0  0  0  0  0
  184.5070  179.3700  137.9840 C   0  0  0  0  0  2  0  0  0  0  0  0
  182.8280  176.7510  139.6450 C   0  0  0  0  0  2  0  0  0  0  0  0
  183.4560  177.2020  140.9510 C   0  0  0  0  0  1  0  0  0  0  0  0
  183.1740  176.0150  136.2690 C   0  0  1  0  0  3  0  0  0  0  0  0
  183.2670  177.7460  134.5940 O   0  0  0  0  0  1  0  0  0  0  0  0
  184.0410  176.8420  135.3230 C   0  0  0  0  0  2  0  0  0  0  0  0
  182.5850  174.7540  135.6170 C   0  0  0  0  0  2  0  0  0  0  0  0
  179.7190  172.3440  136.5240 C   0  0  0  0  0  0  0  0  0  0  0  0
  179.3230  174.5600  137.6270 C   0  0  1  0  0  3  0  0  0  0  0  0
  180.9810  172.8440  135.8590 C   0  0  0  0  0  2  0  0  0  0  0  0
  180.3560  175.1290  136.6520 C   0  0  0  0  0  2  0  0  0  0  0  0
  179.2460  170.9640  136.2240 C   0  0  0  0  0  1  0  0  0  0  0  0
  178.9350  173.1480  137.2600 C   0  0  0  0  0  3  0  0  0  0  0  0
  181.5020  174.1380  136.4870 C   0  0  2  0  0  3  0  0  0  0  0  0
  179.8480  174.5740  138.9240 O   0  0  0  0  0  0  0  0  0  0  0  0
  179.7140  175.8980  139.3540 C   0  0  0  0  0  2  0  0  0  0  0  0
  179.0310  175.9220  140.7050 C   0  0  0  0  0  2  0  0  0  0  0  0
  179.1050  177.2060  141.2490 O   0  0  0  0  0  1  0  0  0  0  0  0
  190.6910  175.6210  137.0650 C   0  0  0  0  0  2  0  0  0  0  0  0
  191.1470  174.1720  137.0650 C   0  0  0  0  0  2  0  0  0  0  0  0
  191.9420  173.9130  135.8740 N   0  0  0  0  0  2  0  0  0  0  0  0
  193.2920  174.3900  136.1330 C   0  0  0  0  0  2  0  0  0  0  0  0
  193.8190  173.8470  137.4650 C   0  0  0  0  0  2  0  0  0  0  0  0
  197.2910  169.6360  136.2860 C   0  0  0  0  0  2  0  0  0  0  0  0
  195.2490  171.8500  138.0980 C   0  0  0  0  0  2  0  0  0  0  0  0
  196.4430  169.8210  137.2790 C   0  0  0  0  0  2  0  0  0  0  0  0
  195.6500  172.9570  135.9430 C   0  0  0  0  0  2  0  0  0  0  0  0
  196.2120  174.1320  138.0510 C   0  0  0  0  0  1  0  0  0  0  0  0
  195.5260  170.8800  137.0640 N   0  0  2  0  0  0  0  0  0  0  0  0
  195.5990  171.4550  135.7410 C   0  0  2  0  0  3  0  0  0  0  0  0
  195.2120  173.2010  137.3910 C   0  0  1  0  0  0  0  0  0  0  0  0
  197.1250  170.8350  134.9640 S   0  0  0  0  0  0  0  0  0  0  0  0
  2  1  1  0  0  0  0
  3  5  1  0  0  0  0
  3  4  2  0  0  0  0
  4  6  1  0  0  0  0
  5 48  1  6  0  0  0
  5  2  1  0  0  0  0
  6  1  1  0  0  0  0
  6  8  1  1  0  0  0
  8  9  1  0  0  0  0
  8  7  1  1  0  0  0
  9 10  1  0  0  0  0
 10 11  3  0  0  0  0
 11 13  1  0  0  0  0
 13 12  1  1  0  0  0
 13 14  1  0  0  0  0
 14 16  2  6  0  0  0
 14 15  1  0  0  0  0
 17 21  1  0  0  0  0
 17 14  1  0  0  0  0
 19 21  2  0  0  0  0
 20 21  1  0  0  0  0
 21 18  1  0  0  0  0
 22 23  1  0  0  0  0
 22  3  1  0  0  0  0
 24 25  1  0  0  0  0
 24 23  1  0  0  0  0
 25 26  1  0  0  0  0
 26 31  1  1  0  0  0
 27 30  1  0  0  0  0
 27 28  1  1  0  0  0
 27 26  1  0  0  0  0
 30 29  1  0  0  0  0
 31 32  1  0  0  0  0
 33 35  1  6  0  0  0
 33 25  1  0  0  0  0
 34 35  1  0  0  0  0
 36 33  1  0  0  0  0
 37 42  2  0  0  0  0
 38 44  1  1  0  0  0
 39 43  1  0  0  0  0
 39 37  1  0  0  0  0
 40 38  1  0  0  0  0
 41 37  1  0  0  0  0
 42 38  1  0  0  0  0
 43 36  1  6  0  0  0
 43 40  1  0  0  0  0
 44 45  1  0  0  0  0
 45 46  1  0  0  0  0
 46 47  1  0  0  0  0
 49 48  1  0  0  0  0
 50 51  1  0  0  0  0
 50 49  1  0  0  0  0
 51 52  1  0  0  0  0
 53 55  1  0  0  0  0
 56 60  1  0  0  0  0
 58 55  1  1  0  0  0
 58 54  1  0  0  0  0
 59 56  1  1  0  0  0
 59 58  1  0  0  0  0
 60 52  1  0  0  0  0
 60 57  1  1  0  0  0
 60 54  1  0  0  0  0
 61 59  1  0  0  0  0
 61 53  1  0  0  0  0
M  END
>  <MODEL>
7

>  <REMARK>
 VINA RESULT:      -4.2      4.479     10.965
  Name = 
  28 active torsions:
  status: ('A' for Active; 'I' for Inactive)
    1  A    between atoms: N_1  and  C_24
    2  A    between atoms: N_1  and  C_35
    3  A    between atoms: N_1  and  C_52
    4  A    between atoms: C_3  and  C_52
    5  A    between atoms: C_6  and  C_35
    6  A    between atoms: C_6  and  C_61
    7  A    between atoms: C_7  and  C_15
    8  A    between atoms: P_10  and  O_27
    9  A    between atoms: P_10  and  C_60
   10  A    between atoms: C_15  and  C_29
   11  A    between atoms: O_16  and  C_28
   12  A    between atoms: O_16  and  C_47
   13  A    between atoms: C_17  and  C_52
   14  A    between atoms: C_17  and  C_57
   15  A    between atoms: C_18  and  C_24
   16  A    between atoms: C_18  and  S_43
   17  A    between atoms: C_19  and  C_25
   18  A    between atoms: C_19  and  N_39
   19  A    between atoms: C_21  and  C_50
   20  A    between atoms: C_21  and  C_53
   21  A    between atoms: C_23  and  C_60
   22  A    between atoms: C_25  and  C_49
   23  A    between atoms: O_27  and  P_58
   24  A    between atoms: C_29  and  C_59
   25  A    between atoms: C_34  and  C_47
   26  A    between atoms: C_35  and  C_56
   27  A    between atoms: N_39  and  C_53
   28  A    between atoms: C_42  and  S_43
                            x       y       z     vdW  Elec       q    Type
                         _______ _______ _______ _____ _____    ______ ____

>  <TORSDO>
F 28

$$$$
=
 OpenBabel10222420333D

 61 64  0  0  1  0  0  0  0  0999 V2000
  189.7960  175.2440  135.3820 C   0  0  0  0  0  2  0  0  0  0  0  0
  188.6410  176.1910  135.1010 C   0  0  0  0  0  2  0  0  0  0  0  0
  189.5410  177.5590  137.0610 C   0  0  0  0  0  0  0  0  0  0  0  0
  190.7630  177.0500  136.8290 C   0  0  0  0  0  3  0  0  0  0  0  0
  188.3110  177.0170  136.3490 C   0  0  1  0  0  3  0  0  0  0  0  0
  191.0370  176.0670  135.7150 C   0  0  1  0  0  3  0  0  0  0  0  0
  193.1990  175.1650  134.9580 N   0  0  0  0  0  1  0  0  0  0  0  0
  192.2130  175.1450  136.0310 C   0  0  2  0  0  3  0  0  0  0  0  0
  191.7450  173.7230  136.2970 C   0  0  0  0  0  2  0  0  0  0  0  0
  192.8990  172.8210  136.3170 C   0  0  0  0  0  0  0  0  0  0  0  0
  193.8630  172.0980  136.3270 C   0  0  0  0  0  0  0  0  0  0  0  0
  194.7880  170.0810  137.0640 O   0  0  0  0  0  1  0  0  0  0  0  0
  195.0490  171.2380  136.3290 C   0  0  2  0  0  3  0  0  0  0  0  0
  196.4440  172.1280  137.0780 P   0  0  2  0  0  0  0  0  0  0  0  0
  197.5630  170.9980  137.6570 O   0  0  0  0  0  0  0  0  0  0  0  0
  195.9250  172.9580  138.2310 O   0  0  0  0  0  1  0  0  0  0  0  0
  197.1350  173.1330  135.8950 O   0  0  0  0  0  0  0  0  0  0  0  0
  198.0880  174.2100  138.2940 O   0  0  0  0  0  1  0  0  0  0  0  0
  196.6210  175.5850  136.6360 O   0  0  0  0  0  1  0  0  0  0  0  0
  199.0740  175.1340  135.8810 O   0  0  0  0  0  0  0  0  0  0  0  0
  197.7070  174.5340  136.6760 P   0  0  0  0  0  0  0  0  0  0  0  0
  189.3370  178.6210  138.4990 S   0  0  0  0  0  0  0  0  0  0  0  0
  188.6660  177.3000  139.5570 C   0  0  0  0  0  2  0  0  0  0  0  0
  188.2130  177.8780  140.8960 C   0  0  0  0  0  2  0  0  0  0  0  0
  188.9350  177.3040  142.0410 N   0  0  0  0  0  0  0  0  0  0  0  0
  190.3790  177.6440  142.0110 C   0  0  1  0  0  3  0  0  0  0  0  0
  191.0630  177.2540  143.3300 C   0  0  1  0  0  3  0  0  0  0  0  0
  192.0180  176.2490  143.1450 O   0  0  0  0  0  1  0  0  0  0  0  0
  190.9700  179.6210  143.7520 O   0  0  0  0  0  1  0  0  0  0  0  0
  191.6560  178.4480  144.0690 C   0  0  0  0  0  2  0  0  0  0  0  0
  191.0900  176.9760  140.8280 C   0  0  0  0  0  2  0  0  0  0  0  0
  192.4880  177.5500  140.6840 C   0  0  0  0  0  1  0  0  0  0  0  0
  188.2150  177.6890  143.2740 C   0  0  1  0  0  3  0  0  0  0  0  0
  186.3330  178.9700  144.0680 O   0  0  0  0  0  1  0  0  0  0  0  0
  186.8570  178.3110  142.9550 C   0  0  0  0  0  2  0  0  0  0  0  0
  188.1530  176.6130  144.3700 C   0  0  0  0  0  2  0  0  0  0  0  0
  190.4400  176.9550  147.4520 C   0  0  0  0  0  0  0  0  0  0  0  0
  188.0620  177.3640  148.1320 C   0  0  1  0  0  3  0  0  0  0  0  0
  190.0370  176.6780  146.0220 C   0  0  0  0  0  2  0  0  0  0  0  0
  187.6650  176.7100  146.8060 C   0  0  0  0  0  2  0  0  0  0  0  0
  191.8700  176.8040  147.8390 C   0  0  0  0  0  1  0  0  0  0  0  0
  189.5330  177.1880  148.4150 C   0  0  0  0  0  3  0  0  0  0  0  0
  188.6190  177.1620  145.7080 C   0  0  2  0  0  3  0  0  0  0  0  0
  187.7570  178.7290  148.0890 O   0  0  0  0  0  0  0  0  0  0  0  0
  186.3930  178.7850  147.7870 C   0  0  0  0  0  2  0  0  0  0  0  0
  186.0530  180.1610  147.2540 C   0  0  0  0  0  2  0  0  0  0  0  0
  185.8090  181.0330  148.3160 O   0  0  0  0  0  1  0  0  0  0  0  0
  187.3450  178.1250  135.9680 C   0  0  0  0  0  2  0  0  0  0  0  0
  186.4290  178.4580  137.1340 C   0  0  0  0  0  2  0  0  0  0  0  0
  185.5120  177.3510  137.3620 N   0  0  0  0  0  2  0  0  0  0  0  0
  184.3810  177.8640  138.1200 C   0  0  0  0  0  2  0  0  0  0  0  0
  183.1160  177.9030  137.2590 C   0  0  0  0  0  2  0  0  0  0  0  0
  179.6140  178.0500  141.6050 C   0  0  0  0  0  2  0  0  0  0  0  0
  180.9870  177.2460  138.4710 C   0  0  0  0  0  2  0  0  0  0  0  0
  179.8040  177.1480  140.6620 C   0  0  0  0  0  2  0  0  0  0  0  0
  182.2070  179.2420  139.2190 C   0  0  0  0  0  2  0  0  0  0  0  0
  181.0520  179.2580  137.0260 C   0  0  0  0  0  1  0  0  0  0  0  0
  180.9910  177.3390  139.9130 N   0  0  2  0  0  0  0  0  0  0  0  0
  181.8380  178.3930  140.4190 C   0  0  2  0  0  3  0  0  0  0  0  0
  181.8570  178.4020  137.9860 C   0  0  1  0  0  0  0  0  0  0  0  0
  180.8600  179.3390  141.6300 S   0  0  0  0  0  0  0  0  0  0  0  0
  1  6  1  0  0  0  0
  2  1  1  0  0  0  0
  2  5  1  0  0  0  0
  3 22  1  0  0  0  0
  4  3  2  0  0  0  0
  5 48  1  6  0  0  0
  5  3  1  0  0  0  0
  6  8  1  1  0  0  0
  6  4  1  0  0  0  0
  8  7  1  6  0  0  0
  8  9  1  0  0  0  0
  9 10  1  0  0  0  0
 10 11  3  0  0  0  0
 11 13  1  0  0  0  0
 13 12  1  1  0  0  0
 13 14  1  0  0  0  0
 14 15  2  1  0  0  0
 14 16  1  0  0  0  0
 17 21  1  0  0  0  0
 17 14  1  0  0  0  0
 19 21  1  0  0  0  0
 20 21  2  0  0  0  0
 21 18  1  0  0  0  0
 22 23  1  0  0  0  0
 23 24  1  0  0  0  0
 24 25  1  0  0  0  0
 25 33  1  0  0  0  0
 26 31  1  6  0  0  0
 26 25  1  0  0  0  0
 26 27  1  0  0  0  0
 27 28  1  6  0  0  0
 27 30  1  0  0  0  0
 29 30  1  0  0  0  0
 32 31  1  0  0  0  0
 33 35  1  6  0  0  0
 33 36  1  0  0  0  0
 35 34  1  0  0  0  0
 37 41  1  0  0  0  0
 37 42  2  0  0  0  0
 38 44  1  6  0  0  0
 38 42  1  0  0  0  0
 39 37  1  0  0  0  0
 40 38  1  0  0  0  0
 43 36  1  6  0  0  0
 43 39  1  0  0  0  0
 43 40  1  0  0  0  0
 45 44  1  0  0  0  0
 46 45  1  0  0  0  0
 46 47  1  0  0  0  0
 48 49  1  0  0  0  0
 49 50  1  0  0  0  0
 50 51  1  0  0  0  0
 52 60  1  0  0  0  0
 52 51  1  0  0  0  0
 53 61  1  0  0  0  0
 55 53  1  0  0  0  0
 58 54  1  6  0  0  0
 58 59  1  0  0  0  0
 58 55  1  0  0  0  0
 59 56  1  6  0  0  0
 59 61  1  0  0  0  0
 60 57  1  6  0  0  0
 60 54  1  0  0  0  0
 60 56  1  0  0  0  0
M  END
>  <MODEL>
8

>  <REMARK>
 VINA RESULT:      -3.9      1.603      2.398
  Name = 
  28 active torsions:
  status: ('A' for Active; 'I' for Inactive)
    1  A    between atoms: N_1  and  C_24
    2  A    between atoms: N_1  and  C_35
    3  A    between atoms: N_1  and  C_52
    4  A    between atoms: C_3  and  C_52
    5  A    between atoms: C_6  and  C_35
    6  A    between atoms: C_6  and  C_61
    7  A    between atoms: C_7  and  C_15
    8  A    between atoms: P_10  and  O_27
    9  A    between atoms: P_10  and  C_60
   10  A    between atoms: C_15  and  C_29
   11  A    between atoms: O_16  and  C_28
   12  A    between atoms: O_16  and  C_47
   13  A    between atoms: C_17  and  C_52
   14  A    between atoms: C_17  and  C_57
   15  A    between atoms: C_18  and  C_24
   16  A    between atoms: C_18  and  S_43
   17  A    between atoms: C_19  and  C_25
   18  A    between atoms: C_19  and  N_39
   19  A    between atoms: C_21  and  C_50
   20  A    between atoms: C_21  and  C_53
   21  A    between atoms: C_23  and  C_60
   22  A    between atoms: C_25  and  C_49
   23  A    between atoms: O_27  and  P_58
   24  A    between atoms: C_29  and  C_59
   25  A    between atoms: C_34  and  C_47
   26  A    between atoms: C_35  and  C_56
   27  A    between atoms: N_39  and  C_53
   28  A    between atoms: C_42  and  S_43
                            x       y       z     vdW  Elec       q    Type
                         _______ _______ _______ _____ _____    ______ ____

>  <TORSDO>
F 28

$$$$
=
 OpenBabel10222420333D

 61 64  0  0  1  0  0  0  0  0999 V2000
  189.1790  175.4160  135.7770 C   0  0  0  0  0  2  0  0  0  0  0  0
  188.0360  176.4180  135.7880 C   0  0  0  0  0  2  0  0  0  0  0  0
  189.3260  177.5730  137.6660 C   0  0  0  0  0  0  0  0  0  0  0  0
  190.4650  177.0520  137.1760 C   0  0  0  0  0  3  0  0  0  0  0  0
  187.9670  177.1350  137.1400 C   0  0  1  0  0  3  0  0  0  0  0  0
  190.4940  176.1680  135.9520 C   0  0  1  0  0  3  0  0  0  0  0  0
  192.3010  175.1590  137.2850 N   0  0  0  0  0  1  0  0  0  0  0  0
  191.6650  175.1870  135.9740 C   0  0  2  0  0  3  0  0  0  0  0  0
  192.6840  175.5160  134.8960 C   0  0  0  0  0  2  0  0  0  0  0  0
  194.0290  175.1820  135.3700 C   0  0  0  0  0  0  0  0  0  0  0  0
  195.1270  174.8830  135.7670 C   0  0  0  0  0  0  0  0  0  0  0  0
  197.4100  174.7570  135.2820 O   0  0  0  0  0  1  0  0  0  0  0  0
  196.4510  174.5000  136.2620 C   0  0  2  0  0  3  0  0  0  0  0  0
  196.4600  172.7290  136.6650 P   0  0  2  0  0  0  0  0  0  0  0  0
  196.6570  172.5530  138.3370 O   0  0  0  0  0  1  0  0  0  0  0  0
  197.6210  172.0760  135.9490 O   0  0  0  0  0  0  0  0  0  0  0  0
  194.9910  172.0540  136.1410 O   0  0  0  0  0  0  0  0  0  0  0  0
  195.5560  170.1660  138.1270 O   0  0  0  0  0  1  0  0  0  0  0  0
  195.9570  169.6890  135.5970 O   0  0  0  0  0  0  0  0  0  0  0  0
  193.4680  169.7320  136.3660 O   0  0  0  0  0  1  0  0  0  0  0  0
  195.0120  170.3980  136.5400 P   0  0  0  0  0  0  0  0  0  0  0  0
  189.4250  178.5050  139.2020 S   0  0  0  0  0  0  0  0  0  0  0  0
  189.0120  177.0800  140.2580 C   0  0  0  0  0  2  0  0  0  0  0  0
  190.0700  176.9090  141.3460 C   0  0  0  0  0  2  0  0  0  0  0  0
  189.4940  176.5850  142.6590 N   0  0  0  0  0  0  0  0  0  0  0  0
  190.3140  177.1290  143.7710 C   0  0  1  0  0  3  0  0  0  0  0  0
  191.0410  176.0000  144.5180 C   0  0  1  0  0  3  0  0  0  0  0  0
  192.0220  175.3970  143.7250 O   0  0  0  0  0  1  0  0  0  0  0  0
  192.3690  175.4290  146.4420 O   0  0  0  0  0  1  0  0  0  0  0  0
  191.6140  176.4470  145.8590 C   0  0  0  0  0  2  0  0  0  0  0  0
  191.3230  178.1680  143.2700 C   0  0  0  0  0  2  0  0  0  0  0  0
  191.0740  179.4950  143.9640 C   0  0  0  0  0  1  0  0  0  0  0  0
  188.0750  177.0010  142.6500 C   0  0  1  0  0  3  0  0  0  0  0  0
  187.2900  177.2050  144.9210 O   0  0  0  0  0  1  0  0  0  0  0  0
  187.3010  176.3680  143.8040 C   0  0  0  0  0  2  0  0  0  0  0  0
  187.8270  178.5110  142.5020 C   0  0  0  0  0  2  0  0  0  0  0  0
  184.3140  179.1080  143.9660 C   0  0  0  0  0  0  0  0  0  0  0  0
  184.1030  178.0300  141.7130 C   0  0  1  0  0  3  0  0  0  0  0  0
  185.8230  179.0730  143.8980 C   0  0  0  0  0  2  0  0  0  0  0  0
  185.5820  177.6630  141.8500 C   0  0  0  0  0  2  0  0  0  0  0  0
  183.6620  179.6140  145.2060 C   0  0  0  0  0  1  0  0  0  0  0  0
  183.5450  178.5650  143.0090 C   0  0  0  0  0  3  0  0  0  0  0  0
  186.3400  178.8250  142.4790 C   0  0  2  0  0  3  0  0  0  0  0  0
  183.9510  178.9940  140.7100 O   0  0  0  0  0  0  0  0  0  0  0  0
  183.1010  178.4050  139.7690 C   0  0  0  0  0  2  0  0  0  0  0  0
  182.4350  179.4880  138.9460 C   0  0  0  0  0  2  0  0  0  0  0  0
  181.1260  179.6810  139.3890 O   0  0  0  0  0  1  0  0  0  0  0  0
  187.0010  178.3020  137.0340 C   0  0  0  0  0  2  0  0  0  0  0  0
  185.5900  177.8590  137.3820 C   0  0  0  0  0  2  0  0  0  0  0  0
  184.9540  177.2920  136.2030 N   0  0  0  0  0  2  0  0  0  0  0  0
  184.0550  176.2380  136.6500 C   0  0  0  0  0  2  0  0  0  0  0  0
  183.9480  175.1290  135.6000 C   0  0  0  0  0  2  0  0  0  0  0  0
  179.3790  172.2090  136.9350 C   0  0  0  0  0  2  0  0  0  0  0  0
  182.2980  174.1420  137.2550 C   0  0  0  0  0  2  0  0  0  0  0  0
  180.0280  173.1630  137.5740 C   0  0  0  0  0  2  0  0  0  0  0  0
  182.3640  173.2420  134.9700 C   0  0  0  0  0  2  0  0  0  0  0  0
  184.2690  172.8420  136.5050 C   0  0  0  0  0  1  0  0  0  0  0  0
  180.9650  173.8590  136.7720 N   0  0  2  0  0  0  0  0  0  0  0  0
  180.9250  173.4930  135.3760 C   0  0  2  0  0  3  0  0  0  0  0  0
  183.2270  173.8580  136.0780 C   0  0  1  0  0  0  0  0  0  0  0  0
  179.9220  171.9790  135.2420 S   0  0  0  0  0  0  0  0  0  0  0  0
  1  2  1  0  0  0  0
  1  6  1  0  0  0  0
  2  5  1  0  0  0  0
  3 22  1  0  0  0  0
  4  3  2  0  0  0  0
  5 48  1  6  0  0  0
  5  3  1  0  0  0  0
  6  8  1  1  0  0  0
  6  4  1  0  0  0  0
  8  7  1  1  0  0  0
  9 10  1  0  0  0  0
  9  8  1  0  0  0  0
 10 11  3  0  0  0  0
 11 13  1  0  0  0  0
 13 12  1  6  0  0  0
 13 14  1  0  0  0  0
 14 16  2  6  0  0  0
 14 15  1  0  0  0  0
 17 21  1  0  0  0  0
 17 14  1  0  0  0  0
 19 21  2  0  0  0  0
 20 21  1  0  0  0  0
 21 18  1  0  0  0  0
 22 23  1  0  0  0  0
 23 24  1  0  0  0  0
 24 25  1  0  0  0  0
 25 26  1  0  0  0  0
 26 31  1  6  0  0  0
 26 27  1  0  0  0  0
 27 28  1  6  0  0  0
 27 30  1  0  0  0  0
 30 29  1  0  0  0  0
 31 32  1  0  0  0  0
 33 36  1  1  0  0  0
 33 25  1  0  0  0  0
 33 35  1  0  0  0  0
 35 34  1  0  0  0  0
 37 41  1  0  0  0  0
 38 44  1  6  0  0  0
 38 40  1  0  0  0  0
 38 42  1  0  0  0  0
 39 37  1  0  0  0  0
 40 43  1  0  0  0  0
 42 37  2  0  0  0  0
 43 36  1  1  0  0  0
 43 39  1  0  0  0  0
 45 44  1  0  0  0  0
 46 47  1  0  0  0  0
 46 45  1  0  0  0  0
 48 49  1  0  0  0  0
 50 51  1  0  0  0  0
 50 49  1  0  0  0  0
 52 60  1  0  0  0  0
 52 51  1  0  0  0  0
 53 55  1  0  0  0  0
 56 60  1  0  0  0  0
 58 54  1  1  0  0  0
 58 55  1  0  0  0  0
 59 56  1  1  0  0  0
 59 58  1  0  0  0  0
 60 57  1  1  0  0  0
 60 54  1  0  0  0  0
 61 59  1  0  0  0  0
 61 53  1  0  0  0  0
M  END
>  <MODEL>
9

>  <REMARK>
 VINA RESULT:      -3.9      2.590      4.252
  Name = 
  28 active torsions:
  status: ('A' for Active; 'I' for Inactive)
    1  A    between atoms: N_1  and  C_24
    2  A    between atoms: N_1  and  C_35
    3  A    between atoms: N_1  and  C_52
    4  A    between atoms: C_3  and  C_52
    5  A    between atoms: C_6  and  C_35
    6  A    between atoms: C_6  and  C_61
    7  A    between atoms: C_7  and  C_15
    8  A    between atoms: P_10  and  O_27
    9  A    between atoms: P_10  and  C_60
   10  A    between atoms: C_15  and  C_29
   11  A    between atoms: O_16  and  C_28
   12  A    between atoms: O_16  and  C_47
   13  A    between atoms: C_17  and  C_52
   14  A    between atoms: C_17  and  C_57
   15  A    between atoms: C_18  and  C_24
   16  A    between atoms: C_18  and  S_43
   17  A    between atoms: C_19  and  C_25
   18  A    between atoms: C_19  and  N_39
   19  A    between atoms: C_21  and  C_50
   20  A    between atoms: C_21  and  C_53
   21  A    between atoms: C_23  and  C_60
   22  A    between atoms: C_25  and  C_49
   23  A    between atoms: O_27  and  P_58
   24  A    between atoms: C_29  and  C_59
   25  A    between atoms: C_34  and  C_47
   26  A    between atoms: C_35  and  C_56
   27  A    between atoms: N_39  and  C_53
   28  A    between atoms: C_42  and  S_43
                            x       y       z     vdW  Elec       q    Type
                         _______ _______ _______ _____ _____    ______ ____

>  <TORSDO>
F 28

$$$$
