=
 OpenBabel10222415213D

 60 67  0  0  1  0  0  0  0  0999 V2000
  187.2220  177.9250  138.2760 C   0  0  0  0  0  3  0  0  0  0  0  0
  187.3200  177.6680  135.8410 O   0  0  0  0  0  0  0  0  0  0  0  0
  188.5180  177.5980  138.3650 C   0  0  0  0  0  0  0  0  0  0  0  0
  186.4500  177.7920  136.9780 C   0  0  1  0  0  3  0  0  0  0  0  0
  190.8880  176.6460  135.5400 C   0  0  2  0  0  3  0  0  0  0  0  0
  189.2310  177.1770  137.1430 C   0  0  0  0  0  0  0  0  0  0  0  0
  190.6320  176.6990  137.0470 C   0  0  0  0  0  2  0  0  0  0  0  0
  189.5350  176.8710  134.8540 C   0  0  0  0  0  2  0  0  0  0  0  0
  188.6490  177.2490  135.9720 C   0  0  0  0  0  0  0  0  0  0  0  0
  185.7860  177.9560  140.9160 O   0  0  0  0  0  0  0  0  0  0  0  0
  190.6450  177.5030  139.6380 C   0  0  0  0  0  2  0  0  0  0  0  0
  186.0110  179.1020  141.4760 C   0  0  2  0  0  3  0  0  0  0  0  0
  189.1180  178.1460  141.9550 N   0  0  0  0  0  0  0  0  0  0  0  0
  190.4870  177.7540  142.0990 C   0  0  0  0  0  0  0  0  0  0  0  0
  187.1030  178.4200  140.7750 N   0  0  0  0  0  0  0  0  0  0  0  0
  191.2010  177.3870  141.0280 C   0  0  0  0  0  3  0  0  0  0  0  0
  188.4990  178.1220  140.8150 C   0  0  0  0  0  0  0  0  0  0  0  0
  189.1890  177.6800  139.6290 N   0  0  0  0  0  0  0  0  0  0  0  0
  190.9820  178.9100  144.1950 N   0  0  0  0  0  2  0  0  0  0  0  0
  189.1660  176.8430  146.4720 C   0  0  0  0  0  3  0  0  0  0  0  0
  189.8670  177.3330  145.4540 C   0  0  0  0  0  0  0  0  0  0  0  0
  190.3190  176.5530  144.3000 C   0  0  0  0  0  2  0  0  0  0  0  0
  190.2630  178.6440  145.3390 O   0  0  0  0  0  0  0  0  0  0  0  0
  191.0540  177.6240  143.4800 C   0  0  1  0  0  3  0  0  0  0  0  0
  188.7510  177.6740  147.5710 C   0  0  0  0  0  0  0  0  0  0  0  0
  188.4010  178.3710  148.4920 C   0  0  0  0  0  3  0  0  0  0  0  0
  186.1690  178.9230  142.9760 C   0  0  0  0  0  2  0  0  0  0  0  0
  185.0690  179.6850  143.7090 C   0  0  0  0  0  2  0  0  0  0  0  0
  184.0790  178.7710  144.4450 C   0  0  2  0  0  3  0  0  0  0  0  0
  181.8400  178.1210  143.5910 C   0  0  0  0  0  2  0  0  0  0  0  0
  182.6410  179.2320  144.2470 C   0  0  0  0  0  3  0  0  0  0  0  0
  182.3140  179.2980  142.7660 C   0  0  0  0  0  2  0  0  0  0  0  0
  184.3930  178.6420  145.9050 C   0  0  0  0  0  3  0  0  0  0  0  0
  185.5360  178.0930  146.3160 C   0  0  0  0  0  2  0  0  0  0  0  0
  185.5390  176.5750  137.0500 C   0  0  0  0  0  2  0  0  0  0  0  0
  184.3560  176.7350  136.1100 C   0  0  0  0  0  2  0  0  0  0  0  0
  184.1780  175.4820  135.2710 C   0  0  0  0  0  2  0  0  0  0  0  0
  178.9310  174.1480  136.4460 C   0  0  0  0  0  1  0  0  0  0  0  0
  182.5590  173.8180  136.4720 S   0  0  0  0  0  0  0  0  0  0  0  0
  180.0650  175.0610  136.8730 C   0  0  1  0  0  0  0  0  0  0  0  0
  180.2260  175.5810  139.2490 C   0  0  1  0  0  3  0  0  0  0  0  0
  182.5360  175.8560  138.6440 O   0  0  0  0  0  1  0  0  0  0  0  0
  180.5100  175.8930  135.6590 C   0  0  0  0  0  2  0  0  0  0  0  0
  179.5540  176.0030  137.9560 C   0  0  0  0  0  2  0  0  0  0  0  0
  182.2560  172.5340  135.7540 O   0  0  0  0  0  0  0  0  0  0  0  0
  182.7800  175.0780  135.2850 N   0  0  0  0  0  0  0  0  0  0  0  0
  181.5290  174.9040  138.8480 C   0  0  2  0  0  3  0  0  0  0  0  0
  183.7980  173.6260  137.3050 O   0  0  0  0  0  0  0  0  0  0  0  0
  180.4200  176.7680  140.1760 C   0  0  0  0  0  1  0  0  0  0  0  0
  181.9950  176.2400  135.6800 C   0  0  0  0  0  2  0  0  0  0  0  0
  181.1640  174.2130  137.5370 C   0  0  2  0  0  3  0  0  0  0  0  0
  191.4740  175.2980  135.1550 C   0  0  0  0  0  2  0  0  0  0  0  0
  191.5100  174.3490  136.3530 C   0  0  2  0  0  3  0  0  0  0  0  0
  193.2190  173.7310  136.5290 P   0  0  0  0  0  0  0  0  0  0  0  0
  194.2240  174.5180  135.4190 O   0  0  0  0  0  0  0  0  0  0  0  0
  193.7150  174.0030  137.9310 O   0  0  0  0  0  1  0  0  0  0  0  0
  193.2730  172.0650  136.2420 O   0  0  0  0  0  1  0  0  0  0  0  0
  190.1950  172.9060  134.7270 C   0  0  0  0  0  1  0  0  0  0  0  0
  189.2170  173.4640  136.9080 C   0  0  0  0  0  1  0  0  0  0  0  0
  190.5220  173.1800  136.1870 C   0  0  0  0  0  3  0  0  0  0  0  0
  1  3  2  0  0  0  0
  2  9  1  0  0  0  0
  2  4  1  0  0  0  0
  3 18  1  0  0  0  0
  4 35  1  1  0  0  0
  4  1  1  0  0  0  0
  5 52  1  1  0  0  0
  5  7  1  0  0  0  0
  6  3  1  0  0  0  0
  7  6  1  0  0  0  0
  8  5  1  0  0  0  0
  8  9  1  0  0  0  0
  9  6  2  0  0  0  0
 10 12  1  0  0  0  0
 11 16  1  0  0  0  0
 12 27  1  1  0  0  0
 13 14  1  0  0  0  0
 15 17  1  0  0  0  0
 15 10  1  0  0  0  0
 15 12  1  0  0  0  0
 16 14  2  0  0  0  0
 17 13  2  0  0  0  0
 18 11  1  0  0  0  0
 18 17  1  0  0  0  0
 19 23  1  0  0  0  0
 20 25  1  0  0  0  0
 21 20  2  0  0  0  0
 22 21  1  0  0  0  0
 23 21  1  0  0  0  0
 24 14  1  6  0  0  0
 24 19  1  0  0  0  0
 24 22  1  0  0  0  0
 25 26  3  0  0  0  0
 27 28  1  0  0  0  0
 29 28  1  1  0  0  0
 29 33  1  0  0  0  0
 30 31  1  0  0  0  0
 31 29  1  0  0  0  0
 32 30  1  0  0  0  0
 32 31  1  0  0  0  0
 33 34  2  0  0  0  0
 36 35  1  0  0  0  0
 37 46  1  0  0  0  0
 37 36  1  0  0  0  0
 39 48  2  0  0  0  0
 40 38  1  6  0  0  0
 40 51  1  0  0  0  0
 40 44  1  0  0  0  0
 41 49  1  1  0  0  0
 43 50  1  0  0  0  0
 43 40  1  0  0  0  0
 44 41  1  0  0  0  0
 45 39  2  0  0  0  0
 46 50  1  0  0  0  0
 46 39  1  0  0  0  0
 47 42  1  6  0  0  0
 47 41  1  0  0  0  0
 51 39  1  6  0  0  0
 51 47  1  0  0  0  0
 53 52  1  6  0  0  0
 53 54  1  0  0  0  0
 54 56  1  0  0  0  0
 55 54  2  0  0  0  0
 57 54  1  0  0  0  0
 58 60  1  0  0  0  0
 60 53  1  0  0  0  0
 60 59  1  0  0  0  0
M  END
>  <MODEL>
1

>  <REMARK>
 VINA RESULT:      -7.8      0.000      0.000
  Name = 
  16 active torsions:
  status: ('A' for Active; 'I' for Inactive)
    1  A    between atoms: P_3  and  C_59
    2  A    between atoms: C_5  and  C_49
    3  A    between atoms: C_6  and  C_15
    4  A    between atoms: C_6  and  C_49
    5  A    between atoms: C_9  and  N_45
    6  A    between atoms: C_13  and  N_36
    7  A    between atoms: C_13  and  C_38
    8  A    between atoms: C_15  and  C_27
    9  A    between atoms: C_17  and  C_33
   10  A    between atoms: C_17  and  C_38
   11  A    between atoms: C_21  and  C_34
   12  A    between atoms: C_30  and  C_49
   13  A    between atoms: C_31  and  C_51
   14  A    between atoms: C_35  and  C_57
   15  A    between atoms: C_46  and  C_59
   16  A    between atoms: C_57  and  C_59
                            x       y       z     vdW  Elec       q    Type
                         _______ _______ _______ _____ _____    ______ ____

>  <TORSDO>
F 16

$$$$
=
 OpenBabel10222415213D

 60 67  0  0  1  0  0  0  0  0999 V2000
  186.7570  178.0030  138.4070 C   0  0  0  0  0  3  0  0  0  0  0  0
  186.7580  177.8060  135.9640 O   0  0  0  0  0  0  0  0  0  0  0  0
  188.0670  177.7220  138.4320 C   0  0  0  0  0  0  0  0  0  0  0  0
  185.9350  177.8730  137.1390 C   0  0  1  0  0  3  0  0  0  0  0  0
  190.3430  176.9210  135.4860 C   0  0  2  0  0  3  0  0  0  0  0  0
  188.7400  177.3550  137.1710 C   0  0  0  0  0  0  0  0  0  0  0  0
  190.1510  176.9300  137.0030 C   0  0  0  0  0  2  0  0  0  0  0  0
  188.9550  177.1130  134.8640 C   0  0  0  0  0  2  0  0  0  0  0  0
  188.1050  177.4330  136.0280 C   0  0  0  0  0  0  0  0  0  0  0  0
  185.4470  178.1790  141.0830 O   0  0  0  0  0  0  0  0  0  0  0  0
  190.2390  177.5840  139.6210 C   0  0  0  0  0  2  0  0  0  0  0  0
  185.7250  179.3250  141.6210 C   0  0  2  0  0  3  0  0  0  0  0  0
  188.8220  178.2910  141.9890 N   0  0  0  0  0  0  0  0  0  0  0  0
  190.1850  177.8640  142.0840 C   0  0  0  0  0  0  0  0  0  0  0  0
  186.7700  178.6070  140.8850 N   0  0  0  0  0  0  0  0  0  0  0  0
  190.8460  177.4680  140.9900 C   0  0  0  0  0  3  0  0  0  0  0  0
  188.1580  178.2720  140.8740 C   0  0  0  0  0  0  0  0  0  0  0  0
  188.7890  177.7990  139.6680 N   0  0  0  0  0  0  0  0  0  0  0  0
  190.7100  179.0060  144.1800 N   0  0  0  0  0  2  0  0  0  0  0  0
  189.0430  176.8450  146.4840 C   0  0  0  0  0  3  0  0  0  0  0  0
  189.6930  177.3730  145.4510 C   0  0  0  0  0  0  0  0  0  0  0  0
  190.1310  176.6260  144.2700 C   0  0  0  0  0  2  0  0  0  0  0  0
  190.0400  178.6980  145.3440 O   0  0  0  0  0  0  0  0  0  0  0  0
  190.8020  177.7330  143.4440 C   0  0  1  0  0  3  0  0  0  0  0  0
  188.6380  177.6450  147.6080 C   0  0  0  0  0  0  0  0  0  0  0  0
  188.2990  178.3150  148.5530 C   0  0  0  0  0  3  0  0  0  0  0  0
  185.9370  179.1570  143.1150 C   0  0  0  0  0  2  0  0  0  0  0  0
  184.8780  179.9440  143.8830 C   0  0  0  0  0  2  0  0  0  0  0  0
  183.9700  179.0620  144.7510 C   0  0  2  0  0  3  0  0  0  0  0  0
  184.9770  178.6040  146.9730 C   0  0  0  0  0  2  0  0  0  0  0  0
  184.7790  178.0630  145.5680 C   0  0  0  0  0  3  0  0  0  0  0  0
  186.1080  178.6750  145.9710 C   0  0  0  0  0  2  0  0  0  0  0  0
  182.9200  178.3550  143.9480 C   0  0  0  0  0  3  0  0  0  0  0  0
  182.0630  179.0360  143.1870 C   0  0  0  0  0  2  0  0  0  0  0  0
  185.0710  176.6220  137.2210 C   0  0  0  0  0  2  0  0  0  0  0  0
  184.6690  176.1580  135.8310 C   0  0  0  0  0  2  0  0  0  0  0  0
  183.4250  175.2900  135.9060 C   0  0  0  0  0  2  0  0  0  0  0  0
  179.1050  178.6330  134.9780 C   0  0  0  0  0  1  0  0  0  0  0  0
  180.9700  175.9220  136.5430 S   0  0  0  0  0  0  0  0  0  0  0  0
  180.4320  178.5570  135.7090 C   0  0  1  0  0  0  0  0  0  0  0  0
  180.5830  179.7190  137.8460 C   0  0  1  0  0  3  0  0  0  0  0  0
  182.2490  178.0270  138.2170 O   0  0  0  0  0  1  0  0  0  0  0  0
  181.5390  178.2450  134.6870 C   0  0  0  0  0  2  0  0  0  0  0  0
  180.7180  179.9110  136.3480 C   0  0  0  0  0  2  0  0  0  0  0  0
  179.8800  175.0820  135.9420 O   0  0  0  0  0  0  0  0  0  0  0  0
  182.2800  176.0310  135.3960 N   0  0  0  0  0  0  0  0  0  0  0  0
  180.8690  178.2480  138.1130 C   0  0  2  0  0  3  0  0  0  0  0  0
  181.4190  175.2850  137.8300 O   0  0  0  0  0  0  0  0  0  0  0  0
  181.5000  180.6620  138.6040 C   0  0  0  0  0  1  0  0  0  0  0  0
  182.6840  177.4250  135.2720 C   0  0  0  0  0  2  0  0  0  0  0  0
  180.3030  177.5600  136.8740 C   0  0  2  0  0  3  0  0  0  0  0  0
  190.9590  175.6040  135.0440 C   0  0  0  0  0  2  0  0  0  0  0  0
  191.6480  174.8980  136.2100 C   0  0  2  0  0  3  0  0  0  0  0  0
  193.4450  175.1800  136.0550 P   0  0  0  0  0  0  0  0  0  0  0  0
  194.2850  173.8690  136.7150 O   0  0  0  0  0  1  0  0  0  0  0  0
  193.8120  175.3240  134.5960 O   0  0  0  0  0  0  0  0  0  0  0  0
  193.8900  176.5930  136.8730 O   0  0  0  0  0  1  0  0  0  0  0  0
  191.9230  172.6620  135.0350 C   0  0  0  0  0  1  0  0  0  0  0  0
  189.8360  173.1470  136.2310 C   0  0  0  0  0  1  0  0  0  0  0  0
  191.3340  173.3900  136.2330 C   0  0  0  0  0  3  0  0  0  0  0  0
  1  3  2  0  0  0  0
  2  9  1  0  0  0  0
  2  4  1  0  0  0  0
  3 18  1  0  0  0  0
  4 35  1  1  0  0  0
  4  1  1  0  0  0  0
  5 52  1  6  0  0  0
  5  7  1  0  0  0  0
  6  3  1  0  0  0  0
  7  6  1  0  0  0  0
  8  5  1  0  0  0  0
  8  9  1  0  0  0  0
  9  6  2  0  0  0  0
 10 12  1  0  0  0  0
 11 18  1  0  0  0  0
 11 16  1  0  0  0  0
 12 27  1  1  0  0  0
 13 14  1  0  0  0  0
 15 10  1  0  0  0  0
 15 12  1  0  0  0  0
 16 14  2  0  0  0  0
 17 15  1  0  0  0  0
 17 13  2  0  0  0  0
 18 17  1  0  0  0  0
 19 23  1  0  0  0  0
 20 25  1  0  0  0  0
 21 20  2  0  0  0  0
 22 21  1  0  0  0  0
 23 21  1  0  0  0  0
 24 14  1  6  0  0  0
 24 19  1  0  0  0  0
 24 22  1  0  0  0  0
 25 26  3  0  0  0  0
 27 28  1  0  0  0  0
 29 28  1  6  0  0  0
 29 31  1  0  0  0  0
 31 32  1  0  0  0  0
 31 30  1  0  0  0  0
 32 30  1  0  0  0  0
 33 29  1  0  0  0  0
 34 33  2  0  0  0  0
 36 37  1  0  0  0  0
 36 35  1  0  0  0  0
 39 48  2  0  0  0  0
 40 38  1  6  0  0  0
 40 44  1  0  0  0  0
 40 51  1  0  0  0  0
 41 47  1  0  0  0  0
 41 49  1  1  0  0  0
 43 50  1  0  0  0  0
 43 40  1  0  0  0  0
 44 41  1  0  0  0  0
 45 39  2  0  0  0  0
 46 37  1  0  0  0  0
 46 39  1  0  0  0  0
 47 42  1  6  0  0  0
 50 46  1  0  0  0  0
 51 39  1  6  0  0  0
 51 47  1  0  0  0  0
 53 52  1  6  0  0  0
 53 60  1  0  0  0  0
 54 53  1  0  0  0  0
 54 55  1  0  0  0  0
 54 57  1  0  0  0  0
 56 54  2  0  0  0  0
 58 60  1  0  0  0  0
 59 60  1  0  0  0  0
M  END
>  <MODEL>
2

>  <REMARK>
 VINA RESULT:      -7.5      1.520      2.218
  Name = 
  16 active torsions:
  status: ('A' for Active; 'I' for Inactive)
    1  A    between atoms: P_3  and  C_59
    2  A    between atoms: C_5  and  C_49
    3  A    between atoms: C_6  and  C_15
    4  A    between atoms: C_6  and  C_49
    5  A    between atoms: C_9  and  N_45
    6  A    between atoms: C_13  and  N_36
    7  A    between atoms: C_13  and  C_38
    8  A    between atoms: C_15  and  C_27
    9  A    between atoms: C_17  and  C_33
   10  A    between atoms: C_17  and  C_38
   11  A    between atoms: C_21  and  C_34
   12  A    between atoms: C_30  and  C_49
   13  A    between atoms: C_31  and  C_51
   14  A    between atoms: C_35  and  C_57
   15  A    between atoms: C_46  and  C_59
   16  A    between atoms: C_57  and  C_59
                            x       y       z     vdW  Elec       q    Type
                         _______ _______ _______ _____ _____    ______ ____

>  <TORSDO>
F 16

$$$$
=
 OpenBabel10222415213D

 60 67  0  0  1  0  0  0  0  0999 V2000
  189.9760  177.7850  139.0890 C   0  0  0  0  0  3  0  0  0  0  0  0
  191.6400  177.8210  140.8890 O   0  0  0  0  0  0  0  0  0  0  0  0
  188.9950  177.9140  139.9910 C   0  0  0  0  0  0  0  0  0  0  0  0
  191.4130  177.5270  139.5010 C   0  0  1  0  0  3  0  0  0  0  0  0
  189.3130  178.1170  143.7810 C   0  0  2  0  0  3  0  0  0  0  0  0
  189.3380  177.8860  141.4260 C   0  0  0  0  0  0  0  0  0  0  0  0
  188.3960  177.9280  142.5700 C   0  0  0  0  0  2  0  0  0  0  0  0
  190.7500  177.9340  143.2790 C   0  0  0  0  0  2  0  0  0  0  0  0
  190.5900  177.8720  141.8120 C   0  0  0  0  0  0  0  0  0  0  0  0
  188.6620  175.7880  136.9140 O   0  0  0  0  0  0  0  0  0  0  0  0
  186.7550  178.9000  140.3970 C   0  0  0  0  0  2  0  0  0  0  0  0
  188.3760  176.6270  135.9680 C   0  0  2  0  0  3  0  0  0  0  0  0
  185.9820  177.8130  137.8800 N   0  0  0  0  0  0  0  0  0  0  0  0
  184.9860  178.3740  138.7420 C   0  0  0  0  0  0  0  0  0  0  0  0
  188.1280  177.0070  137.3620 N   0  0  0  0  0  0  0  0  0  0  0  0
  185.3220  178.8310  139.9550 C   0  0  0  0  0  3  0  0  0  0  0  0
  187.2210  177.6780  138.2370 C   0  0  0  0  0  0  0  0  0  0  0  0
  187.6420  178.0930  139.5520 N   0  0  0  0  0  0  0  0  0  0  0  0
  183.3530  177.2370  137.3220 N   0  0  0  0  0  2  0  0  0  0  0  0
  181.0110  176.1900  139.8060 C   0  0  0  0  0  3  0  0  0  0  0  0
  181.9370  176.8250  139.0930 C   0  0  0  0  0  0  0  0  0  0  0  0
  182.6150  178.0530  139.5120 C   0  0  0  0  0  2  0  0  0  0  0  0
  182.3920  176.4130  137.8640 O   0  0  0  0  0  0  0  0  0  0  0  0
  183.5500  178.3030  138.3190 C   0  0  1  0  0  3  0  0  0  0  0  0
  180.3920  174.9810  139.3320 C   0  0  0  0  0  0  0  0  0  0  0  0
  179.8750  173.9660  138.9320 C   0  0  0  0  0  3  0  0  0  0  0  0
  187.0700  176.2290  135.3020 C   0  0  0  0  0  2  0  0  0  0  0  0
  187.2220  174.8660  134.6320 C   0  0  0  0  0  2  0  0  0  0  0  0
  186.7760  173.6960  135.5200 C   0  0  2  0  0  3  0  0  0  0  0  0
  188.4460  171.9170  135.9770 C   0  0  0  0  0  2  0  0  0  0  0  0
  187.3500  172.3730  135.0300 C   0  0  0  0  0  3  0  0  0  0  0  0
  188.8090  172.5480  134.6510 C   0  0  0  0  0  2  0  0  0  0  0  0
  185.2840  173.6070  135.6450 C   0  0  0  0  0  3  0  0  0  0  0  0
  184.5240  173.3040  134.5940 C   0  0  0  0  0  2  0  0  0  0  0  0
  191.7650  176.0700  139.2320 C   0  0  0  0  0  2  0  0  0  0  0  0
  192.7790  175.9650  138.1050 C   0  0  0  0  0  2  0  0  0  0  0  0
  192.5350  174.7050  137.2930 C   0  0  0  0  0  2  0  0  0  0  0  0
  197.0010  171.4360  137.5400 C   0  0  0  0  0  1  0  0  0  0  0  0
  193.9340  172.8210  136.1430 S   0  0  0  0  0  0  0  0  0  0  0  0
  196.5550  172.8390  137.1710 C   0  0  1  0  0  0  0  0  0  0  0  0
  197.7280  173.9190  135.3280 C   0  0  1  0  0  3  0  0  0  0  0  0
  195.6240  175.0700  135.1640 O   0  0  0  0  0  1  0  0  0  0  0  0
  195.8580  173.4690  138.3880 C   0  0  0  0  0  2  0  0  0  0  0  0
  197.7850  173.6680  136.8230 C   0  0  0  0  0  2  0  0  0  0  0  0
  193.4440  171.4130  136.3200 O   0  0  0  0  0  0  0  0  0  0  0  0
  193.5650  173.7220  137.5910 N   0  0  0  0  0  0  0  0  0  0  0  0
  196.2580  173.8400  134.9410 C   0  0  2  0  0  3  0  0  0  0  0  0
  193.2610  173.4200  134.9380 O   0  0  0  0  0  0  0  0  0  0  0  0
  198.3790  175.2440  134.9710 C   0  0  0  0  0  1  0  0  0  0  0  0
  194.7560  174.4520  138.0080 C   0  0  0  0  0  2  0  0  0  0  0  0
  195.7140  172.7710  135.8840 C   0  0  2  0  0  3  0  0  0  0  0  0
  188.9780  177.0960  144.8550 C   0  0  0  0  0  2  0  0  0  0  0  0
  188.3090  177.7600  146.0580 C   0  0  2  0  0  3  0  0  0  0  0  0
  189.1450  177.1620  147.5670 P   0  0  0  0  0  0  0  0  0  0  0  0
  189.5610  178.4780  148.5450 O   0  0  0  0  0  1  0  0  0  0  0  0
  188.2170  176.2460  148.3320 O   0  0  0  0  0  1  0  0  0  0  0  0
  190.5470  176.3070  147.1620 O   0  0  0  0  0  0  0  0  0  0  0  0
  186.1890  177.3220  144.7280 C   0  0  0  0  0  1  0  0  0  0  0  0
  186.0510  178.5530  146.8480 C   0  0  0  0  0  1  0  0  0  0  0  0
  186.8010  177.4550  146.1140 C   0  0  0  0  0  3  0  0  0  0  0  0
  1  4  1  0  0  0  0
  1  3  2  0  0  0  0
  2  9  1  0  0  0  0
  3  6  1  0  0  0  0
  4 35  1  1  0  0  0
  4  2  1  0  0  0  0
  5 52  1  1  0  0  0
  6  9  2  0  0  0  0
  6  7  1  0  0  0  0
  7  5  1  0  0  0  0
  8  5  1  0  0  0  0
  9  8  1  0  0  0  0
 10 15  1  0  0  0  0
 12 27  1  6  0  0  0
 12 10  1  0  0  0  0
 12 15  1  0  0  0  0
 13 17  2  0  0  0  0
 13 14  1  0  0  0  0
 14 16  2  0  0  0  0
 15 17  1  0  0  0  0
 16 11  1  0  0  0  0
 17 18  1  0  0  0  0
 18  3  1  0  0  0  0
 18 11  1  0  0  0  0
 19 23  1  0  0  0  0
 19 24  1  0  0  0  0
 21 22  1  0  0  0  0
 21 20  2  0  0  0  0
 23 21  1  0  0  0  0
 24 14  1  1  0  0  0
 24 22  1  0  0  0  0
 25 20  1  0  0  0  0
 26 25  3  0  0  0  0
 28 27  1  0  0  0  0
 29 28  1  6  0  0  0
 29 33  1  0  0  0  0
 31 29  1  0  0  0  0
 31 30  1  0  0  0  0
 32 31  1  0  0  0  0
 32 30  1  0  0  0  0
 34 33  2  0  0  0  0
 36 35  1  0  0  0  0
 37 46  1  0  0  0  0
 37 36  1  0  0  0  0
 39 45  2  0  0  0  0
 39 46  1  0  0  0  0
 40 38  1  1  0  0  0
 40 43  1  0  0  0  0
 41 49  1  1  0  0  0
 41 44  1  0  0  0  0
 44 40  1  0  0  0  0
 46 50  1  0  0  0  0
 47 42  1  1  0  0  0
 47 41  1  0  0  0  0
 47 51  1  0  0  0  0
 48 39  2  0  0  0  0
 50 43  1  0  0  0  0
 51 39  1  1  0  0  0
 51 40  1  0  0  0  0
 53 52  1  6  0  0  0
 53 60  1  0  0  0  0
 53 54  1  0  0  0  0
 54 56  1  0  0  0  0
 54 55  1  0  0  0  0
 57 54  2  0  0  0  0
 58 60  1  0  0  0  0
 60 59  1  0  0  0  0
M  END
>  <MODEL>
3

>  <REMARK>
 VINA RESULT:      -6.9      3.673     10.909
  Name = 
  16 active torsions:
  status: ('A' for Active; 'I' for Inactive)
    1  A    between atoms: P_3  and  C_59
    2  A    between atoms: C_5  and  C_49
    3  A    between atoms: C_6  and  C_15
    4  A    between atoms: C_6  and  C_49
    5  A    between atoms: C_9  and  N_45
    6  A    between atoms: C_13  and  N_36
    7  A    between atoms: C_13  and  C_38
    8  A    between atoms: C_15  and  C_27
    9  A    between atoms: C_17  and  C_33
   10  A    between atoms: C_17  and  C_38
   11  A    between atoms: C_21  and  C_34
   12  A    between atoms: C_30  and  C_49
   13  A    between atoms: C_31  and  C_51
   14  A    between atoms: C_35  and  C_57
   15  A    between atoms: C_46  and  C_59
   16  A    between atoms: C_57  and  C_59
                            x       y       z     vdW  Elec       q    Type
                         _______ _______ _______ _____ _____    ______ ____

>  <TORSDO>
F 16

$$$$
=
 OpenBabel10222415213D

 60 67  0  0  1  0  0  0  0  0999 V2000
  188.5620  177.8630  136.5530 C   0  0  0  0  0  3  0  0  0  0  0  0
  187.9530  176.5130  134.6000 O   0  0  0  0  0  0  0  0  0  0  0  0
  188.8430  176.7480  137.2390 C   0  0  0  0  0  0  0  0  0  0  0  0
  187.8880  177.8190  135.1950 C   0  0  1  0  0  3  0  0  0  0  0  0
  188.5250  173.1380  136.0670 C   0  0  2  0  0  3  0  0  0  0  0  0
  188.5640  175.4390  136.6160 C   0  0  0  0  0  0  0  0  0  0  0  0
  188.7240  174.1030  137.2380 C   0  0  0  0  0  2  0  0  0  0  0  0
  188.0250  173.9770  134.8840 C   0  0  0  0  0  2  0  0  0  0  0  0
  188.1750  175.3640  135.3680 C   0  0  0  0  0  0  0  0  0  0  0  0
  192.5310  176.2630  136.7230 O   0  0  0  0  0  0  0  0  0  0  0  0
  188.5350  177.1900  139.6600 C   0  0  0  0  0  2  0  0  0  0  0  0
  192.8180  175.1970  137.4020 C   0  0  2  0  0  3  0  0  0  0  0  0
  191.2920  176.5490  139.9790 N   0  0  0  0  0  0  0  0  0  0  0  0
  190.5670  177.1100  141.0790 C   0  0  0  0  0  0  0  0  0  0  0  0
  191.6010  175.9490  137.7280 N   0  0  0  0  0  0  0  0  0  0  0  0
  189.2880  177.4770  140.9270 C   0  0  0  0  0  3  0  0  0  0  0  0
  190.7760  176.4130  138.7970 C   0  0  0  0  0  0  0  0  0  0  0  0
  189.4230  176.8420  138.5460 N   0  0  0  0  0  0  0  0  0  0  0  0
  190.8490  178.6860  142.9250 N   0  0  0  0  0  2  0  0  0  0  0  0
  190.2320  176.5060  145.6850 C   0  0  0  0  0  3  0  0  0  0  0  0
  190.5690  177.0410  144.5160 C   0  0  0  0  0  0  0  0  0  0  0  0
  191.1320  176.2960  143.3880 C   0  0  0  0  0  2  0  0  0  0  0  0
  190.4290  178.3710  144.1980 O   0  0  0  0  0  0  0  0  0  0  0  0
  191.3070  177.4110  142.3460 C   0  0  1  0  0  3  0  0  0  0  0  0
  189.6760  177.3020  146.7470 C   0  0  0  0  0  0  0  0  0  0  0  0
  189.2090  177.9690  147.6380 C   0  0  0  0  0  3  0  0  0  0  0  0
  193.9030  175.5070  138.4180 C   0  0  0  0  0  2  0  0  0  0  0  0
  195.0640  174.5300  138.2540 C   0  0  0  0  0  2  0  0  0  0  0  0
  195.4130  174.2360  136.7880 C   0  0  2  0  0  3  0  0  0  0  0  0
  194.9760  172.1180  135.5690 C   0  0  0  0  0  2  0  0  0  0  0  0
  195.8630  172.7930  136.6010 C   0  0  0  0  0  3  0  0  0  0  0  0
  194.7640  171.8440  137.0410 C   0  0  0  0  0  2  0  0  0  0  0  0
  196.4400  175.1820  136.2420 C   0  0  0  0  0  3  0  0  0  0  0  0
  197.7190  174.8240  136.1440 C   0  0  0  0  0  2  0  0  0  0  0  0
  186.4300  178.2350  135.3380 C   0  0  0  0  0  2  0  0  0  0  0  0
  185.8820  177.8080  136.6900 C   0  0  0  0  0  2  0  0  0  0  0  0
  184.5150  177.1680  136.5240 C   0  0  0  0  0  2  0  0  0  0  0  0
  180.5730  177.7820  140.3680 C   0  0  0  0  0  1  0  0  0  0  0  0
  182.0600  177.8970  137.0430 S   0  0  0  0  0  0  0  0  0  0  0  0
  181.2350  176.7470  139.4780 C   0  0  1  0  0  0  0  0  0  0  0  0
  179.8200  174.9470  138.6400 C   0  0  1  0  0  3  0  0  0  0  0  0
  181.4650  174.9830  136.8880 O   0  0  0  0  0  1  0  0  0  0  0  0
  182.7460  176.7510  139.7600 C   0  0  0  0  0  2  0  0  0  0  0  0
  180.6710  175.3740  139.8210 C   0  0  0  0  0  2  0  0  0  0  0  0
  181.8100  179.3700  137.1920 O   0  0  0  0  0  0  0  0  0  0  0  0
  183.6610  177.5440  137.6410 N   0  0  0  0  0  0  0  0  0  0  0  0
  180.3780  175.6820  137.4290 C   0  0  2  0  0  3  0  0  0  0  0  0
  181.9220  177.5260  135.5920 O   0  0  0  0  0  0  0  0  0  0  0  0
  179.8170  173.4370  138.4850 C   0  0  0  0  0  1  0  0  0  0  0  0
  183.5870  176.3970  138.5370 C   0  0  0  0  0  2  0  0  0  0  0  0
  180.8300  177.0150  138.0170 C   0  0  2  0  0  3  0  0  0  0  0  0
  187.5140  172.0660  136.4380 C   0  0  0  0  0  2  0  0  0  0  0  0
  186.3550  172.0330  135.4430 C   0  0  2  0  0  3  0  0  0  0  0  0
  184.8440  172.5580  136.3240 P   0  0  0  0  0  0  0  0  0  0  0  0
  183.7290  173.1830  135.2160 O   0  0  0  0  0  0  0  0  0  0  0  0
  184.2320  171.3720  137.0330 O   0  0  0  0  0  1  0  0  0  0  0  0
  185.2150  173.7480  137.4670 O   0  0  0  0  0  1  0  0  0  0  0  0
  184.8180  170.0270  135.1790 C   0  0  0  0  0  1  0  0  0  0  0  0
  187.2440  169.6790  135.3120 C   0  0  0  0  0  1  0  0  0  0  0  0
  186.1670  170.6340  134.8280 C   0  0  0  0  0  3  0  0  0  0  0  0
  1  3  2  0  0  0  0
  2  4  1  0  0  0  0
  2  9  1  0  0  0  0
  3 18  1  0  0  0  0
  4 35  1  1  0  0  0
  4  1  1  0  0  0  0
  5 52  1  1  0  0  0
  5  7  1  0  0  0  0
  6  7  1  0  0  0  0
  6  3  1  0  0  0  0
  8  9  1  0  0  0  0
  8  5  1  0  0  0  0
  9  6  2  0  0  0  0
 10 12  1  0  0  0  0
 10 15  1  0  0  0  0
 11 16  1  0  0  0  0
 12 15  1  0  0  0  0
 12 27  1  1  0  0  0
 13 14  1  0  0  0  0
 15 17  1  0  0  0  0
 16 14  2  0  0  0  0
 17 13  2  0  0  0  0
 18 17  1  0  0  0  0
 18 11  1  0  0  0  0
 19 23  1  0  0  0  0
 20 25  1  0  0  0  0
 21 20  2  0  0  0  0
 22 21  1  0  0  0  0
 23 21  1  0  0  0  0
 24 14  1  6  0  0  0
 24 19  1  0  0  0  0
 24 22  1  0  0  0  0
 25 26  3  0  0  0  0
 28 27  1  0  0  0  0
 29 33  1  1  0  0  0
 29 28  1  0  0  0  0
 30 31  1  0  0  0  0
 30 32  1  0  0  0  0
 31 29  1  0  0  0  0
 31 32  1  0  0  0  0
 34 33  2  0  0  0  0
 35 36  1  0  0  0  0
 37 36  1  0  0  0  0
 37 46  1  0  0  0  0
 39 45  2  0  0  0  0
 39 46  1  0  0  0  0
 40 43  1  0  0  0  0
 40 44  1  0  0  0  0
 40 38  1  1  0  0  0
 41 49  1  6  0  0  0
 41 44  1  0  0  0  0
 46 50  1  0  0  0  0
 47 42  1  1  0  0  0
 47 51  1  0  0  0  0
 47 41  1  0  0  0  0
 48 39  2  0  0  0  0
 50 43  1  0  0  0  0
 51 39  1  6  0  0  0
 51 40  1  0  0  0  0
 53 54  1  0  0  0  0
 53 52  1  1  0  0  0
 54 56  1  0  0  0  0
 54 57  1  0  0  0  0
 55 54  2  0  0  0  0
 60 58  1  0  0  0  0
 60 59  1  0  0  0  0
 60 53  1  0  0  0  0
M  END
>  <MODEL>
4

>  <REMARK>
 VINA RESULT:      -6.7      2.849      6.800
  Name = 
  16 active torsions:
  status: ('A' for Active; 'I' for Inactive)
    1  A    between atoms: P_3  and  C_59
    2  A    between atoms: C_5  and  C_49
    3  A    between atoms: C_6  and  C_15
    4  A    between atoms: C_6  and  C_49
    5  A    between atoms: C_9  and  N_45
    6  A    between atoms: C_13  and  N_36
    7  A    between atoms: C_13  and  C_38
    8  A    between atoms: C_15  and  C_27
    9  A    between atoms: C_17  and  C_33
   10  A    between atoms: C_17  and  C_38
   11  A    between atoms: C_21  and  C_34
   12  A    between atoms: C_30  and  C_49
   13  A    between atoms: C_31  and  C_51
   14  A    between atoms: C_35  and  C_57
   15  A    between atoms: C_46  and  C_59
   16  A    between atoms: C_57  and  C_59
                            x       y       z     vdW  Elec       q    Type
                         _______ _______ _______ _____ _____    ______ ____

>  <TORSDO>
F 16

$$$$
=
 OpenBabel10222415213D

 60 67  0  0  1  0  0  0  0  0999 V2000
  189.8610  177.3310  138.5990 C   0  0  0  0  0  3  0  0  0  0  0  0
  191.6880  177.0930  140.2160 O   0  0  0  0  0  0  0  0  0  0  0  0
  189.0060  177.5840  139.5990 C   0  0  0  0  0  0  0  0  0  0  0  0
  191.2800  176.8610  138.8590 C   0  0  1  0  0  3  0  0  0  0  0  0
  189.7360  177.6660  143.3360 C   0  0  2  0  0  3  0  0  0  0  0  0
  189.4870  177.4790  140.9910 C   0  0  0  0  0  0  0  0  0  0  0  0
  188.6830  177.6350  142.2260 C   0  0  0  0  0  2  0  0  0  0  0  0
  191.0730  177.2870  142.6860 C   0  0  0  0  0  2  0  0  0  0  0  0
  190.7560  177.2770  141.2440 C   0  0  0  0  0  0  0  0  0  0  0  0
  188.1650  175.8380  136.3830 O   0  0  0  0  0  0  0  0  0  0  0  0
  186.9480  178.7800  140.2960 C   0  0  0  0  0  2  0  0  0  0  0  0
  187.9120  176.7960  135.5480 C   0  0  2  0  0  3  0  0  0  0  0  0
  185.8460  178.0550  137.7720 N   0  0  0  0  0  0  0  0  0  0  0  0
  185.0010  178.6380  138.7690 C   0  0  0  0  0  0  0  0  0  0  0  0
  187.8260  177.0590  136.9880 N   0  0  0  0  0  0  0  0  0  0  0  0
  185.4870  178.9260  139.9820 C   0  0  0  0  0  3  0  0  0  0  0  0
  187.0840  177.7390  138.0000 C   0  0  0  0  0  0  0  0  0  0  0  0
  187.6560  177.9650  139.3040 N   0  0  0  0  0  0  0  0  0  0  0  0
  183.0110  177.5530  137.8540 N   0  0  0  0  0  2  0  0  0  0  0  0
  180.8340  177.7980  140.6760 C   0  0  0  0  0  3  0  0  0  0  0  0
  181.7720  177.9820  139.7510 C   0  0  0  0  0  0  0  0  0  0  0  0
  182.7280  179.0910  139.7410 C   0  0  0  0  0  2  0  0  0  0  0  0
  181.9800  177.1520  138.6750 O   0  0  0  0  0  0  0  0  0  0  0  0
  183.5380  178.7810  138.4740 C   0  0  1  0  0  3  0  0  0  0  0  0
  179.9330  176.6780  140.6220 C   0  0  0  0  0  0  0  0  0  0  0  0
  179.1790  175.7360  140.5760 C   0  0  0  0  0  3  0  0  0  0  0  0
  186.5180  176.6250  134.9700 C   0  0  0  0  0  2  0  0  0  0  0  0
  186.1090  175.1560  135.0250 C   0  0  0  0  0  2  0  0  0  0  0  0
  184.8410  174.9050  135.8510 C   0  0  2  0  0  3  0  0  0  0  0  0
  185.9490  172.6990  136.1180 C   0  0  0  0  0  2  0  0  0  0  0  0
  184.9990  173.6950  136.7630 C   0  0  0  0  0  3  0  0  0  0  0  0
  184.4560  172.4540  136.0780 C   0  0  0  0  0  2  0  0  0  0  0  0
  183.6180  174.7620  134.9960 C   0  0  0  0  0  3  0  0  0  0  0  0
  182.6600  175.6880  135.0070 C   0  0  0  0  0  2  0  0  0  0  0  0
  191.3860  175.3740  138.5480 C   0  0  0  0  0  2  0  0  0  0  0  0
  192.6310  175.0870  137.7250 C   0  0  0  0  0  2  0  0  0  0  0  0
  193.8270  175.8180  138.3080 C   0  0  0  0  0  2  0  0  0  0  0  0
  198.0500  174.1200  135.1490 C   0  0  0  0  0  1  0  0  0  0  0  0
  196.1930  174.7120  138.2280 S   0  0  0  0  0  0  0  0  0  0  0  0
  196.6740  173.7110  135.6410 C   0  0  1  0  0  0  0  0  0  0  0  0
  196.3060  171.3330  136.0290 C   0  0  1  0  0  3  0  0  0  0  0  0
  194.6940  172.2230  137.5740 O   0  0  0  0  0  1  0  0  0  0  0  0
  195.6660  174.8040  135.2490 C   0  0  0  0  0  2  0  0  0  0  0  0
  196.2790  172.4070  134.9590 C   0  0  0  0  0  2  0  0  0  0  0  0
  197.3640  175.6000  138.5380 O   0  0  0  0  0  0  0  0  0  0  0  0
  194.9730  175.6650  137.4240 N   0  0  0  0  0  0  0  0  0  0  0  0
  196.0660  172.0470  137.3520 C   0  0  2  0  0  3  0  0  0  0  0  0
  195.6750  174.1290  139.5140 O   0  0  0  0  0  0  0  0  0  0  0  0
  195.2900  170.2430  135.7360 C   0  0  0  0  0  1  0  0  0  0  0  0
  194.5170  174.9470  136.2410 C   0  0  0  0  0  2  0  0  0  0  0  0
  196.7580  173.3910  137.1440 C   0  0  2  0  0  3  0  0  0  0  0  0
  189.3690  176.6840  144.4350 C   0  0  0  0  0  2  0  0  0  0  0  0
  188.7570  177.4040  145.6360 C   0  0  2  0  0  3  0  0  0  0  0  0
  189.8910  177.1970  147.0520 P   0  0  0  0  0  0  0  0  0  0  0  0
  189.9280  178.6220  147.9620 O   0  0  0  0  0  1  0  0  0  0  0  0
  189.4120  176.0600  147.9250 O   0  0  0  0  0  1  0  0  0  0  0  0
  191.4540  176.8470  146.5070 O   0  0  0  0  0  0  0  0  0  0  0  0
  186.4520  176.7970  144.7560 C   0  0  0  0  0  1  0  0  0  0  0  0
  186.6730  177.7340  147.0140 C   0  0  0  0  0  1  0  0  0  0  0  0
  187.3570  176.8610  145.9770 C   0  0  0  0  0  3  0  0  0  0  0  0
  1  4  1  0  0  0  0
  1  3  2  0  0  0  0
  2  9  1  0  0  0  0
  3  6  1  0  0  0  0
  4 35  1  1  0  0  0
  4  2  1  0  0  0  0
  5 52  1  1  0  0  0
  6  9  2  0  0  0  0
  6  7  1  0  0  0  0
  7  5  1  0  0  0  0
  8  5  1  0  0  0  0
  9  8  1  0  0  0  0
 10 15  1  0  0  0  0
 12 27  1  6  0  0  0
 12 10  1  0  0  0  0
 12 15  1  0  0  0  0
 13 17  2  0  0  0  0
 13 14  1  0  0  0  0
 14 16  2  0  0  0  0
 15 17  1  0  0  0  0
 16 11  1  0  0  0  0
 17 18  1  0  0  0  0
 18  3  1  0  0  0  0
 18 11  1  0  0  0  0
 19 24  1  0  0  0  0
 19 23  1  0  0  0  0
 21 20  2  0  0  0  0
 22 21  1  0  0  0  0
 23 21  1  0  0  0  0
 24 14  1  1  0  0  0
 24 22  1  0  0  0  0
 25 20  1  0  0  0  0
 26 25  3  0  0  0  0
 27 28  1  0  0  0  0
 28 29  1  0  0  0  0
 29 33  1  6  0  0  0
 29 31  1  0  0  0  0
 30 31  1  0  0  0  0
 32 30  1  0  0  0  0
 32 31  1  0  0  0  0
 33 34  2  0  0  0  0
 36 37  1  0  0  0  0
 36 35  1  0  0  0  0
 39 45  2  0  0  0  0
 39 48  2  0  0  0  0
 40 38  1  6  0  0  0
 40 51  1  0  0  0  0
 41 49  1  6  0  0  0
 41 47  1  0  0  0  0
 43 40  1  0  0  0  0
 43 50  1  0  0  0  0
 44 40  1  0  0  0  0
 44 41  1  0  0  0  0
 46 39  1  0  0  0  0
 46 37  1  0  0  0  0
 47 42  1  6  0  0  0
 50 46  1  0  0  0  0
 51 47  1  0  0  0  0
 51 39  1  1  0  0  0
 53 52  1  6  0  0  0
 53 60  1  0  0  0  0
 53 54  1  0  0  0  0
 54 56  1  0  0  0  0
 54 55  1  0  0  0  0
 57 54  2  0  0  0  0
 58 60  1  0  0  0  0
 60 59  1  0  0  0  0
M  END
>  <MODEL>
5

>  <REMARK>
 VINA RESULT:      -5.5      3.765     10.677
  Name = 
  16 active torsions:
  status: ('A' for Active; 'I' for Inactive)
    1  A    between atoms: P_3  and  C_59
    2  A    between atoms: C_5  and  C_49
    3  A    between atoms: C_6  and  C_15
    4  A    between atoms: C_6  and  C_49
    5  A    between atoms: C_9  and  N_45
    6  A    between atoms: C_13  and  N_36
    7  A    between atoms: C_13  and  C_38
    8  A    between atoms: C_15  and  C_27
    9  A    between atoms: C_17  and  C_33
   10  A    between atoms: C_17  and  C_38
   11  A    between atoms: C_21  and  C_34
   12  A    between atoms: C_30  and  C_49
   13  A    between atoms: C_31  and  C_51
   14  A    between atoms: C_35  and  C_57
   15  A    between atoms: C_46  and  C_59
   16  A    between atoms: C_57  and  C_59
                            x       y       z     vdW  Elec       q    Type
                         _______ _______ _______ _____ _____    ______ ____

>  <TORSDO>
F 16

$$$$
=
 OpenBabel10222415213D

 60 67  0  0  1  0  0  0  0  0999 V2000
  187.4270  178.2580  137.1850 C   0  0  0  0  0  3  0  0  0  0  0  0
  186.4920  177.1140  135.2290 O   0  0  0  0  0  0  0  0  0  0  0  0
  187.9460  177.1000  137.6160 C   0  0  0  0  0  0  0  0  0  0  0  0
  186.4630  178.3160  136.0150 C   0  0  1  0  0  3  0  0  0  0  0  0
  187.6500  173.6620  136.0070 C   0  0  2  0  0  3  0  0  0  0  0  0
  187.6330  175.8610  136.8770 C   0  0  0  0  0  0  0  0  0  0  0  0
  188.0370  174.4810  137.2390 C   0  0  0  0  0  2  0  0  0  0  0  0
  186.8270  174.5870  135.1020 C   0  0  0  0  0  2  0  0  0  0  0  0
  186.9740  175.9070  135.7460 C   0  0  0  0  0  0  0  0  0  0  0  0
  191.3710  176.3220  136.2890 O   0  0  0  0  0  0  0  0  0  0  0  0
  188.2140  177.4620  140.0550 C   0  0  0  0  0  2  0  0  0  0  0  0
  191.6970  175.2070  136.8630 C   0  0  2  0  0  3  0  0  0  0  0  0
  190.9020  176.5720  139.7440 N   0  0  0  0  0  0  0  0  0  0  0  0
  190.4890  177.1450  140.9890 C   0  0  0  0  0  0  0  0  0  0  0  0
  190.6570  176.0460  137.4650 N   0  0  0  0  0  0  0  0  0  0  0  0
  189.2480  177.6270  141.1320 C   0  0  0  0  0  3  0  0  0  0  0  0
  190.1310  176.5320  138.7010 C   0  0  0  0  0  0  0  0  0  0  0  0
  188.8020  177.0870  138.7650 N   0  0  0  0  0  0  0  0  0  0  0  0
  191.1860  178.4950  142.9030 N   0  0  0  0  0  2  0  0  0  0  0  0
  191.3070  175.9640  145.4200 C   0  0  0  0  0  3  0  0  0  0  0  0
  191.3360  176.6560  144.2840 C   0  0  0  0  0  0  0  0  0  0  0  0
  191.6190  176.0840  142.9660 C   0  0  0  0  0  2  0  0  0  0  0  0
  191.0970  178.0050  144.1870 O   0  0  0  0  0  0  0  0  0  0  0  0
  191.5120  177.3250  142.0690 C   0  0  1  0  0  3  0  0  0  0  0  0
  191.0140  176.5960  146.6790 C   0  0  0  0  0  0  0  0  0  0  0  0
  190.7670  177.1280  147.7340 C   0  0  0  0  0  3  0  0  0  0  0  0
  193.0020  175.3780  137.6210 C   0  0  0  0  0  2  0  0  0  0  0  0
  193.7740  174.0620  137.6300 C   0  0  0  0  0  2  0  0  0  0  0  0
  194.9670  174.0460  136.6640 C   0  0  2  0  0  3  0  0  0  0  0  0
  194.0970  172.8390  134.6760 C   0  0  0  0  0  2  0  0  0  0  0  0
  195.0270  172.7450  135.8730 C   0  0  0  0  0  3  0  0  0  0  0  0
  193.6750  172.0570  135.9000 C   0  0  0  0  0  2  0  0  0  0  0  0
  196.2710  174.2990  137.3580 C   0  0  0  0  0  3  0  0  0  0  0  0
  196.3610  174.2580  138.6870 C   0  0  0  0  0  2  0  0  0  0  0  0
  185.0500  178.5460  136.5320 C   0  0  0  0  0  2  0  0  0  0  0  0
  184.2710  177.2420  136.5570 C   0  0  0  0  0  2  0  0  0  0  0  0
  183.0680  177.3660  137.4750 C   0  0  0  0  0  2  0  0  0  0  0  0
  183.6280  179.2810  142.6430 C   0  0  0  0  0  1  0  0  0  0  0  0
  183.0180  179.4470  139.0550 S   0  0  0  0  0  0  0  0  0  0  0  0
  182.6430  178.5980  141.7130 C   0  0  1  0  0  0  0  0  0  0  0  0
  180.2860  179.1500  142.0070 C   0  0  1  0  0  3  0  0  0  0  0  0
  180.2480  178.5500  139.6790 O   0  0  0  0  0  1  0  0  0  0  0  0
  183.2840  177.3070  141.1790 C   0  0  0  0  0  2  0  0  0  0  0  0
  181.3910  178.2370  142.5050 C   0  0  0  0  0  2  0  0  0  0  0  0
  184.2510  180.3050  139.0790 O   0  0  0  0  0  0  0  0  0  0  0  0
  183.5020  177.7900  138.7970 N   0  0  0  0  0  0  0  0  0  0  0  0
  180.6650  179.5360  140.5840 C   0  0  2  0  0  3  0  0  0  0  0  0
  182.1130  179.9310  137.9550 O   0  0  0  0  0  0  0  0  0  0  0  0
  178.9310  178.4740  142.1110 C   0  0  0  0  0  1  0  0  0  0  0  0
  182.8240  176.9440  139.7710 C   0  0  0  0  0  2  0  0  0  0  0  0
  182.1880  179.6070  140.6430 C   0  0  2  0  0  3  0  0  0  0  0  0
  186.8390  172.4450  136.4200 C   0  0  0  0  0  2  0  0  0  0  0  0
  185.6890  172.1910  135.4470 C   0  0  2  0  0  3  0  0  0  0  0  0
  184.1240  172.3330  136.3770 P   0  0  0  0  0  0  0  0  0  0  0  0
  183.8520  170.9100  137.2500 O   0  0  0  0  0  1  0  0  0  0  0  0
  184.2080  173.4980  137.3360 O   0  0  0  0  0  1  0  0  0  0  0  0
  182.8320  172.5890  135.3170 O   0  0  0  0  0  0  0  0  0  0  0  0
  184.5360  169.9820  134.9530 C   0  0  0  0  0  1  0  0  0  0  0  0
  186.9570  170.0160  135.3570 C   0  0  0  0  0  1  0  0  0  0  0  0
  185.8000  170.8090  134.7770 C   0  0  0  0  0  3  0  0  0  0  0  0
  1  3  2  0  0  0  0
  2  9  1  0  0  0  0
  2  4  1  0  0  0  0
  3 18  1  0  0  0  0
  4 35  1  1  0  0  0
  4  1  1  0  0  0  0
  5 52  1  1  0  0  0
  5  7  1  0  0  0  0
  6  7  1  0  0  0  0
  6  3  1  0  0  0  0
  8  9  1  0  0  0  0
  8  5  1  0  0  0  0
  9  6  2  0  0  0  0
 10 12  1  0  0  0  0
 10 15  1  0  0  0  0
 11 16  1  0  0  0  0
 12 15  1  0  0  0  0
 12 27  1  1  0  0  0
 13 14  1  0  0  0  0
 14 16  2  0  0  0  0
 15 17  1  0  0  0  0
 17 18  1  0  0  0  0
 17 13  2  0  0  0  0
 18 11  1  0  0  0  0
 19 23  1  0  0  0  0
 20 25  1  0  0  0  0
 21 20  2  0  0  0  0
 22 21  1  0  0  0  0
 23 21  1  0  0  0  0
 24 14  1  6  0  0  0
 24 19  1  0  0  0  0
 24 22  1  0  0  0  0
 25 26  3  0  0  0  0
 27 28  1  0  0  0  0
 29 33  1  1  0  0  0
 29 28  1  0  0  0  0
 30 31  1  0  0  0  0
 30 32  1  0  0  0  0
 31 32  1  0  0  0  0
 31 29  1  0  0  0  0
 33 34  2  0  0  0  0
 35 36  1  0  0  0  0
 36 37  1  0  0  0  0
 37 46  1  0  0  0  0
 39 45  2  0  0  0  0
 40 44  1  0  0  0  0
 40 38  1  1  0  0  0
 41 49  1  6  0  0  0
 41 44  1  0  0  0  0
 43 40  1  0  0  0  0
 46 39  1  0  0  0  0
 46 50  1  0  0  0  0
 47 42  1  6  0  0  0
 47 51  1  0  0  0  0
 47 41  1  0  0  0  0
 48 39  2  0  0  0  0
 50 43  1  0  0  0  0
 51 39  1  6  0  0  0
 51 40  1  0  0  0  0
 53 54  1  0  0  0  0
 53 52  1  1  0  0  0
 54 55  1  0  0  0  0
 54 56  1  0  0  0  0
 57 54  2  0  0  0  0
 60 58  1  0  0  0  0
 60 59  1  0  0  0  0
 60 53  1  0  0  0  0
M  END
>  <MODEL>
6

>  <REMARK>
 VINA RESULT:      -5.2      2.965      7.041
  Name = 
  16 active torsions:
  status: ('A' for Active; 'I' for Inactive)
    1  A    between atoms: P_3  and  C_59
    2  A    between atoms: C_5  and  C_49
    3  A    between atoms: C_6  and  C_15
    4  A    between atoms: C_6  and  C_49
    5  A    between atoms: C_9  and  N_45
    6  A    between atoms: C_13  and  N_36
    7  A    between atoms: C_13  and  C_38
    8  A    between atoms: C_15  and  C_27
    9  A    between atoms: C_17  and  C_33
   10  A    between atoms: C_17  and  C_38
   11  A    between atoms: C_21  and  C_34
   12  A    between atoms: C_30  and  C_49
   13  A    between atoms: C_31  and  C_51
   14  A    between atoms: C_35  and  C_57
   15  A    between atoms: C_46  and  C_59
   16  A    between atoms: C_57  and  C_59
                            x       y       z     vdW  Elec       q    Type
                         _______ _______ _______ _____ _____    ______ ____

>  <TORSDO>
F 16

$$$$
=
 OpenBabel10222415213D

 60 67  0  0  1  0  0  0  0  0999 V2000
  186.4610  177.8450  139.9240 C   0  0  0  0  0  3  0  0  0  0  0  0
  185.1260  177.8520  141.9800 O   0  0  0  0  0  0  0  0  0  0  0  0
  187.5600  177.5660  140.6370 C   0  0  0  0  0  0  0  0  0  0  0  0
  185.1480  178.2110  140.5890 C   0  0  1  0  0  3  0  0  0  0  0  0
  187.8590  177.1540  144.4110 C   0  0  2  0  0  3  0  0  0  0  0  0
  187.4650  177.5350  142.1090 C   0  0  0  0  0  0  0  0  0  0  0  0
  188.5760  177.3310  143.0710 C   0  0  0  0  0  2  0  0  0  0  0  0
  186.3850  177.5040  144.1730 C   0  0  0  0  0  2  0  0  0  0  0  0
  186.3040  177.6430  142.7050 C   0  0  0  0  0  0  0  0  0  0  0  0
  186.6140  176.9260  137.0590 O   0  0  0  0  0  0  0  0  0  0  0  0
  190.0340  177.4200  140.7350 C   0  0  0  0  0  2  0  0  0  0  0  0
  186.9890  175.7060  136.8360 C   0  0  2  0  0  3  0  0  0  0  0  0
  189.9410  176.4980  138.0410 N   0  0  0  0  0  0  0  0  0  0  0  0
  191.2040  176.8270  138.6310 C   0  0  0  0  0  0  0  0  0  0  0  0
  187.5930  176.4500  137.9460 N   0  0  0  0  0  0  0  0  0  0  0  0
  191.2600  177.3220  139.8730 C   0  0  0  0  0  3  0  0  0  0  0  0
  188.8120  176.7000  138.6460 C   0  0  0  0  0  0  0  0  0  0  0  0
  188.7950  177.2870  139.9630 N   0  0  0  0  0  0  0  0  0  0  0  0
  193.6440  176.6930  138.6200 N   0  0  0  0  0  2  0  0  0  0  0  0
  194.0800  173.6890  136.7370 C   0  0  0  0  0  3  0  0  0  0  0  0
  193.6450  174.8330  137.2570 C   0  0  0  0  0  0  0  0  0  0  0  0
  192.4110  175.5150  136.8600 C   0  0  0  0  0  2  0  0  0  0  0  0
  194.2900  175.5350  138.2470 O   0  0  0  0  0  0  0  0  0  0  0  0
  192.4350  176.7440  137.7800 C   0  0  1  0  0  3  0  0  0  0  0  0
  195.3010  173.0740  137.1850 C   0  0  0  0  0  0  0  0  0  0  0  0
  196.3250  172.5560  137.5590 C   0  0  0  0  0  3  0  0  0  0  0  0
  187.9470  175.6660  135.6590 C   0  0  0  0  0  2  0  0  0  0  0  0
  187.4910  174.6140  134.6520 C   0  0  0  0  0  2  0  0  0  0  0  0
  188.0750  173.2200  134.9160 C   0  0  2  0  0  3  0  0  0  0  0  0
  186.4930  171.3130  135.0750 C   0  0  0  0  0  2  0  0  0  0  0  0
  187.1900  172.4130  135.8570 C   0  0  0  0  0  3  0  0  0  0  0  0
  185.7330  172.5640  135.4580 C   0  0  0  0  0  2  0  0  0  0  0  0
  189.4800  173.2770  135.4370 C   0  0  0  0  0  3  0  0  0  0  0  0
  190.5040  173.5320  134.6230 C   0  0  0  0  0  2  0  0  0  0  0  0
  184.9100  179.7080  140.4520 C   0  0  0  0  0  2  0  0  0  0  0  0
  183.5600  179.9790  139.8080 C   0  0  0  0  0  2  0  0  0  0  0  0
  183.4270  179.1940  138.5160 C   0  0  0  0  0  2  0  0  0  0  0  0
  178.9310  176.0670  137.6760 C   0  0  0  0  0  1  0  0  0  0  0  0
  181.7400  178.2070  136.7800 S   0  0  0  0  0  0  0  0  0  0  0  0
  180.4290  175.9840  137.9050 C   0  0  1  0  0  0  0  0  0  0  0  0
  181.6180  174.1760  136.7820 C   0  0  1  0  0  3  0  0  0  0  0  0
  183.4200  175.7550  136.9700 O   0  0  0  0  0  1  0  0  0  0  0  0
  180.7650  176.7050  139.2200 C   0  0  0  0  0  2  0  0  0  0  0  0
  180.8250  174.5180  138.0290 C   0  0  0  0  0  2  0  0  0  0  0  0
  180.6460  179.1210  136.3080 O   0  0  0  0  0  0  0  0  0  0  0  0
  182.1040  178.5920  138.4430 N   0  0  0  0  0  0  0  0  0  0  0  0
  182.2230  175.4850  136.2930 C   0  0  2  0  0  3  0  0  0  0  0  0
  182.9440  178.3970  135.8970 O   0  0  0  0  0  0  0  0  0  0  0  0
  182.6500  173.1000  137.0680 C   0  0  0  0  0  1  0  0  0  0  0  0
  182.1450  177.3560  139.2140 C   0  0  0  0  0  2  0  0  0  0  0  0
  181.1530  176.5110  136.6530 C   0  0  2  0  0  3  0  0  0  0  0  0
  188.4720  178.0680  145.4580 C   0  0  0  0  0  2  0  0  0  0  0  0
  189.0960  177.2620  146.5970 C   0  0  2  0  0  3  0  0  0  0  0  0
  188.3580  177.8400  148.1630 P   0  0  0  0  0  0  0  0  0  0  0  0
  189.5540  178.5500  149.1260 O   0  0  0  0  0  1  0  0  0  0  0  0
  187.2820  178.8610  147.8710 O   0  0  0  0  0  0  0  0  0  0  0  0
  187.6690  176.5430  149.0020 O   0  0  0  0  0  1  0  0  0  0  0  0
  191.2010  177.7680  145.2670 C   0  0  0  0  0  1  0  0  0  0  0  0
  191.2890  176.1200  147.0840 C   0  0  0  0  0  1  0  0  0  0  0  0
  190.6290  177.4100  146.6300 C   0  0  0  0  0  3  0  0  0  0  0  0
  1  4  1  0  0  0  0
  1  3  2  0  0  0  0
  2  9  1  0  0  0  0
  3  6  1  0  0  0  0
  4 35  1  1  0  0  0
  4  2  1  0  0  0  0
  5 52  1  1  0  0  0
  6  9  2  0  0  0  0
  6  7  1  0  0  0  0
  7  5  1  0  0  0  0
  8  5  1  0  0  0  0
  9  8  1  0  0  0  0
 10 15  1  0  0  0  0
 12 27  1  6  0  0  0
 12 10  1  0  0  0  0
 12 15  1  0  0  0  0
 13 14  1  0  0  0  0
 13 17  2  0  0  0  0
 14 16  2  0  0  0  0
 15 17  1  0  0  0  0
 16 11  1  0  0  0  0
 17 18  1  0  0  0  0
 18  3  1  0  0  0  0
 18 11  1  0  0  0  0
 20 25  1  0  0  0  0
 20 21  2  0  0  0  0
 21 23  1  0  0  0  0
 22 21  1  0  0  0  0
 22 24  1  0  0  0  0
 23 19  1  0  0  0  0
 24 19  1  0  0  0  0
 24 14  1  1  0  0  0
 25 26  3  0  0  0  0
 28 27  1  0  0  0  0
 29 28  1  1  0  0  0
 29 33  1  0  0  0  0
 29 31  1  0  0  0  0
 30 32  1  0  0  0  0
 30 31  1  0  0  0  0
 32 31  1  0  0  0  0
 34 33  2  0  0  0  0
 36 35  1  0  0  0  0
 37 36  1  0  0  0  0
 39 46  1  0  0  0  0
 40 38  1  6  0  0  0
 40 44  1  0  0  0  0
 40 43  1  0  0  0  0
 41 49  1  1  0  0  0
 41 44  1  0  0  0  0
 45 39  2  0  0  0  0
 46 37  1  0  0  0  0
 46 50  1  0  0  0  0
 47 51  1  0  0  0  0
 47 41  1  0  0  0  0
 47 42  1  1  0  0  0
 48 39  2  0  0  0  0
 50 43  1  0  0  0  0
 51 39  1  1  0  0  0
 51 40  1  0  0  0  0
 53 52  1  6  0  0  0
 53 60  1  0  0  0  0
 53 54  1  0  0  0  0
 54 57  1  0  0  0  0
 54 55  1  0  0  0  0
 56 54  2  0  0  0  0
 58 60  1  0  0  0  0
 60 59  1  0  0  0  0
M  END
>  <MODEL>
7

>  <REMARK>
 VINA RESULT:      -5.2      3.028      8.195
  Name = 
  16 active torsions:
  status: ('A' for Active; 'I' for Inactive)
    1  A    between atoms: P_3  and  C_59
    2  A    between atoms: C_5  and  C_49
    3  A    between atoms: C_6  and  C_15
    4  A    between atoms: C_6  and  C_49
    5  A    between atoms: C_9  and  N_45
    6  A    between atoms: C_13  and  N_36
    7  A    between atoms: C_13  and  C_38
    8  A    between atoms: C_15  and  C_27
    9  A    between atoms: C_17  and  C_33
   10  A    between atoms: C_17  and  C_38
   11  A    between atoms: C_21  and  C_34
   12  A    between atoms: C_30  and  C_49
   13  A    between atoms: C_31  and  C_51
   14  A    between atoms: C_35  and  C_57
   15  A    between atoms: C_46  and  C_59
   16  A    between atoms: C_57  and  C_59
                            x       y       z     vdW  Elec       q    Type
                         _______ _______ _______ _____ _____    ______ ____

>  <TORSDO>
F 16

$$$$
=
 OpenBabel10222415213D

 60 67  0  0  1  0  0  0  0  0999 V2000
  186.5940  177.6040  141.4380 C   0  0  0  0  0  3  0  0  0  0  0  0
  185.6960  177.6830  143.7170 O   0  0  0  0  0  0  0  0  0  0  0  0
  187.8380  177.5230  141.9290 C   0  0  0  0  0  0  0  0  0  0  0  0
  185.4000  177.8940  142.3270 C   0  0  1  0  0  3  0  0  0  0  0  0
  188.9170  177.5440  145.5810 C   0  0  2  0  0  3  0  0  0  0  0  0
  188.0370  177.6360  143.3870 C   0  0  0  0  0  0  0  0  0  0  0  0
  189.3300  177.6560  144.1120 C   0  0  0  0  0  2  0  0  0  0  0  0
  187.3920  177.7060  145.6250 C   0  0  0  0  0  2  0  0  0  0  0  0
  187.0090  177.6800  144.1990 C   0  0  0  0  0  0  0  0  0  0  0  0
  186.7420  178.9400  138.6290 O   0  0  0  0  0  0  0  0  0  0  0  0
  190.1710  176.7450  141.6070 C   0  0  0  0  0  2  0  0  0  0  0  0
  186.7580  177.9290  137.8180 C   0  0  2  0  0  3  0  0  0  0  0  0
  189.8160  177.2900  138.8340 N   0  0  0  0  0  0  0  0  0  0  0  0
  191.1220  176.9730  139.3290 C   0  0  0  0  0  0  0  0  0  0  0  0
  187.5490  177.8720  139.0510 N   0  0  0  0  0  0  0  0  0  0  0  0
  191.3180  176.7770  140.6390 C   0  0  0  0  0  3  0  0  0  0  0  0
  188.7910  177.4460  139.6130 C   0  0  0  0  0  0  0  0  0  0  0  0
  188.9420  177.3100  141.0400 N   0  0  0  0  0  0  0  0  0  0  0  0
  193.5530  177.0930  139.1100 N   0  0  0  0  0  2  0  0  0  0  0  0
  194.1370  174.1340  137.1960 C   0  0  0  0  0  3  0  0  0  0  0  0
  193.6310  175.2320  137.7520 C   0  0  0  0  0  0  0  0  0  0  0  0
  192.3040  175.7780  137.4610 C   0  0  0  0  0  2  0  0  0  0  0  0
  194.2820  176.0050  138.6830 O   0  0  0  0  0  0  0  0  0  0  0  0
  192.2780  177.0110  138.3760 C   0  0  1  0  0  3  0  0  0  0  0  0
  195.4500  173.6540  137.5380 C   0  0  0  0  0  0  0  0  0  0  0  0
  196.5500  173.2480  137.8230 C   0  0  0  0  0  3  0  0  0  0  0  0
  187.6630  178.2270  136.6360 C   0  0  0  0  0  2  0  0  0  0  0  0
  187.0640  177.6420  135.3610 C   0  0  0  0  0  2  0  0  0  0  0  0
  187.3640  176.1490  135.1730 C   0  0  2  0  0  3  0  0  0  0  0  0
  185.4610  174.6630  134.5940 C   0  0  0  0  0  2  0  0  0  0  0  0
  186.2470  175.2810  135.7380 C   0  0  0  0  0  3  0  0  0  0  0  0
  184.8960  175.8500  135.3440 C   0  0  0  0  0  2  0  0  0  0  0  0
  188.6850  175.7510  135.7590 C   0  0  0  0  0  3  0  0  0  0  0  0
  189.1710  174.5220  135.5870 C   0  0  0  0  0  2  0  0  0  0  0  0
  184.9520  179.3350  142.1210 C   0  0  0  0  0  2  0  0  0  0  0  0
  183.4960  179.3850  141.6890 C   0  0  0  0  0  2  0  0  0  0  0  0
  183.3690  179.0080  140.2230 C   0  0  0  0  0  2  0  0  0  0  0  0
  180.4500  174.5370  138.7480 C   0  0  0  0  0  1  0  0  0  0  0  0
  181.0120  178.0080  139.7040 S   0  0  0  0  0  0  0  0  0  0  0  0
  181.3040  175.6560  138.1840 C   0  0  1  0  0  0  0  0  0  0  0  0
  180.7010  176.4980  135.9770 C   0  0  1  0  0  3  0  0  0  0  0  0
  181.7580  178.4690  136.8580 O   0  0  0  0  0  1  0  0  0  0  0  0
  182.6780  175.6220  138.8730 C   0  0  0  0  0  2  0  0  0  0  0  0
  181.4950  175.4210  136.6900 C   0  0  0  0  0  2  0  0  0  0  0  0
  180.1690  177.6180  140.8850 O   0  0  0  0  0  0  0  0  0  0  0  0
  182.6870  177.7280  140.1040 N   0  0  0  0  0  0  0  0  0  0  0  0
  180.6110  177.6690  136.9460 C   0  0  2  0  0  3  0  0  0  0  0  0
  180.7580  179.4560  139.3840 O   0  0  0  0  0  0  0  0  0  0  0  0
  181.3390  176.8590  134.6470 C   0  0  0  0  0  1  0  0  0  0  0  0
  183.3170  177.0000  139.0110 C   0  0  0  0  0  2  0  0  0  0  0  0
  180.5320  176.9820  138.3050 C   0  0  2  0  0  3  0  0  0  0  0  0
  189.6010  178.6240  146.4010 C   0  0  0  0  0  2  0  0  0  0  0  0
  190.1230  178.0640  147.7240 C   0  0  2  0  0  3  0  0  0  0  0  0
  191.3360  176.7540  147.3400 P   0  0  0  0  0  0  0  0  0  0  0  0
  190.5660  175.2480  147.3500 O   0  0  0  0  0  1  0  0  0  0  0  0
  191.9330  177.0000  145.9740 O   0  0  0  0  0  0  0  0  0  0  0  0
  192.5780  176.7500  148.4880 O   0  0  0  0  0  1  0  0  0  0  0  0
  188.3120  176.3010  147.9750 C   0  0  0  0  0  1  0  0  0  0  0  0
  187.9180  178.5660  148.8340 C   0  0  0  0  0  1  0  0  0  0  0  0
  188.9850  177.5120  148.6020 C   0  0  0  0  0  3  0  0  0  0  0  0
  1  3  2  0  0  0  0
  1  4  1  0  0  0  0
  2  9  1  0  0  0  0
  3  6  1  0  0  0  0
  4 35  1  1  0  0  0
  4  2  1  0  0  0  0
  5  8  1  0  0  0  0
  5 52  1  1  0  0  0
  6  7  1  0  0  0  0
  6  9  2  0  0  0  0
  7  5  1  0  0  0  0
  9  8  1  0  0  0  0
 10 15  1  0  0  0  0
 12 27  1  6  0  0  0
 12 10  1  0  0  0  0
 12 15  1  0  0  0  0
 13 14  1  0  0  0  0
 13 17  2  0  0  0  0
 14 16  2  0  0  0  0
 15 17  1  0  0  0  0
 16 11  1  0  0  0  0
 17 18  1  0  0  0  0
 18 11  1  0  0  0  0
 18  3  1  0  0  0  0
 20 25  1  0  0  0  0
 20 21  2  0  0  0  0
 21 23  1  0  0  0  0
 22 21  1  0  0  0  0
 22 24  1  0  0  0  0
 23 19  1  0  0  0  0
 24 19  1  0  0  0  0
 24 14  1  1  0  0  0
 25 26  3  0  0  0  0
 28 27  1  0  0  0  0
 29 28  1  1  0  0  0
 29 31  1  0  0  0  0
 29 33  1  0  0  0  0
 30 32  1  0  0  0  0
 30 31  1  0  0  0  0
 32 31  1  0  0  0  0
 34 33  2  0  0  0  0
 36 35  1  0  0  0  0
 37 36  1  0  0  0  0
 39 46  1  0  0  0  0
 39 45  2  0  0  0  0
 40 51  1  0  0  0  0
 40 38  1  1  0  0  0
 40 43  1  0  0  0  0
 41 49  1  6  0  0  0
 41 44  1  0  0  0  0
 41 47  1  0  0  0  0
 43 50  1  0  0  0  0
 44 40  1  0  0  0  0
 46 37  1  0  0  0  0
 47 42  1  1  0  0  0
 47 51  1  0  0  0  0
 48 39  2  0  0  0  0
 50 46  1  0  0  0  0
 51 39  1  1  0  0  0
 53 52  1  6  0  0  0
 53 60  1  0  0  0  0
 54 55  1  0  0  0  0
 54 53  1  0  0  0  0
 54 57  1  0  0  0  0
 56 54  2  0  0  0  0
 58 60  1  0  0  0  0
 60 59  1  0  0  0  0
M  END
>  <MODEL>
8

>  <REMARK>
 VINA RESULT:      -5.0      2.831      7.998
  Name = 
  16 active torsions:
  status: ('A' for Active; 'I' for Inactive)
    1  A    between atoms: P_3  and  C_59
    2  A    between atoms: C_5  and  C_49
    3  A    between atoms: C_6  and  C_15
    4  A    between atoms: C_6  and  C_49
    5  A    between atoms: C_9  and  N_45
    6  A    between atoms: C_13  and  N_36
    7  A    between atoms: C_13  and  C_38
    8  A    between atoms: C_15  and  C_27
    9  A    between atoms: C_17  and  C_33
   10  A    between atoms: C_17  and  C_38
   11  A    between atoms: C_21  and  C_34
   12  A    between atoms: C_30  and  C_49
   13  A    between atoms: C_31  and  C_51
   14  A    between atoms: C_35  and  C_57
   15  A    between atoms: C_46  and  C_59
   16  A    between atoms: C_57  and  C_59
                            x       y       z     vdW  Elec       q    Type
                         _______ _______ _______ _____ _____    ______ ____

>  <TORSDO>
F 16

$$$$
=
 OpenBabel10222415213D

 60 67  0  0  1  0  0  0  0  0999 V2000
  186.8560  177.6240  141.1390 C   0  0  0  0  0  3  0  0  0  0  0  0
  185.7010  177.6880  143.3000 O   0  0  0  0  0  0  0  0  0  0  0  0
  188.0360  177.5470  141.7700 C   0  0  0  0  0  0  0  0  0  0  0  0
  185.5660  177.9040  141.8860 C   0  0  1  0  0  3  0  0  0  0  0  0
  188.6860  177.5590  145.5220 C   0  0  2  0  0  3  0  0  0  0  0  0
  188.0640  177.6550  143.2410 C   0  0  0  0  0  0  0  0  0  0  0  0
  189.2650  177.6790  144.1110 C   0  0  0  0  0  2  0  0  0  0  0  0
  187.1660  177.7120  145.3900 C   0  0  0  0  0  2  0  0  0  0  0  0
  186.9500  177.6910  143.9300 C   0  0  0  0  0  0  0  0  0  0  0  0
  187.1990  178.6260  138.2720 O   0  0  0  0  0  0  0  0  0  0  0  0
  190.4330  176.9110  141.7430 C   0  0  0  0  0  2  0  0  0  0  0  0
  187.3600  177.5580  137.5540 C   0  0  2  0  0  3  0  0  0  0  0  0
  190.3320  177.2140  138.9130 N   0  0  0  0  0  0  0  0  0  0  0  0
  191.5970  177.0280  139.5570 C   0  0  0  0  0  0  0  0  0  0  0  0
  188.0230  177.6520  138.8590 N   0  0  0  0  0  0  0  0  0  0  0  0
  191.6690  176.9480  140.8910 C   0  0  0  0  0  3  0  0  0  0  0  0
  189.2240  177.3580  139.5720 C   0  0  0  0  0  0  0  0  0  0  0  0
  189.2370  177.3430  141.0140 N   0  0  0  0  0  0  0  0  0  0  0  0
  194.0250  176.7530  139.5360 N   0  0  0  0  0  2  0  0  0  0  0  0
  194.3320  174.2550  137.0020 C   0  0  0  0  0  3  0  0  0  0  0  0
  193.9510  175.2690  137.7740 C   0  0  0  0  0  0  0  0  0  0  0  0
  192.7670  176.0980  137.5370 C   0  0  0  0  0  2  0  0  0  0  0  0
  194.6120  175.6780  138.9060 O   0  0  0  0  0  0  0  0  0  0  0  0
  192.8400  177.0730  138.7220 C   0  0  1  0  0  3  0  0  0  0  0  0
  195.5060  173.4790  137.3030 C   0  0  0  0  0  0  0  0  0  0  0  0
  196.4910  172.8300  137.5580 C   0  0  0  0  0  3  0  0  0  0  0  0
  188.3620  177.8270  136.4450 C   0  0  0  0  0  2  0  0  0  0  0  0
  188.1830  176.8080  135.3240 C   0  0  0  0  0  2  0  0  0  0  0  0
  187.6390  175.4570  135.8070 C   0  0  2  0  0  3  0  0  0  0  0  0
  188.4770  173.3530  136.8260 C   0  0  0  0  0  2  0  0  0  0  0  0
  188.6970  174.3640  135.7140 C   0  0  0  0  0  3  0  0  0  0  0  0
  189.5760  174.3850  136.9500 C   0  0  0  0  0  2  0  0  0  0  0  0
  186.3940  175.0460  135.0790 C   0  0  0  0  0  3  0  0  0  0  0  0
  185.2220  174.9770  135.7080 C   0  0  0  0  0  2  0  0  0  0  0  0
  185.1370  179.3420  141.6340 C   0  0  0  0  0  2  0  0  0  0  0  0
  183.8490  179.3830  140.8280 C   0  0  0  0  0  2  0  0  0  0  0  0
  184.1580  179.3510  139.3420 C   0  0  0  0  0  2  0  0  0  0  0  0
  179.2660  178.1970  137.0120 C   0  0  0  0  0  1  0  0  0  0  0  0
  182.8100  177.7790  137.7470 S   0  0  0  0  0  0  0  0  0  0  0  0
  180.0590  178.0240  138.2940 C   0  0  1  0  0  0  0  0  0  0  0  0
  179.6900  175.9670  139.5490 C   0  0  1  0  0  3  0  0  0  0  0  0
  181.9340  176.4500  140.2640 O   0  0  0  0  0  1  0  0  0  0  0  0
  180.4880  179.4120  138.7980 C   0  0  0  0  0  2  0  0  0  0  0  0
  179.1620  177.3740  139.3410 C   0  0  0  0  0  2  0  0  0  0  0  0
  182.9490  178.0330  136.2730 O   0  0  0  0  0  0  0  0  0  0  0  0
  182.9160  179.3070  138.5840 N   0  0  0  0  0  0  0  0  0  0  0  0
  181.1660  176.0090  139.1780 C   0  0  2  0  0  3  0  0  0  0  0  0
  183.9010  176.8390  138.1820 O   0  0  0  0  0  0  0  0  0  0  0  0
  179.4350  175.4930  140.9690 C   0  0  0  0  0  1  0  0  0  0  0  0
  181.8200  179.3980  139.5400 C   0  0  0  0  0  2  0  0  0  0  0  0
  181.2020  177.0260  138.0410 C   0  0  2  0  0  3  0  0  0  0  0  0
  189.2650  178.6390  146.4200 C   0  0  0  0  0  2  0  0  0  0  0  0
  189.8070  178.0450  147.7190 C   0  0  2  0  0  3  0  0  0  0  0  0
  191.1610  176.8970  147.2900 P   0  0  0  0  0  0  0  0  0  0  0  0
  191.8110  177.3230  145.7880 O   0  0  0  0  0  0  0  0  0  0  0  0
  192.2430  176.9740  148.3420 O   0  0  0  0  0  1  0  0  0  0  0  0
  190.5830  175.3090  147.2140 O   0  0  0  0  0  1  0  0  0  0  0  0
  188.1480  176.1220  147.7660 C   0  0  0  0  0  1  0  0  0  0  0  0
  187.5550  178.2530  148.8300 C   0  0  0  0  0  1  0  0  0  0  0  0
  188.7100  177.3180  148.5180 C   0  0  0  0  0  3  0  0  0  0  0  0
  1  3  2  0  0  0  0
  1  4  1  0  0  0  0
  2  9  1  0  0  0  0
  3  6  1  0  0  0  0
  4 35  1  1  0  0  0
  4  2  1  0  0  0  0
  5 52  1  1  0  0  0
  6  9  2  0  0  0  0
  6  7  1  0  0  0  0
  7  5  1  0  0  0  0
  8  5  1  0  0  0  0
  9  8  1  0  0  0  0
 10 15  1  0  0  0  0
 12 27  1  6  0  0  0
 12 10  1  0  0  0  0
 12 15  1  0  0  0  0
 13 14  1  0  0  0  0
 13 17  2  0  0  0  0
 14 16  2  0  0  0  0
 15 17  1  0  0  0  0
 16 11  1  0  0  0  0
 17 18  1  0  0  0  0
 18 11  1  0  0  0  0
 18  3  1  0  0  0  0
 20 25  1  0  0  0  0
 20 21  2  0  0  0  0
 21 23  1  0  0  0  0
 22 21  1  0  0  0  0
 22 24  1  0  0  0  0
 23 19  1  0  0  0  0
 24 19  1  0  0  0  0
 24 14  1  1  0  0  0
 25 26  3  0  0  0  0
 28 29  1  0  0  0  0
 28 27  1  0  0  0  0
 29 33  1  6  0  0  0
 30 32  1  0  0  0  0
 31 29  1  0  0  0  0
 31 30  1  0  0  0  0
 31 32  1  0  0  0  0
 33 34  2  0  0  0  0
 36 35  1  0  0  0  0
 37 36  1  0  0  0  0
 39 48  2  0  0  0  0
 39 46  1  0  0  0  0
 40 38  1  6  0  0  0
 40 43  1  0  0  0  0
 40 44  1  0  0  0  0
 41 49  1  1  0  0  0
 43 50  1  0  0  0  0
 44 41  1  0  0  0  0
 45 39  2  0  0  0  0
 46 37  1  0  0  0  0
 46 50  1  0  0  0  0
 47 41  1  0  0  0  0
 47 42  1  1  0  0  0
 51 39  1  1  0  0  0
 51 40  1  0  0  0  0
 51 47  1  0  0  0  0
 53 52  1  6  0  0  0
 53 60  1  0  0  0  0
 54 53  1  0  0  0  0
 54 56  1  0  0  0  0
 55 54  2  0  0  0  0
 57 54  1  0  0  0  0
 58 60  1  0  0  0  0
 60 59  1  0  0  0  0
M  END
>  <MODEL>
9

>  <REMARK>
 VINA RESULT:      -5.0      2.809      7.918
  Name = 
  16 active torsions:
  status: ('A' for Active; 'I' for Inactive)
    1  A    between atoms: P_3  and  C_59
    2  A    between atoms: C_5  and  C_49
    3  A    between atoms: C_6  and  C_15
    4  A    between atoms: C_6  and  C_49
    5  A    between atoms: C_9  and  N_45
    6  A    between atoms: C_13  and  N_36
    7  A    between atoms: C_13  and  C_38
    8  A    between atoms: C_15  and  C_27
    9  A    between atoms: C_17  and  C_33
   10  A    between atoms: C_17  and  C_38
   11  A    between atoms: C_21  and  C_34
   12  A    between atoms: C_30  and  C_49
   13  A    between atoms: C_31  and  C_51
   14  A    between atoms: C_35  and  C_57
   15  A    between atoms: C_46  and  C_59
   16  A    between atoms: C_57  and  C_59
                            x       y       z     vdW  Elec       q    Type
                         _______ _______ _______ _____ _____    ______ ____

>  <TORSDO>
F 16

$$$$
