=
 OpenBabel10222420113D

 27 31  0  0  1  0  0  0  0  0999 V2000
  191.5990  176.7520  146.7850 C   0  0  0  0  0  3  0  0  0  0  0  0
  190.3810  177.0440  147.4300 C   0  0  0  0  0  3  0  0  0  0  0  0
  188.2670  177.7720  144.2990 C   0  0  1  0  0  3  0  0  0  0  0  0
  190.5470  177.1390  144.6690 C   0  0  0  0  0  0  0  0  0  0  0  0
  188.6160  177.8920  141.7150 C   0  0  0  0  0  3  0  0  0  0  0  0
  192.6160  176.4840  137.6750 N   0  0  0  0  0  1  0  0  0  0  0  0
  191.6470  176.4070  138.7120 C   0  0  0  0  0  0  0  0  0  0  0  0
  190.6430  175.6590  138.5730 O   0  0  0  0  0  0  0  0  0  0  0  0
  190.8650  177.3120  140.9530 C   0  0  0  0  0  0  0  0  0  0  0  0
  189.0900  178.0720  139.2850 C   0  0  0  0  0  1  0  0  0  0  0  0
  189.2400  177.3860  146.6840 C   0  0  0  0  0  3  0  0  0  0  0  0
  191.6920  176.8000  145.3840 C   0  0  0  0  0  3  0  0  0  0  0  0
  191.8470  177.1430  139.9220 N   0  0  0  0  0  2  0  0  0  0  0  0
  189.3450  177.4250  145.2930 C   0  0  0  0  0  0  0  0  0  0  0  0
  191.2480  177.1220  142.2500 N   0  0  0  0  0  0  0  0  0  0  0  0
  189.5320  177.7250  140.6660 C   0  0  0  0  0  0  0  0  0  0  0  0
  190.3470  177.2790  143.2500 C   0  0  0  0  0  0  0  0  0  0  0  0
  189.0430  177.6460  143.0150 C   0  0  0  0  0  0  0  0  0  0  0  0
  187.2170  176.7660  144.3460 N   0  0  0  0  0  2  0  0  0  0  0  0
  184.9150  178.2080  144.4180 C   0  0  0  0  0  0  0  0  0  0  0  0
  183.2200  178.8810  142.4320 C   0  0  0  0  0  0  0  0  0  0  0  0
  184.2990  178.0890  142.0430 N   0  0  0  0  0  0  0  0  0  0  0  0
  183.0160  179.3230  143.8270 C   0  0  0  0  0  3  0  0  0  0  0  0
  182.2740  179.2830  141.4490 N   0  0  0  0  0  1  0  0  0  0  0  0
  185.0520  177.8280  143.1070 C   0  0  0  0  0  0  0  0  0  0  0  0
  186.0100  177.4090  144.0430 N   0  0  0  0  0  0  0  0  0  0  0  0
  183.9080  178.9810  144.9150 C   0  0  0  0  0  3  0  0  0  0  0  0
  1  2  1  0  0  0  0
  3 19  1  6  0  0  0
  3 14  1  0  0  0  0
  4 14  2  0  0  0  0
  4 12  1  0  0  0  0
  5 18  1  0  0  0  0
  6  7  1  0  0  0  0
  7 13  1  0  0  0  0
  8  7  2  0  0  0  0
  9 15  2  0  0  0  0
 10 16  1  0  0  0  0
 11  2  2  0  0  0  0
 12  1  2  0  0  0  0
 13  9  1  0  0  0  0
 14 11  1  0  0  0  0
 15 17  1  0  0  0  0
 16  9  1  0  0  0  0
 16  5  2  0  0  0  0
 17  4  1  0  0  0  0
 18 17  2  0  0  0  0
 18  3  1  0  0  0  0
 20 27  1  0  0  0  0
 21 23  1  0  0  0  0
 22 21  2  0  0  0  0
 22 25  1  0  0  0  0
 23 27  2  0  0  0  0
 24 21  1  0  0  0  0
 25 26  1  0  0  0  0
 25 20  2  0  0  0  0
 26 19  1  0  0  0  0
 26 20  1  0  0  0  0
M  END
>  <MODEL>
1

>  <REMARK>
 VINA RESULT:     -10.0      0.000      0.000
  Name = 
  2 active torsions:
  status: ('A' for Active; 'I' for Inactive)
    1  A    between atoms: C_3  and  N_12
    2  A    between atoms: N_12  and  N_23
                            x       y       z     vdW  Elec       q    Type
                         _______ _______ _______ _____ _____    ______ ____

>  <TORSDO>
F 2

$$$$
=
 OpenBabel10222420113D

 27 31  0  0  1  0  0  0  0  0999 V2000
  191.4210  176.7440  146.8820 C   0  0  0  0  0  3  0  0  0  0  0  0
  190.2200  177.0890  147.5320 C   0  0  0  0  0  3  0  0  0  0  0  0
  188.1310  177.9270  144.4120 C   0  0  1  0  0  3  0  0  0  0  0  0
  190.3800  177.1880  144.7710 C   0  0  0  0  0  0  0  0  0  0  0  0
  188.4750  178.0410  141.8270 C   0  0  0  0  0  3  0  0  0  0  0  0
  192.3920  176.4670  137.7670 N   0  0  0  0  0  1  0  0  0  0  0  0
  191.4240  176.4310  138.8070 C   0  0  0  0  0  0  0  0  0  0  0  0
  190.3860  175.7300  138.6680 O   0  0  0  0  0  0  0  0  0  0  0  0
  190.6930  177.3620  141.0550 C   0  0  0  0  0  0  0  0  0  0  0  0
  188.9480  178.2090  139.3970 C   0  0  0  0  0  1  0  0  0  0  0  0
  189.0940  177.4870  146.7920 C   0  0  0  0  0  3  0  0  0  0  0  0
  191.5110  176.7930  145.4800 C   0  0  0  0  0  3  0  0  0  0  0  0
  191.6620  177.1520  140.0190 N   0  0  0  0  0  2  0  0  0  0  0  0
  189.1950  177.5260  145.4000 C   0  0  0  0  0  0  0  0  0  0  0  0
  191.0710  177.1480  142.3490 N   0  0  0  0  0  0  0  0  0  0  0  0
  189.3790  177.8360  140.7740 C   0  0  0  0  0  0  0  0  0  0  0  0
  190.1820  177.3430  143.3530 C   0  0  0  0  0  0  0  0  0  0  0  0
  188.8960  177.7710  143.1250 C   0  0  0  0  0  0  0  0  0  0  0  0
  187.0350  176.9690  144.4590 N   0  0  0  0  0  2  0  0  0  0  0  0
  185.1560  177.9460  142.7560 C   0  0  0  0  0  0  0  0  0  0  0  0
  182.7870  179.1250  143.2690 C   0  0  0  0  0  0  0  0  0  0  0  0
  183.5280  178.7750  144.3970 N   0  0  0  0  0  0  0  0  0  0  0  0
  183.2590  178.8690  141.8930 C   0  0  0  0  0  3  0  0  0  0  0  0
  181.5230  179.7530  143.4450 N   0  0  0  0  0  1  0  0  0  0  0  0
  184.6660  178.2090  144.0100 C   0  0  0  0  0  0  0  0  0  0  0  0
  185.9180  177.5870  143.8830 N   0  0  0  0  0  0  0  0  0  0  0  0
  184.5250  178.2370  141.5840 C   0  0  0  0  0  3  0  0  0  0  0  0
  1  2  1  0  0  0  0
  3 19  1  6  0  0  0
  3 14  1  0  0  0  0
  4 14  2  0  0  0  0
  4 12  1  0  0  0  0
  5 18  1  0  0  0  0
  6  7  1  0  0  0  0
  7 13  1  0  0  0  0
  8  7  2  0  0  0  0
  9 15  2  0  0  0  0
 10 16  1  0  0  0  0
 11  2  2  0  0  0  0
 12  1  2  0  0  0  0
 13  9  1  0  0  0  0
 14 11  1  0  0  0  0
 15 17  1  0  0  0  0
 16  9  1  0  0  0  0
 16  5  2  0  0  0  0
 17  4  1  0  0  0  0
 18 17  2  0  0  0  0
 18  3  1  0  0  0  0
 20 26  1  0  0  0  0
 20 25  1  0  0  0  0
 21 24  1  0  0  0  0
 21 22  1  0  0  0  0
 23 21  2  0  0  0  0
 25 22  2  0  0  0  0
 26 25  1  0  0  0  0
 26 19  1  0  0  0  0
 27 23  1  0  0  0  0
 27 20  2  0  0  0  0
M  END
>  <MODEL>
2

>  <REMARK>
 VINA RESULT:      -9.9      0.776      1.112
  Name = 
  2 active torsions:
  status: ('A' for Active; 'I' for Inactive)
    1  A    between atoms: C_3  and  N_12
    2  A    between atoms: N_12  and  N_23
                            x       y       z     vdW  Elec       q    Type
                         _______ _______ _______ _____ _____    ______ ____

>  <TORSDO>
F 2

$$$$
=
 OpenBabel10222420113D

 27 31  0  0  1  0  0  0  0  0999 V2000
  191.0050  176.5960  147.6860 C   0  0  0  0  0  3  0  0  0  0  0  0
  192.0700  176.3100  146.8080 C   0  0  0  0  0  3  0  0  0  0  0  0
  190.2090  176.8760  143.4890 C   0  0  1  0  0  3  0  0  0  0  0  0
  189.5930  177.0210  145.7980 C   0  0  0  0  0  0  0  0  0  0  0  0
  187.7960  177.4850  142.7040 C   0  0  0  0  0  3  0  0  0  0  0  0
  182.7320  179.4240  144.9190 N   0  0  0  0  0  1  0  0  0  0  0  0
  184.0930  179.3300  144.5180 C   0  0  0  0  0  0  0  0  0  0  0  0
  184.5900  180.2270  143.7860 O   0  0  0  0  0  0  0  0  0  0  0  0
  186.2070  177.9230  144.5100 C   0  0  0  0  0  0  0  0  0  0  0  0
  185.4450  177.9720  142.0760 C   0  0  0  0  0  1  0  0  0  0  0  0
  191.8890  176.3800  145.4170 C   0  0  0  0  0  3  0  0  0  0  0  0
  189.7440  176.9560  147.1810 C   0  0  0  0  0  3  0  0  0  0  0  0
  184.8950  178.2450  144.9900 N   0  0  0  0  0  2  0  0  0  0  0  0
  190.6330  176.7450  144.9290 C   0  0  0  0  0  0  0  0  0  0  0  0
  187.1850  177.6570  145.4260 N   0  0  0  0  0  0  0  0  0  0  0  0
  186.4980  177.8200  143.1190 C   0  0  0  0  0  0  0  0  0  0  0  0
  188.4350  177.3440  145.0070 C   0  0  0  0  0  0  0  0  0  0  0  0
  188.7660  177.2630  143.6750 C   0  0  0  0  0  0  0  0  0  0  0  0
  190.9410  177.9680  142.8620 N   0  0  0  0  0  2  0  0  0  0  0  0
  190.8990  177.1570  140.2690 C   0  0  0  0  0  0  0  0  0  0  0  0
  192.9220  176.8190  138.5180 C   0  0  0  0  0  0  0  0  0  0  0  0
  193.3090  177.2140  139.7980 N   0  0  0  0  0  0  0  0  0  0  0  0
  191.5090  176.6020  138.1440 C   0  0  0  0  0  3  0  0  0  0  0  0
  193.9240  176.6160  137.5290 N   0  0  0  0  0  1  0  0  0  0  0  0
  192.2270  177.3430  140.5590 C   0  0  0  0  0  0  0  0  0  0  0  0
  191.2730  177.5560  141.5650 N   0  0  0  0  0  0  0  0  0  0  0  0
  190.4000  176.7760  139.0590 C   0  0  0  0  0  3  0  0  0  0  0  0
  2  1  2  0  0  0  0
  3 19  1  1  0  0  0
  3 18  1  0  0  0  0
  3 14  1  0  0  0  0
  4 12  2  0  0  0  0
  5 16  2  0  0  0  0
  5 18  1  0  0  0  0
  7  6  1  0  0  0  0
  7 13  1  0  0  0  0
  8  7  2  0  0  0  0
  9 13  1  0  0  0  0
  9 15  2  0  0  0  0
 10 16  1  0  0  0  0
 11  2  1  0  0  0  0
 12  1  1  0  0  0  0
 14 11  2  0  0  0  0
 14  4  1  0  0  0  0
 16  9  1  0  0  0  0
 17 15  1  0  0  0  0
 17  4  1  0  0  0  0
 18 17  2  0  0  0  0
 20 25  1  0  0  0  0
 20 26  1  0  0  0  0
 21 22  1  0  0  0  0
 22 25  2  0  0  0  0
 23 21  2  0  0  0  0
 23 27  1  0  0  0  0
 24 21  1  0  0  0  0
 25 26  1  0  0  0  0
 26 19  1  0  0  0  0
 27 20  2  0  0  0  0
M  END
>  <MODEL>
3

>  <REMARK>
 VINA RESULT:      -9.9      2.263      6.865
  Name = 
  2 active torsions:
  status: ('A' for Active; 'I' for Inactive)
    1  A    between atoms: C_3  and  N_12
    2  A    between atoms: N_12  and  N_23
                            x       y       z     vdW  Elec       q    Type
                         _______ _______ _______ _____ _____    ______ ____

>  <TORSDO>
F 2

$$$$
=
 OpenBabel10222420113D

 27 31  0  0  1  0  0  0  0  0999 V2000
  183.5990  179.1530  144.4990 C   0  0  0  0  0  3  0  0  0  0  0  0
  184.1840  178.7640  145.7210 C   0  0  0  0  0  3  0  0  0  0  0  0
  187.5660  177.5530  144.3450 C   0  0  1  0  0  3  0  0  0  0  0  0
  185.5940  178.4830  143.3560 C   0  0  0  0  0  0  0  0  0  0  0  0
  188.7250  177.2830  142.0220 C   0  0  0  0  0  3  0  0  0  0  0  0
  187.9540  178.8610  136.4340 N   0  0  0  0  0  1  0  0  0  0  0  0
  188.1680  178.8970  137.8390 C   0  0  0  0  0  0  0  0  0  0  0  0
  189.1690  179.5050  138.3020 O   0  0  0  0  0  0  0  0  0  0  0  0
  187.4090  178.0730  140.1190 C   0  0  0  0  0  0  0  0  0  0  0  0
  189.6860  176.9820  139.7540 C   0  0  0  0  0  1  0  0  0  0  0  0
  185.4830  178.2310  145.7540 C   0  0  0  0  0  3  0  0  0  0  0  0
  184.3070  179.0120  143.2940 C   0  0  0  0  0  3  0  0  0  0  0  0
  187.2170  178.2830  138.7140 N   0  0  0  0  0  2  0  0  0  0  0  0
  186.1780  178.1010  144.5500 C   0  0  0  0  0  0  0  0  0  0  0  0
  186.3920  178.4050  140.9680 N   0  0  0  0  0  0  0  0  0  0  0  0
  188.5960  177.4820  140.6390 C   0  0  0  0  0  0  0  0  0  0  0  0
  186.5380  178.2150  142.3020 C   0  0  0  0  0  0  0  0  0  0  0  0
  187.6780  177.6760  142.8480 C   0  0  0  0  0  0  0  0  0  0  0  0
  188.5370  178.4250  144.9900 N   0  0  0  0  0  2  0  0  0  0  0  0
  190.6400  176.7250  145.2530 C   0  0  0  0  0  0  0  0  0  0  0  0
  192.0510  176.0260  147.4420 C   0  0  0  0  0  0  0  0  0  0  0  0
  190.9960  176.9070  147.6770 N   0  0  0  0  0  0  0  0  0  0  0  0
  192.3770  175.5120  146.0960 C   0  0  0  0  0  3  0  0  0  0  0  0
  192.8500  175.6030  148.5400 N   0  0  0  0  0  1  0  0  0  0  0  0
  190.3850  177.1680  146.5250 C   0  0  0  0  0  0  0  0  0  0  0  0
  189.5720  177.6130  145.4720 N   0  0  0  0  0  0  0  0  0  0  0  0
  191.6410  175.8690  144.9010 C   0  0  0  0  0  3  0  0  0  0  0  0
  1  2  1  0  0  0  0
  2 11  2  0  0  0  0
  3 14  1  0  0  0  0
  3 19  1  1  0  0  0
  4 14  2  0  0  0  0
  5 18  1  0  0  0  0
  6  7  1  0  0  0  0
  7  8  2  0  0  0  0
  7 13  1  0  0  0  0
  9 16  1  0  0  0  0
  9 15  2  0  0  0  0
 10 16  1  0  0  0  0
 12  4  1  0  0  0  0
 12  1  2  0  0  0  0
 13  9  1  0  0  0  0
 14 11  1  0  0  0  0
 15 17  1  0  0  0  0
 16  5  2  0  0  0  0
 17 18  2  0  0  0  0
 17  4  1  0  0  0  0
 18  3  1  0  0  0  0
 19 26  1  0  0  0  0
 20 26  1  0  0  0  0
 20 25  1  0  0  0  0
 21 22  1  0  0  0  0
 21 24  1  0  0  0  0
 23 21  2  0  0  0  0
 25 22  2  0  0  0  0
 26 25  1  0  0  0  0
 27 20  2  0  0  0  0
 27 23  1  0  0  0  0
M  END
>  <MODEL>
4

>  <REMARK>
 VINA RESULT:      -9.7      2.601      6.166
  Name = 
  2 active torsions:
  status: ('A' for Active; 'I' for Inactive)
    1  A    between atoms: C_3  and  N_12
    2  A    between atoms: N_12  and  N_23
                            x       y       z     vdW  Elec       q    Type
                         _______ _______ _______ _____ _____    ______ ____

>  <TORSDO>
F 2

$$$$
=
 OpenBabel10222420113D

 27 31  0  0  1  0  0  0  0  0999 V2000
  190.5520  177.0550  137.2300 C   0  0  0  0  0  3  0  0  0  0  0  0
  191.5810  176.7440  138.1410 C   0  0  0  0  0  3  0  0  0  0  0  0
  189.6910  177.5440  141.3950 C   0  0  1  0  0  3  0  0  0  0  0  0
  189.1280  177.6260  139.0690 C   0  0  0  0  0  0  0  0  0  0  0  0
  187.3510  178.4610  142.0970 C   0  0  0  0  0  3  0  0  0  0  0  0
  182.1060  179.5920  139.7470 N   0  0  0  0  0  1  0  0  0  0  0  0
  183.2750  178.9240  140.2040 C   0  0  0  0  0  0  0  0  0  0  0  0
  183.1660  177.9520  140.9990 O   0  0  0  0  0  0  0  0  0  0  0  0
  185.8140  178.8840  140.2430 C   0  0  0  0  0  0  0  0  0  0  0  0
  185.1320  179.4310  142.6400 C   0  0  0  0  0  1  0  0  0  0  0  0
  191.3770  176.8770  139.5240 C   0  0  0  0  0  3  0  0  0  0  0  0
  189.3040  177.5050  137.6930 C   0  0  0  0  0  3  0  0  0  0  0  0
  184.5570  179.3320  139.7190 N   0  0  0  0  0  2  0  0  0  0  0  0
  190.1310  177.3200  139.9710 C   0  0  0  0  0  0  0  0  0  0  0  0
  186.7800  178.4900  139.3610 N   0  0  0  0  0  0  0  0  0  0  0  0
  186.0970  178.8940  141.6390 C   0  0  0  0  0  0  0  0  0  0  0  0
  187.9820  178.0670  139.8220 C   0  0  0  0  0  0  0  0  0  0  0  0
  188.2860  178.0310  141.1620 C   0  0  0  0  0  0  0  0  0  0  0  0
  189.6670  176.2730  142.1050 N   0  0  0  0  0  2  0  0  0  0  0  0
  189.3950  176.9320  144.7270 C   0  0  0  0  0  0  0  0  0  0  0  0
  191.1820  176.8280  146.7420 C   0  0  0  0  0  0  0  0  0  0  0  0
  191.6770  176.4460  145.4960 N   0  0  0  0  0  0  0  0  0  0  0  0
  189.7840  177.2560  146.9490 C   0  0  0  0  0  3  0  0  0  0  0  0
  192.0570  176.8040  147.8640 N   0  0  0  0  0  1  0  0  0  0  0  0
  190.7030  176.5430  144.5950 C   0  0  0  0  0  0  0  0  0  0  0  0
  189.8760  176.5500  143.4620 N   0  0  0  0  0  0  0  0  0  0  0  0
  188.8000  177.3220  145.8900 C   0  0  0  0  0  3  0  0  0  0  0  0
  1 12  2  0  0  0  0
  1  2  1  0  0  0  0
  2 11  2  0  0  0  0
  3 19  1  1  0  0  0
  4 17  1  0  0  0  0
  4 14  2  0  0  0  0
  6  7  1  0  0  0  0
  7  8  2  0  0  0  0
  9 16  1  0  0  0  0
 11 14  1  0  0  0  0
 12  4  1  0  0  0  0
 13  7  1  0  0  0  0
 13  9  1  0  0  0  0
 14  3  1  0  0  0  0
 15 17  1  0  0  0  0
 15  9  2  0  0  0  0
 16  5  2  0  0  0  0
 16 10  1  0  0  0  0
 17 18  2  0  0  0  0
 18  3  1  0  0  0  0
 18  5  1  0  0  0  0
 19 26  1  0  0  0  0
 20 27  1  0  0  0  0
 21 23  1  0  0  0  0
 21 24  1  0  0  0  0
 22 21  2  0  0  0  0
 25 20  2  0  0  0  0
 25 22  1  0  0  0  0
 26 25  1  0  0  0  0
 26 20  1  0  0  0  0
 27 23  2  0  0  0  0
M  END
>  <MODEL>
5

>  <REMARK>
 VINA RESULT:      -9.6      2.596      6.937
  Name = 
  2 active torsions:
  status: ('A' for Active; 'I' for Inactive)
    1  A    between atoms: C_3  and  N_12
    2  A    between atoms: N_12  and  N_23
                            x       y       z     vdW  Elec       q    Type
                         _______ _______ _______ _____ _____    ______ ____

>  <TORSDO>
F 2

$$$$
=
 OpenBabel10222420113D

 27 31  0  0  1  0  0  0  0  0999 V2000
  184.3150  178.3350  146.5980 C   0  0  0  0  0  3  0  0  0  0  0  0
  183.8550  178.6580  145.3060 C   0  0  0  0  0  3  0  0  0  0  0  0
  187.2090  178.3660  143.4440 C   0  0  1  0  0  3  0  0  0  0  0  0
  186.5280  178.0750  145.7210 C   0  0  0  0  0  0  0  0  0  0  0  0
  189.7050  177.8690  144.0220 C   0  0  0  0  0  3  0  0  0  0  0  0
  192.9520  175.8970  148.4810 N   0  0  0  0  0  1  0  0  0  0  0  0
  192.0020  175.9870  147.4270 C   0  0  0  0  0  0  0  0  0  0  0  0
  192.0140  175.1320  146.5020 O   0  0  0  0  0  0  0  0  0  0  0  0
  190.1310  177.3430  146.3720 C   0  0  0  0  0  0  0  0  0  0  0  0
  192.0590  177.4810  144.7060 C   0  0  0  0  0  1  0  0  0  0  0  0
  184.7420  178.6880  144.2170 C   0  0  0  0  0  3  0  0  0  0  0  0
  185.6700  178.0400  146.8180 C   0  0  0  0  0  3  0  0  0  0  0  0
  191.0110  177.0190  147.4560 N   0  0  0  0  0  2  0  0  0  0  0  0
  186.0860  178.3880  144.4480 C   0  0  0  0  0  0  0  0  0  0  0  0
  188.8050  177.5220  146.6450 N   0  0  0  0  0  0  0  0  0  0  0  0
  190.6080  177.5360  145.0440 C   0  0  0  0  0  0  0  0  0  0  0  0
  187.9460  177.8350  145.6450 C   0  0  0  0  0  0  0  0  0  0  0  0
  188.3590  178.0010  144.3450 C   0  0  0  0  0  0  0  0  0  0  0  0
  186.9780  177.3050  142.4750 N   0  0  0  0  0  2  0  0  0  0  0  0
  188.9930  177.4410  140.6560 C   0  0  0  0  0  0  0  0  0  0  0  0
  189.0360  178.5160  138.1840 C   0  0  0  0  0  0  0  0  0  0  0  0
  187.8300  178.6590  138.8680 N   0  0  0  0  0  0  0  0  0  0  0  0
  190.2060  177.8260  138.7660 C   0  0  0  0  0  3  0  0  0  0  0  0
  189.1500  179.0540  136.8720 N   0  0  0  0  0  1  0  0  0  0  0  0
  187.9400  178.0920  140.0660 C   0  0  0  0  0  0  0  0  0  0  0  0
  187.7830  177.5760  141.3610 N   0  0  0  0  0  0  0  0  0  0  0  0
  190.2150  177.2370  140.0880 C   0  0  0  0  0  3  0  0  0  0  0  0
  1 12  1  0  0  0  0
  2  1  2  0  0  0  0
  3 19  1  6  0  0  0
  3 18  1  0  0  0  0
  3 14  1  0  0  0  0
  4 12  2  0  0  0  0
  5 18  1  0  0  0  0
  5 16  2  0  0  0  0
  7 13  1  0  0  0  0
  7  6  1  0  0  0  0
  8  7  2  0  0  0  0
  9 15  2  0  0  0  0
  9 13  1  0  0  0  0
 10 16  1  0  0  0  0
 11 14  2  0  0  0  0
 11  2  1  0  0  0  0
 14  4  1  0  0  0  0
 16  9  1  0  0  0  0
 17  4  1  0  0  0  0
 17 15  1  0  0  0  0
 18 17  2  0  0  0  0
 20 26  1  0  0  0  0
 21 23  1  0  0  0  0
 21 22  2  0  0  0  0
 22 25  1  0  0  0  0
 23 27  2  0  0  0  0
 24 21  1  0  0  0  0
 25 20  2  0  0  0  0
 25 26  1  0  0  0  0
 26 19  1  0  0  0  0
 27 20  1  0  0  0  0
M  END
>  <MODEL>
6

>  <REMARK>
 VINA RESULT:      -9.5      2.882      6.112
  Name = 
  2 active torsions:
  status: ('A' for Active; 'I' for Inactive)
    1  A    between atoms: C_3  and  N_12
    2  A    between atoms: N_12  and  N_23
                            x       y       z     vdW  Elec       q    Type
                         _______ _______ _______ _____ _____    ______ ____

>  <TORSDO>
F 2

$$$$
=
 OpenBabel10222420113D

 27 31  0  0  1  0  0  0  0  0999 V2000
  187.3970  177.9370  146.7460 C   0  0  0  0  0  3  0  0  0  0  0  0
  188.4950  177.6960  145.8960 C   0  0  0  0  0  3  0  0  0  0  0  0
  186.6300  177.8700  142.5360 C   0  0  1  0  0  3  0  0  0  0  0  0
  185.9750  178.1050  144.8270 C   0  0  0  0  0  0  0  0  0  0  0  0
  184.1800  178.1980  141.6980 C   0  0  0  0  0  3  0  0  0  0  0  0
  178.9310  179.7920  143.7500 N   0  0  0  0  0  1  0  0  0  0  0  0
  180.2990  179.8010  143.3640 C   0  0  0  0  0  0  0  0  0  0  0  0
  180.7190  180.6920  142.5780 O   0  0  0  0  0  0  0  0  0  0  0  0
  182.5360  178.6010  143.4610 C   0  0  0  0  0  0  0  0  0  0  0  0
  181.8020  178.4210  141.0240 C   0  0  0  0  0  1  0  0  0  0  0  0
  188.3250  177.6590  144.5020 C   0  0  0  0  0  3  0  0  0  0  0  0
  186.1150  178.1440  146.2120 C   0  0  0  0  0  3  0  0  0  0  0  0
  181.1940  178.8280  143.9110 N   0  0  0  0  0  2  0  0  0  0  0  0
  187.0470  177.8720  143.9840 C   0  0  0  0  0  0  0  0  0  0  0  0
  183.5230  178.4870  144.3990 N   0  0  0  0  0  0  0  0  0  0  0  0
  182.8520  178.4350  142.0820 C   0  0  0  0  0  0  0  0  0  0  0  0
  184.8020  178.2660  144.0090 C   0  0  0  0  0  0  0  0  0  0  0  0
  185.1550  178.1310  142.6870 C   0  0  0  0  0  0  0  0  0  0  0  0
  187.2650  178.9830  141.8430 N   0  0  0  0  0  2  0  0  0  0  0  0
  188.6280  178.4800  139.5470 C   0  0  0  0  0  0  0  0  0  0  0  0
  190.4640  176.5850  138.9920 C   0  0  0  0  0  0  0  0  0  0  0  0
  189.9310  176.5300  140.2790 N   0  0  0  0  0  0  0  0  0  0  0  0
  190.0590  177.6050  138.0030 C   0  0  0  0  0  3  0  0  0  0  0  0
  191.4400  175.6230  138.6120 N   0  0  0  0  0  1  0  0  0  0  0  0
  189.0440  177.5100  140.4230 C   0  0  0  0  0  0  0  0  0  0  0  0
  188.0790  178.4390  140.8410 N   0  0  0  0  0  0  0  0  0  0  0  0
  189.0770  178.6360  138.2700 C   0  0  0  0  0  3  0  0  0  0  0  0
  2  1  2  0  0  0  0
  3 19  1  6  0  0  0
  3 18  1  0  0  0  0
  3 14  1  0  0  0  0
  4 12  2  0  0  0  0
  5 16  2  0  0  0  0
  5 18  1  0  0  0  0
  7  6  1  0  0  0  0
  7 13  1  0  0  0  0
  8  7  2  0  0  0  0
  9 13  1  0  0  0  0
  9 15  2  0  0  0  0
 10 16  1  0  0  0  0
 11  2  1  0  0  0  0
 12  1  1  0  0  0  0
 14 11  2  0  0  0  0
 14  4  1  0  0  0  0
 16  9  1  0  0  0  0
 17 15  1  0  0  0  0
 17  4  1  0  0  0  0
 18 17  2  0  0  0  0
 20 25  1  0  0  0  0
 20 26  1  0  0  0  0
 21 22  1  0  0  0  0
 22 25  2  0  0  0  0
 23 27  1  0  0  0  0
 23 21  2  0  0  0  0
 24 21  1  0  0  0  0
 25 26  1  0  0  0  0
 26 19  1  0  0  0  0
 27 20  2  0  0  0  0
M  END
>  <MODEL>
7

>  <REMARK>
 VINA RESULT:      -9.5      2.997      7.553
  Name = 
  2 active torsions:
  status: ('A' for Active; 'I' for Inactive)
    1  A    between atoms: C_3  and  N_12
    2  A    between atoms: N_12  and  N_23
                            x       y       z     vdW  Elec       q    Type
                         _______ _______ _______ _____ _____    ______ ____

>  <TORSDO>
F 2

$$$$
=
 OpenBabel10222420113D

 27 31  0  0  1  0  0  0  0  0999 V2000
  185.2500  178.6990  146.8290 C   0  0  0  0  0  3  0  0  0  0  0  0
  186.5420  178.2080  146.5570 C   0  0  0  0  0  3  0  0  0  0  0  0
  186.1500  177.7160  142.7620 C   0  0  1  0  0  3  0  0  0  0  0  0
  184.7100  178.5050  144.5040 C   0  0  0  0  0  0  0  0  0  0  0  0
  184.2810  177.9830  140.9590 C   0  0  0  0  0  3  0  0  0  0  0  0
  178.9340  180.3000  140.3770 N   0  0  0  0  0  1  0  0  0  0  0  0
  180.3310  180.1430  140.5830 C   0  0  0  0  0  0  0  0  0  0  0  0
  181.1430  180.8050  139.8830 O   0  0  0  0  0  0  0  0  0  0  0  0
  182.1640  178.8710  141.7980 C   0  0  0  0  0  0  0  0  0  0  0  0
  182.4000  178.1810  139.3530 C   0  0  0  0  0  1  0  0  0  0  0  0
  186.9160  177.8640  145.2470 C   0  0  0  0  0  3  0  0  0  0  0  0
  184.3140  178.8510  145.7930 C   0  0  0  0  0  3  0  0  0  0  0  0
  180.7990  179.2710  141.6160 N   0  0  0  0  0  2  0  0  0  0  0  0
  185.9780  178.0250  144.2260 C   0  0  0  0  0  0  0  0  0  0  0  0
  182.6900  178.9190  143.0570 N   0  0  0  0  0  0  0  0  0  0  0  0
  182.9560  178.3770  140.7220 C   0  0  0  0  0  0  0  0  0  0  0  0
  183.9750  178.5420  143.2670 C   0  0  0  0  0  0  0  0  0  0  0  0
  184.7840  178.0880  142.2510 C   0  0  0  0  0  0  0  0  0  0  0  0
  187.1540  178.6030  142.1900 N   0  0  0  0  0  2  0  0  0  0  0  0
  189.6990  178.3780  143.1160 C   0  0  0  0  0  0  0  0  0  0  0  0
  191.1520  176.1820  143.6950 C   0  0  0  0  0  0  0  0  0  0  0  0
  189.8750  175.9290  143.1960 N   0  0  0  0  0  0  0  0  0  0  0  0
  191.6740  177.5490  143.8940 C   0  0  0  0  0  3  0  0  0  0  0  0
  191.9900  175.0810  144.0270 N   0  0  0  0  0  1  0  0  0  0  0  0
  189.2680  177.0860  142.9510 C   0  0  0  0  0  0  0  0  0  0  0  0
  188.4070  178.1410  142.6120 N   0  0  0  0  0  0  0  0  0  0  0  0
  190.9200  178.7480  143.5950 C   0  0  0  0  0  3  0  0  0  0  0  0
  2  1  1  0  0  0  0
  3 19  1  6  0  0  0
  3 14  1  0  0  0  0
  4 12  1  0  0  0  0
  5 18  1  0  0  0  0
  6  7  1  0  0  0  0
  7 13  1  0  0  0  0
  8  7  2  0  0  0  0
  9 15  2  0  0  0  0
 10 16  1  0  0  0  0
 11  2  2  0  0  0  0
 12  1  2  0  0  0  0
 13  9  1  0  0  0  0
 14  4  2  0  0  0  0
 14 11  1  0  0  0  0
 15 17  1  0  0  0  0
 16  5  2  0  0  0  0
 16  9  1  0  0  0  0
 17  4  1  0  0  0  0
 18  3  1  0  0  0  0
 18 17  2  0  0  0  0
 19 26  1  0  0  0  0
 20 27  1  0  0  0  0
 21 23  1  0  0  0  0
 21 24  1  0  0  0  0
 22 21  2  0  0  0  0
 25 20  2  0  0  0  0
 25 22  1  0  0  0  0
 26 25  1  0  0  0  0
 26 20  1  0  0  0  0
 27 23  2  0  0  0  0
M  END
>  <MODEL>
8

>  <REMARK>
 VINA RESULT:      -9.1      3.337      7.519
  Name = 
  2 active torsions:
  status: ('A' for Active; 'I' for Inactive)
    1  A    between atoms: C_3  and  N_12
    2  A    between atoms: N_12  and  N_23
                            x       y       z     vdW  Elec       q    Type
                         _______ _______ _______ _____ _____    ______ ____

>  <TORSDO>
F 2

$$$$
=
 OpenBabel10222420113D

 27 31  0  0  1  0  0  0  0  0999 V2000
  190.9230  176.6720  147.6360 C   0  0  0  0  0  3  0  0  0  0  0  0
  191.9590  176.3750  146.7290 C   0  0  0  0  0  3  0  0  0  0  0  0
  189.9810  176.8550  143.4650 C   0  0  1  0  0  3  0  0  0  0  0  0
  189.4430  177.0460  145.7900 C   0  0  0  0  0  0  0  0  0  0  0  0
  187.5370  177.4280  142.7500 C   0  0  0  0  0  3  0  0  0  0  0  0
  182.5370  179.3780  145.0960 N   0  0  0  0  0  1  0  0  0  0  0  0
  183.8830  179.2860  144.6510 C   0  0  0  0  0  0  0  0  0  0  0  0
  184.3470  180.1700  143.8830 O   0  0  0  0  0  0  0  0  0  0  0  0
  186.0080  177.8940  144.6000 C   0  0  0  0  0  0  0  0  0  0  0  0
  185.1620  177.8840  142.1930 C   0  0  0  0  0  1  0  0  0  0  0  0
  191.7300  176.4140  145.3430 C   0  0  0  0  0  3  0  0  0  0  0  0
  189.6420  177.0120  147.1680 C   0  0  0  0  0  3  0  0  0  0  0  0
  184.7110  178.2160  145.1180 N   0  0  0  0  0  2  0  0  0  0  0  0
  190.4550  176.7580  144.8910 C   0  0  0  0  0  0  0  0  0  0  0  0
  187.0180  177.6560  145.4870 N   0  0  0  0  0  0  0  0  0  0  0  0
  186.2510  177.7620  143.2030 C   0  0  0  0  0  0  0  0  0  0  0  0
  188.2560  177.3420  145.0320 C   0  0  0  0  0  0  0  0  0  0  0  0
  188.5420  177.2350  143.6910 C   0  0  0  0  0  0  0  0  0  0  0  0
  190.6820  177.9380  142.7890 N   0  0  0  0  0  2  0  0  0  0  0  0
  190.9300  177.1310  140.2060 C   0  0  0  0  0  0  0  0  0  0  0  0
  189.3450  177.5990  138.0760 C   0  0  0  0  0  0  0  0  0  0  0  0
  188.9330  178.2060  139.2620 N   0  0  0  0  0  0  0  0  0  0  0  0
  190.5580  176.7600  137.9880 C   0  0  0  0  0  3  0  0  0  0  0  0
  188.5680  177.7920  136.9000 N   0  0  0  0  0  1  0  0  0  0  0  0
  189.7950  177.9000  140.2270 C   0  0  0  0  0  0  0  0  0  0  0  0
  190.5300  177.7360  141.4110 N   0  0  0  0  0  0  0  0  0  0  0  0
  191.4290  176.4880  139.1120 C   0  0  0  0  0  3  0  0  0  0  0  0
  2  1  2  0  0  0  0
  3 19  1  6  0  0  0
  3 18  1  0  0  0  0
  3 14  1  0  0  0  0
  4 12  2  0  0  0  0
  5 16  2  0  0  0  0
  5 18  1  0  0  0  0
  7  6  1  0  0  0  0
  7 13  1  0  0  0  0
  8  7  2  0  0  0  0
  9 13  1  0  0  0  0
  9 15  2  0  0  0  0
 10 16  1  0  0  0  0
 11  2  1  0  0  0  0
 12  1  1  0  0  0  0
 14 11  2  0  0  0  0
 14  4  1  0  0  0  0
 16  9  1  0  0  0  0
 17 15  1  0  0  0  0
 17  4  1  0  0  0  0
 18 17  2  0  0  0  0
 20 25  1  0  0  0  0
 20 26  1  0  0  0  0
 21 22  1  0  0  0  0
 22 25  2  0  0  0  0
 23 21  2  0  0  0  0
 23 27  1  0  0  0  0
 24 21  1  0  0  0  0
 25 26  1  0  0  0  0
 26 19  1  0  0  0  0
 27 20  2  0  0  0  0
M  END
>  <MODEL>
9

>  <REMARK>
 VINA RESULT:      -9.0      2.422      6.256
  Name = 
  2 active torsions:
  status: ('A' for Active; 'I' for Inactive)
    1  A    between atoms: C_3  and  N_12
    2  A    between atoms: N_12  and  N_23
                            x       y       z     vdW  Elec       q    Type
                         _______ _______ _______ _____ _____    ______ ____

>  <TORSDO>
F 2

$$$$
