=
 OpenBabel10222420153D

 52 58  0  0  1  0  0  0  0  0999 V2000
  183.3340  177.7880  137.3690 C   0  0  1  0  0  3  0  0  0  0  0  0
  179.6900  176.7520  136.7530 C   0  0  0  0  0  3  0  0  0  0  0  0
  182.1430  175.5620  137.3150 C   0  0  0  0  0  3  0  0  0  0  0  0
  181.0020  174.7680  137.1840 C   0  0  0  0  0  0  0  0  0  0  0  0
  180.8240  177.5680  136.9030 C   0  0  0  0  0  0  0  0  0  0  0  0
  182.0780  176.9570  137.1660 C   0  0  0  0  0  0  0  0  0  0  0  0
  179.7770  175.3640  136.8910 C   0  0  0  0  0  3  0  0  0  0  0  0
  180.6650  179.0470  136.8320 C   0  0  0  0  0  0  0  0  0  0  0  0
  180.3820  181.2480  137.8720 C   0  0  0  0  0  0  0  0  0  0  0  0
  180.7960  179.6880  135.5890 C   0  0  0  0  0  3  0  0  0  0  0  0
  180.7260  181.0800  135.4840 C   0  0  0  0  0  3  0  0  0  0  0  0
  180.5310  181.8590  136.6250 C   0  0  0  0  0  3  0  0  0  0  0  0
  180.4230  179.8400  137.9840 C   0  0  0  0  0  0  0  0  0  0  0  0
  180.2360  179.2800  139.2520 C   0  0  0  0  0  3  0  0  0  0  0  0
  180.0220  180.1020  140.3610 C   0  0  0  0  0  0  0  0  0  0  0  0
  180.0310  181.4560  140.1830 N   0  0  0  0  0  0  0  0  0  0  0  0
  180.2030  182.0080  138.9820 N   0  0  0  0  0  0  0  0  0  0  0  0
  179.3520  180.3350  142.7170 N   0  0  0  0  0  0  0  0  0  0  0  0
  179.1400  178.4780  144.1300 N   0  0  0  0  0  0  0  0  0  0  0  0
  179.0540  179.8190  143.9330 C   0  0  0  0  0  3  0  0  0  0  0  0
  179.5160  177.6630  143.1430 N   0  0  0  0  0  0  0  0  0  0  0  0
  179.7440  179.5290  141.6940 C   0  0  0  0  0  0  0  0  0  0  0  0
  179.8260  178.1500  141.9140 C   0  0  0  0  0  3  0  0  0  0  0  0
  181.0980  173.2900  137.3390 C   0  0  0  0  0  2  0  0  0  0  0  0
  182.2990  172.8290  136.8000 O   0  0  0  0  0  0  0  0  0  0  0  0
  183.5600  170.8380  136.4970 C   0  0  0  0  0  1  0  0  0  0  0  0
  182.2870  171.4550  137.0360 C   0  0  0  0  0  2  0  0  0  0  0  0
  184.3450  178.5980  141.4860 C   0  0  0  0  0  0  0  0  0  0  0  0
  184.9610  179.3010  140.4440 C   0  0  0  0  0  3  0  0  0  0  0  0
  184.6140  179.0370  139.1170 C   0  0  0  0  0  3  0  0  0  0  0  0
  183.4050  177.6060  141.1900 C   0  0  0  0  0  3  0  0  0  0  0  0
  183.0650  177.3320  139.8590 C   0  0  0  0  0  3  0  0  0  0  0  0
  183.6540  178.0650  138.8140 C   0  0  0  0  0  0  0  0  0  0  0  0
  184.7380  178.8400  142.9090 C   0  0  0  0  0  2  0  0  0  0  0  0
  185.4570  177.6910  143.4560 N   0  0  0  0  0  2  0  0  0  0  0  0
  186.4760  178.1970  144.3740 C   0  0  2  0  0  3  0  0  0  0  0  0
  187.7330  177.5150  146.2470 N   0  0  0  0  0  2  0  0  0  0  0  0
  187.8390  177.9730  143.9040 N   0  0  2  0  0  0  0  0  0  0  0  0
  186.3810  177.5320  145.7190 C   0  0  0  0  0  2  0  0  0  0  0  0
  189.1930  176.1800  143.5600 N   0  0  0  0  0  2  0  0  0  0  0  0
  187.9300  176.7220  143.2570 N   0  0  0  0  0  2  0  0  0  0  0  0
  189.5420  176.6830  144.8740 C   0  0  0  0  0  2  0  0  0  0  0  0
  188.6190  177.8340  145.1250 C   0  0  2  0  0  3  0  0  0  0  0  0
  184.5460  177.2920  136.6300 C   0  0  0  0  0  3  0  0  0  0  0  0
  185.1510  176.1580  136.9820 C   0  0  0  0  0  3  0  0  0  0  0  0
  186.5580  175.5640  136.0520 S   0  0  0  0  0  0  0  0  0  0  0  0
  187.9740  177.2620  137.5690 N   0  0  0  0  0  0  0  0  0  0  0  0
  187.4860  177.0540  136.3890 C   0  0  0  0  0  3  0  0  0  0  0  0
  188.7120  179.4430  137.1090 O   0  0  0  0  0  0  0  0  0  0  0  0
  188.7010  178.4520  137.8940 C   0  0  0  0  0  0  0  0  0  0  0  0
  188.9010  177.4870  140.1510 C   0  0  0  0  0  1  0  0  0  0  0  0
  189.4330  178.5390  139.1890 C   0  0  0  0  0  2  0  0  0  0  0  0
  1 44  1  1  0  0  0
  1 33  1  0  0  0  0
  2  7  2  0  0  0  0
  2  5  1  0  0  0  0
  4  3  2  0  0  0  0
  4 24  1  0  0  0  0
  5  6  2  0  0  0  0
  6  3  1  0  0  0  0
  6  1  1  0  0  0  0
  7  4  1  0  0  0  0
  8  5  1  0  0  0  0
  8 13  1  0  0  0  0
  9 13  2  0  0  0  0
  9 17  1  0  0  0  0
 10  8  2  0  0  0  0
 11 10  1  0  0  0  0
 11 12  2  0  0  0  0
 12  9  1  0  0  0  0
 13 14  1  0  0  0  0
 14 15  2  0  0  0  0
 15 22  1  0  0  0  0
 16 15  1  0  0  0  0
 17 16  2  0  0  0  0
 18 20  1  0  0  0  0
 20 19  2  0  0  0  0
 21 19  1  0  0  0  0
 22 23  1  0  0  0  0
 22 18  2  0  0  0  0
 23 21  2  0  0  0  0
 25 27  1  0  0  0  0
 25 24  1  0  0  0  0
 26 27  1  0  0  0  0
 28 34  1  0  0  0  0
 29 28  2  0  0  0  0
 30 29  1  0  0  0  0
 31 28  1  0  0  0  0
 32 31  2  0  0  0  0
 33 30  2  0  0  0  0
 33 32  1  0  0  0  0
 34 35  1  0  0  0  0
 36 35  1  6  0  0  0
 36 39  1  0  0  0  0
 38 41  1  6  0  0  0
 38 36  1  0  0  0  0
 38 43  1  0  0  0  0
 39 37  1  0  0  0  0
 40 42  1  0  0  0  0
 41 40  1  0  0  0  0
 43 42  1  6  0  0  0
 43 37  1  0  0  0  0
 44 45  2  0  0  0  0
 46 48  1  0  0  0  0
 46 45  1  0  0  0  0
 47 50  1  0  0  0  0
 48 47  2  0  0  0  0
 49 50  2  0  0  0  0
 50 52  1  0  0  0  0
 52 51  1  0  0  0  0
M  END
>  <MODEL>
1

>  <REMARK>
 VINA RESULT:      -7.3      0.000      0.000
  Name = 
  15 active torsions:
  status: ('A' for Active; 'I' for Inactive)
    1  A    between atoms: N_1  and  C_32
    2  A    between atoms: C_2  and  N_43
    3  A    between atoms: C_3  and  C_24
    4  A    between atoms: C_8  and  C_34
    5  A    between atoms: C_10  and  C_19
    6  A    between atoms: C_10  and  O_26
    7  A    between atoms: C_14  and  C_27
    8  A    between atoms: C_14  and  C_31
    9  A    between atoms: C_14  and  C_50
   10  A    between atoms: C_18  and  C_42
   11  A    between atoms: S_25  and  C_37
   12  A    between atoms: S_25  and  C_52
   13  A    between atoms: O_26  and  C_47
   14  A    between atoms: C_32  and  C_36
   15  A    between atoms: C_34  and  N_43
                            x       y       z     vdW  Elec       q    Type
                         _______ _______ _______ _____ _____    ______ ____

>  <TORSDO>
F 15

$$$$
=
 OpenBabel10222420153D

 52 58  0  0  1  0  0  0  0  0999 V2000
  181.4710  178.5040  139.6810 C   0  0  1  0  0  3  0  0  0  0  0  0
  180.5740  178.8670  135.9670 C   0  0  0  0  0  3  0  0  0  0  0  0
  181.0570  180.4900  138.1770 C   0  0  0  0  0  3  0  0  0  0  0  0
  180.7710  181.0710  136.9410 C   0  0  0  0  0  0  0  0  0  0  0  0
  180.8820  178.2660  137.1980 C   0  0  0  0  0  0  0  0  0  0  0  0
  181.1040  179.0940  138.3290 C   0  0  0  0  0  0  0  0  0  0  0  0
  180.5180  180.2580  135.8380 C   0  0  0  0  0  3  0  0  0  0  0  0
  181.0140  176.7840  137.2660 C   0  0  0  0  0  0  0  0  0  0  0  0
  182.3470  174.7300  137.3520 C   0  0  0  0  0  0  0  0  0  0  0  0
  179.8620  176.0040  137.4590 C   0  0  0  0  0  3  0  0  0  0  0  0
  179.9440  174.6160  137.6000 C   0  0  0  0  0  3  0  0  0  0  0  0
  181.1860  173.9810  137.5590 C   0  0  0  0  0  3  0  0  0  0  0  0
  182.2710  176.1300  137.1800 C   0  0  0  0  0  0  0  0  0  0  0  0
  183.4610  176.8250  136.9450 C   0  0  0  0  0  3  0  0  0  0  0  0
  184.6780  176.1410  136.8910 C   0  0  0  0  0  0  0  0  0  0  0  0
  184.6800  174.7920  137.1020 N   0  0  0  0  0  0  0  0  0  0  0  0
  183.5560  174.1110  137.3230 N   0  0  0  0  0  0  0  0  0  0  0  0
  186.9530  176.8800  137.4680 N   0  0  0  0  0  0  0  0  0  0  0  0
  188.2910  178.0590  135.9470 N   0  0  0  0  0  0  0  0  0  0  0  0
  188.1270  177.4860  137.1680 C   0  0  0  0  0  3  0  0  0  0  0  0
  187.3130  178.0340  135.0410 N   0  0  0  0  0  0  0  0  0  0  0  0
  185.9350  176.8450  136.5650 C   0  0  0  0  0  0  0  0  0  0  0  0
  186.1220  177.4380  135.3120 C   0  0  0  0  0  3  0  0  0  0  0  0
  180.7200  182.5540  136.8050 C   0  0  0  0  0  2  0  0  0  0  0  0
  181.4810  183.1530  137.8100 O   0  0  0  0  0  0  0  0  0  0  0  0
  180.7230  184.8300  136.3080 C   0  0  0  0  0  1  0  0  0  0  0  0
  181.7730  184.4250  137.3190 C   0  0  0  0  0  2  0  0  0  0  0  0
  185.7140  178.6350  140.4610 C   0  0  0  0  0  0  0  0  0  0  0  0
  185.1670  179.3010  139.3580 C   0  0  0  0  0  3  0  0  0  0  0  0
  183.7890  179.2600  139.1260 C   0  0  0  0  0  3  0  0  0  0  0  0
  184.8790  177.9010  141.3100 C   0  0  0  0  0  3  0  0  0  0  0  0
  183.5010  177.8500  141.0710 C   0  0  0  0  0  3  0  0  0  0  0  0
  182.9450  178.5500  139.9860 C   0  0  0  0  0  0  0  0  0  0  0  0
  187.1910  178.6340  140.6970 C   0  0  0  0  0  2  0  0  0  0  0  0
  187.5010  178.2640  142.0760 N   0  0  0  0  0  2  0  0  0  0  0  0
  188.3520  177.0750  142.0400 C   0  0  2  0  0  3  0  0  0  0  0  0
  190.4720  176.3810  141.2800 N   0  0  0  0  0  2  0  0  0  0  0  0
  189.1950  176.9330  143.2230 N   0  0  2  0  0  0  0  0  0  0  0  0
  189.2840  177.1050  140.8620 C   0  0  0  0  0  2  0  0  0  0  0  0
  190.9600  178.0370  144.1350 N   0  0  0  0  0  2  0  0  0  0  0  0
  189.6490  178.1990  143.6520 N   0  0  0  0  0  2  0  0  0  0  0  0
  191.5360  176.9450  143.3770 C   0  0  0  0  0  2  0  0  0  0  0  0
  190.3800  176.2440  142.7350 C   0  0  2  0  0  3  0  0  0  0  0  0
  180.6610  179.0200  140.8370 C   0  0  0  0  0  3  0  0  0  0  0  0
  180.5590  178.3260  141.9700 C   0  0  0  0  0  3  0  0  0  0  0  0
  179.6330  178.9890  143.3490 S   0  0  0  0  0  0  0  0  0  0  0  0
  182.2820  179.0360  143.7620 N   0  0  0  0  0  0  0  0  0  0  0  0
  181.1310  179.3710  144.2480 C   0  0  0  0  0  3  0  0  0  0  0  0
  184.3740  180.0810  143.9750 O   0  0  0  0  0  0  0  0  0  0  0  0
  183.5070  179.2960  144.4560 C   0  0  0  0  0  0  0  0  0  0  0  0
  185.2450  178.6930  146.0930 C   0  0  0  0  0  1  0  0  0  0  0  0
  183.7570  178.6560  145.7780 C   0  0  0  0  0  2  0  0  0  0  0  0
  1 33  1  0  0  0  0
  1 44  1  1  0  0  0
  2  5  1  0  0  0  0
  3  6  1  0  0  0  0
  4  3  2  0  0  0  0
  5  8  1  0  0  0  0
  5  6  2  0  0  0  0
  6  1  1  0  0  0  0
  7  2  2  0  0  0  0
  7  4  1  0  0  0  0
  8 10  1  0  0  0  0
  9 12  2  0  0  0  0
 10 11  2  0  0  0  0
 12 11  1  0  0  0  0
 13  8  2  0  0  0  0
 13  9  1  0  0  0  0
 14 13  1  0  0  0  0
 15 14  2  0  0  0  0
 15 16  1  0  0  0  0
 16 17  2  0  0  0  0
 17  9  1  0  0  0  0
 19 20  2  0  0  0  0
 20 18  1  0  0  0  0
 21 23  2  0  0  0  0
 21 19  1  0  0  0  0
 22 15  1  0  0  0  0
 22 18  2  0  0  0  0
 23 22  1  0  0  0  0
 24  4  1  0  0  0  0
 24 25  1  0  0  0  0
 26 27  1  0  0  0  0
 27 25  1  0  0  0  0
 28 34  1  0  0  0  0
 28 31  1  0  0  0  0
 29 28  2  0  0  0  0
 30 29  1  0  0  0  0
 30 33  2  0  0  0  0
 32 31  2  0  0  0  0
 33 32  1  0  0  0  0
 34 35  1  0  0  0  0
 36 35  1  1  0  0  0
 36 38  1  0  0  0  0
 37 43  1  0  0  0  0
 38 41  1  6  0  0  0
 39 37  1  0  0  0  0
 39 36  1  0  0  0  0
 41 40  1  0  0  0  0
 42 40  1  0  0  0  0
 43 38  1  0  0  0  0
 43 42  1  1  0  0  0
 44 45  2  0  0  0  0
 45 46  1  0  0  0  0
 46 48  1  0  0  0  0
 47 48  2  0  0  0  0
 47 50  1  0  0  0  0
 49 50  2  0  0  0  0
 50 52  1  0  0  0  0
 52 51  1  0  0  0  0
M  END
>  <MODEL>
2

>  <REMARK>
 VINA RESULT:      -7.0      3.072      6.999
  Name = 
  15 active torsions:
  status: ('A' for Active; 'I' for Inactive)
    1  A    between atoms: N_1  and  C_32
    2  A    between atoms: C_2  and  N_43
    3  A    between atoms: C_3  and  C_24
    4  A    between atoms: C_8  and  C_34
    5  A    between atoms: C_10  and  C_19
    6  A    between atoms: C_10  and  O_26
    7  A    between atoms: C_14  and  C_27
    8  A    between atoms: C_14  and  C_31
    9  A    between atoms: C_14  and  C_50
   10  A    between atoms: C_18  and  C_42
   11  A    between atoms: S_25  and  C_37
   12  A    between atoms: S_25  and  C_52
   13  A    between atoms: O_26  and  C_47
   14  A    between atoms: C_32  and  C_36
   15  A    between atoms: C_34  and  N_43
                            x       y       z     vdW  Elec       q    Type
                         _______ _______ _______ _____ _____    ______ ____

>  <TORSDO>
F 15

$$$$
=
 OpenBabel10222420153D

 52 58  0  0  1  0  0  0  0  0999 V2000
  182.9290  177.6430  140.4970 C   0  0  1  0  0  3  0  0  0  0  0  0
  186.6230  178.5970  140.9190 C   0  0  0  0  0  3  0  0  0  0  0  0
  184.8520  177.9120  138.8830 C   0  0  0  0  0  3  0  0  0  0  0  0
  186.1770  178.2230  138.5720 C   0  0  0  0  0  0  0  0  0  0  0  0
  185.2880  178.3080  141.2460 C   0  0  0  0  0  0  0  0  0  0  0  0
  184.3930  177.9360  140.2100 C   0  0  0  0  0  0  0  0  0  0  0  0
  187.0650  178.5540  139.5940 C   0  0  0  0  0  3  0  0  0  0  0  0
  184.8440  178.4510  142.6610 C   0  0  0  0  0  0  0  0  0  0  0  0
  185.2690  178.4630  145.0740 C   0  0  0  0  0  0  0  0  0  0  0  0
  183.5300  178.8740  142.9240 C   0  0  0  0  0  3  0  0  0  0  0  0
  183.0900  179.0910  144.2320 C   0  0  0  0  0  3  0  0  0  0  0  0
  183.9610  178.8970  145.3050 C   0  0  0  0  0  3  0  0  0  0  0  0
  185.7130  178.2130  143.7570 C   0  0  0  0  0  0  0  0  0  0  0  0
  187.0220  177.7490  143.5860 C   0  0  0  0  0  3  0  0  0  0  0  0
  187.8490  177.5490  144.6940 C   0  0  0  0  0  0  0  0  0  0  0  0
  187.3630  177.8460  145.9350 N   0  0  0  0  0  0  0  0  0  0  0  0
  186.1180  178.2850  146.1190 N   0  0  0  0  0  0  0  0  0  0  0  0
  189.5890  176.4340  143.3580 N   0  0  0  0  0  0  0  0  0  0  0  0
  191.7300  176.0230  144.2160 N   0  0  0  0  0  0  0  0  0  0  0  0
  190.8420  175.9500  143.1900 C   0  0  0  0  0  3  0  0  0  0  0  0
  191.3840  176.5630  145.3860 N   0  0  0  0  0  0  0  0  0  0  0  0
  189.2060  176.9850  144.5420 C   0  0  0  0  0  0  0  0  0  0  0  0
  190.1330  177.0540  145.5860 C   0  0  0  0  0  3  0  0  0  0  0  0
  186.6430  178.1840  137.1580 C   0  0  0  0  0  2  0  0  0  0  0  0
  187.3530  177.0060  136.9210 O   0  0  0  0  0  0  0  0  0  0  0  0
  189.1990  178.4720  136.6270 C   0  0  0  0  0  1  0  0  0  0  0  0
  188.3530  177.3730  136.0210 C   0  0  0  0  0  2  0  0  0  0  0  0
  180.2110  180.8860  139.6510 C   0  0  0  0  0  0  0  0  0  0  0  0
  179.8270  179.8270  140.4820 C   0  0  0  0  0  3  0  0  0  0  0  0
  180.7230  178.7910  140.7570 C   0  0  0  0  0  3  0  0  0  0  0  0
  181.4840  180.8840  139.0700 C   0  0  0  0  0  3  0  0  0  0  0  0
  182.3770  179.8400  139.3360 C   0  0  0  0  0  3  0  0  0  0  0  0
  182.0070  178.7960  140.2020 C   0  0  0  0  0  0  0  0  0  0  0  0
  179.2480  181.9800  139.3120 C   0  0  0  0  0  2  0  0  0  0  0  0
  178.9330  181.9780  137.8850 N   0  0  0  0  0  2  0  0  0  0  0  0
  180.1410  182.3670  137.1600 C   0  0  2  0  0  3  0  0  0  0  0  0
  180.8180  183.1280  135.0350 N   0  0  0  0  0  2  0  0  0  0  0  0
  180.4730  183.7800  137.3080 N   0  0  2  0  0  0  0  0  0  0  0  0
  179.9960  182.1220  135.6840 C   0  0  0  0  0  2  0  0  0  0  0  0
  179.5740  185.7640  136.6580 N   0  0  0  0  0  2  0  0  0  0  0  0
  179.2950  184.5570  137.3250 N   0  0  0  0  0  2  0  0  0  0  0  0
  180.5800  185.4510  135.6640 C   0  0  0  0  0  2  0  0  0  0  0  0
  181.1420  184.1210  136.0610 C   0  0  2  0  0  3  0  0  0  0  0  0
  182.4110  176.3660  139.8970 C   0  0  0  0  0  3  0  0  0  0  0  0
  181.6880  176.3750  138.7780 C   0  0  0  0  0  3  0  0  0  0  0  0
  181.1300  174.8370  138.0560 S   0  0  0  0  0  0  0  0  0  0  0  0
  183.0630  173.2040  137.1700 N   0  0  0  0  0  0  0  0  0  0  0  0
  182.7850  174.4160  137.5280 C   0  0  0  0  0  3  0  0  0  0  0  0
  184.6010  172.3850  135.5950 O   0  0  0  0  0  0  0  0  0  0  0  0
  184.3800  172.8120  136.7650 C   0  0  0  0  0  0  0  0  0  0  0  0
  186.8320  172.9090  136.9630 C   0  0  0  0  0  1  0  0  0  0  0  0
  185.5140  172.9340  137.7230 C   0  0  0  0  0  2  0  0  0  0  0  0
  1 44  1  6  0  0  0
  2  5  1  0  0  0  0
  3  6  1  0  0  0  0
  4  3  2  0  0  0  0
  4  7  1  0  0  0  0
  5  8  1  0  0  0  0
  6  1  1  0  0  0  0
  6  5  2  0  0  0  0
  7  2  2  0  0  0  0
  8 10  2  0  0  0  0
  8 13  1  0  0  0  0
  9 12  1  0  0  0  0
  9 17  1  0  0  0  0
 10 11  1  0  0  0  0
 11 12  2  0  0  0  0
 13  9  2  0  0  0  0
 14 13  1  0  0  0  0
 14 15  2  0  0  0  0
 15 16  1  0  0  0  0
 16 17  2  0  0  0  0
 18 22  1  0  0  0  0
 19 21  2  0  0  0  0
 20 18  2  0  0  0  0
 20 19  1  0  0  0  0
 21 23  1  0  0  0  0
 22 15  1  0  0  0  0
 22 23  2  0  0  0  0
 24  4  1  0  0  0  0
 25 24  1  0  0  0  0
 27 26  1  0  0  0  0
 27 25  1  0  0  0  0
 28 29  1  0  0  0  0
 29 30  2  0  0  0  0
 31 32  1  0  0  0  0
 31 28  2  0  0  0  0
 32 33  2  0  0  0  0
 33  1  1  0  0  0  0
 33 30  1  0  0  0  0
 34 28  1  0  0  0  0
 35 34  1  0  0  0  0
 36 38  1  0  0  0  0
 36 35  1  1  0  0  0
 37 39  1  0  0  0  0
 37 43  1  0  0  0  0
 38 41  1  6  0  0  0
 39 36  1  0  0  0  0
 40 41  1  0  0  0  0
 42 40  1  0  0  0  0
 43 42  1  6  0  0  0
 43 38  1  0  0  0  0
 45 44  2  0  0  0  0
 46 45  1  0  0  0  0
 47 48  2  0  0  0  0
 48 46  1  0  0  0  0
 49 50  2  0  0  0  0
 50 47  1  0  0  0  0
 50 52  1  0  0  0  0
 51 52  1  0  0  0  0
M  END
>  <MODEL>
3

>  <REMARK>
 VINA RESULT:      -6.4      2.646      8.932
  Name = 
  15 active torsions:
  status: ('A' for Active; 'I' for Inactive)
    1  A    between atoms: N_1  and  C_32
    2  A    between atoms: C_2  and  N_43
    3  A    between atoms: C_3  and  C_24
    4  A    between atoms: C_8  and  C_34
    5  A    between atoms: C_10  and  C_19
    6  A    between atoms: C_10  and  O_26
    7  A    between atoms: C_14  and  C_27
    8  A    between atoms: C_14  and  C_31
    9  A    between atoms: C_14  and  C_50
   10  A    between atoms: C_18  and  C_42
   11  A    between atoms: S_25  and  C_37
   12  A    between atoms: S_25  and  C_52
   13  A    between atoms: O_26  and  C_47
   14  A    between atoms: C_32  and  C_36
   15  A    between atoms: C_34  and  N_43
                            x       y       z     vdW  Elec       q    Type
                         _______ _______ _______ _____ _____    ______ ____

>  <TORSDO>
F 15

$$$$
=
 OpenBabel10222420153D

 52 58  0  0  1  0  0  0  0  0999 V2000
  183.8330  178.6240  139.4640 C   0  0  1  0  0  3  0  0  0  0  0  0
  180.5700  179.7480  141.1430 C   0  0  0  0  0  3  0  0  0  0  0  0
  183.0280  178.6530  141.8570 C   0  0  0  0  0  3  0  0  0  0  0  0
  182.0860  178.9410  142.8450 C   0  0  0  0  0  0  0  0  0  0  0  0
  181.5150  179.4830  140.1380 C   0  0  0  0  0  0  0  0  0  0  0  0
  182.7580  178.9030  140.5010 C   0  0  0  0  0  0  0  0  0  0  0  0
  180.8510  179.4780  142.4850 C   0  0  0  0  0  3  0  0  0  0  0  0
  181.2020  179.8670  138.7340 C   0  0  0  0  0  0  0  0  0  0  0  0
  180.2390  179.4130  136.5270 C   0  0  0  0  0  0  0  0  0  0  0  0
  181.4690  181.1800  138.3100 C   0  0  0  0  0  3  0  0  0  0  0  0
  181.1270  181.6070  137.0240 C   0  0  0  0  0  3  0  0  0  0  0  0
  180.5020  180.7280  136.1380 C   0  0  0  0  0  3  0  0  0  0  0  0
  180.6070  178.9650  137.8150 C   0  0  0  0  0  0  0  0  0  0  0  0
  180.3480  177.6290  138.1400 C   0  0  0  0  0  3  0  0  0  0  0  0
  179.7400  176.7820  137.2110 C   0  0  0  0  0  0  0  0  0  0  0  0
  179.3790  177.2950  135.9970 N   0  0  0  0  0  0  0  0  0  0  0  0
  179.6210  178.5630  135.6670 N   0  0  0  0  0  0  0  0  0  0  0  0
  179.0910  174.5080  136.5300 N   0  0  0  0  0  0  0  0  0  0  0  0
  179.2250  172.6930  138.0060 N   0  0  0  0  0  0  0  0  0  0  0  0
  178.9330  173.1850  136.7740 C   0  0  0  0  0  3  0  0  0  0  0  0
  179.6620  173.4940  138.9790 N   0  0  0  0  0  0  0  0  0  0  0  0
  179.5300  175.3500  137.5050 C   0  0  0  0  0  0  0  0  0  0  0  0
  179.8270  174.8260  138.7670 C   0  0  0  0  0  3  0  0  0  0  0  0
  182.3920  178.6600  144.2760 C   0  0  0  0  0  2  0  0  0  0  0  0
  183.5350  179.3600  144.6670 O   0  0  0  0  0  0  0  0  0  0  0  0
  185.5980  179.0610  145.8050 C   0  0  0  0  0  1  0  0  0  0  0  0
  184.2920  178.4290  145.3770 C   0  0  0  0  0  2  0  0  0  0  0  0
  187.8520  178.3970  141.0200 C   0  0  0  0  0  0  0  0  0  0  0  0
  187.6040  178.2490  139.6500 C   0  0  0  0  0  3  0  0  0  0  0  0
  186.2980  178.3380  139.1600 C   0  0  0  0  0  3  0  0  0  0  0  0
  186.7830  178.6000  141.8990 C   0  0  0  0  0  3  0  0  0  0  0  0
  185.4740  178.6770  141.4090 C   0  0  0  0  0  3  0  0  0  0  0  0
  185.2270  178.5680  140.0290 C   0  0  0  0  0  0  0  0  0  0  0  0
  189.2390  178.2600  141.5640 C   0  0  0  0  0  2  0  0  0  0  0  0
  189.5290  176.8720  141.9170 N   0  0  0  0  0  2  0  0  0  0  0  0
  190.6140  176.8770  142.8970 C   0  0  2  0  0  3  0  0  0  0  0  0
  191.6040  178.2870  144.5040 N   0  0  0  0  0  2  0  0  0  0  0  0
  190.2130  176.3670  144.2040 N   0  0  2  0  0  0  0  0  0  0  0  0
  191.1350  178.2670  143.1300 C   0  0  0  0  0  2  0  0  0  0  0  0
  188.8370  177.0350  145.8850 N   0  0  0  0  0  2  0  0  0  0  0  0
  188.8970  176.7780  144.5030 N   0  0  0  0  0  2  0  0  0  0  0  0
  190.1620  177.4790  146.2700 C   0  0  0  0  0  2  0  0  0  0  0  0
  191.0640  177.0850  145.1420 C   0  0  2  0  0  3  0  0  0  0  0  0
  183.5610  177.4430  138.5740 C   0  0  0  0  0  3  0  0  0  0  0  0
  183.7410  177.5180  137.2560 C   0  0  0  0  0  3  0  0  0  0  0  0
  183.4610  176.0810  136.2280 S   0  0  0  0  0  0  0  0  0  0  0  0
  186.1120  175.8550  136.5630 N   0  0  0  0  0  0  0  0  0  0  0  0
  185.1690  176.0540  135.6990 C   0  0  0  0  0  3  0  0  0  0  0  0
  187.8490  176.0560  134.9960 O   0  0  0  0  0  0  0  0  0  0  0  0
  187.4950  175.8510  136.1930 C   0  0  0  0  0  0  0  0  0  0  0  0
  189.2480  174.3100  136.9780 C   0  0  0  0  0  1  0  0  0  0  0  0
  188.5370  175.6310  137.2340 C   0  0  0  0  0  2  0  0  0  0  0  0
  1 44  1  1  0  0  0
  1 33  1  0  0  0  0
  1  6  1  0  0  0  0
  2  7  1  0  0  0  0
  3  4  1  0  0  0  0
  4 24  1  0  0  0  0
  5  6  1  0  0  0  0
  5  2  2  0  0  0  0
  6  3  2  0  0  0  0
  7  4  2  0  0  0  0
  8  5  1  0  0  0  0
  9 13  1  0  0  0  0
 10  8  1  0  0  0  0
 11 10  2  0  0  0  0
 12  9  2  0  0  0  0
 12 11  1  0  0  0  0
 13 14  1  0  0  0  0
 13  8  2  0  0  0  0
 15 22  1  0  0  0  0
 15 14  2  0  0  0  0
 16 15  1  0  0  0  0
 17 16  2  0  0  0  0
 17  9  1  0  0  0  0
 18 20  2  0  0  0  0
 18 22  1  0  0  0  0
 19 21  2  0  0  0  0
 20 19  1  0  0  0  0
 22 23  2  0  0  0  0
 23 21  1  0  0  0  0
 24 25  1  0  0  0  0
 25 27  1  0  0  0  0
 27 26  1  0  0  0  0
 28 34  1  0  0  0  0
 28 31  1  0  0  0  0
 29 28  2  0  0  0  0
 30 29  1  0  0  0  0
 30 33  2  0  0  0  0
 32 31  2  0  0  0  0
 33 32  1  0  0  0  0
 34 35  1  0  0  0  0
 36 35  1  6  0  0  0
 36 39  1  0  0  0  0
 36 38  1  0  0  0  0
 37 43  1  0  0  0  0
 38 41  1  1  0  0  0
 38 43  1  0  0  0  0
 39 37  1  0  0  0  0
 40 42  1  0  0  0  0
 41 40  1  0  0  0  0
 43 42  1  1  0  0  0
 45 44  2  0  0  0  0
 46 45  1  0  0  0  0
 48 46  1  0  0  0  0
 48 47  2  0  0  0  0
 49 50  2  0  0  0  0
 50 47  1  0  0  0  0
 50 52  1  0  0  0  0
 51 52  1  0  0  0  0
M  END
>  <MODEL>
4

>  <REMARK>
 VINA RESULT:      -6.0      2.892      5.154
  Name = 
  15 active torsions:
  status: ('A' for Active; 'I' for Inactive)
    1  A    between atoms: N_1  and  C_32
    2  A    between atoms: C_2  and  N_43
    3  A    between atoms: C_3  and  C_24
    4  A    between atoms: C_8  and  C_34
    5  A    between atoms: C_10  and  C_19
    6  A    between atoms: C_10  and  O_26
    7  A    between atoms: C_14  and  C_27
    8  A    between atoms: C_14  and  C_31
    9  A    between atoms: C_14  and  C_50
   10  A    between atoms: C_18  and  C_42
   11  A    between atoms: S_25  and  C_37
   12  A    between atoms: S_25  and  C_52
   13  A    between atoms: O_26  and  C_47
   14  A    between atoms: C_32  and  C_36
   15  A    between atoms: C_34  and  N_43
                            x       y       z     vdW  Elec       q    Type
                         _______ _______ _______ _____ _____    ______ ____

>  <TORSDO>
F 15

$$$$
=
 OpenBabel10222420153D

 52 58  0  0  1  0  0  0  0  0999 V2000
  183.6990  177.9270  138.4210 C   0  0  1  0  0  3  0  0  0  0  0  0
  185.6370  177.0420  135.2290 C   0  0  0  0  0  3  0  0  0  0  0  0
  186.0300  178.4460  137.6000 C   0  0  0  0  0  3  0  0  0  0  0  0
  187.0680  178.3510  136.6720 C   0  0  0  0  0  0  0  0  0  0  0  0
  184.5890  177.1080  136.1620 C   0  0  0  0  0  0  0  0  0  0  0  0
  184.7840  177.8450  137.3590 C   0  0  0  0  0  0  0  0  0  0  0  0
  186.8660  177.6580  135.4800 C   0  0  0  0  0  3  0  0  0  0  0  0
  183.3290  176.3630  135.8880 C   0  0  0  0  0  0  0  0  0  0  0  0
  182.0590  174.2890  135.5940 C   0  0  0  0  0  0  0  0  0  0  0  0
  182.1220  177.0760  135.7980 C   0  0  0  0  0  3  0  0  0  0  0  0
  180.9050  176.4140  135.6130 C   0  0  0  0  0  3  0  0  0  0  0  0
  180.8720  175.0220  135.5230 C   0  0  0  0  0  3  0  0  0  0  0  0
  183.2960  174.9510  135.7520 C   0  0  0  0  0  0  0  0  0  0  0  0
  184.4560  174.1700  135.7850 C   0  0  0  0  0  3  0  0  0  0  0  0
  184.3740  172.7810  135.6680 C   0  0  0  0  0  0  0  0  0  0  0  0
  183.1400  172.2060  135.5540 N   0  0  0  0  0  0  0  0  0  0  0  0
  182.0240  172.9340  135.5170 N   0  0  0  0  0  0  0  0  0  0  0  0
  186.7870  172.4540  136.0230 N   0  0  0  0  0  0  0  0  0  0  0  0
  187.8250  170.3910  135.6240 N   0  0  0  0  0  0  0  0  0  0  0  0
  187.9030  171.6880  136.0240 C   0  0  0  0  0  3  0  0  0  0  0  0
  186.6650  169.8640  135.2300 N   0  0  0  0  0  0  0  0  0  0  0  0
  185.5910  171.9450  135.6210 C   0  0  0  0  0  0  0  0  0  0  0  0
  185.5280  170.6080  135.2130 C   0  0  0  0  0  3  0  0  0  0  0  0
  188.3790  179.0030  136.9460 C   0  0  0  0  0  2  0  0  0  0  0  0
  188.6310  179.0130  138.3190 O   0  0  0  0  0  0  0  0  0  0  0  0
  189.3600  177.3030  139.7970 C   0  0  0  0  0  1  0  0  0  0  0  0
  189.6160  178.0440  138.5030 C   0  0  0  0  0  2  0  0  0  0  0  0
  185.3000  178.4390  142.3960 C   0  0  0  0  0  0  0  0  0  0  0  0
  186.0590  178.7750  141.2690 C   0  0  0  0  0  3  0  0  0  0  0  0
  185.5220  178.6150  139.9880 C   0  0  0  0  0  3  0  0  0  0  0  0
  184.0140  177.9120  142.2330 C   0  0  0  0  0  3  0  0  0  0  0  0
  183.4810  177.7410  140.9500 C   0  0  0  0  0  3  0  0  0  0  0  0
  184.2270  178.1150  139.8180 C   0  0  0  0  0  0  0  0  0  0  0  0
  185.8780  178.5630  143.7700 C   0  0  0  0  0  2  0  0  0  0  0  0
  186.7060  177.4040  144.0970 N   0  0  0  0  0  2  0  0  0  0  0  0
  188.0320  177.8930  144.4710 C   0  0  2  0  0  3  0  0  0  0  0  0
  189.9020  177.2650  145.7590 N   0  0  0  0  0  2  0  0  0  0  0  0
  189.0760  177.5040  143.5290 N   0  0  2  0  0  0  0  0  0  0  0  0
  188.4550  177.3590  145.8110 C   0  0  0  0  0  2  0  0  0  0  0  0
  190.0870  175.5710  142.8900 N   0  0  0  0  0  2  0  0  0  0  0  0
  188.8380  176.1980  143.0500 N   0  0  0  0  0  2  0  0  0  0  0  0
  190.9600  176.1530  143.8900 C   0  0  0  0  0  2  0  0  0  0  0  0
  190.2740  177.4020  144.3490 C   0  0  2  0  0  3  0  0  0  0  0  0
  182.5950  178.9030  138.1220 C   0  0  0  0  0  3  0  0  0  0  0  0
  182.5310  180.0800  138.7430 C   0  0  0  0  0  3  0  0  0  0  0  0
  181.2380  181.2450  138.3290 S   0  0  0  0  0  0  0  0  0  0  0  0
  180.8000  180.0390  140.6830 N   0  0  0  0  0  0  0  0  0  0  0  0
  180.4410  181.0140  139.9130 C   0  0  0  0  0  3  0  0  0  0  0  0
  179.7810  180.7550  142.6740 O   0  0  0  0  0  0  0  0  0  0  0  0
  180.1740  179.7970  141.9480 C   0  0  0  0  0  0  0  0  0  0  0  0
  180.1220  178.3220  143.9200 C   0  0  0  0  0  1  0  0  0  0  0  0
  179.9560  178.3970  142.4090 C   0  0  0  0  0  2  0  0  0  0  0  0
  1 44  1  6  0  0  0
  1 33  1  0  0  0  0
  2  7  2  0  0  0  0
  2  5  1  0  0  0  0
  4 24  1  0  0  0  0
  4  3  2  0  0  0  0
  5  6  2  0  0  0  0
  6  3  1  0  0  0  0
  6  1  1  0  0  0  0
  7  4  1  0  0  0  0
  8  5  1  0  0  0  0
  9 13  1  0  0  0  0
 10  8  1  0  0  0  0
 11 10  2  0  0  0  0
 12  9  2  0  0  0  0
 12 11  1  0  0  0  0
 13 14  1  0  0  0  0
 13  8  2  0  0  0  0
 15 14  2  0  0  0  0
 16 15  1  0  0  0  0
 17 16  2  0  0  0  0
 17  9  1  0  0  0  0
 18 20  1  0  0  0  0
 19 20  2  0  0  0  0
 21 19  1  0  0  0  0
 22 15  1  0  0  0  0
 22 18  2  0  0  0  0
 23 21  2  0  0  0  0
 23 22  1  0  0  0  0
 24 25  1  0  0  0  0
 25 27  1  0  0  0  0
 27 26  1  0  0  0  0
 28 34  1  0  0  0  0
 29 28  2  0  0  0  0
 30 29  1  0  0  0  0
 31 28  1  0  0  0  0
 32 31  2  0  0  0  0
 33 30  2  0  0  0  0
 33 32  1  0  0  0  0
 34 35  1  0  0  0  0
 36 35  1  6  0  0  0
 36 39  1  0  0  0  0
 37 39  1  0  0  0  0
 38 41  1  1  0  0  0
 38 43  1  0  0  0  0
 38 36  1  0  0  0  0
 40 41  1  0  0  0  0
 40 42  1  0  0  0  0
 43 42  1  6  0  0  0
 43 37  1  0  0  0  0
 44 45  2  0  0  0  0
 46 45  1  0  0  0  0
 46 48  1  0  0  0  0
 47 50  1  0  0  0  0
 48 47  2  0  0  0  0
 50 52  1  0  0  0  0
 50 49  2  0  0  0  0
 52 51  1  0  0  0  0
M  END
>  <MODEL>
5

>  <REMARK>
 VINA RESULT:      -6.0      3.215      7.333
  Name = 
  15 active torsions:
  status: ('A' for Active; 'I' for Inactive)
    1  A    between atoms: N_1  and  C_32
    2  A    between atoms: C_2  and  N_43
    3  A    between atoms: C_3  and  C_24
    4  A    between atoms: C_8  and  C_34
    5  A    between atoms: C_10  and  C_19
    6  A    between atoms: C_10  and  O_26
    7  A    between atoms: C_14  and  C_27
    8  A    between atoms: C_14  and  C_31
    9  A    between atoms: C_14  and  C_50
   10  A    between atoms: C_18  and  C_42
   11  A    between atoms: S_25  and  C_37
   12  A    between atoms: S_25  and  C_52
   13  A    between atoms: O_26  and  C_47
   14  A    between atoms: C_32  and  C_36
   15  A    between atoms: C_34  and  N_43
                            x       y       z     vdW  Elec       q    Type
                         _______ _______ _______ _____ _____    ______ ____

>  <TORSDO>
F 15

$$$$
=
 OpenBabel10222420153D

 52 58  0  0  1  0  0  0  0  0999 V2000
  184.3970  178.4360  139.2260 C   0  0  1  0  0  3  0  0  0  0  0  0
  180.7490  178.0620  140.3560 C   0  0  0  0  0  3  0  0  0  0  0  0
  183.2360  178.6550  141.4570 C   0  0  0  0  0  3  0  0  0  0  0  0
  182.1030  178.6470  142.2720 C   0  0  0  0  0  0  0  0  0  0  0  0
  181.8760  178.0860  139.5180 C   0  0  0  0  0  0  0  0  0  0  0  0
  183.1460  178.3650  140.0860 C   0  0  0  0  0  0  0  0  0  0  0  0
  180.8600  178.3380  141.7220 C   0  0  0  0  0  3  0  0  0  0  0  0
  181.6930  177.8690  138.0560 C   0  0  0  0  0  0  0  0  0  0  0  0
  181.3250  178.6820  135.7740 C   0  0  0  0  0  0  0  0  0  0  0  0
  181.8690  176.5770  137.5320 C   0  0  0  0  0  3  0  0  0  0  0  0
  181.7790  176.3370  136.1580 C   0  0  0  0  0  3  0  0  0  0  0  0
  181.5190  177.3900  135.2790 C   0  0  0  0  0  3  0  0  0  0  0  0
  181.3860  178.9280  137.1640 C   0  0  0  0  0  0  0  0  0  0  0  0
  181.1530  180.2340  137.6070 C   0  0  0  0  0  3  0  0  0  0  0  0
  180.8740  181.2500  136.6890 C   0  0  0  0  0  0  0  0  0  0  0  0
  180.8670  180.9450  135.3580 N   0  0  0  0  0  0  0  0  0  0  0  0
  181.0830  179.7060  134.9170 N   0  0  0  0  0  0  0  0  0  0  0  0
  181.3320  183.6670  136.7730 N   0  0  0  0  0  0  0  0  0  0  0  0
  179.9070  185.1550  137.8890 N   0  0  0  0  0  0  0  0  0  0  0  0
  181.0220  184.9310  137.1450 C   0  0  0  0  0  3  0  0  0  0  0  0
  179.1160  184.1470  138.2590 N   0  0  0  0  0  0  0  0  0  0  0  0
  180.5470  182.6180  137.1410 C   0  0  0  0  0  0  0  0  0  0  0  0
  179.4030  182.8670  137.9060 C   0  0  0  0  0  3  0  0  0  0  0  0
  182.2240  178.9510  143.7250 C   0  0  0  0  0  2  0  0  0  0  0  0
  183.5450  179.2700  144.0390 O   0  0  0  0  0  0  0  0  0  0  0  0
  185.1780  178.9600  145.7360 C   0  0  0  0  0  1  0  0  0  0  0  0
  183.7360  178.7600  145.3220 C   0  0  0  0  0  2  0  0  0  0  0  0
  188.1020  178.5440  141.4360 C   0  0  0  0  0  0  0  0  0  0  0  0
  188.0930  178.2590  140.0650 C   0  0  0  0  0  3  0  0  0  0  0  0
  186.8860  178.2410  139.3600 C   0  0  0  0  0  3  0  0  0  0  0  0
  186.8950  178.7750  142.1030 C   0  0  0  0  0  3  0  0  0  0  0  0
  185.6850  178.7450  141.4000 C   0  0  0  0  0  3  0  0  0  0  0  0
  185.6770  178.4990  140.0150 C   0  0  0  0  0  0  0  0  0  0  0  0
  189.3810  178.5230  142.2120 C   0  0  0  0  0  2  0  0  0  0  0  0
  189.4230  177.3820  143.1230 N   0  0  0  0  0  2  0  0  0  0  0  0
  189.6330  177.8970  144.4750 C   0  0  2  0  0  3  0  0  0  0  0  0
  189.2920  177.2850  146.7250 N   0  0  0  0  0  2  0  0  0  0  0  0
  190.9440  177.5660  145.0220 N   0  0  2  0  0  0  0  0  0  0  0  0
  188.6230  177.3370  145.4380 C   0  0  0  0  0  2  0  0  0  0  0  0
  192.0280  175.6820  145.6880 N   0  0  0  0  0  2  0  0  0  0  0  0
  191.3260  176.2690  144.6190 N   0  0  0  0  0  2  0  0  0  0  0  0
  191.4750  176.2590  146.8970 C   0  0  0  0  0  2  0  0  0  0  0  0
  190.7190  177.4740  146.4570 C   0  0  2  0  0  3  0  0  0  0  0  0
  184.4780  177.3980  138.1410 C   0  0  0  0  0  3  0  0  0  0  0  0
  185.3320  177.5280  137.1260 C   0  0  0  0  0  3  0  0  0  0  0  0
  185.4470  176.2520  135.8790 S   0  0  0  0  0  0  0  0  0  0  0  0
  187.7390  175.2440  136.8360 N   0  0  0  0  0  0  0  0  0  0  0  0
  187.2220  176.1450  136.0660 C   0  0  0  0  0  3  0  0  0  0  0  0
  189.6810  174.0330  137.3630 O   0  0  0  0  0  0  0  0  0  0  0  0
  189.1530  175.1360  137.0400 C   0  0  0  0  0  0  0  0  0  0  0  0
  190.7320  176.6700  138.1430 C   0  0  0  0  0  1  0  0  0  0  0  0
  190.0210  176.3300  136.8410 C   0  0  0  0  0  2  0  0  0  0  0  0
  1 44  1  6  0  0  0
  1 33  1  0  0  0  0
  1  6  1  0  0  0  0
  2  7  1  0  0  0  0
  3  4  1  0  0  0  0
  4 24  1  0  0  0  0
  5  6  1  0  0  0  0
  5  2  2  0  0  0  0
  6  3  2  0  0  0  0
  7  4  2  0  0  0  0
  8  5  1  0  0  0  0
  9 13  1  0  0  0  0
 10  8  1  0  0  0  0
 11 10  2  0  0  0  0
 12  9  2  0  0  0  0
 12 11  1  0  0  0  0
 13 14  1  0  0  0  0
 13  8  2  0  0  0  0
 15 22  1  0  0  0  0
 15 14  2  0  0  0  0
 16 15  1  0  0  0  0
 17 16  2  0  0  0  0
 17  9  1  0  0  0  0
 18 22  2  0  0  0  0
 18 20  1  0  0  0  0
 19 21  1  0  0  0  0
 20 19  2  0  0  0  0
 22 23  1  0  0  0  0
 23 21  2  0  0  0  0
 24 25  1  0  0  0  0
 25 27  1  0  0  0  0
 27 26  1  0  0  0  0
 28 31  1  0  0  0  0
 28 34  1  0  0  0  0
 29 28  2  0  0  0  0
 30 33  2  0  0  0  0
 30 29  1  0  0  0  0
 32 31  2  0  0  0  0
 33 32  1  0  0  0  0
 34 35  1  0  0  0  0
 36 35  1  6  0  0  0
 36 38  1  0  0  0  0
 36 39  1  0  0  0  0
 38 41  1  6  0  0  0
 38 43  1  0  0  0  0
 39 37  1  0  0  0  0
 40 42  1  0  0  0  0
 41 40  1  0  0  0  0
 43 37  1  0  0  0  0
 43 42  1  6  0  0  0
 45 44  2  0  0  0  0
 46 48  1  0  0  0  0
 46 45  1  0  0  0  0
 47 50  1  0  0  0  0
 48 47  2  0  0  0  0
 50 49  2  0  0  0  0
 52 50  1  0  0  0  0
 52 51  1  0  0  0  0
M  END
>  <MODEL>
6

>  <REMARK>
 VINA RESULT:      -5.8      2.956      5.052
  Name = 
  15 active torsions:
  status: ('A' for Active; 'I' for Inactive)
    1  A    between atoms: N_1  and  C_32
    2  A    between atoms: C_2  and  N_43
    3  A    between atoms: C_3  and  C_24
    4  A    between atoms: C_8  and  C_34
    5  A    between atoms: C_10  and  C_19
    6  A    between atoms: C_10  and  O_26
    7  A    between atoms: C_14  and  C_27
    8  A    between atoms: C_14  and  C_31
    9  A    between atoms: C_14  and  C_50
   10  A    between atoms: C_18  and  C_42
   11  A    between atoms: S_25  and  C_37
   12  A    between atoms: S_25  and  C_52
   13  A    between atoms: O_26  and  C_47
   14  A    between atoms: C_32  and  C_36
   15  A    between atoms: C_34  and  N_43
                            x       y       z     vdW  Elec       q    Type
                         _______ _______ _______ _____ _____    ______ ____

>  <TORSDO>
F 15

$$$$
=
 OpenBabel10222420153D

 52 58  0  0  1  0  0  0  0  0999 V2000
  181.8300  177.2600  138.2810 C   0  0  1  0  0  3  0  0  0  0  0  0
  181.5010  178.6280  134.7100 C   0  0  0  0  0  3  0  0  0  0  0  0
  181.3320  179.5460  137.3330 C   0  0  0  0  0  3  0  0  0  0  0  0
  181.1560  180.4390  136.2740 C   0  0  0  0  0  0  0  0  0  0  0  0
  181.7020  177.7200  135.7640 C   0  0  0  0  0  0  0  0  0  0  0  0
  181.5920  178.1860  137.1000 C   0  0  0  0  0  0  0  0  0  0  0  0
  181.2290  179.9750  134.9620 C   0  0  0  0  0  3  0  0  0  0  0  0
  182.0740  176.3140  135.4440 C   0  0  0  0  0  0  0  0  0  0  0  0
  183.6920  174.4800  135.3010 C   0  0  0  0  0  0  0  0  0  0  0  0
  181.0620  175.4030  135.0980 C   0  0  0  0  0  3  0  0  0  0  0  0
  181.3520  174.0570  134.8600 C   0  0  0  0  0  3  0  0  0  0  0  0
  182.6640  173.5940  134.9720 C   0  0  0  0  0  3  0  0  0  0  0  0
  183.4120  175.8480  135.5150 C   0  0  0  0  0  0  0  0  0  0  0  0
  184.4850  176.6960  135.8100 C   0  0  0  0  0  3  0  0  0  0  0  0
  185.7830  176.1880  135.8900 C   0  0  0  0  0  0  0  0  0  0  0  0
  185.9740  174.8480  135.7060 N   0  0  0  0  0  0  0  0  0  0  0  0
  184.9660  174.0250  135.4200 N   0  0  0  0  0  0  0  0  0  0  0  0
  188.1750  176.7270  135.6740 N   0  0  0  0  0  0  0  0  0  0  0  0
  189.0600  178.7500  136.4580 N   0  0  0  0  0  0  0  0  0  0  0  0
  189.2360  177.5520  135.8420 C   0  0  0  0  0  3  0  0  0  0  0  0
  187.8590  179.1240  136.9000 N   0  0  0  0  0  0  0  0  0  0  0  0
  186.9390  177.0800  136.1210 C   0  0  0  0  0  0  0  0  0  0  0  0
  186.7760  178.3170  136.7510 C   0  0  0  0  0  3  0  0  0  0  0  0
  180.8740  181.8760  136.5460 C   0  0  0  0  0  2  0  0  0  0  0  0
  179.5220  182.1470  136.3310 O   0  0  0  0  0  0  0  0  0  0  0  0
  180.0210  184.4640  136.1680 C   0  0  0  0  0  1  0  0  0  0  0  0
  179.5160  183.2300  135.4530 C   0  0  0  0  0  2  0  0  0  0  0  0
  184.9610  178.5540  140.9550 C   0  0  0  0  0  0  0  0  0  0  0  0
  183.8400  177.8710  141.4410 C   0  0  0  0  0  3  0  0  0  0  0  0
  182.8410  177.4470  140.5610 C   0  0  0  0  0  3  0  0  0  0  0  0
  185.0590  178.8400  139.5890 C   0  0  0  0  0  3  0  0  0  0  0  0
  184.0520  178.4250  138.7090 C   0  0  0  0  0  3  0  0  0  0  0  0
  182.9450  177.7040  139.1900 C   0  0  0  0  0  0  0  0  0  0  0  0
  186.0170  179.0530  141.8900 C   0  0  0  0  0  2  0  0  0  0  0  0
  186.6240  177.9500  142.6310 N   0  0  0  0  0  2  0  0  0  0  0  0
  186.8230  178.3940  144.0100 C   0  0  2  0  0  3  0  0  0  0  0  0
  186.8280  177.5460  146.2080 N   0  0  0  0  0  2  0  0  0  0  0  0
  188.2180  178.3430  144.4360 N   0  0  2  0  0  0  0  0  0  0  0  0
  186.0570  177.5360  144.9780 C   0  0  0  0  0  2  0  0  0  0  0  0
  189.7610  176.7260  144.8470 N   0  0  0  0  0  2  0  0  0  0  0  0
  188.8540  177.2090  143.8870 N   0  0  0  0  0  2  0  0  0  0  0  0
  189.1960  177.0590  146.1390 C   0  0  0  0  0  2  0  0  0  0  0  0
  188.1440  178.0890  145.8670 C   0  0  2  0  0  3  0  0  0  0  0  0
  180.5980  176.9070  139.0660 C   0  0  0  0  0  3  0  0  0  0  0  0
  180.3780  175.6600  139.4800 C   0  0  0  0  0  3  0  0  0  0  0  0
  178.9310  175.2790  140.4590 S   0  0  0  0  0  0  0  0  0  0  0  0
  179.7110  176.8620  142.4780 N   0  0  0  0  0  0  0  0  0  0  0  0
  179.0620  176.8180  141.3600 C   0  0  0  0  0  3  0  0  0  0  0  0
  179.1090  178.2450  144.2780 O   0  0  0  0  0  0  0  0  0  0  0  0
  179.8220  178.0630  143.2490 C   0  0  0  0  0  0  0  0  0  0  0  0
  181.8160  179.3130  143.9750 C   0  0  0  0  0  1  0  0  0  0  0  0
  180.8090  179.1060  142.8530 C   0  0  0  0  0  2  0  0  0  0  0  0
  1 44  1  1  0  0  0
  1 33  1  0  0  0  0
  2  7  2  0  0  0  0
  2  5  1  0  0  0  0
  4 24  1  0  0  0  0
  4  3  2  0  0  0  0
  5  6  2  0  0  0  0
  6  3  1  0  0  0  0
  6  1  1  0  0  0  0
  7  4  1  0  0  0  0
  8 13  1  0  0  0  0
  8  5  1  0  0  0  0
  9 17  2  0  0  0  0
  9 13  1  0  0  0  0
 10  8  2  0  0  0  0
 11 12  2  0  0  0  0
 11 10  1  0  0  0  0
 12  9  1  0  0  0  0
 13 14  2  0  0  0  0
 14 15  1  0  0  0  0
 15 22  1  0  0  0  0
 16 15  2  0  0  0  0
 17 16  1  0  0  0  0
 18 20  2  0  0  0  0
 18 22  1  0  0  0  0
 19 21  2  0  0  0  0
 20 19  1  0  0  0  0
 22 23  2  0  0  0  0
 23 21  1  0  0  0  0
 25 24  1  0  0  0  0
 27 26  1  0  0  0  0
 27 25  1  0  0  0  0
 28 29  1  0  0  0  0
 28 34  1  0  0  0  0
 30 29  2  0  0  0  0
 31 28  2  0  0  0  0
 32 33  2  0  0  0  0
 32 31  1  0  0  0  0
 33 30  1  0  0  0  0
 34 35  1  0  0  0  0
 36 35  1  6  0  0  0
 36 38  1  0  0  0  0
 36 39  1  0  0  0  0
 38 41  1  6  0  0  0
 38 43  1  0  0  0  0
 39 37  1  0  0  0  0
 40 42  1  0  0  0  0
 41 40  1  0  0  0  0
 43 42  1  6  0  0  0
 43 37  1  0  0  0  0
 44 45  2  0  0  0  0
 45 46  1  0  0  0  0
 46 48  1  0  0  0  0
 47 50  1  0  0  0  0
 48 47  2  0  0  0  0
 50 49  2  0  0  0  0
 52 50  1  0  0  0  0
 52 51  1  0  0  0  0
M  END
>  <MODEL>
7

>  <REMARK>
 VINA RESULT:      -5.6      3.045      7.171
  Name = 
  15 active torsions:
  status: ('A' for Active; 'I' for Inactive)
    1  A    between atoms: N_1  and  C_32
    2  A    between atoms: C_2  and  N_43
    3  A    between atoms: C_3  and  C_24
    4  A    between atoms: C_8  and  C_34
    5  A    between atoms: C_10  and  C_19
    6  A    between atoms: C_10  and  O_26
    7  A    between atoms: C_14  and  C_27
    8  A    between atoms: C_14  and  C_31
    9  A    between atoms: C_14  and  C_50
   10  A    between atoms: C_18  and  C_42
   11  A    between atoms: S_25  and  C_37
   12  A    between atoms: S_25  and  C_52
   13  A    between atoms: O_26  and  C_47
   14  A    between atoms: C_32  and  C_36
   15  A    between atoms: C_34  and  N_43
                            x       y       z     vdW  Elec       q    Type
                         _______ _______ _______ _____ _____    ______ ____

>  <TORSDO>
F 15

$$$$
=
 OpenBabel10222420153D

 52 58  0  0  1  0  0  0  0  0999 V2000
  183.0790  177.9060  138.4240 C   0  0  1  0  0  3  0  0  0  0  0  0
  184.4340  177.2870  134.8870 C   0  0  0  0  0  3  0  0  0  0  0  0
  185.4050  177.7460  137.4550 C   0  0  0  0  0  3  0  0  0  0  0  0
  186.3000  177.5380  136.4050 C   0  0  0  0  0  0  0  0  0  0  0  0
  183.5200  177.4720  135.9370 C   0  0  0  0  0  0  0  0  0  0  0  0
  184.0170  177.7300  137.2410 C   0  0  0  0  0  0  0  0  0  0  0  0
  185.8120  177.3210  135.1170 C   0  0  0  0  0  3  0  0  0  0  0  0
  182.0630  177.3420  135.6580 C   0  0  0  0  0  0  0  0  0  0  0  0
  179.9970  176.0350  135.4910 C   0  0  0  0  0  0  0  0  0  0  0  0
  181.3080  178.5030  135.4210 C   0  0  0  0  0  3  0  0  0  0  0  0
  179.9260  178.4370  135.2250 C   0  0  0  0  0  3  0  0  0  0  0  0
  179.2690  177.2060  135.2710 C   0  0  0  0  0  3  0  0  0  0  0  0
  181.3980  176.0880  135.6610 C   0  0  0  0  0  0  0  0  0  0  0  0
  182.0810  174.8810  135.8460 C   0  0  0  0  0  3  0  0  0  0  0  0
  181.3820  173.6720  135.8630 C   0  0  0  0  0  0  0  0  0  0  0  0
  180.0230  173.7000  135.7270 N   0  0  0  0  0  0  0  0  0  0  0  0
  179.3560  174.8390  135.5460 N   0  0  0  0  0  0  0  0  0  0  0  0
  181.5770  171.2640  135.3940 N   0  0  0  0  0  0  0  0  0  0  0  0
  183.4310  170.0160  136.0990 N   0  0  0  0  0  0  0  0  0  0  0  0
  182.2370  170.0830  135.4540 C   0  0  0  0  0  3  0  0  0  0  0  0
  183.9610  171.0960  136.6750 N   0  0  0  0  0  0  0  0  0  0  0  0
  182.0920  172.3810  135.9760 C   0  0  0  0  0  0  0  0  0  0  0  0
  183.3220  172.2940  136.6350 C   0  0  0  0  0  3  0  0  0  0  0  0
  187.7680  177.5670  136.6550 C   0  0  0  0  0  2  0  0  0  0  0  0
  188.0370  177.1750  137.9670 O   0  0  0  0  0  0  0  0  0  0  0  0
  189.3060  177.9750  139.8090 C   0  0  0  0  0  1  0  0  0  0  0  0
  189.2070  177.8560  138.3040 C   0  0  0  0  0  2  0  0  0  0  0  0
  185.1860  178.4420  142.1510 C   0  0  0  0  0  0  0  0  0  0  0  0
  185.7790  178.8000  140.9350 C   0  0  0  0  0  3  0  0  0  0  0  0
  185.0790  178.6330  139.7370 C   0  0  0  0  0  3  0  0  0  0  0  0
  183.9040  177.8850  142.1590 C   0  0  0  0  0  3  0  0  0  0  0  0
  183.2060  177.7060  140.9580 C   0  0  0  0  0  3  0  0  0  0  0  0
  183.7850  178.1010  139.7390 C   0  0  0  0  0  0  0  0  0  0  0  0
  185.9400  178.5750  143.4370 C   0  0  0  0  0  2  0  0  0  0  0  0
  186.8030  177.4170  143.6600 N   0  0  0  0  0  2  0  0  0  0  0  0
  188.0700  177.9010  144.2060 C   0  0  2  0  0  3  0  0  0  0  0  0
  189.7690  177.2500  145.7030 N   0  0  0  0  0  2  0  0  0  0  0  0
  189.2250  177.5350  143.3940 N   0  0  2  0  0  0  0  0  0  0  0  0
  188.3260  177.3390  145.5770 C   0  0  0  0  0  2  0  0  0  0  0  0
  190.3180  175.6190  142.8440 N   0  0  0  0  0  2  0  0  0  0  0  0
  189.0550  176.2390  142.8610 N   0  0  0  0  0  2  0  0  0  0  0  0
  191.0570  176.1810  143.9570 C   0  0  0  0  0  2  0  0  0  0  0  0
  190.3130  177.4180  144.3530 C   0  0  2  0  0  3  0  0  0  0  0  0
  182.0020  178.9380  138.2280 C   0  0  0  0  0  3  0  0  0  0  0  0
  182.1790  180.2000  138.6170 C   0  0  0  0  0  3  0  0  0  0  0  0
  180.9030  181.4180  138.3220 S   0  0  0  0  0  0  0  0  0  0  0  0
  180.7000  180.4110  140.7990 N   0  0  0  0  0  0  0  0  0  0  0  0
  180.0540  180.9810  139.8340 C   0  0  0  0  0  3  0  0  0  0  0  0
  179.6850  180.8810  142.8640 O   0  0  0  0  0  0  0  0  0  0  0  0
  180.0590  180.0180  142.0180 C   0  0  0  0  0  0  0  0  0  0  0  0
  180.0340  178.2760  143.7590 C   0  0  0  0  0  1  0  0  0  0  0  0
  179.8000  178.5760  142.2850 C   0  0  0  0  0  2  0  0  0  0  0  0
  1 44  1  6  0  0  0
  1 33  1  0  0  0  0
  2  7  2  0  0  0  0
  2  5  1  0  0  0  0
  4 24  1  0  0  0  0
  4  3  2  0  0  0  0
  5  6  2  0  0  0  0
  6  3  1  0  0  0  0
  6  1  1  0  0  0  0
  7  4  1  0  0  0  0
  8 13  1  0  0  0  0
  8  5  1  0  0  0  0
  9 17  2  0  0  0  0
  9 13  1  0  0  0  0
 10  8  2  0  0  0  0
 11 12  2  0  0  0  0
 11 10  1  0  0  0  0
 12  9  1  0  0  0  0
 13 14  2  0  0  0  0
 14 15  1  0  0  0  0
 15 22  1  0  0  0  0
 16 15  2  0  0  0  0
 17 16  1  0  0  0  0
 18 20  2  0  0  0  0
 18 22  1  0  0  0  0
 19 21  2  0  0  0  0
 20 19  1  0  0  0  0
 22 23  2  0  0  0  0
 23 21  1  0  0  0  0
 24 25  1  0  0  0  0
 25 27  1  0  0  0  0
 27 26  1  0  0  0  0
 28 31  1  0  0  0  0
 28 34  1  0  0  0  0
 29 28  2  0  0  0  0
 30 33  2  0  0  0  0
 30 29  1  0  0  0  0
 32 31  2  0  0  0  0
 33 32  1  0  0  0  0
 34 35  1  0  0  0  0
 36 35  1  6  0  0  0
 36 39  1  0  0  0  0
 38 41  1  1  0  0  0
 38 36  1  0  0  0  0
 38 43  1  0  0  0  0
 39 37  1  0  0  0  0
 40 41  1  0  0  0  0
 40 42  1  0  0  0  0
 43 42  1  6  0  0  0
 43 37  1  0  0  0  0
 44 45  2  0  0  0  0
 46 45  1  0  0  0  0
 46 48  1  0  0  0  0
 47 50  1  0  0  0  0
 48 47  2  0  0  0  0
 50 52  1  0  0  0  0
 50 49  2  0  0  0  0
 52 51  1  0  0  0  0
M  END
>  <MODEL>
8

>  <REMARK>
 VINA RESULT:      -5.6      3.430      6.534
  Name = 
  15 active torsions:
  status: ('A' for Active; 'I' for Inactive)
    1  A    between atoms: N_1  and  C_32
    2  A    between atoms: C_2  and  N_43
    3  A    between atoms: C_3  and  C_24
    4  A    between atoms: C_8  and  C_34
    5  A    between atoms: C_10  and  C_19
    6  A    between atoms: C_10  and  O_26
    7  A    between atoms: C_14  and  C_27
    8  A    between atoms: C_14  and  C_31
    9  A    between atoms: C_14  and  C_50
   10  A    between atoms: C_18  and  C_42
   11  A    between atoms: S_25  and  C_37
   12  A    between atoms: S_25  and  C_52
   13  A    between atoms: O_26  and  C_47
   14  A    between atoms: C_32  and  C_36
   15  A    between atoms: C_34  and  N_43
                            x       y       z     vdW  Elec       q    Type
                         _______ _______ _______ _____ _____    ______ ____

>  <TORSDO>
F 15

$$$$
=
 OpenBabel10222420153D

 52 58  0  0  1  0  0  0  0  0999 V2000
  184.2430  177.3760  136.9060 C   0  0  1  0  0  3  0  0  0  0  0  0
  185.9000  178.7430  140.0870 C   0  0  0  0  0  3  0  0  0  0  0  0
  183.3660  178.0250  139.1840 C   0  0  0  0  0  3  0  0  0  0  0  0
  183.5310  178.4780  140.4930 C   0  0  0  0  0  0  0  0  0  0  0  0
  185.7550  178.2680  138.7730 C   0  0  0  0  0  0  0  0  0  0  0  0
  184.4590  177.9260  138.3070 C   0  0  0  0  0  0  0  0  0  0  0  0
  184.7980  178.8490  140.9400 C   0  0  0  0  0  3  0  0  0  0  0  0
  186.9700  178.0920  137.9300 C   0  0  0  0  0  0  0  0  0  0  0  0
  189.3210  177.4760  137.6210 C   0  0  0  0  0  0  0  0  0  0  0  0
  186.8640  178.2530  136.5380 C   0  0  0  0  0  3  0  0  0  0  0  0
  187.9590  178.0280  135.7000 C   0  0  0  0  0  3  0  0  0  0  0  0
  189.1830  177.6290  136.2390 C   0  0  0  0  0  3  0  0  0  0  0  0
  188.2280  177.7290  138.4780 C   0  0  0  0  0  0  0  0  0  0  0  0
  188.4310  177.5910  139.8550 C   0  0  0  0  0  3  0  0  0  0  0  0
  189.6810  177.2110  140.3480 C   0  0  0  0  0  0  0  0  0  0  0  0
  190.6830  176.9480  139.4570 N   0  0  0  0  0  0  0  0  0  0  0  0
  190.5100  177.0780  138.1420 N   0  0  0  0  0  0  0  0  0  0  0  0
  188.9410  176.7830  142.6550 N   0  0  0  0  0  0  0  0  0  0  0  0
  190.4200  176.9080  144.4690 N   0  0  0  0  0  0  0  0  0  0  0  0
  189.1720  176.6710  143.9850 C   0  0  0  0  0  3  0  0  0  0  0  0
  191.4180  177.2510  143.6540 N   0  0  0  0  0  0  0  0  0  0  0  0
  189.9390  177.1370  141.8000 C   0  0  0  0  0  0  0  0  0  0  0  0
  191.2170  177.3760  142.3160 C   0  0  0  0  0  3  0  0  0  0  0  0
  182.3560  178.5830  141.4030 C   0  0  0  0  0  2  0  0  0  0  0  0
  182.7820  178.6250  142.7310 O   0  0  0  0  0  0  0  0  0  0  0  0
  180.5150  179.2970  142.4960 C   0  0  0  0  0  1  0  0  0  0  0  0
  181.6460  178.9880  143.4530 C   0  0  0  0  0  2  0  0  0  0  0  0
  184.6050  173.0920  136.5410 C   0  0  0  0  0  0  0  0  0  0  0  0
  184.7170  173.9190  135.4180 C   0  0  0  0  0  3  0  0  0  0  0  0
  184.6100  175.3060  135.5540 C   0  0  0  0  0  3  0  0  0  0  0  0
  184.3510  173.6570  137.7950 C   0  0  0  0  0  3  0  0  0  0  0  0
  184.2330  175.0460  137.9300 C   0  0  0  0  0  3  0  0  0  0  0  0
  184.3840  175.8810  136.8090 C   0  0  0  0  0  0  0  0  0  0  0  0
  184.6720  171.6030  136.4040 C   0  0  0  0  0  2  0  0  0  0  0  0
  183.4200  170.9800  136.8260 N   0  0  0  0  0  2  0  0  0  0  0  0
  182.4580  171.1270  135.7350 C   0  0  2  0  0  3  0  0  0  0  0  0
  180.4940  170.1290  134.8980 N   0  0  0  0  0  2  0  0  0  0  0  0
  181.3600  172.0340  136.0520 N   0  0  2  0  0  0  0  0  0  0  0  0
  181.8260  169.8100  135.3810 C   0  0  0  0  0  2  0  0  0  0  0  0
  179.5860  172.0450  137.4730 N   0  0  0  0  0  2  0  0  0  0  0  0
  180.9820  171.8860  137.4040 N   0  0  0  0  0  2  0  0  0  0  0  0
  179.0640  171.5740  136.2060 C   0  0  0  0  0  2  0  0  0  0  0  0
  180.2380  171.5190  135.2800 C   0  0  2  0  0  3  0  0  0  0  0  0
  182.9850  177.8480  136.2300 C   0  0  0  0  0  3  0  0  0  0  0  0
  181.8020  177.3120  136.5280 C   0  0  0  0  0  3  0  0  0  0  0  0
  180.3150  177.9290  135.7480 S   0  0  0  0  0  0  0  0  0  0  0  0
  179.9210  180.4960  136.4160 N   0  0  0  0  0  0  0  0  0  0  0  0
  180.7990  179.6260  136.0320 C   0  0  0  0  0  3  0  0  0  0  0  0
  180.9550  182.2250  137.6220 O   0  0  0  0  0  0  0  0  0  0  0  0
  180.2550  181.8720  136.6300 C   0  0  0  0  0  0  0  0  0  0  0  0
  180.8030  184.0440  135.6070 C   0  0  0  0  0  1  0  0  0  0  0  0
  179.7970  182.9030  135.6570 C   0  0  0  0  0  2  0  0  0  0  0  0
  1 44  1  1  0  0  0
  1  6  1  0  0  0  0
  2  7  1  0  0  0  0
  3  4  1  0  0  0  0
  4  7  2  0  0  0  0
  4 24  1  0  0  0  0
  5  2  2  0  0  0  0
  6  5  1  0  0  0  0
  6  3  2  0  0  0  0
  8 13  1  0  0  0  0
  8  5  1  0  0  0  0
  9 17  2  0  0  0  0
  9 13  1  0  0  0  0
 10  8  2  0  0  0  0
 11 12  2  0  0  0  0
 11 10  1  0  0  0  0
 12  9  1  0  0  0  0
 13 14  2  0  0  0  0
 14 15  1  0  0  0  0
 15 22  1  0  0  0  0
 16 15  2  0  0  0  0
 17 16  1  0  0  0  0
 18 20  1  0  0  0  0
 20 19  2  0  0  0  0
 21 19  1  0  0  0  0
 22 23  1  0  0  0  0
 22 18  2  0  0  0  0
 23 21  2  0  0  0  0
 24 25  1  0  0  0  0
 25 27  1  0  0  0  0
 26 27  1  0  0  0  0
 28 31  1  0  0  0  0
 29 30  1  0  0  0  0
 29 28  2  0  0  0  0
 30 33  2  0  0  0  0
 31 32  2  0  0  0  0
 33  1  1  0  0  0  0
 33 32  1  0  0  0  0
 34 28  1  0  0  0  0
 34 35  1  0  0  0  0
 36 38  1  0  0  0  0
 36 35  1  1  0  0  0
 37 43  1  0  0  0  0
 37 39  1  0  0  0  0
 38 41  1  1  0  0  0
 39 36  1  0  0  0  0
 41 40  1  0  0  0  0
 42 40  1  0  0  0  0
 43 38  1  0  0  0  0
 43 42  1  1  0  0  0
 44 45  2  0  0  0  0
 46 48  1  0  0  0  0
 46 45  1  0  0  0  0
 47 50  1  0  0  0  0
 48 47  2  0  0  0  0
 50 49  2  0  0  0  0
 51 52  1  0  0  0  0
 52 50  1  0  0  0  0
M  END
>  <MODEL>
9

>  <REMARK>
 VINA RESULT:      -5.5      3.683      9.218
  Name = 
  15 active torsions:
  status: ('A' for Active; 'I' for Inactive)
    1  A    between atoms: N_1  and  C_32
    2  A    between atoms: C_2  and  N_43
    3  A    between atoms: C_3  and  C_24
    4  A    between atoms: C_8  and  C_34
    5  A    between atoms: C_10  and  C_19
    6  A    between atoms: C_10  and  O_26
    7  A    between atoms: C_14  and  C_27
    8  A    between atoms: C_14  and  C_31
    9  A    between atoms: C_14  and  C_50
   10  A    between atoms: C_18  and  C_42
   11  A    between atoms: S_25  and  C_37
   12  A    between atoms: S_25  and  C_52
   13  A    between atoms: O_26  and  C_47
   14  A    between atoms: C_32  and  C_36
   15  A    between atoms: C_34  and  N_43
                            x       y       z     vdW  Elec       q    Type
                         _______ _______ _______ _____ _____    ______ ____

>  <TORSDO>
F 15

$$$$
