=
 OpenBabel10222420063D

 27 29  0  0  1  0  0  0  0  0999 V2000
  187.1840  177.0050  143.8750 C   0  0  1  0  0  3  0  0  0  0  0  0
  190.5540  176.7790  144.5270 O   0  0  0  0  0  0  0  0  0  0  0  0
  186.3350  177.3350  144.9910 C   0  0  2  0  0  3  0  0  0  0  0  0
  186.0410  177.9950  143.6420 C   0  0  0  0  0  0  0  0  0  0  0  0
  186.9040  178.3800  145.9580 C   0  0  2  0  0  3  0  0  0  0  0  0
  189.1040  177.3330  146.3260 C   0  0  0  0  0  0  0  0  0  0  0  0
  188.5170  177.7530  143.8160 C   0  0  0  0  0  2  0  0  0  0  0  0
  189.4460  177.2630  144.8800 C   0  0  0  0  0  0  0  0  0  0  0  0
  187.9770  177.8110  146.7720 N   0  0  0  0  0  0  0  0  0  0  0  0
  185.3350  178.8140  142.8710 C   0  0  0  0  0  3  0  0  0  0  0  0
  190.0800  176.8070  147.3210 C   0  0  0  0  0  1  0  0  0  0  0  0
  184.5330  178.3180  146.8090 N   0  0  0  0  0  1  0  0  0  0  0  0
  185.8240  178.9150  146.8390 C   0  0  0  0  0  0  0  0  0  0  0  0
  186.0510  179.8780  147.6190 O   0  0  0  0  0  0  0  0  0  0  0  0
  184.7940  179.5000  140.6630 O   0  0  0  0  0  0  0  0  0  0  0  0
  185.6510  179.0160  141.4540 C   0  0  0  0  0  0  0  0  0  0  0  0
  186.9810  178.6470  140.9660 C   0  0  0  0  0  3  0  0  0  0  0  0
  187.2470  178.6400  139.7000 N   0  0  0  0  0  0  0  0  0  0  0  0
  188.5690  178.2740  139.2180 C   0  0  0  0  0  3  0  0  0  0  0  0
  191.6680  174.5130  138.0860 O   0  0  0  0  0  1  0  0  0  0  0  0
  191.1300  175.4150  137.3900 C   0  0  0  0  0  0  0  0  0  0  0  0
  190.4440  176.6390  139.4750 C   0  0  0  0  0  2  0  0  0  0  0  0
  190.4350  176.4980  138.0200 N   0  0  0  0  0  0  0  0  0  0  0  0
  189.0550  177.0370  139.9660 C   0  0  0  0  0  2  0  0  0  0  0  0
  189.9070  177.5950  137.2130 C   0  0  0  0  0  2  0  0  0  0  0  0
  191.2120  175.3470  136.0040 O   0  0  0  0  0  0  0  0  0  0  0  0
  188.5220  177.9880  137.7160 C   0  0  0  0  0  2  0  0  0  0  0  0
  1  7  1  1  0  0  0
  1  3  1  0  0  0  0
  2  8  2  0  0  0  0
  3  4  1  6  0  0  0
  3  5  1  0  0  0  0
  4  1  1  0  0  0  0
  5  9  1  0  0  0  0
  5 13  1  1  0  0  0
  6  9  2  0  0  0  0
  6 11  1  0  0  0  0
  7  8  1  0  0  0  0
  8  6  1  0  0  0  0
 10  4  2  0  0  0  0
 12 13  1  0  0  0  0
 13 14  2  0  0  0  0
 15 16  2  0  0  0  0
 16 10  1  0  0  0  0
 17 16  1  0  0  0  0
 18 17  2  0  0  0  0
 19 18  1  0  0  0  0
 19 24  1  0  0  0  0
 21 23  1  0  0  0  0
 21 20  1  0  0  0  0
 22 24  1  0  0  0  0
 23 22  1  0  0  0  0
 25 27  1  0  0  0  0
 25 23  1  0  0  0  0
 26 21  2  0  0  0  0
 27 19  1  0  0  0  0
M  END
>  <MODEL>
1

>  <REMARK>
 VINA RESULT:      -9.4      0.000      0.000
  Name = 
  4 active torsions:
  status: ('A' for Active; 'I' for Inactive)
    1  A    between atoms: C_4  and  C_11
    2  A    between atoms: C_5  and  N_27
    3  A    between atoms: C_14  and  C_20
    4  A    between atoms: C_14  and  C_24
                            x       y       z     vdW  Elec       q    Type
                         _______ _______ _______ _____ _____    ______ ____

>  <TORSDO>
F 4

$$$$
=
 OpenBabel10222420063D

 27 29  0  0  1  0  0  0  0  0999 V2000
  188.8060  178.2650  144.3660 C   0  0  1  0  0  3  0  0  0  0  0  0
  185.6460  177.8930  143.0570 O   0  0  0  0  0  0  0  0  0  0  0  0
  188.8940  178.4220  145.7950 C   0  0  2  0  0  3  0  0  0  0  0  0
  189.9250  177.5260  145.1030 C   0  0  0  0  0  0  0  0  0  0  0  0
  187.9270  177.5540  146.6090 C   0  0  2  0  0  3  0  0  0  0  0  0
  185.8570  178.1450  145.4100 C   0  0  0  0  0  0  0  0  0  0  0  0
  187.7720  177.2490  143.8760 C   0  0  0  0  0  2  0  0  0  0  0  0
  186.3840  177.7720  144.0710 C   0  0  0  0  0  0  0  0  0  0  0  0
  186.5580  178.0560  146.5050 N   0  0  0  0  0  0  0  0  0  0  0  0
  190.9770  176.7180  145.1340 C   0  0  0  0  0  3  0  0  0  0  0  0
  184.4680  178.6740  145.5140 C   0  0  0  0  0  1  0  0  0  0  0  0
  189.4500  178.3000  148.4730 N   0  0  0  0  0  1  0  0  0  0  0  0
  188.3480  177.5110  148.0410 C   0  0  0  0  0  0  0  0  0  0  0  0
  187.7270  176.7960  148.8700 O   0  0  0  0  0  0  0  0  0  0  0  0
  192.0490  174.9550  143.9580 O   0  0  0  0  0  0  0  0  0  0  0  0
  191.5230  176.1020  143.9210 C   0  0  0  0  0  0  0  0  0  0  0  0
  191.4480  176.8390  142.6580 C   0  0  0  0  0  3  0  0  0  0  0  0
  190.6000  176.5030  141.7400 N   0  0  0  0  0  0  0  0  0  0  0  0
  190.5270  177.2360  140.4880 C   0  0  0  0  0  3  0  0  0  0  0  0
  189.1210  177.1020  135.6870 O   0  0  0  0  0  0  0  0  0  0  0  0
  188.7310  177.7830  136.6730 C   0  0  0  0  0  0  0  0  0  0  0  0
  190.7290  177.0380  138.0030 C   0  0  0  0  0  2  0  0  0  0  0  0
  189.4590  177.7560  137.9070 N   0  0  0  0  0  0  0  0  0  0  0  0
  190.7990  176.2840  139.3270 C   0  0  0  0  0  2  0  0  0  0  0  0
  189.0640  178.6290  139.0080 C   0  0  0  0  0  2  0  0  0  0  0  0
  187.5820  178.5570  136.5550 O   0  0  0  0  0  1  0  0  0  0  0  0
  189.1430  177.8680  140.3280 C   0  0  0  0  0  2  0  0  0  0  0  0
  1  7  1  1  0  0  0
  1  4  1  0  0  0  0
  1  3  1  0  0  0  0
  2  8  2  0  0  0  0
  3  4  1  1  0  0  0
  3  5  1  0  0  0  0
  4 10  2  0  0  0  0
  5 13  1  1  0  0  0
  6 11  1  0  0  0  0
  6  9  2  0  0  0  0
  7  8  1  0  0  0  0
  8  6  1  0  0  0  0
  9  5  1  0  0  0  0
 13 12  1  0  0  0  0
 13 14  2  0  0  0  0
 16 15  2  0  0  0  0
 16 10  1  0  0  0  0
 17 16  1  0  0  0  0
 18 17  2  0  0  0  0
 19 18  1  0  0  0  0
 20 21  2  0  0  0  0
 21 23  1  0  0  0  0
 22 24  1  0  0  0  0
 23 22  1  0  0  0  0
 23 25  1  0  0  0  0
 24 19  1  0  0  0  0
 25 27  1  0  0  0  0
 26 21  1  0  0  0  0
 27 19  1  0  0  0  0
M  END
>  <MODEL>
2

>  <REMARK>
 VINA RESULT:      -8.7      2.118      4.203
  Name = 
  4 active torsions:
  status: ('A' for Active; 'I' for Inactive)
    1  A    between atoms: C_4  and  C_11
    2  A    between atoms: C_5  and  N_27
    3  A    between atoms: C_14  and  C_20
    4  A    between atoms: C_14  and  C_24
                            x       y       z     vdW  Elec       q    Type
                         _______ _______ _______ _____ _____    ______ ____

>  <TORSDO>
F 4

$$$$
=
 OpenBabel10222420063D

 27 29  0  0  1  0  0  0  0  0999 V2000
  187.7170  176.8590  143.0530 C   0  0  1  0  0  3  0  0  0  0  0  0
  187.9700  178.4060  139.9910 O   0  0  0  0  0  0  0  0  0  0  0  0
  188.9320  176.3050  143.5950 C   0  0  2  0  0  3  0  0  0  0  0  0
  187.9870  177.0420  144.5480 C   0  0  0  0  0  0  0  0  0  0  0  0
  190.1920  177.1490  143.3700 C   0  0  2  0  0  3  0  0  0  0  0  0
  189.9430  177.4830  140.9410 C   0  0  0  0  0  0  0  0  0  0  0  0
  187.8650  178.2090  142.3470 C   0  0  0  0  0  2  0  0  0  0  0  0
  188.5700  178.0470  141.0380 C   0  0  0  0  0  0  0  0  0  0  0  0
  190.6260  177.0810  141.9760 N   0  0  0  0  0  0  0  0  0  0  0  0
  187.6670  177.4980  145.7530 C   0  0  0  0  0  3  0  0  0  0  0  0
  190.5670  177.3390  139.5960 C   0  0  0  0  0  1  0  0  0  0  0  0
  191.6410  177.4690  145.4070 N   0  0  0  0  0  1  0  0  0  0  0  0
  191.2910  176.6890  144.2700 C   0  0  0  0  0  0  0  0  0  0  0  0
  191.8990  175.6110  144.0390 O   0  0  0  0  0  0  0  0  0  0  0  0
  186.3820  179.1390  146.8920 O   0  0  0  0  0  0  0  0  0  0  0  0
  186.4310  178.2480  145.9990 C   0  0  0  0  0  0  0  0  0  0  0  0
  185.2490  177.9480  145.1890 C   0  0  0  0  0  3  0  0  0  0  0  0
  184.8900  178.7270  144.2200 N   0  0  0  0  0  0  0  0  0  0  0  0
  183.7160  178.4260  143.4170 C   0  0  0  0  0  3  0  0  0  0  0  0
  179.6410  180.2830  141.1850 O   0  0  0  0  0  1  0  0  0  0  0  0
  180.6870  179.7400  140.7390 C   0  0  0  0  0  0  0  0  0  0  0  0
  181.3050  178.9860  143.0550 C   0  0  0  0  0  2  0  0  0  0  0  0
  181.6160  179.1130  141.6320 N   0  0  0  0  0  0  0  0  0  0  0  0
  182.5480  179.2900  143.8860 C   0  0  0  0  0  2  0  0  0  0  0  0
  182.7690  178.3920  141.1000 C   0  0  0  0  0  2  0  0  0  0  0  0
  180.9350  179.7600  139.3710 O   0  0  0  0  0  0  0  0  0  0  0  0
  184.0040  178.6990  141.9400 C   0  0  0  0  0  2  0  0  0  0  0  0
  1  7  1  6  0  0  0
  1  3  1  0  0  0  0
  1  4  1  0  0  0  0
  2  8  2  0  0  0  0
  3  4  1  1  0  0  0
  4 10  2  0  0  0  0
  5  3  1  0  0  0  0
  5 13  1  1  0  0  0
  6  8  1  0  0  0  0
  6  9  2  0  0  0  0
  8  7  1  0  0  0  0
  9  5  1  0  0  0  0
 10 16  1  0  0  0  0
 11  6  1  0  0  0  0
 13 12  1  0  0  0  0
 14 13  2  0  0  0  0
 16 15  2  0  0  0  0
 17 16  1  0  0  0  0
 18 17  2  0  0  0  0
 19 24  1  0  0  0  0
 19 18  1  0  0  0  0
 21 20  1  0  0  0  0
 21 23  1  0  0  0  0
 22 24  1  0  0  0  0
 23 22  1  0  0  0  0
 25 23  1  0  0  0  0
 25 27  1  0  0  0  0
 26 21  2  0  0  0  0
 27 19  1  0  0  0  0
M  END
>  <MODEL>
3

>  <REMARK>
 VINA RESULT:      -8.6      2.869      7.104
  Name = 
  4 active torsions:
  status: ('A' for Active; 'I' for Inactive)
    1  A    between atoms: C_4  and  C_11
    2  A    between atoms: C_5  and  N_27
    3  A    between atoms: C_14  and  C_20
    4  A    between atoms: C_14  and  C_24
                            x       y       z     vdW  Elec       q    Type
                         _______ _______ _______ _____ _____    ______ ____

>  <TORSDO>
F 4

$$$$
=
 OpenBabel10222420063D

 27 29  0  0  1  0  0  0  0  0999 V2000
  189.5410  178.2500  144.7900 C   0  0  1  0  0  3  0  0  0  0  0  0
  186.5940  178.2440  146.5640 O   0  0  0  0  0  0  0  0  0  0  0  0
  190.7200  177.8280  145.5020 C   0  0  2  0  0  3  0  0  0  0  0  0
  190.5380  177.3460  144.0600 C   0  0  0  0  0  0  0  0  0  0  0  0
  190.5170  176.6520  146.4640 C   0  0  2  0  0  3  0  0  0  0  0  0
  188.5710  177.5470  147.6820 C   0  0  0  0  0  0  0  0  0  0  0  0
  188.2690  177.4540  145.0900 C   0  0  0  0  0  2  0  0  0  0  0  0
  187.7570  177.7720  146.4590 C   0  0  0  0  0  0  0  0  0  0  0  0
  189.7840  177.0710  147.6570 N   0  0  0  0  0  0  0  0  0  0  0  0
  190.9410  176.6570  143.0000 C   0  0  0  0  0  3  0  0  0  0  0  0
  187.9920  177.9080  149.0070 C   0  0  0  0  0  1  0  0  0  0  0  0
  192.4300  176.4380  148.0900 N   0  0  0  0  0  1  0  0  0  0  0  0
  191.8340  176.0660  146.8530 C   0  0  0  0  0  0  0  0  0  0  0  0
  192.4120  175.2360  146.1040 O   0  0  0  0  0  0  0  0  0  0  0  0
  190.6060  176.0130  140.7390 O   0  0  0  0  0  0  0  0  0  0  0  0
  190.1620  176.6100  141.7590 C   0  0  0  0  0  0  0  0  0  0  0  0
  188.8550  177.2680  141.7190 C   0  0  0  0  0  3  0  0  0  0  0  0
  188.5950  178.1810  140.8400 N   0  0  0  0  0  0  0  0  0  0  0  0
  187.2960  178.8320  140.8020 C   0  0  0  0  0  3  0  0  0  0  0  0
  182.3980  178.2510  139.9620 O   0  0  0  0  0  0  0  0  0  0  0  0
  183.0590  178.5470  140.9940 C   0  0  0  0  0  0  0  0  0  0  0  0
  185.1090  178.9300  139.5920 C   0  0  0  0  0  2  0  0  0  0  0  0
  184.4570  178.8450  140.8980 N   0  0  0  0  0  0  0  0  0  0  0  0
  186.4760  178.2560  139.6500 C   0  0  0  0  0  2  0  0  0  0  0  0
  185.1920  179.2910  142.0780 C   0  0  0  0  0  2  0  0  0  0  0  0
  182.4200  178.5750  142.2280 O   0  0  0  0  0  1  0  0  0  0  0  0
  186.5590  178.6150  142.1240 C   0  0  0  0  0  2  0  0  0  0  0  0
  1  7  1  1  0  0  0
  1  3  1  0  0  0  0
  3  4  1  6  0  0  0
  3  5  1  0  0  0  0
  4  1  1  0  0  0  0
  5 13  1  1  0  0  0
  5  9  1  0  0  0  0
  6 11  1  0  0  0  0
  7  8  1  0  0  0  0
  8  2  2  0  0  0  0
  8  6  1  0  0  0  0
  9  6  2  0  0  0  0
 10  4  2  0  0  0  0
 13 12  1  0  0  0  0
 14 13  2  0  0  0  0
 15 16  2  0  0  0  0
 16 10  1  0  0  0  0
 17 16  1  0  0  0  0
 18 17  2  0  0  0  0
 19 18  1  0  0  0  0
 19 27  1  0  0  0  0
 20 21  2  0  0  0  0
 21 26  1  0  0  0  0
 22 24  1  0  0  0  0
 22 23  1  0  0  0  0
 23 21  1  0  0  0  0
 23 25  1  0  0  0  0
 24 19  1  0  0  0  0
 25 27  1  0  0  0  0
M  END
>  <MODEL>
4

>  <REMARK>
 VINA RESULT:      -8.5      2.652      5.739
  Name = 
  4 active torsions:
  status: ('A' for Active; 'I' for Inactive)
    1  A    between atoms: C_4  and  C_11
    2  A    between atoms: C_5  and  N_27
    3  A    between atoms: C_14  and  C_20
    4  A    between atoms: C_14  and  C_24
                            x       y       z     vdW  Elec       q    Type
                         _______ _______ _______ _____ _____    ______ ____

>  <TORSDO>
F 4

$$$$
=
 OpenBabel10222420063D

 27 29  0  0  1  0  0  0  0  0999 V2000
  185.2910  179.7400  143.3390 C   0  0  1  0  0  3  0  0  0  0  0  0
  186.4260  178.8000  140.2310 O   0  0  0  0  0  0  0  0  0  0  0  0
  183.8620  179.8320  143.4990 C   0  0  2  0  0  3  0  0  0  0  0  0
  184.6760  179.2080  144.6360 C   0  0  0  0  0  0  0  0  0  0  0  0
  183.0530  178.7400  142.7900 C   0  0  2  0  0  3  0  0  0  0  0  0
  184.0790  178.9580  140.5600 C   0  0  0  0  0  0  0  0  0  0  0  0
  185.7860  178.5620  142.4970 C   0  0  0  0  0  2  0  0  0  0  0  0
  185.4710  178.7770  141.0510 C   0  0  0  0  0  0  0  0  0  0  0  0
  183.0380  178.9550  141.3440 N   0  0  0  0  0  0  0  0  0  0  0  0
  184.7670  178.6320  145.8280 C   0  0  0  0  0  3  0  0  0  0  0  0
  183.8530  179.1840  139.1050 C   0  0  0  0  0  1  0  0  0  0  0  0
  180.5870  179.1680  142.5010 N   0  0  0  0  0  1  0  0  0  0  0  0
  181.6560  178.7040  143.3160 C   0  0  0  0  0  0  0  0  0  0  0  0
  181.4160  178.2540  144.4670 O   0  0  0  0  0  0  0  0  0  0  0  0
  186.2970  178.3640  147.6230 O   0  0  0  0  0  0  0  0  0  0  0  0
  186.0510  178.2100  146.3950 C   0  0  0  0  0  0  0  0  0  0  0  0
  187.0490  177.6040  145.5120 C   0  0  0  0  0  3  0  0  0  0  0  0
  188.3070  177.8760  145.6420 N   0  0  0  0  0  0  0  0  0  0  0  0
  189.2960  177.2720  144.7650 C   0  0  0  0  0  3  0  0  0  0  0  0
  190.5850  176.3030  140.0280 O   0  0  0  0  0  0  0  0  0  0  0  0
  191.1050  177.0180  140.9260 C   0  0  0  0  0  0  0  0  0  0  0  0
  189.6110  175.9700  142.6530 C   0  0  0  0  0  2  0  0  0  0  0  0
  190.6250  176.9520  142.2740 N   0  0  0  0  0  0  0  0  0  0  0  0
  188.5880  176.6120  143.5850 C   0  0  0  0  0  2  0  0  0  0  0  0
  191.3010  177.7020  143.3290 C   0  0  0  0  0  2  0  0  0  0  0  0
  192.1470  177.8780  140.5950 O   0  0  0  0  0  1  0  0  0  0  0  0
  190.2700  178.3360  144.2570 C   0  0  0  0  0  2  0  0  0  0  0  0
  1  7  1  6  0  0  0
  1  3  1  0  0  0  0
  1  4  1  0  0  0  0
  2  8  2  0  0  0  0
  3  4  1  1  0  0  0
  4 10  2  0  0  0  0
  5 13  1  1  0  0  0
  5  3  1  0  0  0  0
  6  8  1  0  0  0  0
  6  9  2  0  0  0  0
  8  7  1  0  0  0  0
  9  5  1  0  0  0  0
 10 16  1  0  0  0  0
 11  6  1  0  0  0  0
 12 13  1  0  0  0  0
 13 14  2  0  0  0  0
 16 15  2  0  0  0  0
 17 18  2  0  0  0  0
 17 16  1  0  0  0  0
 19 18  1  0  0  0  0
 20 21  2  0  0  0  0
 21 23  1  0  0  0  0
 22 24  1  0  0  0  0
 23 22  1  0  0  0  0
 23 25  1  0  0  0  0
 24 19  1  0  0  0  0
 25 27  1  0  0  0  0
 26 21  1  0  0  0  0
 27 19  1  0  0  0  0
M  END
>  <MODEL>
5

>  <REMARK>
 VINA RESULT:      -8.5      2.695      5.517
  Name = 
  4 active torsions:
  status: ('A' for Active; 'I' for Inactive)
    1  A    between atoms: C_4  and  C_11
    2  A    between atoms: C_5  and  N_27
    3  A    between atoms: C_14  and  C_20
    4  A    between atoms: C_14  and  C_24
                            x       y       z     vdW  Elec       q    Type
                         _______ _______ _______ _____ _____    ______ ____

>  <TORSDO>
F 4

$$$$
=
 OpenBabel10222420063D

 27 29  0  0  1  0  0  0  0  0999 V2000
  187.5520  176.9820  143.2100 C   0  0  1  0  0  3  0  0  0  0  0  0
  189.1960  177.9690  140.3540 O   0  0  0  0  0  0  0  0  0  0  0  0
  188.3710  176.7320  144.3680 C   0  0  2  0  0  3  0  0  0  0  0  0
  187.0460  177.4720  144.5690 C   0  0  0  0  0  0  0  0  0  0  0  0
  189.5370  177.7080  144.5680 C   0  0  2  0  0  3  0  0  0  0  0  0
  190.4930  177.5540  142.3020 C   0  0  0  0  0  0  0  0  0  0  0  0
  187.9600  178.1870  142.3610 C   0  0  0  0  0  2  0  0  0  0  0  0
  189.2230  177.9040  141.6120 C   0  0  0  0  0  0  0  0  0  0  0  0
  190.6010  177.4580  143.5970 N   0  0  0  0  0  0  0  0  0  0  0  0
  186.1540  178.0820  145.3390 C   0  0  0  0  0  3  0  0  0  0  0  0
  191.7020  177.2690  141.4790 C   0  0  0  0  0  1  0  0  0  0  0  0
  191.4120  177.1530  146.1570 N   0  0  0  0  0  1  0  0  0  0  0  0
  190.0760  177.5970  145.9560 C   0  0  0  0  0  0  0  0  0  0  0  0
  189.3630  177.9080  146.9460 O   0  0  0  0  0  0  0  0  0  0  0  0
  183.9950  179.0450  145.5630 O   0  0  0  0  0  0  0  0  0  0  0  0
  184.9210  178.6610  144.7970 C   0  0  0  0  0  0  0  0  0  0  0  0
  184.7790  178.7890  143.3450 C   0  0  0  0  0  3  0  0  0  0  0  0
  183.6690  178.4850  142.7550 N   0  0  0  0  0  0  0  0  0  0  0  0
  183.5300  178.6140  141.3140 C   0  0  0  0  0  3  0  0  0  0  0  0
  185.6440  177.7660  136.8590 O   0  0  0  0  0  1  0  0  0  0  0  0
  184.6020  177.3200  137.4090 C   0  0  0  0  0  0  0  0  0  0  0  0
  184.7620  179.0860  139.1890 C   0  0  0  0  0  2  0  0  0  0  0  0
  184.1230  177.8960  138.6300 N   0  0  0  0  0  0  0  0  0  0  0  0
  184.8890  178.9440  140.7030 C   0  0  0  0  0  2  0  0  0  0  0  0
  182.8580  177.4460  139.2040 C   0  0  0  0  0  2  0  0  0  0  0  0
  183.9240  176.2560  136.8230 O   0  0  0  0  0  0  0  0  0  0  0  0
  182.9940  177.3120  140.7170 C   0  0  0  0  0  2  0  0  0  0  0  0
  1  7  1  6  0  0  0
  1  3  1  0  0  0  0
  1  4  1  0  0  0  0
  2  8  2  0  0  0  0
  3  5  1  0  0  0  0
  3  4  1  1  0  0  0
  4 10  2  0  0  0  0
  5 13  1  1  0  0  0
  6  9  2  0  0  0  0
  8  6  1  0  0  0  0
  8  7  1  0  0  0  0
  9  5  1  0  0  0  0
 11  6  1  0  0  0  0
 13 12  1  0  0  0  0
 13 14  2  0  0  0  0
 16 10  1  0  0  0  0
 16 15  2  0  0  0  0
 17 16  1  0  0  0  0
 18 17  2  0  0  0  0
 19 18  1  0  0  0  0
 20 21  1  0  0  0  0
 21 23  1  0  0  0  0
 22 24  1  0  0  0  0
 23 22  1  0  0  0  0
 23 25  1  0  0  0  0
 24 19  1  0  0  0  0
 25 27  1  0  0  0  0
 26 21  2  0  0  0  0
 27 19  1  0  0  0  0
M  END
>  <MODEL>
6

>  <REMARK>
 VINA RESULT:      -8.4      3.054      4.945
  Name = 
  4 active torsions:
  status: ('A' for Active; 'I' for Inactive)
    1  A    between atoms: C_4  and  C_11
    2  A    between atoms: C_5  and  N_27
    3  A    between atoms: C_14  and  C_20
    4  A    between atoms: C_14  and  C_24
                            x       y       z     vdW  Elec       q    Type
                         _______ _______ _______ _____ _____    ______ ____

>  <TORSDO>
F 4

$$$$
=
 OpenBabel10222420063D

 27 29  0  0  1  0  0  0  0  0999 V2000
  189.6070  178.3190  144.6490 C   0  0  1  0  0  3  0  0  0  0  0  0
  186.6420  178.3280  146.3920 O   0  0  0  0  0  0  0  0  0  0  0  0
  190.7660  177.8380  145.3560 C   0  0  2  0  0  3  0  0  0  0  0  0
  190.5870  177.4160  143.8960 C   0  0  0  0  0  0  0  0  0  0  0  0
  190.5210  176.6320  146.2710 C   0  0  2  0  0  3  0  0  0  0  0  0
  188.5870  177.5350  147.5030 C   0  0  0  0  0  0  0  0  0  0  0  0
  188.3110  177.5480  144.9060 C   0  0  0  0  0  2  0  0  0  0  0  0
  187.7930  177.8290  146.2800 C   0  0  0  0  0  0  0  0  0  0  0  0
  189.7870  177.0270  147.4720 N   0  0  0  0  0  0  0  0  0  0  0  0
  190.9830  176.7570  142.8140 C   0  0  0  0  0  3  0  0  0  0  0  0
  188.0030  177.8610  148.8340 C   0  0  0  0  0  1  0  0  0  0  0  0
  192.4390  176.3490  147.8800 N   0  0  0  0  0  1  0  0  0  0  0  0
  191.8170  175.9960  146.6500 C   0  0  0  0  0  0  0  0  0  0  0  0
  192.3540  175.1400  145.9000 O   0  0  0  0  0  0  0  0  0  0  0  0
  188.9550  176.8050  141.5790 O   0  0  0  0  0  0  0  0  0  0  0  0
  190.2170  176.7780  141.5640 C   0  0  0  0  0  0  0  0  0  0  0  0
  190.9400  176.7690  140.2910 C   0  0  0  0  0  3  0  0  0  0  0  0
  190.5410  176.0350  139.3040 N   0  0  0  0  0  0  0  0  0  0  0  0
  191.2600  176.0280  138.0410 C   0  0  0  0  0  3  0  0  0  0  0  0
  195.5660  174.9420  135.7350 O   0  0  0  0  0  1  0  0  0  0  0  0
  194.4010  174.4750  135.6320 C   0  0  0  0  0  0  0  0  0  0  0  0
  193.4920  176.3960  136.9730 C   0  0  0  0  0  2  0  0  0  0  0  0
  193.3000  175.1210  136.2840 N   0  0  0  0  0  0  0  0  0  0  0  0
  192.7210  176.3950  138.2890 C   0  0  0  0  0  2  0  0  0  0  0  0
  191.9390  174.6370  136.0720 C   0  0  0  0  0  2  0  0  0  0  0  0
  194.1930  173.3210  134.8850 O   0  0  0  0  0  0  0  0  0  0  0  0
  191.1750  174.6450  137.3930 C   0  0  0  0  0  2  0  0  0  0  0  0
  1  7  1  1  0  0  0
  1  3  1  0  0  0  0
  3  4  1  6  0  0  0
  3  5  1  0  0  0  0
  4  1  1  0  0  0  0
  5 13  1  1  0  0  0
  5  9  1  0  0  0  0
  6 11  1  0  0  0  0
  7  8  1  0  0  0  0
  8  2  2  0  0  0  0
  8  6  1  0  0  0  0
  9  6  2  0  0  0  0
 10  4  2  0  0  0  0
 13 12  1  0  0  0  0
 14 13  2  0  0  0  0
 16 15  2  0  0  0  0
 16 10  1  0  0  0  0
 17 16  1  0  0  0  0
 18 17  2  0  0  0  0
 19 24  1  0  0  0  0
 19 18  1  0  0  0  0
 21 20  1  0  0  0  0
 21 23  1  0  0  0  0
 22 24  1  0  0  0  0
 23 22  1  0  0  0  0
 25 23  1  0  0  0  0
 25 27  1  0  0  0  0
 26 21  2  0  0  0  0
 27 19  1  0  0  0  0
M  END
>  <MODEL>
7

>  <REMARK>
 VINA RESULT:      -8.3      2.918      4.514
  Name = 
  4 active torsions:
  status: ('A' for Active; 'I' for Inactive)
    1  A    between atoms: C_4  and  C_11
    2  A    between atoms: C_5  and  N_27
    3  A    between atoms: C_14  and  C_20
    4  A    between atoms: C_14  and  C_24
                            x       y       z     vdW  Elec       q    Type
                         _______ _______ _______ _____ _____    ______ ____

>  <TORSDO>
F 4

$$$$
=
 OpenBabel10222420063D

 27 29  0  0  1  0  0  0  0  0999 V2000
  187.8160  178.3420  137.9540 C   0  0  1  0  0  3  0  0  0  0  0  0
  190.6520  177.6900  139.7890 O   0  0  0  0  0  0  0  0  0  0  0  0
  187.4290  177.3410  136.9930 C   0  0  2  0  0  3  0  0  0  0  0  0
  186.3290  178.0020  137.8270 C   0  0  0  0  0  0  0  0  0  0  0  0
  187.6150  175.8890  137.4510 C   0  0  2  0  0  3  0  0  0  0  0  0
  189.9570  176.0700  138.1960 C   0  0  0  0  0  0  0  0  0  0  0  0
  188.3410  177.8080  139.2880 C   0  0  0  0  0  2  0  0  0  0  0  0
  189.7010  177.2080  139.1190 C   0  0  0  0  0  0  0  0  0  0  0  0
  189.0290  175.5210  137.4630 N   0  0  0  0  0  0  0  0  0  0  0  0
  185.0570  178.1500  138.1760 C   0  0  0  0  0  3  0  0  0  0  0  0
  191.3440  175.5420  138.0740 C   0  0  0  0  0  1  0  0  0  0  0  0
  186.2900  173.7740  137.1010 N   0  0  0  0  0  1  0  0  0  0  0  0
  186.8540  174.9630  136.5600 C   0  0  0  0  0  0  0  0  0  0  0  0
  186.6940  175.2340  135.3410 O   0  0  0  0  0  0  0  0  0  0  0  0
  184.3890  180.3020  138.9250 O   0  0  0  0  0  0  0  0  0  0  0  0
  184.6370  179.0980  139.2120 C   0  0  0  0  0  0  0  0  0  0  0  0
  184.5080  178.6260  140.5920 C   0  0  0  0  0  3  0  0  0  0  0  0
  185.4930  178.7220  141.4240 N   0  0  0  0  0  0  0  0  0  0  0  0
  185.3620  178.2540  142.7940 C   0  0  0  0  0  3  0  0  0  0  0  0
  187.4680  178.0810  147.3290 O   0  0  0  0  0  0  0  0  0  0  0  0
  186.4130  178.6190  146.8970 C   0  0  0  0  0  0  0  0  0  0  0  0
  186.6130  177.3260  144.7510 C   0  0  0  0  0  2  0  0  0  0  0  0
  185.9450  178.3340  145.5730 N   0  0  0  0  0  0  0  0  0  0  0  0
  186.7310  177.8240  143.3140 C   0  0  0  0  0  2  0  0  0  0  0  0
  184.6670  178.8740  145.1180 C   0  0  0  0  0  2  0  0  0  0  0  0
  185.7110  179.4960  147.7150 O   0  0  0  0  0  1  0  0  0  0  0  0
  184.7950  179.3650  143.6790 C   0  0  0  0  0  2  0  0  0  0  0  0
  1  7  1  1  0  0  0
  3  5  1  0  0  0  0
  3  4  1  1  0  0  0
  3  1  1  0  0  0  0
  4  1  1  0  0  0  0
  4 10  2  0  0  0  0
  5 13  1  6  0  0  0
  5  9  1  0  0  0  0
  6  8  1  0  0  0  0
  8  7  1  0  0  0  0
  8  2  2  0  0  0  0
  9  6  2  0  0  0  0
 10 16  1  0  0  0  0
 11  6  1  0  0  0  0
 13 12  1  0  0  0  0
 14 13  2  0  0  0  0
 15 16  2  0  0  0  0
 16 17  1  0  0  0  0
 17 18  2  0  0  0  0
 18 19  1  0  0  0  0
 19 24  1  0  0  0  0
 19 27  1  0  0  0  0
 21 20  2  0  0  0  0
 21 26  1  0  0  0  0
 22 23  1  0  0  0  0
 23 21  1  0  0  0  0
 24 22  1  0  0  0  0
 25 23  1  0  0  0  0
 27 25  1  0  0  0  0
M  END
>  <MODEL>
8

>  <REMARK>
 VINA RESULT:      -8.0      2.276      8.006
  Name = 
  4 active torsions:
  status: ('A' for Active; 'I' for Inactive)
    1  A    between atoms: C_4  and  C_11
    2  A    between atoms: C_5  and  N_27
    3  A    between atoms: C_14  and  C_20
    4  A    between atoms: C_14  and  C_24
                            x       y       z     vdW  Elec       q    Type
                         _______ _______ _______ _____ _____    ______ ____

>  <TORSDO>
F 4

$$$$
=
 OpenBabel10222420063D

 27 29  0  0  1  0  0  0  0  0999 V2000
  188.1100  176.7180  143.3260 C   0  0  1  0  0  3  0  0  0  0  0  0
  191.5350  177.0420  143.3020 O   0  0  0  0  0  0  0  0  0  0  0  0
  187.4700  176.7640  144.6150 C   0  0  2  0  0  3  0  0  0  0  0  0
  186.8020  177.5020  143.4530 C   0  0  0  0  0  0  0  0  0  0  0  0
  188.0560  177.7830  145.6000 C   0  0  2  0  0  3  0  0  0  0  0  0
  190.4210  177.1220  145.3990 C   0  0  0  0  0  0  0  0  0  0  0  0
  189.2680  177.6990  143.1280 C   0  0  0  0  0  2  0  0  0  0  0  0
  190.4630  177.2740  143.9200 C   0  0  0  0  0  0  0  0  0  0  0  0
  189.3500  177.3340  146.1110 N   0  0  0  0  0  0  0  0  0  0  0  0
  185.8330  178.2580  142.9520 C   0  0  0  0  0  3  0  0  0  0  0  0
  191.6520  176.6770  146.1110 C   0  0  0  0  0  1  0  0  0  0  0  0
  187.6240  178.2400  148.0400 N   0  0  0  0  0  1  0  0  0  0  0  0
  187.1110  178.0110  146.7330 C   0  0  0  0  0  0  0  0  0  0  0  0
  185.8670  178.0190  146.5390 O   0  0  0  0  0  0  0  0  0  0  0  0
  186.8520  179.1090  140.9840 O   0  0  0  0  0  0  0  0  0  0  0  0
  185.8110  178.6680  141.5450 C   0  0  0  0  0  0  0  0  0  0  0  0
  184.5590  178.5570  140.7950 C   0  0  0  0  0  3  0  0  0  0  0  0
  184.1810  179.4930  139.9860 N   0  0  0  0  0  0  0  0  0  0  0  0
  182.9370  179.3800  139.2430 C   0  0  0  0  0  3  0  0  0  0  0  0
  180.3200  180.9750  135.2870 O   0  0  0  0  0  1  0  0  0  0  0  0
  180.8060  179.8530  135.5950 C   0  0  0  0  0  0  0  0  0  0  0  0
  181.2280  180.6580  137.9370 C   0  0  0  0  0  2  0  0  0  0  0  0
  181.3440  179.6310  136.9030 N   0  0  0  0  0  0  0  0  0  0  0  0
  182.5340  180.7560  138.7190 C   0  0  0  0  0  2  0  0  0  0  0  0
  181.8060  178.3000  137.2870 C   0  0  0  0  0  2  0  0  0  0  0  0
  180.8200  178.8340  134.6490 O   0  0  0  0  0  0  0  0  0  0  0  0
  183.1090  178.4100  138.0730 C   0  0  0  0  0  2  0  0  0  0  0  0
  1  7  1  1  0  0  0
  1  4  1  0  0  0  0
  1  3  1  0  0  0  0
  2  8  2  0  0  0  0
  3  4  1  6  0  0  0
  3  5  1  0  0  0  0
  5  9  1  0  0  0  0
  5 13  1  1  0  0  0
  6 11  1  0  0  0  0
  6  9  2  0  0  0  0
  7  8  1  0  0  0  0
  8  6  1  0  0  0  0
 10  4  2  0  0  0  0
 13 12  1  0  0  0  0
 14 13  2  0  0  0  0
 15 16  2  0  0  0  0
 16 10  1  0  0  0  0
 17 16  1  0  0  0  0
 18 17  2  0  0  0  0
 19 18  1  0  0  0  0
 20 21  1  0  0  0  0
 21 23  1  0  0  0  0
 22 24  1  0  0  0  0
 23 25  1  0  0  0  0
 23 22  1  0  0  0  0
 24 19  1  0  0  0  0
 25 27  1  0  0  0  0
 26 21  2  0  0  0  0
 27 19  1  0  0  0  0
M  END
>  <MODEL>
9

>  <REMARK>
 VINA RESULT:      -7.9      3.682      5.688
  Name = 
  4 active torsions:
  status: ('A' for Active; 'I' for Inactive)
    1  A    between atoms: C_4  and  C_11
    2  A    between atoms: C_5  and  N_27
    3  A    between atoms: C_14  and  C_20
    4  A    between atoms: C_14  and  C_24
                            x       y       z     vdW  Elec       q    Type
                         _______ _______ _______ _____ _____    ______ ____

>  <TORSDO>
F 4

$$$$
