=
 OpenBabel10222417363D

 67 76  0  0  1  0  0  0  0  0999 V2000
  189.9360  176.5350  136.6170 C   0  0  0  0  0  0  0  0  0  0  0  0
  184.4760  178.1380  143.3650 C   0  0  2  0  0  3  0  0  0  0  0  0
  188.2470  174.2420  135.0890 C   0  0  1  0  0  3  0  0  0  0  0  0
  186.8310  177.1430  138.1700 C   0  0  0  0  0  3  0  0  0  0  0  0
  185.9810  174.7740  136.1140 C   0  0  0  0  0  2  0  0  0  0  0  0
  188.5750  175.9360  136.8720 C   0  0  1  0  0  3  0  0  0  0  0  0
  188.0220  177.3430  142.7030 C   0  0  0  0  0  2  0  0  0  0  0  0
  182.5640  177.3780  137.2670 C   0  0  1  0  0  3  0  0  0  0  0  0
  190.4790  176.4230  139.0600 C   0  0  0  0  0  2  0  0  0  0  0  0
  188.7590  172.9020  134.5940 C   0  0  0  0  0  2  0  0  0  0  0  0
  183.4480  178.5810  141.0310 C   0  0  1  0  0  3  0  0  0  0  0  0
  184.1590  174.0580  134.7750 C   0  0  0  0  0  2  0  0  0  0  0  0
  187.2230  173.8880  136.1310 C   0  0  2  0  0  0  0  0  0  0  0  0
  185.5870  177.9680  145.6080 C   0  0  1  0  0  3  0  0  0  0  0  0
  184.6950  180.0620  139.6250 O   0  0  0  0  0  1  0  0  0  0  0  0
  183.4650  177.1660  136.0530 C   0  0  0  0  0  2  0  0  0  0  0  0
  190.8250  176.8090  137.7020 N   0  0  0  0  0  2  0  0  0  0  0  0
  184.6540  178.7980  144.7410 C   0  0  0  0  0  2  0  0  0  0  0  0
  183.2790  176.9890  138.5660 C   0  0  2  0  0  3  0  0  0  0  0  0
  185.3920  174.8410  134.7810 N   0  0  0  0  0  2  0  0  0  0  0  0
  182.8120  176.1890  135.0890 C   0  0  0  0  0  2  0  0  0  0  0  0
  184.6030  178.7340  140.0460 C   0  0  2  0  0  3  0  0  0  0  0  0
  185.7320  176.8860  138.8800 C   0  0  0  0  0  3  0  0  0  0  0  0
  189.0350  176.7110  139.2920 C   0  0  0  0  0  0  0  0  0  0  0  0
  182.9080  177.1620  141.0670 C   0  0  0  0  0  2  0  0  0  0  0  0
  185.6290  177.5160  142.8010 O   0  0  0  0  0  0  0  0  0  0  0  0
  187.8120  171.8660  134.9830 N   0  0  0  0  0  2  0  0  0  0  0  0
  188.5790  174.4370  136.5660 C   0  0  1  0  0  3  0  0  0  0  0  0
  188.3360  178.0420  141.4300 C   0  0  0  0  0  3  0  0  0  0  0  0
  182.2780  176.8780  139.7190 C   0  0  0  0  0  2  0  0  0  0  0  0
  184.5650  177.8090  138.8200 C   0  0  1  0  0  3  0  0  0  0  0  0
  183.0410  174.7510  135.5630 C   0  0  1  0  0  3  0  0  0  0  0  0
  190.3030  176.7820  135.4380 O   0  0  0  0  0  0  0  0  0  0  0  0
  186.8260  177.9860  143.3880 C   0  0  1  0  0  3  0  0  0  0  0  0
  187.0670  172.3870  136.1200 C   0  0  0  0  0  2  0  0  0  0  0  0
  186.8890  177.6270  144.8740 C   0  0  0  0  0  2  0  0  0  0  0  0
  188.0090  176.2240  138.2820 C   0  0  1  0  0  3  0  0  0  0  0  0
  188.6820  177.3600  140.3730 C   0  0  0  0  0  0  0  0  0  0  0  0
  183.8220  179.1340  142.4080 C   0  0  0  0  0  2  0  0  0  0  0  0
  187.0520  176.2620  147.7960 O   0  0  0  0  0  0  0  0  0  0  0  0
  187.2500  178.5550  147.3550 N   0  0  0  0  0  0  0  0  0  0  0  0
  185.3650  180.1250  146.9500 C   0  0  0  0  0  2  0  0  0  0  0  0
  187.7730  177.3000  147.8290 C   0  0  0  0  0  0  0  0  0  0  0  0
  187.4300  180.8760  148.1920 C   0  0  0  0  0  2  0  0  0  0  0  0
  185.8990  180.8190  148.1940 C   0  0  0  0  0  2  0  0  0  0  0  0
  185.8400  178.6670  146.9460 C   0  0  1  0  0  3  0  0  0  0  0  0
  188.0890  179.7550  147.3750 C   0  0  0  0  0  2  0  0  0  0  0  0
  190.1130  176.6030  147.3700 C   0  0  1  0  0  3  0  0  0  0  0  0
  189.5580  175.8610  148.4290 O   0  0  0  0  0  0  0  0  0  0  0  0
  189.1770  177.2170  148.3490 C   0  0  2  0  0  3  0  0  0  0  0  0
  192.4850  176.1660  146.8520 C   0  0  0  0  0  2  0  0  0  0  0  0
  192.2410  175.7480  148.2860 C   0  0  0  0  0  2  0  0  0  0  0  0
  191.5390  176.9650  147.7230 C   0  0  0  0  0  3  0  0  0  0  0  0
  181.7610  173.9040  135.5460 C   0  0  1  0  0  3  0  0  0  0  0  0
  182.1140  172.4430  135.3280 C   0  0  0  0  0  1  0  0  0  0  0  0
  180.9110  174.0450  136.8080 C   0  0  0  0  0  2  0  0  0  0  0  0
  179.9110  175.1800  136.6750 C   0  0  0  0  0  2  0  0  0  0  0  0
  178.9310  176.9050  138.1430 C   0  0  0  0  0  1  0  0  0  0  0  0
  179.2490  175.4300  138.0110 C   0  0  0  0  0  2  0  0  0  0  0  0
  182.0230  178.8080  137.3150 C   0  0  0  0  0  2  0  0  0  0  0  0
  181.6180  179.2700  135.9310 C   0  0  0  0  0  2  0  0  0  0  0  0
  181.0530  180.5440  136.0040 O   0  0  0  0  0  0  0  0  0  0  0  0
  181.0160  180.8390  137.3690 C   0  0  0  0  0  2  0  0  0  0  0  0
  180.6300  182.2940  137.5850 C   0  0  0  0  0  2  0  0  0  0  0  0
  181.1280  183.0730  136.5390 O   0  0  0  0  0  0  0  0  0  0  0  0
  180.2550  185.2720  136.7560 C   0  0  0  0  0  1  0  0  0  0  0  0
  181.3800  184.3190  137.1100 C   0  0  0  0  0  2  0  0  0  0  0  0
  1 17  1  0  0  0  0
  2 39  1  6  0  0  0
  2 18  1  0  0  0  0
  3 10  1  1  0  0  0
  3 13  1  0  0  0  0
  3 28  1  0  0  0  0
  4 37  1  0  0  0  0
  4 23  2  0  0  0  0
  6  1  1  1  0  0  0
  6 37  1  0  0  0  0
  7 34  1  0  0  0  0
  8 60  1  1  0  0  0
  8 19  1  0  0  0  0
  9 24  1  0  0  0  0
 10 27  1  0  0  0  0
 11 25  1  1  0  0  0
 11 39  1  0  0  0  0
 12 20  1  0  0  0  0
 12 32  1  0  0  0  0
 13  5  1  1  0  0  0
 13 28  1  0  0  0  0
 14 18  1  6  0  0  0
 14 46  1  0  0  0  0
 16  8  1  0  0  0  0
 17  9  1  0  0  0  0
 19 31  1  0  0  0  0
 19 30  1  1  0  0  0
 20  5  1  0  0  0  0
 21 32  1  0  0  0  0
 21 16  1  0  0  0  0
 22 15  1  6  0  0  0
 22 11  1  0  0  0  0
 24 38  2  0  0  0  0
 26  2  1  0  0  0  0
 26 34  1  0  0  0  0
 27 35  1  0  0  0  0
 28  6  1  0  0  0  0
 29  7  1  0  0  0  0
 30 25  1  0  0  0  0
 31 23  1  0  0  0  0
 31 22  1  0  0  0  0
 33  1  2  0  0  0  0
 34 36  1  0  0  0  0
 35 13  1  0  0  0  0
 36 14  1  0  0  0  0
 37 24  1  0  0  0  0
 38 29  2  0  0  0  0
 40 43  2  0  0  0  0
 41 47  1  0  0  0  0
 41 43  1  0  0  0  0
 42 45  1  0  0  0  0
 43 50  1  0  0  0  0
 44 45  1  0  0  0  0
 46 42  1  0  0  0  0
 46 41  1  0  0  0  0
 47 44  1  0  0  0  0
 48 53  1  0  0  0  0
 48 50  1  0  0  0  0
 48 49  1  0  0  0  0
 50 49  1  0  0  0  0
 51 53  1  0  0  0  0
 51 52  1  0  0  0  0
 53 52  1  0  0  0  0
 54 32  1  0  0  0  0
 54 56  1  0  0  0  0
 55 54  1  0  0  0  0
 57 56  1  0  0  0  0
 57 59  1  0  0  0  0
 59 58  1  0  0  0  0
 61 62  1  0  0  0  0
 61 60  1  0  0  0  0
 62 63  1  0  0  0  0
 63 64  1  0  0  0  0
 65 67  1  0  0  0  0
 65 64  1  0  0  0  0
 66 67  1  0  0  0  0
M  END
>  <MODEL>
1

>  <REMARK>
 VINA RESULT:      -1.8      0.000      0.000
  Name = 
  14 active torsions:
  status: ('A' for Active; 'I' for Inactive)
    1  A    between atoms: C_1  and  C_49
    2  A    between atoms: C_1  and  C_54
    3  A    between atoms: C_4  and  O_19
    4  A    between atoms: C_4  and  C_51
    5  A    between atoms: C_13  and  C_28
    6  A    between atoms: O_18  and  C_38
    7  A    between atoms: O_18  and  C_51
    8  A    between atoms: O_19  and  C_20
    9  A    between atoms: C_20  and  C_28
   10  A    between atoms: C_23  and  C_46
   11  A    between atoms: C_25  and  C_64
   12  A    between atoms: C_37  and  C_59
   13  A    between atoms: C_49  and  C_53
   14  A    between atoms: C_53  and  C_65
                            x       y       z     vdW  Elec       q    Type
                         _______ _______ _______ _____ _____    ______ ____

>  <TORSDO>
F 14

$$$$
=
 OpenBabel10222417363D

 67 76  0  0  1  0  0  0  0  0999 V2000
  190.3420  176.5190  136.7340 C   0  0  0  0  0  0  0  0  0  0  0  0
  184.6340  178.0710  143.2870 C   0  0  2  0  0  3  0  0  0  0  0  0
  188.6920  174.2690  135.1030 C   0  0  1  0  0  3  0  0  0  0  0  0
  187.1840  177.1350  138.1730 C   0  0  0  0  0  3  0  0  0  0  0  0
  186.3920  174.8090  136.0460 C   0  0  0  0  0  2  0  0  0  0  0  0
  188.9660  175.9310  136.9260 C   0  0  1  0  0  3  0  0  0  0  0  0
  188.1960  177.2490  142.7530 C   0  0  0  0  0  2  0  0  0  0  0  0
  182.9590  177.4300  137.1070 C   0  0  1  0  0  3  0  0  0  0  0  0
  190.7860  176.3620  139.1940 C   0  0  0  0  0  2  0  0  0  0  0  0
  189.2100  172.9320  134.6060 C   0  0  0  0  0  2  0  0  0  0  0  0
  183.7040  178.5630  140.9220 C   0  0  1  0  0  3  0  0  0  0  0  0
  184.6170  174.1340  134.6240 C   0  0  0  0  0  2  0  0  0  0  0  0
  187.6230  173.9090  136.0980 C   0  0  2  0  0  0  0  0  0  0  0  0
  185.6540  177.8520  145.5690 C   0  0  1  0  0  3  0  0  0  0  0  0
  185.0210  180.0520  139.5910 O   0  0  0  0  0  1  0  0  0  0  0  0
  183.9050  177.2280  135.9250 C   0  0  0  0  0  2  0  0  0  0  0  0
  191.1900  176.7660  137.8570 N   0  0  0  0  0  2  0  0  0  0  0  0
  184.7640  178.7060  144.6790 C   0  0  0  0  0  2  0  0  0  0  0  0
  183.6180  177.0120  138.4260 C   0  0  2  0  0  3  0  0  0  0  0  0
  185.8570  174.9030  134.6920 N   0  0  0  0  0  2  0  0  0  0  0  0
  183.2800  176.2740  134.9210 C   0  0  0  0  0  2  0  0  0  0  0  0
  184.8990  178.7200  139.9860 C   0  0  2  0  0  3  0  0  0  0  0  0
  186.0550  176.8790  138.8350 C   0  0  0  0  0  3  0  0  0  0  0  0
  189.3370  176.6620  139.3740 C   0  0  0  0  0  0  0  0  0  0  0  0
  183.1490  177.1490  140.9130 C   0  0  0  0  0  2  0  0  0  0  0  0
  185.8030  177.4460  142.7590 O   0  0  0  0  0  0  0  0  0  0  0  0
  188.2380  171.9000  134.9400 N   0  0  0  0  0  2  0  0  0  0  0  0
  188.9670  174.4370  136.5950 C   0  0  1  0  0  3  0  0  0  0  0  0
  188.5670  177.9650  141.5040 C   0  0  0  0  0  3  0  0  0  0  0  0
  182.5700  176.8930  139.5370 C   0  0  0  0  0  2  0  0  0  0  0  0
  184.9010  177.8140  138.7440 C   0  0  1  0  0  3  0  0  0  0  0  0
  183.4760  174.8260  135.3790 C   0  0  1  0  0  3  0  0  0  0  0  0
  190.7570  176.7810  135.5750 O   0  0  0  0  0  0  0  0  0  0  0  0
  186.9800  177.8940  143.4000 C   0  0  1  0  0  3  0  0  0  0  0  0
  187.4530  172.4100  136.0550 C   0  0  0  0  0  2  0  0  0  0  0  0
  186.9800  177.5100  144.8820 C   0  0  0  0  0  2  0  0  0  0  0  0
  188.3470  176.2020  138.3160 C   0  0  1  0  0  3  0  0  0  0  0  0
  188.9480  177.2970  140.4510 C   0  0  0  0  0  0  0  0  0  0  0  0
  184.0290  179.0890  142.3210 C   0  0  0  0  0  2  0  0  0  0  0  0
  186.9450  176.0730  147.8060 O   0  0  0  0  0  0  0  0  0  0  0  0
  187.2430  178.3630  147.4070 N   0  0  0  0  0  0  0  0  0  0  0  0
  185.4350  180.0000  146.9260 C   0  0  0  0  0  2  0  0  0  0  0  0
  187.6980  177.0850  147.8900 C   0  0  0  0  0  0  0  0  0  0  0  0
  187.4580  180.6660  148.2820 C   0  0  0  0  0  2  0  0  0  0  0  0
  185.9270  180.6610  148.2050 C   0  0  0  0  0  2  0  0  0  0  0  0
  185.8610  178.5270  146.9270 C   0  0  1  0  0  3  0  0  0  0  0  0
  188.1190  179.5330  147.4850 C   0  0  0  0  0  2  0  0  0  0  0  0
  190.0680  176.4490  147.4970 C   0  0  1  0  0  3  0  0  0  0  0  0
  189.4570  175.5930  148.4320 O   0  0  0  0  0  0  0  0  0  0  0  0
  189.0700  176.9480  148.4800 C   0  0  2  0  0  3  0  0  0  0  0  0
  192.4620  176.3620  146.9080 C   0  0  0  0  0  2  0  0  0  0  0  0
  192.2540  175.4900  148.1290 C   0  0  0  0  0  2  0  0  0  0  0  0
  191.4670  176.7740  147.9720 C   0  0  0  0  0  3  0  0  0  0  0  0
  182.1900  173.9930  135.2980 C   0  0  1  0  0  3  0  0  0  0  0  0
  181.1040  174.7900  134.5950 C   0  0  0  0  0  1  0  0  0  0  0  0
  182.3710  172.6450  134.6010 C   0  0  0  0  0  2  0  0  0  0  0  0
  183.6200  171.9350  135.0910 C   0  0  0  0  0  2  0  0  0  0  0  0
  181.8470  170.2200  135.1470 C   0  0  0  0  0  1  0  0  0  0  0  0
  183.3410  170.4560  135.2260 C   0  0  0  0  0  2  0  0  0  0  0  0
  182.4300  178.8640  137.1570 C   0  0  0  0  0  2  0  0  0  0  0  0
  181.6480  179.0990  138.4320 C   0  0  0  0  0  2  0  0  0  0  0  0
  181.0880  180.3770  138.4150 O   0  0  0  0  0  0  0  0  0  0  0  0
  181.0840  180.7810  139.7530 C   0  0  0  0  0  2  0  0  0  0  0  0
  179.6600  181.0240  140.2270 C   0  0  0  0  0  2  0  0  0  0  0  0
  178.9310  179.8360  140.1570 O   0  0  0  0  0  0  0  0  0  0  0  0
  179.1380  177.5540  140.7870 C   0  0  0  0  0  1  0  0  0  0  0  0
  179.5420  178.9870  141.0780 C   0  0  0  0  0  2  0  0  0  0  0  0
  1 17  1  0  0  0  0
  2 39  1  6  0  0  0
  2 18  1  0  0  0  0
  3 10  1  1  0  0  0
  3 13  1  0  0  0  0
  3 28  1  0  0  0  0
  4 37  1  0  0  0  0
  4 23  2  0  0  0  0
  6  1  1  1  0  0  0
  6 37  1  0  0  0  0
  7 34  1  0  0  0  0
  8 60  1  1  0  0  0
  8 19  1  0  0  0  0
  9 24  1  0  0  0  0
 10 27  1  0  0  0  0
 11 25  1  1  0  0  0
 11 39  1  0  0  0  0
 12 20  1  0  0  0  0
 12 32  1  0  0  0  0
 13  5  1  1  0  0  0
 13 28  1  0  0  0  0
 14 18  1  6  0  0  0
 14 46  1  0  0  0  0
 16  8  1  0  0  0  0
 17  9  1  0  0  0  0
 19 31  1  0  0  0  0
 19 30  1  1  0  0  0
 20  5  1  0  0  0  0
 21 32  1  0  0  0  0
 21 16  1  0  0  0  0
 22 15  1  6  0  0  0
 22 11  1  0  0  0  0
 24 38  2  0  0  0  0
 26  2  1  0  0  0  0
 26 34  1  0  0  0  0
 27 35  1  0  0  0  0
 28  6  1  0  0  0  0
 29  7  1  0  0  0  0
 30 25  1  0  0  0  0
 31 23  1  0  0  0  0
 31 22  1  0  0  0  0
 33  1  2  0  0  0  0
 34 36  1  0  0  0  0
 35 13  1  0  0  0  0
 36 14  1  0  0  0  0
 37 24  1  0  0  0  0
 38 29  2  0  0  0  0
 40 43  2  0  0  0  0
 41 47  1  0  0  0  0
 41 43  1  0  0  0  0
 42 46  1  0  0  0  0
 42 45  1  0  0  0  0
 43 50  1  0  0  0  0
 45 44  1  0  0  0  0
 46 41  1  0  0  0  0
 47 44  1  0  0  0  0
 48 53  1  0  0  0  0
 48 49  1  0  0  0  0
 48 50  1  0  0  0  0
 49 50  1  0  0  0  0
 51 53  1  0  0  0  0
 51 52  1  0  0  0  0
 53 52  1  0  0  0  0
 54 32  1  0  0  0  0
 55 54  1  0  0  0  0
 56 57  1  0  0  0  0
 56 54  1  0  0  0  0
 57 59  1  0  0  0  0
 58 59  1  0  0  0  0
 60 61  1  0  0  0  0
 62 61  1  0  0  0  0
 62 63  1  0  0  0  0
 63 64  1  0  0  0  0
 65 64  1  0  0  0  0
 65 67  1  0  0  0  0
 66 67  1  0  0  0  0
M  END
>  <MODEL>
2

>  <REMARK>
 VINA RESULT:       0.2      1.319      2.255
  Name = 
  14 active torsions:
  status: ('A' for Active; 'I' for Inactive)
    1  A    between atoms: C_1  and  C_49
    2  A    between atoms: C_1  and  C_54
    3  A    between atoms: C_4  and  O_19
    4  A    between atoms: C_4  and  C_51
    5  A    between atoms: C_13  and  C_28
    6  A    between atoms: O_18  and  C_38
    7  A    between atoms: O_18  and  C_51
    8  A    between atoms: O_19  and  C_20
    9  A    between atoms: C_20  and  C_28
   10  A    between atoms: C_23  and  C_46
   11  A    between atoms: C_25  and  C_64
   12  A    between atoms: C_37  and  C_59
   13  A    between atoms: C_49  and  C_53
   14  A    between atoms: C_53  and  C_65
                            x       y       z     vdW  Elec       q    Type
                         _______ _______ _______ _____ _____    ______ ____

>  <TORSDO>
F 14

$$$$
