=
 OpenBabel10222415283D

 31 31  0  0  1  0  0  0  0  0999 V2000
  190.1630  176.7460  146.1830 C   0  0  1  0  0  3  0  0  0  0  0  0
  191.2000  176.7180  147.2660 C   0  0  0  0  0  3  0  0  0  0  0  0
  192.0730  175.7160  147.3460 C   0  0  0  0  0  2  0  0  0  0  0  0
  188.8220  177.3050  146.6830 C   0  0  2  0  0  3  0  0  0  0  0  0
  188.0180  177.9810  145.5740 C   0  0  2  0  0  3  0  0  0  0  0  0
  186.5990  177.5710  145.6530 C   0  0  2  0  0  3  0  0  0  0  0  0
  187.4830  177.0000  144.7200 O   0  0  0  0  0  0  0  0  0  0  0  0
  185.7270  178.6000  144.9580 C   0  0  2  0  0  3  0  0  0  0  0  0
  184.4010  178.7110  145.6880 C   0  0  0  0  0  1  0  0  0  0  0  0
  185.4910  178.1830  143.5170 C   0  0  0  0  0  2  0  0  0  0  0  0
  184.1460  178.3480  143.1870 O   0  0  0  0  0  0  0  0  0  0  0  0
  184.0860  178.0940  141.8170 C   0  0  0  0  0  2  0  0  0  0  0  0
  182.6830  178.3600  141.3140 C   0  0  0  0  0  2  0  0  0  0  0  0
  184.1700  179.1430  139.5010 C   0  0  0  0  0  1  0  0  0  0  0  0
  182.7500  179.1490  140.0240 C   0  0  0  0  0  2  0  0  0  0  0  0
  188.1090  177.8510  148.7070 C   0  0  0  0  0  1  0  0  0  0  0  0
  189.0400  178.2060  147.7290 O   0  0  0  0  0  0  0  0  0  0  0  0
  190.6730  177.5100  144.9620 C   0  0  0  0  0  2  0  0  0  0  0  0
  191.2690  176.5690  143.9230 C   0  0  0  0  0  2  0  0  0  0  0  0
  190.1990  176.0210  142.9870 C   0  0  0  0  0  2  0  0  0  0  0  0
  190.3010  176.6290  141.5980 C   0  0  0  0  0  2  0  0  0  0  0  0
  189.4630  177.8940  141.5070 C   0  0  0  0  0  2  0  0  0  0  0  0
  187.4450  178.7360  140.5650 O   0  0  0  0  0  1  0  0  0  0  0  0
  188.4410  177.7770  140.3870 C   0  0  1  0  0  3  0  0  0  0  0  0
  189.6580  176.8340  138.3760 N   0  0  0  0  0  2  0  0  0  0  0  0
  189.0820  177.9570  139.0500 C   0  0  0  0  0  0  0  0  0  0  0  0
  189.0440  179.1180  138.4810 N   0  0  0  0  0  2  0  0  0  0  0  0
  190.3010  176.9440  137.0740 C   0  0  0  0  0  2  0  0  0  0  0  0
  191.5420  176.0660  137.0100 C   0  0  0  0  0  2  0  0  0  0  0  0
  193.7000  176.9110  137.5890 O   0  0  0  0  0  1  0  0  0  0  0  0
  192.5190  176.3960  138.1260 C   0  0  0  0  0  2  0  0  0  0  0  0
  1 18  1  6  0  0  0
  1  4  1  0  0  0  0
  1  2  1  0  0  0  0
  2  3  2  0  0  0  0
  4 17  1  1  0  0  0
  5  6  1  0  0  0  0
  5  4  1  1  0  0  0
  6  8  1  6  0  0  0
  7  5  1  0  0  0  0
  7  6  1  0  0  0  0
  8  9  1  1  0  0  0
 10  8  1  0  0  0  0
 11 10  1  0  0  0  0
 12 11  1  0  0  0  0
 13 12  1  0  0  0  0
 14 15  1  0  0  0  0
 15 13  1  0  0  0  0
 17 16  1  0  0  0  0
 19 18  1  0  0  0  0
 20 19  1  0  0  0  0
 21 20  1  0  0  0  0
 22 21  1  0  0  0  0
 24 23  1  1  0  0  0
 24 22  1  0  0  0  0
 25 26  1  0  0  0  0
 26 24  1  0  0  0  0
 27 26  2  0  0  0  0
 28 25  1  0  0  0  0
 29 28  1  0  0  0  0
 29 31  1  0  0  0  0
 30 31  1  0  0  0  0
M  END
>  <MODEL>
1

>  <REMARK>
 VINA RESULT:      -6.5      0.000      0.000
  Name = 
  20 active torsions:
  status: ('A' for Active; 'I' for Inactive)
    1  A    between atoms: C_2  and  C_7
    2  A    between atoms: C_2  and  C_19
    3  A    between atoms: N_3  and  C_8
    4  A    between atoms: C_5  and  C_13
    5  A    between atoms: C_5  and  C_31
    6  A    between atoms: C_6  and  C_8
    7  A    between atoms: C_6  and  C_28
    8  A    between atoms: C_7  and  C_23
    9  A    between atoms: C_10  and  C_16
   10  A    between atoms: C_11  and  C_14
   11  A    between atoms: C_11  and  O_29
   12  A    between atoms: C_12  and  C_22
   13  A    between atoms: C_12  and  C_27
   14  A    between atoms: C_13  and  O_29
   15  A    between atoms: C_14  and  C_17
   16  A    between atoms: C_15  and  C_19
   17  A    between atoms: C_16  and  O_20
   18  A    between atoms: C_16  and  C_27
   19  A    between atoms: C_22  and  C_23
   20  A    between atoms: C_24  and  C_27
                            x       y       z     vdW  Elec       q    Type
                         _______ _______ _______ _____ _____    ______ ____

>  <TORSDO>
F 20

$$$$
=
 OpenBabel10222415283D

 31 31  0  0  1  0  0  0  0  0999 V2000
  191.4830  177.3710  144.2250 C   0  0  1  0  0  3  0  0  0  0  0  0
  191.2070  178.7860  143.8130 C   0  0  0  0  0  3  0  0  0  0  0  0
  191.9620  179.7860  144.2610 C   0  0  0  0  0  2  0  0  0  0  0  0
  190.7930  177.0100  145.5490 C   0  0  2  0  0  3  0  0  0  0  0  0
  189.6060  177.9190  145.8600 C   0  0  2  0  0  3  0  0  0  0  0  0
  188.5840  177.1750  146.6290 C   0  0  2  0  0  3  0  0  0  0  0  0
  188.4500  177.4030  145.2470 O   0  0  0  0  0  0  0  0  0  0  0  0
  187.7030  178.1490  147.3890 C   0  0  2  0  0  3  0  0  0  0  0  0
  187.8220  177.8790  148.8770 C   0  0  0  0  0  1  0  0  0  0  0  0
  186.2590  177.9880  146.9470 C   0  0  0  0  0  2  0  0  0  0  0  0
  185.8250  179.1460  146.3020 O   0  0  0  0  0  0  0  0  0  0  0  0
  184.7430  178.7320  145.5250 C   0  0  0  0  0  2  0  0  0  0  0  0
  184.5380  179.7060  144.3850 C   0  0  0  0  0  2  0  0  0  0  0  0
  185.6520  177.9550  143.0410 C   0  0  0  0  0  1  0  0  0  0  0  0
  184.5120  178.9500  143.0730 C   0  0  0  0  0  2  0  0  0  0  0  0
  192.1250  175.7360  146.7790 C   0  0  0  0  0  1  0  0  0  0  0  0
  191.7170  177.0590  146.5980 O   0  0  0  0  0  0  0  0  0  0  0  0
  191.1060  176.3970  143.1100 C   0  0  0  0  0  2  0  0  0  0  0  0
  191.5080  176.9320  141.7400 C   0  0  0  0  0  2  0  0  0  0  0  0
  190.3590  176.8330  140.7440 C   0  0  0  0  0  2  0  0  0  0  0  0
  189.0330  177.2290  141.3730 C   0  0  0  0  0  2  0  0  0  0  0  0
  188.4460  178.4380  140.6620 C   0  0  0  0  0  2  0  0  0  0  0  0
  186.5230  178.7870  139.3040 O   0  0  0  0  0  1  0  0  0  0  0  0
  187.6720  178.0070  139.4280 C   0  0  1  0  0  3  0  0  0  0  0  0
  188.8020  176.9810  137.4050 N   0  0  0  0  0  2  0  0  0  0  0  0
  188.5060  178.1380  138.1950 C   0  0  0  0  0  0  0  0  0  0  0  0
  188.8910  179.3110  137.8130 N   0  0  0  0  0  2  0  0  0  0  0  0
  189.6110  177.0410  136.1970 C   0  0  0  0  0  2  0  0  0  0  0  0
  190.6520  175.9310  136.1910 C   0  0  0  0  0  2  0  0  0  0  0  0
  191.4840  174.7460  138.0910 O   0  0  0  0  0  1  0  0  0  0  0  0
  190.3700  174.8930  137.2640 C   0  0  0  0  0  2  0  0  0  0  0  0
  1 18  1  6  0  0  0
  1  4  1  0  0  0  0
  2  1  1  0  0  0  0
  2  3  2  0  0  0  0
  4 17  1  1  0  0  0
  5  4  1  6  0  0  0
  5  6  1  0  0  0  0
  6  8  1  1  0  0  0
  7  5  1  0  0  0  0
  7  6  1  0  0  0  0
  8  9  1  1  0  0  0
 10  8  1  0  0  0  0
 11 10  1  0  0  0  0
 12 11  1  0  0  0  0
 13 12  1  0  0  0  0
 14 15  1  0  0  0  0
 15 13  1  0  0  0  0
 17 16  1  0  0  0  0
 19 18  1  0  0  0  0
 20 21  1  0  0  0  0
 20 19  1  0  0  0  0
 22 21  1  0  0  0  0
 24 23  1  6  0  0  0
 24 22  1  0  0  0  0
 25 26  1  0  0  0  0
 26 24  1  0  0  0  0
 27 26  2  0  0  0  0
 28 25  1  0  0  0  0
 29 28  1  0  0  0  0
 29 31  1  0  0  0  0
 31 30  1  0  0  0  0
M  END
>  <MODEL>
2

>  <REMARK>
 VINA RESULT:      -6.4      1.756      2.894
  Name = 
  20 active torsions:
  status: ('A' for Active; 'I' for Inactive)
    1  A    between atoms: C_2  and  C_7
    2  A    between atoms: C_2  and  C_19
    3  A    between atoms: N_3  and  C_8
    4  A    between atoms: C_5  and  C_13
    5  A    between atoms: C_5  and  C_31
    6  A    between atoms: C_6  and  C_8
    7  A    between atoms: C_6  and  C_28
    8  A    between atoms: C_7  and  C_23
    9  A    between atoms: C_10  and  C_16
   10  A    between atoms: C_11  and  C_14
   11  A    between atoms: C_11  and  O_29
   12  A    between atoms: C_12  and  C_22
   13  A    between atoms: C_12  and  C_27
   14  A    between atoms: C_13  and  O_29
   15  A    between atoms: C_14  and  C_17
   16  A    between atoms: C_15  and  C_19
   17  A    between atoms: C_16  and  O_20
   18  A    between atoms: C_16  and  C_27
   19  A    between atoms: C_22  and  C_23
   20  A    between atoms: C_24  and  C_27
                            x       y       z     vdW  Elec       q    Type
                         _______ _______ _______ _____ _____    ______ ____

>  <TORSDO>
F 20

$$$$
=
 OpenBabel10222415283D

 31 31  0  0  1  0  0  0  0  0999 V2000
  190.3190  176.9060  146.1500 C   0  0  1  0  0  3  0  0  0  0  0  0
  191.2090  176.5020  147.2870 C   0  0  0  0  0  3  0  0  0  0  0  0
  192.1880  175.6180  147.1040 C   0  0  0  0  0  2  0  0  0  0  0  0
  188.9280  177.3430  146.6340 C   0  0  2  0  0  3  0  0  0  0  0  0
  188.1060  178.0100  145.5330 C   0  0  2  0  0  3  0  0  0  0  0  0
  186.7030  177.5420  145.5910 C   0  0  2  0  0  3  0  0  0  0  0  0
  187.6170  177.0260  144.6530 O   0  0  0  0  0  0  0  0  0  0  0  0
  185.7970  178.5500  144.9110 C   0  0  2  0  0  3  0  0  0  0  0  0
  184.4520  178.5730  145.6140 C   0  0  0  0  0  1  0  0  0  0  0  0
  185.6110  178.1710  143.4510 C   0  0  0  0  0  2  0  0  0  0  0  0
  184.5880  178.9320  142.8870 O   0  0  0  0  0  0  0  0  0  0  0  0
  184.1330  178.1690  141.8120 C   0  0  0  0  0  2  0  0  0  0  0  0
  182.7040  178.5520  141.4890 C   0  0  0  0  0  2  0  0  0  0  0  0
  183.5420  177.8660  139.2670 C   0  0  0  0  0  1  0  0  0  0  0  0
  182.3160  177.9670  140.1480 C   0  0  0  0  0  2  0  0  0  0  0  0
  188.0850  177.7720  148.6370 C   0  0  0  0  0  1  0  0  0  0  0  0
  189.0500  178.2070  147.7260 O   0  0  0  0  0  0  0  0  0  0  0  0
  190.9840  177.9850  145.2970 C   0  0  0  0  0  2  0  0  0  0  0  0
  191.4180  177.4390  143.9420 C   0  0  0  0  0  2  0  0  0  0  0  0
  190.8550  176.0440  143.6980 C   0  0  0  0  0  2  0  0  0  0  0  0
  189.9760  176.0020  142.4580 C   0  0  0  0  0  2  0  0  0  0  0  0
  189.7580  177.4040  141.9110 C   0  0  0  0  0  2  0  0  0  0  0  0
  190.4950  176.1980  139.9950 O   0  0  0  0  0  1  0  0  0  0  0  0
  190.0050  177.4360  140.4120 C   0  0  1  0  0  3  0  0  0  0  0  0
  188.4520  177.0770  138.4440 N   0  0  0  0  0  2  0  0  0  0  0  0
  188.7530  177.7600  139.6650 C   0  0  0  0  0  0  0  0  0  0  0  0
  187.9160  178.6060  140.1700 N   0  0  0  0  0  2  0  0  0  0  0  0
  187.2510  177.3510  137.6660 C   0  0  0  0  0  2  0  0  0  0  0  0
  186.6550  176.0600  137.1240 C   0  0  0  0  0  2  0  0  0  0  0  0
  185.7740  177.3590  135.3230 O   0  0  0  0  0  1  0  0  0  0  0  0
  186.3960  176.1480  135.6290 C   0  0  0  0  0  2  0  0  0  0  0  0
  1 18  1  1  0  0  0
  1  4  1  0  0  0  0
  1  2  1  0  0  0  0
  3  2  2  0  0  0  0
  4 17  1  1  0  0  0
  5  6  1  0  0  0  0
  5  4  1  1  0  0  0
  6  8  1  6  0  0  0
  7  5  1  0  0  0  0
  7  6  1  0  0  0  0
  8  9  1  1  0  0  0
 10  8  1  0  0  0  0
 11 10  1  0  0  0  0
 12 11  1  0  0  0  0
 13 12  1  0  0  0  0
 14 15  1  0  0  0  0
 15 13  1  0  0  0  0
 17 16  1  0  0  0  0
 19 18  1  0  0  0  0
 20 19  1  0  0  0  0
 21 20  1  0  0  0  0
 22 21  1  0  0  0  0
 24 23  1  6  0  0  0
 24 22  1  0  0  0  0
 25 26  1  0  0  0  0
 26 27  2  0  0  0  0
 26 24  1  0  0  0  0
 28 25  1  0  0  0  0
 29 28  1  0  0  0  0
 30 31  1  0  0  0  0
 31 29  1  0  0  0  0
M  END
>  <MODEL>
3

>  <REMARK>
 VINA RESULT:      -6.2      1.800      2.405
  Name = 
  20 active torsions:
  status: ('A' for Active; 'I' for Inactive)
    1  A    between atoms: C_2  and  C_7
    2  A    between atoms: C_2  and  C_19
    3  A    between atoms: N_3  and  C_8
    4  A    between atoms: C_5  and  C_13
    5  A    between atoms: C_5  and  C_31
    6  A    between atoms: C_6  and  C_8
    7  A    between atoms: C_6  and  C_28
    8  A    between atoms: C_7  and  C_23
    9  A    between atoms: C_10  and  C_16
   10  A    between atoms: C_11  and  C_14
   11  A    between atoms: C_11  and  O_29
   12  A    between atoms: C_12  and  C_22
   13  A    between atoms: C_12  and  C_27
   14  A    between atoms: C_13  and  O_29
   15  A    between atoms: C_14  and  C_17
   16  A    between atoms: C_15  and  C_19
   17  A    between atoms: C_16  and  O_20
   18  A    between atoms: C_16  and  C_27
   19  A    between atoms: C_22  and  C_23
   20  A    between atoms: C_24  and  C_27
                            x       y       z     vdW  Elec       q    Type
                         _______ _______ _______ _____ _____    ______ ____

>  <TORSDO>
F 20

$$$$
=
 OpenBabel10222415283D

 31 31  0  0  1  0  0  0  0  0999 V2000
  191.5010  177.1980  144.4610 C   0  0  1  0  0  3  0  0  0  0  0  0
  191.0470  178.5140  143.9020 C   0  0  0  0  0  3  0  0  0  0  0  0
  191.7360  179.6290  144.1390 C   0  0  0  0  0  2  0  0  0  0  0  0
  190.8080  176.8670  145.7920 C   0  0  2  0  0  3  0  0  0  0  0  0
  189.5770  177.7360  146.0450 C   0  0  2  0  0  3  0  0  0  0  0  0
  188.6560  177.0510  146.9780 C   0  0  2  0  0  3  0  0  0  0  0  0
  188.4290  177.0630  145.5890 O   0  0  0  0  0  0  0  0  0  0  0  0
  187.7510  178.0690  147.6460 C   0  0  2  0  0  3  0  0  0  0  0  0
  187.8880  177.9520  149.1530 C   0  0  0  0  0  1  0  0  0  0  0  0
  186.3090  177.8210  147.2370 C   0  0  0  0  0  2  0  0  0  0  0  0
  185.6420  179.0350  147.0800 O   0  0  0  0  0  0  0  0  0  0  0  0
  185.8230  179.3650  145.7380 C   0  0  0  0  0  2  0  0  0  0  0  0
  184.9760  178.4550  144.8740 C   0  0  0  0  0  2  0  0  0  0  0  0
  182.9890  178.9700  143.4970 C   0  0  0  0  0  1  0  0  0  0  0  0
  183.5370  178.9240  144.9070 C   0  0  0  0  0  2  0  0  0  0  0  0
  192.1740  175.7100  147.0960 C   0  0  0  0  0  1  0  0  0  0  0  0
  191.7130  177.0040  146.8490 O   0  0  0  0  0  0  0  0  0  0  0  0
  191.3170  176.0810  143.4360 C   0  0  0  0  0  2  0  0  0  0  0  0
  190.0210  176.2470  142.6530 C   0  0  0  0  0  2  0  0  0  0  0  0
  190.2900  176.4620  141.1690 C   0  0  0  0  0  2  0  0  0  0  0  0
  189.5370  177.6680  140.6290 C   0  0  0  0  0  2  0  0  0  0  0  0
  189.7220  177.7820  139.1240 C   0  0  0  0  0  2  0  0  0  0  0  0
  188.2140  176.6790  137.6480 O   0  0  0  0  0  1  0  0  0  0  0  0
  189.3440  176.4780  138.4410 C   0  0  1  0  0  3  0  0  0  0  0  0
  191.4180  175.0520  138.1550 N   0  0  0  0  0  2  0  0  0  0  0  0
  190.4650  175.9640  137.5980 C   0  0  0  0  0  0  0  0  0  0  0  0
  190.5210  176.2940  136.3490 N   0  0  0  0  0  2  0  0  0  0  0  0
  192.5350  174.5190  137.3880 C   0  0  0  0  0  2  0  0  0  0  0  0
  193.8260  175.2410  137.7440 C   0  0  0  0  0  2  0  0  0  0  0  0
  196.2010  175.0010  137.6550 O   0  0  0  0  0  1  0  0  0  0  0  0
  195.0170  174.6580  137.0020 C   0  0  0  0  0  2  0  0  0  0  0  0
  1 18  1  6  0  0  0
  1  4  1  0  0  0  0
  2  3  2  0  0  0  0
  2  1  1  0  0  0  0
  4 17  1  1  0  0  0
  5  4  1  6  0  0  0
  5  6  1  0  0  0  0
  6  8  1  1  0  0  0
  7  5  1  0  0  0  0
  7  6  1  0  0  0  0
  8  9  1  1  0  0  0
 10  8  1  0  0  0  0
 11 10  1  0  0  0  0
 12 11  1  0  0  0  0
 13 15  1  0  0  0  0
 13 12  1  0  0  0  0
 14 15  1  0  0  0  0
 17 16  1  0  0  0  0
 19 18  1  0  0  0  0
 20 19  1  0  0  0  0
 21 20  1  0  0  0  0
 22 21  1  0  0  0  0
 24 23  1  6  0  0  0
 24 22  1  0  0  0  0
 26 25  1  0  0  0  0
 26 24  1  0  0  0  0
 27 26  2  0  0  0  0
 28 29  1  0  0  0  0
 28 25  1  0  0  0  0
 31 30  1  0  0  0  0
 31 29  1  0  0  0  0
M  END
>  <MODEL>
4

>  <REMARK>
 VINA RESULT:      -6.2      2.057      3.355
  Name = 
  20 active torsions:
  status: ('A' for Active; 'I' for Inactive)
    1  A    between atoms: C_2  and  C_7
    2  A    between atoms: C_2  and  C_19
    3  A    between atoms: N_3  and  C_8
    4  A    between atoms: C_5  and  C_13
    5  A    between atoms: C_5  and  C_31
    6  A    between atoms: C_6  and  C_8
    7  A    between atoms: C_6  and  C_28
    8  A    between atoms: C_7  and  C_23
    9  A    between atoms: C_10  and  C_16
   10  A    between atoms: C_11  and  C_14
   11  A    between atoms: C_11  and  O_29
   12  A    between atoms: C_12  and  C_22
   13  A    between atoms: C_12  and  C_27
   14  A    between atoms: C_13  and  O_29
   15  A    between atoms: C_14  and  C_17
   16  A    between atoms: C_15  and  C_19
   17  A    between atoms: C_16  and  O_20
   18  A    between atoms: C_16  and  C_27
   19  A    between atoms: C_22  and  C_23
   20  A    between atoms: C_24  and  C_27
                            x       y       z     vdW  Elec       q    Type
                         _______ _______ _______ _____ _____    ______ ____

>  <TORSDO>
F 20

$$$$
=
 OpenBabel10222415283D

 31 31  0  0  1  0  0  0  0  0999 V2000
  191.4070  176.9150  144.2100 C   0  0  1  0  0  3  0  0  0  0  0  0
  191.2350  178.3020  143.6680 C   0  0  0  0  0  3  0  0  0  0  0  0
  191.9820  179.3070  144.1190 C   0  0  0  0  0  2  0  0  0  0  0  0
  190.8420  176.7770  145.6320 C   0  0  2  0  0  3  0  0  0  0  0  0
  189.6780  177.7290  145.8960 C   0  0  2  0  0  3  0  0  0  0  0  0
  188.6930  177.0890  146.7970 C   0  0  2  0  0  3  0  0  0  0  0  0
  188.4880  177.1600  145.4060 O   0  0  0  0  0  0  0  0  0  0  0  0
  187.8580  178.1540  147.4840 C   0  0  2  0  0  3  0  0  0  0  0  0
  188.1050  178.0990  148.9800 C   0  0  0  0  0  1  0  0  0  0  0  0
  186.3860  177.9180  147.1940 C   0  0  0  0  0  2  0  0  0  0  0  0
  185.7630  179.1260  146.8800 O   0  0  0  0  0  0  0  0  0  0  0  0
  184.7500  178.7780  145.9870 C   0  0  0  0  0  2  0  0  0  0  0  0
  185.3530  178.4740  144.6320 C   0  0  0  0  0  2  0  0  0  0  0  0
  183.0220  178.9630  143.9710 C   0  0  0  0  0  1  0  0  0  0  0  0
  184.4720  179.0520  143.5460 C   0  0  0  0  0  2  0  0  0  0  0  0
  192.1860  175.7180  147.0390 C   0  0  0  0  0  1  0  0  0  0  0  0
  191.8550  176.9910  146.5720 O   0  0  0  0  0  0  0  0  0  0  0  0
  190.8020  175.8820  143.2600 C   0  0  0  0  0  2  0  0  0  0  0  0
  190.2910  176.5320  141.9800 C   0  0  0  0  0  2  0  0  0  0  0  0
  188.8030  176.8460  142.0700 C   0  0  0  0  0  2  0  0  0  0  0  0
  188.4550  178.1340  141.3400 C   0  0  0  0  0  2  0  0  0  0  0  0
  187.9980  177.8340  139.9200 C   0  0  0  0  0  2  0  0  0  0  0  0
  190.1600  177.9640  138.9330 O   0  0  0  0  0  1  0  0  0  0  0  0
  188.8910  178.5400  138.9130 C   0  0  1  0  0  3  0  0  0  0  0  0
  188.1760  177.1840  136.8960 N   0  0  0  0  0  2  0  0  0  0  0  0
  188.3200  178.4570  137.5350 C   0  0  0  0  0  0  0  0  0  0  0  0
  187.8940  179.5340  136.9600 N   0  0  0  0  0  2  0  0  0  0  0  0
  187.6320  177.0370  135.5540 C   0  0  0  0  0  2  0  0  0  0  0  0
  186.5510  175.9660  135.5260 C   0  0  0  0  0  2  0  0  0  0  0  0
  184.8010  177.2940  136.4660 O   0  0  0  0  0  1  0  0  0  0  0  0
  185.5610  176.1400  136.6660 C   0  0  0  0  0  2  0  0  0  0  0  0
  1 18  1  6  0  0  0
  1  4  1  0  0  0  0
  2  3  2  0  0  0  0
  2  1  1  0  0  0  0
  4 17  1  1  0  0  0
  5  4  1  6  0  0  0
  5  6  1  0  0  0  0
  6  8  1  1  0  0  0
  7  5  1  0  0  0  0
  7  6  1  0  0  0  0
  8  9  1  1  0  0  0
 10  8  1  0  0  0  0
 11 10  1  0  0  0  0
 12 11  1  0  0  0  0
 13 12  1  0  0  0  0
 15 14  1  0  0  0  0
 15 13  1  0  0  0  0
 17 16  1  0  0  0  0
 19 20  1  0  0  0  0
 19 18  1  0  0  0  0
 21 20  1  0  0  0  0
 22 21  1  0  0  0  0
 24 23  1  6  0  0  0
 24 22  1  0  0  0  0
 25 26  1  0  0  0  0
 26 24  1  0  0  0  0
 27 26  2  0  0  0  0
 28 25  1  0  0  0  0
 29 28  1  0  0  0  0
 29 31  1  0  0  0  0
 30 31  1  0  0  0  0
M  END
>  <MODEL>
5

>  <REMARK>
 VINA RESULT:      -6.2      2.259      3.819
  Name = 
  20 active torsions:
  status: ('A' for Active; 'I' for Inactive)
    1  A    between atoms: C_2  and  C_7
    2  A    between atoms: C_2  and  C_19
    3  A    between atoms: N_3  and  C_8
    4  A    between atoms: C_5  and  C_13
    5  A    between atoms: C_5  and  C_31
    6  A    between atoms: C_6  and  C_8
    7  A    between atoms: C_6  and  C_28
    8  A    between atoms: C_7  and  C_23
    9  A    between atoms: C_10  and  C_16
   10  A    between atoms: C_11  and  C_14
   11  A    between atoms: C_11  and  O_29
   12  A    between atoms: C_12  and  C_22
   13  A    between atoms: C_12  and  C_27
   14  A    between atoms: C_13  and  O_29
   15  A    between atoms: C_14  and  C_17
   16  A    between atoms: C_15  and  C_19
   17  A    between atoms: C_16  and  O_20
   18  A    between atoms: C_16  and  C_27
   19  A    between atoms: C_22  and  C_23
   20  A    between atoms: C_24  and  C_27
                            x       y       z     vdW  Elec       q    Type
                         _______ _______ _______ _____ _____    ______ ____

>  <TORSDO>
F 20

$$$$
=
 OpenBabel10222415283D

 31 31  0  0  1  0  0  0  0  0999 V2000
  191.5780  177.3030  144.1240 C   0  0  1  0  0  3  0  0  0  0  0  0
  191.3450  178.7200  143.6910 C   0  0  0  0  0  3  0  0  0  0  0  0
  192.0080  179.7240  144.2610 C   0  0  0  0  0  2  0  0  0  0  0  0
  190.8540  176.9750  145.4390 C   0  0  2  0  0  3  0  0  0  0  0  0
  189.6380  177.8680  145.6780 C   0  0  2  0  0  3  0  0  0  0  0  0
  188.6090  177.1300  146.4430 C   0  0  2  0  0  3  0  0  0  0  0  0
  188.5130  177.3030  145.0490 O   0  0  0  0  0  0  0  0  0  0  0  0
  187.6830  178.1110  147.1380 C   0  0  2  0  0  3  0  0  0  0  0  0
  187.7210  177.8650  148.6350 C   0  0  0  0  0  1  0  0  0  0  0  0
  186.2660  177.9360  146.6200 C   0  0  0  0  0  2  0  0  0  0  0  0
  185.8990  179.0400  145.8510 O   0  0  0  0  0  0  0  0  0  0  0  0
  184.5390  178.8590  145.6030 C   0  0  0  0  0  2  0  0  0  0  0  0
  184.3450  178.3710  144.1830 C   0  0  0  0  0  2  0  0  0  0  0  0
  186.0930  178.3690  142.4350 C   0  0  0  0  0  1  0  0  0  0  0  0
  185.1490  179.2370  143.2370 C   0  0  0  0  0  2  0  0  0  0  0  0
  192.1220  175.7690  146.7970 C   0  0  0  0  0  1  0  0  0  0  0  0
  191.7410  177.0820  146.5140 O   0  0  0  0  0  0  0  0  0  0  0  0
  191.2000  176.3270  143.0130 C   0  0  0  0  0  2  0  0  0  0  0  0
  191.1050  177.0260  141.6620 C   0  0  0  0  0  2  0  0  0  0  0  0
  189.7230  176.8600  141.0430 C   0  0  0  0  0  2  0  0  0  0  0  0
  189.4930  177.8420  139.9060 C   0  0  0  0  0  2  0  0  0  0  0  0
  188.5920  177.2280  138.8460 C   0  0  0  0  0  2  0  0  0  0  0  0
  189.1640  178.2880  136.7920 O   0  0  0  0  0  1  0  0  0  0  0  0
  188.2070  178.2680  137.8070 C   0  0  1  0  0  3  0  0  0  0  0  0
  185.7160  177.8940  138.0810 N   0  0  0  0  0  2  0  0  0  0  0  0
  186.8610  177.9790  137.2260 C   0  0  0  0  0  0  0  0  0  0  0  0
  186.7340  177.8810  135.9430 N   0  0  0  0  0  2  0  0  0  0  0  0
  184.3800  177.6110  137.5770 C   0  0  0  0  0  2  0  0  0  0  0  0
  183.3400  178.4440  138.3120 C   0  0  0  0  0  2  0  0  0  0  0  0
  184.2010  180.5590  139.0160 O   0  0  0  0  0  1  0  0  0  0  0  0
  183.9650  179.2510  139.4390 C   0  0  0  0  0  2  0  0  0  0  0  0
  1 18  1  6  0  0  0
  1  4  1  0  0  0  0
  2  1  1  0  0  0  0
  2  3  2  0  0  0  0
  4 17  1  1  0  0  0
  5  4  1  6  0  0  0
  5  6  1  0  0  0  0
  6  8  1  1  0  0  0
  7  5  1  0  0  0  0
  7  6  1  0  0  0  0
  8  9  1  1  0  0  0
 10  8  1  0  0  0  0
 11 10  1  0  0  0  0
 12 11  1  0  0  0  0
 13 12  1  0  0  0  0
 14 15  1  0  0  0  0
 15 13  1  0  0  0  0
 17 16  1  0  0  0  0
 19 18  1  0  0  0  0
 20 19  1  0  0  0  0
 21 20  1  0  0  0  0
 22 21  1  0  0  0  0
 24 23  1  6  0  0  0
 24 22  1  0  0  0  0
 26 24  1  0  0  0  0
 26 25  1  0  0  0  0
 27 26  2  0  0  0  0
 28 25  1  0  0  0  0
 28 29  1  0  0  0  0
 29 31  1  0  0  0  0
 30 31  1  0  0  0  0
M  END
>  <MODEL>
6

>  <REMARK>
 VINA RESULT:      -6.0      2.204      4.375
  Name = 
  20 active torsions:
  status: ('A' for Active; 'I' for Inactive)
    1  A    between atoms: C_2  and  C_7
    2  A    between atoms: C_2  and  C_19
    3  A    between atoms: N_3  and  C_8
    4  A    between atoms: C_5  and  C_13
    5  A    between atoms: C_5  and  C_31
    6  A    between atoms: C_6  and  C_8
    7  A    between atoms: C_6  and  C_28
    8  A    between atoms: C_7  and  C_23
    9  A    between atoms: C_10  and  C_16
   10  A    between atoms: C_11  and  C_14
   11  A    between atoms: C_11  and  O_29
   12  A    between atoms: C_12  and  C_22
   13  A    between atoms: C_12  and  C_27
   14  A    between atoms: C_13  and  O_29
   15  A    between atoms: C_14  and  C_17
   16  A    between atoms: C_15  and  C_19
   17  A    between atoms: C_16  and  O_20
   18  A    between atoms: C_16  and  C_27
   19  A    between atoms: C_22  and  C_23
   20  A    between atoms: C_24  and  C_27
                            x       y       z     vdW  Elec       q    Type
                         _______ _______ _______ _____ _____    ______ ____

>  <TORSDO>
F 20

$$$$
=
 OpenBabel10222415283D

 31 31  0  0  1  0  0  0  0  0999 V2000
  184.9600  178.9350  142.6320 C   0  0  1  0  0  3  0  0  0  0  0  0
  185.9370  177.8470  142.9670 C   0  0  0  0  0  3  0  0  0  0  0  0
  187.2000  177.9150  142.5520 C   0  0  0  0  0  2  0  0  0  0  0  0
  183.8180  178.4310  141.7370 C   0  0  2  0  0  3  0  0  0  0  0  0
  183.9230  178.9470  140.3040 C   0  0  2  0  0  3  0  0  0  0  0  0
  185.0150  178.2480  139.5910 C   0  0  2  0  0  3  0  0  0  0  0  0
  185.1830  179.5440  140.1140 O   0  0  0  0  0  0  0  0  0  0  0  0
  184.7880  178.3340  138.0940 C   0  0  2  0  0  3  0  0  0  0  0  0
  183.6870  177.3690  137.6950 C   0  0  0  0  0  1  0  0  0  0  0  0
  186.0720  177.9860  137.3590 C   0  0  0  0  0  2  0  0  0  0  0  0
  186.9380  179.0790  137.3700 O   0  0  0  0  0  0  0  0  0  0  0  0
  188.1930  178.5360  137.0940 C   0  0  0  0  0  2  0  0  0  0  0  0
  188.5010  177.4420  138.0940 C   0  0  0  0  0  2  0  0  0  0  0  0
  190.5940  176.2010  138.5280 C   0  0  0  0  0  1  0  0  0  0  0  0
  189.5190  176.4900  137.5030 C   0  0  0  0  0  2  0  0  0  0  0  0
  181.6770  178.6860  141.2290 C   0  0  0  0  0  1  0  0  0  0  0  0
  182.5840  178.7950  142.2850 O   0  0  0  0  0  0  0  0  0  0  0  0
  184.4310  179.5990  143.9020 C   0  0  0  0  0  2  0  0  0  0  0  0
  184.6110  178.7000  145.1200 C   0  0  0  0  0  2  0  0  0  0  0  0
  185.5180  179.3460  146.1600 C   0  0  0  0  0  2  0  0  0  0  0  0
  186.2440  178.3050  146.9970 C   0  0  0  0  0  2  0  0  0  0  0  0
  187.5260  177.8650  146.3070 C   0  0  0  0  0  2  0  0  0  0  0  0
  188.2330  176.9100  148.3700 O   0  0  0  0  0  1  0  0  0  0  0  0
  188.6520  177.7230  147.3170 C   0  0  1  0  0  3  0  0  0  0  0  0
  190.0780  177.2640  145.2740 N   0  0  0  0  0  2  0  0  0  0  0  0
  189.8740  177.1390  146.6850 C   0  0  0  0  0  0  0  0  0  0  0  0
  190.7730  176.5890  147.4340 N   0  0  0  0  0  2  0  0  0  0  0  0
  191.2440  176.7140  144.5970 C   0  0  0  0  0  2  0  0  0  0  0  0
  190.8340  175.9860  143.3250 C   0  0  0  0  0  2  0  0  0  0  0  0
  191.9580  177.3910  141.7520 O   0  0  0  0  0  1  0  0  0  0  0  0
  190.6980  176.9440  142.1520 C   0  0  0  0  0  2  0  0  0  0  0  0
  1  2  1  1  0  0  0
  1 18  1  0  0  0  0
  3  2  2  0  0  0  0
  4 17  1  1  0  0  0
  4  1  1  0  0  0  0
  5  4  1  1  0  0  0
  6  8  1  6  0  0  0
  6  7  1  0  0  0  0
  6  5  1  0  0  0  0
  7  5  1  0  0  0  0
  8  9  1  6  0  0  0
 10 11  1  0  0  0  0
 10  8  1  0  0  0  0
 12 11  1  0  0  0  0
 12 13  1  0  0  0  0
 15 13  1  0  0  0  0
 15 14  1  0  0  0  0
 16 17  1  0  0  0  0
 18 19  1  0  0  0  0
 19 20  1  0  0  0  0
 20 21  1  0  0  0  0
 22 21  1  0  0  0  0
 22 24  1  0  0  0  0
 24 23  1  1  0  0  0
 25 26  1  0  0  0  0
 26 24  1  0  0  0  0
 26 27  2  0  0  0  0
 28 25  1  0  0  0  0
 29 28  1  0  0  0  0
 30 31  1  0  0  0  0
 31 29  1  0  0  0  0
M  END
>  <MODEL>
7

>  <REMARK>
 VINA RESULT:      -6.0      2.696      7.032
  Name = 
  20 active torsions:
  status: ('A' for Active; 'I' for Inactive)
    1  A    between atoms: C_2  and  C_7
    2  A    between atoms: C_2  and  C_19
    3  A    between atoms: N_3  and  C_8
    4  A    between atoms: C_5  and  C_13
    5  A    between atoms: C_5  and  C_31
    6  A    between atoms: C_6  and  C_8
    7  A    between atoms: C_6  and  C_28
    8  A    between atoms: C_7  and  C_23
    9  A    between atoms: C_10  and  C_16
   10  A    between atoms: C_11  and  C_14
   11  A    between atoms: C_11  and  O_29
   12  A    between atoms: C_12  and  C_22
   13  A    between atoms: C_12  and  C_27
   14  A    between atoms: C_13  and  O_29
   15  A    between atoms: C_14  and  C_17
   16  A    between atoms: C_15  and  C_19
   17  A    between atoms: C_16  and  O_20
   18  A    between atoms: C_16  and  C_27
   19  A    between atoms: C_22  and  C_23
   20  A    between atoms: C_24  and  C_27
                            x       y       z     vdW  Elec       q    Type
                         _______ _______ _______ _____ _____    ______ ____

>  <TORSDO>
F 20

$$$$
=
 OpenBabel10222415283D

 31 31  0  0  1  0  0  0  0  0999 V2000
  186.4610  178.7050  144.5660 C   0  0  1  0  0  3  0  0  0  0  0  0
  187.6070  177.8540  144.1050 C   0  0  0  0  0  3  0  0  0  0  0  0
  187.3940  176.6450  143.5920 C   0  0  0  0  0  2  0  0  0  0  0  0
  185.1210  178.2350  143.9810 C   0  0  2  0  0  3  0  0  0  0  0  0
  184.6390  179.1190  142.8320 C   0  0  2  0  0  3  0  0  0  0  0  0
  184.7740  178.4000  141.5460 C   0  0  2  0  0  3  0  0  0  0  0  0
  185.7100  179.3690  141.9540 O   0  0  0  0  0  0  0  0  0  0  0  0
  183.8370  179.0050  140.5190 C   0  0  2  0  0  3  0  0  0  0  0  0
  182.6270  178.1050  140.3490 C   0  0  0  0  0  1  0  0  0  0  0  0
  184.5590  179.1560  139.1910 C   0  0  0  0  0  2  0  0  0  0  0  0
  185.1520  177.9460  138.8300 O   0  0  0  0  0  0  0  0  0  0  0  0
  185.6700  178.1740  137.5550 C   0  0  0  0  0  2  0  0  0  0  0  0
  186.9110  177.3310  137.3560 C   0  0  0  0  0  2  0  0  0  0  0  0
  189.1160  178.3630  136.9300 C   0  0  0  0  0  1  0  0  0  0  0  0
  188.0980  178.0190  137.9950 C   0  0  0  0  0  2  0  0  0  0  0  0
  183.1160  179.0060  144.5220 C   0  0  0  0  0  1  0  0  0  0  0  0
  184.1490  178.1890  144.9850 O   0  0  0  0  0  0  0  0  0  0  0  0
  186.4170  178.7760  146.0910 C   0  0  0  0  0  2  0  0  0  0  0  0
  186.8600  177.4630  146.7260 C   0  0  0  0  0  2  0  0  0  0  0  0
  187.6920  177.7030  147.9790 C   0  0  0  0  0  2  0  0  0  0  0  0
  189.1480  177.9810  147.6430 C   0  0  0  0  0  2  0  0  0  0  0  0
  189.7650  176.7920  146.9230 C   0  0  0  0  0  2  0  0  0  0  0  0
  192.0800  176.5960  147.4400 O   0  0  0  0  0  1  0  0  0  0  0  0
  191.1890  177.1070  146.4970 C   0  0  1  0  0  3  0  0  0  0  0  0
  191.2520  177.3010  143.9720 N   0  0  0  0  0  2  0  0  0  0  0  0
  191.4920  176.5290  145.1530 C   0  0  0  0  0  0  0  0  0  0  0  0
  192.0380  175.3590  145.0750 N   0  0  0  0  0  2  0  0  0  0  0  0
  191.5210  176.7940  142.6340 C   0  0  0  0  0  2  0  0  0  0  0  0
  190.5830  177.4310  141.6180 C   0  0  0  0  0  2  0  0  0  0  0  0
  190.5870  176.0110  139.6960 O   0  0  0  0  0  1  0  0  0  0  0  0
  191.0740  177.2200  140.1950 C   0  0  0  0  0  2  0  0  0  0  0  0
  1  2  1  1  0  0  0
  1 18  1  0  0  0  0
  3  2  2  0  0  0  0
  4  1  1  0  0  0  0
  4 17  1  1  0  0  0
  5  4  1  1  0  0  0
  6  8  1  6  0  0  0
  6  7  1  0  0  0  0
  6  5  1  0  0  0  0
  7  5  1  0  0  0  0
  8  9  1  6  0  0  0
 10  8  1  0  0  0  0
 11 10  1  0  0  0  0
 12 11  1  0  0  0  0
 13 12  1  0  0  0  0
 13 15  1  0  0  0  0
 14 15  1  0  0  0  0
 16 17  1  0  0  0  0
 18 19  1  0  0  0  0
 19 20  1  0  0  0  0
 21 20  1  0  0  0  0
 22 21  1  0  0  0  0
 24 22  1  0  0  0  0
 24 23  1  1  0  0  0
 25 26  1  0  0  0  0
 26 24  1  0  0  0  0
 27 26  2  0  0  0  0
 28 25  1  0  0  0  0
 29 28  1  0  0  0  0
 30 31  1  0  0  0  0
 31 29  1  0  0  0  0
M  END
>  <MODEL>
8

>  <REMARK>
 VINA RESULT:      -5.8      2.424      5.533
  Name = 
  20 active torsions:
  status: ('A' for Active; 'I' for Inactive)
    1  A    between atoms: C_2  and  C_7
    2  A    between atoms: C_2  and  C_19
    3  A    between atoms: N_3  and  C_8
    4  A    between atoms: C_5  and  C_13
    5  A    between atoms: C_5  and  C_31
    6  A    between atoms: C_6  and  C_8
    7  A    between atoms: C_6  and  C_28
    8  A    between atoms: C_7  and  C_23
    9  A    between atoms: C_10  and  C_16
   10  A    between atoms: C_11  and  C_14
   11  A    between atoms: C_11  and  O_29
   12  A    between atoms: C_12  and  C_22
   13  A    between atoms: C_12  and  C_27
   14  A    between atoms: C_13  and  O_29
   15  A    between atoms: C_14  and  C_17
   16  A    between atoms: C_15  and  C_19
   17  A    between atoms: C_16  and  O_20
   18  A    between atoms: C_16  and  C_27
   19  A    between atoms: C_22  and  C_23
   20  A    between atoms: C_24  and  C_27
                            x       y       z     vdW  Elec       q    Type
                         _______ _______ _______ _____ _____    ______ ____

>  <TORSDO>
F 20

$$$$
=
 OpenBabel10222415283D

 31 31  0  0  1  0  0  0  0  0999 V2000
  189.5480  177.7490  143.6300 C   0  0  1  0  0  3  0  0  0  0  0  0
  190.4210  178.6420  144.4590 C   0  0  0  0  0  3  0  0  0  0  0  0
  191.5650  179.1200  143.9730 C   0  0  0  0  0  2  0  0  0  0  0  0
  190.3690  176.8000  142.7440 C   0  0  2  0  0  3  0  0  0  0  0  0
  189.7920  176.6660  141.3360 C   0  0  2  0  0  3  0  0  0  0  0  0
  190.7520  177.1940  140.3420 C   0  0  2  0  0  3  0  0  0  0  0  0
  189.6410  177.9440  140.7690 O   0  0  0  0  0  0  0  0  0  0  0  0
  190.4630  176.5950  138.9780 C   0  0  2  0  0  3  0  0  0  0  0  0
  191.7480  176.0470  138.3860 C   0  0  0  0  0  1  0  0  0  0  0  0
  189.8830  177.6590  138.0620 C   0  0  0  0  0  2  0  0  0  0  0  0
  188.6530  177.2370  137.5590 O   0  0  0  0  0  0  0  0  0  0  0  0
  187.7580  178.2400  137.9290 C   0  0  0  0  0  2  0  0  0  0  0  0
  186.3530  177.8350  137.5370 C   0  0  0  0  0  2  0  0  0  0  0  0
  185.3040  176.1570  136.0560 C   0  0  0  0  0  1  0  0  0  0  0  0
  186.3710  177.2250  136.1520 C   0  0  0  0  0  2  0  0  0  0  0  0
  191.7530  175.4750  143.8560 C   0  0  0  0  0  1  0  0  0  0  0  0
  190.4550  175.5400  143.3440 O   0  0  0  0  0  0  0  0  0  0  0  0
  188.5590  176.9870  144.5100 C   0  0  0  0  0  2  0  0  0  0  0  0
  188.4500  177.6090  145.8970 C   0  0  0  0  0  2  0  0  0  0  0  0
  187.0050  177.9470  146.2440 C   0  0  0  0  0  2  0  0  0  0  0  0
  186.0490  177.5270  145.1390 C   0  0  0  0  0  2  0  0  0  0  0  0
  185.3100  178.7360  144.5860 C   0  0  0  0  0  2  0  0  0  0  0  0
  183.1990  179.3750  145.4820 O   0  0  0  0  0  1  0  0  0  0  0  0
  183.8100  178.4920  144.5920 C   0  0  1  0  0  3  0  0  0  0  0  0
  184.0220  178.3880  142.0700 N   0  0  0  0  0  2  0  0  0  0  0  0
  183.2280  178.6690  143.2270 C   0  0  0  0  0  0  0  0  0  0  0  0
  181.9860  179.0060  143.1070 N   0  0  0  0  0  2  0  0  0  0  0  0
  183.5170  178.5450  140.7140 C   0  0  0  0  0  2  0  0  0  0  0  0
  182.8740  177.2560  140.2260 C   0  0  0  0  0  2  0  0  0  0  0  0
  182.8560  178.3700  138.1120 O   0  0  0  0  0  1  0  0  0  0  0  0
  182.9740  177.1170  138.7150 C   0  0  0  0  0  2  0  0  0  0  0  0
  1  2  1  1  0  0  0
  1 18  1  0  0  0  0
  3  2  2  0  0  0  0
  4 17  1  1  0  0  0
  4  1  1  0  0  0  0
  5  4  1  1  0  0  0
  6  8  1  6  0  0  0
  6  7  1  0  0  0  0
  6  5  1  0  0  0  0
  7  5  1  0  0  0  0
  8  9  1  6  0  0  0
 10  8  1  0  0  0  0
 11 12  1  0  0  0  0
 11 10  1  0  0  0  0
 13 12  1  0  0  0  0
 14 15  1  0  0  0  0
 15 13  1  0  0  0  0
 17 16  1  0  0  0  0
 18 19  1  0  0  0  0
 19 20  1  0  0  0  0
 21 20  1  0  0  0  0
 22 24  1  0  0  0  0
 22 21  1  0  0  0  0
 24 23  1  1  0  0  0
 25 26  1  0  0  0  0
 26 24  1  0  0  0  0
 27 26  2  0  0  0  0
 28 25  1  0  0  0  0
 29 28  1  0  0  0  0
 30 31  1  0  0  0  0
 31 29  1  0  0  0  0
M  END
>  <MODEL>
9

>  <REMARK>
 VINA RESULT:      -5.8      2.923      6.543
  Name = 
  20 active torsions:
  status: ('A' for Active; 'I' for Inactive)
    1  A    between atoms: C_2  and  C_7
    2  A    between atoms: C_2  and  C_19
    3  A    between atoms: N_3  and  C_8
    4  A    between atoms: C_5  and  C_13
    5  A    between atoms: C_5  and  C_31
    6  A    between atoms: C_6  and  C_8
    7  A    between atoms: C_6  and  C_28
    8  A    between atoms: C_7  and  C_23
    9  A    between atoms: C_10  and  C_16
   10  A    between atoms: C_11  and  C_14
   11  A    between atoms: C_11  and  O_29
   12  A    between atoms: C_12  and  C_22
   13  A    between atoms: C_12  and  C_27
   14  A    between atoms: C_13  and  O_29
   15  A    between atoms: C_14  and  C_17
   16  A    between atoms: C_15  and  C_19
   17  A    between atoms: C_16  and  O_20
   18  A    between atoms: C_16  and  C_27
   19  A    between atoms: C_22  and  C_23
   20  A    between atoms: C_24  and  C_27
                            x       y       z     vdW  Elec       q    Type
                         _______ _______ _______ _____ _____    ______ ____

>  <TORSDO>
F 20

$$$$
