=
 OpenBabel10222415443D

 44 48  0  0  1  0  0  0  0  0999 V2000
  192.6020  174.9600  136.2930 C   0  0  0  0  0  0  0  0  0  0  0  0
  189.3360  177.3300  140.6440 C   0  0  2  0  0  3  0  0  0  0  0  0
  187.1020  177.3260  137.5860 C   0  0  1  0  0  3  0  0  0  0  0  0
  187.9130  177.8780  135.2910 C   0  0  0  0  0  3  0  0  0  0  0  0
  186.9690  177.9630  136.2340 C   0  0  0  0  0  3  0  0  0  0  0  0
  190.8520  175.9270  139.2610 N   0  0  0  0  0  2  0  0  0  0  0  0
  190.7290  177.1880  139.9940 C   0  0  0  0  0  2  0  0  0  0  0  0
  188.2890  177.9020  138.3180 C   0  0  1  0  0  3  0  0  0  0  0  0
  188.2940  178.0520  139.7870 C   0  0  0  0  0  0  0  0  0  0  0  0
  189.8520  177.1980  136.5990 C   0  0  0  0  0  0  0  0  0  0  0  0
  189.1720  177.2170  135.4890 N   0  0  0  0  0  0  0  0  0  0  0  0
  189.4540  177.9040  137.7650 N   0  0  0  0  0  2  0  0  0  0  0  0
  187.3510  178.6790  140.3430 O   0  0  0  0  0  0  0  0  0  0  0  0
  191.0230  176.3290  136.7590 C   0  0  0  0  0  0  0  0  0  0  0  0
  191.4790  175.8060  137.9690 C   0  0  0  0  0  0  0  0  0  0  0  0
  191.7180  175.8130  135.7330 N   0  0  0  0  0  0  0  0  0  0  0  0
  192.4730  174.8970  137.6760 C   0  0  0  0  0  2  0  0  0  0  0  0
  185.9170  177.5210  138.3000 O   0  0  0  0  0  0  0  0  0  0  0  0
  184.8990  177.1130  137.4330 C   0  0  0  0  0  2  0  0  0  0  0  0
  183.6160  177.8690  137.7370 C   0  0  0  0  0  2  0  0  0  0  0  0
  183.3630  177.8890  139.1720 N   0  0  0  0  0  2  0  0  0  0  0  0
  184.1800  180.0540  139.4890 O   0  0  0  0  0  0  0  0  0  0  0  0
  183.7030  179.0050  140.0020 C   0  0  0  0  0  0  0  0  0  0  0  0
  182.1930  179.0040  141.9870 C   0  0  0  0  0  3  0  0  0  0  0  0
  183.4880  178.9360  141.4560 C   0  0  0  0  0  0  0  0  0  0  0  0
  184.3990  178.7340  143.6500 C   0  0  0  0  0  0  0  0  0  0  0  0
  184.5520  178.8030  142.2960 N   0  0  0  0  0  0  0  0  0  0  0  0
  182.0140  178.9350  143.3680 C   0  0  0  0  0  3  0  0  0  0  0  0
  183.1210  178.7990  144.2070 C   0  0  0  0  0  3  0  0  0  0  0  0
  185.4720  179.0010  145.8500 C   0  0  0  0  0  1  0  0  0  0  0  0
  185.5060  178.5990  144.4890 O   0  0  0  0  0  0  0  0  0  0  0  0
  193.5930  174.1730  135.4800 C   0  0  0  0  0  3  0  0  0  0  0  0
  195.4900  175.2810  135.7590 C   0  0  0  0  0  1  0  0  0  0  0  0
  194.8510  174.0850  136.0930 O   0  0  0  0  0  0  0  0  0  0  0  0
  194.1440  171.9700  135.1840 C   0  0  0  0  0  1  0  0  0  0  0  0
  193.1010  172.9050  135.0970 O   0  0  0  0  0  0  0  0  0  0  0  0
  189.4880  178.0150  141.9950 C   0  0  0  0  0  2  0  0  0  0  0  0
  188.9050  177.1920  143.0430 N   0  0  0  0  0  2  0  0  0  0  0  0
  189.2490  177.1440  146.7700 C   0  0  0  0  0  3  0  0  0  0  0  0
  189.4680  177.0930  144.3520 C   0  0  0  0  0  0  0  0  0  0  0  0
  190.6190  176.8980  146.9000 C   0  0  0  0  0  3  0  0  0  0  0  0
  190.8390  176.8470  144.4890 C   0  0  0  0  0  3  0  0  0  0  0  0
  191.4140  176.7490  145.7600 C   0  0  0  0  0  3  0  0  0  0  0  0
  188.6740  177.2410  145.5000 C   0  0  0  0  0  3  0  0  0  0  0  0
  1 17  1  0  0  0  0
  2 37  1  1  0  0  0
  3 18  1  1  0  0  0
  3  8  1  0  0  0  0
  4 11  1  0  0  0  0
  4  5  2  0  0  0  0
  5  3  1  0  0  0  0
  6  7  1  0  0  0  0
  7  2  1  0  0  0  0
  8 12  1  1  0  0  0
  8  9  1  0  0  0  0
  9 13  2  0  0  0  0
  9  2  1  0  0  0  0
 10 14  1  0  0  0  0
 10 12  1  0  0  0  0
 11 10  2  0  0  0  0
 14 15  2  0  0  0  0
 15  6  1  0  0  0  0
 16  1  2  0  0  0  0
 16 14  1  0  0  0  0
 17 15  1  0  0  0  0
 19 20  1  0  0  0  0
 19 18  1  0  0  0  0
 20 21  1  0  0  0  0
 21 23  1  0  0  0  0
 22 23  2  0  0  0  0
 23 25  1  0  0  0  0
 24 28  1  0  0  0  0
 25 24  2  0  0  0  0
 25 27  1  0  0  0  0
 26 29  1  0  0  0  0
 26 31  1  0  0  0  0
 27 26  2  0  0  0  0
 28 29  2  0  0  0  0
 31 30  1  0  0  0  0
 32 34  1  0  0  0  0
 32  1  1  0  0  0  0
 33 34  1  0  0  0  0
 36 35  1  0  0  0  0
 36 32  1  0  0  0  0
 37 38  1  0  0  0  0
 38 40  1  0  0  0  0
 39 41  1  0  0  0  0
 40 42  2  0  0  0  0
 40 44  1  0  0  0  0
 42 43  1  0  0  0  0
 43 41  2  0  0  0  0
 44 39  2  0  0  0  0
M  END
>  <MODEL>
1

>  <REMARK>
 VINA RESULT:      -8.5      0.000      0.000
  Name = 
  12 active torsions:
  status: ('A' for Active; 'I' for Inactive)
    1  A    between atoms: C_1  and  C_25
    2  A    between atoms: C_5  and  C_44
    3  A    between atoms: N_6  and  C_32
    4  A    between atoms: C_7  and  C_41
    5  A    between atoms: C_9  and  O_17
    6  A    between atoms: C_14  and  O_43
    7  A    between atoms: C_15  and  O_17
    8  A    between atoms: C_15  and  C_32
    9  A    between atoms: O_21  and  C_25
   10  A    between atoms: C_23  and  N_27
   11  A    between atoms: C_25  and  O_31
   12  A    between atoms: N_27  and  C_44
                            x       y       z     vdW  Elec       q    Type
                         _______ _______ _______ _____ _____    ______ ____

>  <TORSDO>
F 12

$$$$
=
 OpenBabel10222415443D

 44 48  0  0  1  0  0  0  0  0999 V2000
  186.8660  174.1730  136.3140 C   0  0  0  0  0  0  0  0  0  0  0  0
  192.5420  175.0760  137.7890 C   0  0  2  0  0  3  0  0  0  0  0  0
  190.5120  177.0330  140.3190 C   0  0  1  0  0  3  0  0  0  0  0  0
  188.4640  178.3310  139.7290 C   0  0  0  0  0  3  0  0  0  0  0  0
  189.6030  178.2210  140.4210 C   0  0  0  0  0  3  0  0  0  0  0  0
  190.3520  174.1110  137.1150 N   0  0  0  0  0  2  0  0  0  0  0  0
  191.5060  174.8880  136.6600 C   0  0  0  0  0  2  0  0  0  0  0  0
  191.0210  176.8870  138.9060 C   0  0  1  0  0  3  0  0  0  0  0  0
  192.3670  176.3500  138.6200 C   0  0  0  0  0  0  0  0  0  0  0  0
  188.7850  176.6570  137.9880 C   0  0  0  0  0  0  0  0  0  0  0  0
  188.0180  177.3500  138.7790 N   0  0  0  0  0  0  0  0  0  0  0  0
  190.1930  176.8360  137.9200 N   0  0  0  0  0  2  0  0  0  0  0  0
  193.3690  176.8780  139.1750 O   0  0  0  0  0  0  0  0  0  0  0  0
  188.2550  175.5390  137.2000 C   0  0  0  0  0  0  0  0  0  0  0  0
  188.9860  174.4290  136.7820 C   0  0  0  0  0  0  0  0  0  0  0  0
  186.9540  175.3830  136.9060 N   0  0  0  0  0  2  0  0  0  0  0  0
  188.0950  173.5280  136.2410 C   0  0  0  0  0  3  0  0  0  0  0  0
  191.5630  177.1830  141.2280 O   0  0  0  0  0  0  0  0  0  0  0  0
  190.9750  177.7240  142.3750 C   0  0  0  0  0  2  0  0  0  0  0  0
  190.7210  176.6310  143.4010 C   0  0  0  0  0  2  0  0  0  0  0  0
  189.7790  177.0900  144.4120 N   0  0  0  0  0  2  0  0  0  0  0  0
  187.8750  176.5500  143.1730 O   0  0  0  0  0  0  0  0  0  0  0  0
  188.3610  177.0550  144.2220 C   0  0  0  0  0  0  0  0  0  0  0  0
  187.8830  177.6870  146.5860 C   0  0  0  0  0  3  0  0  0  0  0  0
  187.4630  177.5990  145.2530 C   0  0  0  0  0  0  0  0  0  0  0  0
  185.3500  178.5370  145.8350 C   0  0  0  0  0  0  0  0  0  0  0  0
  186.2140  178.0250  144.9130 N   0  0  0  0  0  0  0  0  0  0  0  0
  187.0160  178.2090  147.5460 C   0  0  0  0  0  3  0  0  0  0  0  0
  185.7420  178.6370  147.1720 C   0  0  0  0  0  3  0  0  0  0  0  0
  183.8100  179.5130  144.1800 C   0  0  0  0  0  1  0  0  0  0  0  0
  184.0750  178.9640  145.4620 O   0  0  0  0  0  0  0  0  0  0  0  0
  185.5630  173.6120  135.8120 C   0  0  0  0  0  3  0  0  0  0  0  0
  184.6600  172.6590  137.5960 C   0  0  0  0  0  1  0  0  0  0  0  0
  185.2590  172.3610  136.3710 O   0  0  0  0  0  0  0  0  0  0  0  0
  184.1610  175.0140  134.6670 C   0  0  0  0  0  1  0  0  0  0  0  0
  184.4900  174.5230  135.9400 O   0  0  0  0  0  0  0  0  0  0  0  0
  193.9410  175.0130  137.1940 C   0  0  0  0  0  2  0  0  0  0  0  0
  194.7550  174.0560  137.9280 N   0  0  0  0  0  2  0  0  0  0  0  0
  198.4360  174.6220  138.3020 C   0  0  0  0  0  3  0  0  0  0  0  0
  196.0260  174.3910  138.4880 C   0  0  0  0  0  0  0  0  0  0  0  0
  198.4970  175.0550  139.6300 C   0  0  0  0  0  3  0  0  0  0  0  0
  196.0940  174.8270  139.8160 C   0  0  0  0  0  3  0  0  0  0  0  0
  197.3260  175.1590  140.3860 C   0  0  0  0  0  3  0  0  0  0  0  0
  197.2040  174.2900  137.7320 C   0  0  0  0  0  3  0  0  0  0  0  0
  1 16  1  0  0  0  0
  2 37  1  6  0  0  0
  2  9  1  0  0  0  0
  3  5  1  0  0  0  0
  3 18  1  1  0  0  0
  4  5  2  0  0  0  0
  7  6  1  0  0  0  0
  7  2  1  0  0  0  0
  8 12  1  6  0  0  0
  8  3  1  0  0  0  0
  9  8  1  0  0  0  0
  9 13  2  0  0  0  0
 10 11  2  0  0  0  0
 11  4  1  0  0  0  0
 12 10  1  0  0  0  0
 14 10  1  0  0  0  0
 15  6  1  0  0  0  0
 15 14  2  0  0  0  0
 16 14  1  0  0  0  0
 17  1  2  0  0  0  0
 17 15  1  0  0  0  0
 18 19  1  0  0  0  0
 19 20  1  0  0  0  0
 20 21  1  0  0  0  0
 22 23  2  0  0  0  0
 23 21  1  0  0  0  0
 23 25  1  0  0  0  0
 24 28  1  0  0  0  0
 25 24  2  0  0  0  0
 26 29  1  0  0  0  0
 27 25  1  0  0  0  0
 27 26  2  0  0  0  0
 29 28  2  0  0  0  0
 30 31  1  0  0  0  0
 31 26  1  0  0  0  0
 32 36  1  0  0  0  0
 32  1  1  0  0  0  0
 32 34  1  0  0  0  0
 34 33  1  0  0  0  0
 35 36  1  0  0  0  0
 37 38  1  0  0  0  0
 38 40  1  0  0  0  0
 39 41  1  0  0  0  0
 40 42  2  0  0  0  0
 41 43  2  0  0  0  0
 42 43  1  0  0  0  0
 44 39  2  0  0  0  0
 44 40  1  0  0  0  0
M  END
>  <MODEL>
2

>  <REMARK>
 VINA RESULT:      -8.2      2.893      6.796
  Name = 
  12 active torsions:
  status: ('A' for Active; 'I' for Inactive)
    1  A    between atoms: C_1  and  C_25
    2  A    between atoms: C_5  and  C_44
    3  A    between atoms: N_6  and  C_32
    4  A    between atoms: C_7  and  C_41
    5  A    between atoms: C_9  and  O_17
    6  A    between atoms: C_14  and  O_43
    7  A    between atoms: C_15  and  O_17
    8  A    between atoms: C_15  and  C_32
    9  A    between atoms: O_21  and  C_25
   10  A    between atoms: C_23  and  N_27
   11  A    between atoms: C_25  and  O_31
   12  A    between atoms: N_27  and  C_44
                            x       y       z     vdW  Elec       q    Type
                         _______ _______ _______ _____ _____    ______ ____

>  <TORSDO>
F 12

$$$$
=
 OpenBabel10222415443D

 44 48  0  0  1  0  0  0  0  0999 V2000
  189.0140  177.1090  145.6800 C   0  0  0  0  0  0  0  0  0  0  0  0
  185.8550  178.3450  140.8110 C   0  0  2  0  0  3  0  0  0  0  0  0
  189.1200  176.8880  139.5600 C   0  0  1  0  0  3  0  0  0  0  0  0
  191.3370  177.4100  140.5790 C   0  0  0  0  0  3  0  0  0  0  0  0
  190.5870  177.1930  139.4940 C   0  0  0  0  0  3  0  0  0  0  0  0
  186.6390  177.5970  143.0480 N   0  0  0  0  0  2  0  0  0  0  0  0
  186.2450  178.7570  142.2470 C   0  0  0  0  0  2  0  0  0  0  0  0
  188.3780  178.0390  140.1950 C   0  0  1  0  0  3  0  0  0  0  0  0
  186.9990  178.3850  139.7950 C   0  0  0  0  0  0  0  0  0  0  0  0
  189.6400  177.8780  142.2630 C   0  0  0  0  0  0  0  0  0  0  0  0
  190.8100  177.4260  141.9150 N   0  0  0  0  0  0  0  0  0  0  0  0
  188.7400  178.4870  141.3480 N   0  0  0  0  0  2  0  0  0  0  0  0
  186.7470  178.5900  138.5760 O   0  0  0  0  0  0  0  0  0  0  0  0
  189.1130  177.6660  143.6150 C   0  0  0  0  0  0  0  0  0  0  0  0
  187.7630  177.5870  143.9510 C   0  0  0  0  0  0  0  0  0  0  0  0
  189.8790  177.3780  144.6800 N   0  0  0  0  0  0  0  0  0  0  0  0
  187.6880  177.1950  145.2700 C   0  0  0  0  0  2  0  0  0  0  0  0
  188.6500  176.6270  138.2700 O   0  0  0  0  0  0  0  0  0  0  0  0
  189.6790  175.9160  137.6460 C   0  0  0  0  0  2  0  0  0  0  0  0
  189.1090  174.9860  136.5870 C   0  0  0  0  0  2  0  0  0  0  0  0
  187.6590  174.9070  136.7050 N   0  0  0  0  0  2  0  0  0  0  0  0
  187.6300  172.6510  137.3100 O   0  0  0  0  0  0  0  0  0  0  0  0
  186.9750  173.6940  137.0370 C   0  0  0  0  0  0  0  0  0  0  0  0
  184.8170  172.4490  136.9290 C   0  0  0  0  0  3  0  0  0  0  0  0
  185.5050  173.6620  137.0700 C   0  0  0  0  0  0  0  0  0  0  0  0
  183.4380  174.8320  137.2810 C   0  0  0  0  0  0  0  0  0  0  0  0
  184.8010  174.8160  137.2420 N   0  0  0  0  0  0  0  0  0  0  0  0
  183.4230  172.4420  136.9670 C   0  0  0  0  0  3  0  0  0  0  0  0
  182.7270  173.6390  137.1430 C   0  0  0  0  0  3  0  0  0  0  0  0
  183.2470  177.2700  136.9920 C   0  0  0  0  0  1  0  0  0  0  0  0
  182.7400  176.0280  137.4560 O   0  0  0  0  0  0  0  0  0  0  0  0
  189.4690  176.7470  147.0670 C   0  0  0  0  0  3  0  0  0  0  0  0
  191.5820  176.1670  147.3900 C   0  0  0  0  0  1  0  0  0  0  0  0
  190.7310  177.2740  147.3790 O   0  0  0  0  0  0  0  0  0  0  0  0
  188.8220  178.3040  148.6170 C   0  0  0  0  0  1  0  0  0  0  0  0
  188.5070  177.0570  148.0560 O   0  0  0  0  0  0  0  0  0  0  0  0
  184.6940  179.2120  140.3450 C   0  0  0  0  0  2  0  0  0  0  0  0
  183.4540  178.4510  140.3820 N   0  0  0  0  0  2  0  0  0  0  0  0
  180.1680  178.8100  142.1360 C   0  0  0  0  0  3  0  0  0  0  0  0
  182.4760  178.6150  141.4100 C   0  0  0  0  0  0  0  0  0  0  0  0
  180.5950  178.9440  143.4610 C   0  0  0  0  0  3  0  0  0  0  0  0
  182.8980  178.7500  142.7380 C   0  0  0  0  0  3  0  0  0  0  0  0
  181.9600  178.9130  143.7610 C   0  0  0  0  0  3  0  0  0  0  0  0
  181.1050  178.6460  141.1130 C   0  0  0  0  0  3  0  0  0  0  0  0
  1 32  1  0  0  0  0
  2 37  1  6  0  0  0
  2  7  1  0  0  0  0
  3 18  1  6  0  0  0
  3  8  1  0  0  0  0
  4 11  1  0  0  0  0
  5  3  1  0  0  0  0
  5  4  2  0  0  0  0
  6 15  1  0  0  0  0
  7  6  1  0  0  0  0
  8  9  1  1  0  0  0
  8 12  1  0  0  0  0
  9  2  1  0  0  0  0
 10 14  1  0  0  0  0
 11 10  2  0  0  0  0
 12 10  1  0  0  0  0
 13  9  2  0  0  0  0
 14 15  2  0  0  0  0
 14 16  1  0  0  0  0
 15 17  1  0  0  0  0
 16  1  2  0  0  0  0
 17  1  1  0  0  0  0
 19 18  1  0  0  0  0
 20 21  1  0  0  0  0
 20 19  1  0  0  0  0
 21 23  1  0  0  0  0
 23 25  1  0  0  0  0
 23 22  2  0  0  0  0
 24 28  1  0  0  0  0
 24 25  2  0  0  0  0
 25 27  1  0  0  0  0
 26 31  1  0  0  0  0
 27 26  2  0  0  0  0
 28 29  2  0  0  0  0
 29 26  1  0  0  0  0
 30 31  1  0  0  0  0
 32 34  1  0  0  0  0
 32 36  1  0  0  0  0
 34 33  1  0  0  0  0
 36 35  1  0  0  0  0
 37 38  1  0  0  0  0
 38 40  1  0  0  0  0
 39 41  1  0  0  0  0
 40 42  2  0  0  0  0
 41 43  2  0  0  0  0
 42 43  1  0  0  0  0
 44 40  1  0  0  0  0
 44 39  2  0  0  0  0
M  END
>  <MODEL>
3

>  <REMARK>
 VINA RESULT:      -8.2      2.920      8.126
  Name = 
  12 active torsions:
  status: ('A' for Active; 'I' for Inactive)
    1  A    between atoms: C_1  and  C_25
    2  A    between atoms: C_5  and  C_44
    3  A    between atoms: N_6  and  C_32
    4  A    between atoms: C_7  and  C_41
    5  A    between atoms: C_9  and  O_17
    6  A    between atoms: C_14  and  O_43
    7  A    between atoms: C_15  and  O_17
    8  A    between atoms: C_15  and  C_32
    9  A    between atoms: O_21  and  C_25
   10  A    between atoms: C_23  and  N_27
   11  A    between atoms: C_25  and  O_31
   12  A    between atoms: N_27  and  C_44
                            x       y       z     vdW  Elec       q    Type
                         _______ _______ _______ _____ _____    ______ ____

>  <TORSDO>
F 12

$$$$
=
 OpenBabel10222415443D

 44 48  0  0  1  0  0  0  0  0999 V2000
  189.2320  177.0280  145.5300 C   0  0  0  0  0  0  0  0  0  0  0  0
  186.0190  178.3120  140.7100 C   0  0  2  0  0  3  0  0  0  0  0  0
  189.2910  176.9180  139.4060 C   0  0  1  0  0  3  0  0  0  0  0  0
  191.5100  177.4480  140.4180 C   0  0  0  0  0  3  0  0  0  0  0  0
  190.7540  177.2420  139.3350 C   0  0  0  0  0  3  0  0  0  0  0  0
  186.8300  177.5330  142.9260 N   0  0  0  0  0  2  0  0  0  0  0  0
  186.4160  178.7020  142.1490 C   0  0  0  0  0  2  0  0  0  0  0  0
  188.5400  178.0480  140.0680 C   0  0  1  0  0  3  0  0  0  0  0  0
  187.1540  178.3840  139.6850 C   0  0  0  0  0  0  0  0  0  0  0  0
  189.8210  177.8650  142.1220 C   0  0  0  0  0  0  0  0  0  0  0  0
  190.9940  177.4340  141.7580 N   0  0  0  0  0  0  0  0  0  0  0  0
  188.9060  178.4800  141.2260 N   0  0  0  0  0  2  0  0  0  0  0  0
  186.8900  178.6080  138.4720 O   0  0  0  0  0  0  0  0  0  0  0  0
  189.3080  177.6230  143.4750 C   0  0  0  0  0  0  0  0  0  0  0  0
  187.9610  177.5210  143.8200 C   0  0  0  0  0  0  0  0  0  0  0  0
  190.0860  177.3250  144.5280 N   0  0  0  0  0  0  0  0  0  0  0  0
  187.9020  177.1050  145.1330 C   0  0  0  0  0  2  0  0  0  0  0  0
  188.8140  176.6740  138.1160 O   0  0  0  0  0  0  0  0  0  0  0  0
  189.4790  175.5180  137.6960 C   0  0  0  0  0  2  0  0  0  0  0  0
  188.5310  174.6200  136.9190 C   0  0  0  0  0  2  0  0  0  0  0  0
  187.1660  175.1230  137.0030 N   0  0  0  0  0  2  0  0  0  0  0  0
  186.2160  173.0470  137.4920 O   0  0  0  0  0  0  0  0  0  0  0  0
  186.0420  174.2750  137.2590 C   0  0  0  0  0  0  0  0  0  0  0  0
  184.4790  176.2140  137.1470 C   0  0  0  0  0  3  0  0  0  0  0  0
  184.6810  174.8330  137.2610 C   0  0  0  0  0  0  0  0  0  0  0  0
  182.3260  174.4770  137.3780 C   0  0  0  0  0  0  0  0  0  0  0  0
  183.6050  174.0030  137.3730 N   0  0  0  0  0  0  0  0  0  0  0  0
  183.1790  176.7200  137.1490 C   0  0  0  0  0  3  0  0  0  0  0  0
  182.0940  175.8490  137.2650 C   0  0  0  0  0  3  0  0  0  0  0  0
  179.9960  174.0240  138.0340 C   0  0  0  0  0  1  0  0  0  0  0  0
  181.2410  173.6060  137.4950 O   0  0  0  0  0  0  0  0  0  0  0  0
  189.7030  176.6470  146.9070 C   0  0  0  0  0  3  0  0  0  0  0  0
  191.7710  176.0010  147.3680 C   0  0  0  0  0  1  0  0  0  0  0  0
  190.9830  177.1410  147.1990 O   0  0  0  0  0  0  0  0  0  0  0  0
  189.0470  178.2630  148.3910 C   0  0  0  0  0  1  0  0  0  0  0  0
  188.7670  176.9730  147.9150 O   0  0  0  0  0  0  0  0  0  0  0  0
  184.8440  179.1730  140.2690 C   0  0  0  0  0  2  0  0  0  0  0  0
  183.6110  178.4010  140.3160 N   0  0  0  0  0  2  0  0  0  0  0  0
  182.0780  178.9280  143.6890 C   0  0  0  0  0  3  0  0  0  0  0  0
  182.6470  178.5460  141.3600 C   0  0  0  0  0  0  0  0  0  0  0  0
  180.7200  178.8180  143.3760 C   0  0  0  0  0  3  0  0  0  0  0  0
  181.2860  178.4370  141.0520 C   0  0  0  0  0  3  0  0  0  0  0  0
  180.3240  178.5740  142.0570 C   0  0  0  0  0  3  0  0  0  0  0  0
  183.0400  178.7920  142.6840 C   0  0  0  0  0  3  0  0  0  0  0  0
  1 32  1  0  0  0  0
  2 37  1  6  0  0  0
  2  7  1  0  0  0  0
  3 18  1  6  0  0  0
  3  8  1  0  0  0  0
  4 11  1  0  0  0  0
  5  3  1  0  0  0  0
  5  4  2  0  0  0  0
  6 15  1  0  0  0  0
  7  6  1  0  0  0  0
  8  9  1  1  0  0  0
  8 12  1  0  0  0  0
  9  2  1  0  0  0  0
 10 14  1  0  0  0  0
 11 10  2  0  0  0  0
 12 10  1  0  0  0  0
 13  9  2  0  0  0  0
 14 15  2  0  0  0  0
 14 16  1  0  0  0  0
 15 17  1  0  0  0  0
 16  1  2  0  0  0  0
 17  1  1  0  0  0  0
 19 18  1  0  0  0  0
 20 21  1  0  0  0  0
 20 19  1  0  0  0  0
 21 23  1  0  0  0  0
 23 25  1  0  0  0  0
 23 22  2  0  0  0  0
 24 28  1  0  0  0  0
 24 25  2  0  0  0  0
 25 27  1  0  0  0  0
 26 31  1  0  0  0  0
 27 26  2  0  0  0  0
 28 29  2  0  0  0  0
 29 26  1  0  0  0  0
 31 30  1  0  0  0  0
 32 34  1  0  0  0  0
 32 36  1  0  0  0  0
 34 33  1  0  0  0  0
 36 35  1  0  0  0  0
 37 38  1  0  0  0  0
 38 40  1  0  0  0  0
 40 44  1  0  0  0  0
 41 39  1  0  0  0  0
 42 40  2  0  0  0  0
 42 43  1  0  0  0  0
 43 41  2  0  0  0  0
 44 39  2  0  0  0  0
M  END
>  <MODEL>
4

>  <REMARK>
 VINA RESULT:      -8.1      3.003      7.913
  Name = 
  12 active torsions:
  status: ('A' for Active; 'I' for Inactive)
    1  A    between atoms: C_1  and  C_25
    2  A    between atoms: C_5  and  C_44
    3  A    between atoms: N_6  and  C_32
    4  A    between atoms: C_7  and  C_41
    5  A    between atoms: C_9  and  O_17
    6  A    between atoms: C_14  and  O_43
    7  A    between atoms: C_15  and  O_17
    8  A    between atoms: C_15  and  C_32
    9  A    between atoms: O_21  and  C_25
   10  A    between atoms: C_23  and  N_27
   11  A    between atoms: C_25  and  O_31
   12  A    between atoms: N_27  and  C_44
                            x       y       z     vdW  Elec       q    Type
                         _______ _______ _______ _____ _____    ______ ____

>  <TORSDO>
F 12

$$$$
=
 OpenBabel10222415443D

 44 48  0  0  1  0  0  0  0  0999 V2000
  189.2720  177.0870  145.9340 C   0  0  0  0  0  0  0  0  0  0  0  0
  186.3950  178.1880  140.8630 C   0  0  2  0  0  3  0  0  0  0  0  0
  189.7980  176.8800  139.8350 C   0  0  1  0  0  3  0  0  0  0  0  0
  191.9170  177.4980  141.0010 C   0  0  0  0  0  3  0  0  0  0  0  0
  191.2510  177.2500  139.8680 C   0  0  0  0  0  3  0  0  0  0  0  0
  187.0600  177.4720  143.1480 N   0  0  0  0  0  2  0  0  0  0  0  0
  186.6690  178.6140  142.3210 C   0  0  0  0  0  2  0  0  0  0  0  0
  188.9650  177.9950  140.4180 C   0  0  1  0  0  3  0  0  0  0  0  0
  187.6010  178.2800  139.9250 C   0  0  0  0  0  0  0  0  0  0  0  0
  190.0910  177.8880  142.5650 C   0  0  0  0  0  0  0  0  0  0  0  0
  191.3010  177.4890  142.2980 N   0  0  0  0  0  0  0  0  0  0  0  0
  189.2280  178.4580  141.5910 N   0  0  0  0  0  2  0  0  0  0  0  0
  187.4230  178.4750  138.6920 O   0  0  0  0  0  0  0  0  0  0  0  0
  189.4850  177.6510  143.8800 C   0  0  0  0  0  0  0  0  0  0  0  0
  188.1190  177.5120  144.1250 C   0  0  0  0  0  0  0  0  0  0  0  0
  190.1900  177.3960  144.9940 N   0  0  0  0  0  0  0  0  0  0  0  0
  187.9740  177.1150  145.4370 C   0  0  0  0  0  2  0  0  0  0  0  0
  189.4280  176.5990  138.5170 O   0  0  0  0  0  0  0  0  0  0  0  0
  190.5350  176.9640  137.7450 C   0  0  0  0  0  2  0  0  0  0  0  0
  190.9540  175.8090  136.8500 C   0  0  0  0  0  2  0  0  0  0  0  0
  192.2340  175.2650  137.2840 N   0  0  0  0  0  2  0  0  0  0  0  0
  193.4710  176.2810  135.5840 O   0  0  0  0  0  0  0  0  0  0  0  0
  193.4570  175.5110  136.5840 C   0  0  0  0  0  0  0  0  0  0  0  0
  194.6730  173.8020  137.9310 C   0  0  0  0  0  3  0  0  0  0  0  0
  194.7060  174.8750  137.0310 C   0  0  0  0  0  0  0  0  0  0  0  0
  197.0860  174.7670  136.9560 C   0  0  0  0  0  0  0  0  0  0  0  0
  195.9050  175.3270  136.5690 N   0  0  0  0  0  0  0  0  0  0  0  0
  195.8700  173.2120  138.3400 C   0  0  0  0  0  3  0  0  0  0  0  0
  197.0850  173.6950  137.8510 C   0  0  0  0  0  3  0  0  0  0  0  0
  198.8850  174.7540  135.2740 C   0  0  0  0  0  1  0  0  0  0  0  0
  198.3020  175.2500  136.4690 O   0  0  0  0  0  0  0  0  0  0  0  0
  189.6490  176.7450  147.3500 C   0  0  0  0  0  3  0  0  0  0  0  0
  191.7300  176.0580  147.6670 C   0  0  0  0  0  1  0  0  0  0  0  0
  190.9290  177.2010  147.6960 O   0  0  0  0  0  0  0  0  0  0  0  0
  188.7760  178.5330  148.4830 C   0  0  0  0  0  1  0  0  0  0  0  0
  188.6710  177.1470  148.2880 O   0  0  0  0  0  0  0  0  0  0  0  0
  185.2300  179.0030  140.3190 C   0  0  0  0  0  2  0  0  0  0  0  0
  183.9960  178.2380  140.4130 N   0  0  0  0  0  2  0  0  0  0  0  0
  182.3210  178.9750  143.6780 C   0  0  0  0  0  3  0  0  0  0  0  0
  182.9910  178.5100  141.3910 C   0  0  0  0  0  0  0  0  0  0  0  0
  180.9830  179.0350  143.2750 C   0  0  0  0  0  3  0  0  0  0  0  0
  181.6500  178.5720  140.9930 C   0  0  0  0  0  3  0  0  0  0  0  0
  180.6480  178.8350  141.9320 C   0  0  0  0  0  3  0  0  0  0  0  0
  183.3220  178.7130  142.7390 C   0  0  0  0  0  3  0  0  0  0  0  0
  1 32  1  0  0  0  0
  2 37  1  6  0  0  0
  2  7  1  0  0  0  0
  3 18  1  6  0  0  0
  3  5  1  0  0  0  0
  3  8  1  0  0  0  0
  4 11  1  0  0  0  0
  5  4  2  0  0  0  0
  6 15  1  0  0  0  0
  7  6  1  0  0  0  0
  8  9  1  1  0  0  0
  8 12  1  0  0  0  0
  9  2  1  0  0  0  0
 10 14  1  0  0  0  0
 11 10  2  0  0  0  0
 12 10  1  0  0  0  0
 13  9  2  0  0  0  0
 14 15  2  0  0  0  0
 14 16  1  0  0  0  0
 15 17  1  0  0  0  0
 16  1  2  0  0  0  0
 17  1  1  0  0  0  0
 19 18  1  0  0  0  0
 20 21  1  0  0  0  0
 20 19  1  0  0  0  0
 22 23  2  0  0  0  0
 23 25  1  0  0  0  0
 23 21  1  0  0  0  0
 24 28  1  0  0  0  0
 25 24  2  0  0  0  0
 26 29  1  0  0  0  0
 27 26  2  0  0  0  0
 27 25  1  0  0  0  0
 29 28  2  0  0  0  0
 30 31  1  0  0  0  0
 31 26  1  0  0  0  0
 32 34  1  0  0  0  0
 32 36  1  0  0  0  0
 33 34  1  0  0  0  0
 36 35  1  0  0  0  0
 37 38  1  0  0  0  0
 38 40  1  0  0  0  0
 40 44  1  0  0  0  0
 41 39  1  0  0  0  0
 42 40  2  0  0  0  0
 42 43  1  0  0  0  0
 43 41  2  0  0  0  0
 44 39  2  0  0  0  0
M  END
>  <MODEL>
5

>  <REMARK>
 VINA RESULT:      -8.1      2.303      9.996
  Name = 
  12 active torsions:
  status: ('A' for Active; 'I' for Inactive)
    1  A    between atoms: C_1  and  C_25
    2  A    between atoms: C_5  and  C_44
    3  A    between atoms: N_6  and  C_32
    4  A    between atoms: C_7  and  C_41
    5  A    between atoms: C_9  and  O_17
    6  A    between atoms: C_14  and  O_43
    7  A    between atoms: C_15  and  O_17
    8  A    between atoms: C_15  and  C_32
    9  A    between atoms: O_21  and  C_25
   10  A    between atoms: C_23  and  N_27
   11  A    between atoms: C_25  and  O_31
   12  A    between atoms: N_27  and  C_44
                            x       y       z     vdW  Elec       q    Type
                         _______ _______ _______ _____ _____    ______ ____

>  <TORSDO>
F 12

$$$$
=
 OpenBabel10222415443D

 44 48  0  0  1  0  0  0  0  0999 V2000
  189.1050  177.1010  145.8740 C   0  0  0  0  0  0  0  0  0  0  0  0
  186.2740  178.1910  140.7750 C   0  0  2  0  0  3  0  0  0  0  0  0
  189.6860  176.8810  139.7810 C   0  0  1  0  0  3  0  0  0  0  0  0
  191.7940  177.5030  140.9640 C   0  0  0  0  0  3  0  0  0  0  0  0
  191.1390  177.2520  139.8260 C   0  0  0  0  0  3  0  0  0  0  0  0
  186.9180  177.4800  143.0680 N   0  0  0  0  0  2  0  0  0  0  0  0
  186.5350  178.6200  142.2350 C   0  0  0  0  0  2  0  0  0  0  0  0
  188.8470  177.9980  140.3540 C   0  0  1  0  0  3  0  0  0  0  0  0
  187.4880  178.2810  139.8480 C   0  0  0  0  0  0  0  0  0  0  0  0
  189.9540  177.8950  142.5110 C   0  0  0  0  0  0  0  0  0  0  0  0
  191.1670  177.4960  142.2560 N   0  0  0  0  0  0  0  0  0  0  0  0
  189.1010  178.4630  141.5290 N   0  0  0  0  0  2  0  0  0  0  0  0
  187.3210  178.4750  138.6130 O   0  0  0  0  0  0  0  0  0  0  0  0
  189.3360  177.6600  143.8210 C   0  0  0  0  0  0  0  0  0  0  0  0
  187.9690  177.5210  144.0540 C   0  0  0  0  0  0  0  0  0  0  0  0
  190.0320  177.4080  144.9420 N   0  0  0  0  0  0  0  0  0  0  0  0
  187.8120  177.1270  145.3650 C   0  0  0  0  0  2  0  0  0  0  0  0
  189.3280  176.5990  138.4600 O   0  0  0  0  0  0  0  0  0  0  0  0
  190.3460  175.7720  137.9770 C   0  0  0  0  0  2  0  0  0  0  0  0
  189.8010  174.8310  136.9160 C   0  0  0  0  0  2  0  0  0  0  0  0
  188.4050  174.5140  137.1840 N   0  0  0  0  0  2  0  0  0  0  0  0
  187.5510  175.9900  135.5890 O   0  0  0  0  0  0  0  0  0  0  0  0
  187.3200  175.1570  136.5080 C   0  0  0  0  0  0  0  0  0  0  0  0
  185.0380  175.8670  137.2180 C   0  0  0  0  0  3  0  0  0  0  0  0
  185.9300  174.8440  136.8750 C   0  0  0  0  0  0  0  0  0  0  0  0
  184.2230  173.2140  137.2140 C   0  0  0  0  0  0  0  0  0  0  0  0
  185.5020  173.5500  136.8810 N   0  0  0  0  0  0  0  0  0  0  0  0
  183.7240  175.5460  137.5600 C   0  0  0  0  0  3  0  0  0  0  0  0
  183.3110  174.2130  137.5590 C   0  0  0  0  0  3  0  0  0  0  0  0
  182.4730  171.5070  136.9210 C   0  0  0  0  0  1  0  0  0  0  0  0
  183.8100  171.8810  137.2140 O   0  0  0  0  0  0  0  0  0  0  0  0
  189.4700  176.7600  147.2940 C   0  0  0  0  0  3  0  0  0  0  0  0
  191.6170  176.3750  147.6760 C   0  0  0  0  0  1  0  0  0  0  0  0
  190.6530  177.3840  147.7150 O   0  0  0  0  0  0  0  0  0  0  0  0
  188.5480  178.2550  148.7640 C   0  0  0  0  0  1  0  0  0  0  0  0
  188.4060  176.9780  148.1980 O   0  0  0  0  0  0  0  0  0  0  0  0
  185.1140  179.0050  140.2190 C   0  0  0  0  0  2  0  0  0  0  0  0
  183.8720  178.2560  140.3420 N   0  0  0  0  0  2  0  0  0  0  0  0
  181.9960  179.0020  143.4930 C   0  0  0  0  0  3  0  0  0  0  0  0
  182.8290  178.6310  141.2430 C   0  0  0  0  0  0  0  0  0  0  0  0
  180.7510  179.3680  142.9720 C   0  0  0  0  0  3  0  0  0  0  0  0
  181.5810  178.9980  140.7280 C   0  0  0  0  0  3  0  0  0  0  0  0
  180.5440  179.3670  141.5900 C   0  0  0  0  0  3  0  0  0  0  0  0
  183.0330  178.6340  142.6310 C   0  0  0  0  0  3  0  0  0  0  0  0
  1 32  1  0  0  0  0
  2 37  1  6  0  0  0
  2  7  1  0  0  0  0
  3 18  1  6  0  0  0
  3  5  1  0  0  0  0
  3  8  1  0  0  0  0
  4 11  1  0  0  0  0
  5  4  2  0  0  0  0
  6 15  1  0  0  0  0
  7  6  1  0  0  0  0
  8  9  1  1  0  0  0
  8 12  1  0  0  0  0
  9  2  1  0  0  0  0
 10 14  1  0  0  0  0
 11 10  2  0  0  0  0
 12 10  1  0  0  0  0
 13  9  2  0  0  0  0
 14 15  2  0  0  0  0
 14 16  1  0  0  0  0
 15 17  1  0  0  0  0
 16  1  2  0  0  0  0
 17  1  1  0  0  0  0
 19 18  1  0  0  0  0
 20 21  1  0  0  0  0
 20 19  1  0  0  0  0
 22 23  2  0  0  0  0
 23 25  1  0  0  0  0
 23 21  1  0  0  0  0
 24 28  1  0  0  0  0
 25 27  1  0  0  0  0
 25 24  2  0  0  0  0
 26 29  1  0  0  0  0
 27 26  2  0  0  0  0
 29 28  2  0  0  0  0
 30 31  1  0  0  0  0
 31 26  1  0  0  0  0
 32 34  1  0  0  0  0
 32 36  1  0  0  0  0
 33 34  1  0  0  0  0
 36 35  1  0  0  0  0
 37 38  1  0  0  0  0
 38 40  1  0  0  0  0
 40 44  1  0  0  0  0
 41 39  1  0  0  0  0
 42 40  2  0  0  0  0
 42 43  1  0  0  0  0
 43 41  2  0  0  0  0
 44 39  2  0  0  0  0
M  END
>  <MODEL>
6

>  <REMARK>
 VINA RESULT:      -8.0      2.817      8.236
  Name = 
  12 active torsions:
  status: ('A' for Active; 'I' for Inactive)
    1  A    between atoms: C_1  and  C_25
    2  A    between atoms: C_5  and  C_44
    3  A    between atoms: N_6  and  C_32
    4  A    between atoms: C_7  and  C_41
    5  A    between atoms: C_9  and  O_17
    6  A    between atoms: C_14  and  O_43
    7  A    between atoms: C_15  and  O_17
    8  A    between atoms: C_15  and  C_32
    9  A    between atoms: O_21  and  C_25
   10  A    between atoms: C_23  and  N_27
   11  A    between atoms: C_25  and  O_31
   12  A    between atoms: N_27  and  C_44
                            x       y       z     vdW  Elec       q    Type
                         _______ _______ _______ _____ _____    ______ ____

>  <TORSDO>
F 12

$$$$
=
 OpenBabel10222415443D

 44 48  0  0  1  0  0  0  0  0999 V2000
  189.8690  177.3330  146.2270 C   0  0  0  0  0  0  0  0  0  0  0  0
  189.4920  178.0970  140.3550 C   0  0  2  0  0  3  0  0  0  0  0  0
  186.0990  179.0760  141.7250 C   0  0  1  0  0  3  0  0  0  0  0  0
  184.9530  177.8400  143.5670 C   0  0  0  0  0  3  0  0  0  0  0  0
  184.8950  178.4840  142.3960 C   0  0  0  0  0  3  0  0  0  0  0  0
  190.1940  178.0620  142.7390 N   0  0  0  0  0  2  0  0  0  0  0  0
  190.0530  177.2590  141.5230 C   0  0  0  0  0  2  0  0  0  0  0  0
  187.1000  177.9910  141.4050 C   0  0  1  0  0  3  0  0  0  0  0  0
  187.9680  178.0690  140.2130 C   0  0  0  0  0  0  0  0  0  0  0  0
  187.3320  177.3420  143.7330 C   0  0  0  0  0  0  0  0  0  0  0  0
  186.1780  177.6000  144.2770 N   0  0  0  0  0  0  0  0  0  0  0  0
  187.5140  177.1970  142.3320 N   0  0  0  0  0  2  0  0  0  0  0  0
  187.4410  178.2400  139.0800 O   0  0  0  0  0  0  0  0  0  0  0  0
  188.5610  177.3120  144.5330 C   0  0  0  0  0  0  0  0  0  0  0  0
  189.8400  177.5960  144.0560 C   0  0  0  0  0  0  0  0  0  0  0  0
  188.5830  177.1450  145.8650 N   0  0  0  0  0  2  0  0  0  0  0  0
  190.6840  177.6460  145.1440 C   0  0  0  0  0  3  0  0  0  0  0  0
  185.6920  179.7520  140.5720 O   0  0  0  0  0  0  0  0  0  0  0  0
  184.3990  179.2870  140.3160 C   0  0  0  0  0  2  0  0  0  0  0  0
  184.1670  179.1810  138.8180 C   0  0  0  0  0  2  0  0  0  0  0  0
  184.6080  177.8840  138.3230 N   0  0  0  0  0  2  0  0  0  0  0  0
  182.4550  177.0060  138.1120 O   0  0  0  0  0  0  0  0  0  0  0  0
  183.7000  176.8210  138.0210 C   0  0  0  0  0  0  0  0  0  0  0  0
  185.5530  175.3600  137.2150 C   0  0  0  0  0  3  0  0  0  0  0  0
  184.2120  175.5100  137.5930 C   0  0  0  0  0  0  0  0  0  0  0  0
  183.8150  173.1960  137.1760 C   0  0  0  0  0  0  0  0  0  0  0  0
  183.3820  174.4290  137.5650 N   0  0  0  0  0  0  0  0  0  0  0  0
  186.0180  174.1070  136.8160 C   0  0  0  0  0  3  0  0  0  0  0  0
  185.1460  173.0170  136.7950 C   0  0  0  0  0  3  0  0  0  0  0  0
  181.5480  172.2610  136.9550 C   0  0  0  0  0  1  0  0  0  0  0  0
  182.9440  172.1050  137.1540 O   0  0  0  0  0  0  0  0  0  0  0  0
  190.3320  177.2210  147.6540 C   0  0  0  0  0  3  0  0  0  0  0  0
  191.9910  175.7560  147.7220 C   0  0  0  0  0  1  0  0  0  0  0  0
  191.7270  177.1260  147.7670 O   0  0  0  0  0  0  0  0  0  0  0  0
  188.4830  177.8990  148.8230 C   0  0  0  0  0  1  0  0  0  0  0  0
  189.8020  178.2370  148.4810 O   0  0  0  0  0  0  0  0  0  0  0  0
  190.1580  177.6520  139.0610 C   0  0  0  0  0  2  0  0  0  0  0  0
  189.9200  176.2340  138.8360 N   0  0  0  0  0  2  0  0  0  0  0  0
  188.8500  175.8750  135.2670 C   0  0  0  0  0  3  0  0  0  0  0  0
  189.6900  175.6850  137.5370 C   0  0  0  0  0  0  0  0  0  0  0  0
  189.2560  174.5630  135.0070 C   0  0  0  0  0  3  0  0  0  0  0  0
  190.0950  174.3720  137.2700 C   0  0  0  0  0  3  0  0  0  0  0  0
  189.8790  173.8120  136.0070 C   0  0  0  0  0  3  0  0  0  0  0  0
  189.0660  176.4350  136.5290 C   0  0  0  0  0  3  0  0  0  0  0  0
  1 32  1  0  0  0  0
  2 37  1  6  0  0  0
  2  7  1  0  0  0  0
  3 18  1  6  0  0  0
  3  5  1  0  0  0  0
  4 11  1  0  0  0  0
  5  4  2  0  0  0  0
  6 15  1  0  0  0  0
  7  6  1  0  0  0  0
  8  9  1  1  0  0  0
  8  3  1  0  0  0  0
  8 12  1  0  0  0  0
  9  2  1  0  0  0  0
 10 11  2  0  0  0  0
 10 14  1  0  0  0  0
 12 10  1  0  0  0  0
 13  9  2  0  0  0  0
 14 16  1  0  0  0  0
 15 14  2  0  0  0  0
 15 17  1  0  0  0  0
 16  1  1  0  0  0  0
 17  1  2  0  0  0  0
 19 18  1  0  0  0  0
 20 19  1  0  0  0  0
 21 20  1  0  0  0  0
 23 22  2  0  0  0  0
 23 21  1  0  0  0  0
 24 25  2  0  0  0  0
 25 23  1  0  0  0  0
 26 27  2  0  0  0  0
 27 25  1  0  0  0  0
 28 24  1  0  0  0  0
 29 28  2  0  0  0  0
 29 26  1  0  0  0  0
 30 31  1  0  0  0  0
 31 26  1  0  0  0  0
 32 34  1  0  0  0  0
 32 36  1  0  0  0  0
 33 34  1  0  0  0  0
 36 35  1  0  0  0  0
 38 37  1  0  0  0  0
 39 44  1  0  0  0  0
 40 38  1  0  0  0  0
 41 39  2  0  0  0  0
 41 43  1  0  0  0  0
 42 40  1  0  0  0  0
 43 42  2  0  0  0  0
 44 40  2  0  0  0  0
M  END
>  <MODEL>
7

>  <REMARK>
 VINA RESULT:      -7.7      2.949      8.206
  Name = 
  12 active torsions:
  status: ('A' for Active; 'I' for Inactive)
    1  A    between atoms: C_1  and  C_25
    2  A    between atoms: C_5  and  C_44
    3  A    between atoms: N_6  and  C_32
    4  A    between atoms: C_7  and  C_41
    5  A    between atoms: C_9  and  O_17
    6  A    between atoms: C_14  and  O_43
    7  A    between atoms: C_15  and  O_17
    8  A    between atoms: C_15  and  C_32
    9  A    between atoms: O_21  and  C_25
   10  A    between atoms: C_23  and  N_27
   11  A    between atoms: C_25  and  O_31
   12  A    between atoms: N_27  and  C_44
                            x       y       z     vdW  Elec       q    Type
                         _______ _______ _______ _____ _____    ______ ____

>  <TORSDO>
F 12

$$$$
=
 OpenBabel10222415443D

 44 48  0  0  1  0  0  0  0  0999 V2000
  185.7060  176.2710  136.4320 C   0  0  0  0  0  0  0  0  0  0  0  0
  191.5530  175.8590  137.3560 C   0  0  2  0  0  3  0  0  0  0  0  0
  190.0820  176.9940  140.6570 C   0  0  1  0  0  3  0  0  0  0  0  0
  188.2340  178.6630  140.8360 C   0  0  0  0  0  3  0  0  0  0  0  0
  189.3910  178.1670  141.2870 C   0  0  0  0  0  3  0  0  0  0  0  0
  189.1880  175.4870  136.6870 N   0  0  0  0  0  2  0  0  0  0  0  0
  190.4130  176.2270  136.3820 C   0  0  0  0  0  2  0  0  0  0  0  0
  190.4450  177.3120  139.2270 C   0  0  1  0  0  3  0  0  0  0  0  0
  191.6570  176.7530  138.5940 C   0  0  0  0  0  0  0  0  0  0  0  0
  188.1360  177.7130  138.5950 C   0  0  0  0  0  0  0  0  0  0  0  0
  187.5580  178.1600  139.6730 N   0  0  0  0  0  0  0  0  0  0  0  0
  189.5430  177.7280  138.4050 N   0  0  0  0  0  2  0  0  0  0  0  0
  192.7730  176.9130  139.1590 O   0  0  0  0  0  0  0  0  0  0  0  0
  187.3670  177.0350  137.5450 C   0  0  0  0  0  0  0  0  0  0  0  0
  187.8710  176.0720  136.6720 C   0  0  0  0  0  0  0  0  0  0  0  0
  186.0390  177.1600  137.3920 N   0  0  0  0  0  2  0  0  0  0  0  0
  186.8030  175.5490  135.9750 C   0  0  0  0  0  3  0  0  0  0  0  0
  191.2120  176.6710  141.4120 O   0  0  0  0  0  0  0  0  0  0  0  0
  191.1230  177.4670  142.5570 C   0  0  0  0  0  2  0  0  0  0  0  0
  190.8380  176.6050  143.7760 C   0  0  0  0  0  2  0  0  0  0  0  0
  189.7650  177.1870  144.5720 N   0  0  0  0  0  2  0  0  0  0  0  0
  188.0570  176.0120  143.4980 O   0  0  0  0  0  0  0  0  0  0  0  0
  188.3850  176.8740  144.3590 C   0  0  0  0  0  0  0  0  0  0  0  0
  187.4350  177.6030  146.5450 C   0  0  0  0  0  3  0  0  0  0  0  0
  187.3440  177.5490  145.1490 C   0  0  0  0  0  0  0  0  0  0  0  0
  185.2950  178.7670  145.2140 C   0  0  0  0  0  0  0  0  0  0  0  0
  186.2820  178.1300  144.5220 N   0  0  0  0  0  0  0  0  0  0  0  0
  186.4370  178.2510  147.2730 C   0  0  0  0  0  3  0  0  0  0  0  0
  185.3600  178.8370  146.6070 C   0  0  0  0  0  3  0  0  0  0  0  0
  182.9940  178.6620  144.3450 C   0  0  0  0  0  1  0  0  0  0  0  0
  184.2170  179.3520  144.5490 O   0  0  0  0  0  0  0  0  0  0  0  0
  184.2930  176.0980  135.9450 C   0  0  0  0  0  3  0  0  0  0  0  0
  183.3010  174.1640  136.3700 C   0  0  0  0  0  1  0  0  0  0  0  0
  183.4720  175.4520  136.8810 O   0  0  0  0  0  0  0  0  0  0  0  0
  182.6690  177.6640  136.3420 C   0  0  0  0  0  1  0  0  0  0  0  0
  183.7220  177.3070  135.4850 O   0  0  0  0  0  0  0  0  0  0  0  0
  192.8710  175.8440  136.5940 C   0  0  0  0  0  2  0  0  0  0  0  0
  193.5870  174.6040  136.8570 N   0  0  0  0  0  2  0  0  0  0  0  0
  197.3240  174.7960  136.8480 C   0  0  0  0  0  3  0  0  0  0  0  0
  194.9470  174.5740  137.2900 C   0  0  0  0  0  0  0  0  0  0  0  0
  197.6010  174.4990  138.1870 C   0  0  0  0  0  3  0  0  0  0  0  0
  195.2310  174.2780  138.6290 C   0  0  0  0  0  3  0  0  0  0  0  0
  196.5550  174.2420  139.0770 C   0  0  0  0  0  3  0  0  0  0  0  0
  196.0010  174.8330  136.4010 C   0  0  0  0  0  3  0  0  0  0  0  0
  1 16  1  0  0  0  0
  2 37  1  6  0  0  0
  2  9  1  0  0  0  0
  3  5  1  0  0  0  0
  3 18  1  1  0  0  0
  4  5  2  0  0  0  0
  7  6  1  0  0  0  0
  7  2  1  0  0  0  0
  8 12  1  6  0  0  0
  8  3  1  0  0  0  0
  9 13  2  0  0  0  0
  9  8  1  0  0  0  0
 10 11  2  0  0  0  0
 11  4  1  0  0  0  0
 12 10  1  0  0  0  0
 14 10  1  0  0  0  0
 15  6  1  0  0  0  0
 15 14  2  0  0  0  0
 16 14  1  0  0  0  0
 17  1  2  0  0  0  0
 17 15  1  0  0  0  0
 18 19  1  0  0  0  0
 19 20  1  0  0  0  0
 20 21  1  0  0  0  0
 22 23  2  0  0  0  0
 23 21  1  0  0  0  0
 23 25  1  0  0  0  0
 24 28  1  0  0  0  0
 25 24  2  0  0  0  0
 26 29  1  0  0  0  0
 27 25  1  0  0  0  0
 27 26  2  0  0  0  0
 29 28  2  0  0  0  0
 30 31  1  0  0  0  0
 31 26  1  0  0  0  0
 32  1  1  0  0  0  0
 32 34  1  0  0  0  0
 33 34  1  0  0  0  0
 36 32  1  0  0  0  0
 36 35  1  0  0  0  0
 37 38  1  0  0  0  0
 38 40  1  0  0  0  0
 39 41  1  0  0  0  0
 40 42  2  0  0  0  0
 41 43  2  0  0  0  0
 42 43  1  0  0  0  0
 44 39  2  0  0  0  0
 44 40  1  0  0  0  0
M  END
>  <MODEL>
8

>  <REMARK>
 VINA RESULT:      -7.6      2.363      7.208
  Name = 
  12 active torsions:
  status: ('A' for Active; 'I' for Inactive)
    1  A    between atoms: C_1  and  C_25
    2  A    between atoms: C_5  and  C_44
    3  A    between atoms: N_6  and  C_32
    4  A    between atoms: C_7  and  C_41
    5  A    between atoms: C_9  and  O_17
    6  A    between atoms: C_14  and  O_43
    7  A    between atoms: C_15  and  O_17
    8  A    between atoms: C_15  and  C_32
    9  A    between atoms: O_21  and  C_25
   10  A    between atoms: C_23  and  N_27
   11  A    between atoms: C_25  and  O_31
   12  A    between atoms: N_27  and  C_44
                            x       y       z     vdW  Elec       q    Type
                         _______ _______ _______ _____ _____    ______ ____

>  <TORSDO>
F 12

$$$$
=
 OpenBabel10222415443D

 44 48  0  0  1  0  0  0  0  0999 V2000
  194.6180  176.0730  135.4660 C   0  0  0  0  0  0  0  0  0  0  0  0
  188.7040  175.7910  135.8590 C   0  0  2  0  0  3  0  0  0  0  0  0
  189.8330  177.7200  138.9180 C   0  0  1  0  0  3  0  0  0  0  0  0
  191.8650  177.1280  140.2420 C   0  0  0  0  0  3  0  0  0  0  0  0
  190.5930  177.5400  140.1980 C   0  0  0  0  0  3  0  0  0  0  0  0
  191.0580  176.0500  135.1050 N   0  0  0  0  0  2  0  0  0  0  0  0
  190.0150  175.0840  135.4540 C   0  0  0  0  0  2  0  0  0  0  0  0
  189.7340  176.4050  138.1840 C   0  0  1  0  0  3  0  0  0  0  0  0
  188.5560  176.0680  137.3570 C   0  0  0  0  0  0  0  0  0  0  0  0
  192.1440  176.1660  138.0220 C   0  0  0  0  0  0  0  0  0  0  0  0
  192.6190  176.7650  139.0750 N   0  0  0  0  0  0  0  0  0  0  0  0
  190.7970  175.7260  137.9200 N   0  0  0  0  0  2  0  0  0  0  0  0
  187.4060  176.1350  137.8720 O   0  0  0  0  0  0  0  0  0  0  0  0
  192.9460  176.0200  136.8020 C   0  0  0  0  0  0  0  0  0  0  0  0
  192.4370  175.9260  135.5080 C   0  0  0  0  0  0  0  0  0  0  0  0
  194.2870  176.1040  136.7740 N   0  0  0  0  0  2  0  0  0  0  0  0
  193.5040  175.9940  134.6390 C   0  0  0  0  0  3  0  0  0  0  0  0
  188.5700  178.2420  139.2060 O   0  0  0  0  0  0  0  0  0  0  0  0
  188.6590  178.7000  140.5240 C   0  0  0  0  0  2  0  0  0  0  0  0
  187.8510  177.8030  141.4480 C   0  0  0  0  0  2  0  0  0  0  0  0
  188.3000  177.9540  142.8260 N   0  0  0  0  0  2  0  0  0  0  0  0
  187.8410  175.7450  143.4290 O   0  0  0  0  0  0  0  0  0  0  0  0
  188.2350  176.8910  143.7810 C   0  0  0  0  0  0  0  0  0  0  0  0
  187.6970  177.5490  146.1250 C   0  0  0  0  0  3  0  0  0  0  0  0
  188.6370  177.1270  145.1770 C   0  0  0  0  0  0  0  0  0  0  0  0
  190.3480  177.1370  146.8370 C   0  0  0  0  0  0  0  0  0  0  0  0
  189.9320  176.9320  145.5550 N   0  0  0  0  0  0  0  0  0  0  0  0
  188.1010  177.7640  147.4430 C   0  0  0  0  0  3  0  0  0  0  0  0
  189.4330  177.5570  147.8040 C   0  0  0  0  0  3  0  0  0  0  0  0
  192.2340  175.6310  147.3270 C   0  0  0  0  0  1  0  0  0  0  0  0
  191.6810  176.9320  147.1990 O   0  0  0  0  0  0  0  0  0  0  0  0
  196.0450  176.1320  134.9930 C   0  0  0  0  0  3  0  0  0  0  0  0
  196.1810  178.3270  134.7360 C   0  0  0  0  0  1  0  0  0  0  0  0
  196.7260  177.2650  135.4600 O   0  0  0  0  0  0  0  0  0  0  0  0
  198.1040  175.1330  134.9100 C   0  0  0  0  0  1  0  0  0  0  0  0
  196.7570  174.9400  135.2560 O   0  0  0  0  0  0  0  0  0  0  0  0
  187.5240  174.9790  135.3460 C   0  0  0  0  0  2  0  0  0  0  0  0
  187.5660  173.6310  135.8940 N   0  0  0  0  0  2  0  0  0  0  0  0
  184.3090  172.3430  137.2140 C   0  0  0  0  0  3  0  0  0  0  0  0
  186.3960  172.8320  136.0720 C   0  0  0  0  0  0  0  0  0  0  0  0
  184.1170  171.2310  136.3880 C   0  0  0  0  0  3  0  0  0  0  0  0
  186.1970  171.7180  135.2480 C   0  0  0  0  0  3  0  0  0  0  0  0
  185.0600  170.9200  135.4040 C   0  0  0  0  0  3  0  0  0  0  0  0
  185.4450  173.1410  137.0570 C   0  0  0  0  0  3  0  0  0  0  0  0
  1 16  1  0  0  0  0
  2 37  1  1  0  0  0
  2  9  1  0  0  0  0
  3 18  1  1  0  0  0
  3  5  1  0  0  0  0
  5  4  2  0  0  0  0
  6  7  1  0  0  0  0
  6 15  1  0  0  0  0
  7  2  1  0  0  0  0
  8  9  1  6  0  0  0
  8  3  1  0  0  0  0
  9 13  2  0  0  0  0
 10 11  2  0  0  0  0
 11  4  1  0  0  0  0
 12 10  1  0  0  0  0
 12  8  1  0  0  0  0
 14 10  1  0  0  0  0
 15 14  2  0  0  0  0
 16 14  1  0  0  0  0
 17  1  2  0  0  0  0
 17 15  1  0  0  0  0
 18 19  1  0  0  0  0
 19 20  1  0  0  0  0
 20 21  1  0  0  0  0
 21 23  1  0  0  0  0
 22 23  2  0  0  0  0
 23 25  1  0  0  0  0
 24 28  1  0  0  0  0
 25 27  1  0  0  0  0
 25 24  2  0  0  0  0
 26 31  1  0  0  0  0
 26 29  1  0  0  0  0
 27 26  2  0  0  0  0
 28 29  2  0  0  0  0
 31 30  1  0  0  0  0
 32 36  1  0  0  0  0
 32 34  1  0  0  0  0
 32  1  1  0  0  0  0
 33 34  1  0  0  0  0
 35 36  1  0  0  0  0
 37 38  1  0  0  0  0
 38 40  1  0  0  0  0
 40 44  2  0  0  0  0
 41 39  2  0  0  0  0
 42 43  2  0  0  0  0
 42 40  1  0  0  0  0
 43 41  1  0  0  0  0
 44 39  1  0  0  0  0
M  END
>  <MODEL>
9

>  <REMARK>
 VINA RESULT:      -7.6      3.049      6.531
  Name = 
  12 active torsions:
  status: ('A' for Active; 'I' for Inactive)
    1  A    between atoms: C_1  and  C_25
    2  A    between atoms: C_5  and  C_44
    3  A    between atoms: N_6  and  C_32
    4  A    between atoms: C_7  and  C_41
    5  A    between atoms: C_9  and  O_17
    6  A    between atoms: C_14  and  O_43
    7  A    between atoms: C_15  and  O_17
    8  A    between atoms: C_15  and  C_32
    9  A    between atoms: O_21  and  C_25
   10  A    between atoms: C_23  and  N_27
   11  A    between atoms: C_25  and  O_31
   12  A    between atoms: N_27  and  C_44
                            x       y       z     vdW  Elec       q    Type
                         _______ _______ _______ _____ _____    ______ ____

>  <TORSDO>
F 12

$$$$
