=
 OpenBabel10222421093D

 29 33  0  0  1  0  0  0  0  0999 V2000
  190.7050  177.1460  142.7940 C   0  0  2  0  0  3  0  0  0  0  0  0
  190.5370  177.8210  144.1530 C   0  0  2  0  0  3  0  0  0  0  0  0
  184.6450  179.0620  141.6630 C   0  0  0  0  0  0  0  0  0  0  0  0
  185.9040  178.5380  142.1570 C   0  0  0  0  0  0  0  0  0  0  0  0
  188.1070  177.8290  143.7880 C   0  0  0  0  0  0  0  0  0  0  0  0
  184.3930  179.3820  140.4720 O   0  0  0  0  0  0  0  0  0  0  0  0
  183.7680  178.7410  145.1490 C   0  0  0  0  0  1  0  0  0  0  0  0
  183.7150  179.1790  142.7380 N   0  0  0  0  0  0  0  0  0  0  0  0
  189.1370  177.8790  144.5810 N   0  0  0  0  0  0  0  0  0  0  0  0
  187.4050  178.7270  140.3320 O   0  0  0  0  0  0  0  0  0  0  0  0
  186.7950  178.0330  144.3370 N   0  0  0  0  0  2  0  0  0  0  0  0
  188.2510  177.5540  142.2920 C   0  0  2  0  0  3  0  0  0  0  0  0
  185.7240  178.3580  143.4470 C   0  0  0  0  0  0  0  0  0  0  0  0
  189.6950  177.7120  141.7820 C   0  0  2  0  0  3  0  0  0  0  0  0
  187.2020  178.3240  141.5090 C   0  0  0  0  0  0  0  0  0  0  0  0
  191.1220  179.2210  144.1200 C   0  0  0  0  0  1  0  0  0  0  0  0
  184.3610  178.7660  143.7850 C   0  0  0  0  0  0  0  0  0  0  0  0
  190.5960  175.6350  142.9570 C   0  0  0  0  0  1  0  0  0  0  0  0
  189.5030  176.4950  138.3510 N   0  0  0  0  0  0  0  0  0  0  0  0
  191.6960  176.0750  137.5900 N   0  0  0  0  0  0  0  0  0  0  0  0
  189.9300  177.1230  140.4140 C   0  0  0  0  0  0  0  0  0  0  0  0
  192.7530  176.6730  138.0370 C   0  0  0  0  0  0  0  0  0  0  0  0
  190.6950  176.0620  138.5870 C   0  0  0  0  0  0  0  0  0  0  0  0
  192.6270  177.4100  139.6790 S   0  0  0  0  0  0  0  0  0  0  0  0
  189.0080  177.1030  139.5080 N   0  0  0  0  0  0  0  0  0  0  0  0
  193.9470  176.7760  137.2620 N   0  0  0  0  0  2  0  0  0  0  0  0
  191.1480  176.3840  139.9530 C   0  0  1  0  0  3  0  0  0  0  0  0
  194.0590  176.2000  135.9330 C   0  0  0  0  0  2  0  0  0  0  0  0
  195.0620  176.9940  135.1230 C   0  0  0  0  0  1  0  0  0  0  0  0
  1 18  1  1  0  0  0
  1  2  1  0  0  0  0
  2 16  1  6  0  0  0
  2  9  1  0  0  0  0
  3  4  1  0  0  0  0
  3  8  1  0  0  0  0
  4 13  2  0  0  0  0
  5 11  1  0  0  0  0
  5  9  2  0  0  0  0
  6  3  2  0  0  0  0
  8 17  2  0  0  0  0
 10 15  2  0  0  0  0
 12 15  1  6  0  0  0
 12  5  1  0  0  0  0
 13 17  1  0  0  0  0
 13 11  1  0  0  0  0
 14 21  1  6  0  0  0
 14 12  1  0  0  0  0
 14  1  1  0  0  0  0
 15  4  1  0  0  0  0
 17  7  1  0  0  0  0
 19 23  2  0  0  0  0
 19 25  1  0  0  0  0
 20 22  2  0  0  0  0
 20 23  1  0  0  0  0
 22 24  1  0  0  0  0
 24 27  1  0  0  0  0
 25 21  2  0  0  0  0
 26 22  1  0  0  0  0
 27 23  1  6  0  0  0
 27 21  1  0  0  0  0
 28 26  1  0  0  0  0
 29 28  1  0  0  0  0
M  END
>  <MODEL>
1

>  <REMARK>
 VINA RESULT:      -9.2      0.000      0.000
  Name = 
  2 active torsions:
  status: ('A' for Active; 'I' for Inactive)
    1  A    between atoms: C_6  and  N_24
    2  A    between atoms: C_9  and  C_22
                            x       y       z     vdW  Elec       q    Type
                         _______ _______ _______ _____ _____    ______ ____

>  <TORSDO>
F 2

$$$$
=
 OpenBabel10222421093D

 29 33  0  0  1  0  0  0  0  0999 V2000
  188.7120  177.8010  137.6740 C   0  0  2  0  0  3  0  0  0  0  0  0
  187.1880  177.8090  137.5840 C   0  0  2  0  0  3  0  0  0  0  0  0
  187.8240  177.2720  144.0460 C   0  0  0  0  0  0  0  0  0  0  0  0
  187.8390  177.5970  142.6330 C   0  0  0  0  0  0  0  0  0  0  0  0
  187.1010  178.2970  139.9910 C   0  0  0  0  0  0  0  0  0  0  0  0
  188.6770  176.5750  144.6550 O   0  0  0  0  0  0  0  0  0  0  0  0
  184.7780  179.2030  143.9010 C   0  0  0  0  0  1  0  0  0  0  0  0
  186.6770  177.8530  144.6640 N   0  0  0  0  0  0  0  0  0  0  0  0
  186.5560  178.3030  138.8100 N   0  0  0  0  0  0  0  0  0  0  0  0
  189.5960  176.2920  141.7230 O   0  0  0  0  0  0  0  0  0  0  0  0
  186.3110  178.6900  141.1250 N   0  0  0  0  0  2  0  0  0  0  0  0
  188.5590  177.8910  140.2060 C   0  0  2  0  0  3  0  0  0  0  0  0
  186.7640  178.3270  142.4320 C   0  0  0  0  0  0  0  0  0  0  0  0
  189.1710  177.1620  138.9950 C   0  0  2  0  0  3  0  0  0  0  0  0
  188.7170  177.1770  141.5360 C   0  0  0  0  0  0  0  0  0  0  0  0
  186.6730  176.4160  137.2670 C   0  0  0  0  0  1  0  0  0  0  0  0
  186.0570  178.4700  143.7040 C   0  0  0  0  0  0  0  0  0  0  0  0
  189.2420  179.2170  137.4860 C   0  0  0  0  0  1  0  0  0  0  0  0
  192.7220  177.2630  139.8100 N   0  0  0  0  0  0  0  0  0  0  0  0
  193.8670  175.8460  138.3110 N   0  0  0  0  0  0  0  0  0  0  0  0
  190.6740  177.0580  139.0390 C   0  0  0  0  0  0  0  0  0  0  0  0
  193.3370  174.8240  137.7220 C   0  0  0  0  0  0  0  0  0  0  0  0
  192.8660  176.7950  138.6180 C   0  0  0  0  0  0  0  0  0  0  0  0
  191.5390  174.8200  137.5750 S   0  0  0  0  0  0  0  0  0  0  0  0
  191.3620  177.4800  140.0490 N   0  0  0  0  0  0  0  0  0  0  0  0
  194.1270  173.7360  137.2410 N   0  0  0  0  0  2  0  0  0  0  0  0
  191.5740  176.6060  137.9310 C   0  0  1  0  0  3  0  0  0  0  0  0
  195.5750  173.7170  137.3640 C   0  0  0  0  0  2  0  0  0  0  0  0
  196.0130  172.3990  137.9660 C   0  0  0  0  0  1  0  0  0  0  0  0
  1 18  1  1  0  0  0
  1 14  1  0  0  0  0
  2 16  1  1  0  0  0
  2  1  1  0  0  0  0
  2  9  1  0  0  0  0
  3  6  2  0  0  0  0
  3  8  1  0  0  0  0
  4  3  1  0  0  0  0
  5 11  1  0  0  0  0
  9  5  2  0  0  0  0
 11 13  1  0  0  0  0
 12  5  1  6  0  0  0
 12 15  1  0  0  0  0
 13  4  2  0  0  0  0
 13 17  1  0  0  0  0
 14 21  1  1  0  0  0
 14 12  1  0  0  0  0
 15 10  2  0  0  0  0
 15  4  1  0  0  0  0
 17  7  1  0  0  0  0
 17  8  2  0  0  0  0
 19 25  1  0  0  0  0
 20 23  1  0  0  0  0
 21 25  2  0  0  0  0
 22 20  2  0  0  0  0
 23 19  2  0  0  0  0
 24 22  1  0  0  0  0
 26 28  1  0  0  0  0
 26 22  1  0  0  0  0
 27 24  1  1  0  0  0
 27 23  1  0  0  0  0
 27 21  1  0  0  0  0
 28 29  1  0  0  0  0
M  END
>  <MODEL>
2

>  <REMARK>
 VINA RESULT:      -9.1      2.608      4.120
  Name = 
  2 active torsions:
  status: ('A' for Active; 'I' for Inactive)
    1  A    between atoms: C_6  and  N_24
    2  A    between atoms: C_9  and  C_22
                            x       y       z     vdW  Elec       q    Type
                         _______ _______ _______ _____ _____    ______ ____

>  <TORSDO>
F 2

$$$$
=
 OpenBabel10222421093D

 29 33  0  0  1  0  0  0  0  0999 V2000
  191.3410  177.5430  143.1050 C   0  0  2  0  0  3  0  0  0  0  0  0
  191.2280  178.2860  144.4330 C   0  0  2  0  0  3  0  0  0  0  0  0
  184.9630  178.4280  142.6480 C   0  0  0  0  0  0  0  0  0  0  0  0
  186.3380  178.1400  143.0070 C   0  0  0  0  0  0  0  0  0  0  0  0
  188.8010  177.9000  144.3820 C   0  0  0  0  0  0  0  0  0  0  0  0
  184.5250  178.6140  141.4820 O   0  0  0  0  0  0  0  0  0  0  0  0
  184.5630  178.2470  146.2300 C   0  0  0  0  0  1  0  0  0  0  0  0
  184.1580  178.4850  143.8240 N   0  0  0  0  0  0  0  0  0  0  0  0
  189.8960  178.1650  145.0320 N   0  0  0  0  0  0  0  0  0  0  0  0
  187.5660  178.4130  140.9970 O   0  0  0  0  0  0  0  0  0  0  0  0
  187.5470  177.9440  145.0810 N   0  0  0  0  0  2  0  0  0  0  0  0
  188.8110  177.5350  142.8970 C   0  0  2  0  0  3  0  0  0  0  0  0
  186.3420  178.0340  144.3170 C   0  0  0  0  0  0  0  0  0  0  0  0
  190.1430  177.8710  142.1990 C   0  0  2  0  0  3  0  0  0  0  0  0
  187.5690  178.0770  142.2120 C   0  0  0  0  0  0  0  0  0  0  0  0
  191.5740  179.7530  144.2460 C   0  0  0  0  0  1  0  0  0  0  0  0
  184.9800  178.2560  144.8030 C   0  0  0  0  0  0  0  0  0  0  0  0
  191.4940  176.0500  143.3670 C   0  0  0  0  0  1  0  0  0  0  0  0
  190.5500  175.6250  139.3570 N   0  0  0  0  0  0  0  0  0  0  0  0
  190.0970  176.8370  137.3840 N   0  0  0  0  0  0  0  0  0  0  0  0
  190.3060  177.2210  140.8490 C   0  0  0  0  0  0  0  0  0  0  0  0
  189.3230  177.8720  137.3230 C   0  0  0  0  0  0  0  0  0  0  0  0
  190.6400  176.7210  138.6830 C   0  0  0  0  0  0  0  0  0  0  0  0
  189.0510  178.7670  138.8650 S   0  0  0  0  0  0  0  0  0  0  0  0
  190.4000  175.9390  140.7100 N   0  0  0  0  0  0  0  0  0  0  0  0
  188.6870  178.2680  136.1080 N   0  0  0  0  0  2  0  0  0  0  0  0
  190.5130  177.9160  139.5390 C   0  0  1  0  0  3  0  0  0  0  0  0
  188.8850  177.5490  134.8600 C   0  0  0  0  0  2  0  0  0  0  0  0
  187.6860  176.6650  134.5940 C   0  0  0  0  0  1  0  0  0  0  0  0
  1 18  1  1  0  0  0
  1  2  1  0  0  0  0
  2 16  1  6  0  0  0
  2  9  1  0  0  0  0
  3  4  1  0  0  0  0
  3  8  1  0  0  0  0
  4 13  2  0  0  0  0
  5  9  2  0  0  0  0
  5 11  1  0  0  0  0
  6  3  2  0  0  0  0
  8 17  2  0  0  0  0
 10 15  2  0  0  0  0
 12 15  1  6  0  0  0
 12  5  1  0  0  0  0
 13 17  1  0  0  0  0
 13 11  1  0  0  0  0
 14 21  1  6  0  0  0
 14 12  1  0  0  0  0
 14  1  1  0  0  0  0
 15  4  1  0  0  0  0
 17  7  1  0  0  0  0
 19 25  1  0  0  0  0
 20 23  1  0  0  0  0
 22 20  2  0  0  0  0
 22 24  1  0  0  0  0
 23 19  2  0  0  0  0
 24 27  1  0  0  0  0
 25 21  2  0  0  0  0
 26 22  1  0  0  0  0
 27 23  1  6  0  0  0
 27 21  1  0  0  0  0
 28 26  1  0  0  0  0
 29 28  1  0  0  0  0
M  END
>  <MODEL>
3

>  <REMARK>
 VINA RESULT:      -8.6      2.010      2.481
  Name = 
  2 active torsions:
  status: ('A' for Active; 'I' for Inactive)
    1  A    between atoms: C_6  and  N_24
    2  A    between atoms: C_9  and  C_22
                            x       y       z     vdW  Elec       q    Type
                         _______ _______ _______ _____ _____    ______ ____

>  <TORSDO>
F 2

$$$$
=
 OpenBabel10222421093D

 29 33  0  0  1  0  0  0  0  0999 V2000
  181.1950  179.9290  138.7170 C   0  0  2  0  0  3  0  0  0  0  0  0
  180.0840  179.8360  137.6740 C   0  0  2  0  0  3  0  0  0  0  0  0
  182.4100  173.7660  137.2310 C   0  0  0  0  0  0  0  0  0  0  0  0
  181.8740  175.0660  137.5840 C   0  0  0  0  0  0  0  0  0  0  0  0
  180.2650  177.3870  137.7790 C   0  0  0  0  0  0  0  0  0  0  0  0
  183.6220  173.4280  137.2740 O   0  0  0  0  0  0  0  0  0  0  0  0
  178.9310  173.1280  136.5190 C   0  0  0  0  0  1  0  0  0  0  0  0
  181.3550  172.9060  136.8070 N   0  0  0  0  0  0  0  0  0  0  0  0
  179.5950  178.4660  137.4970 N   0  0  0  0  0  0  0  0  0  0  0  0
  183.7750  176.4380  137.9340 O   0  0  0  0  0  0  0  0  0  0  0  0
  179.7090  176.1100  137.4260 N   0  0  0  0  0  2  0  0  0  0  0  0
  181.6220  177.4380  138.4800 C   0  0  2  0  0  3  0  0  0  0  0  0
  180.5790  174.9760  137.3790 C   0  0  0  0  0  0  0  0  0  0  0  0
  182.2550  178.8420  138.4750 C   0  0  2  0  0  3  0  0  0  0  0  0
  182.5200  176.3230  137.9750 C   0  0  0  0  0  0  0  0  0  0  0  0
  180.5650  180.3850  136.3430 C   0  0  0  0  0  1  0  0  0  0  0  0
  180.2800  173.6290  136.8930 C   0  0  0  0  0  0  0  0  0  0  0  0
  180.5910  179.8650  140.1140 C   0  0  0  0  0  1  0  0  0  0  0  0
  185.3150  179.7200  140.2510 N   0  0  0  0  0  0  0  0  0  0  0  0
  185.1110  178.9890  142.4840 N   0  0  0  0  0  0  0  0  0  0  0  0
  183.4040  178.9990  139.4380 C   0  0  0  0  0  0  0  0  0  0  0  0
  183.9860  178.8430  143.1060 C   0  0  0  0  0  0  0  0  0  0  0  0
  184.9140  178.8310  141.0940 C   0  0  0  0  0  0  0  0  0  0  0  0
  182.5200  178.6210  142.0790 S   0  0  0  0  0  0  0  0  0  0  0  0
  184.4040  179.7810  139.1930 N   0  0  0  0  0  0  0  0  0  0  0  0
  183.8990  178.8880  144.5300 N   0  0  0  0  0  2  0  0  0  0  0  0
  183.6330  178.2180  140.6950 C   0  0  1  0  0  3  0  0  0  0  0  0
  185.0690  179.0790  145.3710 C   0  0  0  0  0  2  0  0  0  0  0  0
  184.9130  178.2710  146.6420 C   0  0  0  0  0  1  0  0  0  0  0  0
  1 18  1  1  0  0  0
  2 16  1  6  0  0  0
  2  1  1  0  0  0  0
  3  6  2  0  0  0  0
  3  4  1  0  0  0  0
  4 15  1  0  0  0  0
  7 17  1  0  0  0  0
  8 17  2  0  0  0  0
  8  3  1  0  0  0  0
  9  2  1  0  0  0  0
  9  5  2  0  0  0  0
 10 15  2  0  0  0  0
 11  5  1  0  0  0  0
 12  5  1  6  0  0  0
 13 11  1  0  0  0  0
 13  4  2  0  0  0  0
 14 12  1  0  0  0  0
 14  1  1  0  0  0  0
 14 21  1  1  0  0  0
 15 12  1  0  0  0  0
 17 13  1  0  0  0  0
 19 23  2  0  0  0  0
 20 22  2  0  0  0  0
 22 26  1  0  0  0  0
 23 20  1  0  0  0  0
 24 22  1  0  0  0  0
 25 21  2  0  0  0  0
 25 19  1  0  0  0  0
 26 28  1  0  0  0  0
 27 21  1  6  0  0  0
 27 23  1  0  0  0  0
 27 24  1  0  0  0  0
 28 29  1  0  0  0  0
M  END
>  <MODEL>
4

>  <REMARK>
 VINA RESULT:      -7.4      6.061      9.655
  Name = 
  2 active torsions:
  status: ('A' for Active; 'I' for Inactive)
    1  A    between atoms: C_6  and  N_24
    2  A    between atoms: C_9  and  C_22
                            x       y       z     vdW  Elec       q    Type
                         _______ _______ _______ _____ _____    ______ ____

>  <TORSDO>
F 2

$$$$
=
 OpenBabel10222421093D

 29 33  0  0  1  0  0  0  0  0999 V2000
  189.3020  176.2630  135.5290 C   0  0  2  0  0  3  0  0  0  0  0  0
  187.7800  176.2220  135.6430 C   0  0  2  0  0  3  0  0  0  0  0  0
  189.2370  177.4790  141.8680 C   0  0  0  0  0  0  0  0  0  0  0  0
  189.0610  177.4060  140.4310 C   0  0  0  0  0  0  0  0  0  0  0  0
  187.9670  177.3470  137.8210 C   0  0  0  0  0  0  0  0  0  0  0  0
  190.1940  176.9870  142.5230 O   0  0  0  0  0  0  0  0  0  0  0  0
  186.1040  179.2500  141.6160 C   0  0  0  0  0  1  0  0  0  0  0  0
  188.1480  178.1890  142.4540 N   0  0  0  0  0  0  0  0  0  0  0  0
  187.2800  177.0220  136.7650 N   0  0  0  0  0  0  0  0  0  0  0  0
  190.7560  175.9290  139.6800 O   0  0  0  0  0  0  0  0  0  0  0  0
  187.3050  178.0220  138.9020 N   0  0  0  0  0  2  0  0  0  0  0  0
  189.4590  177.0370  137.9410 C   0  0  2  0  0  3  0  0  0  0  0  0
  187.9340  178.0370  140.1860 C   0  0  0  0  0  0  0  0  0  0  0  0
  189.9530  176.0150  136.9000 C   0  0  2  0  0  3  0  0  0  0  0  0
  189.8170  176.7160  139.3810 C   0  0  0  0  0  0  0  0  0  0  0  0
  187.3010  174.7880  135.7840 C   0  0  0  0  0  1  0  0  0  0  0  0
  187.3830  178.5100  141.4560 C   0  0  0  0  0  0  0  0  0  0  0  0
  189.7310  177.5810  134.8990 C   0  0  0  0  0  1  0  0  0  0  0  0
  193.5620  176.4930  137.0650 N   0  0  0  0  0  0  0  0  0  0  0  0
  194.6060  174.5560  136.2140 N   0  0  0  0  0  0  0  0  0  0  0  0
  191.4530  175.9500  136.7700 C   0  0  0  0  0  0  0  0  0  0  0  0
  194.0790  173.3740  136.2300 C   0  0  0  0  0  0  0  0  0  0  0  0
  193.5870  175.5350  136.2020 C   0  0  0  0  0  0  0  0  0  0  0  0
  192.2810  173.2960  136.3590 S   0  0  0  0  0  0  0  0  0  0  0  0
  192.2320  176.7880  137.3720 N   0  0  0  0  0  0  0  0  0  0  0  0
  194.8760  172.1910  136.1800 N   0  0  0  0  0  2  0  0  0  0  0  0
  192.2360  175.0480  135.8670 C   0  0  1  0  0  3  0  0  0  0  0  0
  196.3260  172.2380  136.0900 C   0  0  0  0  0  2  0  0  0  0  0  0
  196.9260  171.8840  137.4330 C   0  0  0  0  0  1  0  0  0  0  0  0
  1 18  1  1  0  0  0
  1  2  1  0  0  0  0
  1 14  1  0  0  0  0
  2 16  1  1  0  0  0
  2  9  1  0  0  0  0
  3  8  1  0  0  0  0
  3  6  2  0  0  0  0
  4  3  1  0  0  0  0
  5 11  1  0  0  0  0
  9  5  2  0  0  0  0
 11 13  1  0  0  0  0
 12  5  1  1  0  0  0
 12 15  1  0  0  0  0
 13  4  2  0  0  0  0
 13 17  1  0  0  0  0
 14 21  1  6  0  0  0
 14 12  1  0  0  0  0
 15 10  2  0  0  0  0
 15  4  1  0  0  0  0
 17  7  1  0  0  0  0
 17  8  2  0  0  0  0
 19 25  1  0  0  0  0
 20 22  2  0  0  0  0
 21 25  2  0  0  0  0
 22 24  1  0  0  0  0
 23 20  1  0  0  0  0
 23 19  2  0  0  0  0
 26 22  1  0  0  0  0
 27 23  1  1  0  0  0
 27 24  1  0  0  0  0
 27 21  1  0  0  0  0
 28 26  1  0  0  0  0
 28 29  1  0  0  0  0
M  END
>  <MODEL>
5

>  <REMARK>
 VINA RESULT:      -7.4      3.030      5.550
  Name = 
  2 active torsions:
  status: ('A' for Active; 'I' for Inactive)
    1  A    between atoms: C_6  and  N_24
    2  A    between atoms: C_9  and  C_22
                            x       y       z     vdW  Elec       q    Type
                         _______ _______ _______ _____ _____    ______ ____

>  <TORSDO>
F 2

$$$$
=
 OpenBabel10222421093D

 29 33  0  0  1  0  0  0  0  0999 V2000
  189.4910  174.6790  135.3400 C   0  0  2  0  0  3  0  0  0  0  0  0
  190.9660  175.0140  135.5530 C   0  0  2  0  0  3  0  0  0  0  0  0
  188.4600  178.1170  140.7060 C   0  0  0  0  0  0  0  0  0  0  0  0
  188.8890  177.2200  139.6500 C   0  0  0  0  0  0  0  0  0  0  0  0
  190.4310  175.6550  137.8650 C   0  0  0  0  0  0  0  0  0  0  0  0
  187.3840  178.7710  140.7300 O   0  0  0  0  0  0  0  0  0  0  0  0
  191.6490  177.1420  142.0840 C   0  0  0  0  0  1  0  0  0  0  0  0
  189.4510  178.1670  141.7300 N   0  0  0  0  0  0  0  0  0  0  0  0
  191.2840  175.2750  136.9590 N   0  0  0  0  0  0  0  0  0  0  0  0
  187.3040  177.5170  137.9120 O   0  0  0  0  0  0  0  0  0  0  0  0
  190.9120  176.0030  139.1730 N   0  0  0  0  0  2  0  0  0  0  0  0
  188.9310  175.7350  137.5790 C   0  0  2  0  0  3  0  0  0  0  0  0
  190.0630  176.7690  140.0320 C   0  0  0  0  0  0  0  0  0  0  0  0
  188.5960  175.6900  136.0760 C   0  0  2  0  0  3  0  0  0  0  0  0
  188.3090  176.8900  138.3440 C   0  0  0  0  0  0  0  0  0  0  0  0
  191.3590  176.2130  134.7080 C   0  0  0  0  0  1  0  0  0  0  0  0
  190.3940  177.3730  141.3220 C   0  0  0  0  0  0  0  0  0  0  0  0
  189.2290  173.2390  135.7620 C   0  0  0  0  0  1  0  0  0  0  0  0
  185.2550  175.3670  134.6570 N   0  0  0  0  0  0  0  0  0  0  0  0
  184.0050  173.9110  136.0280 N   0  0  0  0  0  0  0  0  0  0  0  0
  187.1430  175.4230  135.7810 C   0  0  0  0  0  0  0  0  0  0  0  0
  184.5180  172.9810  136.7660 C   0  0  0  0  0  0  0  0  0  0  0  0
  184.9470  174.9450  135.8350 C   0  0  0  0  0  0  0  0  0  0  0  0
  186.2520  173.1790  137.2210 S   0  0  0  0  0  0  0  0  0  0  0  0
  186.6080  175.7180  134.6420 N   0  0  0  0  0  0  0  0  0  0  0  0
  183.7650  171.8400  137.1760 N   0  0  0  0  0  2  0  0  0  0  0  0
  186.1080  174.9310  136.7450 C   0  0  1  0  0  3  0  0  0  0  0  0
  182.3710  171.6590  136.8070 C   0  0  0  0  0  2  0  0  0  0  0  0
  182.2710  170.6280  135.7030 C   0  0  0  0  0  1  0  0  0  0  0  0
  1  2  1  0  0  0  0
  1 18  1  1  0  0  0
  1 14  1  0  0  0  0
  2 16  1  6  0  0  0
  2  9  1  0  0  0  0
  3  6  2  0  0  0  0
  3  8  1  0  0  0  0
  4 13  2  0  0  0  0
  4  3  1  0  0  0  0
  5 11  1  0  0  0  0
  9  5  2  0  0  0  0
 10 15  2  0  0  0  0
 11 13  1  0  0  0  0
 12  5  1  6  0  0  0
 12 15  1  0  0  0  0
 13 17  1  0  0  0  0
 14 21  1  1  0  0  0
 14 12  1  0  0  0  0
 15  4  1  0  0  0  0
 17  8  2  0  0  0  0
 17  7  1  0  0  0  0
 19 23  2  0  0  0  0
 20 22  2  0  0  0  0
 22 26  1  0  0  0  0
 22 24  1  0  0  0  0
 23 20  1  0  0  0  0
 23 27  1  0  0  0  0
 25 19  1  0  0  0  0
 25 21  2  0  0  0  0
 27 21  1  6  0  0  0
 27 24  1  0  0  0  0
 28 26  1  0  0  0  0
 29 28  1  0  0  0  0
M  END
>  <MODEL>
6

>  <REMARK>
 VINA RESULT:      -7.3      4.727      7.563
  Name = 
  2 active torsions:
  status: ('A' for Active; 'I' for Inactive)
    1  A    between atoms: C_6  and  N_24
    2  A    between atoms: C_9  and  C_22
                            x       y       z     vdW  Elec       q    Type
                         _______ _______ _______ _____ _____    ______ ____

>  <TORSDO>
F 2

$$$$
=
 OpenBabel10222421093D

 29 33  0  0  1  0  0  0  0  0999 V2000
  186.8490  177.9070  146.0280 C   0  0  2  0  0  3  0  0  0  0  0  0
  185.9140  178.7900  146.8510 C   0  0  2  0  0  3  0  0  0  0  0  0
  182.7150  178.9280  141.1760 C   0  0  0  0  0  0  0  0  0  0  0  0
  183.4160  178.6390  142.4120 C   0  0  0  0  0  0  0  0  0  0  0  0
  184.1870  178.4720  145.1310 C   0  0  0  0  0  0  0  0  0  0  0  0
  183.2330  179.0030  140.0310 O   0  0  0  0  0  0  0  0  0  0  0  0
  179.9180  179.1390  143.4470 C   0  0  0  0  0  1  0  0  0  0  0  0
  181.3290  179.1330  141.4430 N   0  0  0  0  0  0  0  0  0  0  0  0
  184.5380  178.7720  146.3470 N   0  0  0  0  0  0  0  0  0  0  0  0
  185.7140  178.6610  141.8330 O   0  0  0  0  0  0  0  0  0  0  0  0
  182.8120  178.6280  144.7440 N   0  0  0  0  0  2  0  0  0  0  0  0
  185.1930  177.9530  144.1040 C   0  0  2  0  0  3  0  0  0  0  0  0
  182.4960  178.6720  143.3510 C   0  0  0  0  0  0  0  0  0  0  0  0
  186.6580  178.1730  144.5250 C   0  0  2  0  0  3  0  0  0  0  0  0
  184.8380  178.4550  142.7160 C   0  0  0  0  0  0  0  0  0  0  0  0
  186.4300  180.2170  146.8800 C   0  0  0  0  0  1  0  0  0  0  0  0
  181.2100  178.9850  142.7270 C   0  0  0  0  0  0  0  0  0  0  0  0
  186.6330  176.4460  146.4030 C   0  0  0  0  0  1  0  0  0  0  0  0
  188.7090  175.6280  142.9120 N   0  0  0  0  0  0  0  0  0  0  0  0
  189.8880  176.6410  141.1380 N   0  0  0  0  0  0  0  0  0  0  0  0
  187.6530  177.3790  143.7170 C   0  0  0  0  0  0  0  0  0  0  0  0
  189.4860  177.6910  140.4980 C   0  0  0  0  0  0  0  0  0  0  0  0
  189.3530  176.6430  142.4450 C   0  0  0  0  0  0  0  0  0  0  0  0
  188.3050  178.7530  141.3540 S   0  0  0  0  0  0  0  0  0  0  0  0
  187.6890  176.0870  143.7490 N   0  0  0  0  0  0  0  0  0  0  0  0
  189.9240  177.9810  139.1710 N   0  0  0  0  0  2  0  0  0  0  0  0
  188.7850  177.9240  142.9030 C   0  0  1  0  0  3  0  0  0  0  0  0
  190.8650  177.1280  138.4620 C   0  0  0  0  0  2  0  0  0  0  0  0
  190.2880  176.7550  137.1130 C   0  0  0  0  0  1  0  0  0  0  0  0
  1 18  1  6  0  0  0
  1  2  1  0  0  0  0
  2 16  1  6  0  0  0
  3  8  1  0  0  0  0
  3  4  1  0  0  0  0
  4 15  1  0  0  0  0
  4 13  2  0  0  0  0
  5  9  2  0  0  0  0
  6  3  2  0  0  0  0
  8 17  2  0  0  0  0
  9  2  1  0  0  0  0
 10 15  2  0  0  0  0
 11  5  1  0  0  0  0
 12 15  1  6  0  0  0
 12 14  1  0  0  0  0
 12  5  1  0  0  0  0
 13 11  1  0  0  0  0
 14 21  1  6  0  0  0
 14  1  1  0  0  0  0
 17 13  1  0  0  0  0
 17  7  1  0  0  0  0
 19 25  1  0  0  0  0
 20 23  1  0  0  0  0
 21 25  2  0  0  0  0
 22 20  2  0  0  0  0
 22 24  1  0  0  0  0
 23 27  1  0  0  0  0
 23 19  2  0  0  0  0
 26 22  1  0  0  0  0
 27 24  1  6  0  0  0
 27 21  1  0  0  0  0
 28 26  1  0  0  0  0
 29 28  1  0  0  0  0
M  END
>  <MODEL>
7

>  <REMARK>
 VINA RESULT:      -6.9      2.379      4.109
  Name = 
  2 active torsions:
  status: ('A' for Active; 'I' for Inactive)
    1  A    between atoms: C_6  and  N_24
    2  A    between atoms: C_9  and  C_22
                            x       y       z     vdW  Elec       q    Type
                         _______ _______ _______ _____ _____    ______ ____

>  <TORSDO>
F 2

$$$$
=
 OpenBabel10222421093D

 29 33  0  0  1  0  0  0  0  0999 V2000
  191.1250  177.3050  142.8050 C   0  0  2  0  0  3  0  0  0  0  0  0
  190.6370  177.8640  144.1400 C   0  0  2  0  0  3  0  0  0  0  0  0
  185.3250  179.0140  140.5460 C   0  0  0  0  0  0  0  0  0  0  0  0
  186.4840  178.5140  141.2600 C   0  0  0  0  0  0  0  0  0  0  0  0
  188.3390  177.7850  143.2700 C   0  0  0  0  0  0  0  0  0  0  0  0
  185.3060  179.4130  139.3520 O   0  0  0  0  0  0  0  0  0  0  0  0
  183.7650  178.3820  143.7380 C   0  0  0  0  0  1  0  0  0  0  0  0
  184.1860  179.0030  141.4050 N   0  0  0  0  0  0  0  0  0  0  0  0
  189.1770  177.8220  144.2640 N   0  0  0  0  0  0  0  0  0  0  0  0
  188.3160  178.9140  139.8100 O   0  0  0  0  0  0  0  0  0  0  0  0
  186.9320  177.8840  143.5410 N   0  0  0  0  0  2  0  0  0  0  0  0
  188.8080  177.6340  141.8230 C   0  0  2  0  0  3  0  0  0  0  0  0
  186.0520  178.2250  142.4670 C   0  0  0  0  0  0  0  0  0  0  0  0
  190.3150  177.9000  141.6420 C   0  0  2  0  0  3  0  0  0  0  0  0
  187.8990  178.4130  140.8890 C   0  0  0  0  0  0  0  0  0  0  0  0
  191.1260  179.2890  144.3240 C   0  0  0  0  0  1  0  0  0  0  0  0
  184.6250  178.5410  142.5360 C   0  0  0  0  0  0  0  0  0  0  0  0
  191.0800  175.7830  142.8420 C   0  0  0  0  0  1  0  0  0  0  0  0
  192.3370  176.7520  138.8350 N   0  0  0  0  0  0  0  0  0  0  0  0
  190.8860  175.9730  137.1460 N   0  0  0  0  0  0  0  0  0  0  0  0
  190.8640  177.4310  140.3190 C   0  0  0  0  0  0  0  0  0  0  0  0
  189.6990  175.5060  137.3600 C   0  0  0  0  0  0  0  0  0  0  0  0
  191.2370  176.8770  138.1740 C   0  0  0  0  0  0  0  0  0  0  0  0
  188.9030  176.0030  138.9000 S   0  0  0  0  0  0  0  0  0  0  0  0
  192.1160  177.1520  140.1560 N   0  0  0  0  0  0  0  0  0  0  0  0
  189.0610  174.6160  136.4440 N   0  0  0  0  0  2  0  0  0  0  0  0
  190.1250  177.3470  139.0200 C   0  0  1  0  0  3  0  0  0  0  0  0
  189.6950  174.1950  135.2050 C   0  0  0  0  0  2  0  0  0  0  0  0
  190.3330  172.8370  135.4020 C   0  0  0  0  0  1  0  0  0  0  0  0
  1 18  1  1  0  0  0
  1  2  1  0  0  0  0
  2  9  1  0  0  0  0
  2 16  1  6  0  0  0
  3  4  1  0  0  0  0
  3  8  1  0  0  0  0
  4 13  2  0  0  0  0
  5 11  1  0  0  0  0
  5  9  2  0  0  0  0
  6  3  2  0  0  0  0
  8 17  2  0  0  0  0
 10 15  2  0  0  0  0
 12 15  1  6  0  0  0
 12  5  1  0  0  0  0
 13 17  1  0  0  0  0
 13 11  1  0  0  0  0
 14 21  1  6  0  0  0
 14 12  1  0  0  0  0
 14  1  1  0  0  0  0
 15  4  1  0  0  0  0
 17  7  1  0  0  0  0
 19 25  1  0  0  0  0
 20 22  2  0  0  0  0
 20 23  1  0  0  0  0
 22 24  1  0  0  0  0
 23 19  2  0  0  0  0
 24 27  1  0  0  0  0
 25 21  2  0  0  0  0
 26 22  1  0  0  0  0
 27 23  1  6  0  0  0
 27 21  1  0  0  0  0
 28 29  1  0  0  0  0
 28 26  1  0  0  0  0
M  END
>  <MODEL>
8

>  <REMARK>
 VINA RESULT:      -6.8      1.788      2.355
  Name = 
  2 active torsions:
  status: ('A' for Active; 'I' for Inactive)
    1  A    between atoms: C_6  and  N_24
    2  A    between atoms: C_9  and  C_22
                            x       y       z     vdW  Elec       q    Type
                         _______ _______ _______ _____ _____    ______ ____

>  <TORSDO>
F 2

$$$$
=
 OpenBabel10222421093D

 29 33  0  0  1  0  0  0  0  0999 V2000
  184.9300  179.1460  144.5060 C   0  0  2  0  0  3  0  0  0  0  0  0
  185.0000  178.7550  145.9810 C   0  0  2  0  0  3  0  0  0  0  0  0
  190.5440  176.0100  143.9340 C   0  0  0  0  0  0  0  0  0  0  0  0
  189.4040  176.8370  144.2800 C   0  0  0  0  0  0  0  0  0  0  0  0
  187.3860  178.2470  145.6770 C   0  0  0  0  0  0  0  0  0  0  0  0
  190.7170  175.4060  142.8430 O   0  0  0  0  0  0  0  0  0  0  0  0
  191.5200  176.9030  147.2910 C   0  0  0  0  0  1  0  0  0  0  0  0
  191.4570  175.9630  145.0290 N   0  0  0  0  0  0  0  0  0  0  0  0
  186.3750  178.5460  146.4410 N   0  0  0  0  0  0  0  0  0  0  0  0
  187.8640  176.5300  142.5040 O   0  0  0  0  0  0  0  0  0  0  0  0
  188.6510  177.9390  146.2850 N   0  0  0  0  0  2  0  0  0  0  0  0
  187.2670  178.2200  144.1540 C   0  0  2  0  0  3  0  0  0  0  0  0
  189.6330  177.2520  145.5060 C   0  0  0  0  0  0  0  0  0  0  0  0
  185.8090  178.2110  143.6580 C   0  0  2  0  0  3  0  0  0  0  0  0
  188.1520  177.1310  143.5740 C   0  0  0  0  0  0  0  0  0  0  0  0
  184.1800  177.5020  146.2320 C   0  0  0  0  0  1  0  0  0  0  0  0
  190.9100  176.6940  145.9510 C   0  0  0  0  0  0  0  0  0  0  0  0
  185.3040  180.6140  144.3500 C   0  0  0  0  0  1  0  0  0  0  0  0
  186.2410  178.9470  140.1150 N   0  0  0  0  0  0  0  0  0  0  0  0
  184.1480  178.7160  139.0500 N   0  0  0  0  0  0  0  0  0  0  0  0
  185.6590  178.5290  142.1930 C   0  0  0  0  0  0  0  0  0  0  0  0
  183.1940  177.9510  139.4700 C   0  0  0  0  0  0  0  0  0  0  0  0
  184.9620  179.1090  140.1360 C   0  0  0  0  0  0  0  0  0  0  0  0
  183.2310  177.5030  141.2170 S   0  0  0  0  0  0  0  0  0  0  0  0
  186.6790  178.6430  141.4060 N   0  0  0  0  0  0  0  0  0  0  0  0
  182.1820  177.4560  138.5940 N   0  0  0  0  0  2  0  0  0  0  0  0
  184.3910  178.8820  141.4770 C   0  0  1  0  0  3  0  0  0  0  0  0
  182.1460  177.7960  137.1810 C   0  0  0  0  0  2  0  0  0  0  0  0
  181.1690  178.9310  136.9620 C   0  0  0  0  0  1  0  0  0  0  0  0
  1 18  1  1  0  0  0
  1  2  1  0  0  0  0
  2 16  1  6  0  0  0
  2  9  1  0  0  0  0
  3  4  1  0  0  0  0
  3  8  1  0  0  0  0
  4 13  2  0  0  0  0
  5 11  1  0  0  0  0
  5  9  2  0  0  0  0
  6  3  2  0  0  0  0
  8 17  2  0  0  0  0
 10 15  2  0  0  0  0
 12 15  1  1  0  0  0
 12  5  1  0  0  0  0
 13 17  1  0  0  0  0
 13 11  1  0  0  0  0
 14 21  1  6  0  0  0
 14 12  1  0  0  0  0
 14  1  1  0  0  0  0
 15  4  1  0  0  0  0
 17  7  1  0  0  0  0
 19 23  2  0  0  0  0
 19 25  1  0  0  0  0
 20 22  2  0  0  0  0
 20 23  1  0  0  0  0
 22 24  1  0  0  0  0
 24 27  1  0  0  0  0
 25 21  2  0  0  0  0
 26 22  1  0  0  0  0
 27 23  1  6  0  0  0
 27 21  1  0  0  0  0
 28 26  1  0  0  0  0
 29 28  1  0  0  0  0
M  END
>  <MODEL>
9

>  <REMARK>
 VINA RESULT:      -6.8      4.504      7.161
  Name = 
  2 active torsions:
  status: ('A' for Active; 'I' for Inactive)
    1  A    between atoms: C_6  and  N_24
    2  A    between atoms: C_9  and  C_22
                            x       y       z     vdW  Elec       q    Type
                         _______ _______ _______ _____ _____    ______ ____

>  <TORSDO>
F 2

$$$$
