=
 OpenBabel10222417083D

 25 27  0  0  1  0  0  0  0  0999 V2000
  190.8960  176.7550  144.9320 C   0  0  0  0  0  2  0  0  0  0  0  0
  188.6700  176.0410  143.2830 C   0  0  0  0  0  3  0  0  0  0  0  0
  191.1590  176.2290  143.5140 C   0  0  1  0  0  3  0  0  0  0  0  0
  188.4390  176.8450  144.5390 C   0  0  1  0  0  3  0  0  0  0  0  0
  189.6660  177.6570  144.9510 C   0  0  0  0  0  2  0  0  0  0  0  0
  189.9000  175.7290  142.8470 C   0  0  0  0  0  3  0  0  0  0  0  0
  186.7890  178.0010  143.2130 N   0  0  0  0  0  0  0  0  0  0  0  0
  184.3960  178.3330  143.5520 C   0  0  2  0  0  3  0  0  0  0  0  0
  187.2330  177.7170  144.4060 C   0  0  0  0  0  0  0  0  0  0  0  0
  184.4350  178.2850  140.7620 C   0  0  0  0  0  2  0  0  0  0  0  0
  185.4390  178.7430  145.8990 C   0  0  0  0  0  3  0  0  0  0  0  0
  185.5880  179.0710  141.3800 C   0  0  0  0  0  2  0  0  0  0  0  0
  185.6780  178.8850  142.9050 C   0  0  2  0  0  3  0  0  0  0  0  0
  183.2020  178.6760  142.7960 N   0  0  0  0  0  0  0  0  0  0  0  0
  183.1870  178.6370  141.5080 C   0  0  0  0  0  3  0  0  0  0  0  0
  186.6680  178.2660  145.6600 C   0  0  0  0  0  3  0  0  0  0  0  0
  184.3010  178.8160  144.9670 C   0  0  0  0  0  0  0  0  0  0  0  0
  183.2110  179.2730  145.4010 O   0  0  0  0  0  0  0  0  0  0  0  0
  191.7920  177.3080  142.6490 C   0  0  0  0  0  2  0  0  0  0  0  0
  190.8900  177.6750  141.5700 N   0  0  0  0  0  2  0  0  0  0  0  0
  191.5960  177.4380  140.3200 C   0  0  0  0  0  2  0  0  0  0  0  0
  190.5520  175.9890  138.6150 C   0  0  0  0  0  1  0  0  0  0  0  0
  190.6200  177.4020  139.1530 C   0  0  1  0  0  3  0  0  0  0  0  0
  188.8100  178.9410  138.8700 O   0  0  0  0  0  1  0  0  0  0  0  0
  189.2290  177.8270  139.5980 C   0  0  0  0  0  2  0  0  0  0  0  0
  1  5  1  0  0  0  0
  2  4  1  0  0  0  0
  3 19  1  6  0  0  0
  3  1  1  0  0  0  0
  4  9  1  6  0  0  0
  4  5  1  0  0  0  0
  6  2  2  0  0  0  0
  6  3  1  0  0  0  0
  7  9  2  0  0  0  0
  8 14  1  6  0  0  0
  8 17  1  0  0  0  0
  9 16  1  0  0  0  0
 10 12  1  0  0  0  0
 10 15  1  0  0  0  0
 13 12  1  6  0  0  0
 13  7  1  0  0  0  0
 13  8  1  0  0  0  0
 15 14  2  0  0  0  0
 16 11  2  0  0  0  0
 17 18  2  0  0  0  0
 17 11  1  0  0  0  0
 20 19  1  0  0  0  0
 21 20  1  0  0  0  0
 23 22  1  1  0  0  0
 23 25  1  0  0  0  0
 23 21  1  0  0  0  0
 24 25  1  0  0  0  0
M  END
>  <MODEL>
1

>  <REMARK>
 VINA RESULT:      -8.4      0.000      0.000
  Name = 
  6 active torsions:
  status: ('A' for Active; 'I' for Inactive)
    1  A    between atoms: C_1  and  C_9
    2  A    between atoms: C_1  and  N_15
    3  A    between atoms: C_5  and  N_15
    4  A    between atoms: C_5  and  C_17
    5  A    between atoms: C_8  and  C_17
    6  A    between atoms: C_11  and  C_12
                            x       y       z     vdW  Elec       q    Type
                         _______ _______ _______ _____ _____    ______ ____

>  <TORSDO>
F 6

$$$$
=
 OpenBabel10222417083D

 25 27  0  0  1  0  0  0  0  0999 V2000
  190.7320  176.8750  144.9260 C   0  0  0  0  0  2  0  0  0  0  0  0
  188.5270  176.1380  143.2590 C   0  0  0  0  0  3  0  0  0  0  0  0
  191.0110  176.3590  143.5070 C   0  0  1  0  0  3  0  0  0  0  0  0
  188.2770  176.9350  144.5170 C   0  0  1  0  0  3  0  0  0  0  0  0
  189.4910  177.7610  144.9400 C   0  0  0  0  0  2  0  0  0  0  0  0
  189.7640  175.8450  142.8300 C   0  0  0  0  0  3  0  0  0  0  0  0
  186.6090  178.0570  143.1860 N   0  0  0  0  0  0  0  0  0  0  0  0
  184.2130  178.3650  143.5290 C   0  0  2  0  0  3  0  0  0  0  0  0
  187.0610  177.7910  144.3790 C   0  0  0  0  0  0  0  0  0  0  0  0
  184.2430  178.2880  140.7410 C   0  0  0  0  0  2  0  0  0  0  0  0
  185.2600  178.8110  145.8680 C   0  0  0  0  0  3  0  0  0  0  0  0
  185.3880  179.0940  141.3460 C   0  0  0  0  0  2  0  0  0  0  0  0
  185.4860  178.9250  142.8730 C   0  0  2  0  0  3  0  0  0  0  0  0
  183.0130  178.6860  142.7750 N   0  0  0  0  0  0  0  0  0  0  0  0
  182.9930  178.6330  141.4880 C   0  0  0  0  0  3  0  0  0  0  0  0
  186.4930  178.3460  145.6300 C   0  0  0  0  0  3  0  0  0  0  0  0
  184.1180  178.8610  144.9400 C   0  0  0  0  0  0  0  0  0  0  0  0
  183.0240  179.3100  145.3730 O   0  0  0  0  0  0  0  0  0  0  0  0
  191.6360  177.4490  142.6510 C   0  0  0  0  0  2  0  0  0  0  0  0
  190.9780  177.5040  141.3550 N   0  0  0  0  0  2  0  0  0  0  0  0
  192.0180  177.4170  140.3420 C   0  0  0  0  0  2  0  0  0  0  0  0
  190.2400  177.1220  138.6530 C   0  0  0  0  0  1  0  0  0  0  0  0
  191.5510  176.5670  139.1680 C   0  0  1  0  0  3  0  0  0  0  0  0
  193.8220  176.1950  138.5170 O   0  0  0  0  0  1  0  0  0  0  0  0
  192.5730  176.5930  138.0430 C   0  0  0  0  0  2  0  0  0  0  0  0
  1  5  1  0  0  0  0
  2  4  1  0  0  0  0
  3 19  1  6  0  0  0
  3  1  1  0  0  0  0
  4  9  1  6  0  0  0
  4  5  1  0  0  0  0
  6  2  2  0  0  0  0
  6  3  1  0  0  0  0
  7  9  2  0  0  0  0
  8 14  1  6  0  0  0
  8 17  1  0  0  0  0
  9 16  1  0  0  0  0
 10 12  1  0  0  0  0
 10 15  1  0  0  0  0
 13 12  1  6  0  0  0
 13  7  1  0  0  0  0
 13  8  1  0  0  0  0
 15 14  2  0  0  0  0
 16 11  2  0  0  0  0
 17 18  2  0  0  0  0
 17 11  1  0  0  0  0
 20 19  1  0  0  0  0
 21 20  1  0  0  0  0
 23 22  1  6  0  0  0
 23 21  1  0  0  0  0
 25 24  1  0  0  0  0
 25 23  1  0  0  0  0
M  END
>  <MODEL>
2

>  <REMARK>
 VINA RESULT:      -8.1      1.274      1.440
  Name = 
  6 active torsions:
  status: ('A' for Active; 'I' for Inactive)
    1  A    between atoms: C_1  and  C_9
    2  A    between atoms: C_1  and  N_15
    3  A    between atoms: C_5  and  N_15
    4  A    between atoms: C_5  and  C_17
    5  A    between atoms: C_8  and  C_17
    6  A    between atoms: C_11  and  C_12
                            x       y       z     vdW  Elec       q    Type
                         _______ _______ _______ _____ _____    ______ ____

>  <TORSDO>
F 6

$$$$
=
 OpenBabel10222417083D

 25 27  0  0  1  0  0  0  0  0999 V2000
  187.8490  177.5250  146.6000 C   0  0  0  0  0  2  0  0  0  0  0  0
  187.1480  176.8460  143.9120 C   0  0  0  0  0  3  0  0  0  0  0  0
  188.9680  177.2350  145.5900 C   0  0  1  0  0  3  0  0  0  0  0  0
  186.1030  177.4370  144.8280 C   0  0  1  0  0  3  0  0  0  0  0  0
  186.7120  178.2940  145.9360 C   0  0  0  0  0  2  0  0  0  0  0  0
  188.4320  176.7180  144.2770 C   0  0  0  0  0  3  0  0  0  0  0  0
  185.2240  178.3210  142.7640 N   0  0  0  0  0  0  0  0  0  0  0  0
  182.9360  178.5150  141.9400 C   0  0  2  0  0  3  0  0  0  0  0  0
  185.0780  178.1990  144.0540 C   0  0  0  0  0  0  0  0  0  0  0  0
  184.2450  178.1700  139.5010 C   0  0  0  0  0  2  0  0  0  0  0  0
  182.7850  179.2470  144.4310 C   0  0  0  0  0  3  0  0  0  0  0  0
  184.9760  179.1000  140.4650 C   0  0  0  0  0  2  0  0  0  0  0  0
  184.3620  179.0850  141.8770 C   0  0  2  0  0  3  0  0  0  0  0  0
  182.2130  178.6870  140.6900 N   0  0  0  0  0  0  0  0  0  0  0  0
  182.7890  178.5090  139.5510 C   0  0  0  0  0  3  0  0  0  0  0  0
  183.9940  178.8380  144.8360 C   0  0  0  0  0  3  0  0  0  0  0  0
  182.1970  179.1380  143.0850 C   0  0  0  0  0  0  0  0  0  0  0  0
  181.0220  179.5590  142.9180 O   0  0  0  0  0  0  0  0  0  0  0  0
  189.8010  178.4820  145.3380 C   0  0  0  0  0  2  0  0  0  0  0  0
  190.1930  178.5460  143.9390 N   0  0  0  0  0  2  0  0  0  0  0  0
  191.6210  178.2770  143.8800 C   0  0  0  0  0  2  0  0  0  0  0  0
  191.6790  175.8330  143.5340 C   0  0  0  0  0  1  0  0  0  0  0  0
  191.9160  177.1740  142.8730 C   0  0  1  0  0  3  0  0  0  0  0  0
  190.3320  176.0910  141.4440 O   0  0  0  0  0  1  0  0  0  0  0  0
  191.0070  177.2920  141.6600 C   0  0  0  0  0  2  0  0  0  0  0  0
  2  6  2  0  0  0  0
  2  4  1  0  0  0  0
  3 19  1  6  0  0  0
  3  1  1  0  0  0  0
  4  9  1  6  0  0  0
  4  5  1  0  0  0  0
  5  1  1  0  0  0  0
  6  3  1  0  0  0  0
  7  9  2  0  0  0  0
  8 14  1  6  0  0  0
  8 17  1  0  0  0  0
  9 16  1  0  0  0  0
 10 15  1  0  0  0  0
 10 12  1  0  0  0  0
 11 16  2  0  0  0  0
 13 12  1  6  0  0  0
 13  8  1  0  0  0  0
 13  7  1  0  0  0  0
 15 14  2  0  0  0  0
 17 11  1  0  0  0  0
 18 17  2  0  0  0  0
 20 19  1  0  0  0  0
 21 20  1  0  0  0  0
 23 22  1  1  0  0  0
 23 21  1  0  0  0  0
 24 25  1  0  0  0  0
 25 23  1  0  0  0  0
M  END
>  <MODEL>
3

>  <REMARK>
 VINA RESULT:      -7.8      1.875      2.900
  Name = 
  6 active torsions:
  status: ('A' for Active; 'I' for Inactive)
    1  A    between atoms: C_1  and  C_9
    2  A    between atoms: C_1  and  N_15
    3  A    between atoms: C_5  and  N_15
    4  A    between atoms: C_5  and  C_17
    5  A    between atoms: C_8  and  C_17
    6  A    between atoms: C_11  and  C_12
                            x       y       z     vdW  Elec       q    Type
                         _______ _______ _______ _____ _____    ______ ____

>  <TORSDO>
F 6

$$$$
=
 OpenBabel10222417083D

 25 27  0  0  1  0  0  0  0  0999 V2000
  191.6300  175.6420  144.4490 C   0  0  0  0  0  2  0  0  0  0  0  0
  191.4380  178.3550  143.5630 C   0  0  0  0  0  3  0  0  0  0  0  0
  191.5120  176.7590  145.4940 C   0  0  1  0  0  3  0  0  0  0  0  0
  191.2370  177.2330  142.5740 C   0  0  1  0  0  3  0  0  0  0  0  0
  190.7530  175.9440  143.2380 C   0  0  0  0  0  2  0  0  0  0  0  0
  191.6040  178.1330  144.8760 C   0  0  0  0  0  3  0  0  0  0  0  0
  190.5920  177.2650  140.2510 N   0  0  0  0  0  0  0  0  0  0  0  0
  188.4010  177.1450  139.1850 C   0  0  2  0  0  3  0  0  0  0  0  0
  190.3230  177.6480  141.4670 C   0  0  0  0  0  0  0  0  0  0  0  0
  189.9120  175.8830  137.2080 C   0  0  0  0  0  2  0  0  0  0  0  0
  188.0560  178.7760  141.1810 C   0  0  0  0  0  3  0  0  0  0  0  0
  190.5930  177.1060  137.8160 C   0  0  0  0  0  2  0  0  0  0  0  0
  189.8520  177.6370  139.0570 C   0  0  2  0  0  3  0  0  0  0  0  0
  187.8050  176.8300  137.8960 N   0  0  0  0  0  0  0  0  0  0  0  0
  188.4750  176.2260  136.9760 C   0  0  0  0  0  3  0  0  0  0  0  0
  189.2020  178.5450  141.8330 C   0  0  0  0  0  3  0  0  0  0  0  0
  187.5890  178.1640  139.9250 C   0  0  0  0  0  0  0  0  0  0  0  0
  186.4560  178.4970  139.4910 O   0  0  0  0  0  0  0  0  0  0  0  0
  190.2060  176.6390  146.2640 C   0  0  0  0  0  2  0  0  0  0  0  0
  189.3930  177.8270  146.0550 N   0  0  0  0  0  2  0  0  0  0  0  0
  188.0680  177.5370  146.5790 C   0  0  0  0  0  2  0  0  0  0  0  0
  186.8800  177.2880  144.4270 C   0  0  0  0  0  1  0  0  0  0  0  0
  186.9950  178.1340  145.6780 C   0  0  1  0  0  3  0  0  0  0  0  0
  184.9230  179.2840  146.0050 O   0  0  0  0  0  1  0  0  0  0  0  0
  185.6480  178.1550  146.3840 C   0  0  0  0  0  2  0  0  0  0  0  0
  1  3  1  0  0  0  0
  2  6  2  0  0  0  0
  3 19  1  6  0  0  0
  4  9  1  6  0  0  0
  4  5  1  0  0  0  0
  4  2  1  0  0  0  0
  5  1  1  0  0  0  0
  6  3  1  0  0  0  0
  7  9  2  0  0  0  0
  8 14  1  6  0  0  0
  8 17  1  0  0  0  0
  9 16  1  0  0  0  0
 10 12  1  0  0  0  0
 11 16  2  0  0  0  0
 13 12  1  6  0  0  0
 13  8  1  0  0  0  0
 13  7  1  0  0  0  0
 15 10  1  0  0  0  0
 15 14  2  0  0  0  0
 17 11  1  0  0  0  0
 18 17  2  0  0  0  0
 20 19  1  0  0  0  0
 20 21  1  0  0  0  0
 23 22  1  6  0  0  0
 23 25  1  0  0  0  0
 23 21  1  0  0  0  0
 24 25  1  0  0  0  0
M  END
>  <MODEL>
4

>  <REMARK>
 VINA RESULT:      -7.5      2.466      5.691
  Name = 
  6 active torsions:
  status: ('A' for Active; 'I' for Inactive)
    1  A    between atoms: C_1  and  C_9
    2  A    between atoms: C_1  and  N_15
    3  A    between atoms: C_5  and  N_15
    4  A    between atoms: C_5  and  C_17
    5  A    between atoms: C_8  and  C_17
    6  A    between atoms: C_11  and  C_12
                            x       y       z     vdW  Elec       q    Type
                         _______ _______ _______ _____ _____    ______ ____

>  <TORSDO>
F 6

$$$$
=
 OpenBabel10222417083D

 25 27  0  0  1  0  0  0  0  0999 V2000
  183.0020  179.0020  142.2790 C   0  0  0  0  0  2  0  0  0  0  0  0
  185.8010  178.9940  141.6920 C   0  0  0  0  0  3  0  0  0  0  0  0
  183.4580  178.7880  140.8290 C   0  0  1  0  0  3  0  0  0  0  0  0
  185.3400  178.8850  143.1250 C   0  0  1  0  0  3  0  0  0  0  0  0
  183.9390  178.2890  143.2480 C   0  0  0  0  0  2  0  0  0  0  0  0
  184.9440  178.9920  140.6610 C   0  0  0  0  0  3  0  0  0  0  0  0
  187.3520  177.5770  143.3630 N   0  0  0  0  0  0  0  0  0  0  0  0
  189.0750  177.5710  145.0910 C   0  0  2  0  0  3  0  0  0  0  0  0
  186.3270  178.1260  143.9520 C   0  0  0  0  0  0  0  0  0  0  0  0
  190.6560  176.8690  142.9020 C   0  0  0  0  0  2  0  0  0  0  0  0
  186.8400  177.7080  146.4130 C   0  0  0  0  0  3  0  0  0  0  0  0
  189.2980  176.1720  142.9290 C   0  0  0  0  0  2  0  0  0  0  0  0
  188.3600  176.7500  144.0040 C   0  0  2  0  0  3  0  0  0  0  0  0
  190.4530  177.1520  145.2870 N   0  0  0  0  0  0  0  0  0  0  0  0
  191.2110  176.8470  144.2910 C   0  0  0  0  0  3  0  0  0  0  0  0
  186.0180  177.9870  145.3940 C   0  0  0  0  0  3  0  0  0  0  0  0
  188.2960  177.4960  146.3690 C   0  0  0  0  0  0  0  0  0  0  0  0
  188.8940  177.2740  147.4540 O   0  0  0  0  0  0  0  0  0  0  0  0
  183.0830  177.3940  140.3490 C   0  0  0  0  0  2  0  0  0  0  0  0
  181.6460  177.3090  140.1370 N   0  0  0  0  0  2  0  0  0  0  0  0
  181.2880  178.3610  139.1980 C   0  0  0  0  0  2  0  0  0  0  0  0
  179.4960  178.3910  140.8970 C   0  0  0  0  0  1  0  0  0  0  0  0
  179.9930  179.0400  139.6230 C   0  0  1  0  0  3  0  0  0  0  0  0
  180.0530  180.8060  141.2350 O   0  0  0  0  0  1  0  0  0  0  0  0
  180.2190  180.5210  139.8800 C   0  0  0  0  0  2  0  0  0  0  0  0
  1  5  1  0  0  0  0
  2  4  1  0  0  0  0
  3 19  1  1  0  0  0
  3  1  1  0  0  0  0
  4  5  1  0  0  0  0
  4  9  1  1  0  0  0
  6  3  1  0  0  0  0
  6  2  2  0  0  0  0
  7  9  2  0  0  0  0
  7 13  1  0  0  0  0
  8 14  1  1  0  0  0
  8 17  1  0  0  0  0
  9 16  1  0  0  0  0
 10 12  1  0  0  0  0
 10 15  1  0  0  0  0
 13 12  1  6  0  0  0
 13  8  1  0  0  0  0
 15 14  2  0  0  0  0
 16 11  2  0  0  0  0
 17 11  1  0  0  0  0
 17 18  2  0  0  0  0
 20 19  1  0  0  0  0
 21 23  1  0  0  0  0
 21 20  1  0  0  0  0
 23 25  1  0  0  0  0
 23 22  1  1  0  0  0
 25 24  1  0  0  0  0
M  END
>  <MODEL>
5

>  <REMARK>
 VINA RESULT:      -7.1      2.833      7.125
  Name = 
  6 active torsions:
  status: ('A' for Active; 'I' for Inactive)
    1  A    between atoms: C_1  and  C_9
    2  A    between atoms: C_1  and  N_15
    3  A    between atoms: C_5  and  N_15
    4  A    between atoms: C_5  and  C_17
    5  A    between atoms: C_8  and  C_17
    6  A    between atoms: C_11  and  C_12
                            x       y       z     vdW  Elec       q    Type
                         _______ _______ _______ _____ _____    ______ ____

>  <TORSDO>
F 6

$$$$
=
 OpenBabel10222417083D

 25 27  0  0  1  0  0  0  0  0999 V2000
  189.1530  178.6280  139.6970 C   0  0  0  0  0  2  0  0  0  0  0  0
  190.3280  177.3790  141.9870 C   0  0  0  0  0  3  0  0  0  0  0  0
  190.1290  177.4620  139.4900 C   0  0  1  0  0  3  0  0  0  0  0  0
  189.1440  178.2980  142.1650 C   0  0  1  0  0  3  0  0  0  0  0  0
  188.2690  178.3780  140.9150 C   0  0  0  0  0  2  0  0  0  0  0  0
  190.7960  177.0380  140.7760 C   0  0  0  0  0  3  0  0  0  0  0  0
  188.9630  177.6190  144.4720 N   0  0  0  0  0  0  0  0  0  0  0  0
  187.3690  178.2360  146.2120 C   0  0  2  0  0  3  0  0  0  0  0  0
  188.3410  177.9130  143.3650 C   0  0  0  0  0  0  0  0  0  0  0  0
  189.6130  177.8110  147.8140 C   0  0  0  0  0  2  0  0  0  0  0  0
  185.9000  177.8660  144.0980 C   0  0  0  0  0  3  0  0  0  0  0  0
  189.4400  176.7720  146.7090 C   0  0  0  0  0  2  0  0  0  0  0  0
  188.3420  177.1600  145.7030 C   0  0  2  0  0  3  0  0  0  0  0  0
  187.2450  178.2310  147.6610 N   0  0  0  0  0  0  0  0  0  0  0  0
  188.2700  178.0620  148.4230 C   0  0  0  0  0  3  0  0  0  0  0  0
  186.8740  177.8190  143.1800 C   0  0  0  0  0  3  0  0  0  0  0  0
  186.0350  178.0600  145.5520 C   0  0  0  0  0  0  0  0  0  0  0  0
  184.9840  178.1050  146.2420 O   0  0  0  0  0  0  0  0  0  0  0  0
  189.4180  176.2680  138.8730 C   0  0  0  0  0  2  0  0  0  0  0  0
  188.9300  176.6090  137.5450 N   0  0  0  0  0  2  0  0  0  0  0  0
  187.4810  176.4950  137.5780 C   0  0  0  0  0  2  0  0  0  0  0  0
  186.7150  177.8030  135.6280 C   0  0  0  0  0  1  0  0  0  0  0  0
  186.8320  177.8000  137.1370 C   0  0  1  0  0  3  0  0  0  0  0  0
  185.4350  178.9570  138.6970 O   0  0  0  0  0  1  0  0  0  0  0  0
  185.4430  177.9430  137.7400 C   0  0  0  0  0  2  0  0  0  0  0  0
  1  5  1  0  0  0  0
  2  4  1  0  0  0  0
  3 19  1  1  0  0  0
  3  1  1  0  0  0  0
  3  6  1  0  0  0  0
  4  9  1  1  0  0  0
  5  4  1  0  0  0  0
  6  2  2  0  0  0  0
  7 13  1  0  0  0  0
  8 17  1  6  0  0  0
  8 14  1  0  0  0  0
  9  7  2  0  0  0  0
 10 15  1  0  0  0  0
 11 17  1  0  0  0  0
 12 10  1  0  0  0  0
 13  8  1  0  0  0  0
 13 12  1  1  0  0  0
 14 15  2  0  0  0  0
 16  9  1  0  0  0  0
 16 11  2  0  0  0  0
 17 18  2  0  0  0  0
 20 21  1  0  0  0  0
 20 19  1  0  0  0  0
 23 22  1  6  0  0  0
 23 21  1  0  0  0  0
 23 25  1  0  0  0  0
 25 24  1  0  0  0  0
M  END
>  <MODEL>
6

>  <REMARK>
 VINA RESULT:      -7.0      2.561      4.634
  Name = 
  6 active torsions:
  status: ('A' for Active; 'I' for Inactive)
    1  A    between atoms: C_1  and  C_9
    2  A    between atoms: C_1  and  N_15
    3  A    between atoms: C_5  and  N_15
    4  A    between atoms: C_5  and  C_17
    5  A    between atoms: C_8  and  C_17
    6  A    between atoms: C_11  and  C_12
                            x       y       z     vdW  Elec       q    Type
                         _______ _______ _______ _____ _____    ______ ____

>  <TORSDO>
F 6

$$$$
=
 OpenBabel10222417083D

 25 27  0  0  1  0  0  0  0  0999 V2000
  182.9860  178.9720  142.1460 C   0  0  0  0  0  2  0  0  0  0  0  0
  185.8030  178.9700  141.6460 C   0  0  0  0  0  3  0  0  0  0  0  0
  183.4880  178.7430  140.7140 C   0  0  1  0  0  3  0  0  0  0  0  0
  185.2980  178.8750  143.0650 C   0  0  1  0  0  3  0  0  0  0  0  0
  183.8960  178.2740  143.1510 C   0  0  0  0  0  2  0  0  0  0  0  0
  184.9780  178.9520  140.5890 C   0  0  0  0  0  3  0  0  0  0  0  0
  187.2690  177.5210  143.3720 N   0  0  0  0  0  0  0  0  0  0  0  0
  188.9930  177.5510  145.0980 C   0  0  2  0  0  3  0  0  0  0  0  0
  186.2610  178.1300  143.9300 C   0  0  0  0  0  0  0  0  0  0  0  0
  190.5490  176.6900  142.9490 C   0  0  0  0  0  2  0  0  0  0  0  0
  186.7640  177.8240  146.4110 C   0  0  0  0  0  3  0  0  0  0  0  0
  189.1720  176.0370  143.0110 C   0  0  0  0  0  2  0  0  0  0  0  0
  188.2530  176.6970  144.0550 C   0  0  2  0  0  3  0  0  0  0  0  0
  190.3580  177.1010  145.3170 N   0  0  0  0  0  0  0  0  0  0  0  0
  191.1050  176.7220  144.3380 C   0  0  0  0  0  3  0  0  0  0  0  0
  185.9500  178.0750  145.3780 C   0  0  0  0  0  3  0  0  0  0  0  0
  188.2130  177.5650  146.3780 C   0  0  0  0  0  0  0  0  0  0  0  0
  188.8060  177.3820  147.4740 O   0  0  0  0  0  0  0  0  0  0  0  0
  183.1340  177.3430  140.2370 C   0  0  0  0  0  2  0  0  0  0  0  0
  182.4310  177.4110  138.9660 N   0  0  0  0  0  2  0  0  0  0  0  0
  181.0280  177.6530  139.2640 C   0  0  0  0  0  2  0  0  0  0  0  0
  179.5900  177.3530  141.2500 C   0  0  0  0  0  1  0  0  0  0  0  0
  180.5170  176.6450  140.2840 C   0  0  1  0  0  3  0  0  0  0  0  0
  179.8380  174.3520  140.3510 O   0  0  0  0  0  1  0  0  0  0  0  0
  179.7520  175.5240  139.6000 C   0  0  0  0  0  2  0  0  0  0  0  0
  1  5  1  0  0  0  0
  2  4  1  0  0  0  0
  3 19  1  1  0  0  0
  3  1  1  0  0  0  0
  4  5  1  0  0  0  0
  4  9  1  1  0  0  0
  6  3  1  0  0  0  0
  6  2  2  0  0  0  0
  7  9  2  0  0  0  0
  7 13  1  0  0  0  0
  8 14  1  1  0  0  0
  8 17  1  0  0  0  0
  9 16  1  0  0  0  0
 10 12  1  0  0  0  0
 10 15  1  0  0  0  0
 13 12  1  6  0  0  0
 13  8  1  0  0  0  0
 15 14  2  0  0  0  0
 16 11  2  0  0  0  0
 17 11  1  0  0  0  0
 17 18  2  0  0  0  0
 20 21  1  0  0  0  0
 20 19  1  0  0  0  0
 21 23  1  0  0  0  0
 23 22  1  1  0  0  0
 25 23  1  0  0  0  0
 25 24  1  0  0  0  0
M  END
>  <MODEL>
7

>  <REMARK>
 VINA RESULT:      -7.0      2.954      7.123
  Name = 
  6 active torsions:
  status: ('A' for Active; 'I' for Inactive)
    1  A    between atoms: C_1  and  C_9
    2  A    between atoms: C_1  and  N_15
    3  A    between atoms: C_5  and  N_15
    4  A    between atoms: C_5  and  C_17
    5  A    between atoms: C_8  and  C_17
    6  A    between atoms: C_11  and  C_12
                            x       y       z     vdW  Elec       q    Type
                         _______ _______ _______ _____ _____    ______ ____

>  <TORSDO>
F 6

$$$$
=
 OpenBabel10222417083D

 25 27  0  0  1  0  0  0  0  0999 V2000
  189.0060  178.4570  138.9200 C   0  0  0  0  0  2  0  0  0  0  0  0
  189.3680  177.7890  141.6780 C   0  0  0  0  0  3  0  0  0  0  0  0
  190.0690  177.4180  139.3000 C   0  0  1  0  0  3  0  0  0  0  0  0
  188.1380  178.5540  141.2510 C   0  0  1  0  0  3  0  0  0  0  0  0
  187.7650  178.2990  139.7920 C   0  0  0  0  0  2  0  0  0  0  0  0
  190.2590  177.3140  140.7940 C   0  0  0  0  0  3  0  0  0  0  0  0
  187.2280  177.9800  143.4090 N   0  0  0  0  0  0  0  0  0  0  0  0
  185.2420  178.7740  144.5830 C   0  0  2  0  0  3  0  0  0  0  0  0
  186.9880  178.2740  142.1620 C   0  0  0  0  0  0  0  0  0  0  0  0
  186.8680  178.2550  146.7890 C   0  0  0  0  0  2  0  0  0  0  0  0
  184.4430  178.4260  142.1320 C   0  0  0  0  0  3  0  0  0  0  0  0
  186.9500  177.1890  145.7000 C   0  0  0  0  0  2  0  0  0  0  0  0
  186.2350  177.6140  144.4050 C   0  0  2  0  0  3  0  0  0  0  0  0
  184.6930  178.8340  145.9280 N   0  0  0  0  0  0  0  0  0  0  0  0
  185.4290  178.6230  146.9640 C   0  0  0  0  0  3  0  0  0  0  0  0
  185.6390  178.2760  141.5490 C   0  0  0  0  0  3  0  0  0  0  0  0
  184.1550  178.6660  143.5560 C   0  0  0  0  0  0  0  0  0  0  0  0
  182.9530  178.8120  143.8990 O   0  0  0  0  0  0  0  0  0  0  0  0
  189.7080  176.0500  138.7430 C   0  0  0  0  0  2  0  0  0  0  0  0
  190.9130  175.3420  138.3370 N   0  0  0  0  0  2  0  0  0  0  0  0
  191.6840  176.2520  137.5040 C   0  0  0  0  0  2  0  0  0  0  0  0
  193.9270  176.2690  136.4710 C   0  0  0  0  0  1  0  0  0  0  0  0
  192.6450  175.4770  136.6140 C   0  0  1  0  0  3  0  0  0  0  0  0
  194.1430  174.1950  137.9690 O   0  0  0  0  0  1  0  0  0  0  0  0
  192.9690  174.1210  137.2210 C   0  0  0  0  0  2  0  0  0  0  0  0
  1  3  1  0  0  0  0
  1  5  1  0  0  0  0
  3 19  1  1  0  0  0
  3  6  1  0  0  0  0
  4  2  1  0  0  0  0
  4  9  1  1  0  0  0
  5  4  1  0  0  0  0
  6  2  2  0  0  0  0
  7 13  1  0  0  0  0
  8 17  1  6  0  0  0
  8 14  1  0  0  0  0
  9  7  2  0  0  0  0
 10 15  1  0  0  0  0
 11 17  1  0  0  0  0
 12 10  1  0  0  0  0
 13  8  1  0  0  0  0
 13 12  1  1  0  0  0
 14 15  2  0  0  0  0
 16 11  2  0  0  0  0
 16  9  1  0  0  0  0
 17 18  2  0  0  0  0
 20 19  1  0  0  0  0
 21 20  1  0  0  0  0
 23 22  1  1  0  0  0
 23 25  1  0  0  0  0
 23 21  1  0  0  0  0
 25 24  1  0  0  0  0
M  END
>  <MODEL>
8

>  <REMARK>
 VINA RESULT:      -6.9      2.454      4.219
  Name = 
  6 active torsions:
  status: ('A' for Active; 'I' for Inactive)
    1  A    between atoms: C_1  and  C_9
    2  A    between atoms: C_1  and  N_15
    3  A    between atoms: C_5  and  N_15
    4  A    between atoms: C_5  and  C_17
    5  A    between atoms: C_8  and  C_17
    6  A    between atoms: C_11  and  C_12
                            x       y       z     vdW  Elec       q    Type
                         _______ _______ _______ _____ _____    ______ ____

>  <TORSDO>
F 6

$$$$
=
 OpenBabel10222417083D

 25 27  0  0  1  0  0  0  0  0999 V2000
  187.9660  177.5220  145.9780 C   0  0  0  0  0  2  0  0  0  0  0  0
  186.9850  176.7500  143.4040 C   0  0  0  0  0  3  0  0  0  0  0  0
  188.9700  177.1390  144.8830 C   0  0  1  0  0  3  0  0  0  0  0  0
  186.0560  177.4250  144.3840 C   0  0  1  0  0  3  0  0  0  0  0  0
  186.7990  178.3060  145.3860 C   0  0  0  0  0  2  0  0  0  0  0  0
  188.2920  176.5850  143.6530 C   0  0  0  0  0  3  0  0  0  0  0  0
  185.0340  178.2770  142.3730 N   0  0  0  0  0  0  0  0  0  0  0  0
  182.6930  178.5090  141.7280 C   0  0  2  0  0  3  0  0  0  0  0  0
  184.9900  178.1940  143.6730 C   0  0  0  0  0  0  0  0  0  0  0  0
  183.7930  178.0650  139.2030 C   0  0  0  0  0  2  0  0  0  0  0  0
  182.7610  179.3110  144.2010 C   0  0  0  0  0  3  0  0  0  0  0  0
  184.6210  179.0000  140.0800 C   0  0  0  0  0  2  0  0  0  0  0  0
  184.1230  179.0390  141.5360 C   0  0  2  0  0  3  0  0  0  0  0  0
  181.8770  178.6670  140.5350 N   0  0  0  0  0  0  0  0  0  0  0  0
  182.3540  178.4440  139.3600 C   0  0  0  0  0  3  0  0  0  0  0  0
  183.9880  178.8810  144.5200 C   0  0  0  0  0  3  0  0  0  0  0  0
  182.0640  179.1820  142.9110 C   0  0  0  0  0  0  0  0  0  0  0  0
  180.8900  179.6290  142.8250 O   0  0  0  0  0  0  0  0  0  0  0  0
  189.8220  178.3370  144.4930 C   0  0  0  0  0  2  0  0  0  0  0  0
  191.2160  178.0890  144.8280 N   0  0  0  0  0  2  0  0  0  0  0  0
  191.3020  176.7220  145.3180 C   0  0  0  0  0  2  0  0  0  0  0  0
  190.9470  177.1230  147.7290 C   0  0  0  0  0  1  0  0  0  0  0  0
  191.9590  176.6870  146.6910 C   0  0  1  0  0  3  0  0  0  0  0  0
  192.9920  175.2540  148.3050 O   0  0  0  0  0  1  0  0  0  0  0  0
  192.4340  175.2820  147.0260 C   0  0  0  0  0  2  0  0  0  0  0  0
  2  6  2  0  0  0  0
  2  4  1  0  0  0  0
  3 19  1  6  0  0  0
  3  1  1  0  0  0  0
  4  9  1  6  0  0  0
  4  5  1  0  0  0  0
  5  1  1  0  0  0  0
  6  3  1  0  0  0  0
  7  9  2  0  0  0  0
  8 14  1  6  0  0  0
  8 17  1  0  0  0  0
  9 16  1  0  0  0  0
 10 15  1  0  0  0  0
 10 12  1  0  0  0  0
 11 16  2  0  0  0  0
 13 12  1  6  0  0  0
 13  8  1  0  0  0  0
 13  7  1  0  0  0  0
 15 14  2  0  0  0  0
 17 11  1  0  0  0  0
 18 17  2  0  0  0  0
 19 20  1  0  0  0  0
 20 21  1  0  0  0  0
 21 23  1  0  0  0  0
 23 25  1  0  0  0  0
 23 22  1  1  0  0  0
 25 24  1  0  0  0  0
M  END
>  <MODEL>
9

>  <REMARK>
 VINA RESULT:      -6.9      3.057      4.468
  Name = 
  6 active torsions:
  status: ('A' for Active; 'I' for Inactive)
    1  A    between atoms: C_1  and  C_9
    2  A    between atoms: C_1  and  N_15
    3  A    between atoms: C_5  and  N_15
    4  A    between atoms: C_5  and  C_17
    5  A    between atoms: C_8  and  C_17
    6  A    between atoms: C_11  and  C_12
                            x       y       z     vdW  Elec       q    Type
                         _______ _______ _______ _____ _____    ______ ____

>  <TORSDO>
F 6

$$$$
