=
 OpenBabel10222415143D

 34 36  0  0  1  0  0  0  0  0999 V2000
  186.7670  178.9880  141.5740 C   0  0  2  0  0  3  0  0  0  0  0  0
  188.1700  178.3650  140.6050 S   0  0  0  0  0  0  0  0  0  0  0  0
  186.4510  177.9850  142.6670 C   0  0  1  0  0  3  0  0  0  0  0  0
  187.7630  177.3930  143.1480 C   0  0  1  0  0  3  0  0  0  0  0  0
  187.5360  176.0040  143.7130 C   0  0  0  0  0  1  0  0  0  0  0  0
  188.7460  177.3260  141.9860 C   0  0  2  0  0  3  0  0  0  0  0  0
  185.6780  178.6120  143.7930 C   0  0  0  0  0  0  0  0  0  0  0  0
  185.9350  178.1730  145.0320 C   0  0  0  0  0  3  0  0  0  0  0  0
  185.3120  178.6420  146.2830 C   0  0  0  0  0  0  0  0  0  0  0  0
  185.9500  179.6740  147.0240 N   0  0  0  0  0  1  0  0  0  0  0  0
  184.2360  178.1500  146.7110 O   0  0  0  0  0  0  0  0  0  0  0  0
  184.6920  179.7160  143.5190 C   0  0  0  0  0  2  0  0  0  0  0  0
  182.3790  179.0820  144.2660 C   0  0  0  0  0  3  0  0  0  0  0  0
  183.3270  179.1800  143.2400 C   0  0  0  0  0  0  0  0  0  0  0  0
  180.7540  178.2270  142.6860 C   0  0  0  0  0  0  0  0  0  0  0  0
  181.7000  178.3220  141.6620 C   0  0  0  0  0  3  0  0  0  0  0  0
  181.0940  178.6050  143.9890 C   0  0  0  0  0  3  0  0  0  0  0  0
  179.5090  177.7670  142.4170 F   0  0  0  0  0  0  0  0  0  0  0  0
  182.9850  178.7990  141.9380 C   0  0  0  0  0  3  0  0  0  0  0  0
  190.1250  177.8000  142.4250 C   0  0  0  0  0  2  0  0  0  0  0  0
  190.0640  178.5810  143.7310 C   0  0  0  0  0  2  0  0  0  0  0  0
  191.1430  178.1300  144.7060 C   0  0  0  0  0  2  0  0  0  0  0  0
  191.9440  175.9890  145.5470 N   0  0  0  0  0  2  0  0  0  0  0  0
  190.7680  176.8160  145.3790 C   0  0  1  0  0  3  0  0  0  0  0  0
  190.6170  177.0200  146.7900 C   0  0  0  0  0  2  0  0  0  0  0  0
  192.4510  175.7450  148.0100 O   0  0  0  0  0  0  0  0  0  0  0  0
  191.8150  176.1550  147.0050 C   0  0  0  0  0  0  0  0  0  0  0  0
  185.6050  179.2630  140.7260 N   0  0  0  0  0  2  0  0  0  0  0  0
  185.8750  178.8240  139.4200 N   0  0  0  0  0  2  0  0  0  0  0  0
  184.6770  178.1540  138.9510 C   0  0  0  0  0  2  0  0  0  0  0  0
  184.7790  177.9310  137.5770 O   0  0  0  0  0  0  0  0  0  0  0  0
  183.4240  176.1080  137.7650 O   0  0  0  0  0  1  0  0  0  0  0  0
  183.5480  177.3820  137.2120 C   0  0  1  0  0  3  0  0  0  0  0  0
  182.4290  178.2650  137.7260 C   0  0  0  0  0  1  0  0  0  0  0  0
  1 28  1  6  0  0  0
  1  3  1  0  0  0  0
  2  1  1  0  0  0  0
  2  6  1  0  0  0  0
  3  4  1  0  0  0  0
  3  7  1  1  0  0  0
  4  5  1  6  0  0  0
  6 20  1  1  0  0  0
  6  4  1  0  0  0  0
  7  8  2  0  0  0  0
  8  9  1  0  0  0  0
  9 11  2  0  0  0  0
  9 10  1  0  0  0  0
 12  7  1  0  0  0  0
 14 12  1  0  0  0  0
 14 13  2  0  0  0  0
 15 17  2  0  0  0  0
 16 19  2  0  0  0  0
 16 15  1  0  0  0  0
 17 13  1  0  0  0  0
 18 15  1  0  0  0  0
 19 14  1  0  0  0  0
 20 21  1  0  0  0  0
 21 22  1  0  0  0  0
 23 27  1  0  0  0  0
 24 22  1  6  0  0  0
 24 23  1  0  0  0  0
 24 25  1  0  0  0  0
 25 27  1  0  0  0  0
 27 26  2  0  0  0  0
 29 28  1  0  0  0  0
 30 29  1  0  0  0  0
 31 30  1  0  0  0  0
 33 31  1  0  0  0  0
 33 34  1  1  0  0  0
 33 32  1  0  0  0  0
M  END
>  <MODEL>
1

>  <REMARK>
 VINA RESULT:      -7.6      0.000      0.000
  Name = 
  13 active torsions:
  status: ('A' for Active; 'I' for Inactive)
    1  A    between atoms: C_2  and  C_21
    2  A    between atoms: C_2  and  C_34
    3  A    between atoms: C_3  and  C_19
    4  A    between atoms: C_3  and  C_30
    5  A    between atoms: C_4  and  C_30
    6  A    between atoms: C_5  and  C_28
    7  A    between atoms: C_6  and  N_9
    8  A    between atoms: N_9  and  N_29
    9  A    between atoms: C_12  and  C_18
   10  A    between atoms: C_15  and  O_25
   11  A    between atoms: C_18  and  C_21
   12  A    between atoms: O_25  and  C_26
   13  A    between atoms: C_26  and  N_29
                            x       y       z     vdW  Elec       q    Type
                         _______ _______ _______ _____ _____    ______ ____

>  <TORSDO>
F 13

$$$$
=
 OpenBabel10222415143D

 34 36  0  0  1  0  0  0  0  0999 V2000
  186.8650  178.2830  140.1960 C   0  0  2  0  0  3  0  0  0  0  0  0
  185.2870  178.7720  139.4410 S   0  0  0  0  0  0  0  0  0  0  0  0
  186.8450  178.6840  141.6590 C   0  0  1  0  0  3  0  0  0  0  0  0
  185.4320  178.4900  142.1750 C   0  0  1  0  0  3  0  0  0  0  0  0
  185.1660  179.4250  143.3390 C   0  0  0  0  0  1  0  0  0  0  0  0
  184.4380  178.7630  141.0530 C   0  0  2  0  0  3  0  0  0  0  0  0
  187.8440  177.9030  142.4640 C   0  0  0  0  0  0  0  0  0  0  0  0
  189.1360  178.2200  142.3130 C   0  0  0  0  0  3  0  0  0  0  0  0
  190.2850  177.6010  142.9990 C   0  0  0  0  0  0  0  0  0  0  0  0
  190.5810  176.2330  142.7460 N   0  0  0  0  0  1  0  0  0  0  0  0
  191.0050  178.2500  143.8020 O   0  0  0  0  0  0  0  0  0  0  0  0
  187.3840  176.8390  143.4260 C   0  0  0  0  0  2  0  0  0  0  0  0
  186.5010  177.9740  145.4860 C   0  0  0  0  0  3  0  0  0  0  0  0
  187.5330  177.2770  144.8450 C   0  0  0  0  0  0  0  0  0  0  0  0
  187.8060  178.0380  147.5250 C   0  0  0  0  0  0  0  0  0  0  0  0
  188.8370  177.3440  146.8860 C   0  0  0  0  0  3  0  0  0  0  0  0
  186.6380  178.3550  146.8240 C   0  0  0  0  0  3  0  0  0  0  0  0
  187.9380  178.4050  148.8220 F   0  0  0  0  0  0  0  0  0  0  0  0
  188.7010  176.9630  145.5480 C   0  0  0  0  0  3  0  0  0  0  0  0
  183.3480  177.7000  141.0350 C   0  0  0  0  0  2  0  0  0  0  0  0
  181.9570  178.3180  140.9650 C   0  0  0  0  0  2  0  0  0  0  0  0
  181.5250  178.8810  142.3120 C   0  0  0  0  0  2  0  0  0  0  0  0
  179.8400  180.5850  142.7480 N   0  0  0  0  0  2  0  0  0  0  0  0
  180.0390  179.2170  142.3210 C   0  0  1  0  0  3  0  0  0  0  0  0
  179.5950  179.4890  140.9850 C   0  0  0  0  0  2  0  0  0  0  0  0
  178.9310  181.9410  140.8190 O   0  0  0  0  0  0  0  0  0  0  0  0
  179.3580  180.9060  141.3930 C   0  0  0  0  0  0  0  0  0  0  0  0
  188.0060  178.8570  139.4820 N   0  0  0  0  0  2  0  0  0  0  0  0
  187.8840  178.5680  138.1130 N   0  0  0  0  0  2  0  0  0  0  0  0
  189.1310  177.9490  137.7060 C   0  0  0  0  0  2  0  0  0  0  0  0
  188.9640  176.5650  137.6490 O   0  0  0  0  0  0  0  0  0  0  0  0
  191.1030  176.4400  136.8720 O   0  0  0  0  0  1  0  0  0  0  0  0
  190.2360  176.0430  137.8890 C   0  0  1  0  0  3  0  0  0  0  0  0
  190.7510  176.5560  139.2190 C   0  0  0  0  0  1  0  0  0  0  0  0
  1 28  1  6  0  0  0
  1  3  1  0  0  0  0
  2  1  1  0  0  0  0
  2  6  1  0  0  0  0
  3  4  1  0  0  0  0
  3  7  1  1  0  0  0
  4  5  1  1  0  0  0
  6 20  1  6  0  0  0
  6  4  1  0  0  0  0
  7 12  1  0  0  0  0
  8  7  2  0  0  0  0
  8  9  1  0  0  0  0
  9 11  2  0  0  0  0
 10  9  1  0  0  0  0
 12 14  1  0  0  0  0
 13 17  1  0  0  0  0
 14 13  2  0  0  0  0
 14 19  1  0  0  0  0
 15 18  1  0  0  0  0
 16 15  1  0  0  0  0
 17 15  2  0  0  0  0
 19 16  2  0  0  0  0
 21 20  1  0  0  0  0
 21 22  1  0  0  0  0
 24 22  1  6  0  0  0
 24 23  1  0  0  0  0
 25 27  1  0  0  0  0
 25 24  1  0  0  0  0
 26 27  2  0  0  0  0
 27 23  1  0  0  0  0
 29 28  1  0  0  0  0
 30 29  1  0  0  0  0
 31 30  1  0  0  0  0
 31 33  1  0  0  0  0
 32 33  1  0  0  0  0
 33 34  1  1  0  0  0
M  END
>  <MODEL>
2

>  <REMARK>
 VINA RESULT:      -7.3      3.578      7.754
  Name = 
  13 active torsions:
  status: ('A' for Active; 'I' for Inactive)
    1  A    between atoms: C_2  and  C_21
    2  A    between atoms: C_2  and  C_34
    3  A    between atoms: C_3  and  C_19
    4  A    between atoms: C_3  and  C_30
    5  A    between atoms: C_4  and  C_30
    6  A    between atoms: C_5  and  C_28
    7  A    between atoms: C_6  and  N_9
    8  A    between atoms: N_9  and  N_29
    9  A    between atoms: C_12  and  C_18
   10  A    between atoms: C_15  and  O_25
   11  A    between atoms: C_18  and  C_21
   12  A    between atoms: O_25  and  C_26
   13  A    between atoms: C_26  and  N_29
                            x       y       z     vdW  Elec       q    Type
                         _______ _______ _______ _____ _____    ______ ____

>  <TORSDO>
F 13

$$$$
=
 OpenBabel10222415143D

 34 36  0  0  1  0  0  0  0  0999 V2000
  188.3070  178.3110  141.2060 C   0  0  2  0  0  3  0  0  0  0  0  0
  189.3010  177.7950  139.7780 S   0  0  0  0  0  0  0  0  0  0  0  0
  188.4410  177.2610  142.2940 C   0  0  1  0  0  3  0  0  0  0  0  0
  189.8620  176.7310  142.2540 C   0  0  1  0  0  3  0  0  0  0  0  0
  189.9090  175.3170  142.7990 C   0  0  0  0  0  1  0  0  0  0  0  0
  190.3720  176.7510  140.8180 C   0  0  2  0  0  3  0  0  0  0  0  0
  188.0920  177.8130  143.6470 C   0  0  0  0  0  0  0  0  0  0  0  0
  186.8770  177.5250  144.1310 C   0  0  0  0  0  3  0  0  0  0  0  0
  186.3190  177.9450  145.4300 C   0  0  0  0  0  0  0  0  0  0  0  0
  185.7370  179.2380  145.5410 N   0  0  0  0  0  1  0  0  0  0  0  0
  186.3500  177.1930  146.4380 O   0  0  0  0  0  0  0  0  0  0  0  0
  189.0970  178.6200  144.4250 C   0  0  0  0  0  2  0  0  0  0  0  0
  191.1490  177.3030  145.0300 C   0  0  0  0  0  3  0  0  0  0  0  0
  189.8730  177.7670  145.3740 C   0  0  0  0  0  0  0  0  0  0  0  0
  191.3380  176.2190  147.1880 C   0  0  0  0  0  0  0  0  0  0  0  0
  190.0640  176.6810  147.5310 C   0  0  0  0  0  3  0  0  0  0  0  0
  191.8790  176.5290  145.9370 C   0  0  0  0  0  3  0  0  0  0  0  0
  192.0460  175.4710  148.0670 F   0  0  0  0  0  0  0  0  0  0  0  0
  189.3320  177.4540  146.6250 C   0  0  0  0  0  3  0  0  0  0  0  0
  191.7960  177.2900  140.7650 C   0  0  0  0  0  2  0  0  0  0  0  0
  192.3390  177.3110  139.3420 C   0  0  0  0  0  2  0  0  0  0  0  0
  192.1780  175.9600  138.6600 C   0  0  0  0  0  2  0  0  0  0  0  0
  193.9500  176.7350  137.1780 N   0  0  0  0  0  2  0  0  0  0  0  0
  192.7080  175.9930  137.2320 C   0  0  1  0  0  3  0  0  0  0  0  0
  193.3500  174.7490  136.9230 C   0  0  0  0  0  2  0  0  0  0  0  0
  195.8390  175.1650  136.5910 O   0  0  0  0  0  0  0  0  0  0  0  0
  194.6480  175.4820  136.8400 C   0  0  0  0  0  0  0  0  0  0  0  0
  186.9100  178.5440  140.8360 N   0  0  0  0  0  2  0  0  0  0  0  0
  186.8020  178.5620  139.4360 N   0  0  0  0  0  2  0  0  0  0  0  0
  185.3850  178.6000  139.1280 C   0  0  0  0  0  2  0  0  0  0  0  0
  184.7590  179.5410  139.9460 O   0  0  0  0  0  0  0  0  0  0  0  0
  183.3070  177.8550  139.4550 O   0  0  0  0  0  1  0  0  0  0  0  0
  183.5200  178.9760  140.2550 C   0  0  1  0  0  3  0  0  0  0  0  0
  183.5010  178.5640  141.7140 C   0  0  0  0  0  1  0  0  0  0  0  0
  1 28  1  6  0  0  0
  1  3  1  0  0  0  0
  2  6  1  0  0  0  0
  2  1  1  0  0  0  0
  3  7  1  1  0  0  0
  4  3  1  0  0  0  0
  4  5  1  6  0  0  0
  6 20  1  1  0  0  0
  6  4  1  0  0  0  0
  7  8  2  0  0  0  0
  7 12  1  0  0  0  0
  8  9  1  0  0  0  0
  9 10  1  0  0  0  0
  9 11  2  0  0  0  0
 12 14  1  0  0  0  0
 13 14  2  0  0  0  0
 13 17  1  0  0  0  0
 14 19  1  0  0  0  0
 15 16  1  0  0  0  0
 15 18  1  0  0  0  0
 17 15  2  0  0  0  0
 19 16  2  0  0  0  0
 21 20  1  0  0  0  0
 22 21  1  0  0  0  0
 23 24  1  0  0  0  0
 24 22  1  1  0  0  0
 25 24  1  0  0  0  0
 26 27  2  0  0  0  0
 27 25  1  0  0  0  0
 27 23  1  0  0  0  0
 29 28  1  0  0  0  0
 30 29  1  0  0  0  0
 30 31  1  0  0  0  0
 31 33  1  0  0  0  0
 32 33  1  0  0  0  0
 33 34  1  1  0  0  0
M  END
>  <MODEL>
3

>  <REMARK>
 VINA RESULT:      -7.3      4.343      6.539
  Name = 
  13 active torsions:
  status: ('A' for Active; 'I' for Inactive)
    1  A    between atoms: C_2  and  C_21
    2  A    between atoms: C_2  and  C_34
    3  A    between atoms: C_3  and  C_19
    4  A    between atoms: C_3  and  C_30
    5  A    between atoms: C_4  and  C_30
    6  A    between atoms: C_5  and  C_28
    7  A    between atoms: C_6  and  N_9
    8  A    between atoms: N_9  and  N_29
    9  A    between atoms: C_12  and  C_18
   10  A    between atoms: C_15  and  O_25
   11  A    between atoms: C_18  and  C_21
   12  A    between atoms: O_25  and  C_26
   13  A    between atoms: C_26  and  N_29
                            x       y       z     vdW  Elec       q    Type
                         _______ _______ _______ _____ _____    ______ ____

>  <TORSDO>
F 13

$$$$
=
 OpenBabel10222415143D

 34 36  0  0  1  0  0  0  0  0999 V2000
  187.5630  178.2950  141.6920 C   0  0  2  0  0  3  0  0  0  0  0  0
  186.8710  178.4680  140.0220 S   0  0  0  0  0  0  0  0  0  0  0  0
  188.7130  177.3070  141.6400 C   0  0  1  0  0  3  0  0  0  0  0  0
  189.4310  177.5000  140.3170 C   0  0  1  0  0  3  0  0  0  0  0  0
  190.1170  176.2130  139.9010 C   0  0  0  0  0  1  0  0  0  0  0  0
  188.4280  177.9210  139.2500 C   0  0  2  0  0  3  0  0  0  0  0  0
  189.6440  177.4720  142.8070 C   0  0  0  0  0  0  0  0  0  0  0  0
  190.3810  178.5890  142.8500 C   0  0  0  0  0  3  0  0  0  0  0  0
  191.3490  178.9700  143.8940 C   0  0  0  0  0  0  0  0  0  0  0  0
  191.1790  180.2100  144.5700 N   0  0  0  0  0  1  0  0  0  0  0  0
  192.3210  178.2300  144.1980 O   0  0  0  0  0  0  0  0  0  0  0  0
  189.6980  176.4300  143.8930 C   0  0  0  0  0  2  0  0  0  0  0  0
  187.8790  177.4450  145.2980 C   0  0  0  0  0  3  0  0  0  0  0  0
  189.1880  176.9600  145.1920 C   0  0  0  0  0  0  0  0  0  0  0  0
  188.2320  177.8960  147.6510 C   0  0  0  0  0  0  0  0  0  0  0  0
  189.5400  177.4140  147.5470 C   0  0  0  0  0  3  0  0  0  0  0  0
  187.4030  177.9130  146.5260 C   0  0  0  0  0  3  0  0  0  0  0  0
  187.7700  178.3470  148.8410 F   0  0  0  0  0  0  0  0  0  0  0  0
  190.0180  176.9460  146.3190 C   0  0  0  0  0  3  0  0  0  0  0  0
  188.9910  179.0570  138.4070 C   0  0  0  0  0  2  0  0  0  0  0  0
  188.9310  178.7390  136.9190 C   0  0  0  0  0  2  0  0  0  0  0  0
  187.5010  178.7610  136.3970 C   0  0  0  0  0  2  0  0  0  0  0  0
  188.0750  176.4220  136.0310 N   0  0  0  0  0  2  0  0  0  0  0  0
  187.1660  177.4790  135.6440 C   0  0  1  0  0  3  0  0  0  0  0  0
  186.0400  176.8380  136.2560 C   0  0  0  0  0  2  0  0  0  0  0  0
  186.7990  174.6310  137.2740 O   0  0  0  0  0  0  0  0  0  0  0  0
  186.9430  175.7180  136.6570 C   0  0  0  0  0  0  0  0  0  0  0  0
  186.5410  177.9000  142.6630 N   0  0  0  0  0  2  0  0  0  0  0  0
  185.2700  178.1020  142.0990 N   0  0  0  0  0  2  0  0  0  0  0  0
  184.6650  179.2050  142.8200 C   0  0  0  0  0  2  0  0  0  0  0  0
  185.0660  179.1610  144.1560 O   0  0  0  0  0  0  0  0  0  0  0  0
  184.0090  179.0110  146.1690 O   0  0  0  0  0  1  0  0  0  0  0  0
  183.9810  178.6050  144.8360 C   0  0  1  0  0  3  0  0  0  0  0  0
  182.6900  179.0720  144.1950 C   0  0  0  0  0  1  0  0  0  0  0  0
  1 28  1  1  0  0  0
  2  1  1  0  0  0  0
  3  1  1  0  0  0  0
  3  7  1  1  0  0  0
  4  5  1  6  0  0  0
  4  3  1  0  0  0  0
  6 20  1  1  0  0  0
  6  2  1  0  0  0  0
  6  4  1  0  0  0  0
  7  8  2  0  0  0  0
  7 12  1  0  0  0  0
  8  9  1  0  0  0  0
  9 11  2  0  0  0  0
  9 10  1  0  0  0  0
 12 14  1  0  0  0  0
 13 17  1  0  0  0  0
 14 13  2  0  0  0  0
 14 19  1  0  0  0  0
 15 18  1  0  0  0  0
 16 15  1  0  0  0  0
 17 15  2  0  0  0  0
 19 16  2  0  0  0  0
 21 20  1  0  0  0  0
 22 21  1  0  0  0  0
 23 27  1  0  0  0  0
 24 23  1  0  0  0  0
 24 25  1  0  0  0  0
 24 22  1  1  0  0  0
 25 27  1  0  0  0  0
 27 26  2  0  0  0  0
 29 28  1  0  0  0  0
 29 30  1  0  0  0  0
 30 31  1  0  0  0  0
 31 33  1  0  0  0  0
 33 34  1  6  0  0  0
 33 32  1  0  0  0  0
M  END
>  <MODEL>
4

>  <REMARK>
 VINA RESULT:      -7.2      3.200      7.259
  Name = 
  13 active torsions:
  status: ('A' for Active; 'I' for Inactive)
    1  A    between atoms: C_2  and  C_21
    2  A    between atoms: C_2  and  C_34
    3  A    between atoms: C_3  and  C_19
    4  A    between atoms: C_3  and  C_30
    5  A    between atoms: C_4  and  C_30
    6  A    between atoms: C_5  and  C_28
    7  A    between atoms: C_6  and  N_9
    8  A    between atoms: N_9  and  N_29
    9  A    between atoms: C_12  and  C_18
   10  A    between atoms: C_15  and  O_25
   11  A    between atoms: C_18  and  C_21
   12  A    between atoms: O_25  and  C_26
   13  A    between atoms: C_26  and  N_29
                            x       y       z     vdW  Elec       q    Type
                         _______ _______ _______ _____ _____    ______ ____

>  <TORSDO>
F 13

$$$$
=
 OpenBabel10222415143D

 34 36  0  0  1  0  0  0  0  0999 V2000
  188.2080  177.6990  139.4960 C   0  0  2  0  0  3  0  0  0  0  0  0
  187.9510  178.2650  141.2020 S   0  0  0  0  0  0  0  0  0  0  0  0
  189.6980  177.5470  139.2560 C   0  0  1  0  0  3  0  0  0  0  0  0
  190.3270  177.0420  140.5410 C   0  0  1  0  0  3  0  0  0  0  0  0
  191.7800  177.4690  140.6170 C   0  0  0  0  0  1  0  0  0  0  0  0
  189.5600  177.5970  141.7350 C   0  0  2  0  0  3  0  0  0  0  0  0
  189.9860  176.6330  138.0990 C   0  0  0  0  0  0  0  0  0  0  0  0
  189.3980  175.4300  138.1070 C   0  0  0  0  0  3  0  0  0  0  0  0
  189.5240  174.3770  137.0830 C   0  0  0  0  0  0  0  0  0  0  0  0
  188.7700  174.4920  135.8830 N   0  0  0  0  0  1  0  0  0  0  0  0
  190.2760  173.3820  137.2460 O   0  0  0  0  0  0  0  0  0  0  0  0
  190.8700  177.0890  136.9680 C   0  0  0  0  0  2  0  0  0  0  0  0
  192.8880  175.9890  137.9810 C   0  0  0  0  0  3  0  0  0  0  0  0
  192.0980  176.2490  136.8540 C   0  0  0  0  0  0  0  0  0  0  0  0
  194.3650  174.6230  136.6330 C   0  0  0  0  0  0  0  0  0  0  0  0
  193.5790  174.8840  135.5070 C   0  0  0  0  0  3  0  0  0  0  0  0
  194.0200  175.1770  137.8700 C   0  0  0  0  0  3  0  0  0  0  0  0
  195.4620  173.8350  136.5260 F   0  0  0  0  0  0  0  0  0  0  0  0
  192.4460  175.6960  135.6180 C   0  0  0  0  0  3  0  0  0  0  0  0
  189.3280  176.5080  142.7730 C   0  0  0  0  0  2  0  0  0  0  0  0
  189.8710  176.9040  144.1400 C   0  0  0  0  0  2  0  0  0  0  0  0
  188.9790  177.9330  144.8220 C   0  0  0  0  0  2  0  0  0  0  0  0
  187.4590  177.7560  146.7170 N   0  0  0  0  0  2  0  0  0  0  0  0
  187.7110  177.2900  145.3710 C   0  0  1  0  0  3  0  0  0  0  0  0
  186.5590  177.9580  144.8410 C   0  0  0  0  0  2  0  0  0  0  0  0
  185.3510  179.1480  146.7390 O   0  0  0  0  0  0  0  0  0  0  0  0
  186.2540  178.4440  146.2200 C   0  0  0  0  0  0  0  0  0  0  0  0
  187.5820  178.6000  138.5280 N   0  0  0  0  0  2  0  0  0  0  0  0
  186.5680  177.9090  137.8450 N   0  0  0  0  0  2  0  0  0  0  0  0
  185.3290  178.6130  138.1170 C   0  0  0  0  0  2  0  0  0  0  0  0
  184.7920  178.1570  139.3220 O   0  0  0  0  0  0  0  0  0  0  0  0
  184.3750  180.3870  139.1120 O   0  0  0  0  0  1  0  0  0  0  0  0
  184.0290  179.2240  139.7980 C   0  0  1  0  0  3  0  0  0  0  0  0
  182.5580  178.9310  139.5820 C   0  0  0  0  0  1  0  0  0  0  0  0
  1 28  1  6  0  0  0
  1  2  1  0  0  0  0
  2  6  1  0  0  0  0
  3  7  1  6  0  0  0
  3  1  1  0  0  0  0
  3  4  1  0  0  0  0
  4  5  1  1  0  0  0
  4  6  1  0  0  0  0
  6 20  1  1  0  0  0
  7  8  2  0  0  0  0
  9 11  2  0  0  0  0
  9  8  1  0  0  0  0
 10  9  1  0  0  0  0
 12  7  1  0  0  0  0
 14 12  1  0  0  0  0
 14 13  2  0  0  0  0
 15 17  2  0  0  0  0
 16 19  2  0  0  0  0
 16 15  1  0  0  0  0
 17 13  1  0  0  0  0
 18 15  1  0  0  0  0
 19 14  1  0  0  0  0
 20 21  1  0  0  0  0
 21 22  1  0  0  0  0
 24 22  1  6  0  0  0
 24 23  1  0  0  0  0
 25 24  1  0  0  0  0
 25 27  1  0  0  0  0
 27 23  1  0  0  0  0
 27 26  2  0  0  0  0
 29 30  1  0  0  0  0
 29 28  1  0  0  0  0
 30 31  1  0  0  0  0
 31 33  1  0  0  0  0
 32 33  1  0  0  0  0
 33 34  1  6  0  0  0
M  END
>  <MODEL>
5

>  <REMARK>
 VINA RESULT:      -7.2      5.045      8.231
  Name = 
  13 active torsions:
  status: ('A' for Active; 'I' for Inactive)
    1  A    between atoms: C_2  and  C_21
    2  A    between atoms: C_2  and  C_34
    3  A    between atoms: C_3  and  C_19
    4  A    between atoms: C_3  and  C_30
    5  A    between atoms: C_4  and  C_30
    6  A    between atoms: C_5  and  C_28
    7  A    between atoms: C_6  and  N_9
    8  A    between atoms: N_9  and  N_29
    9  A    between atoms: C_12  and  C_18
   10  A    between atoms: C_15  and  O_25
   11  A    between atoms: C_18  and  C_21
   12  A    between atoms: O_25  and  C_26
   13  A    between atoms: C_26  and  N_29
                            x       y       z     vdW  Elec       q    Type
                         _______ _______ _______ _____ _____    ______ ____

>  <TORSDO>
F 13

$$$$
=
 OpenBabel10222415143D

 34 36  0  0  1  0  0  0  0  0999 V2000
  186.3130  178.2850  141.5690 C   0  0  2  0  0  3  0  0  0  0  0  0
  185.4560  178.4310  139.9750 S   0  0  0  0  0  0  0  0  0  0  0  0
  185.3690  178.7360  142.6690 C   0  0  1  0  0  3  0  0  0  0  0  0
  183.9680  178.2960  142.2870 C   0  0  1  0  0  3  0  0  0  0  0  0
  182.9400  179.2100  142.9240 C   0  0  0  0  0  1  0  0  0  0  0  0
  183.8210  178.3260  140.7710 C   0  0  2  0  0  3  0  0  0  0  0  0
  185.7760  178.1940  144.0100 C   0  0  0  0  0  0  0  0  0  0  0  0
  185.4970  178.9440  145.0840 C   0  0  0  0  0  3  0  0  0  0  0  0
  185.7920  178.6180  146.4910 C   0  0  0  0  0  0  0  0  0  0  0  0
  184.7190  178.2490  147.3500 N   0  0  0  0  0  1  0  0  0  0  0  0
  186.9630  178.6610  146.9490 O   0  0  0  0  0  0  0  0  0  0  0  0
  186.4320  176.8430  144.1200 C   0  0  0  0  0  2  0  0  0  0  0  0
  188.6250  177.9390  144.6670 C   0  0  0  0  0  3  0  0  0  0  0  0
  187.9160  176.9380  143.9910 C   0  0  0  0  0  0  0  0  0  0  0  0
  190.7040  177.0640  143.7840 C   0  0  0  0  0  0  0  0  0  0  0  0
  189.9970  176.0660  143.1080 C   0  0  0  0  0  3  0  0  0  0  0  0
  190.0180  178.0010  144.5620 C   0  0  0  0  0  3  0  0  0  0  0  0
  192.0540  177.1230  143.6850 F   0  0  0  0  0  0  0  0  0  0  0  0
  188.6040  176.0030  143.2110 C   0  0  0  0  0  3  0  0  0  0  0  0
  183.1070  177.0750  140.2790 C   0  0  0  0  0  2  0  0  0  0  0  0
  181.7020  177.3850  139.7790 C   0  0  0  0  0  2  0  0  0  0  0  0
  181.5950  178.8080  139.2500 C   0  0  0  0  0  2  0  0  0  0  0  0
  179.7680  178.9580  140.8540 N   0  0  0  0  0  2  0  0  0  0  0  0
  180.2330  179.4160  139.5630 C   0  0  1  0  0  3  0  0  0  0  0  0
  180.3960  180.7660  140.0150 C   0  0  0  0  0  2  0  0  0  0  0  0
  179.6920  180.9080  142.4570 O   0  0  0  0  0  0  0  0  0  0  0  0
  179.9020  180.3360  141.3570 C   0  0  0  0  0  0  0  0  0  0  0  0
  187.5690  179.0380  141.5790 N   0  0  0  0  0  2  0  0  0  0  0  0
  188.1300  179.0100  140.2920 N   0  0  0  0  0  2  0  0  0  0  0  0
  189.3000  178.1570  140.3660 C   0  0  0  0  0  2  0  0  0  0  0  0
  189.1910  177.1360  139.4210 O   0  0  0  0  0  0  0  0  0  0  0  0
  190.5420  175.5770  138.4530 O   0  0  0  0  0  1  0  0  0  0  0  0
  190.3520  176.3780  139.5780 C   0  0  1  0  0  3  0  0  0  0  0  0
  191.5410  177.3020  139.7450 C   0  0  0  0  0  1  0  0  0  0  0  0
  1 28  1  6  0  0  0
  1  3  1  0  0  0  0
  2  6  1  0  0  0  0
  2  1  1  0  0  0  0
  3  7  1  1  0  0  0
  4  3  1  0  0  0  0
  4  5  1  1  0  0  0
  6 20  1  6  0  0  0
  6  4  1  0  0  0  0
  7 12  1  0  0  0  0
  7  8  2  0  0  0  0
  8  9  1  0  0  0  0
  9 11  2  0  0  0  0
  9 10  1  0  0  0  0
 14 12  1  0  0  0  0
 14 13  2  0  0  0  0
 15 17  2  0  0  0  0
 16 19  2  0  0  0  0
 16 15  1  0  0  0  0
 17 13  1  0  0  0  0
 18 15  1  0  0  0  0
 19 14  1  0  0  0  0
 21 20  1  0  0  0  0
 22 21  1  0  0  0  0
 23 27  1  0  0  0  0
 24 22  1  1  0  0  0
 24 25  1  0  0  0  0
 24 23  1  0  0  0  0
 25 27  1  0  0  0  0
 27 26  2  0  0  0  0
 29 30  1  0  0  0  0
 29 28  1  0  0  0  0
 31 33  1  0  0  0  0
 31 30  1  0  0  0  0
 32 33  1  0  0  0  0
 33 34  1  6  0  0  0
M  END
>  <MODEL>
6

>  <REMARK>
 VINA RESULT:      -6.9      3.493      7.772
  Name = 
  13 active torsions:
  status: ('A' for Active; 'I' for Inactive)
    1  A    between atoms: C_2  and  C_21
    2  A    between atoms: C_2  and  C_34
    3  A    between atoms: C_3  and  C_19
    4  A    between atoms: C_3  and  C_30
    5  A    between atoms: C_4  and  C_30
    6  A    between atoms: C_5  and  C_28
    7  A    between atoms: C_6  and  N_9
    8  A    between atoms: N_9  and  N_29
    9  A    between atoms: C_12  and  C_18
   10  A    between atoms: C_15  and  O_25
   11  A    between atoms: C_18  and  C_21
   12  A    between atoms: O_25  and  C_26
   13  A    between atoms: C_26  and  N_29
                            x       y       z     vdW  Elec       q    Type
                         _______ _______ _______ _____ _____    ______ ____

>  <TORSDO>
F 13

$$$$
=
 OpenBabel10222415143D

 34 36  0  0  1  0  0  0  0  0999 V2000
  185.4530  178.2860  141.3690 C   0  0  2  0  0  3  0  0  0  0  0  0
  183.7680  178.9630  141.3690 S   0  0  0  0  0  0  0  0  0  0  0  0
  186.1550  178.7380  142.6360 C   0  0  1  0  0  3  0  0  0  0  0  0
  185.1290  178.7610  143.7530 C   0  0  1  0  0  3  0  0  0  0  0  0
  185.5340  179.7650  144.8150 C   0  0  0  0  0  1  0  0  0  0  0  0
  183.7650  179.1300  143.1830 C   0  0  2  0  0  3  0  0  0  0  0  0
  187.3230  177.8530  142.9720 C   0  0  0  0  0  0  0  0  0  0  0  0
  188.4880  178.1200  142.3690 C   0  0  0  0  0  3  0  0  0  0  0  0
  189.7610  177.4000  142.5460 C   0  0  0  0  0  0  0  0  0  0  0  0
  189.8430  176.0390  142.1420 N   0  0  0  0  0  1  0  0  0  0  0  0
  190.7720  177.9560  143.0480 O   0  0  0  0  0  0  0  0  0  0  0  0
  187.1740  176.7430  143.9790 C   0  0  0  0  0  2  0  0  0  0  0  0
  189.1150  177.1270  145.5270 C   0  0  0  0  0  3  0  0  0  0  0  0
  187.7320  177.1280  145.3090 C   0  0  0  0  0  0  0  0  0  0  0  0
  188.7620  177.9080  147.7920 C   0  0  0  0  0  0  0  0  0  0  0  0
  187.3810  177.9070  147.5770 C   0  0  0  0  0  3  0  0  0  0  0  0
  189.6290  177.5160  146.7670 C   0  0  0  0  0  3  0  0  0  0  0  0
  189.2600  178.2870  148.9930 F   0  0  0  0  0  0  0  0  0  0  0  0
  186.8660  177.5180  146.3360 C   0  0  0  0  0  3  0  0  0  0  0  0
  182.6830  178.2310  143.7640 C   0  0  0  0  0  2  0  0  0  0  0  0
  181.4680  179.0300  144.2180 C   0  0  0  0  0  2  0  0  0  0  0  0
  180.1660  178.3310  143.8500 C   0  0  0  0  0  2  0  0  0  0  0  0
  179.9340  180.4930  142.7520 N   0  0  0  0  0  2  0  0  0  0  0  0
  179.2690  179.2350  143.0150 C   0  0  1  0  0  3  0  0  0  0  0  0
  179.3190  178.8340  141.6400 C   0  0  0  0  0  2  0  0  0  0  0  0
  180.4280  180.6800  140.2820 O   0  0  0  0  0  0  0  0  0  0  0  0
  179.9920  180.1300  141.3250 C   0  0  0  0  0  0  0  0  0  0  0  0
  186.1900  178.6690  140.1640 N   0  0  0  0  0  2  0  0  0  0  0  0
  185.2930  178.7580  139.0860 N   0  0  0  0  0  2  0  0  0  0  0  0
  185.9860  178.2330  137.9250 C   0  0  0  0  0  2  0  0  0  0  0  0
  187.2680  178.7830  137.8630 O   0  0  0  0  0  0  0  0  0  0  0  0
  189.0580  178.5910  136.4660 O   0  0  0  0  0  1  0  0  0  0  0  0
  187.9900  177.9100  137.0470 C   0  0  1  0  0  3  0  0  0  0  0  0
  188.5200  176.7600  137.8800 C   0  0  0  0  0  1  0  0  0  0  0  0
  1 28  1  6  0  0  0
  1  3  1  0  0  0  0
  2  1  1  0  0  0  0
  2  6  1  0  0  0  0
  3  7  1  1  0  0  0
  3  4  1  0  0  0  0
  4  5  1  1  0  0  0
  6  4  1  0  0  0  0
  6 20  1  1  0  0  0
  7 12  1  0  0  0  0
  8  9  1  0  0  0  0
  8  7  2  0  0  0  0
  9 11  2  0  0  0  0
 10  9  1  0  0  0  0
 12 14  1  0  0  0  0
 13 17  1  0  0  0  0
 14 13  2  0  0  0  0
 14 19  1  0  0  0  0
 15 18  1  0  0  0  0
 16 15  1  0  0  0  0
 17 15  2  0  0  0  0
 19 16  2  0  0  0  0
 20 21  1  0  0  0  0
 22 21  1  0  0  0  0
 23 24  1  0  0  0  0
 24 22  1  1  0  0  0
 25 24  1  0  0  0  0
 26 27  2  0  0  0  0
 27 25  1  0  0  0  0
 27 23  1  0  0  0  0
 29 28  1  0  0  0  0
 30 29  1  0  0  0  0
 31 30  1  0  0  0  0
 32 33  1  0  0  0  0
 33 31  1  0  0  0  0
 33 34  1  1  0  0  0
M  END
>  <MODEL>
7

>  <REMARK>
 VINA RESULT:      -6.9      3.460      7.677
  Name = 
  13 active torsions:
  status: ('A' for Active; 'I' for Inactive)
    1  A    between atoms: C_2  and  C_21
    2  A    between atoms: C_2  and  C_34
    3  A    between atoms: C_3  and  C_19
    4  A    between atoms: C_3  and  C_30
    5  A    between atoms: C_4  and  C_30
    6  A    between atoms: C_5  and  C_28
    7  A    between atoms: C_6  and  N_9
    8  A    between atoms: N_9  and  N_29
    9  A    between atoms: C_12  and  C_18
   10  A    between atoms: C_15  and  O_25
   11  A    between atoms: C_18  and  C_21
   12  A    between atoms: O_25  and  C_26
   13  A    between atoms: C_26  and  N_29
                            x       y       z     vdW  Elec       q    Type
                         _______ _______ _______ _____ _____    ______ ____

>  <TORSDO>
F 13

$$$$
=
 OpenBabel10222415143D

 34 36  0  0  1  0  0  0  0  0999 V2000
  186.9710  178.2200  140.2970 C   0  0  2  0  0  3  0  0  0  0  0  0
  185.3730  178.6600  139.5550 S   0  0  0  0  0  0  0  0  0  0  0  0
  186.9590  178.6380  141.7560 C   0  0  1  0  0  3  0  0  0  0  0  0
  185.5570  178.4150  142.2910 C   0  0  1  0  0  3  0  0  0  0  0  0
  185.2810  179.3570  143.4470 C   0  0  0  0  0  1  0  0  0  0  0  0
  184.5440  178.6490  141.1770 C   0  0  2  0  0  3  0  0  0  0  0  0
  187.9860  177.8920  142.5580 C   0  0  0  0  0  0  0  0  0  0  0  0
  189.2670  178.2520  142.4020 C   0  0  0  0  0  3  0  0  0  0  0  0
  190.4380  177.6730  143.0840 C   0  0  0  0  0  0  0  0  0  0  0  0
  191.2250  178.5070  143.9250 N   0  0  0  0  0  1  0  0  0  0  0  0
  190.7600  176.4660  142.9370 O   0  0  0  0  0  0  0  0  0  0  0  0
  187.5660  176.8150  143.5230 C   0  0  0  0  0  2  0  0  0  0  0  0
  186.5600  177.8530  145.5770 C   0  0  0  0  0  3  0  0  0  0  0  0
  187.6640  177.2740  144.9400 C   0  0  0  0  0  0  0  0  0  0  0  0
  187.8500  178.0740  147.6150 C   0  0  0  0  0  0  0  0  0  0  0  0
  188.9530  177.4980  146.9800 C   0  0  0  0  0  3  0  0  0  0  0  0
  186.6540  178.2540  146.9130 C   0  0  0  0  0  3  0  0  0  0  0  0
  187.9400  178.4600  148.9100 F   0  0  0  0  0  0  0  0  0  0  0  0
  188.8600  177.0970  145.6430 C   0  0  0  0  0  3  0  0  0  0  0  0
  183.4800  177.5590  141.1850 C   0  0  0  0  0  2  0  0  0  0  0  0
  182.7430  177.4790  139.8550 C   0  0  0  0  0  2  0  0  0  0  0  0
  182.4570  176.0370  139.4580 C   0  0  0  0  0  2  0  0  0  0  0  0
  181.1980  174.8780  137.7240 N   0  0  0  0  0  2  0  0  0  0  0  0
  181.1240  175.9170  138.7280 C   0  0  1  0  0  3  0  0  0  0  0  0
  180.1950  175.1800  139.5330 C   0  0  0  0  0  2  0  0  0  0  0  0
  179.6690  172.9750  138.3750 O   0  0  0  0  0  0  0  0  0  0  0  0
  180.2290  174.0930  138.5090 C   0  0  0  0  0  0  0  0  0  0  0  0
  188.0900  178.8140  139.5630 N   0  0  0  0  0  2  0  0  0  0  0  0
  188.0990  178.3080  138.2530 N   0  0  0  0  0  2  0  0  0  0  0  0
  188.7460  177.0110  138.3140 C   0  0  0  0  0  2  0  0  0  0  0  0
  190.0740  177.1350  137.9010 O   0  0  0  0  0  0  0  0  0  0  0  0
  190.7200  174.9920  138.3250 O   0  0  0  0  0  1  0  0  0  0  0  0
  190.7940  176.3120  138.7670 C   0  0  1  0  0  3  0  0  0  0  0  0
  192.2440  176.7520  138.7950 C   0  0  0  0  0  1  0  0  0  0  0  0
  1 28  1  6  0  0  0
  1  3  1  0  0  0  0
  2  1  1  0  0  0  0
  2  6  1  0  0  0  0
  3  4  1  0  0  0  0
  3  7  1  1  0  0  0
  4  5  1  1  0  0  0
  6 20  1  6  0  0  0
  6  4  1  0  0  0  0
  7 12  1  0  0  0  0
  8  7  2  0  0  0  0
  8  9  1  0  0  0  0
  9 10  1  0  0  0  0
 11  9  2  0  0  0  0
 12 14  1  0  0  0  0
 13 17  1  0  0  0  0
 14 13  2  0  0  0  0
 14 19  1  0  0  0  0
 15 18  1  0  0  0  0
 16 15  1  0  0  0  0
 17 15  2  0  0  0  0
 19 16  2  0  0  0  0
 21 20  1  0  0  0  0
 22 21  1  0  0  0  0
 23 27  1  0  0  0  0
 23 24  1  0  0  0  0
 24 22  1  1  0  0  0
 24 25  1  0  0  0  0
 26 27  2  0  0  0  0
 27 25  1  0  0  0  0
 29 30  1  0  0  0  0
 29 28  1  0  0  0  0
 31 30  1  0  0  0  0
 31 33  1  0  0  0  0
 32 33  1  0  0  0  0
 33 34  1  6  0  0  0
M  END
>  <MODEL>
8

>  <REMARK>
 VINA RESULT:      -6.9      3.651      7.842
  Name = 
  13 active torsions:
  status: ('A' for Active; 'I' for Inactive)
    1  A    between atoms: C_2  and  C_21
    2  A    between atoms: C_2  and  C_34
    3  A    between atoms: C_3  and  C_19
    4  A    between atoms: C_3  and  C_30
    5  A    between atoms: C_4  and  C_30
    6  A    between atoms: C_5  and  C_28
    7  A    between atoms: C_6  and  N_9
    8  A    between atoms: N_9  and  N_29
    9  A    between atoms: C_12  and  C_18
   10  A    between atoms: C_15  and  O_25
   11  A    between atoms: C_18  and  C_21
   12  A    between atoms: O_25  and  C_26
   13  A    between atoms: C_26  and  N_29
                            x       y       z     vdW  Elec       q    Type
                         _______ _______ _______ _____ _____    ______ ____

>  <TORSDO>
F 13

$$$$
=
 OpenBabel10222415143D

 34 36  0  0  1  0  0  0  0  0999 V2000
  186.8830  178.1800  140.1350 C   0  0  2  0  0  3  0  0  0  0  0  0
  185.2630  178.6300  139.4500 S   0  0  0  0  0  0  0  0  0  0  0  0
  186.9940  178.7570  141.5340 C   0  0  1  0  0  3  0  0  0  0  0  0
  185.6220  178.6770  142.1790 C   0  0  1  0  0  3  0  0  0  0  0  0
  185.4770  179.7560  143.2350 C   0  0  0  0  0  1  0  0  0  0  0  0
  184.5480  178.8470  141.1110 C   0  0  2  0  0  3  0  0  0  0  0  0
  188.0340  178.0430  142.3500 C   0  0  0  0  0  0  0  0  0  0  0  0
  189.2860  178.5160  142.2970 C   0  0  0  0  0  3  0  0  0  0  0  0
  190.4620  177.9900  143.0130 C   0  0  0  0  0  0  0  0  0  0  0  0
  191.1160  178.8200  143.9650 N   0  0  0  0  0  1  0  0  0  0  0  0
  190.9020  176.8300  142.7990 O   0  0  0  0  0  0  0  0  0  0  0  0
  187.6530  176.8730  143.2170 C   0  0  0  0  0  2  0  0  0  0  0  0
  186.4350  177.6760  145.2620 C   0  0  0  0  0  3  0  0  0  0  0  0
  187.6240  177.2430  144.6630 C   0  0  0  0  0  0  0  0  0  0  0  0
  187.5760  177.8760  147.3890 C   0  0  0  0  0  0  0  0  0  0  0  0
  188.7640  177.4450  146.7920 C   0  0  0  0  0  3  0  0  0  0  0  0
  186.4120  177.9930  146.6230 C   0  0  0  0  0  3  0  0  0  0  0  0
  187.5530  178.1810  148.7080 F   0  0  0  0  0  0  0  0  0  0  0  0
  188.7880  177.1290  145.4300 C   0  0  0  0  0  3  0  0  0  0  0  0
  183.4330  177.8300  141.3110 C   0  0  0  0  0  2  0  0  0  0  0  0
  182.3540  177.9580  140.2430 C   0  0  0  0  0  2  0  0  0  0  0  0
  181.4040  179.1110  140.5400 C   0  0  0  0  0  2  0  0  0  0  0  0
  180.2490  180.9650  139.4630 N   0  0  0  0  0  2  0  0  0  0  0  0
  180.7290  179.6140  139.2700 C   0  0  1  0  0  3  0  0  0  0  0  0
  181.7230  180.0210  138.3210 C   0  0  0  0  0  2  0  0  0  0  0  0
  181.5590  182.5380  137.9820 O   0  0  0  0  0  0  0  0  0  0  0  0
  181.2440  181.4260  138.4780 C   0  0  0  0  0  0  0  0  0  0  0  0
  187.9780  178.6220  139.2690 N   0  0  0  0  0  2  0  0  0  0  0  0
  188.8410  177.5400  139.0310 N   0  0  0  0  0  2  0  0  0  0  0  0
  188.3360  176.8560  137.8560 C   0  0  0  0  0  2  0  0  0  0  0  0
  188.0010  177.7970  136.8810 O   0  0  0  0  0  0  0  0  0  0  0  0
  186.0990  176.5760  136.5850 O   0  0  0  0  0  1  0  0  0  0  0  0
  187.2310  177.0910  135.9550 C   0  0  1  0  0  3  0  0  0  0  0  0
  186.8050  178.0210  134.8360 C   0  0  0  0  0  1  0  0  0  0  0  0
  1 28  1  6  0  0  0
  1  3  1  0  0  0  0
  2  1  1  0  0  0  0
  2  6  1  0  0  0  0
  3  4  1  0  0  0  0
  3  7  1  1  0  0  0
  4  5  1  1  0  0  0
  6 20  1  1  0  0  0
  6  4  1  0  0  0  0
  7 12  1  0  0  0  0
  8  7  2  0  0  0  0
  8  9  1  0  0  0  0
  9 10  1  0  0  0  0
 11  9  2  0  0  0  0
 12 14  1  0  0  0  0
 13 17  1  0  0  0  0
 14 13  2  0  0  0  0
 14 19  1  0  0  0  0
 15 18  1  0  0  0  0
 16 15  1  0  0  0  0
 17 15  2  0  0  0  0
 19 16  2  0  0  0  0
 21 22  1  0  0  0  0
 21 20  1  0  0  0  0
 24 23  1  0  0  0  0
 24 22  1  1  0  0  0
 25 27  1  0  0  0  0
 25 24  1  0  0  0  0
 26 27  2  0  0  0  0
 27 23  1  0  0  0  0
 29 28  1  0  0  0  0
 30 29  1  0  0  0  0
 31 30  1  0  0  0  0
 33 34  1  6  0  0  0
 33 32  1  0  0  0  0
 33 31  1  0  0  0  0
M  END
>  <MODEL>
9

>  <REMARK>
 VINA RESULT:      -6.8      3.300      7.533
  Name = 
  13 active torsions:
  status: ('A' for Active; 'I' for Inactive)
    1  A    between atoms: C_2  and  C_21
    2  A    between atoms: C_2  and  C_34
    3  A    between atoms: C_3  and  C_19
    4  A    between atoms: C_3  and  C_30
    5  A    between atoms: C_4  and  C_30
    6  A    between atoms: C_5  and  C_28
    7  A    between atoms: C_6  and  N_9
    8  A    between atoms: N_9  and  N_29
    9  A    between atoms: C_12  and  C_18
   10  A    between atoms: C_15  and  O_25
   11  A    between atoms: C_18  and  C_21
   12  A    between atoms: O_25  and  C_26
   13  A    between atoms: C_26  and  N_29
                            x       y       z     vdW  Elec       q    Type
                         _______ _______ _______ _____ _____    ______ ____

>  <TORSDO>
F 13

$$$$
