=
 OpenBabel10222420403D

 42 46  0  0  1  0  0  0  0  0999 V2000
  189.1930  177.1260  145.5040 C   0  0  0  0  0  0  0  0  0  0  0  0
  191.8220  177.5450  142.7100 C   0  0  0  0  0  3  0  0  0  0  0  0
  187.8070  176.7120  142.3300 N   0  0  0  0  0  0  0  0  0  0  0  0
  189.7770  176.5070  143.3810 C   0  0  0  0  0  0  0  0  0  0  0  0
  189.2260  176.6150  142.1510 C   0  0  0  0  0  0  0  0  0  0  0  0
  189.9960  177.1240  141.0930 C   0  0  0  0  0  0  0  0  0  0  0  0
  187.5490  176.6930  143.5880 N   0  0  0  0  0  0  0  0  0  0  0  0
  188.7840  176.5590  144.2960 C   0  0  0  0  0  0  0  0  0  0  0  0
  190.9930  177.0340  143.7160 C   0  0  0  0  0  0  0  0  0  0  0  0
  190.8470  177.5490  145.3230 S   0  0  0  0  0  0  0  0  0  0  0  0
  191.3290  177.5430  141.3780 C   0  0  0  0  0  3  0  0  0  0  0  0
  188.3420  177.5290  146.5910 N   0  0  0  0  0  0  0  0  0  0  0  0
  188.8820  178.0170  147.7900 C   0  0  0  0  0  0  0  0  0  0  0  0
  189.3300  178.4180  148.7790 N   0  0  0  0  0  0  0  0  0  0  0  0
  186.8930  177.3970  146.5010 C   0  0  0  0  0  2  0  0  0  0  0  0
  186.2490  178.7280  146.1400 C   0  0  0  0  0  2  0  0  0  0  0  0
  184.7350  178.6220  146.2150 C   0  0  0  0  0  2  0  0  0  0  0  0
  184.0240  178.6750  142.7110 C   0  0  0  0  0  0  0  0  0  0  0  0
  182.7520  178.9430  143.1940 C   0  0  0  0  0  0  0  0  0  0  0  0
  184.1550  178.6800  144.8460 C   0  0  0  0  0  0  0  0  0  0  0  0
  184.8900  178.5200  143.7270 N   0  0  0  0  0  2  0  0  0  0  0  0
  184.4380  178.5570  141.2850 C   0  0  0  0  0  1  0  0  0  0  0  0
  182.8250  178.9490  144.5750 C   0  0  0  0  0  3  0  0  0  0  0  0
  181.5510  179.1690  142.4330 N   0  0  0  0  0  0  0  0  0  0  0  0
  180.3370  178.9980  138.8650 C   0  0  0  0  0  1  0  0  0  0  0  0
  180.5300  179.5800  140.2510 C   0  0  1  0  0  3  0  0  0  0  0  0
  179.2860  179.6720  140.9030 O   0  0  0  0  0  0  0  0  0  0  0  0
  180.3230  179.6480  143.0700 C   0  0  0  0  0  2  0  0  0  0  0  0
  179.5000  180.4450  142.0580 C   0  0  0  0  0  2  0  0  0  0  0  0
  181.4720  178.6840  141.0530 C   0  0  0  0  0  2  0  0  0  0  0  0
  189.3880  177.2980  139.7340 C   0  0  2  0  0  3  0  0  0  0  0  0
  190.5420  175.5080  138.6380 O   0  0  0  0  0  1  0  0  0  0  0  0
  190.3520  176.8900  138.6130 C   0  0  1  0  0  3  0  0  0  0  0  0
  189.8650  177.3340  137.2360 C   0  0  0  0  0  2  0  0  0  0  0  0
  188.7890  176.4670  136.7740 N   0  0  0  0  0  2  0  0  0  0  0  0
  187.4930  176.9530  136.4170 C   0  0  0  0  0  0  0  0  0  0  0  0
  186.4210  176.2890  136.8530 C   0  0  0  0  0  3  0  0  0  0  0  0
  187.3530  178.1640  135.5450 C   0  0  0  0  0  1  0  0  0  0  0  0
  185.0130  176.6900  136.5490 C   0  0  0  0  0  2  0  0  0  0  0  0
  184.4410  177.5150  137.6880 C   0  0  0  0  0  1  0  0  0  0  0  0
  187.5350  178.5760  139.5140 O   0  0  0  0  0  1  0  0  0  0  0  0
  188.8870  178.6560  139.5550 N   0  0  0  0  0  2  0  0  0  0  0  0
  1 12  1  0  0  0  0
  2  9  1  0  0  0  0
  3  7  2  0  0  0  0
  4  9  2  0  0  0  0
  4  8  1  0  0  0  0
  5  3  1  0  0  0  0
  5  4  1  0  0  0  0
  6 11  1  0  0  0  0
  6  5  2  0  0  0  0
  7  8  1  0  0  0  0
  8  1  2  0  0  0  0
  9 10  1  0  0  0  0
 10  1  1  0  0  0  0
 11  2  2  0  0  0  0
 12 13  1  0  0  0  0
 13 14  3  0  0  0  0
 15 12  1  0  0  0  0
 16 17  1  0  0  0  0
 16 15  1  0  0  0  0
 18 19  2  0  0  0  0
 18 21  1  0  0  0  0
 19 23  1  0  0  0  0
 20 17  1  0  0  0  0
 21 20  1  0  0  0  0
 22 18  1  0  0  0  0
 23 20  2  0  0  0  0
 24 28  1  0  0  0  0
 24 19  1  0  0  0  0
 26 25  1  6  0  0  0
 26 27  1  0  0  0  0
 26 30  1  0  0  0  0
 27 29  1  0  0  0  0
 29 28  1  0  0  0  0
 30 24  1  0  0  0  0
 31 42  1  6  0  0  0
 31  6  1  0  0  0  0
 33 32  1  6  0  0  0
 33 31  1  0  0  0  0
 34 33  1  0  0  0  0
 35 34  1  0  0  0  0
 36 35  1  0  0  0  0
 36 37  2  0  0  0  0
 38 36  1  0  0  0  0
 39 37  1  0  0  0  0
 39 40  1  0  0  0  0
 41 42  1  0  0  0  0
M  END
>  <MODEL>
1

>  <REMARK>
 VINA RESULT:      -8.2      0.000      0.000
  Name = 
  14 active torsions:
  status: ('A' for Active; 'I' for Inactive)
    1  A    between atoms: N_1  and  C_10
    2  A    between atoms: N_3  and  C_4
    3  A    between atoms: N_3  and  C_6
    4  A    between atoms: N_3  and  C_9
    5  A    between atoms: C_9  and  C_29
    6  A    between atoms: C_13  and  C_32
    7  A    between atoms: C_19  and  C_23
    8  A    between atoms: C_19  and  N_33
    9  A    between atoms: C_20  and  C_36
   10  A    between atoms: C_22  and  C_31
   11  A    between atoms: C_23  and  C_31
   12  A    between atoms: C_29  and  C_32
   13  A    between atoms: C_30  and  N_33
   14  A    between atoms: C_31  and  N_39
                            x       y       z     vdW  Elec       q    Type
                         _______ _______ _______ _____ _____    ______ ____

>  <TORSDO>
F 14

$$$$
=
 OpenBabel10222420403D

 42 46  0  0  1  0  0  0  0  0999 V2000
  185.3720  178.1640  144.5570 C   0  0  0  0  0  0  0  0  0  0  0  0
  187.9090  178.0570  147.4630 C   0  0  0  0  0  3  0  0  0  0  0  0
  188.5640  177.2670  143.4740 N   0  0  0  0  0  0  0  0  0  0  0  0
  187.2960  177.1910  145.3220 C   0  0  0  0  0  0  0  0  0  0  0  0
  188.5780  177.1090  144.9000 C   0  0  0  0  0  0  0  0  0  0  0  0
  189.6180  177.4190  145.7900 C   0  0  0  0  0  0  0  0  0  0  0  0
  187.3540  177.4600  143.0940 N   0  0  0  0  0  0  0  0  0  0  0  0
  186.5090  177.4150  144.2470 C   0  0  0  0  0  0  0  0  0  0  0  0
  186.9250  177.7370  146.5190 C   0  0  0  0  0  0  0  0  0  0  0  0
  185.4470  178.5130  146.2360 S   0  0  0  0  0  0  0  0  0  0  0  0
  189.2670  177.8470  147.1040 C   0  0  0  0  0  3  0  0  0  0  0  0
  184.4590  178.7600  143.6190 N   0  0  0  0  0  0  0  0  0  0  0  0
  183.0800  178.7930  143.8760 C   0  0  0  0  0  0  0  0  0  0  0  0
  181.9420  178.8200  144.0860 N   0  0  0  0  0  0  0  0  0  0  0  0
  184.9290  179.3020  142.3510 C   0  0  0  0  0  2  0  0  0  0  0  0
  184.4330  178.4610  141.1840 C   0  0  0  0  0  2  0  0  0  0  0  0
  184.3990  179.2870  139.9100 C   0  0  0  0  0  2  0  0  0  0  0  0
  184.7590  177.1960  137.0330 C   0  0  0  0  0  0  0  0  0  0  0  0
  186.0990  177.3460  137.3600 C   0  0  0  0  0  0  0  0  0  0  0  0
  184.8430  178.4580  138.7570 C   0  0  0  0  0  0  0  0  0  0  0  0
  183.9850  177.8740  137.8970 N   0  0  0  0  0  2  0  0  0  0  0  0
  184.1930  176.4130  135.8980 C   0  0  0  0  0  1  0  0  0  0  0  0
  186.1650  178.1620  138.4740 C   0  0  0  0  0  3  0  0  0  0  0  0
  187.2390  176.7830  136.6840 N   0  0  0  0  0  0  0  0  0  0  0  0
  189.5830  173.8410  136.9720 C   0  0  0  0  0  1  0  0  0  0  0  0
  189.1680  175.2850  136.7770 C   0  0  1  0  0  3  0  0  0  0  0  0
  189.4920  175.6990  135.4720 O   0  0  0  0  0  0  0  0  0  0  0  0
  187.8330  177.4360  135.5170 C   0  0  0  0  0  2  0  0  0  0  0  0
  189.3220  177.0950  135.4440 C   0  0  0  0  0  2  0  0  0  0  0  0
  187.6630  175.4180  137.0050 C   0  0  0  0  0  2  0  0  0  0  0  0
  191.0430  177.3810  145.3260 C   0  0  2  0  0  3  0  0  0  0  0  0
  192.0870  179.2270  144.2130 O   0  0  0  0  0  1  0  0  0  0  0  0
  191.2420  178.1360  144.0070 C   0  0  1  0  0  3  0  0  0  0  0  0
  191.7930  177.2400  142.9010 C   0  0  0  0  0  2  0  0  0  0  0  0
  191.7730  177.9390  141.6230 N   0  0  0  0  0  2  0  0  0  0  0  0
  191.4890  177.2910  140.3810 C   0  0  0  0  0  0  0  0  0  0  0  0
  192.4970  177.0510  139.5410 C   0  0  0  0  0  3  0  0  0  0  0  0
  190.0800  176.9220  140.0260 C   0  0  0  0  0  1  0  0  0  0  0  0
  192.3340  176.3840  138.2130 C   0  0  0  0  0  2  0  0  0  0  0  0
  193.5990  175.6310  137.8410 C   0  0  0  0  0  1  0  0  0  0  0  0
  192.1840  175.7560  146.4090 O   0  0  0  0  0  1  0  0  0  0  0  0
  191.5310  176.0090  145.2490 N   0  0  0  0  0  2  0  0  0  0  0  0
  1 10  1  0  0  0  0
  3  5  1  0  0  0  0
  4  9  1  0  0  0  0
  5  4  2  0  0  0  0
  5  6  1  0  0  0  0
  6 11  2  0  0  0  0
  7  3  2  0  0  0  0
  7  8  1  0  0  0  0
  8  1  2  0  0  0  0
  8  4  1  0  0  0  0
  9  2  2  0  0  0  0
 10  9  1  0  0  0  0
 11  2  1  0  0  0  0
 12 13  1  0  0  0  0
 12  1  1  0  0  0  0
 13 14  3  0  0  0  0
 15 12  1  0  0  0  0
 16 15  1  0  0  0  0
 17 16  1  0  0  0  0
 18 19  2  0  0  0  0
 18 21  1  0  0  0  0
 19 23  1  0  0  0  0
 20 17  1  0  0  0  0
 21 20  1  0  0  0  0
 22 18  1  0  0  0  0
 23 20  2  0  0  0  0
 24 30  1  0  0  0  0
 24 19  1  0  0  0  0
 26 25  1  6  0  0  0
 26 30  1  0  0  0  0
 27 26  1  0  0  0  0
 28 24  1  0  0  0  0
 29 27  1  0  0  0  0
 29 28  1  0  0  0  0
 31 42  1  6  0  0  0
 31  6  1  0  0  0  0
 33 32  1  1  0  0  0
 33 31  1  0  0  0  0
 34 33  1  0  0  0  0
 35 34  1  0  0  0  0
 36 35  1  0  0  0  0
 37 36  2  0  0  0  0
 38 36  1  0  0  0  0
 39 37  1  0  0  0  0
 40 39  1  0  0  0  0
 42 41  1  0  0  0  0
M  END
>  <MODEL>
2

>  <REMARK>
 VINA RESULT:      -8.1      3.003      6.923
  Name = 
  14 active torsions:
  status: ('A' for Active; 'I' for Inactive)
    1  A    between atoms: N_1  and  C_10
    2  A    between atoms: N_3  and  C_4
    3  A    between atoms: N_3  and  C_6
    4  A    between atoms: N_3  and  C_9
    5  A    between atoms: C_9  and  C_29
    6  A    between atoms: C_13  and  C_32
    7  A    between atoms: C_19  and  C_23
    8  A    between atoms: C_19  and  N_33
    9  A    between atoms: C_20  and  C_36
   10  A    between atoms: C_22  and  C_31
   11  A    between atoms: C_23  and  C_31
   12  A    between atoms: C_29  and  C_32
   13  A    between atoms: C_30  and  N_33
   14  A    between atoms: C_31  and  N_39
                            x       y       z     vdW  Elec       q    Type
                         _______ _______ _______ _____ _____    ______ ____

>  <TORSDO>
F 14

$$$$
=
 OpenBabel10222420403D

 42 46  0  0  1  0  0  0  0  0999 V2000
  183.2440  178.7730  140.7820 C   0  0  0  0  0  0  0  0  0  0  0  0
  183.1080  176.7330  137.5080 C   0  0  0  0  0  3  0  0  0  0  0  0
  186.3880  178.4600  139.3020 N   0  0  0  0  0  0  0  0  0  0  0  0
  184.2180  178.4560  138.7360 C   0  0  0  0  0  0  0  0  0  0  0  0
  185.4420  178.0970  138.2880 C   0  0  0  0  0  0  0  0  0  0  0  0
  185.5540  177.0710  137.3350 C   0  0  0  0  0  0  0  0  0  0  0  0
  185.7510  178.9710  140.2930 N   0  0  0  0  0  0  0  0  0  0  0  0
  184.3590  178.9900  139.9690 C   0  0  0  0  0  0  0  0  0  0  0  0
  183.0750  177.7600  138.4600 C   0  0  0  0  0  0  0  0  0  0  0  0
  182.1150  177.8760  139.8500 S   0  0  0  0  0  0  0  0  0  0  0  0
  184.3570  176.4240  136.9080 C   0  0  0  0  0  3  0  0  0  0  0  0
  183.1600  179.0090  142.1980 N   0  0  0  0  0  0  0  0  0  0  0  0
  181.9360  178.9040  142.8760 C   0  0  0  0  0  0  0  0  0  0  0  0
  180.9260  178.8190  143.4350 N   0  0  0  0  0  0  0  0  0  0  0  0
  184.3310  179.4130  142.9650 C   0  0  0  0  0  2  0  0  0  0  0  0
  184.7260  178.3340  143.9620 C   0  0  0  0  0  2  0  0  0  0  0  0
  184.8510  178.9200  145.3570 C   0  0  0  0  0  2  0  0  0  0  0  0
  187.5960  178.0620  147.4830 C   0  0  0  0  0  0  0  0  0  0  0  0
  188.1350  177.6720  146.2660 C   0  0  0  0  0  0  0  0  0  0  0  0
  186.1150  178.4530  145.9910 C   0  0  0  0  0  0  0  0  0  0  0  0
  186.3550  178.5500  147.3130 N   0  0  0  0  0  2  0  0  0  0  0  0
  188.2430  177.9760  148.8220 C   0  0  0  0  0  1  0  0  0  0  0  0
  187.1850  177.9200  145.2930 C   0  0  0  0  0  3  0  0  0  0  0  0
  189.4330  177.1000  146.0200 N   0  0  0  0  0  0  0  0  0  0  0  0
  192.4000  175.7800  147.9420 C   0  0  0  0  0  1  0  0  0  0  0  0
  191.6580  176.5710  146.8830 C   0  0  1  0  0  3  0  0  0  0  0  0
  191.9820  176.0720  145.6070 O   0  0  0  0  0  0  0  0  0  0  0  0
  189.9470  176.9290  144.6600 C   0  0  0  0  0  2  0  0  0  0  0  0
  191.4740  176.9990  144.6790 C   0  0  0  0  0  2  0  0  0  0  0  0
  190.1530  176.4530  147.1190 C   0  0  0  0  0  2  0  0  0  0  0  0
  186.9050  176.6250  136.8630 C   0  0  2  0  0  3  0  0  0  0  0  0
  186.5670  178.5220  135.4400 O   0  0  0  0  0  1  0  0  0  0  0  0
  187.5400  177.6310  135.8960 C   0  0  1  0  0  3  0  0  0  0  0  0
  188.7020  178.3930  136.5280 C   0  0  0  0  0  2  0  0  0  0  0  0
  189.8270  177.4980  136.7650 N   0  0  0  0  0  2  0  0  0  0  0  0
  190.1760  177.0070  138.0610 C   0  0  0  0  0  0  0  0  0  0  0  0
  189.7820  177.6990  139.1320 C   0  0  0  0  0  3  0  0  0  0  0  0
  190.9930  175.7590  138.2030 C   0  0  0  0  0  1  0  0  0  0  0  0
  190.0830  177.2960  140.5400 C   0  0  0  0  0  2  0  0  0  0  0  0
  189.0810  177.9230  141.4930 C   0  0  0  0  0  1  0  0  0  0  0  0
  187.3520  174.4370  137.2170 O   0  0  0  0  0  1  0  0  0  0  0  0
  186.8410  175.2850  136.2920 N   0  0  0  0  0  2  0  0  0  0  0  0
  1 12  1  0  0  0  0
  2  9  1  0  0  0  0
  3  7  2  0  0  0  0
  4  8  1  0  0  0  0
  5  4  1  0  0  0  0
  5  3  1  0  0  0  0
  6  5  2  0  0  0  0
  8  7  1  0  0  0  0
  8  1  2  0  0  0  0
  9  4  2  0  0  0  0
  9 10  1  0  0  0  0
 10  1  1  0  0  0  0
 11  6  1  0  0  0  0
 11  2  2  0  0  0  0
 12 13  1  0  0  0  0
 12 15  1  0  0  0  0
 13 14  3  0  0  0  0
 15 16  1  0  0  0  0
 16 17  1  0  0  0  0
 17 20  1  0  0  0  0
 18 22  1  0  0  0  0
 19 18  2  0  0  0  0
 20 21  1  0  0  0  0
 21 18  1  0  0  0  0
 23 20  2  0  0  0  0
 23 19  1  0  0  0  0
 24 19  1  0  0  0  0
 24 30  1  0  0  0  0
 26 30  1  0  0  0  0
 26 25  1  1  0  0  0
 27 26  1  0  0  0  0
 28 29  1  0  0  0  0
 28 24  1  0  0  0  0
 29 27  1  0  0  0  0
 31 42  1  6  0  0  0
 31  6  1  0  0  0  0
 33 32  1  1  0  0  0
 33 34  1  0  0  0  0
 33 31  1  0  0  0  0
 34 35  1  0  0  0  0
 35 36  1  0  0  0  0
 36 38  1  0  0  0  0
 36 37  2  0  0  0  0
 37 39  1  0  0  0  0
 39 40  1  0  0  0  0
 42 41  1  0  0  0  0
M  END
>  <MODEL>
3

>  <REMARK>
 VINA RESULT:      -8.1      2.830      7.552
  Name = 
  14 active torsions:
  status: ('A' for Active; 'I' for Inactive)
    1  A    between atoms: N_1  and  C_10
    2  A    between atoms: N_3  and  C_4
    3  A    between atoms: N_3  and  C_6
    4  A    between atoms: N_3  and  C_9
    5  A    between atoms: C_9  and  C_29
    6  A    between atoms: C_13  and  C_32
    7  A    between atoms: C_19  and  C_23
    8  A    between atoms: C_19  and  N_33
    9  A    between atoms: C_20  and  C_36
   10  A    between atoms: C_22  and  C_31
   11  A    between atoms: C_23  and  C_31
   12  A    between atoms: C_29  and  C_32
   13  A    between atoms: C_30  and  N_33
   14  A    between atoms: C_31  and  N_39
                            x       y       z     vdW  Elec       q    Type
                         _______ _______ _______ _____ _____    ______ ____

>  <TORSDO>
F 14

$$$$
=
 OpenBabel10222420403D

 42 46  0  0  1  0  0  0  0  0999 V2000
  189.1330  177.0880  145.3250 C   0  0  0  0  0  0  0  0  0  0  0  0
  191.9860  177.5010  142.7590 C   0  0  0  0  0  3  0  0  0  0  0  0
  188.0190  176.6510  142.0480 N   0  0  0  0  0  0  0  0  0  0  0  0
  189.8950  176.4600  143.2620 C   0  0  0  0  0  0  0  0  0  0  0  0
  189.4480  176.5590  141.9890 C   0  0  0  0  0  0  0  0  0  0  0  0
  190.3030  177.0650  140.9960 C   0  0  0  0  0  0  0  0  0  0  0  0
  187.6570  176.6380  143.2800 N   0  0  0  0  0  0  0  0  0  0  0  0
  188.8280  176.5120  144.0900 C   0  0  0  0  0  0  0  0  0  0  0  0
  191.0760  176.9920  143.6950 C   0  0  0  0  0  0  0  0  0  0  0  0
  190.7940  177.5160  145.2800 S   0  0  0  0  0  0  0  0  0  0  0  0
  191.6060  177.4900  141.3900 C   0  0  0  0  0  3  0  0  0  0  0  0
  188.1920  177.4940  146.3340 N   0  0  0  0  0  0  0  0  0  0  0  0
  188.6280  177.9650  147.5810 C   0  0  0  0  0  0  0  0  0  0  0  0
  188.9880  178.3540  148.6100 N   0  0  0  0  0  0  0  0  0  0  0  0
  186.7560  177.3810  146.1120 C   0  0  0  0  0  2  0  0  0  0  0  0
  186.2000  178.6570  145.4970 C   0  0  0  0  0  2  0  0  0  0  0  0
  184.7110  178.7740  145.7690 C   0  0  0  0  0  2  0  0  0  0  0  0
  182.3430  178.9850  143.0980 C   0  0  0  0  0  0  0  0  0  0  0  0
  183.4540  178.5830  142.3710 C   0  0  0  0  0  0  0  0  0  0  0  0
  183.9610  178.7970  144.4840 C   0  0  0  0  0  0  0  0  0  0  0  0
  182.6530  179.1100  144.4000 N   0  0  0  0  0  2  0  0  0  0  0  0
  180.9760  179.2600  142.5730 C   0  0  0  0  0  1  0  0  0  0  0  0
  184.5080  178.4590  143.2580 C   0  0  0  0  0  3  0  0  0  0  0  0
  183.5390  178.3400  140.9540 N   0  0  0  0  0  0  0  0  0  0  0  0
  182.4540  175.7740  138.4110 C   0  0  0  0  0  1  0  0  0  0  0  0
  183.3880  176.7360  139.1170 C   0  0  1  0  0  3  0  0  0  0  0  0
  183.7450  177.7780  138.2410 O   0  0  0  0  0  0  0  0  0  0  0  0
  184.2610  179.2520  140.0660 C   0  0  0  0  0  2  0  0  0  0  0  0
  184.7960  178.4760  138.8630 C   0  0  0  0  0  2  0  0  0  0  0  0
  182.6910  177.3100  140.3500 C   0  0  0  0  0  2  0  0  0  0  0  0
  189.8110  177.2290  139.5900 C   0  0  2  0  0  3  0  0  0  0  0  0
  190.8660  175.2730  138.6950 O   0  0  0  0  0  1  0  0  0  0  0  0
  190.7970  176.6610  138.5630 C   0  0  1  0  0  3  0  0  0  0  0  0
  190.4280  177.0380  137.1300 C   0  0  0  0  0  2  0  0  0  0  0  0
  189.7860  175.9160  136.4580 N   0  0  0  0  0  2  0  0  0  0  0  0
  188.3710  175.8170  136.2810 C   0  0  0  0  0  0  0  0  0  0  0  0
  187.8310  174.6070  136.1230 C   0  0  0  0  0  3  0  0  0  0  0  0
  187.5250  177.0530  136.2420 C   0  0  0  0  0  1  0  0  0  0  0  0
  186.3690  174.3670  135.9260 C   0  0  0  0  0  2  0  0  0  0  0  0
  185.6930  174.1020  137.2600 C   0  0  0  0  0  1  0  0  0  0  0  0
  188.1230  178.7050  139.2940 O   0  0  0  0  0  1  0  0  0  0  0  0
  189.4750  178.6210  139.3130 N   0  0  0  0  0  2  0  0  0  0  0  0
  1 12  1  0  0  0  0
  2  9  1  0  0  0  0
  3  7  2  0  0  0  0
  4  9  2  0  0  0  0
  4  8  1  0  0  0  0
  5  3  1  0  0  0  0
  5  4  1  0  0  0  0
  6 11  1  0  0  0  0
  6  5  2  0  0  0  0
  7  8  1  0  0  0  0
  8  1  2  0  0  0  0
  9 10  1  0  0  0  0
 10  1  1  0  0  0  0
 11  2  2  0  0  0  0
 12 13  1  0  0  0  0
 13 14  3  0  0  0  0
 15 12  1  0  0  0  0
 16 17  1  0  0  0  0
 16 15  1  0  0  0  0
 18 21  1  0  0  0  0
 19 18  2  0  0  0  0
 19 23  1  0  0  0  0
 20 17  1  0  0  0  0
 21 20  1  0  0  0  0
 22 18  1  0  0  0  0
 23 20  2  0  0  0  0
 24 19  1  0  0  0  0
 26 25  1  6  0  0  0
 26 30  1  0  0  0  0
 27 29  1  0  0  0  0
 27 26  1  0  0  0  0
 28 24  1  0  0  0  0
 29 28  1  0  0  0  0
 30 24  1  0  0  0  0
 31 42  1  6  0  0  0
 31  6  1  0  0  0  0
 33 32  1  6  0  0  0
 33 31  1  0  0  0  0
 34 33  1  0  0  0  0
 35 34  1  0  0  0  0
 36 35  1  0  0  0  0
 37 36  2  0  0  0  0
 38 36  1  0  0  0  0
 39 37  1  0  0  0  0
 39 40  1  0  0  0  0
 41 42  1  0  0  0  0
M  END
>  <MODEL>
4

>  <REMARK>
 VINA RESULT:      -8.0      1.443      2.211
  Name = 
  14 active torsions:
  status: ('A' for Active; 'I' for Inactive)
    1  A    between atoms: N_1  and  C_10
    2  A    between atoms: N_3  and  C_4
    3  A    between atoms: N_3  and  C_6
    4  A    between atoms: N_3  and  C_9
    5  A    between atoms: C_9  and  C_29
    6  A    between atoms: C_13  and  C_32
    7  A    between atoms: C_19  and  C_23
    8  A    between atoms: C_19  and  N_33
    9  A    between atoms: C_20  and  C_36
   10  A    between atoms: C_22  and  C_31
   11  A    between atoms: C_23  and  C_31
   12  A    between atoms: C_29  and  C_32
   13  A    between atoms: C_30  and  N_33
   14  A    between atoms: C_31  and  N_39
                            x       y       z     vdW  Elec       q    Type
                         _______ _______ _______ _____ _____    ______ ____

>  <TORSDO>
F 14

$$$$
=
 OpenBabel10222420403D

 42 46  0  0  1  0  0  0  0  0999 V2000
  181.9210  178.6780  140.0300 C   0  0  0  0  0  0  0  0  0  0  0  0
  183.0600  177.4650  136.5480 C   0  0  0  0  0  3  0  0  0  0  0  0
  185.3850  178.3080  139.8410 N   0  0  0  0  0  0  0  0  0  0  0  0
  183.6280  178.7100  138.5070 C   0  0  0  0  0  0  0  0  0  0  0  0
  184.9190  178.3070  138.4850 C   0  0  0  0  0  0  0  0  0  0  0  0
  185.3770  177.5180  137.4190 C   0  0  0  0  0  0  0  0  0  0  0  0
  184.4170  178.6590  140.6080 N   0  0  0  0  0  0  0  0  0  0  0  0
  183.2740  178.9290  139.7920 C   0  0  0  0  0  0  0  0  0  0  0  0
  182.6750  178.2460  137.6450 C   0  0  0  0  0  0  0  0  0  0  0  0
  181.2400  178.1670  138.5400 S   0  0  0  0  0  0  0  0  0  0  0  0
  184.4370  177.1420  136.4140 C   0  0  0  0  0  3  0  0  0  0  0  0
  181.2800  178.5970  141.3150 N   0  0  0  0  0  0  0  0  0  0  0  0
  180.1760  177.7560  141.5190 C   0  0  0  0  0  0  0  0  0  0  0  0
  179.2650  177.0630  141.6880 N   0  0  0  0  0  0  0  0  0  0  0  0
  181.7230  179.4230  142.4300 C   0  0  0  0  0  2  0  0  0  0  0  0
  182.5160  178.5980  143.4340 C   0  0  0  0  0  2  0  0  0  0  0  0
  183.3620  179.5020  144.3140 C   0  0  0  0  0  2  0  0  0  0  0  0
  186.3930  177.6060  144.3440 C   0  0  0  0  0  0  0  0  0  0  0  0
  186.5240  178.2420  145.5690 C   0  0  2  0  0  3  0  0  0  0  0  0
  184.6770  178.8590  144.5820 C   0  0  0  0  0  0  0  0  0  0  0  0
  185.2530  177.9790  143.7390 N   0  0  0  0  0  0  0  0  0  0  0  0
  187.3440  176.6390  143.7270 C   0  0  0  0  0  1  0  0  0  0  0  0
  185.4200  179.0570  145.7340 C   0  0  0  0  0  3  0  0  0  0  0  0
  187.6000  178.1150  146.5180 N   0  0  2  0  0  0  0  0  0  0  0  0
  191.1150  176.7580  146.7070 C   0  0  0  0  0  1  0  0  0  0  0  0
  189.6860  177.0050  147.1450 C   0  0  1  0  0  3  0  0  0  0  0  0
  189.6780  177.7650  148.3290 O   0  0  0  0  0  0  0  0  0  0  0  0
  187.4560  178.5710  147.9010 C   0  0  0  0  0  2  0  0  0  0  0  0
  188.3570  177.7360  148.8110 C   0  0  0  0  0  2  0  0  0  0  0  0
  188.9380  177.7550  146.0430 C   0  0  0  0  0  2  0  0  0  0  0  0
  186.7910  177.0210  137.4010 C   0  0  2  0  0  3  0  0  0  0  0  0
  187.1330  179.3570  136.9980 O   0  0  0  0  0  1  0  0  0  0  0  0
  187.7870  178.1240  137.0250 C   0  0  1  0  0  3  0  0  0  0  0  0
  188.9820  178.1780  137.9730 C   0  0  0  0  0  2  0  0  0  0  0  0
  188.7160  177.3940  139.1710 N   0  0  0  0  0  2  0  0  0  0  0  0
  189.2020  177.7560  140.4660 C   0  0  0  0  0  0  0  0  0  0  0  0
  190.3140  177.1710  140.9160 C   0  0  0  0  0  3  0  0  0  0  0  0
  188.4550  178.7460  141.3050 C   0  0  0  0  0  1  0  0  0  0  0  0
  190.9240  177.4580  142.2500 C   0  0  0  0  0  2  0  0  0  0  0  0
  191.0180  176.1840  143.0720 C   0  0  0  0  0  1  0  0  0  0  0  0
  187.3210  174.8230  137.3310 O   0  0  0  0  0  1  0  0  0  0  0  0
  186.9230  175.8500  136.5420 N   0  0  0  0  0  2  0  0  0  0  0  0
  1 12  1  0  0  0  0
  2  9  1  0  0  0  0
  3  7  2  0  0  0  0
  4  8  1  0  0  0  0
  5  4  1  0  0  0  0
  5  3  1  0  0  0  0
  6  5  2  0  0  0  0
  8  1  2  0  0  0  0
  8  7  1  0  0  0  0
  9  4  2  0  0  0  0
  9 10  1  0  0  0  0
 10  1  1  0  0  0  0
 11  2  2  0  0  0  0
 11  6  1  0  0  0  0
 12 13  1  0  0  0  0
 12 15  1  0  0  0  0
 13 14  3  0  0  0  0
 15 16  1  0  0  0  0
 16 17  1  0  0  0  0
 17 20  1  0  0  0  0
 18 19  1  0  0  0  0
 19 23  1  6  0  0  0
 19 24  1  0  0  0  0
 20 23  2  0  0  0  0
 21 18  2  0  0  0  0
 21 20  1  0  0  0  0
 22 18  1  0  0  0  0
 24 30  1  6  0  0  0
 24 28  1  0  0  0  0
 26 25  1  6  0  0  0
 26 27  1  0  0  0  0
 27 29  1  0  0  0  0
 28 29  1  0  0  0  0
 30 26  1  0  0  0  0
 31 42  1  6  0  0  0
 31  6  1  0  0  0  0
 33 32  1  1  0  0  0
 33 31  1  0  0  0  0
 33 34  1  0  0  0  0
 34 35  1  0  0  0  0
 35 36  1  0  0  0  0
 36 37  2  0  0  0  0
 36 38  1  0  0  0  0
 37 39  1  0  0  0  0
 39 40  1  0  0  0  0
 42 41  1  0  0  0  0
M  END
>  <MODEL>
5

>  <REMARK>
 VINA RESULT:      -7.9      2.842      7.539
  Name = 
  14 active torsions:
  status: ('A' for Active; 'I' for Inactive)
    1  A    between atoms: N_1  and  C_10
    2  A    between atoms: N_3  and  C_4
    3  A    between atoms: N_3  and  C_6
    4  A    between atoms: N_3  and  C_9
    5  A    between atoms: C_9  and  C_29
    6  A    between atoms: C_13  and  C_32
    7  A    between atoms: C_19  and  C_23
    8  A    between atoms: C_19  and  N_33
    9  A    between atoms: C_20  and  C_36
   10  A    between atoms: C_22  and  C_31
   11  A    between atoms: C_23  and  C_31
   12  A    between atoms: C_29  and  C_32
   13  A    between atoms: C_30  and  N_33
   14  A    between atoms: C_31  and  N_39
                            x       y       z     vdW  Elec       q    Type
                         _______ _______ _______ _____ _____    ______ ____

>  <TORSDO>
F 14

$$$$
=
 OpenBabel10222420403D

 42 46  0  0  1  0  0  0  0  0999 V2000
  186.7510  177.2300  137.0680 C   0  0  0  0  0  0  0  0  0  0  0  0
  183.0470  177.2470  135.9840 C   0  0  0  0  0  3  0  0  0  0  0  0
  184.7540  179.0700  139.2590 N   0  0  0  0  0  0  0  0  0  0  0  0
  184.5890  177.3710  137.8040 C   0  0  0  0  0  0  0  0  0  0  0  0
  183.8480  178.2820  138.4740 C   0  0  0  0  0  0  0  0  0  0  0  0
  182.5970  178.6640  137.9640 C   0  0  0  0  0  0  0  0  0  0  0  0
  185.9510  178.6630  139.0360 N   0  0  0  0  0  0  0  0  0  0  0  0
  185.8890  177.5730  138.1130 C   0  0  0  0  0  0  0  0  0  0  0  0
  184.2850  176.9200  136.5510 C   0  0  0  0  0  0  0  0  0  0  0  0
  185.7690  176.6810  135.7720 S   0  0  0  0  0  0  0  0  0  0  0  0
  182.1790  178.0910  136.7260 C   0  0  0  0  0  3  0  0  0  0  0  0
  188.1550  177.5290  136.9850 N   0  0  0  0  0  0  0  0  0  0  0  0
  188.6230  178.8440  137.1260 C   0  0  0  0  0  0  0  0  0  0  0  0
  189.0100  179.9280  137.2420 N   0  0  0  0  0  0  0  0  0  0  0  0
  189.1310  176.4840  136.7030 C   0  0  0  0  0  2  0  0  0  0  0  0
  189.5870  175.8060  137.9870 C   0  0  0  0  0  2  0  0  0  0  0  0
  190.4910  176.7300  138.7830 C   0  0  0  0  0  2  0  0  0  0  0  0
  188.5770  177.6290  141.6660 C   0  0  0  0  0  0  0  0  0  0  0  0
  189.6710  177.0610  142.3020 C   0  0  2  0  0  3  0  0  0  0  0  0
  189.9130  176.9650  140.1340 C   0  0  0  0  0  0  0  0  0  0  0  0
  188.7290  177.5770  140.3320 N   0  0  0  0  0  0  0  0  0  0  0  0
  187.3730  178.2250  142.3100 C   0  0  0  0  0  1  0  0  0  0  0  0
  190.5420  176.6260  141.3200 C   0  0  0  0  0  3  0  0  0  0  0  0
  189.8910  176.9190  143.7170 N   0  0  2  0  0  0  0  0  0  0  0  0
  188.0620  177.4410  146.9750 C   0  0  0  0  0  1  0  0  0  0  0  0
  189.2090  177.5130  145.9880 C   0  0  1  0  0  3  0  0  0  0  0  0
  190.2900  176.7460  146.4620 O   0  0  0  0  0  0  0  0  0  0  0  0
  191.1810  176.4740  144.2480 C   0  0  0  0  0  2  0  0  0  0  0  0
  191.3890  177.0620  145.6440 C   0  0  0  0  0  2  0  0  0  0  0  0
  188.7490  176.9780  144.6320 C   0  0  0  0  0  2  0  0  0  0  0  0
  181.7830  179.7080  138.6650 C   0  0  2  0  0  3  0  0  0  0  0  0
  180.7230  177.7030  139.4350 O   0  0  0  0  0  1  0  0  0  0  0  0
  180.6910  179.0930  139.5480 C   0  0  1  0  0  3  0  0  0  0  0  0
  180.8220  179.5090  141.0110 C   0  0  0  0  0  2  0  0  0  0  0  0
  181.9540  178.8350  141.6320 N   0  0  0  0  0  2  0  0  0  0  0  0
  182.1610  178.7950  143.0460 C   0  0  0  0  0  0  0  0  0  0  0  0
  183.4130  178.7530  143.5060 C   0  0  0  0  0  3  0  0  0  0  0  0
  180.9900  178.7670  143.9810 C   0  0  0  0  0  1  0  0  0  0  0  0
  183.7640  178.7050  144.9590 C   0  0  0  0  0  2  0  0  0  0  0  0
  185.1470  179.2890  145.1860 C   0  0  0  0  0  1  0  0  0  0  0  0
  181.6510  181.8990  138.1170 O   0  0  0  0  0  1  0  0  0  0  0  0
  181.2390  180.6720  137.7150 N   0  0  0  0  0  2  0  0  0  0  0  0
  1  8  2  0  0  0  0
  2  9  2  0  0  0  0
  2 11  1  0  0  0  0
  4  8  1  0  0  0  0
  4  5  2  0  0  0  0
  5  3  1  0  0  0  0
  6  5  1  0  0  0  0
  6 31  1  0  0  0  0
  7  3  2  0  0  0  0
  8  7  1  0  0  0  0
  9  4  1  0  0  0  0
 10  9  1  0  0  0  0
 10  1  1  0  0  0  0
 11  6  2  0  0  0  0
 12  1  1  0  0  0  0
 12 13  1  0  0  0  0
 13 14  3  0  0  0  0
 15 12  1  0  0  0  0
 15 16  1  0  0  0  0
 16 17  1  0  0  0  0
 17 20  1  0  0  0  0
 18 19  1  0  0  0  0
 18 22  1  0  0  0  0
 19 23  1  6  0  0  0
 19 24  1  0  0  0  0
 20 21  1  0  0  0  0
 20 23  2  0  0  0  0
 21 18  2  0  0  0  0
 24 28  1  6  0  0  0
 24 30  1  0  0  0  0
 26 27  1  0  0  0  0
 26 25  1  1  0  0  0
 28 29  1  0  0  0  0
 29 27  1  0  0  0  0
 30 26  1  0  0  0  0
 31 42  1  6  0  0  0
 31 33  1  0  0  0  0
 33 32  1  1  0  0  0
 33 34  1  0  0  0  0
 34 35  1  0  0  0  0
 35 36  1  0  0  0  0
 36 37  2  0  0  0  0
 36 38  1  0  0  0  0
 37 39  1  0  0  0  0
 39 40  1  0  0  0  0
 42 41  1  0  0  0  0
M  END
>  <MODEL>
6

>  <REMARK>
 VINA RESULT:      -7.6      2.868      9.047
  Name = 
  14 active torsions:
  status: ('A' for Active; 'I' for Inactive)
    1  A    between atoms: N_1  and  C_10
    2  A    between atoms: N_3  and  C_4
    3  A    between atoms: N_3  and  C_6
    4  A    between atoms: N_3  and  C_9
    5  A    between atoms: C_9  and  C_29
    6  A    between atoms: C_13  and  C_32
    7  A    between atoms: C_19  and  C_23
    8  A    between atoms: C_19  and  N_33
    9  A    between atoms: C_20  and  C_36
   10  A    between atoms: C_22  and  C_31
   11  A    between atoms: C_23  and  C_31
   12  A    between atoms: C_29  and  C_32
   13  A    between atoms: C_30  and  N_33
   14  A    between atoms: C_31  and  N_39
                            x       y       z     vdW  Elec       q    Type
                         _______ _______ _______ _____ _____    ______ ____

>  <TORSDO>
F 14

$$$$
=
 OpenBabel10222420403D

 42 46  0  0  1  0  0  0  0  0999 V2000
  185.3990  178.1990  144.7800 C   0  0  0  0  0  0  0  0  0  0  0  0
  187.9680  178.1840  147.6600 C   0  0  0  0  0  3  0  0  0  0  0  0
  188.5860  177.3030  143.6840 N   0  0  0  0  0  0  0  0  0  0  0  0
  187.3390  177.2620  145.5470 C   0  0  0  0  0  0  0  0  0  0  0  0
  188.6170  177.1800  145.1130 C   0  0  0  0  0  0  0  0  0  0  0  0
  189.6650  177.5200  145.9830 C   0  0  0  0  0  0  0  0  0  0  0  0
  187.3700  177.4770  143.3130 N   0  0  0  0  0  0  0  0  0  0  0  0
  186.5390  177.4530  144.4760 C   0  0  0  0  0  0  0  0  0  0  0  0
  186.9770  177.8330  146.7340 C   0  0  0  0  0  0  0  0  0  0  0  0
  185.4890  178.5890  146.4500 S   0  0  0  0  0  0  0  0  0  0  0  0
  189.3240  177.9770  147.2900 C   0  0  0  0  0  3  0  0  0  0  0  0
  184.4700  178.7650  143.8390 N   0  0  0  0  0  0  0  0  0  0  0  0
  183.1190  178.9420  144.1740 C   0  0  0  0  0  0  0  0  0  0  0  0
  182.0050  179.0890  144.4500 N   0  0  0  0  0  0  0  0  0  0  0  0
  184.8900  179.1240  142.4910 C   0  0  0  0  0  2  0  0  0  0  0  0
  184.1920  178.2540  141.4550 C   0  0  0  0  0  2  0  0  0  0  0  0
  184.0950  178.9840  140.1270 C   0  0  0  0  0  2  0  0  0  0  0  0
  183.7120  177.1870  137.0600 C   0  0  0  0  0  0  0  0  0  0  0  0
  183.2650  176.2110  137.9390 C   0  0  2  0  0  3  0  0  0  0  0  0
  183.8580  178.0080  139.0290 C   0  0  0  0  0  0  0  0  0  0  0  0
  184.0700  178.2950  137.7290 N   0  0  0  0  0  0  0  0  0  0  0  0
  183.8100  177.0830  135.5770 C   0  0  0  0  0  1  0  0  0  0  0  0
  183.3560  176.7320  139.2170 C   0  0  0  0  0  3  0  0  0  0  0  0
  182.7960  174.8870  137.6220 N   0  0  2  0  0  0  0  0  0  0  0  0
  184.1540  171.5570  136.4810 C   0  0  0  0  0  1  0  0  0  0  0  0
  183.2220  172.7520  136.5120 C   0  0  1  0  0  3  0  0  0  0  0  0
  181.9390  172.3400  136.9160 O   0  0  0  0  0  0  0  0  0  0  0  0
  181.3730  174.5490  137.6720 C   0  0  0  0  0  2  0  0  0  0  0  0
  181.0790  173.4270  136.6760 C   0  0  0  0  0  2  0  0  0  0  0  0
  183.7630  173.7950  137.4880 C   0  0  0  0  0  2  0  0  0  0  0  0
  191.0850  177.4830  145.5050 C   0  0  2  0  0  3  0  0  0  0  0  0
  191.9630  179.3690  144.3190 O   0  0  0  0  0  1  0  0  0  0  0  0
  191.2560  178.1780  144.1490 C   0  0  1  0  0  3  0  0  0  0  0  0
  191.9530  177.2890  143.1230 C   0  0  0  0  0  2  0  0  0  0  0  0
  190.9930  176.7880  142.1490 N   0  0  0  0  0  2  0  0  0  0  0  0
  190.9440  177.2410  140.7940 C   0  0  0  0  0  0  0  0  0  0  0  0
  189.7510  177.3950  140.2160 C   0  0  0  0  0  3  0  0  0  0  0  0
  192.2110  177.5030  140.0380 C   0  0  0  0  0  1  0  0  0  0  0  0
  189.5630  177.8580  138.8070 C   0  0  0  0  0  2  0  0  0  0  0  0
  188.0870  177.8850  138.4530 C   0  0  0  0  0  1  0  0  0  0  0  0
  192.0540  175.8480  146.7320 O   0  0  0  0  0  1  0  0  0  0  0  0
  191.5940  176.1160  145.4860 N   0  0  0  0  0  2  0  0  0  0  0  0
  1 10  1  0  0  0  0
  3  5  1  0  0  0  0
  4  9  1  0  0  0  0
  5  4  2  0  0  0  0
  5  6  1  0  0  0  0
  6 11  2  0  0  0  0
  7  3  2  0  0  0  0
  7  8  1  0  0  0  0
  8  1  2  0  0  0  0
  8  4  1  0  0  0  0
  9  2  2  0  0  0  0
 10  9  1  0  0  0  0
 11  2  1  0  0  0  0
 12 13  1  0  0  0  0
 12  1  1  0  0  0  0
 13 14  3  0  0  0  0
 15 12  1  0  0  0  0
 16 15  1  0  0  0  0
 17 16  1  0  0  0  0
 18 21  2  0  0  0  0
 18 19  1  0  0  0  0
 19 23  1  1  0  0  0
 20 23  2  0  0  0  0
 20 17  1  0  0  0  0
 21 20  1  0  0  0  0
 22 18  1  0  0  0  0
 24 30  1  1  0  0  0
 24 28  1  0  0  0  0
 24 19  1  0  0  0  0
 26 25  1  1  0  0  0
 26 27  1  0  0  0  0
 26 30  1  0  0  0  0
 29 27  1  0  0  0  0
 29 28  1  0  0  0  0
 31 42  1  6  0  0  0
 31  6  1  0  0  0  0
 33 32  1  1  0  0  0
 33 31  1  0  0  0  0
 34 33  1  0  0  0  0
 35 34  1  0  0  0  0
 36 35  1  0  0  0  0
 37 36  2  0  0  0  0
 38 36  1  0  0  0  0
 39 37  1  0  0  0  0
 40 39  1  0  0  0  0
 42 41  1  0  0  0  0
M  END
>  <MODEL>
7

>  <REMARK>
 VINA RESULT:      -7.4      3.295      6.074
  Name = 
  14 active torsions:
  status: ('A' for Active; 'I' for Inactive)
    1  A    between atoms: N_1  and  C_10
    2  A    between atoms: N_3  and  C_4
    3  A    between atoms: N_3  and  C_6
    4  A    between atoms: N_3  and  C_9
    5  A    between atoms: C_9  and  C_29
    6  A    between atoms: C_13  and  C_32
    7  A    between atoms: C_19  and  C_23
    8  A    between atoms: C_19  and  N_33
    9  A    between atoms: C_20  and  C_36
   10  A    between atoms: C_22  and  C_31
   11  A    between atoms: C_23  and  C_31
   12  A    between atoms: C_29  and  C_32
   13  A    between atoms: C_30  and  N_33
   14  A    between atoms: C_31  and  N_39
                            x       y       z     vdW  Elec       q    Type
                         _______ _______ _______ _____ _____    ______ ____

>  <TORSDO>
F 14

$$$$
=
 OpenBabel10222420403D

 42 46  0  0  1  0  0  0  0  0999 V2000
  181.2650  179.2950  139.6570 C   0  0  0  0  0  0  0  0  0  0  0  0
  181.4680  178.9980  143.5000 C   0  0  0  0  0  3  0  0  0  0  0  0
  184.5280  178.7340  140.7560 N   0  0  0  0  0  0  0  0  0  0  0  0
  182.4130  178.3590  141.4000 C   0  0  0  0  0  0  0  0  0  0  0  0
  183.6820  178.4070  141.8670 C   0  0  0  0  0  0  0  0  0  0  0  0
  183.9070  178.6720  143.2270 C   0  0  0  0  0  0  0  0  0  0  0  0
  183.7950  178.8960  139.7150 N   0  0  0  0  0  0  0  0  0  0  0  0
  182.4340  178.6610  140.0840 C   0  0  0  0  0  0  0  0  0  0  0  0
  181.3220  178.7330  142.1320 C   0  0  0  0  0  0  0  0  0  0  0  0
  180.2480  179.4440  141.0320 S   0  0  0  0  0  0  0  0  0  0  0  0
  182.7730  178.9170  144.0560 C   0  0  0  0  0  3  0  0  0  0  0  0
  181.0570  179.9410  138.3900 N   0  0  0  0  0  0  0  0  0  0  0  0
  181.3520  181.3020  138.2150 C   0  0  0  0  0  0  0  0  0  0  0  0
  181.5950  182.4240  138.0700 N   0  0  0  0  0  0  0  0  0  0  0  0
  180.4870  179.2170  137.2610 C   0  0  0  0  0  2  0  0  0  0  0  0
  181.5660  178.4580  136.5020 C   0  0  0  0  0  2  0  0  0  0  0  0
  181.4990  176.9760  136.8260 C   0  0  0  0  0  2  0  0  0  0  0  0
  184.4660  175.0230  137.2320 C   0  0  0  0  0  0  0  0  0  0  0  0
  185.0510  176.2450  136.9350 C   0  0  0  0  0  0  0  0  0  0  0  0
  182.8750  176.4130  136.9100 C   0  0  0  0  0  0  0  0  0  0  0  0
  183.1270  175.1280  137.2250 N   0  0  0  0  0  2  0  0  0  0  0  0
  185.1650  173.7390  137.5240 C   0  0  0  0  0  1  0  0  0  0  0  0
  184.0300  177.1530  136.7240 C   0  0  0  0  0  3  0  0  0  0  0  0
  186.4550  176.5500  136.8420 N   0  0  0  0  0  0  0  0  0  0  0  0
  189.0660  178.6230  138.6090 C   0  0  0  0  0  1  0  0  0  0  0  0
  188.2910  178.0490  137.4400 C   0  0  1  0  0  3  0  0  0  0  0  0
  189.1400  177.2420  136.6600 O   0  0  0  0  0  0  0  0  0  0  0  0
  187.2870  175.9990  135.7710 C   0  0  0  0  0  2  0  0  0  0  0  0
  188.4390  176.9590  135.4740 C   0  0  0  0  0  2  0  0  0  0  0  0
  187.1220  177.2160  137.9640 C   0  0  0  0  0  2  0  0  0  0  0  0
  185.3060  178.7790  143.7530 C   0  0  2  0  0  3  0  0  0  0  0  0
  187.2420  178.6220  142.3500 O   0  0  0  0  0  1  0  0  0  0  0  0
  186.2760  177.8560  143.0050 C   0  0  1  0  0  3  0  0  0  0  0  0
  186.9430  176.8410  143.9300 C   0  0  0  0  0  2  0  0  0  0  0  0
  188.3870  177.0310  143.9370 N   0  0  0  0  0  2  0  0  0  0  0  0
  189.1150  177.4460  145.0950 C   0  0  0  0  0  0  0  0  0  0  0  0
  188.6320  177.1280  146.2990 C   0  0  0  0  0  3  0  0  0  0  0  0
  190.3730  178.2470  144.9520 C   0  0  0  0  0  1  0  0  0  0  0  0
  189.2940  177.5040  147.5860 C   0  0  0  0  0  2  0  0  0  0  0  0
  188.3200  178.2500  148.4810 C   0  0  0  0  0  1  0  0  0  0  0  0
  185.6200  179.7490  145.7720 O   0  0  0  0  0  1  0  0  0  0  0  0
  185.3410  178.5560  145.1940 N   0  0  0  0  0  2  0  0  0  0  0  0
  1  8  2  0  0  0  0
  1 10  1  0  0  0  0
  2 11  1  0  0  0  0
  3  5  1  0  0  0  0
  4  5  2  0  0  0  0
  4  9  1  0  0  0  0
  5  6  1  0  0  0  0
  6 31  1  0  0  0  0
  6 11  2  0  0  0  0
  7  8  1  0  0  0  0
  7  3  2  0  0  0  0
  8  4  1  0  0  0  0
  9  2  2  0  0  0  0
 10  9  1  0  0  0  0
 12  1  1  0  0  0  0
 13 12  1  0  0  0  0
 14 13  3  0  0  0  0
 15 12  1  0  0  0  0
 16 17  1  0  0  0  0
 16 15  1  0  0  0  0
 17 20  1  0  0  0  0
 18 22  1  0  0  0  0
 19 18  2  0  0  0  0
 20 21  1  0  0  0  0
 21 18  1  0  0  0  0
 23 20  2  0  0  0  0
 23 19  1  0  0  0  0
 24 19  1  0  0  0  0
 24 30  1  0  0  0  0
 26 30  1  0  0  0  0
 26 25  1  1  0  0  0
 27 26  1  0  0  0  0
 28 24  1  0  0  0  0
 29 28  1  0  0  0  0
 29 27  1  0  0  0  0
 31 42  1  1  0  0  0
 33 32  1  1  0  0  0
 33 31  1  0  0  0  0
 33 34  1  0  0  0  0
 34 35  1  0  0  0  0
 35 36  1  0  0  0  0
 36 37  2  0  0  0  0
 37 39  1  0  0  0  0
 38 36  1  0  0  0  0
 39 40  1  0  0  0  0
 42 41  1  0  0  0  0
M  END
>  <MODEL>
8

>  <REMARK>
 VINA RESULT:      -7.4      3.048      8.993
  Name = 
  14 active torsions:
  status: ('A' for Active; 'I' for Inactive)
    1  A    between atoms: N_1  and  C_10
    2  A    between atoms: N_3  and  C_4
    3  A    between atoms: N_3  and  C_6
    4  A    between atoms: N_3  and  C_9
    5  A    between atoms: C_9  and  C_29
    6  A    between atoms: C_13  and  C_32
    7  A    between atoms: C_19  and  C_23
    8  A    between atoms: C_19  and  N_33
    9  A    between atoms: C_20  and  C_36
   10  A    between atoms: C_22  and  C_31
   11  A    between atoms: C_23  and  C_31
   12  A    between atoms: C_29  and  C_32
   13  A    between atoms: C_30  and  N_33
   14  A    between atoms: C_31  and  N_39
                            x       y       z     vdW  Elec       q    Type
                         _______ _______ _______ _____ _____    ______ ____

>  <TORSDO>
F 14

$$$$
=
 OpenBabel10222420403D

 42 46  0  0  1  0  0  0  0  0999 V2000
  190.3370  177.5160  141.2200 C   0  0  0  0  0  0  0  0  0  0  0  0
  191.4420  177.2640  144.9090 C   0  0  0  0  0  3  0  0  0  0  0  0
  187.6610  177.9340  143.4190 N   0  0  0  0  0  0  0  0  0  0  0  0
  189.8870  178.2010  143.3560 C   0  0  0  0  0  0  0  0  0  0  0  0
  188.8450  178.0940  144.2110 C   0  0  0  0  0  0  0  0  0  0  0  0
  189.0720  177.6400  145.5200 C   0  0  0  0  0  0  0  0  0  0  0  0
  187.9960  177.9180  142.1790 N   0  0  0  0  0  0  0  0  0  0  0  0
  189.4130  178.0900  142.0950 C   0  0  0  0  0  0  0  0  0  0  0  0
  191.1380  177.7200  143.6200 C   0  0  0  0  0  0  0  0  0  0  0  0
  191.7440  177.1670  142.1390 S   0  0  0  0  0  0  0  0  0  0  0  0
  190.4030  177.2720  145.8780 C   0  0  0  0  0  3  0  0  0  0  0  0
  190.0760  177.0560  139.8830 N   0  0  0  0  0  0  0  0  0  0  0  0
  191.1070  176.5410  139.0820 C   0  0  0  0  0  0  0  0  0  0  0  0
  191.9560  176.1150  138.4220 N   0  0  0  0  0  0  0  0  0  0  0  0
  188.7450  177.1570  139.2980 C   0  0  0  0  0  2  0  0  0  0  0  0
  188.6450  178.3680  138.3830 C   0  0  0  0  0  2  0  0  0  0  0  0
  187.7190  178.0760  137.2150 C   0  0  0  0  0  2  0  0  0  0  0  0
  184.5140  178.5530  138.7270 C   0  0  0  0  0  0  0  0  0  0  0  0
  184.2600  177.3690  138.0500 C   0  0  0  0  0  0  0  0  0  0  0  0
  186.3080  178.0320  137.6860 C   0  0  0  0  0  0  0  0  0  0  0  0
  185.7770  178.9570  138.5100 N   0  0  0  0  0  2  0  0  0  0  0  0
  183.5670  179.3190  139.5850 C   0  0  0  0  0  1  0  0  0  0  0  0
  185.4140  177.0230  137.3720 C   0  0  0  0  0  3  0  0  0  0  0  0
  183.0330  176.6160  138.0230 N   0  0  0  0  0  0  0  0  0  0  0  0
  180.1110  175.9670  135.7260 C   0  0  0  0  0  1  0  0  0  0  0  0
  180.8270  176.2880  137.0230 C   0  0  1  0  0  3  0  0  0  0  0  0
  180.6130  175.2510  137.9500 O   0  0  0  0  0  0  0  0  0  0  0  0
  182.6040  175.8150  139.1710 C   0  0  0  0  0  2  0  0  0  0  0  0
  181.0780  175.7260  139.1900 C   0  0  0  0  0  2  0  0  0  0  0  0
  182.3240  176.4430  136.7540 C   0  0  0  0  0  2  0  0  0  0  0  0
  187.9240  177.4670  146.4680 C   0  0  2  0  0  3  0  0  0  0  0  0
  185.7690  176.6030  145.8820 O   0  0  0  0  0  1  0  0  0  0  0  0
  186.5740  177.7400  145.7960 C   0  0  1  0  0  3  0  0  0  0  0  0
  185.8560  178.9450  146.3980 C   0  0  0  0  0  2  0  0  0  0  0  0
  184.4270  178.8760  146.1200 N   0  0  0  0  0  2  0  0  0  0  0  0
  183.8660  179.1600  144.8370 C   0  0  0  0  0  0  0  0  0  0  0  0
  182.6070  178.7890  144.5950 C   0  0  0  0  0  3  0  0  0  0  0  0
  184.6920  179.8300  143.7810 C   0  0  0  0  0  1  0  0  0  0  0  0
  181.9040  179.0240  143.2960 C   0  0  0  0  0  2  0  0  0  0  0  0
  180.4020  178.8950  143.4780 C   0  0  0  0  0  1  0  0  0  0  0  0
  188.2310  177.4200  148.7090 O   0  0  0  0  0  1  0  0  0  0  0  0
  188.1110  178.2780  147.6670 N   0  0  0  0  0  2  0  0  0  0  0  0
  1  8  2  0  0  0  0
  1 10  1  0  0  0  0
  2 11  1  0  0  0  0
  3  5  1  0  0  0  0
  4  9  1  0  0  0  0
  4  5  2  0  0  0  0
  5  6  1  0  0  0  0
  6 11  2  0  0  0  0
  6 31  1  0  0  0  0
  7  3  2  0  0  0  0
  8  7  1  0  0  0  0
  8  4  1  0  0  0  0
  9  2  2  0  0  0  0
 10  9  1  0  0  0  0
 12  1  1  0  0  0  0
 13 12  1  0  0  0  0
 14 13  3  0  0  0  0
 15 12  1  0  0  0  0
 16 15  1  0  0  0  0
 17 20  1  0  0  0  0
 17 16  1  0  0  0  0
 18 22  1  0  0  0  0
 19 18  2  0  0  0  0
 20 21  1  0  0  0  0
 21 18  1  0  0  0  0
 23 20  2  0  0  0  0
 23 19  1  0  0  0  0
 24 19  1  0  0  0  0
 24 28  1  0  0  0  0
 26 25  1  6  0  0  0
 26 27  1  0  0  0  0
 27 29  1  0  0  0  0
 28 29  1  0  0  0  0
 30 26  1  0  0  0  0
 30 24  1  0  0  0  0
 31 42  1  1  0  0  0
 33 32  1  1  0  0  0
 33 34  1  0  0  0  0
 33 31  1  0  0  0  0
 35 34  1  0  0  0  0
 36 35  1  0  0  0  0
 37 36  2  0  0  0  0
 38 36  1  0  0  0  0
 39 40  1  0  0  0  0
 39 37  1  0  0  0  0
 42 41  1  0  0  0  0
M  END
>  <MODEL>
9

>  <REMARK>
 VINA RESULT:      -7.4      2.824      6.675
  Name = 
  14 active torsions:
  status: ('A' for Active; 'I' for Inactive)
    1  A    between atoms: N_1  and  C_10
    2  A    between atoms: N_3  and  C_4
    3  A    between atoms: N_3  and  C_6
    4  A    between atoms: N_3  and  C_9
    5  A    between atoms: C_9  and  C_29
    6  A    between atoms: C_13  and  C_32
    7  A    between atoms: C_19  and  C_23
    8  A    between atoms: C_19  and  N_33
    9  A    between atoms: C_20  and  C_36
   10  A    between atoms: C_22  and  C_31
   11  A    between atoms: C_23  and  C_31
   12  A    between atoms: C_29  and  C_32
   13  A    between atoms: C_30  and  N_33
   14  A    between atoms: C_31  and  N_39
                            x       y       z     vdW  Elec       q    Type
                         _______ _______ _______ _____ _____    ______ ____

>  <TORSDO>
F 14

$$$$
