=
 OpenBabel10222421153D

 37 43  0  0  1  0  0  0  0  0999 V2000
  188.7050  175.7620  136.7990 N   0  0  0  0  0  0  0  0  0  0  0  0
  192.8360  174.0960  136.8940 C   0  0  0  0  0  3  0  0  0  0  0  0
  187.0570  175.1150  134.8380 C   0  0  1  0  0  3  0  0  0  0  0  0
  191.1560  174.9970  138.3620 N   0  0  0  0  0  2  0  0  0  0  0  0
  190.1400  176.3380  139.9440 O   0  0  0  0  0  0  0  0  0  0  0  0
  188.2910  174.3480  135.0040 N   0  0  0  0  0  2  0  0  0  0  0  0
  190.1920  175.9800  138.7360 C   0  0  0  0  0  0  0  0  0  0  0  0
  188.5920  177.7960  138.0610 C   0  0  0  0  0  0  0  0  0  0  0  0
  184.6210  175.3460  134.6440 N   0  0  0  0  0  0  0  0  0  0  0  0
  190.6230  174.4790  135.9600 C   0  0  0  0  0  0  0  0  0  0  0  0
  185.7460  174.4000  134.5950 C   0  0  2  0  0  3  0  0  0  0  0  0
  193.2810  173.5880  135.6730 C   0  0  0  0  0  0  0  0  0  0  0  0
  186.1460  174.7390  136.0070 C   0  0  2  0  0  0  0  0  0  0  0  0
  186.2200  177.2030  137.5450 C   0  0  2  0  0  3  0  0  0  0  0  0
  191.5230  174.5570  137.0530 C   0  0  0  0  0  0  0  0  0  0  0  0
  189.2450  178.7990  138.6450 C   0  0  0  0  0  2  0  0  0  0  0  0
  192.4030  173.5120  134.5950 C   0  0  0  0  0  3  0  0  0  0  0  0
  189.1940  174.8520  136.0110 C   0  0  0  0  0  0  0  0  0  0  0  0
  184.9150  175.6040  136.0560 C   0  0  1  0  0  3  0  0  0  0  0  0
  191.0860  173.9460  134.7420 C   0  0  0  0  0  3  0  0  0  0  0  0
  187.3220  178.1410  137.2800 C   0  0  1  0  0  3  0  0  0  0  0  0
  189.2920  176.5570  137.7820 N   0  0  0  0  0  0  0  0  0  0  0  0
  194.9380  173.0480  135.4950 Cl  0  0  0  0  0  0  0  0  0  0  0  0
  183.4010  174.5560  134.6000 C   0  0  0  0  0  1  0  0  0  0  0  0
  185.3170  177.0740  136.3060 C   0  0  0  0  0  2  0  0  0  0  0  0
  186.1450  178.5650  138.0920 N   0  0  0  0  0  0  0  0  0  0  0  0
  186.4010  178.4420  139.4690 N   0  0  0  0  0  2  0  0  0  0  0  0
  185.8180  178.8810  141.8220 N   0  0  0  0  0  2  0  0  0  0  0  0
  185.5420  179.0480  140.4320 C   0  0  0  0  0  0  0  0  0  0  0  0
  184.5560  179.7390  140.0550 O   0  0  0  0  0  0  0  0  0  0  0  0
  184.0280  178.3740  143.3720 C   0  0  0  0  0  2  0  0  0  0  0  0
  185.2480  178.7790  144.1750 C   0  0  0  0  0  2  0  0  0  0  0  0
  184.9540  179.4490  142.8450 C   0  0  0  0  0  3  0  0  0  0  0  0
  186.2060  173.3800  136.7220 C   0  0  0  0  0  2  0  0  0  0  0  0
  185.1480  173.2200  137.8100 C   0  0  0  0  0  2  0  0  0  0  0  0
  184.6780  171.4800  136.3270 C   0  0  0  0  0  1  0  0  0  0  0  0
  184.0980  172.3090  137.3730 N   0  0  0  0  0  2  0  0  0  0  0  0
  1 22  1  0  0  0  0
  2 15  1  0  0  0  0
  3  6  1  1  0  0  0
  3 13  1  0  0  0  0
  4  7  1  0  0  0  0
  6 18  1  0  0  0  0
  7  5  2  0  0  0  0
  8 16  2  0  0  0  0
  9 19  1  0  0  0  0
 10 18  1  0  0  0  0
 10 15  2  0  0  0  0
 11  9  1  6  0  0  0
 11  3  1  0  0  0  0
 11 13  1  0  0  0  0
 12  2  2  0  0  0  0
 13 19  1  0  0  0  0
 13 34  1  1  0  0  0
 14 25  1  6  0  0  0
 14 26  1  0  0  0  0
 15  4  1  0  0  0  0
 17 20  2  0  0  0  0
 17 12  1  0  0  0  0
 18  1  2  0  0  0  0
 19 25  1  6  0  0  0
 20 10  1  0  0  0  0
 21 14  1  0  0  0  0
 21  8  1  1  0  0  0
 21 26  1  0  0  0  0
 22  8  1  0  0  0  0
 22  7  1  0  0  0  0
 23 12  1  0  0  0  0
 24  9  1  0  0  0  0
 26 27  1  0  0  0  0
 27 29  1  0  0  0  0
 28 33  1  0  0  0  0
 29 28  1  0  0  0  0
 30 29  2  0  0  0  0
 31 32  1  0  0  0  0
 33 31  1  0  0  0  0
 33 32  1  0  0  0  0
 34 35  1  0  0  0  0
 36 37  1  0  0  0  0
 37 35  1  0  0  0  0
M  END
>  <MODEL>
1

>  <REMARK>
 VINA RESULT:      -7.3      0.000      0.000
  Name = 
  5 active torsions:
  status: ('A' for Active; 'I' for Inactive)
    1  A    between atoms: N_1  and  N_37
    2  A    between atoms: N_3  and  C_27
    3  A    between atoms: C_10  and  C_23
    4  A    between atoms: C_10  and  N_24
    5  A    between atoms: C_19  and  C_23
                            x       y       z     vdW  Elec       q    Type
                         _______ _______ _______ _____ _____    ______ ____

>  <TORSDO>
F 5

$$$$
=
 OpenBabel10222421153D

 37 43  0  0  1  0  0  0  0  0999 V2000
  188.7900  176.7340  137.4320 N   0  0  0  0  0  0  0  0  0  0  0  0
  193.0740  175.5950  136.9810 C   0  0  0  0  0  3  0  0  0  0  0  0
  187.1760  176.6830  135.3430 C   0  0  1  0  0  3  0  0  0  0  0  0
  191.3430  175.7120  138.6490 N   0  0  0  0  0  2  0  0  0  0  0  0
  190.2280  176.2630  140.5940 O   0  0  0  0  0  0  0  0  0  0  0  0
  188.4860  176.0440  135.2370 N   0  0  0  0  0  2  0  0  0  0  0  0
  190.2900  176.3820  139.3400 C   0  0  0  0  0  0  0  0  0  0  0  0
  188.4940  178.1390  139.3510 C   0  0  0  0  0  0  0  0  0  0  0  0
  184.7250  176.7110  135.2040 N   0  0  0  0  0  0  0  0  0  0  0  0
  190.8120  176.0580  136.2150 C   0  0  0  0  0  0  0  0  0  0  0  0
  185.9420  175.9730  134.8310 C   0  0  2  0  0  3  0  0  0  0  0  0
  193.5420  175.6210  135.6680 C   0  0  0  0  0  0  0  0  0  0  0  0
  186.3350  175.8100  136.2760 C   0  0  2  0  0  0  0  0  0  0  0  0
  186.1860  177.5310  138.6120 C   0  0  2  0  0  3  0  0  0  0  0  0
  191.7240  175.8250  137.2760 C   0  0  0  0  0  0  0  0  0  0  0  0
  189.0520  178.9200  140.2750 C   0  0  0  0  0  2  0  0  0  0  0  0
  192.6530  175.8540  134.6220 C   0  0  0  0  0  3  0  0  0  0  0  0
  189.3540  176.2340  136.3740 C   0  0  0  0  0  0  0  0  0  0  0  0
  185.0220  176.4620  136.6170 C   0  0  1  0  0  3  0  0  0  0  0  0
  191.3020  176.0630  134.8950 C   0  0  0  0  0  3  0  0  0  0  0  0
  187.1780  178.6110  138.7300 C   0  0  1  0  0  3  0  0  0  0  0  0
  189.3140  177.1700  138.6500 N   0  0  0  0  0  0  0  0  0  0  0  0
  195.2420  175.3620  135.3330 Cl  0  0  0  0  0  0  0  0  0  0  0  0
  183.5930  175.8690  134.8520 C   0  0  0  0  0  1  0  0  0  0  0  0
  185.2740  177.7710  137.3970 C   0  0  0  0  0  2  0  0  0  0  0  0
  185.9820  178.5810  139.6200 N   0  0  0  0  0  0  0  0  0  0  0  0
  186.2800  177.9880  140.8600 N   0  0  0  0  0  2  0  0  0  0  0  0
  186.2150  177.9830  143.3230 N   0  0  0  0  0  2  0  0  0  0  0  0
  185.9180  178.6250  142.0830 C   0  0  0  0  0  0  0  0  0  0  0  0
  185.3550  179.7540  142.0680 O   0  0  0  0  0  0  0  0  0  0  0  0
  185.6760  177.4760  145.6300 C   0  0  0  0  0  2  0  0  0  0  0  0
  186.9360  178.3180  145.6120 C   0  0  0  0  0  2  0  0  0  0  0  0
  185.8360  178.5720  144.5970 C   0  0  0  0  0  3  0  0  0  0  0  0
  186.5530  174.2980  136.4420 C   0  0  0  0  0  2  0  0  0  0  0  0
  185.6840  173.6770  137.5320 C   0  0  0  0  0  2  0  0  0  0  0  0
  185.3800  172.2220  135.7330 C   0  0  0  0  0  1  0  0  0  0  0  0
  184.7630  172.7030  136.9600 N   0  0  0  0  0  2  0  0  0  0  0  0
  1 22  1  0  0  0  0
  2 15  1  0  0  0  0
  3  6  1  6  0  0  0
  3 13  1  0  0  0  0
  4  7  1  0  0  0  0
  6 18  1  0  0  0  0
  7  5  2  0  0  0  0
  8 16  2  0  0  0  0
  9 19  1  0  0  0  0
 10 18  1  0  0  0  0
 10 15  2  0  0  0  0
 11  9  1  1  0  0  0
 11  3  1  0  0  0  0
 11 13  1  0  0  0  0
 12  2  2  0  0  0  0
 13 34  1  1  0  0  0
 13 19  1  0  0  0  0
 14 25  1  6  0  0  0
 14 21  1  0  0  0  0
 14 26  1  0  0  0  0
 15  4  1  0  0  0  0
 17 20  2  0  0  0  0
 17 12  1  0  0  0  0
 18  1  2  0  0  0  0
 19 25  1  1  0  0  0
 20 10  1  0  0  0  0
 21  8  1  1  0  0  0
 21 26  1  0  0  0  0
 22  7  1  0  0  0  0
 22  8  1  0  0  0  0
 23 12  1  0  0  0  0
 24  9  1  0  0  0  0
 26 27  1  0  0  0  0
 27 29  1  0  0  0  0
 28 33  1  0  0  0  0
 29 28  1  0  0  0  0
 30 29  2  0  0  0  0
 32 31  1  0  0  0  0
 33 32  1  0  0  0  0
 33 31  1  0  0  0  0
 34 35  1  0  0  0  0
 36 37  1  0  0  0  0
 37 35  1  0  0  0  0
M  END
>  <MODEL>
2

>  <REMARK>
 VINA RESULT:      -5.6      1.457      1.598
  Name = 
  5 active torsions:
  status: ('A' for Active; 'I' for Inactive)
    1  A    between atoms: N_1  and  N_37
    2  A    between atoms: N_3  and  C_27
    3  A    between atoms: C_10  and  C_23
    4  A    between atoms: C_10  and  N_24
    5  A    between atoms: C_19  and  C_23
                            x       y       z     vdW  Elec       q    Type
                         _______ _______ _______ _____ _____    ______ ____

>  <TORSDO>
F 5

$$$$
=
 OpenBabel10222421153D

 37 43  0  0  1  0  0  0  0  0999 V2000
  188.1170  177.3870  139.2090 N   0  0  0  0  0  0  0  0  0  0  0  0
  183.9300  177.7300  137.7210 C   0  0  0  0  0  3  0  0  0  0  0  0
  188.8710  178.7120  141.3650 C   0  0  1  0  0  3  0  0  0  0  0  0
  185.8130  176.2320  137.6600 N   0  0  0  0  0  2  0  0  0  0  0  0
  187.4970  174.8850  136.8340 O   0  0  0  0  0  0  0  0  0  0  0  0
  187.4450  178.6130  141.0620 N   0  0  0  0  0  2  0  0  0  0  0  0
  187.1940  175.9380  137.4590 C   0  0  0  0  0  0  0  0  0  0  0  0
  189.5840  176.7150  137.4370 C   0  0  0  0  0  0  0  0  0  0  0  0
  190.8360  178.4410  142.8130 N   0  0  0  0  0  0  0  0  0  0  0  0
  185.8150  178.2420  139.1710 C   0  0  0  0  0  0  0  0  0  0  0  0
  189.3650  178.4740  142.7750 C   0  0  2  0  0  3  0  0  0  0  0  0
  183.2360  178.8380  138.2050 C   0  0  0  0  0  0  0  0  0  0  0  0
  189.3240  177.3200  141.8080 C   0  0  2  0  0  0  0  0  0  0  0  0
  190.9440  176.5420  139.5260 C   0  0  2  0  0  3  0  0  0  0  0  0
  185.2200  177.4250  138.1770 C   0  0  0  0  0  0  0  0  0  0  0  0
  189.7790  176.5690  136.1270 C   0  0  0  0  0  2  0  0  0  0  0  0
  183.8160  179.6460  139.1800 C   0  0  0  0  0  3  0  0  0  0  0  0
  187.1290  177.9910  139.7990 C   0  0  0  0  0  0  0  0  0  0  0  0
  190.8180  177.2430  141.9690 C   0  0  1  0  0  3  0  0  0  0  0  0
  185.0900  179.3440  139.6610 C   0  0  0  0  0  3  0  0  0  0  0  0
  190.7430  177.2730  138.2650 C   0  0  1  0  0  3  0  0  0  0  0  0
  188.2300  176.7970  137.9500 N   0  0  0  0  0  0  0  0  0  0  0  0
  181.6370  179.2120  137.5930 Cl  0  0  0  0  0  0  0  0  0  0  0  0
  191.2160  178.0140  144.1490 C   0  0  0  0  0  1  0  0  0  0  0  0
  191.5040  177.4820  140.6070 C   0  0  0  0  0  2  0  0  0  0  0  0
  191.9190  176.3720  138.4390 N   0  0  0  0  0  0  0  0  0  0  0  0
  191.6750  175.0980  137.8970 N   0  0  0  0  0  2  0  0  0  0  0  0
  192.3400  173.1830  136.4980 N   0  0  0  0  0  2  0  0  0  0  0  0
  192.6090  174.4880  137.0100 C   0  0  0  0  0  0  0  0  0  0  0  0
  193.6560  175.1040  136.6690 O   0  0  0  0  0  0  0  0  0  0  0  0
  193.9110  171.3450  136.3610 C   0  0  0  0  0  2  0  0  0  0  0  0
  192.7900  171.0830  135.3750 C   0  0  0  0  0  2  0  0  0  0  0  0
  193.2750  172.5010  135.6180 C   0  0  0  0  0  3  0  0  0  0  0  0
  188.3870  176.2990  142.4740 C   0  0  0  0  0  2  0  0  0  0  0  0
  188.1410  176.5780  143.9540 C   0  0  0  0  0  2  0  0  0  0  0  0
  186.7480  177.7450  145.4190 C   0  0  0  0  0  1  0  0  0  0  0  0
  186.7610  176.9900  144.1750 N   0  0  0  0  0  2  0  0  0  0  0  0
  1 18  2  0  0  0  0
  2 15  2  0  0  0  0
  2 12  1  0  0  0  0
  3  6  1  1  0  0  0
  3 13  1  0  0  0  0
  3 11  1  0  0  0  0
  4 15  1  0  0  0  0
  5  7  2  0  0  0  0
  7  4  1  0  0  0  0
  7 22  1  0  0  0  0
  8 22  1  0  0  0  0
  9 24  1  0  0  0  0
 10 20  2  0  0  0  0
 10 18  1  0  0  0  0
 11  9  1  6  0  0  0
 12 17  2  0  0  0  0
 13 19  1  0  0  0  0
 13 34  1  1  0  0  0
 13 11  1  0  0  0  0
 14 25  1  1  0  0  0
 15 10  1  0  0  0  0
 16  8  2  0  0  0  0
 17 20  1  0  0  0  0
 18  6  1  0  0  0  0
 19 25  1  6  0  0  0
 19  9  1  0  0  0  0
 21  8  1  6  0  0  0
 21 26  1  0  0  0  0
 21 14  1  0  0  0  0
 22  1  1  0  0  0  0
 23 12  1  0  0  0  0
 26 14  1  0  0  0  0
 27 26  1  0  0  0  0
 28 29  1  0  0  0  0
 29 27  1  0  0  0  0
 30 29  2  0  0  0  0
 32 33  1  0  0  0  0
 32 31  1  0  0  0  0
 33 31  1  0  0  0  0
 33 28  1  0  0  0  0
 34 35  1  0  0  0  0
 35 37  1  0  0  0  0
 37 36  1  0  0  0  0
M  END
>  <MODEL>
3

>  <REMARK>
 VINA RESULT:      -5.2      3.711      8.754
  Name = 
  5 active torsions:
  status: ('A' for Active; 'I' for Inactive)
    1  A    between atoms: N_1  and  N_37
    2  A    between atoms: N_3  and  C_27
    3  A    between atoms: C_10  and  C_23
    4  A    between atoms: C_10  and  N_24
    5  A    between atoms: C_19  and  C_23
                            x       y       z     vdW  Elec       q    Type
                         _______ _______ _______ _____ _____    ______ ____

>  <TORSDO>
F 5

$$$$
=
 OpenBabel10222421153D

 37 43  0  0  1  0  0  0  0  0999 V2000
  189.4680  176.7990  138.7650 N   0  0  0  0  0  0  0  0  0  0  0  0
  185.5410  176.3360  136.7110 C   0  0  0  0  0  3  0  0  0  0  0  0
  189.6860  178.3790  140.8700 C   0  0  1  0  0  3  0  0  0  0  0  0
  187.6210  175.1710  137.0390 N   0  0  0  0  0  2  0  0  0  0  0  0
  189.5950  174.0680  136.5720 O   0  0  0  0  0  0  0  0  0  0  0  0
  188.3520  178.0230  140.3910 N   0  0  0  0  0  2  0  0  0  0  0  0
  189.0450  175.0970  137.0500 C   0  0  0  0  0  0  0  0  0  0  0  0
  191.2630  176.2580  137.2730 C   0  0  0  0  0  0  0  0  0  0  0  0
  191.4370  178.5400  142.5840 N   0  0  0  0  0  0  0  0  0  0  0  0
  187.0920  177.2540  138.3440 C   0  0  0  0  0  0  0  0  0  0  0  0
  190.0010  178.3260  142.3490 C   0  0  2  0  0  3  0  0  0  0  0  0
  184.6200  177.3450  136.9940 C   0  0  0  0  0  0  0  0  0  0  0  0
  190.2790  177.1160  141.4960 C   0  0  2  0  0  0  0  0  0  0  0  0
  192.3150  176.4600  139.5300 C   0  0  2  0  0  3  0  0  0  0  0  0
  186.7810  176.2830  137.3600 C   0  0  0  0  0  0  0  0  0  0  0  0
  191.6670  176.0550  136.0190 C   0  0  0  0  0  2  0  0  0  0  0  0
  184.9200  178.3040  137.9580 C   0  0  0  0  0  3  0  0  0  0  0  0
  188.3230  177.2700  139.1610 C   0  0  0  0  0  0  0  0  0  0  0  0
  191.7280  177.3000  141.8590 C   0  0  1  0  0  3  0  0  0  0  0  0
  186.1410  178.2530  138.6290 C   0  0  0  0  0  3  0  0  0  0  0  0
  192.1890  177.0570  138.1910 C   0  0  1  0  0  3  0  0  0  0  0  0
  189.8530  176.1490  137.5920 N   0  0  0  0  0  0  0  0  0  0  0  0
  183.0890  177.4040  136.1430 Cl  0  0  0  0  0  0  0  0  0  0  0  0
  191.6800  178.2770  143.9930 C   0  0  0  0  0  1  0  0  0  0  0  0
  192.5600  177.5540  140.5840 C   0  0  0  0  0  2  0  0  0  0  0  0
  193.4530  176.3790  138.6030 N   0  0  0  0  0  0  0  0  0  0  0  0
  193.4900  175.0470  138.1530 N   0  0  0  0  0  2  0  0  0  0  0  0
  194.7110  172.9610  137.6790 N   0  0  0  0  0  2  0  0  0  0  0  0
  194.7150  174.3190  138.1170 C   0  0  0  0  0  0  0  0  0  0  0  0
  195.7940  174.8780  138.4560 O   0  0  0  0  0  0  0  0  0  0  0  0
  195.5810  170.7130  137.9220 C   0  0  0  0  0  2  0  0  0  0  0  0
  195.8560  171.1760  136.5060 C   0  0  0  0  0  2  0  0  0  0  0  0
  195.9270  172.1640  137.6560 C   0  0  0  0  0  3  0  0  0  0  0  0
  189.4250  176.0030  142.1240 C   0  0  0  0  0  2  0  0  0  0  0  0
  188.9530  176.3260  143.5390 C   0  0  0  0  0  2  0  0  0  0  0  0
  187.1560  177.2240  144.7280 C   0  0  0  0  0  1  0  0  0  0  0  0
  187.4980  176.3790  143.5940 N   0  0  0  0  0  2  0  0  0  0  0  0
  1 18  2  0  0  0  0
  2 12  2  0  0  0  0
  2 15  1  0  0  0  0
  3  6  1  1  0  0  0
  3 13  1  0  0  0  0
  3 11  1  0  0  0  0
  4  7  1  0  0  0  0
  4 15  1  0  0  0  0
  5  7  2  0  0  0  0
  7 22  1  0  0  0  0
  8 22  1  0  0  0  0
  9 24  1  0  0  0  0
 10 20  1  0  0  0  0
 10 18  1  0  0  0  0
 11  9  1  6  0  0  0
 12 17  1  0  0  0  0
 13 19  1  0  0  0  0
 13 34  1  1  0  0  0
 13 11  1  0  0  0  0
 14 25  1  1  0  0  0
 15 10  2  0  0  0  0
 16  8  2  0  0  0  0
 17 20  2  0  0  0  0
 18  6  1  0  0  0  0
 19 25  1  6  0  0  0
 19  9  1  0  0  0  0
 21  8  1  6  0  0  0
 21 26  1  0  0  0  0
 21 14  1  0  0  0  0
 22  1  1  0  0  0  0
 23 12  1  0  0  0  0
 26 14  1  0  0  0  0
 27 26  1  0  0  0  0
 28 29  1  0  0  0  0
 29 27  1  0  0  0  0
 29 30  2  0  0  0  0
 32 33  1  0  0  0  0
 32 31  1  0  0  0  0
 33 28  1  0  0  0  0
 33 31  1  0  0  0  0
 34 35  1  0  0  0  0
 35 37  1  0  0  0  0
 37 36  1  0  0  0  0
M  END
>  <MODEL>
4

>  <REMARK>
 VINA RESULT:      -4.9      3.678      8.701
  Name = 
  5 active torsions:
  status: ('A' for Active; 'I' for Inactive)
    1  A    between atoms: N_1  and  N_37
    2  A    between atoms: N_3  and  C_27
    3  A    between atoms: C_10  and  C_23
    4  A    between atoms: C_10  and  N_24
    5  A    between atoms: C_19  and  C_23
                            x       y       z     vdW  Elec       q    Type
                         _______ _______ _______ _____ _____    ______ ____

>  <TORSDO>
F 5

$$$$
