=
 OpenBabel10222420183D

 27 30  0  0  1  0  0  0  0  0999 V2000
  184.0180  178.3700  142.7310 N   0  0  0  0  0  0  0  0  0  0  0  0
  186.4400  178.0710  143.4570 C   0  0  0  0  0  0  0  0  0  0  0  0
  183.3880  178.7110  143.8100 C   0  0  1  0  0  3  0  0  0  0  0  0
  185.2850  179.1480  145.3850 C   0  0  0  0  0  3  0  0  0  0  0  0
  184.0340  179.3110  144.9790 C   0  0  0  0  0  3  0  0  0  0  0  0
  186.3510  178.3280  144.7860 C   0  0  0  0  0  0  0  0  0  0  0  0
  185.4060  178.4020  142.5190 N   0  0  0  0  0  0  0  0  0  0  0  0
  187.6770  177.5300  142.8520 C   0  0  0  0  0  0  0  0  0  0  0  0
  191.3180  177.0360  140.4380 O   0  0  0  0  0  0  0  0  0  0  0  0
  190.2210  175.9350  142.0460 N   0  0  0  0  0  0  0  0  0  0  0  0
  188.2880  178.3080  141.8800 C   0  0  0  0  0  3  0  0  0  0  0  0
  190.3330  177.0010  141.2200 C   0  0  0  0  0  0  0  0  0  0  0  0
  189.2980  175.6110  142.9830 C   0  0  0  0  0  3  0  0  0  0  0  0
  189.4500  178.0720  141.1650 C   0  0  0  0  0  3  0  0  0  0  0  0
  188.1660  176.3250  143.3440 C   0  0  0  0  0  3  0  0  0  0  0  0
  187.1890  177.1440  146.9000 C   0  0  0  0  0  3  0  0  0  0  0  0
  188.7340  178.2000  145.6880 C   0  0  0  0  0  3  0  0  0  0  0  0
  189.2980  177.6230  146.8100 C   0  0  0  0  0  3  0  0  0  0  0  0
  188.3610  176.9850  147.5390 N   0  0  0  0  0  2  0  0  0  0  0  0
  187.3930  177.8750  145.7470 C   0  0  0  0  0  0  0  0  0  0  0  0
  181.8840  178.6350  143.8130 C   0  0  0  0  0  2  0  0  0  0  0  0
  181.2390  179.3390  142.6970 N   0  0  0  0  0  0  0  0  0  0  0  0
  179.3220  180.6830  141.9750 C   0  0  0  0  0  2  0  0  0  0  0  0
  178.9310  179.6750  141.0750 O   0  0  0  0  0  0  0  0  0  0  0  0
  180.1080  179.1270  140.5350 C   0  0  0  0  0  2  0  0  0  0  0  0
  180.0480  180.0560  143.1680 C   0  0  0  0  0  2  0  0  0  0  0  0
  180.8870  178.3960  141.6310 C   0  0  0  0  0  2  0  0  0  0  0  0
  1  3  1  0  0  0  0
  2  6  2  0  0  0  0
  3 21  1  6  0  0  0
  3  5  1  0  0  0  0
  5  4  2  0  0  0  0
  6  4  1  0  0  0  0
  6 20  1  0  0  0  0
  7  1  2  0  0  0  0
  7  2  1  0  0  0  0
  8 15  2  0  0  0  0
  8  2  1  0  0  0  0
  9 12  2  0  0  0  0
 10 13  2  0  0  0  0
 11  8  1  0  0  0  0
 12 10  1  0  0  0  0
 13 15  1  0  0  0  0
 14 12  1  0  0  0  0
 14 11  2  0  0  0  0
 16 19  1  0  0  0  0
 17 20  1  0  0  0  0
 17 18  2  0  0  0  0
 18 19  1  0  0  0  0
 20 16  2  0  0  0  0
 22 26  1  0  0  0  0
 22 21  1  0  0  0  0
 23 26  1  0  0  0  0
 24 23  1  0  0  0  0
 25 24  1  0  0  0  0
 25 27  1  0  0  0  0
 27 22  1  0  0  0  0
M  END
>  <MODEL>
1

>  <REMARK>
 VINA RESULT:      -8.3      0.000      0.000
  Name = 
  4 active torsions:
  status: ('A' for Active; 'I' for Inactive)
    1  A    between atoms: C_2  and  C_9
    2  A    between atoms: C_7  and  N_8
    3  A    between atoms: C_7  and  C_18
    4  A    between atoms: C_20  and  C_25
                            x       y       z     vdW  Elec       q    Type
                         _______ _______ _______ _____ _____    ______ ____

>  <TORSDO>
F 4

$$$$
=
 OpenBabel10222420183D

 27 30  0  0  1  0  0  0  0  0999 V2000
  190.7930  176.9600  142.0890 N   0  0  0  0  0  0  0  0  0  0  0  0
  190.0650  176.7390  139.6600 C   0  0  0  0  0  0  0  0  0  0  0  0
  189.9080  177.7360  142.6310 C   0  0  1  0  0  3  0  0  0  0  0  0
  188.1680  177.8500  140.8340 C   0  0  0  0  0  3  0  0  0  0  0  0
  188.5600  177.9370  142.0970 C   0  0  0  0  0  3  0  0  0  0  0  0
  188.9680  177.5380  139.6380 C   0  0  0  0  0  0  0  0  0  0  0  0
  190.6770  176.2720  140.8700 N   0  0  0  0  0  0  0  0  0  0  0  0
  190.6470  176.1870  138.4170 C   0  0  0  0  0  0  0  0  0  0  0  0
  193.3750  175.2380  135.1020 O   0  0  0  0  0  0  0  0  0  0  0  0
  191.3370  174.6460  135.8060 N   0  0  0  0  0  0  0  0  0  0  0  0
  191.9280  176.6050  138.0880 C   0  0  0  0  0  3  0  0  0  0  0  0
  192.4700  175.3690  135.9660 C   0  0  0  0  0  0  0  0  0  0  0  0
  190.2050  174.5650  136.5440 C   0  0  0  0  0  3  0  0  0  0  0  0
  192.7220  176.2470  137.0120 C   0  0  0  0  0  3  0  0  0  0  0  0
  189.9000  175.2500  137.7110 C   0  0  0  0  0  3  0  0  0  0  0  0
  188.9610  179.1190  137.6210 C   0  0  0  0  0  3  0  0  0  0  0  0
  187.2260  177.7280  137.7840 C   0  0  0  0  0  3  0  0  0  0  0  0
  187.1000  178.5430  136.6760 C   0  0  0  0  0  3  0  0  0  0  0  0
  188.1510  179.3810  136.5800 N   0  0  0  0  0  0  0  0  0  0  0  0
  188.4230  178.0920  138.3700 C   0  0  2  0  0  3  0  0  0  0  0  0
  190.2210  178.3500  143.9700 C   0  0  0  0  0  2  0  0  0  0  0  0
  190.2530  177.3910  145.0840 N   0  0  0  0  0  0  0  0  0  0  0  0
  189.5330  176.9090  147.3740 C   0  0  0  0  0  2  0  0  0  0  0  0
  190.8700  176.8900  147.8110 O   0  0  0  0  0  0  0  0  0  0  0  0
  191.6280  176.2930  146.7880 C   0  0  0  0  0  2  0  0  0  0  0  0
  189.3940  177.8540  146.1780 C   0  0  0  0  0  2  0  0  0  0  0  0
  191.6290  177.1980  145.5520 C   0  0  0  0  0  2  0  0  0  0  0  0
  1  3  1  0  0  0  0
  2  7  1  0  0  0  0
  3 21  1  1  0  0  0
  4  5  2  0  0  0  0
  5  3  1  0  0  0  0
  6  2  2  0  0  0  0
  6  4  1  0  0  0  0
  7  1  2  0  0  0  0
  8  2  1  0  0  0  0
  9 12  2  0  0  0  0
 10 12  1  0  0  0  0
 10 13  2  0  0  0  0
 11  8  1  0  0  0  0
 12 14  1  0  0  0  0
 13 15  1  0  0  0  0
 14 11  2  0  0  0  0
 15  8  2  0  0  0  0
 16 20  1  0  0  0  0
 17 20  1  0  0  0  0
 18 17  2  0  0  0  0
 19 18  1  0  0  0  0
 19 16  2  0  0  0  0
 20  6  1  1  0  0  0
 21 22  1  0  0  0  0
 22 27  1  0  0  0  0
 22 26  1  0  0  0  0
 23 24  1  0  0  0  0
 25 24  1  0  0  0  0
 26 23  1  0  0  0  0
 27 25  1  0  0  0  0
M  END
>  <MODEL>
2

>  <REMARK>
 VINA RESULT:      -8.2      5.627      8.393
  Name = 
  4 active torsions:
  status: ('A' for Active; 'I' for Inactive)
    1  A    between atoms: C_2  and  C_9
    2  A    between atoms: C_7  and  N_8
    3  A    between atoms: C_7  and  C_18
    4  A    between atoms: C_20  and  C_25
                            x       y       z     vdW  Elec       q    Type
                         _______ _______ _______ _____ _____    ______ ____

>  <TORSDO>
F 4

$$$$
=
 OpenBabel10222420183D

 27 30  0  0  1  0  0  0  0  0999 V2000
  190.5940  176.8950  142.4950 N   0  0  0  0  0  0  0  0  0  0  0  0
  190.1200  176.7470  139.9990 C   0  0  0  0  0  0  0  0  0  0  0  0
  189.6160  177.5940  142.9790 C   0  0  1  0  0  3  0  0  0  0  0  0
  188.0540  177.6920  141.0230 C   0  0  0  0  0  3  0  0  0  0  0  0
  188.3160  177.7430  142.3220 C   0  0  0  0  0  3  0  0  0  0  0  0
  188.9830  177.4820  139.9010 C   0  0  0  0  0  0  0  0  0  0  0  0
  190.6390  176.2600  141.2440 N   0  0  0  0  0  0  0  0  0  0  0  0
  190.8510  176.2870  138.7980 C   0  0  0  0  0  0  0  0  0  0  0  0
  193.9530  175.6210  135.7540 O   0  0  0  0  0  0  0  0  0  0  0  0
  191.8750  174.9260  136.1970 N   0  0  0  0  0  0  0  0  0  0  0  0
  192.1440  176.7640  138.6350 C   0  0  0  0  0  3  0  0  0  0  0  0
  192.9560  175.6730  136.5190 C   0  0  0  0  0  0  0  0  0  0  0  0
  190.6740  174.7660  136.8020 C   0  0  0  0  0  3  0  0  0  0  0  0
  193.0620  176.4950  137.6340 C   0  0  0  0  0  3  0  0  0  0  0  0
  190.2200  175.3710  137.9650 C   0  0  0  0  0  3  0  0  0  0  0  0
  189.1180  179.1060  137.9230 C   0  0  0  0  0  3  0  0  0  0  0  0
  187.3800  177.7100  137.9300 C   0  0  0  0  0  3  0  0  0  0  0  0
  187.3330  178.5490  136.8330 C   0  0  0  0  0  3  0  0  0  0  0  0
  188.3860  179.3900  136.8320 N   0  0  0  0  0  0  0  0  0  0  0  0
  188.5300  178.0620  138.6090 C   0  0  2  0  0  3  0  0  0  0  0  0
  189.7600  178.1610  144.3660 C   0  0  0  0  0  2  0  0  0  0  0  0
  188.9250  177.5020  145.3800 N   0  0  0  0  0  0  0  0  0  0  0  0
  186.8170  177.5550  146.6260 C   0  0  0  0  0  2  0  0  0  0  0  0
  187.5160  177.7030  147.8390 O   0  0  0  0  0  0  0  0  0  0  0  0
  188.6750  176.9120  147.7440 C   0  0  0  0  0  2  0  0  0  0  0  0
  187.6260  178.1760  145.4850 C   0  0  0  0  0  2  0  0  0  0  0  0
  189.6080  177.4910  146.6770 C   0  0  0  0  0  2  0  0  0  0  0  0
  1  3  1  0  0  0  0
  2  7  1  0  0  0  0
  3 21  1  1  0  0  0
  4  5  2  0  0  0  0
  5  3  1  0  0  0  0
  6  2  2  0  0  0  0
  6  4  1  0  0  0  0
  7  1  2  0  0  0  0
  8  2  1  0  0  0  0
  9 12  2  0  0  0  0
 10 12  1  0  0  0  0
 10 13  2  0  0  0  0
 11  8  1  0  0  0  0
 12 14  1  0  0  0  0
 13 15  1  0  0  0  0
 14 11  2  0  0  0  0
 15  8  2  0  0  0  0
 16 20  1  0  0  0  0
 17 20  1  0  0  0  0
 18 17  2  0  0  0  0
 19 18  1  0  0  0  0
 19 16  2  0  0  0  0
 20  6  1  1  0  0  0
 21 22  1  0  0  0  0
 22 26  1  0  0  0  0
 22 27  1  0  0  0  0
 23 24  1  0  0  0  0
 25 24  1  0  0  0  0
 26 23  1  0  0  0  0
 27 25  1  0  0  0  0
M  END
>  <MODEL>
3

>  <REMARK>
 VINA RESULT:      -7.9      4.879      7.609
  Name = 
  4 active torsions:
  status: ('A' for Active; 'I' for Inactive)
    1  A    between atoms: C_2  and  C_9
    2  A    between atoms: C_7  and  N_8
    3  A    between atoms: C_7  and  C_18
    4  A    between atoms: C_20  and  C_25
                            x       y       z     vdW  Elec       q    Type
                         _______ _______ _______ _____ _____    ______ ____

>  <TORSDO>
F 4

$$$$
=
 OpenBabel10222420183D

 27 30  0  0  0  0  0  0  0  0999 V2000
  186.6360  178.2770  139.5690 N   0  0  0  0  0  0  0  0  0  0  0  0
  187.5420  178.2280  141.9470 C   0  0  0  0  0  0  0  0  0  0  0  0
  185.3950  178.6280  139.6950 C   0  0  0  0  0  0  0  0  0  0  0  0
  185.3060  179.3170  142.1010 C   0  0  0  0  0  3  0  0  0  0  0  0
  184.8620  179.3490  140.8520 C   0  0  0  0  0  3  0  0  0  0  0  0
  186.4350  178.5550  142.6600 C   0  0  0  0  0  0  0  0  0  0  0  0
  187.6510  178.4140  140.5300 N   0  0  0  0  0  2  0  0  0  0  0  0
  188.7790  177.7580  142.6090 C   0  0  0  0  0  0  0  0  0  0  0  0
  192.0740  175.2500  144.0870 O   0  0  0  0  0  0  0  0  0  0  0  0
  191.4960  177.4100  144.0810 N   0  0  0  0  0  0  0  0  0  0  0  0
  189.0520  176.4000  142.5300 C   0  0  0  0  0  3  0  0  0  0  0  0
  191.2400  176.1250  143.7400 C   0  0  0  0  0  0  0  0  0  0  0  0
  190.8110  178.5570  143.8600 C   0  0  0  0  0  3  0  0  0  0  0  0
  190.1300  175.6880  143.0290 C   0  0  0  0  0  3  0  0  0  0  0  0
  189.6010  178.7110  143.2000 C   0  0  0  0  0  3  0  0  0  0  0  0
  186.7890  177.1280  144.7590 C   0  0  0  0  0  3  0  0  0  0  0  0
  185.6150  179.0030  145.0340 C   0  0  0  0  0  3  0  0  0  0  0  0
  185.7190  178.3090  146.2250 C   0  0  0  0  0  3  0  0  0  0  0  0
  186.4300  177.1770  146.0540 N   0  0  0  0  0  2  0  0  0  0  0  0
  186.3140  178.2500  144.1110 C   0  0  0  0  0  0  0  0  0  0  0  0
  184.4730  178.4250  138.5210 C   0  0  0  0  0  2  0  0  0  0  0  0
  183.1140  178.0010  138.8840 N   0  0  0  0  0  0  0  0  0  0  0  0
  181.6100  176.1080  139.2770 C   0  0  0  0  0  2  0  0  0  0  0  0
  180.7950  176.5070  138.2010 O   0  0  0  0  0  0  0  0  0  0  0  0
  180.7600  177.9130  138.2140 C   0  0  0  0  0  2  0  0  0  0  0  0
  183.0550  176.5410  139.0190 C   0  0  0  0  0  2  0  0  0  0  0  0
  182.1480  178.4680  137.8840 C   0  0  0  0  0  2  0  0  0  0  0  0
  1  3  2  0  0  0  0
  1  7  1  0  0  0  0
  2  8  1  0  0  0  0
  2  6  2  0  0  0  0
  3  5  1  0  0  0  0
  4  6  1  0  0  0  0
  5  4  2  0  0  0  0
  6 20  1  0  0  0  0
  7  2  1  0  0  0  0
  8 15  2  0  0  0  0
 11  8  1  0  0  0  0
 11 14  2  0  0  0  0
 12 10  1  0  0  0  0
 12  9  2  0  0  0  0
 13 10  2  0  0  0  0
 14 12  1  0  0  0  0
 15 13  1  0  0  0  0
 16 19  1  0  0  0  0
 17 18  2  0  0  0  0
 19 18  1  0  0  0  0
 20 16  2  0  0  0  0
 20 17  1  0  0  0  0
 21 22  1  0  0  0  0
 21  3  1  0  0  0  0
 22 26  1  0  0  0  0
 24 25  1  0  0  0  0
 24 23  1  0  0  0  0
 26 23  1  0  0  0  0
 27 25  1  0  0  0  0
 27 22  1  0  0  0  0
M  END
>  <MODEL>
4

>  <REMARK>
 VINA RESULT:      -7.8      2.900      3.661
  Name = 
  4 active torsions:
  status: ('A' for Active; 'I' for Inactive)
    1  A    between atoms: C_2  and  C_9
    2  A    between atoms: C_7  and  N_8
    3  A    between atoms: C_7  and  C_18
    4  A    between atoms: C_20  and  C_25
                            x       y       z     vdW  Elec       q    Type
                         _______ _______ _______ _____ _____    ______ ____

>  <TORSDO>
F 4

$$$$
=
 OpenBabel10222420183D

 27 30  0  0  0  0  0  0  0  0999 V2000
  186.7230  178.2800  139.5300 N   0  0  0  0  0  0  0  0  0  0  0  0
  187.5850  178.2240  141.9240 C   0  0  0  0  0  0  0  0  0  0  0  0
  185.4790  178.6280  139.6320 C   0  0  0  0  0  0  0  0  0  0  0  0
  185.3440  179.3090  142.0390 C   0  0  0  0  0  3  0  0  0  0  0  0
  184.9240  179.3440  140.7820 C   0  0  0  0  0  3  0  0  0  0  0  0
  186.4630  178.5470  142.6170 C   0  0  0  0  0  0  0  0  0  0  0  0
  187.7200  178.4150  140.5090 N   0  0  0  0  0  2  0  0  0  0  0  0
  188.8100  177.7540  142.6080 C   0  0  0  0  0  0  0  0  0  0  0  0
  192.0710  175.2430  144.1540 O   0  0  0  0  0  0  0  0  0  0  0  0
  191.5030  177.4060  144.1210 N   0  0  0  0  0  0  0  0  0  0  0  0
  189.0770  176.3950  142.5440 C   0  0  0  0  0  3  0  0  0  0  0  0
  191.2460  176.1200  143.7870 C   0  0  0  0  0  0  0  0  0  0  0  0
  190.8280  178.5540  143.8800 C   0  0  0  0  0  3  0  0  0  0  0  0
  190.1440  175.6820  143.0640 C   0  0  0  0  0  3  0  0  0  0  0  0
  189.6280  178.7090  143.2010 C   0  0  0  0  0  3  0  0  0  0  0  0
  186.7960  177.1220  144.7210 C   0  0  0  0  0  3  0  0  0  0  0  0
  185.5830  178.9760  144.9730 C   0  0  0  0  0  3  0  0  0  0  0  0
  185.6730  178.2810  146.1640 C   0  0  0  0  0  3  0  0  0  0  0  0
  186.4080  177.1620  146.0070 N   0  0  0  0  0  2  0  0  0  0  0  0
  186.3160  178.2370  144.0640 C   0  0  0  0  0  0  0  0  0  0  0  0
  184.5800  178.4280  138.4420 C   0  0  0  0  0  2  0  0  0  0  0  0
  184.6060  177.0690  137.8840 N   0  0  0  0  0  0  0  0  0  0  0  0
  184.7610  175.7040  135.8560 C   0  0  0  0  0  2  0  0  0  0  0  0
  183.4750  175.1830  136.0850 O   0  0  0  0  0  0  0  0  0  0  0  0
  183.3430  175.0100  137.4750 C   0  0  0  0  0  2  0  0  0  0  0  0
  184.8580  177.1160  136.4400 C   0  0  0  0  0  2  0  0  0  0  0  0
  183.3450  176.3760  138.1670 C   0  0  0  0  0  2  0  0  0  0  0  0
  1  3  2  0  0  0  0
  1  7  1  0  0  0  0
  2  8  1  0  0  0  0
  2  6  2  0  0  0  0
  3  5  1  0  0  0  0
  4  6  1  0  0  0  0
  5  4  2  0  0  0  0
  6 20  1  0  0  0  0
  7  2  1  0  0  0  0
  8 15  2  0  0  0  0
 11  8  1  0  0  0  0
 11 14  2  0  0  0  0
 12 10  1  0  0  0  0
 12  9  2  0  0  0  0
 13 10  2  0  0  0  0
 14 12  1  0  0  0  0
 15 13  1  0  0  0  0
 16 19  1  0  0  0  0
 17 18  2  0  0  0  0
 19 18  1  0  0  0  0
 20 16  2  0  0  0  0
 20 17  1  0  0  0  0
 21  3  1  0  0  0  0
 22 27  1  0  0  0  0
 22 21  1  0  0  0  0
 23 24  1  0  0  0  0
 23 26  1  0  0  0  0
 24 25  1  0  0  0  0
 25 27  1  0  0  0  0
 26 22  1  0  0  0  0
M  END
>  <MODEL>
5

>  <REMARK>
 VINA RESULT:      -7.8      3.719      4.578
  Name = 
  4 active torsions:
  status: ('A' for Active; 'I' for Inactive)
    1  A    between atoms: C_2  and  C_9
    2  A    between atoms: C_7  and  N_8
    3  A    between atoms: C_7  and  C_18
    4  A    between atoms: C_20  and  C_25
                            x       y       z     vdW  Elec       q    Type
                         _______ _______ _______ _____ _____    ______ ____

>  <TORSDO>
F 4

$$$$
=
 OpenBabel10222420183D

 27 30  0  0  1  0  0  0  0  0999 V2000
  186.7820  178.9150  140.7850 N   0  0  0  0  0  0  0  0  0  0  0  0
  184.6530  178.7060  139.4050 C   0  0  0  0  0  0  0  0  0  0  0  0
  187.6730  178.2470  140.1240 C   0  0  0  0  0  0  0  0  0  0  0  0
  186.4820  177.8200  137.9620 C   0  0  0  0  0  3  0  0  0  0  0  0
  187.5800  177.9560  138.6920 C   0  0  0  0  0  3  0  0  0  0  0  0
  185.0750  177.9170  138.3850 C   0  0  0  0  0  0  0  0  0  0  0  0
  185.5460  179.3780  140.3040 N   0  0  0  0  0  2  0  0  0  0  0  0
  183.2220  179.0310  139.5930 C   0  0  0  0  0  0  0  0  0  0  0  0
  179.0850  179.1280  141.0810 O   0  0  0  0  0  0  0  0  0  0  0  0
  180.3400  180.1980  139.5700 N   0  0  0  0  0  0  0  0  0  0  0  0
  182.5450  178.3210  140.5750 C   0  0  0  0  0  3  0  0  0  0  0  0
  180.2120  179.2580  140.5350 C   0  0  0  0  0  0  0  0  0  0  0  0
  181.3960  180.5760  138.8120 C   0  0  0  0  0  3  0  0  0  0  0  0
  181.2260  178.4210  140.9830 C   0  0  0  0  0  3  0  0  0  0  0  0
  182.6820  180.0560  138.8260 C   0  0  0  0  0  3  0  0  0  0  0  0
  183.5680  175.9190  137.8300 C   0  0  0  0  0  3  0  0  0  0  0  0
  183.7130  177.5030  136.2680 C   0  0  0  0  0  3  0  0  0  0  0  0
  182.8960  176.4710  135.8480 C   0  0  0  0  0  3  0  0  0  0  0  0
  182.8100  175.5170  136.7950 N   0  0  0  0  0  0  0  0  0  0  0  0
  184.1230  177.1490  137.5380 C   0  0  2  0  0  3  0  0  0  0  0  0
  188.9540  177.8780  140.8230 C   0  0  0  0  0  2  0  0  0  0  0  0
  188.8880  177.9540  142.2890 N   0  0  0  0  0  0  0  0  0  0  0  0
  190.1510  178.2090  144.3720 C   0  0  0  0  0  2  0  0  0  0  0  0
  189.7510  176.9270  144.7940 O   0  0  0  0  0  0  0  0  0  0  0  0
  188.4210  176.7530  144.3720 C   0  0  0  0  0  2  0  0  0  0  0  0
  190.2130  178.2540  142.8430 C   0  0  0  0  0  2  0  0  0  0  0  0
  188.3670  176.7000  142.8430 C   0  0  0  0  0  2  0  0  0  0  0  0
  2  8  1  0  0  0  0
  2  7  1  0  0  0  0
  3  1  2  0  0  0  0
  3 21  1  0  0  0  0
  4  6  1  0  0  0  0
  4  5  2  0  0  0  0
  5  3  1  0  0  0  0
  6  2  2  0  0  0  0
  7  1  1  0  0  0  0
  8 11  1  0  0  0  0
 10 12  1  0  0  0  0
 11 14  2  0  0  0  0
 12 14  1  0  0  0  0
 12  9  2  0  0  0  0
 13 15  1  0  0  0  0
 13 10  2  0  0  0  0
 15  8  2  0  0  0  0
 17 20  1  0  0  0  0
 18 17  2  0  0  0  0
 18 19  1  0  0  0  0
 19 16  2  0  0  0  0
 20 16  1  0  0  0  0
 20  6  1  6  0  0  0
 21 22  1  0  0  0  0
 22 26  1  0  0  0  0
 22 27  1  0  0  0  0
 23 24  1  0  0  0  0
 25 24  1  0  0  0  0
 26 23  1  0  0  0  0
 27 25  1  0  0  0  0
M  END
>  <MODEL>
6

>  <REMARK>
 VINA RESULT:      -7.5      3.532      8.940
  Name = 
  4 active torsions:
  status: ('A' for Active; 'I' for Inactive)
    1  A    between atoms: C_2  and  C_9
    2  A    between atoms: C_7  and  N_8
    3  A    between atoms: C_7  and  C_18
    4  A    between atoms: C_20  and  C_25
                            x       y       z     vdW  Elec       q    Type
                         _______ _______ _______ _____ _____    ______ ____

>  <TORSDO>
F 4

$$$$
=
 OpenBabel10222420183D

 27 30  0  0  1  0  0  0  0  0999 V2000
  185.1880  178.6010  145.2720 N   0  0  0  0  0  0  0  0  0  0  0  0
  187.5810  177.7360  145.1980 C   0  0  0  0  0  0  0  0  0  0  0  0
  184.8350  178.7070  144.0290 C   0  0  0  0  0  0  0  0  0  0  0  0
  186.7200  177.5360  142.8680 C   0  0  0  0  0  3  0  0  0  0  0  0
  185.4700  177.9720  142.9340 C   0  0  0  0  0  3  0  0  0  0  0  0
  187.7990  177.6730  143.8600 C   0  0  0  0  0  0  0  0  0  0  0  0
  186.2770  177.8740  145.7790 N   0  0  0  0  0  2  0  0  0  0  0  0
  188.6790  177.5470  146.1720 C   0  0  0  0  0  0  0  0  0  0  0  0
  192.4350  176.3180  148.0990 O   0  0  0  0  0  0  0  0  0  0  0  0
  190.6640  177.6030  148.5640 N   0  0  0  0  0  0  0  0  0  0  0  0
  189.7390  176.7480  145.7690 C   0  0  0  0  0  3  0  0  0  0  0  0
  191.3300  176.7840  147.7170 C   0  0  0  0  0  0  0  0  0  0  0  0
  189.4810  178.2510  148.4500 C   0  0  0  0  0  3  0  0  0  0  0  0
  190.8980  176.4140  146.4490 C   0  0  0  0  0  3  0  0  0  0  0  0
  188.5980  178.2280  147.3810 C   0  0  0  0  0  3  0  0  0  0  0  0
  190.1370  178.6190  143.4020 C   0  0  0  0  0  3  0  0  0  0  0  0
  189.6700  176.6540  142.4560 C   0  0  0  0  0  3  0  0  0  0  0  0
  190.9440  177.0710  142.1200 C   0  0  0  0  0  3  0  0  0  0  0  0
  191.2220  178.2580  142.6950 N   0  0  0  0  0  0  0  0  0  0  0  0
  189.1710  177.6390  143.2860 C   0  0  2  0  0  3  0  0  0  0  0  0
  183.6040  179.5100  143.7030 C   0  0  0  0  0  2  0  0  0  0  0  0
  182.4780  178.7140  143.1960 N   0  0  0  0  0  0  0  0  0  0  0  0
  181.0010  178.2580  141.2960 C   0  0  0  0  0  2  0  0  0  0  0  0
  179.8830  178.6790  142.0390 O   0  0  0  0  0  0  0  0  0  0  0  0
  180.0810  178.2400  143.3610 C   0  0  0  0  0  2  0  0  0  0  0  0
  182.2500  179.0020  141.7750 C   0  0  0  0  0  2  0  0  0  0  0  0
  181.2680  178.9830  143.9790 C   0  0  0  0  0  2  0  0  0  0  0  0
  1  7  1  0  0  0  0
  2  7  1  0  0  0  0
  2  8  1  0  0  0  0
  3  1  2  0  0  0  0
  4  5  2  0  0  0  0
  4  6  1  0  0  0  0
  5  3  1  0  0  0  0
  6  2  2  0  0  0  0
  8 15  2  0  0  0  0
 11  8  1  0  0  0  0
 11 14  2  0  0  0  0
 12  9  2  0  0  0  0
 12 10  1  0  0  0  0
 13 10  2  0  0  0  0
 14 12  1  0  0  0  0
 15 13  1  0  0  0  0
 17 20  1  0  0  0  0
 18 17  2  0  0  0  0
 18 19  1  0  0  0  0
 19 16  2  0  0  0  0
 20 16  1  0  0  0  0
 20  6  1  6  0  0  0
 21  3  1  0  0  0  0
 22 21  1  0  0  0  0
 22 27  1  0  0  0  0
 23 26  1  0  0  0  0
 23 24  1  0  0  0  0
 24 25  1  0  0  0  0
 25 27  1  0  0  0  0
 26 22  1  0  0  0  0
M  END
>  <MODEL>
7

>  <REMARK>
 VINA RESULT:      -7.5      2.234      4.146
  Name = 
  4 active torsions:
  status: ('A' for Active; 'I' for Inactive)
    1  A    between atoms: C_2  and  C_9
    2  A    between atoms: C_7  and  N_8
    3  A    between atoms: C_7  and  C_18
    4  A    between atoms: C_20  and  C_25
                            x       y       z     vdW  Elec       q    Type
                         _______ _______ _______ _____ _____    ______ ____

>  <TORSDO>
F 4

$$$$
=
 OpenBabel10222420183D

 27 30  0  0  0  0  0  0  0  0999 V2000
  187.6410  178.5580  139.2430 N   0  0  0  0  0  0  0  0  0  0  0  0
  187.9640  177.8940  141.6790 C   0  0  0  0  0  0  0  0  0  0  0  0
  188.8030  178.3840  138.6950 C   0  0  0  0  0  0  0  0  0  0  0  0
  190.0340  177.1610  140.5010 C   0  0  0  0  0  3  0  0  0  0  0  0
  189.8360  177.4980  139.2340 C   0  0  0  0  0  3  0  0  0  0  0  0
  189.2840  177.5810  141.6960 C   0  0  0  0  0  0  0  0  0  0  0  0
  187.2030  178.0400  140.4720 N   0  0  0  0  0  2  0  0  0  0  0  0
  187.1750  177.9940  142.9270 C   0  0  0  0  0  0  0  0  0  0  0  0
  184.0840  179.0030  145.8870 O   0  0  0  0  0  0  0  0  0  0  0  0
  185.9240  177.7370  145.7610 N   0  0  0  0  0  0  0  0  0  0  0  0
  186.0390  178.7890  142.8840 C   0  0  0  0  0  3  0  0  0  0  0  0
  185.0450  178.5910  145.1860 C   0  0  0  0  0  0  0  0  0  0  0  0
  187.0350  177.1280  145.2850 C   0  0  0  0  0  3  0  0  0  0  0  0
  185.1090  179.0500  143.8770 C   0  0  0  0  0  3  0  0  0  0  0  0
  187.5900  177.2400  144.0190 C   0  0  0  0  0  3  0  0  0  0  0  0
  190.5560  178.6300  143.6590 C   0  0  0  0  0  3  0  0  0  0  0  0
  190.5220  176.4020  143.5890 C   0  0  0  0  0  3  0  0  0  0  0  0
  191.2530  176.8490  144.6730 C   0  0  0  0  0  3  0  0  0  0  0  0
  191.2700  178.1960  144.7120 N   0  0  0  0  0  2  0  0  0  0  0  0
  190.0680  177.5440  142.9600 C   0  0  0  0  0  0  0  0  0  0  0  0
  189.0560  179.0030  137.3460 C   0  0  0  0  0  2  0  0  0  0  0  0
  188.5950  178.1910  136.2110 N   0  0  0  0  0  0  0  0  0  0  0  0
  186.6630  177.3090  134.9920 C   0  0  0  0  0  2  0  0  0  0  0  0
  187.0500  175.9900  135.2950 O   0  0  0  0  0  0  0  0  0  0  0  0
  188.4540  175.9500  135.2330 C   0  0  0  0  0  2  0  0  0  0  0  0
  187.1340  178.2530  136.1010 C   0  0  0  0  0  2  0  0  0  0  0  0
  189.0450  176.8030  136.3580 C   0  0  0  0  0  2  0  0  0  0  0  0
  1  7  1  0  0  0  0
  2  6  2  0  0  0  0
  2  8  1  0  0  0  0
  3  5  1  0  0  0  0
  3  1  2  0  0  0  0
  4  6  1  0  0  0  0
  5  4  2  0  0  0  0
  6 20  1  0  0  0  0
  7  2  1  0  0  0  0
  8 15  2  0  0  0  0
 11  8  1  0  0  0  0
 11 14  2  0  0  0  0
 12 10  1  0  0  0  0
 12  9  2  0  0  0  0
 13 10  2  0  0  0  0
 14 12  1  0  0  0  0
 15 13  1  0  0  0  0
 16 19  1  0  0  0  0
 17 18  2  0  0  0  0
 18 19  1  0  0  0  0
 20 17  1  0  0  0  0
 20 16  2  0  0  0  0
 21  3  1  0  0  0  0
 22 27  1  0  0  0  0
 22 21  1  0  0  0  0
 23 24  1  0  0  0  0
 23 26  1  0  0  0  0
 25 24  1  0  0  0  0
 25 27  1  0  0  0  0
 26 22  1  0  0  0  0
M  END
>  <MODEL>
8

>  <REMARK>
 VINA RESULT:      -7.4      3.767      6.809
  Name = 
  4 active torsions:
  status: ('A' for Active; 'I' for Inactive)
    1  A    between atoms: C_2  and  C_9
    2  A    between atoms: C_7  and  N_8
    3  A    between atoms: C_7  and  C_18
    4  A    between atoms: C_20  and  C_25
                            x       y       z     vdW  Elec       q    Type
                         _______ _______ _______ _____ _____    ______ ____

>  <TORSDO>
F 4

$$$$
=
 OpenBabel10222420183D

 27 30  0  0  0  0  0  0  0  0999 V2000
  191.0340  176.4470  138.9590 N   0  0  0  0  0  0  0  0  0  0  0  0
  190.1540  177.2510  141.2080 C   0  0  0  0  0  0  0  0  0  0  0  0
  190.0280  176.5550  138.1500 C   0  0  0  0  0  0  0  0  0  0  0  0
  188.4000  177.8540  139.5420 C   0  0  0  0  0  3  0  0  0  0  0  0
  188.8870  177.4440  138.3790 C   0  0  0  0  0  3  0  0  0  0  0  0
  188.8610  177.5280  140.9020 C   0  0  0  0  0  0  0  0  0  0  0  0
  191.1730  177.0520  140.2180 N   0  0  0  0  0  2  0  0  0  0  0  0
  190.6370  177.2500  142.6060 C   0  0  0  0  0  0  0  0  0  0  0  0
  192.2110  176.0050  146.5180 O   0  0  0  0  0  0  0  0  0  0  0  0
  191.6340  177.8990  145.4780 N   0  0  0  0  0  0  0  0  0  0  0  0
  190.9900  176.0210  143.1430 C   0  0  0  0  0  3  0  0  0  0  0  0
  191.7760  176.5530  145.4720 C   0  0  0  0  0  0  0  0  0  0  0  0
  191.2030  178.7660  144.5330 C   0  0  0  0  0  3  0  0  0  0  0  0
  191.4860  175.7190  144.4000 C   0  0  0  0  0  3  0  0  0  0  0  0
  190.7610  178.4760  143.2500 C   0  0  0  0  0  3  0  0  0  0  0  0
  186.8290  178.5910  142.0470 C   0  0  0  0  0  3  0  0  0  0  0  0
  187.6990  176.8020  143.0540 C   0  0  0  0  0  3  0  0  0  0  0  0
  186.6280  177.2990  143.7730 C   0  0  0  0  0  3  0  0  0  0  0  0
  186.1050  178.3790  143.1600 N   0  0  0  0  0  2  0  0  0  0  0  0
  187.8070  177.6220  141.9490 C   0  0  0  0  0  0  0  0  0  0  0  0
  190.0980  175.8480  136.8230 C   0  0  0  0  0  2  0  0  0  0  0  0
  191.2710  174.9770  136.6620 N   0  0  0  0  0  0  0  0  0  0  0  0
  193.3720  174.5960  135.4620 C   0  0  0  0  0  2  0  0  0  0  0  0
  192.8730  173.3920  134.9310 O   0  0  0  0  0  0  0  0  0  0  0  0
  192.1000  172.7880  135.9390 C   0  0  0  0  0  2  0  0  0  0  0  0
  192.2170  175.5700  135.7100 C   0  0  0  0  0  2  0  0  0  0  0  0
  190.8600  173.6410  136.2190 C   0  0  0  0  0  2  0  0  0  0  0  0
  1  7  1  0  0  0  0
  2  8  1  0  0  0  0
  3  5  1  0  0  0  0
  3  1  2  0  0  0  0
  4  6  1  0  0  0  0
  5  4  2  0  0  0  0
  6  2  2  0  0  0  0
  6 20  1  0  0  0  0
  7  2  1  0  0  0  0
  8 11  1  0  0  0  0
  8 15  2  0  0  0  0
 11 14  2  0  0  0  0
 12 10  1  0  0  0  0
 12  9  2  0  0  0  0
 13 10  2  0  0  0  0
 14 12  1  0  0  0  0
 15 13  1  0  0  0  0
 16 19  1  0  0  0  0
 17 18  2  0  0  0  0
 19 18  1  0  0  0  0
 20 16  2  0  0  0  0
 20 17  1  0  0  0  0
 21  3  1  0  0  0  0
 22 21  1  0  0  0  0
 23 26  1  0  0  0  0
 24 23  1  0  0  0  0
 24 25  1  0  0  0  0
 25 27  1  0  0  0  0
 26 22  1  0  0  0  0
 27 22  1  0  0  0  0
M  END
>  <MODEL>
9

>  <REMARK>
 VINA RESULT:      -7.4      4.716      8.597
  Name = 
  4 active torsions:
  status: ('A' for Active; 'I' for Inactive)
    1  A    between atoms: C_2  and  C_9
    2  A    between atoms: C_7  and  N_8
    3  A    between atoms: C_7  and  C_18
    4  A    between atoms: C_20  and  C_25
                            x       y       z     vdW  Elec       q    Type
                         _______ _______ _______ _____ _____    ______ ____

>  <TORSDO>
F 4

$$$$
