=
 OpenBabel10222417033D

 55 59  0  0  1  0  0  0  0  0999 V2000
  189.8550  177.3030  139.9450 C   0  0  0  0  0  3  0  0  0  0  0  0
  188.8600  177.2040  138.9670 C   0  0  0  0  0  3  0  0  0  0  0  0
  187.6020  177.7830  139.1810 C   0  0  0  0  0  0  0  0  0  0  0  0
  188.3710  178.5560  141.3650 C   0  0  0  0  0  3  0  0  0  0  0  0
  187.3680  178.4540  140.3890 C   0  0  0  0  0  3  0  0  0  0  0  0
  189.6280  178.0000  141.1420 C   0  0  0  0  0  0  0  0  0  0  0  0
  185.9490  176.3180  138.0690 C   0  0  0  0  0  3  0  0  0  0  0  0
  184.8790  177.8010  135.5850 C   0  0  0  0  0  0  0  0  0  0  0  0
  183.0120  174.3400  137.3350 C   0  0  0  0  0  2  0  0  0  0  0  0
  184.4440  174.5830  137.4040 N   0  0  0  0  0  0  0  0  0  0  0  0
  186.5280  177.6930  138.1310 C   0  0  2  0  0  3  0  0  0  0  0  0
  185.3110  173.4960  137.8440 C   0  0  0  0  0  1  0  0  0  0  0  0
  182.3530  175.2530  136.4020 N   0  0  0  0  0  0  0  0  0  0  0  0
  182.8250  176.4010  135.9740 C   0  0  0  0  0  0  0  0  0  0  0  0
  187.0760  178.0780  136.8060 C   0  0  0  0  0  3  0  0  0  0  0  0
  184.2080  178.5140  134.5940 O   0  0  0  0  0  1  0  0  0  0  0  0
  184.2340  176.8200  136.3070 C   0  0  0  0  0  0  0  0  0  0  0  0
  182.0040  177.1240  135.0570 N   0  0  0  0  0  2  0  0  0  0  0  0
  186.3220  178.1370  135.7000 C   0  0  0  0  0  3  0  0  0  0  0  0
  184.9390  175.9290  137.2740 C   0  0  0  0  0  0  0  0  0  0  0  0
  180.1910  178.0540  138.8350 C   0  0  0  0  0  0  0  0  0  0  0  0
  178.9310  181.4810  138.3450 C   0  0  0  0  0  1  0  0  0  0  0  0
  181.3240  176.0070  139.7760 C   0  0  0  0  0  1  0  0  0  0  0  0
  179.9530  179.9110  136.5960 C   0  0  0  0  0  0  0  0  0  0  0  0
  180.5100  178.5950  136.2780 C   0  0  0  0  0  0  0  0  0  0  0  0
  179.9140  177.1950  137.2660 S   0  0  0  0  0  0  0  0  0  0  0  0
  179.8410  179.3030  138.9570 N   0  0  0  0  0  0  0  0  0  0  0  0
  181.4650  178.4270  135.3510 C   0  0  0  0  0  3  0  0  0  0  0  0
  179.1750  180.0370  137.8920 C   0  0  1  0  0  3  0  0  0  0  0  0
  179.9300  180.8910  135.6710 C   0  0  0  0  0  2  0  0  0  0  0  0
  180.6290  177.8670  141.2830 C   0  0  0  0  0  1  0  0  0  0  0  0
  180.8490  177.3750  139.9280 N   0  0  0  0  0  0  0  0  0  0  0  0
  191.5760  176.8190  142.3550 C   0  0  0  0  0  0  0  0  0  0  0  0
  190.0870  178.3260  143.4660 O   0  0  0  0  0  0  0  0  0  0  0  0
  190.8470  177.6970  144.4620 C   0  0  2  0  0  3  0  0  0  0  0  0
  192.7270  177.0210  141.6060 F   0  0  0  0  0  0  0  0  0  0  0  0
  191.9320  176.8360  143.8220 C   0  0  1  0  0  3  0  0  0  0  0  0
  192.0310  175.5510  144.3740 O   0  0  0  0  0  1  0  0  0  0  0  0
  190.6560  178.0240  142.2260 C   0  0  2  0  0  3  0  0  0  0  0  0
  190.9420  175.6280  141.9830 F   0  0  0  0  0  0  0  0  0  0  0  0
  189.9360  177.0400  145.5230 C   0  0  2  0  0  3  0  0  0  0  0  0
  188.4910  176.7120  145.0870 C   0  0  0  0  0  2  0  0  0  0  0  0
  188.4600  176.0780  143.8350 O   0  0  0  0  0  1  0  0  0  0  0  0
  190.0910  177.6670  146.9270 C   0  0  2  0  0  3  0  0  0  0  0  0
  192.0830  177.5560  148.4390 O   0  0  0  0  0  1  0  0  0  0  0  0
  191.1210  175.6280  147.6630 O   0  0  0  0  0  0  0  0  0  0  0  0
  191.1190  176.8870  147.6970 C   0  0  0  0  0  0  0  0  0  0  0  0
  188.9630  178.1870  149.1660 C   0  0  0  0  0  1  0  0  0  0  0  0
  188.7580  177.8030  147.7100 C   0  0  1  0  0  3  0  0  0  0  0  0
  187.8240  178.8190  147.0700 C   0  0  0  0  0  2  0  0  0  0  0  0
  186.3820  178.5890  147.5410 C   0  0  0  0  0  2  0  0  0  0  0  0
  184.1540  178.1460  146.7910 F   0  0  0  0  0  0  0  0  0  0  0  0
  185.4160  178.5090  146.3500 C   0  0  0  0  0  0  0  0  0  0  0  0
  185.8670  177.5530  145.4560 F   0  0  0  0  0  0  0  0  0  0  0  0
  185.3420  179.7440  145.7180 F   0  0  0  0  0  0  0  0  0  0  0  0
  1  6  1  0  0  0  0
  2  3  1  0  0  0  0
  2  1  2  0  0  0  0
  3  5  2  0  0  0  0
  5  4  1  0  0  0  0
  6  4  2  0  0  0  0
  7 11  1  0  0  0  0
  8 19  1  0  0  0  0
  8 17  2  0  0  0  0
  9 10  1  0  0  0  0
 10 12  1  0  0  0  0
 11  3  1  1  0  0  0
 13  9  1  0  0  0  0
 14 17  1  0  0  0  0
 14 13  2  0  0  0  0
 15 11  1  0  0  0  0
 16  8  1  0  0  0  0
 17 20  1  0  0  0  0
 18 28  1  0  0  0  0
 18 14  1  0  0  0  0
 19 15  2  0  0  0  0
 20 10  1  0  0  0  0
 20  7  2  0  0  0  0
 21 27  2  0  0  0  0
 21 32  1  0  0  0  0
 23 32  1  0  0  0  0
 24 29  1  0  0  0  0
 25 24  1  0  0  0  0
 25 26  1  0  0  0  0
 26 21  1  0  0  0  0
 28 25  2  0  0  0  0
 29 22  1  1  0  0  0
 29 27  1  0  0  0  0
 30 24  2  0  0  0  0
 32 31  1  0  0  0  0
 33 37  1  0  0  0  0
 34 35  1  0  0  0  0
 35 41  1  6  0  0  0
 36 33  1  0  0  0  0
 37 38  1  1  0  0  0
 37 35  1  0  0  0  0
 39  6  1  6  0  0  0
 39 33  1  0  0  0  0
 39 34  1  0  0  0  0
 40 33  1  0  0  0  0
 41 42  1  6  0  0  0
 41 44  1  0  0  0  0
 43 42  1  0  0  0  0
 44 47  1  1  0  0  0
 44 49  1  0  0  0  0
 46 47  2  0  0  0  0
 47 45  1  0  0  0  0
 49 48  1  1  0  0  0
 50 51  1  0  0  0  0
 50 49  1  0  0  0  0
 53 52  1  0  0  0  0
 53 51  1  0  0  0  0
 54 53  1  0  0  0  0
 55 53  1  0  0  0  0
M  END
>  <MODEL>
1

>  <REMARK>
 VINA RESULT:      -6.5      0.000      0.000
  Name = 
  11 active torsions:
  status: ('A' for Active; 'I' for Inactive)
    1  A    between atoms: C_8  and  C_35
    2  A    between atoms: C_13  and  C_34
    3  A    between atoms: C_16  and  C_34
    4  A    between atoms: C_23  and  C_34
    5  A    between atoms: C_23  and  C_50
    6  A    between atoms: C_23  and  C_53
    7  A    between atoms: C_28  and  N_44
    8  A    between atoms: C_37  and  C_39
    9  A    between atoms: C_37  and  C_47
   10  A    between atoms: C_41  and  C_46
   11  A    between atoms: C_47  and  C_53
                            x       y       z     vdW  Elec       q    Type
                         _______ _______ _______ _____ _____    ______ ____

>  <TORSDO>
F 11

$$$$
=
 OpenBabel10222417033D

 55 59  0  0  1  0  0  0  0  0999 V2000
  183.5340  175.7440  135.9390 C   0  0  0  0  0  3  0  0  0  0  0  0
  184.9160  175.6010  135.7670 C   0  0  0  0  0  3  0  0  0  0  0  0
  185.8040  176.3070  136.5890 C   0  0  0  0  0  0  0  0  0  0  0  0
  183.8930  177.2900  137.7460 C   0  0  0  0  0  3  0  0  0  0  0  0
  185.2790  177.1540  137.5740 C   0  0  0  0  0  3  0  0  0  0  0  0
  183.0110  176.5700  136.9450 C   0  0  0  0  0  0  0  0  0  0  0  0
  188.0330  176.8770  137.4960 C   0  0  0  0  0  3  0  0  0  0  0  0
  190.1500  176.0690  135.4020 C   0  0  0  0  0  0  0  0  0  0  0  0
  191.0300  176.9740  139.5170 C   0  0  0  0  0  2  0  0  0  0  0  0
  189.9140  177.5700  138.8000 N   0  0  0  0  0  0  0  0  0  0  0  0
  187.2920  176.1530  136.4210 C   0  0  2  0  0  3  0  0  0  0  0  0
  189.2290  178.7060  139.4050 C   0  0  0  0  0  1  0  0  0  0  0  0
  191.9340  176.2620  138.6140 N   0  0  0  0  0  0  0  0  0  0  0  0
  191.6440  175.8240  137.4110 C   0  0  0  0  0  0  0  0  0  0  0  0
  187.7100  176.6510  135.0860 C   0  0  0  0  0  3  0  0  0  0  0  0
  191.1430  175.5200  134.5940 O   0  0  0  0  0  1  0  0  0  0  0  0
  190.3300  176.1790  136.7640 C   0  0  0  0  0  0  0  0  0  0  0  0
  192.6930  175.1560  136.7080 N   0  0  0  0  0  2  0  0  0  0  0  0
  188.9750  176.5840  134.6520 C   0  0  0  0  0  3  0  0  0  0  0  0
  189.3670  176.8890  137.6550 C   0  0  0  0  0  0  0  0  0  0  0  0
  196.1680  172.8180  135.7690 C   0  0  0  0  0  0  0  0  0  0  0  0
  194.7470  169.6290  134.5940 C   0  0  0  0  0  1  0  0  0  0  0  0
  197.5450  174.5510  136.9790 C   0  0  0  0  0  1  0  0  0  0  0  0
  193.5030  171.7990  135.1550 C   0  0  0  0  0  0  0  0  0  0  0  0
  193.5710  173.2010  135.5720 C   0  0  0  0  0  0  0  0  0  0  0  0
  195.0760  174.1130  135.1320 S   0  0  0  0  0  0  0  0  0  0  0  0
  195.9070  171.5680  135.5110 N   0  0  0  0  0  0  0  0  0  0  0  0
  192.6050  173.7760  136.3040 C   0  0  0  0  0  3  0  0  0  0  0  0
  194.7910  171.1590  134.6720 C   0  0  1  0  0  3  0  0  0  0  0  0
  192.3140  171.1870  134.9840 C   0  0  0  0  0  2  0  0  0  0  0  0
  198.4060  172.2280  136.7010 C   0  0  0  0  0  1  0  0  0  0  0  0
  197.2920  173.1650  136.6100 N   0  0  0  0  0  0  0  0  0  0  0  0
  180.8500  177.5740  135.9540 C   0  0  0  0  0  0  0  0  0  0  0  0
  181.2050  177.3420  138.3080 O   0  0  0  0  0  0  0  0  0  0  0  0
  180.0600  178.1340  138.1460 C   0  0  2  0  0  3  0  0  0  0  0  0
  180.3790  176.6970  134.9870 F   0  0  0  0  0  0  0  0  0  0  0  0
  179.6750  178.1960  136.6710 C   0  0  1  0  0  3  0  0  0  0  0  0
  179.3830  179.4900  136.2170 O   0  0  0  0  0  1  0  0  0  0  0  0
  181.5400  176.7970  137.0660 C   0  0  2  0  0  3  0  0  0  0  0  0
  181.6880  178.5390  135.3850 F   0  0  0  0  0  0  0  0  0  0  0  0
  180.1950  179.4690  138.9130 C   0  0  2  0  0  3  0  0  0  0  0  0
  181.5990  180.1110  138.9430 C   0  0  0  0  0  2  0  0  0  0  0  0
  181.8460  180.8690  137.7880 O   0  0  0  0  0  1  0  0  0  0  0  0
  179.4180  179.4800  140.2490 C   0  0  2  0  0  3  0  0  0  0  0  0
  179.3150  181.2010  142.0640 O   0  0  0  0  0  1  0  0  0  0  0  0
  179.0670  181.8250  139.8740 O   0  0  0  0  0  0  0  0  0  0  0  0
  179.2620  180.9020  140.7090 C   0  0  0  0  0  0  0  0  0  0  0  0
  179.4720  177.1680  141.3490 C   0  0  0  0  0  1  0  0  0  0  0  0
  180.0400  178.5780  141.3490 C   0  0  1  0  0  3  0  0  0  0  0  0
  181.5530  178.4890  141.2240 C   0  0  0  0  0  2  0  0  0  0  0  0
  182.2280  179.1170  142.4500 C   0  0  0  0  0  2  0  0  0  0  0  0
  183.7720  177.8720  143.7860 F   0  0  0  0  0  0  0  0  0  0  0  0
  183.6650  178.6050  142.6150 C   0  0  0  0  0  0  0  0  0  0  0  0
  184.5320  179.6820  142.6840 F   0  0  0  0  0  0  0  0  0  0  0  0
  184.0060  177.7980  141.5370 F   0  0  0  0  0  0  0  0  0  0  0  0
  1  6  1  0  0  0  0
  2  1  2  0  0  0  0
  2  3  1  0  0  0  0
  3  5  2  0  0  0  0
  5  4  1  0  0  0  0
  6  4  2  0  0  0  0
  7 20  2  0  0  0  0
  8 17  2  0  0  0  0
 10 12  1  0  0  0  0
 10  9  1  0  0  0  0
 11  3  1  1  0  0  0
 11  7  1  0  0  0  0
 13  9  1  0  0  0  0
 14 13  2  0  0  0  0
 15 11  1  0  0  0  0
 16  8  1  0  0  0  0
 17 14  1  0  0  0  0
 17 20  1  0  0  0  0
 18 14  1  0  0  0  0
 19 15  2  0  0  0  0
 19  8  1  0  0  0  0
 20 10  1  0  0  0  0
 21 32  1  0  0  0  0
 24 25  1  0  0  0  0
 25 28  2  0  0  0  0
 26 25  1  0  0  0  0
 26 21  1  0  0  0  0
 27 21  2  0  0  0  0
 28 18  1  0  0  0  0
 29 22  1  1  0  0  0
 29 24  1  0  0  0  0
 29 27  1  0  0  0  0
 30 24  2  0  0  0  0
 32 31  1  0  0  0  0
 32 23  1  0  0  0  0
 33 37  1  0  0  0  0
 33 39  1  0  0  0  0
 35 34  1  0  0  0  0
 35 41  1  6  0  0  0
 36 33  1  0  0  0  0
 37 38  1  6  0  0  0
 37 35  1  0  0  0  0
 39  6  1  6  0  0  0
 39 34  1  0  0  0  0
 40 33  1  0  0  0  0
 41 42  1  1  0  0  0
 41 44  1  0  0  0  0
 43 42  1  0  0  0  0
 44 47  1  1  0  0  0
 44 49  1  0  0  0  0
 46 47  2  0  0  0  0
 47 45  1  0  0  0  0
 49 48  1  6  0  0  0
 50 49  1  0  0  0  0
 50 51  1  0  0  0  0
 51 53  1  0  0  0  0
 53 54  1  0  0  0  0
 53 52  1  0  0  0  0
 55 53  1  0  0  0  0
M  END
>  <MODEL>
2

>  <REMARK>
 VINA RESULT:      -6.5      6.150     11.416
  Name = 
  11 active torsions:
  status: ('A' for Active; 'I' for Inactive)
    1  A    between atoms: C_8  and  C_35
    2  A    between atoms: C_13  and  C_34
    3  A    between atoms: C_16  and  C_34
    4  A    between atoms: C_23  and  C_34
    5  A    between atoms: C_23  and  C_50
    6  A    between atoms: C_23  and  C_53
    7  A    between atoms: C_28  and  N_44
    8  A    between atoms: C_37  and  C_39
    9  A    between atoms: C_37  and  C_47
   10  A    between atoms: C_41  and  C_46
   11  A    between atoms: C_47  and  C_53
                            x       y       z     vdW  Elec       q    Type
                         _______ _______ _______ _____ _____    ______ ____

>  <TORSDO>
F 11

$$$$
=
 OpenBabel10222417033D

 55 59  0  0  1  0  0  0  0  0999 V2000
  188.1410  178.5960  142.4750 C   0  0  0  0  0  3  0  0  0  0  0  0
  187.0560  178.6140  141.5930 C   0  0  0  0  0  3  0  0  0  0  0  0
  187.1490  177.9740  140.3500 C   0  0  0  0  0  0  0  0  0  0  0  0
  189.4300  177.3080  140.9050 C   0  0  0  0  0  3  0  0  0  0  0  0
  188.3470  177.3270  140.0140 C   0  0  0  0  0  3  0  0  0  0  0  0
  189.3290  177.9240  142.1510 C   0  0  0  0  0  0  0  0  0  0  0  0
  186.4480  177.9490  137.9780 C   0  0  0  0  0  3  0  0  0  0  0  0
  183.4270  178.5600  137.8700 C   0  0  0  0  0  0  0  0  0  0  0  0
  185.6860  176.9040  134.6010 C   0  0  0  0  0  2  0  0  0  0  0  0
  186.2720  177.7850  135.5990 N   0  0  0  0  0  0  0  0  0  0  0  0
  185.9840  177.9760  139.3960 C   0  0  2  0  0  3  0  0  0  0  0  0
  187.5960  178.3390  135.3410 C   0  0  0  0  0  1  0  0  0  0  0  0
  184.2270  176.8720  134.7000 N   0  0  0  0  0  0  0  0  0  0  0  0
  183.5110  177.2150  135.7450 C   0  0  0  0  0  0  0  0  0  0  0  0
  185.1320  179.1690  139.6340 C   0  0  0  0  0  3  0  0  0  0  0  0
  182.0370  178.6060  137.7880 O   0  0  0  0  0  1  0  0  0  0  0  0
  184.1650  177.8560  136.9420 C   0  0  0  0  0  0  0  0  0  0  0  0
  182.0930  177.1050  135.6090 N   0  0  0  0  0  2  0  0  0  0  0  0
  183.9970  179.3930  138.9600 C   0  0  0  0  0  3  0  0  0  0  0  0
  185.6550  177.8920  136.8960 C   0  0  0  0  0  0  0  0  0  0  0  0
  182.6880  172.8540  135.6280 C   0  0  0  0  0  0  0  0  0  0  0  0
  179.9530  171.6290  137.7720 C   0  0  0  0  0  1  0  0  0  0  0  0
  184.9530  173.2600  134.5960 C   0  0  0  0  0  1  0  0  0  0  0  0
  180.3370  174.0130  136.9110 C   0  0  0  0  0  0  0  0  0  0  0  0
  181.1370  174.9290  136.0960 C   0  0  0  0  0  0  0  0  0  0  0  0
  181.9890  174.2160  134.6620 S   0  0  0  0  0  0  0  0  0  0  0  0
  181.9400  172.2220  136.4880 N   0  0  0  0  0  0  0  0  0  0  0  0
  181.2980  176.2210  136.4210 C   0  0  0  0  0  3  0  0  0  0  0  0
  180.5290  172.5280  136.6710 C   0  0  1  0  0  3  0  0  0  0  0  0
  179.3140  174.4710  137.6600 C   0  0  0  0  0  2  0  0  0  0  0  0
  184.5050  171.1610  135.8620 C   0  0  0  0  0  1  0  0  0  0  0  0
  184.0840  172.5060  135.4880 N   0  0  0  0  0  0  0  0  0  0  0  0
  191.3420  176.7180  143.2250 C   0  0  0  0  0  0  0  0  0  0  0  0
  190.1920  178.5210  144.2990 O   0  0  0  0  0  0  0  0  0  0  0  0
  191.0500  177.9590  145.2550 C   0  0  2  0  0  3  0  0  0  0  0  0
  192.3660  176.6860  142.2890 F   0  0  0  0  0  0  0  0  0  0  0  0
  191.9360  176.9030  144.6010 C   0  0  1  0  0  3  0  0  0  0  0  0
  192.0150  175.7050  145.3260 O   0  0  0  0  0  1  0  0  0  0  0  0
  190.5200  177.9870  143.0500 C   0  0  2  0  0  3  0  0  0  0  0  0
  190.5560  175.5640  143.1430 F   0  0  0  0  0  0  0  0  0  0  0  0
  190.2740  177.5610  146.5310 C   0  0  2  0  0  3  0  0  0  0  0  0
  190.3350  176.0730  146.9420 C   0  0  0  0  0  2  0  0  0  0  0  0
  191.3950  175.8250  147.8270 O   0  0  0  0  0  1  0  0  0  0  0  0
  188.8850  178.2320  146.6290 C   0  0  2  0  0  3  0  0  0  0  0  0
  187.3290  178.9740  148.4440 O   0  0  0  0  0  0  0  0  0  0  0  0
  189.4940  178.4170  148.9440 O   0  0  0  0  0  1  0  0  0  0  0  0
  188.5940  178.5380  148.0700 C   0  0  0  0  0  0  0  0  0  0  0  0
  186.8530  176.7120  146.9750 C   0  0  0  0  0  1  0  0  0  0  0  0
  187.7420  177.4190  145.9650 C   0  0  1  0  0  3  0  0  0  0  0  0
  186.8650  178.2910  145.0790 C   0  0  0  0  0  2  0  0  0  0  0  0
  185.4540  177.6960  144.9730 C   0  0  0  0  0  2  0  0  0  0  0  0
  185.0600  179.9880  144.4150 F   0  0  0  0  0  0  0  0  0  0  0  0
  184.4220  178.7760  144.6250 C   0  0  0  0  0  0  0  0  0  0  0  0
  183.5320  178.9190  145.6760 F   0  0  0  0  0  0  0  0  0  0  0  0
  183.7320  178.4180  143.4730 F   0  0  0  0  0  0  0  0  0  0  0  0
  2  1  2  0  0  0  0
  3  2  1  0  0  0  0
  4  6  2  0  0  0  0
  5  3  2  0  0  0  0
  5  4  1  0  0  0  0
  6  1  1  0  0  0  0
  7 11  1  0  0  0  0
  8 19  1  0  0  0  0
  9 13  1  0  0  0  0
  9 10  1  0  0  0  0
 10 20  1  0  0  0  0
 11 15  1  0  0  0  0
 11  3  1  1  0  0  0
 12 10  1  0  0  0  0
 13 14  2  0  0  0  0
 14 17  1  0  0  0  0
 16  8  1  0  0  0  0
 17  8  2  0  0  0  0
 18 14  1  0  0  0  0
 18 28  1  0  0  0  0
 19 15  2  0  0  0  0
 20 17  1  0  0  0  0
 20  7  2  0  0  0  0
 21 27  2  0  0  0  0
 23 32  1  0  0  0  0
 24 30  2  0  0  0  0
 25 28  2  0  0  0  0
 25 24  1  0  0  0  0
 26 21  1  0  0  0  0
 26 25  1  0  0  0  0
 27 29  1  0  0  0  0
 29 24  1  0  0  0  0
 29 22  1  1  0  0  0
 32 21  1  0  0  0  0
 32 31  1  0  0  0  0
 33 37  1  0  0  0  0
 34 35  1  0  0  0  0
 35 41  1  1  0  0  0
 36 33  1  0  0  0  0
 37 35  1  0  0  0  0
 37 38  1  1  0  0  0
 39  6  1  1  0  0  0
 39 33  1  0  0  0  0
 39 34  1  0  0  0  0
 40 33  1  0  0  0  0
 41 44  1  0  0  0  0
 41 42  1  6  0  0  0
 42 43  1  0  0  0  0
 44 47  1  1  0  0  0
 47 45  2  0  0  0  0
 47 46  1  0  0  0  0
 49 44  1  0  0  0  0
 49 48  1  1  0  0  0
 50 49  1  0  0  0  0
 51 50  1  0  0  0  0
 52 53  1  0  0  0  0
 53 51  1  0  0  0  0
 53 54  1  0  0  0  0
 55 53  1  0  0  0  0
M  END
>  <MODEL>
3

>  <REMARK>
 VINA RESULT:      -6.1      2.383      4.045
  Name = 
  11 active torsions:
  status: ('A' for Active; 'I' for Inactive)
    1  A    between atoms: C_8  and  C_35
    2  A    between atoms: C_13  and  C_34
    3  A    between atoms: C_16  and  C_34
    4  A    between atoms: C_23  and  C_34
    5  A    between atoms: C_23  and  C_50
    6  A    between atoms: C_23  and  C_53
    7  A    between atoms: C_28  and  N_44
    8  A    between atoms: C_37  and  C_39
    9  A    between atoms: C_37  and  C_47
   10  A    between atoms: C_41  and  C_46
   11  A    between atoms: C_47  and  C_53
                            x       y       z     vdW  Elec       q    Type
                         _______ _______ _______ _____ _____    ______ ____

>  <TORSDO>
F 11

$$$$
=
 OpenBabel10222417033D

 55 59  0  0  1  0  0  0  0  0999 V2000
  186.8360  177.3000  143.5560 C   0  0  0  0  0  3  0  0  0  0  0  0
  186.2710  177.4440  142.2840 C   0  0  0  0  0  3  0  0  0  0  0  0
  184.9530  177.8980  142.1470 C   0  0  0  0  0  0  0  0  0  0  0  0
  184.7940  178.0580  144.5770 C   0  0  0  0  0  3  0  0  0  0  0  0
  184.2210  178.1990  143.3030 C   0  0  0  0  0  3  0  0  0  0  0  0
  186.1120  177.6280  144.7120 C   0  0  0  0  0  0  0  0  0  0  0  0
  185.3840  178.0640  139.7170 C   0  0  0  0  0  3  0  0  0  0  0  0
  182.7800  178.9890  138.3470 C   0  0  0  0  0  0  0  0  0  0  0  0
  186.1370  177.2730  136.2690 C   0  0  0  0  0  2  0  0  0  0  0  0
  186.2770  178.0370  137.4990 N   0  0  0  0  0  0  0  0  0  0  0  0
  184.3390  178.0680  140.7830 C   0  0  2  0  0  3  0  0  0  0  0  0
  187.6120  178.4630  137.9010 C   0  0  0  0  0  1  0  0  0  0  0  0
  184.7880  177.3870  135.7130 N   0  0  0  0  0  0  0  0  0  0  0  0
  183.7080  177.7500  136.3630 C   0  0  0  0  0  0  0  0  0  0  0  0
  183.5580  179.3300  140.7290 C   0  0  0  0  0  3  0  0  0  0  0  0
  181.5800  179.1840  137.6670 O   0  0  0  0  0  1  0  0  0  0  0  0
  183.8020  178.2600  137.7790 C   0  0  0  0  0  0  0  0  0  0  0  0
  182.4960  177.7950  135.6090 N   0  0  0  0  0  2  0  0  0  0  0  0
  182.8610  179.7040  139.6480 C   0  0  0  0  0  3  0  0  0  0  0  0
  185.1550  178.1430  138.3960 C   0  0  0  0  0  0  0  0  0  0  0  0
  182.7690  173.5120  135.7110 C   0  0  0  0  0  0  0  0  0  0  0  0
  179.2790  172.4570  136.2420 C   0  0  0  0  0  1  0  0  0  0  0  0
  185.2710  173.7700  135.8960 C   0  0  0  0  0  1  0  0  0  0  0  0
  180.1600  174.8190  135.7770 C   0  0  0  0  0  0  0  0  0  0  0  0
  181.3020  175.6870  135.4830 C   0  0  0  0  0  0  0  0  0  0  0  0
  182.6930  174.9350  134.5940 S   0  0  0  0  0  0  0  0  0  0  0  0
  181.6670  172.9240  136.0830 N   0  0  0  0  0  0  0  0  0  0  0  0
  181.3610  176.9590  135.9050 C   0  0  0  0  0  3  0  0  0  0  0  0
  180.3590  173.3270  135.5900 C   0  0  1  0  0  3  0  0  0  0  0  0
  178.9320  175.3390  135.9720 C   0  0  0  0  0  2  0  0  0  0  0  0
  184.1560  171.6900  136.7000 C   0  0  0  0  0  1  0  0  0  0  0  0
  184.0410  173.0670  136.2330 N   0  0  0  0  0  0  0  0  0  0  0  0
  186.7470  178.5620  147.0330 C   0  0  0  0  0  0  0  0  0  0  0  0
  187.9240  176.7520  146.0020 O   0  0  0  0  0  0  0  0  0  0  0  0
  188.6790  177.1470  147.1150 C   0  0  2  0  0  3  0  0  0  0  0  0
  185.5920  178.6120  147.8000 F   0  0  0  0  0  0  0  0  0  0  0  0
  187.9140  178.1940  147.9190 C   0  0  1  0  0  3  0  0  0  0  0  0
  188.6900  179.3020  148.2860 O   0  0  0  0  0  1  0  0  0  0  0  0
  186.6790  177.3840  146.0720 C   0  0  2  0  0  3  0  0  0  0  0  0
  186.9560  179.7750  146.3670 F   0  0  0  0  0  0  0  0  0  0  0  0
  190.1350  177.4700  146.7110 C   0  0  2  0  0  3  0  0  0  0  0  0
  190.3270  178.5300  145.6040 C   0  0  0  0  0  2  0  0  0  0  0  0
  191.6820  178.6990  145.2780 O   0  0  0  0  0  1  0  0  0  0  0  0
  191.0270  176.2130  146.6030 C   0  0  2  0  0  3  0  0  0  0  0  0
  192.1580  177.3760  148.5090 O   0  0  0  0  0  1  0  0  0  0  0  0
  192.9650  175.3740  147.7450 O   0  0  0  0  0  0  0  0  0  0  0  0
  192.1020  176.2870  147.6500 C   0  0  0  0  0  0  0  0  0  0  0  0
  192.3090  174.6280  145.0520 C   0  0  0  0  0  1  0  0  0  0  0  0
  191.6130  175.9720  145.1850 C   0  0  1  0  0  3  0  0  0  0  0  0
  190.5460  176.0710  144.1050 C   0  0  0  0  0  2  0  0  0  0  0  0
  191.1970  176.1550  142.7180 C   0  0  0  0  0  2  0  0  0  0  0  0
  189.4920  176.5000  141.0770 F   0  0  0  0  0  0  0  0  0  0  0  0
  190.4600  177.1570  141.8190 C   0  0  0  0  0  0  0  0  0  0  0  0
  191.3630  177.7460  140.9500 F   0  0  0  0  0  0  0  0  0  0  0  0
  189.8540  178.1350  142.5980 F   0  0  0  0  0  0  0  0  0  0  0  0
  1  6  1  0  0  0  0
  2  1  2  0  0  0  0
  3  2  1  0  0  0  0
  3  5  2  0  0  0  0
  4  6  2  0  0  0  0
  5  4  1  0  0  0  0
  7 11  1  0  0  0  0
  8 19  1  0  0  0  0
  9 10  1  0  0  0  0
 10 12  1  0  0  0  0
 10 20  1  0  0  0  0
 11  3  1  1  0  0  0
 13  9  1  0  0  0  0
 13 14  2  0  0  0  0
 14 17  1  0  0  0  0
 15 11  1  0  0  0  0
 16  8  1  0  0  0  0
 17  8  2  0  0  0  0
 17 20  1  0  0  0  0
 18 28  1  0  0  0  0
 18 14  1  0  0  0  0
 19 15  2  0  0  0  0
 20  7  2  0  0  0  0
 21 27  2  0  0  0  0
 21 32  1  0  0  0  0
 23 32  1  0  0  0  0
 24 30  2  0  0  0  0
 25 24  1  0  0  0  0
 25 28  2  0  0  0  0
 26 25  1  0  0  0  0
 26 21  1  0  0  0  0
 29 24  1  0  0  0  0
 29 27  1  0  0  0  0
 29 22  1  1  0  0  0
 32 31  1  0  0  0  0
 33 36  1  0  0  0  0
 33 37  1  0  0  0  0
 34 39  1  0  0  0  0
 34 35  1  0  0  0  0
 35 41  1  6  0  0  0
 35 37  1  0  0  0  0
 37 38  1  6  0  0  0
 39  6  1  6  0  0  0
 39 33  1  0  0  0  0
 40 33  1  0  0  0  0
 41 42  1  6  0  0  0
 43 42  1  0  0  0  0
 44 41  1  0  0  0  0
 44 47  1  1  0  0  0
 47 46  2  0  0  0  0
 47 45  1  0  0  0  0
 49 48  1  1  0  0  0
 49 44  1  0  0  0  0
 50 49  1  0  0  0  0
 51 50  1  0  0  0  0
 52 53  1  0  0  0  0
 53 55  1  0  0  0  0
 53 51  1  0  0  0  0
 54 53  1  0  0  0  0
M  END
>  <MODEL>
4

>  <REMARK>
 VINA RESULT:      -5.9      2.369      5.183
  Name = 
  11 active torsions:
  status: ('A' for Active; 'I' for Inactive)
    1  A    between atoms: C_8  and  C_35
    2  A    between atoms: C_13  and  C_34
    3  A    between atoms: C_16  and  C_34
    4  A    between atoms: C_23  and  C_34
    5  A    between atoms: C_23  and  C_50
    6  A    between atoms: C_23  and  C_53
    7  A    between atoms: C_28  and  N_44
    8  A    between atoms: C_37  and  C_39
    9  A    between atoms: C_37  and  C_47
   10  A    between atoms: C_41  and  C_46
   11  A    between atoms: C_47  and  C_53
                            x       y       z     vdW  Elec       q    Type
                         _______ _______ _______ _____ _____    ______ ____

>  <TORSDO>
F 11

$$$$
=
 OpenBabel10222417033D

 55 59  0  0  1  0  0  0  0  0999 V2000
  190.2250  176.1180  138.4450 C   0  0  0  0  0  3  0  0  0  0  0  0
  188.8790  176.3720  138.1620 C   0  0  0  0  0  3  0  0  0  0  0  0
  188.2170  175.6370  137.1690 C   0  0  0  0  0  0  0  0  0  0  0  0
  190.2810  174.4000  136.7610 C   0  0  0  0  0  3  0  0  0  0  0  0
  188.9320  174.6550  136.4700 C   0  0  0  0  0  3  0  0  0  0  0  0
  190.9320  175.1140  137.7640 C   0  0  0  0  0  0  0  0  0  0  0  0
  186.0500  174.6230  136.5430 C   0  0  0  0  0  3  0  0  0  0  0  0
  184.1150  176.9020  135.7830 C   0  0  0  0  0  0  0  0  0  0  0  0
  182.8920  172.8630  136.6360 C   0  0  0  0  0  2  0  0  0  0  0  0
  184.1930  173.1920  136.0740 N   0  0  0  0  0  0  0  0  0  0  0  0
  186.7650  175.8940  136.8640 C   0  0  2  0  0  3  0  0  0  0  0  0
  185.0080  172.1100  135.5350 C   0  0  0  0  0  1  0  0  0  0  0  0
  181.9920  174.0160  136.6240 N   0  0  0  0  0  0  0  0  0  0  0  0
  182.3450  175.2770  136.5310 C   0  0  0  0  0  0  0  0  0  0  0  0
  186.6420  176.8500  135.7360 C   0  0  0  0  0  3  0  0  0  0  0  0
  183.1480  177.8970  135.6520 O   0  0  0  0  0  1  0  0  0  0  0  0
  183.7790  175.6510  136.2550 C   0  0  0  0  0  0  0  0  0  0  0  0
  181.2860  176.2360  136.5350 N   0  0  0  0  0  2  0  0  0  0  0  0
  185.4600  177.2960  135.2900 C   0  0  0  0  0  3  0  0  0  0  0  0
  184.7380  174.5090  136.2790 C   0  0  0  0  0  0  0  0  0  0  0  0
  179.2520  175.4510  140.2320 C   0  0  0  0  0  0  0  0  0  0  0  0
  179.2330  178.7360  141.8990 C   0  0  0  0  0  1  0  0  0  0  0  0
  179.5110  172.9900  139.7430 C   0  0  0  0  0  1  0  0  0  0  0  0
  179.9880  178.1820  139.5120 C   0  0  0  0  0  0  0  0  0  0  0  0
  180.1480  177.1780  138.4590 C   0  0  0  0  0  0  0  0  0  0  0  0
  178.9860  175.7850  138.4730 S   0  0  0  0  0  0  0  0  0  0  0  0
  179.2970  176.4410  141.0780 N   0  0  0  0  0  0  0  0  0  0  0  0
  181.1440  177.2360  137.5610 C   0  0  0  0  0  3  0  0  0  0  0  0
  179.0840  177.8230  140.6770 C   0  0  1  0  0  3  0  0  0  0  0  0
  180.4290  179.4430  139.3360 C   0  0  0  0  0  2  0  0  0  0  0  0
  179.1930  173.7820  142.0850 C   0  0  0  0  0  1  0  0  0  0  0  0
  179.4710  174.0970  140.6890 N   0  0  0  0  0  0  0  0  0  0  0  0
  193.3450  175.9970  137.5250 C   0  0  0  0  0  0  0  0  0  0  0  0
  192.8170  173.6640  137.5250 O   0  0  0  0  0  0  0  0  0  0  0  0
  194.1590  173.7770  137.1350 C   0  0  2  0  0  3  0  0  0  0  0  0
  193.5670  176.9070  138.5490 F   0  0  0  0  0  0  0  0  0  0  0  0
  194.6170  175.2270  137.2640 C   0  0  1  0  0  3  0  0  0  0  0  0
  195.3200  175.6990  136.1460 O   0  0  0  0  0  1  0  0  0  0  0  0
  192.3920  174.9080  137.9980 C   0  0  2  0  0  3  0  0  0  0  0  0
  192.8780  176.6450  136.3760 F   0  0  0  0  0  0  0  0  0  0  0  0
  194.4080  173.0590  135.7890 C   0  0  2  0  0  3  0  0  0  0  0  0
  193.2030  172.9510  134.8290 C   0  0  0  0  0  2  0  0  0  0  0  0
  192.6150  174.2040  134.5940 O   0  0  0  0  0  1  0  0  0  0  0  0
  195.2730  171.7870  135.9330 C   0  0  2  0  0  3  0  0  0  0  0  0
  193.5870  170.0210  136.4860 O   0  0  0  0  0  0  0  0  0  0  0  0
  194.9700  170.8400  138.1180 O   0  0  0  0  0  1  0  0  0  0  0  0
  194.6120  170.8570  136.9100 C   0  0  0  0  0  0  0  0  0  0  0  0
  197.6930  170.9490  135.8890 C   0  0  0  0  0  1  0  0  0  0  0  0
  196.7530  172.0680  136.3090 C   0  0  1  0  0  3  0  0  0  0  0  0
  197.2550  173.3710  135.7050 C   0  0  0  0  0  2  0  0  0  0  0  0
  198.5480  173.8170  136.4000 C   0  0  0  0  0  2  0  0  0  0  0  0
  198.4700  175.5660  138.0290 F   0  0  0  0  0  0  0  0  0  0  0  0
  198.2880  174.2030  137.8620 C   0  0  0  0  0  0  0  0  0  0  0  0
  199.1800  173.5310  138.6810 F   0  0  0  0  0  0  0  0  0  0  0  0
  196.9860  173.8680  138.2150 F   0  0  0  0  0  0  0  0  0  0  0  0
  2  1  1  0  0  0  0
  3  2  2  0  0  0  0
  4  6  1  0  0  0  0
  5  4  2  0  0  0  0
  5  3  1  0  0  0  0
  6  1  2  0  0  0  0
  7 11  1  0  0  0  0
  8 17  2  0  0  0  0
 10 20  1  0  0  0  0
 10  9  1  0  0  0  0
 11  3  1  6  0  0  0
 12 10  1  0  0  0  0
 13  9  1  0  0  0  0
 14 18  1  0  0  0  0
 14 13  2  0  0  0  0
 15 11  1  0  0  0  0
 16  8  1  0  0  0  0
 17 20  1  0  0  0  0
 17 14  1  0  0  0  0
 18 28  1  0  0  0  0
 19 15  2  0  0  0  0
 19  8  1  0  0  0  0
 20  7  2  0  0  0  0
 21 32  1  0  0  0  0
 21 27  2  0  0  0  0
 23 32  1  0  0  0  0
 24 29  1  0  0  0  0
 25 26  1  0  0  0  0
 25 24  1  0  0  0  0
 26 21  1  0  0  0  0
 28 25  2  0  0  0  0
 29 27  1  0  0  0  0
 29 22  1  1  0  0  0
 30 24  2  0  0  0  0
 32 31  1  0  0  0  0
 33 39  1  0  0  0  0
 33 36  1  0  0  0  0
 34 39  1  0  0  0  0
 35 41  1  6  0  0  0
 35 37  1  0  0  0  0
 35 34  1  0  0  0  0
 37 38  1  6  0  0  0
 37 33  1  0  0  0  0
 39  6  1  6  0  0  0
 40 33  1  0  0  0  0
 41 42  1  1  0  0  0
 41 44  1  0  0  0  0
 43 42  1  0  0  0  0
 44 49  1  0  0  0  0
 44 47  1  1  0  0  0
 45 47  2  0  0  0  0
 47 46  1  0  0  0  0
 49 48  1  6  0  0  0
 50 49  1  0  0  0  0
 50 51  1  0  0  0  0
 51 53  1  0  0  0  0
 53 52  1  0  0  0  0
 53 55  1  0  0  0  0
 53 54  1  0  0  0  0
M  END
>  <MODEL>
5

>  <REMARK>
 VINA RESULT:      -5.5      5.737      8.334
  Name = 
  11 active torsions:
  status: ('A' for Active; 'I' for Inactive)
    1  A    between atoms: C_8  and  C_35
    2  A    between atoms: C_13  and  C_34
    3  A    between atoms: C_16  and  C_34
    4  A    between atoms: C_23  and  C_34
    5  A    between atoms: C_23  and  C_50
    6  A    between atoms: C_23  and  C_53
    7  A    between atoms: C_28  and  N_44
    8  A    between atoms: C_37  and  C_39
    9  A    between atoms: C_37  and  C_47
   10  A    between atoms: C_41  and  C_46
   11  A    between atoms: C_47  and  C_53
                            x       y       z     vdW  Elec       q    Type
                         _______ _______ _______ _____ _____    ______ ____

>  <TORSDO>
F 11

$$$$
=
 OpenBabel10222417033D

 55 59  0  0  1  0  0  0  0  0999 V2000
  190.8620  177.2320  141.7440 C   0  0  0  0  0  3  0  0  0  0  0  0
  190.2130  177.1140  140.5110 C   0  0  0  0  0  3  0  0  0  0  0  0
  188.8870  177.5440  140.3690 C   0  0  0  0  0  0  0  0  0  0  0  0
  188.8900  178.2070  142.7180 C   0  0  0  0  0  3  0  0  0  0  0  0
  188.2330  178.0860  141.4840 C   0  0  0  0  0  3  0  0  0  0  0  0
  190.2160  177.8020  142.8520 C   0  0  0  0  0  0  0  0  0  0  0  0
  188.5070  176.1430  138.3670 C   0  0  0  0  0  3  0  0  0  0  0  0
  187.0610  177.8660  136.2570 C   0  0  0  0  0  0  0  0  0  0  0  0
  187.3390  173.5730  136.1060 C   0  0  0  0  0  2  0  0  0  0  0  0
  188.3550  174.4080  136.7280 N   0  0  0  0  0  0  0  0  0  0  0  0
  188.1810  177.4330  139.0440 C   0  0  2  0  0  3  0  0  0  0  0  0
  189.6330  173.8000  137.0770 C   0  0  0  0  0  1  0  0  0  0  0  0
  186.3830  174.3690  135.3370 N   0  0  0  0  0  0  0  0  0  0  0  0
  186.1540  175.6540  135.4720 C   0  0  0  0  0  0  0  0  0  0  0  0
  188.5510  178.5760  138.1720 C   0  0  0  0  0  3  0  0  0  0  0  0
  186.2160  178.5290  135.3700 O   0  0  0  0  0  1  0  0  0  0  0  0
  187.0210  176.4940  136.3760 C   0  0  0  0  0  0  0  0  0  0  0  0
  185.1730  176.2210  134.6030 N   0  0  0  0  0  2  0  0  0  0  0  0
  188.0260  178.7560  136.9530 C   0  0  0  0  0  3  0  0  0  0  0  0
  187.9980  175.7220  137.1980 C   0  0  0  0  0  0  0  0  0  0  0  0
  181.9080  173.8830  136.1170 C   0  0  0  0  0  0  0  0  0  0  0  0
  179.2910  176.3980  136.7490 C   0  0  0  0  0  1  0  0  0  0  0  0
  183.5210  171.9600  136.3620 C   0  0  0  0  0  1  0  0  0  0  0  0
  181.5540  176.7310  135.5910 C   0  0  0  0  0  0  0  0  0  0  0  0
  182.8000  176.1410  135.1010 C   0  0  0  0  0  0  0  0  0  0  0  0
  182.7370  174.4010  134.5940 S   0  0  0  0  0  0  0  0  0  0  0  0
  180.9260  174.5960  136.5930 N   0  0  0  0  0  0  0  0  0  0  0  0
  183.9570  176.8210  135.0860 C   0  0  0  0  0  3  0  0  0  0  0  0
  180.4190  175.7790  135.9150 C   0  0  1  0  0  3  0  0  0  0  0  0
  181.3500  178.0630  135.5300 C   0  0  0  0  0  2  0  0  0  0  0  0
  181.4400  172.0400  137.7320 C   0  0  0  0  0  1  0  0  0  0  0  0
  182.3700  172.7160  136.8340 N   0  0  0  0  0  0  0  0  0  0  0  0
  191.4360  176.5360  144.7410 C   0  0  0  0  0  0  0  0  0  0  0  0
  190.0580  178.4480  145.1490 O   0  0  0  0  0  0  0  0  0  0  0  0
  190.3500  177.8840  146.3980 C   0  0  2  0  0  3  0  0  0  0  0  0
  192.7670  176.4030  144.3710 F   0  0  0  0  0  0  0  0  0  0  0  0
  191.3580  176.7510  146.2340 C   0  0  1  0  0  3  0  0  0  0  0  0
  191.0160  175.5850  146.9340 O   0  0  0  0  0  1  0  0  0  0  0  0
  190.8740  177.8390  144.1920 C   0  0  2  0  0  3  0  0  0  0  0  0
  190.6920  175.4250  144.3300 F   0  0  0  0  0  0  0  0  0  0  0  0
  189.0560  177.5900  147.1900 C   0  0  2  0  0  3  0  0  0  0  0  0
  188.8070  176.1180  147.5870 C   0  0  0  0  0  2  0  0  0  0  0  0
  187.9270  176.0180  148.6760 O   0  0  0  0  0  1  0  0  0  0  0  0
  187.8290  178.3610  146.6540 C   0  0  2  0  0  3  0  0  0  0  0  0
  187.5670  178.7940  149.1060 O   0  0  0  0  0  1  0  0  0  0  0  0
  186.0770  179.6900  147.6150 O   0  0  0  0  0  0  0  0  0  0  0  0
  187.1080  178.9920  147.8100 C   0  0  0  0  0  0  0  0  0  0  0  0
  185.7250  176.9040  146.5600 C   0  0  0  0  0  1  0  0  0  0  0  0
  186.8790  177.5050  145.7740 C   0  0  1  0  0  3  0  0  0  0  0  0
  186.3070  178.3030  144.6120 C   0  0  0  0  0  2  0  0  0  0  0  0
  184.7820  178.4120  144.7390 C   0  0  0  0  0  2  0  0  0  0  0  0
  183.7340  180.4820  144.1570 F   0  0  0  0  0  0  0  0  0  0  0  0
  184.1940  179.2880  143.6240 C   0  0  0  0  0  0  0  0  0  0  0  0
  183.1330  178.6270  143.0300 F   0  0  0  0  0  0  0  0  0  0  0  0
  185.1690  179.5590  142.6710 F   0  0  0  0  0  0  0  0  0  0  0  0
  1  6  1  0  0  0  0
  2  1  2  0  0  0  0
  3  2  1  0  0  0  0
  3  5  2  0  0  0  0
  4  6  2  0  0  0  0
  5  4  1  0  0  0  0
  7 11  1  0  0  0  0
  8 17  2  0  0  0  0
  8 19  1  0  0  0  0
  9 10  1  0  0  0  0
 10 12  1  0  0  0  0
 10 20  1  0  0  0  0
 11  3  1  1  0  0  0
 13 14  2  0  0  0  0
 13  9  1  0  0  0  0
 14 17  1  0  0  0  0
 15 11  1  0  0  0  0
 16  8  1  0  0  0  0
 17 20  1  0  0  0  0
 18 28  1  0  0  0  0
 18 14  1  0  0  0  0
 19 15  2  0  0  0  0
 20  7  2  0  0  0  0
 21 27  2  0  0  0  0
 21 32  1  0  0  0  0
 23 32  1  0  0  0  0
 24 29  1  0  0  0  0
 25 24  1  0  0  0  0
 26 25  1  0  0  0  0
 26 21  1  0  0  0  0
 28 25  2  0  0  0  0
 29 27  1  0  0  0  0
 29 22  1  1  0  0  0
 30 24  2  0  0  0  0
 32 31  1  0  0  0  0
 33 37  1  0  0  0  0
 34 35  1  0  0  0  0
 35 41  1  6  0  0  0
 36 33  1  0  0  0  0
 37 35  1  0  0  0  0
 37 38  1  1  0  0  0
 39  6  1  6  0  0  0
 39 33  1  0  0  0  0
 39 34  1  0  0  0  0
 40 33  1  0  0  0  0
 41 42  1  6  0  0  0
 42 43  1  0  0  0  0
 44 41  1  0  0  0  0
 44 47  1  1  0  0  0
 46 47  2  0  0  0  0
 47 45  1  0  0  0  0
 49 48  1  1  0  0  0
 49 44  1  0  0  0  0
 50 51  1  0  0  0  0
 50 49  1  0  0  0  0
 53 52  1  0  0  0  0
 53 51  1  0  0  0  0
 54 53  1  0  0  0  0
 55 53  1  0  0  0  0
M  END
>  <MODEL>
6

>  <REMARK>
 VINA RESULT:      -5.3      2.414      3.602
  Name = 
  11 active torsions:
  status: ('A' for Active; 'I' for Inactive)
    1  A    between atoms: C_8  and  C_35
    2  A    between atoms: C_13  and  C_34
    3  A    between atoms: C_16  and  C_34
    4  A    between atoms: C_23  and  C_34
    5  A    between atoms: C_23  and  C_50
    6  A    between atoms: C_23  and  C_53
    7  A    between atoms: C_28  and  N_44
    8  A    between atoms: C_37  and  C_39
    9  A    between atoms: C_37  and  C_47
   10  A    between atoms: C_41  and  C_46
   11  A    between atoms: C_47  and  C_53
                            x       y       z     vdW  Elec       q    Type
                         _______ _______ _______ _____ _____    ______ ____

>  <TORSDO>
F 11

$$$$
=
 OpenBabel10222417033D

 55 59  0  0  1  0  0  0  0  0999 V2000
  190.0370  177.5400  140.5540 C   0  0  0  0  0  3  0  0  0  0  0  0
  189.1880  177.4070  139.4510 C   0  0  0  0  0  3  0  0  0  0  0  0
  187.8630  177.8570  139.5240 C   0  0  0  0  0  0  0  0  0  0  0  0
  188.2720  178.5710  141.8220 C   0  0  0  0  0  3  0  0  0  0  0  0
  187.4140  178.4340  140.7190 C   0  0  0  0  0  3  0  0  0  0  0  0
  189.5950  178.1450  141.7400 C   0  0  0  0  0  0  0  0  0  0  0  0
  186.5590  176.3060  138.1070 C   0  0  0  0  0  3  0  0  0  0  0  0
  185.6110  177.8580  135.6150 C   0  0  0  0  0  0  0  0  0  0  0  0
  184.0120  174.0600  136.8610 C   0  0  0  0  0  2  0  0  0  0  0  0
  185.3820  174.4670  137.1310 N   0  0  0  0  0  0  0  0  0  0  0  0
  186.9430  177.7290  138.3390 C   0  0  2  0  0  3  0  0  0  0  0  0
  186.3230  173.4580  137.6030 C   0  0  0  0  0  1  0  0  0  0  0  0
  183.3570  174.9660  135.9160 N   0  0  0  0  0  0  0  0  0  0  0  0
  183.7240  176.1940  135.6350 C   0  0  0  0  0  0  0  0  0  0  0  0
  187.5910  178.2890  137.1270 C   0  0  0  0  0  3  0  0  0  0  0  0
  184.9770  178.5680  134.5980 O   0  0  0  0  0  1  0  0  0  0  0  0
  185.0170  176.7480  136.1760 C   0  0  0  0  0  0  0  0  0  0  0  0
  182.9320  176.8900  134.6720 N   0  0  0  0  0  2  0  0  0  0  0  0
  186.9740  178.3530  135.9400 C   0  0  0  0  0  3  0  0  0  0  0  0
  185.7100  175.8690  137.1620 C   0  0  0  0  0  0  0  0  0  0  0  0
  181.0780  177.5100  138.4930 C   0  0  0  0  0  0  0  0  0  0  0  0
  179.2730  180.6900  138.0500 C   0  0  0  0  0  1  0  0  0  0  0  0
  182.5470  175.6700  139.3990 C   0  0  0  0  0  1  0  0  0  0  0  0
  180.4950  179.3080  136.2700 C   0  0  0  0  0  0  0  0  0  0  0  0
  181.2490  178.0990  135.9330 C   0  0  0  0  0  0  0  0  0  0  0  0
  180.9090  176.6200  136.9260 S   0  0  0  0  0  0  0  0  0  0  0  0
  180.5350  178.6860  138.6300 N   0  0  0  0  0  0  0  0  0  0  0  0
  182.1980  178.0890  134.9850 C   0  0  0  0  0  3  0  0  0  0  0  0
  179.7370  179.3050  137.5830 C   0  0  1  0  0  3  0  0  0  0  0  0
  180.2940  180.2730  135.3510 C   0  0  0  0  0  2  0  0  0  0  0  0
  181.5960  177.3910  140.9310 C   0  0  0  0  0  1  0  0  0  0  0  0
  181.8620  176.9430  139.5680 N   0  0  0  0  0  0  0  0  0  0  0  0
  191.3750  177.0070  143.2230 C   0  0  0  0  0  0  0  0  0  0  0  0
  189.7420  178.5200  144.0970 O   0  0  0  0  0  0  0  0  0  0  0  0
  190.3690  177.9190  145.1970 C   0  0  2  0  0  3  0  0  0  0  0  0
  192.6130  177.2070  142.6280 F   0  0  0  0  0  0  0  0  0  0  0  0
  191.5350  177.0570  144.7240 C   0  0  1  0  0  3  0  0  0  0  0  0
  191.5710  175.7830  145.3100 O   0  0  0  0  0  1  0  0  0  0  0  0
  190.4710  178.2000  142.9490 C   0  0  2  0  0  3  0  0  0  0  0  0
  190.8050  175.8030  142.7950 F   0  0  0  0  0  0  0  0  0  0  0  0
  189.3310  177.2730  146.1430 C   0  0  2  0  0  3  0  0  0  0  0  0
  188.4970  176.1090  145.5630 C   0  0  0  0  0  2  0  0  0  0  0  0
  188.1210  176.3530  144.2330 O   0  0  0  0  0  1  0  0  0  0  0  0
  188.5520  178.3080  146.9850 C   0  0  2  0  0  3  0  0  0  0  0  0
  190.3600  178.0740  148.7000 O   0  0  0  0  0  0  0  0  0  0  0  0
  188.1720  178.2530  149.3540 O   0  0  0  0  0  1  0  0  0  0  0  0
  189.0090  178.2160  148.4130 C   0  0  0  0  0  0  0  0  0  0  0  0
  186.2710  178.8100  148.0360 C   0  0  0  0  0  1  0  0  0  0  0  0
  187.0090  178.1920  146.8600 C   0  0  1  0  0  3  0  0  0  0  0  0
  186.4930  178.8290  145.5790 C   0  0  0  0  0  2  0  0  0  0  0  0
  185.0080  178.4980  145.3780 C   0  0  0  0  0  2  0  0  0  0  0  0
  185.2880  179.9640  143.5090 F   0  0  0  0  0  0  0  0  0  0  0  0
  184.5350  178.8970  143.9740 C   0  0  0  0  0  0  0  0  0  0  0  0
  183.2060  179.2800  144.0270 F   0  0  0  0  0  0  0  0  0  0  0  0
  184.6790  177.8230  143.1040 F   0  0  0  0  0  0  0  0  0  0  0  0
  1  6  1  0  0  0  0
  2  3  1  0  0  0  0
  2  1  2  0  0  0  0
  3  5  2  0  0  0  0
  5  4  1  0  0  0  0
  6  4  2  0  0  0  0
  7 11  1  0  0  0  0
  8 19  1  0  0  0  0
  8 17  2  0  0  0  0
  9 10  1  0  0  0  0
 10 20  1  0  0  0  0
 10 12  1  0  0  0  0
 11  3  1  1  0  0  0
 13  9  1  0  0  0  0
 14 13  2  0  0  0  0
 14 17  1  0  0  0  0
 15 11  1  0  0  0  0
 16  8  1  0  0  0  0
 17 20  1  0  0  0  0
 18 28  1  0  0  0  0
 18 14  1  0  0  0  0
 19 15  2  0  0  0  0
 20  7  2  0  0  0  0
 21 27  2  0  0  0  0
 21 32  1  0  0  0  0
 23 32  1  0  0  0  0
 24 29  1  0  0  0  0
 25 24  1  0  0  0  0
 25 26  1  0  0  0  0
 26 21  1  0  0  0  0
 28 25  2  0  0  0  0
 29 22  1  1  0  0  0
 29 27  1  0  0  0  0
 30 24  2  0  0  0  0
 32 31  1  0  0  0  0
 33 37  1  0  0  0  0
 34 35  1  0  0  0  0
 35 41  1  6  0  0  0
 36 33  1  0  0  0  0
 37 35  1  0  0  0  0
 37 38  1  1  0  0  0
 39  6  1  6  0  0  0
 39 33  1  0  0  0  0
 39 34  1  0  0  0  0
 40 33  1  0  0  0  0
 41 42  1  6  0  0  0
 41 44  1  0  0  0  0
 43 42  1  0  0  0  0
 44 47  1  1  0  0  0
 47 45  2  0  0  0  0
 47 46  1  0  0  0  0
 49 44  1  0  0  0  0
 49 48  1  1  0  0  0
 50 49  1  0  0  0  0
 51 50  1  0  0  0  0
 52 53  1  0  0  0  0
 53 54  1  0  0  0  0
 53 51  1  0  0  0  0
 55 53  1  0  0  0  0
M  END
>  <MODEL>
7

>  <REMARK>
 VINA RESULT:      -5.2      1.237      1.557
  Name = 
  11 active torsions:
  status: ('A' for Active; 'I' for Inactive)
    1  A    between atoms: C_8  and  C_35
    2  A    between atoms: C_13  and  C_34
    3  A    between atoms: C_16  and  C_34
    4  A    between atoms: C_23  and  C_34
    5  A    between atoms: C_23  and  C_50
    6  A    between atoms: C_23  and  C_53
    7  A    between atoms: C_28  and  N_44
    8  A    between atoms: C_37  and  C_39
    9  A    between atoms: C_37  and  C_47
   10  A    between atoms: C_41  and  C_46
   11  A    between atoms: C_47  and  C_53
                            x       y       z     vdW  Elec       q    Type
                         _______ _______ _______ _____ _____    ______ ____

>  <TORSDO>
F 11

$$$$
=
 OpenBabel10222417033D

 55 59  0  0  1  0  0  0  0  0999 V2000
  184.1910  177.1340  136.2840 C   0  0  0  0  0  3  0  0  0  0  0  0
  185.5810  177.1020  136.4410 C   0  0  0  0  0  3  0  0  0  0  0  0
  186.3500  176.1860  135.7110 C   0  0  0  0  0  0  0  0  0  0  0  0
  184.3050  175.3500  134.6750 C   0  0  0  0  0  3  0  0  0  0  0  0
  185.6990  175.3090  134.8330 C   0  0  0  0  0  3  0  0  0  0  0  0
  183.5430  176.2760  135.3820 C   0  0  0  0  0  0  0  0  0  0  0  0
  188.2700  176.7270  137.1730 C   0  0  0  0  0  3  0  0  0  0  0  0
  190.8520  176.4050  135.5150 C   0  0  0  0  0  0  0  0  0  0  0  0
  190.7440  176.6650  139.8110 C   0  0  0  0  0  2  0  0  0  0  0  0
  189.7550  177.3040  138.9560 N   0  0  0  0  0  0  0  0  0  0  0  0
  187.8480  176.1490  135.8630 C   0  0  2  0  0  3  0  0  0  0  0  0
  188.8530  178.2820  139.5530 C   0  0  0  0  0  1  0  0  0  0  0  0
  191.8820  176.1660  139.0390 N   0  0  0  0  0  0  0  0  0  0  0  0
  191.8990  175.9180  137.7510 C   0  0  0  0  0  0  0  0  0  0  0  0
  188.4920  176.8860  134.7460 C   0  0  0  0  0  3  0  0  0  0  0  0
  192.0420  176.0570  134.8800 O   0  0  0  0  0  1  0  0  0  0  0  0
  190.7260  176.2980  136.8830 C   0  0  0  0  0  0  0  0  0  0  0  0
  193.1320  175.4400  137.2110 N   0  0  0  0  0  2  0  0  0  0  0  0
  189.8210  176.9670  134.6040 C   0  0  0  0  0  3  0  0  0  0  0  0
  189.5320  176.7910  137.6290 C   0  0  0  0  0  0  0  0  0  0  0  0
  196.9290  173.4890  136.7660 C   0  0  0  0  0  0  0  0  0  0  0  0
  196.1030  170.4640  134.8320 C   0  0  0  0  0  1  0  0  0  0  0  0
  197.8410  175.0710  138.5060 C   0  0  0  0  0  1  0  0  0  0  0  0
  194.5710  172.4380  135.4060 C   0  0  0  0  0  0  0  0  0  0  0  0
  194.4150  173.7520  136.0310 C   0  0  0  0  0  0  0  0  0  0  0  0
  195.8890  174.8080  136.0930 S   0  0  0  0  0  0  0  0  0  0  0  0
  196.8480  172.2860  136.2710 N   0  0  0  0  0  0  0  0  0  0  0  0
  193.2630  174.1440  136.5970 C   0  0  0  0  0  3  0  0  0  0  0  0
  195.9870  171.9600  135.1450 C   0  0  1  0  0  3  0  0  0  0  0  0
  193.5100  171.7970  134.8760 C   0  0  0  0  0  2  0  0  0  0  0  0
  198.9520  172.8790  138.0920 C   0  0  0  0  0  1  0  0  0  0  0  0
  197.8040  173.7550  137.8860 N   0  0  0  0  0  0  0  0  0  0  0  0
  181.2580  176.9410  136.3800 C   0  0  0  0  0  0  0  0  0  0  0  0
  181.5780  174.9420  135.1050 O   0  0  0  0  0  0  0  0  0  0  0  0
  180.3040  174.8560  135.6830 C   0  0  2  0  0  3  0  0  0  0  0  0
  181.0010  178.2550  136.0140 F   0  0  0  0  0  0  0  0  0  0  0  0
  179.9610  176.1670  136.3840 C   0  0  1  0  0  3  0  0  0  0  0  0
  179.4320  175.9980  137.6720 O   0  0  0  0  0  1  0  0  0  0  0  0
  182.0530  176.2440  135.2860 C   0  0  2  0  0  3  0  0  0  0  0  0
  181.9060  176.8870  137.6190 F   0  0  0  0  0  0  0  0  0  0  0  0
  180.1470  173.5450  136.4870 C   0  0  2  0  0  3  0  0  0  0  0  0
  180.4210  173.6270  138.0050 C   0  0  0  0  0  2  0  0  0  0  0  0
  179.2840  173.2910  138.7550 O   0  0  0  0  0  1  0  0  0  0  0  0
  180.7350  172.3150  135.7600 C   0  0  2  0  0  3  0  0  0  0  0  0
  178.9330  170.9510  136.8370 O   0  0  0  0  0  1  0  0  0  0  0  0
  179.5100  170.5730  134.6530 O   0  0  0  0  0  0  0  0  0  0  0  0
  179.6920  171.2350  135.7090 C   0  0  0  0  0  0  0  0  0  0  0  0
  182.4060  170.3820  135.9410 C   0  0  0  0  0  1  0  0  0  0  0  0
  182.0720  171.8040  136.3620 C   0  0  1  0  0  3  0  0  0  0  0  0
  183.2420  172.7030  135.9930 C   0  0  0  0  0  2  0  0  0  0  0  0
  184.3160  172.6580  137.0880 C   0  0  0  0  0  2  0  0  0  0  0  0
  185.7190  172.5430  135.1540 F   0  0  0  0  0  0  0  0  0  0  0  0
  185.6810  172.2610  136.5100 C   0  0  0  0  0  0  0  0  0  0  0  0
  185.8780  170.9020  136.6870 F   0  0  0  0  0  0  0  0  0  0  0  0
  186.6900  172.9670  137.1530 F   0  0  0  0  0  0  0  0  0  0  0  0
  1  2  1  0  0  0  0
  3  2  2  0  0  0  0
  4  5  2  0  0  0  0
  4  6  1  0  0  0  0
  5  3  1  0  0  0  0
  6  1  2  0  0  0  0
  7 20  2  0  0  0  0
  8 17  2  0  0  0  0
 10 12  1  0  0  0  0
 10  9  1  0  0  0  0
 11  3  1  6  0  0  0
 11  7  1  0  0  0  0
 13  9  1  0  0  0  0
 14 13  2  0  0  0  0
 15 11  1  0  0  0  0
 16  8  1  0  0  0  0
 17 20  1  0  0  0  0
 17 14  1  0  0  0  0
 18 14  1  0  0  0  0
 19 15  2  0  0  0  0
 19  8  1  0  0  0  0
 20 10  1  0  0  0  0
 21 32  1  0  0  0  0
 24 25  1  0  0  0  0
 25 26  1  0  0  0  0
 25 28  2  0  0  0  0
 26 21  1  0  0  0  0
 27 21  2  0  0  0  0
 28 18  1  0  0  0  0
 29 22  1  1  0  0  0
 29 24  1  0  0  0  0
 29 27  1  0  0  0  0
 30 24  2  0  0  0  0
 32 31  1  0  0  0  0
 32 23  1  0  0  0  0
 33 37  1  0  0  0  0
 33 40  1  0  0  0  0
 34 39  1  0  0  0  0
 34 35  1  0  0  0  0
 35 37  1  0  0  0  0
 35 41  1  1  0  0  0
 36 33  1  0  0  0  0
 37 38  1  1  0  0  0
 39  6  1  1  0  0  0
 39 33  1  0  0  0  0
 41 42  1  1  0  0  0
 42 43  1  0  0  0  0
 44 47  1  1  0  0  0
 44 49  1  0  0  0  0
 44 41  1  0  0  0  0
 46 47  2  0  0  0  0
 47 45  1  0  0  0  0
 49 48  1  6  0  0  0
 50 49  1  0  0  0  0
 50 51  1  0  0  0  0
 52 53  1  0  0  0  0
 53 54  1  0  0  0  0
 53 51  1  0  0  0  0
 53 55  1  0  0  0  0
M  END
>  <MODEL>
8

>  <REMARK>
 VINA RESULT:      -4.5      6.578     12.663
  Name = 
  11 active torsions:
  status: ('A' for Active; 'I' for Inactive)
    1  A    between atoms: C_8  and  C_35
    2  A    between atoms: C_13  and  C_34
    3  A    between atoms: C_16  and  C_34
    4  A    between atoms: C_23  and  C_34
    5  A    between atoms: C_23  and  C_50
    6  A    between atoms: C_23  and  C_53
    7  A    between atoms: C_28  and  N_44
    8  A    between atoms: C_37  and  C_39
    9  A    between atoms: C_37  and  C_47
   10  A    between atoms: C_41  and  C_46
   11  A    between atoms: C_47  and  C_53
                            x       y       z     vdW  Elec       q    Type
                         _______ _______ _______ _____ _____    ______ ____

>  <TORSDO>
F 11

$$$$
=
 OpenBabel10222417033D

 55 59  0  0  1  0  0  0  0  0999 V2000
  187.0600  177.3790  144.1100 C   0  0  0  0  0  3  0  0  0  0  0  0
  186.8260  177.4330  142.7320 C   0  0  0  0  0  3  0  0  0  0  0  0
  185.5900  177.8790  142.2440 C   0  0  0  0  0  0  0  0  0  0  0  0
  184.8450  178.2110  144.5440 C   0  0  0  0  0  3  0  0  0  0  0  0
  184.6030  178.2610  143.1630 C   0  0  0  0  0  3  0  0  0  0  0  0
  186.0810  177.7900  145.0280 C   0  0  0  0  0  0  0  0  0  0  0  0
  186.5960  178.1890  140.0070 C   0  0  0  0  0  3  0  0  0  0  0  0
  184.3070  178.5950  137.9790 C   0  0  0  0  0  0  0  0  0  0  0  0
  188.3660  177.6540  136.8980 C   0  0  0  0  0  2  0  0  0  0  0  0
  188.0220  178.4000  138.0990 N   0  0  0  0  0  0  0  0  0  0  0  0
  185.3310  177.9530  140.7630 C   0  0  2  0  0  3  0  0  0  0  0  0
  189.0900  179.0810  138.8210 C   0  0  0  0  0  1  0  0  0  0  0  0
  187.2160  177.5030  136.0080 N   0  0  0  0  0  0  0  0  0  0  0  0
  185.9530  177.6210  136.3430 C   0  0  0  0  0  0  0  0  0  0  0  0
  184.3510  179.0280  140.4690 C   0  0  0  0  0  3  0  0  0  0  0  0
  183.3120  178.5550  137.0050 O   0  0  0  0  0  1  0  0  0  0  0  0
  185.5690  178.1040  137.7190 C   0  0  0  0  0  0  0  0  0  0  0  0
  184.9970  177.4350  135.2980 N   0  0  0  0  0  2  0  0  0  0  0  0
  183.8990  179.2780  139.2340 C   0  0  0  0  0  3  0  0  0  0  0  0
  186.7080  178.2520  138.6700 C   0  0  0  0  0  0  0  0  0  0  0  0
  186.0850  173.3160  135.8260 C   0  0  0  0  0  0  0  0  0  0  0  0
  182.8900  171.5360  135.3900 C   0  0  0  0  0  1  0  0  0  0  0  0
  188.3050  174.1150  136.7180 C   0  0  0  0  0  1  0  0  0  0  0  0
  183.3740  174.0250  135.0140 C   0  0  0  0  0  0  0  0  0  0  0  0
  184.3500  175.1160  134.9990 C   0  0  0  0  0  0  0  0  0  0  0  0
  186.0680  174.6690  134.6240 S   0  0  0  0  0  0  0  0  0  0  0  0
  185.0660  172.5080  135.9040 N   0  0  0  0  0  0  0  0  0  0  0  0
  184.0200  176.3770  135.3150 C   0  0  0  0  0  3  0  0  0  0  0  0
  183.9180  172.6100  135.0160 C   0  0  1  0  0  3  0  0  0  0  0  0
  182.0660  174.2680  134.7960 C   0  0  0  0  0  2  0  0  0  0  0  0
  187.4430  171.8560  137.3260 C   0  0  0  0  0  1  0  0  0  0  0  0
  187.2000  173.1670  136.7350 N   0  0  0  0  0  0  0  0  0  0  0  0
  186.3650  178.9100  147.3350 C   0  0  0  0  0  0  0  0  0  0  0  0
  187.3930  176.8230  146.7780 O   0  0  0  0  0  0  0  0  0  0  0  0
  187.9520  177.2400  147.9930 C   0  0  2  0  0  3  0  0  0  0  0  0
  185.1010  179.2350  147.8070 F   0  0  0  0  0  0  0  0  0  0  0  0
  187.2320  178.4870  148.4970 C   0  0  1  0  0  3  0  0  0  0  0  0
  188.0980  179.5030  148.9290 O   0  0  0  0  0  1  0  0  0  0  0  0
  186.2950  177.6410  146.4980 C   0  0  2  0  0  3  0  0  0  0  0  0
  186.9220  179.9800  146.6260 F   0  0  0  0  0  0  0  0  0  0  0  0
  189.4950  177.2820  147.9080 C   0  0  2  0  0  3  0  0  0  0  0  0
  190.1720  178.6200  148.2770 C   0  0  0  0  0  2  0  0  0  0  0  0
  191.1840  178.4420  149.2340 O   0  0  0  0  0  1  0  0  0  0  0  0
  190.0520  176.5650  146.6580 C   0  0  2  0  0  3  0  0  0  0  0  0
  192.5360  176.7410  146.9170 O   0  0  0  0  0  0  0  0  0  0  0  0
  191.4750  174.7550  147.3340 O   0  0  0  0  0  1  0  0  0  0  0  0
  191.3870  175.9650  146.9950 C   0  0  0  0  0  0  0  0  0  0  0  0
  191.0910  178.6250  145.5430 C   0  0  0  0  0  1  0  0  0  0  0  0
  190.1220  177.4630  145.3930 C   0  0  1  0  0  3  0  0  0  0  0  0
  190.5080  176.6710  144.1540 C   0  0  0  0  0  2  0  0  0  0  0  0
  190.9490  177.6180  143.0300 C   0  0  0  0  0  2  0  0  0  0  0  0
  189.6260  177.5750  141.0370 F   0  0  0  0  0  0  0  0  0  0  0  0
  190.7210  176.9860  141.6500 C   0  0  0  0  0  0  0  0  0  0  0  0
  190.4720  175.6320  141.8000 F   0  0  0  0  0  0  0  0  0  0  0  0
  191.8440  177.1710  140.8540 F   0  0  0  0  0  0  0  0  0  0  0  0
  1  6  1  0  0  0  0
  2  1  2  0  0  0  0
  3  2  1  0  0  0  0
  3  5  2  0  0  0  0
  4  6  2  0  0  0  0
  5  4  1  0  0  0  0
  7 11  1  0  0  0  0
  8 19  1  0  0  0  0
  9 10  1  0  0  0  0
 10 20  1  0  0  0  0
 10 12  1  0  0  0  0
 11  3  1  1  0  0  0
 13 14  2  0  0  0  0
 13  9  1  0  0  0  0
 14 17  1  0  0  0  0
 15 11  1  0  0  0  0
 16  8  1  0  0  0  0
 17  8  2  0  0  0  0
 17 20  1  0  0  0  0
 18 28  1  0  0  0  0
 18 14  1  0  0  0  0
 19 15  2  0  0  0  0
 20  7  2  0  0  0  0
 21 27  2  0  0  0  0
 21 32  1  0  0  0  0
 23 32  1  0  0  0  0
 24 29  1  0  0  0  0
 25 24  1  0  0  0  0
 25 28  2  0  0  0  0
 26 25  1  0  0  0  0
 26 21  1  0  0  0  0
 29 22  1  1  0  0  0
 29 27  1  0  0  0  0
 30 24  2  0  0  0  0
 32 31  1  0  0  0  0
 33 36  1  0  0  0  0
 33 37  1  0  0  0  0
 34 35  1  0  0  0  0
 35 41  1  6  0  0  0
 35 37  1  0  0  0  0
 37 38  1  6  0  0  0
 39  6  1  6  0  0  0
 39 34  1  0  0  0  0
 39 33  1  0  0  0  0
 40 33  1  0  0  0  0
 41 42  1  6  0  0  0
 42 43  1  0  0  0  0
 44 47  1  1  0  0  0
 44 41  1  0  0  0  0
 45 47  2  0  0  0  0
 47 46  1  0  0  0  0
 49 48  1  1  0  0  0
 49 44  1  0  0  0  0
 50 49  1  0  0  0  0
 51 50  1  0  0  0  0
 52 53  1  0  0  0  0
 53 54  1  0  0  0  0
 53 51  1  0  0  0  0
 55 53  1  0  0  0  0
M  END
>  <MODEL>
9

>  <REMARK>
 VINA RESULT:      -3.5      2.937      5.917
  Name = 
  11 active torsions:
  status: ('A' for Active; 'I' for Inactive)
    1  A    between atoms: C_8  and  C_35
    2  A    between atoms: C_13  and  C_34
    3  A    between atoms: C_16  and  C_34
    4  A    between atoms: C_23  and  C_34
    5  A    between atoms: C_23  and  C_50
    6  A    between atoms: C_23  and  C_53
    7  A    between atoms: C_28  and  N_44
    8  A    between atoms: C_37  and  C_39
    9  A    between atoms: C_37  and  C_47
   10  A    between atoms: C_41  and  C_46
   11  A    between atoms: C_47  and  C_53
                            x       y       z     vdW  Elec       q    Type
                         _______ _______ _______ _____ _____    ______ ____

>  <TORSDO>
F 11

$$$$
