=
 OpenBabel10222418103D

 25 27  0  0  1  0  0  0  0  0999 V2000
  185.3780  178.5410  145.9590 C   0  0  0  0  0  3  0  0  0  0  0  0
  186.6240  178.0720  145.5220 C   0  0  0  0  0  0  0  0  0  0  0  0
  189.6940  177.2200  147.2810 C   0  0  0  0  0  0  0  0  0  0  0  0
  188.1630  177.2790  143.6280 C   0  0  2  0  0  3  0  0  0  0  0  0
  188.8730  177.3400  146.1020 C   0  0  0  0  0  0  0  0  0  0  0  0
  187.7240  177.8690  146.4760 C   0  0  0  0  0  0  0  0  0  0  0  0
  184.5170  178.3790  143.7030 C   0  0  0  0  0  3  0  0  0  0  0  0
  183.1270  179.1510  145.4770 F   0  0  0  0  0  0  0  0  0  0  0  0
  189.0010  177.6980  148.3790 O   0  0  0  0  0  0  0  0  0  0  0  0
  190.8630  176.7530  147.3290 O   0  0  0  0  0  0  0  0  0  0  0  0
  190.2210  176.3390  144.4310 O   0  0  0  0  0  0  0  0  0  0  0  0
  184.3290  178.6960  145.0500 C   0  0  0  0  0  0  0  0  0  0  0  0
  187.7090  178.1390  147.9570 C   0  0  0  0  0  2  0  0  0  0  0  0
  186.8190  177.7540  144.1570 C   0  0  0  0  0  0  0  0  0  0  0  0
  189.1530  176.9400  144.7180 C   0  0  0  0  0  0  0  0  0  0  0  0
  185.7560  177.9100  143.2580 C   0  0  0  0  0  3  0  0  0  0  0  0
  188.7090  178.2550  142.7910 O   0  0  0  0  0  0  0  0  0  0  0  0
  188.8870  177.6160  141.5600 C   0  0  0  0  0  2  0  0  0  0  0  0
  188.5310  178.5650  140.4320 C   0  0  2  0  0  3  0  0  0  0  0  0
  187.1040  178.4950  140.1650 N   0  0  0  0  0  1  0  0  0  0  0  0
  189.3040  178.1690  139.1840 C   0  0  0  0  0  2  0  0  0  0  0  0
  189.1230  179.1370  138.1570 O   0  0  0  0  0  0  0  0  0  0  0  0
  189.1380  177.9850  135.9890 N   0  0  0  0  0  1  0  0  0  0  0  0
  187.3670  179.3090  136.6920 O   0  0  0  0  0  0  0  0  0  0  0  0
  188.5040  178.8330  136.9430 C   0  0  0  0  0  0  0  0  0  0  0  0
  2  1  1  0  0  0  0
  2  6  1  0  0  0  0
  3 10  2  0  0  0  0
  3  9  1  0  0  0  0
  4 17  1  6  0  0  0
  4 14  1  0  0  0  0
  4 15  1  0  0  0  0
  5  6  2  0  0  0  0
  5  3  1  0  0  0  0
  6 13  1  0  0  0  0
  7 12  1  0  0  0  0
 11 15  2  0  0  0  0
 12  8  1  0  0  0  0
 12  1  2  0  0  0  0
 13  9  1  0  0  0  0
 14  2  2  0  0  0  0
 15  5  1  0  0  0  0
 16  7  2  0  0  0  0
 16 14  1  0  0  0  0
 18 17  1  0  0  0  0
 19 20  1  6  0  0  0
 19 18  1  0  0  0  0
 21 19  1  0  0  0  0
 22 21  1  0  0  0  0
 23 25  1  0  0  0  0
 24 25  2  0  0  0  0
 25 22  1  0  0  0  0
M  END
>  <MODEL>
1

>  <REMARK>
 VINA RESULT:      -9.0      0.000      0.000
  Name = 
  6 active torsions:
  status: ('A' for Active; 'I' for Inactive)
    1  A    between atoms: C_2  and  C_21
    2  A    between atoms: C_2  and  C_25
    3  A    between atoms: C_5  and  O_18
    4  A    between atoms: O_7  and  C_17
    5  A    between atoms: O_7  and  C_21
    6  A    between atoms: O_18  and  C_25
                            x       y       z     vdW  Elec       q    Type
                         _______ _______ _______ _____ _____    ______ ____

>  <TORSDO>
F 6

$$$$
=
 OpenBabel10222418103D

 25 27  0  0  1  0  0  0  0  0999 V2000
  185.5320  178.4510  145.8310 C   0  0  0  0  0  3  0  0  0  0  0  0
  186.7460  177.9700  145.3230 C   0  0  0  0  0  0  0  0  0  0  0  0
  189.8800  177.0160  146.9100 C   0  0  0  0  0  0  0  0  0  0  0  0
  188.1770  177.1980  143.3380 C   0  0  2  0  0  3  0  0  0  0  0  0
  189.0060  177.1820  145.7760 C   0  0  0  0  0  0  0  0  0  0  0  0
  187.8860  177.7220  146.2170 C   0  0  0  0  0  0  0  0  0  0  0  0
  184.5610  178.3620  143.6160 C   0  0  0  0  0  3  0  0  0  0  0  0
  183.2730  179.1140  145.4730 F   0  0  0  0  0  0  0  0  0  0  0  0
  189.2490  177.4790  148.0520 O   0  0  0  0  0  0  0  0  0  0  0  0
  191.0400  176.5270  146.8910 O   0  0  0  0  0  0  0  0  0  0  0  0
  190.2530  176.2000  144.0170 O   0  0  0  0  0  0  0  0  0  0  0  0
  184.4450  178.6490  144.9780 C   0  0  0  0  0  0  0  0  0  0  0  0
  187.9480  177.9540  147.7040 C   0  0  0  0  0  2  0  0  0  0  0  0
  186.8690  177.6830  143.9430 C   0  0  0  0  0  0  0  0  0  0  0  0
  189.2120  176.8130  144.3700 C   0  0  0  0  0  0  0  0  0  0  0  0
  185.7690  177.8830  143.1000 C   0  0  0  0  0  3  0  0  0  0  0  0
  188.7020  178.1840  142.5000 O   0  0  0  0  0  0  0  0  0  0  0  0
  188.9510  177.5340  141.2880 C   0  0  0  0  0  2  0  0  0  0  0  0
  188.6710  178.4740  140.1320 C   0  0  2  0  0  3  0  0  0  0  0  0
  187.2540  178.4510  139.8130 N   0  0  0  0  0  1  0  0  0  0  0  0
  189.4750  178.0290  138.9210 C   0  0  0  0  0  2  0  0  0  0  0  0
  190.7300  177.4930  139.3230 O   0  0  0  0  0  0  0  0  0  0  0  0
  190.7420  175.2350  138.3590 N   0  0  0  0  0  1  0  0  0  0  0  0
  192.5370  176.6910  138.1610 O   0  0  0  0  0  0  0  0  0  0  0  0
  191.3780  176.4860  138.6040 C   0  0  0  0  0  0  0  0  0  0  0  0
  2  1  1  0  0  0  0
  2  6  1  0  0  0  0
  3  9  1  0  0  0  0
  4 17  1  1  0  0  0
  4 14  1  0  0  0  0
  4 15  1  0  0  0  0
  5  6  2  0  0  0  0
  5  3  1  0  0  0  0
  6 13  1  0  0  0  0
  7 12  1  0  0  0  0
 10  3  2  0  0  0  0
 11 15  2  0  0  0  0
 12  8  1  0  0  0  0
 12  1  2  0  0  0  0
 13  9  1  0  0  0  0
 14  2  2  0  0  0  0
 15  5  1  0  0  0  0
 16  7  2  0  0  0  0
 16 14  1  0  0  0  0
 18 17  1  0  0  0  0
 19 20  1  6  0  0  0
 19 18  1  0  0  0  0
 21 22  1  0  0  0  0
 21 19  1  0  0  0  0
 23 25  1  0  0  0  0
 24 25  2  0  0  0  0
 25 22  1  0  0  0  0
M  END
>  <MODEL>
2

>  <REMARK>
 VINA RESULT:      -9.0      1.439      1.755
  Name = 
  6 active torsions:
  status: ('A' for Active; 'I' for Inactive)
    1  A    between atoms: C_2  and  C_21
    2  A    between atoms: C_2  and  C_25
    3  A    between atoms: C_5  and  O_18
    4  A    between atoms: O_7  and  C_17
    5  A    between atoms: O_7  and  C_21
    6  A    between atoms: O_18  and  C_25
                            x       y       z     vdW  Elec       q    Type
                         _______ _______ _______ _____ _____    ______ ____

>  <TORSDO>
F 6

$$$$
=
 OpenBabel10222418103D

 25 27  0  0  1  0  0  0  0  0999 V2000
  186.5570  178.3100  147.2700 C   0  0  0  0  0  3  0  0  0  0  0  0
  186.6700  178.1520  145.8830 C   0  0  0  0  0  0  0  0  0  0  0  0
  184.3060  178.5870  143.1500 C   0  0  0  0  0  0  0  0  0  0  0  0
  188.0900  177.6210  143.8130 C   0  0  2  0  0  3  0  0  0  0  0  0
  185.6070  178.2920  143.6960 C   0  0  0  0  0  0  0  0  0  0  0  0
  185.5030  178.3430  145.0100 C   0  0  0  0  0  0  0  0  0  0  0  0
  188.9220  177.8600  147.5220 C   0  0  0  0  0  3  0  0  0  0  0  0
  187.5670  178.3150  149.4270 F   0  0  0  0  0  0  0  0  0  0  0  0
  183.4120  178.8150  144.1810 O   0  0  0  0  0  0  0  0  0  0  0  0
  184.0050  178.6370  141.9280 O   0  0  0  0  0  0  0  0  0  0  0  0
  186.9460  178.0880  141.7530 O   0  0  0  0  0  0  0  0  0  0  0  0
  187.6800  178.1610  148.0870 C   0  0  0  0  0  0  0  0  0  0  0  0
  184.0960  178.6820  145.4280 C   0  0  0  0  0  2  0  0  0  0  0  0
  187.9250  177.8420  145.3080 C   0  0  0  0  0  0  0  0  0  0  0  0
  186.8740  178.0180  143.0080 C   0  0  0  0  0  0  0  0  0  0  0  0
  189.0440  177.7000  146.1390 C   0  0  0  0  0  3  0  0  0  0  0  0
  188.3930  176.2800  143.5660 O   0  0  0  0  0  0  0  0  0  0  0  0
  189.3340  176.3070  142.5330 C   0  0  0  0  0  2  0  0  0  0  0  0
  190.6010  176.9920  143.0080 C   0  0  2  0  0  3  0  0  0  0  0  0
  191.3990  177.3960  141.8630 N   0  0  0  0  0  1  0  0  0  0  0  0
  191.3970  176.0270  143.8710 C   0  0  0  0  0  2  0  0  0  0  0  0
  191.7710  176.6450  145.0970 O   0  0  0  0  0  0  0  0  0  0  0  0
  192.1420  176.5090  147.5200 N   0  0  0  0  0  1  0  0  0  0  0  0
  192.4250  174.6920  146.1070 O   0  0  0  0  0  0  0  0  0  0  0  0
  192.1250  175.9070  146.2290 C   0  0  0  0  0  0  0  0  0  0  0  0
  1 12  1  0  0  0  0
  2  1  2  0  0  0  0
  3  5  1  0  0  0  0
  3  9  1  0  0  0  0
  4 17  1  1  0  0  0
  4 14  1  0  0  0  0
  5  6  2  0  0  0  0
  6 13  1  0  0  0  0
  6  2  1  0  0  0  0
  7 12  2  0  0  0  0
  9 13  1  0  0  0  0
 10  3  2  0  0  0  0
 11 15  2  0  0  0  0
 12  8  1  0  0  0  0
 14  2  1  0  0  0  0
 14 16  2  0  0  0  0
 15  5  1  0  0  0  0
 15  4  1  0  0  0  0
 16  7  1  0  0  0  0
 18 19  1  0  0  0  0
 18 17  1  0  0  0  0
 19 20  1  6  0  0  0
 19 21  1  0  0  0  0
 21 22  1  0  0  0  0
 22 25  1  0  0  0  0
 24 25  2  0  0  0  0
 25 23  1  0  0  0  0
M  END
>  <MODEL>
3

>  <REMARK>
 VINA RESULT:      -8.5      3.170      5.973
  Name = 
  6 active torsions:
  status: ('A' for Active; 'I' for Inactive)
    1  A    between atoms: C_2  and  C_21
    2  A    between atoms: C_2  and  C_25
    3  A    between atoms: C_5  and  O_18
    4  A    between atoms: O_7  and  C_17
    5  A    between atoms: O_7  and  C_21
    6  A    between atoms: O_18  and  C_25
                            x       y       z     vdW  Elec       q    Type
                         _______ _______ _______ _____ _____    ______ ____

>  <TORSDO>
F 6

$$$$
=
 OpenBabel10222418103D

 25 27  0  0  1  0  0  0  0  0999 V2000
  184.9790  178.3530  145.0820 C   0  0  0  0  0  3  0  0  0  0  0  0
  185.8540  178.2260  143.9950 C   0  0  0  0  0  0  0  0  0  0  0  0
  185.4490  178.8010  140.4240 C   0  0  0  0  0  0  0  0  0  0  0  0
  188.1890  177.7050  143.0670 C   0  0  2  0  0  3  0  0  0  0  0  0
  186.2120  178.4530  141.5970 C   0  0  0  0  0  0  0  0  0  0  0  0
  185.3850  178.4750  142.6240 C   0  0  0  0  0  0  0  0  0  0  0  0
  186.7840  177.8240  146.6050 C   0  0  0  0  0  3  0  0  0  0  0  0
  184.5950  178.2720  147.4310 F   0  0  0  0  0  0  0  0  0  0  0  0
  184.1320  179.0300  140.7790 O   0  0  0  0  0  0  0  0  0  0  0  0
  185.8910  178.8910  139.2480 O   0  0  0  0  0  0  0  0  0  0  0  0
  188.4120  178.2580  140.7410 O   0  0  0  0  0  0  0  0  0  0  0  0
  185.4440  178.1490  146.3830 C   0  0  0  0  0  0  0  0  0  0  0  0
  183.9920  178.8460  142.1890 C   0  0  0  0  0  2  0  0  0  0  0  0
  187.2110  177.8920  144.2160 C   0  0  0  0  0  0  0  0  0  0  0  0
  187.6430  178.1590  141.7320 C   0  0  0  0  0  0  0  0  0  0  0  0
  187.6640  177.6960  145.5270 C   0  0  0  0  0  3  0  0  0  0  0  0
  188.5640  176.3620  142.9830 O   0  0  0  0  0  0  0  0  0  0  0  0
  189.9280  176.3870  142.6790 C   0  0  0  0  0  2  0  0  0  0  0  0
  190.6690  177.2240  143.7030 C   0  0  2  0  0  3  0  0  0  0  0  0
  191.6150  178.0980  143.0300 N   0  0  0  0  0  1  0  0  0  0  0  0
  191.4130  176.3040  144.6570 C   0  0  0  0  0  2  0  0  0  0  0  0
  191.8690  177.0250  145.7950 O   0  0  0  0  0  0  0  0  0  0  0  0
  190.1210  176.4660  147.4260 N   0  0  0  0  0  1  0  0  0  0  0  0
  192.3700  176.5700  147.9870 O   0  0  0  0  0  0  0  0  0  0  0  0
  191.4890  176.6870  147.0960 C   0  0  0  0  0  0  0  0  0  0  0  0
  1 12  1  0  0  0  0
  2 14  1  0  0  0  0
  2  1  2  0  0  0  0
  3  9  1  0  0  0  0
  3  5  1  0  0  0  0
  4 17  1  6  0  0  0
  4 14  1  0  0  0  0
  5 15  1  0  0  0  0
  5  6  2  0  0  0  0
  6  2  1  0  0  0  0
  9 13  1  0  0  0  0
 10  3  2  0  0  0  0
 11 15  2  0  0  0  0
 12  7  2  0  0  0  0
 12  8  1  0  0  0  0
 13  6  1  0  0  0  0
 14 16  2  0  0  0  0
 15  4  1  0  0  0  0
 16  7  1  0  0  0  0
 18 17  1  0  0  0  0
 18 19  1  0  0  0  0
 19 20  1  6  0  0  0
 19 21  1  0  0  0  0
 21 22  1  0  0  0  0
 22 25  1  0  0  0  0
 25 23  1  0  0  0  0
 25 24  2  0  0  0  0
M  END
>  <MODEL>
4

>  <REMARK>
 VINA RESULT:      -8.5      2.743      6.277
  Name = 
  6 active torsions:
  status: ('A' for Active; 'I' for Inactive)
    1  A    between atoms: C_2  and  C_21
    2  A    between atoms: C_2  and  C_25
    3  A    between atoms: C_5  and  O_18
    4  A    between atoms: O_7  and  C_17
    5  A    between atoms: O_7  and  C_21
    6  A    between atoms: O_18  and  C_25
                            x       y       z     vdW  Elec       q    Type
                         _______ _______ _______ _____ _____    ______ ____

>  <TORSDO>
F 6

$$$$
=
 OpenBabel10222418103D

 25 27  0  0  1  0  0  0  0  0999 V2000
  187.1420  178.0230  147.2190 C   0  0  0  0  0  3  0  0  0  0  0  0
  187.1000  177.9330  145.8220 C   0  0  0  0  0  0  0  0  0  0  0  0
  184.4850  178.6130  143.3830 C   0  0  0  0  0  0  0  0  0  0  0  0
  188.2660  177.4490  143.5880 C   0  0  2  0  0  3  0  0  0  0  0  0
  185.8200  178.2330  143.7720 C   0  0  0  0  0  0  0  0  0  0  0  0
  185.8580  178.2200  145.0900 C   0  0  0  0  0  0  0  0  0  0  0  0
  189.4950  177.4560  147.1930 C   0  0  0  0  0  3  0  0  0  0  0  0
  188.3720  177.8700  149.2530 F   0  0  0  0  0  0  0  0  0  0  0  0
  183.7170  178.8260  144.5150 O   0  0  0  0  0  0  0  0  0  0  0  0
  184.0600  178.7400  142.2050 O   0  0  0  0  0  0  0  0  0  0  0  0
  186.9360  178.0720  141.6880 O   0  0  0  0  0  0  0  0  0  0  0  0
  188.3360  177.7820  147.9020 C   0  0  0  0  0  0  0  0  0  0  0  0
  184.5220  178.5980  145.6730 C   0  0  0  0  0  2  0  0  0  0  0  0
  188.2710  177.5970  145.1010 C   0  0  0  0  0  0  0  0  0  0  0  0
  186.9930  177.9400  142.9390 C   0  0  0  0  0  0  0  0  0  0  0  0
  189.4620  177.3630  145.7990 C   0  0  0  0  0  3  0  0  0  0  0  0
  188.4750  176.1110  143.2460 O   0  0  0  0  0  0  0  0  0  0  0  0
  189.8390  176.0210  142.9560 C   0  0  0  0  0  2  0  0  0  0  0  0
  190.1860  176.9590  141.8150 C   0  0  2  0  0  3  0  0  0  0  0  0
  189.7870  176.3620  140.5520 N   0  0  0  0  0  1  0  0  0  0  0  0
  191.6850  177.2090  141.8130 C   0  0  0  0  0  2  0  0  0  0  0  0
  192.0990  177.7510  140.5640 O   0  0  0  0  0  0  0  0  0  0  0  0
  192.7280  176.5720  138.5050 N   0  0  0  0  0  1  0  0  0  0  0  0
  194.2600  177.0930  140.1670 O   0  0  0  0  0  0  0  0  0  0  0  0
  193.0690  177.1380  139.7670 C   0  0  0  0  0  0  0  0  0  0  0  0
  1 12  1  0  0  0  0
  2  1  2  0  0  0  0
  3  5  1  0  0  0  0
  3  9  1  0  0  0  0
  4 17  1  1  0  0  0
  4 14  1  0  0  0  0
  5  6  2  0  0  0  0
  6 13  1  0  0  0  0
  6  2  1  0  0  0  0
  7 12  2  0  0  0  0
  9 13  1  0  0  0  0
 10  3  2  0  0  0  0
 11 15  2  0  0  0  0
 12  8  1  0  0  0  0
 14 16  2  0  0  0  0
 14  2  1  0  0  0  0
 15  4  1  0  0  0  0
 15  5  1  0  0  0  0
 16  7  1  0  0  0  0
 18 17  1  0  0  0  0
 19 20  1  6  0  0  0
 19 18  1  0  0  0  0
 21 19  1  0  0  0  0
 22 21  1  0  0  0  0
 23 25  1  0  0  0  0
 25 24  2  0  0  0  0
 25 22  1  0  0  0  0
M  END
>  <MODEL>
5

>  <REMARK>
 VINA RESULT:      -8.4      3.073      4.663
  Name = 
  6 active torsions:
  status: ('A' for Active; 'I' for Inactive)
    1  A    between atoms: C_2  and  C_21
    2  A    between atoms: C_2  and  C_25
    3  A    between atoms: C_5  and  O_18
    4  A    between atoms: O_7  and  C_17
    5  A    between atoms: O_7  and  C_21
    6  A    between atoms: O_18  and  C_25
                            x       y       z     vdW  Elec       q    Type
                         _______ _______ _______ _____ _____    ______ ____

>  <TORSDO>
F 6

$$$$
=
 OpenBabel10222418103D

 25 27  0  0  1  0  0  0  0  0999 V2000
  186.0500  178.2400  145.6130 C   0  0  0  0  0  3  0  0  0  0  0  0
  187.1090  177.8910  144.7650 C   0  0  0  0  0  0  0  0  0  0  0  0
  190.5390  176.8520  145.4010 C   0  0  0  0  0  0  0  0  0  0  0  0
  188.0250  177.4780  142.4040 C   0  0  2  0  0  3  0  0  0  0  0  0
  189.4170  177.1440  144.5440 C   0  0  0  0  0  0  0  0  0  0  0  0
  188.4330  177.5660  145.3150 C   0  0  0  0  0  0  0  0  0  0  0  0
  184.5750  178.4330  143.7040 C   0  0  0  0  0  3  0  0  0  0  0  0
  183.7670  178.8510  145.9050 F   0  0  0  0  0  0  0  0  0  0  0  0
  190.1990  177.1160  146.7160 O   0  0  0  0  0  0  0  0  0  0  0  0
  191.6640  176.4220  145.0330 O   0  0  0  0  0  0  0  0  0  0  0  0
  190.2100  176.4820  142.4130 O   0  0  0  0  0  0  0  0  0  0  0  0
  184.7880  178.5130  145.0820 C   0  0  0  0  0  0  0  0  0  0  0  0
  188.8490  177.5810  146.7620 C   0  0  0  0  0  2  0  0  0  0  0  0
  186.8990  177.8140  143.3670 C   0  0  0  0  0  0  0  0  0  0  0  0
  189.2810  176.9920  143.0910 C   0  0  0  0  0  0  0  0  0  0  0  0
  185.6260  178.0860  142.8500 C   0  0  0  0  0  3  0  0  0  0  0  0
  188.3270  178.5970  141.6250 O   0  0  0  0  0  0  0  0  0  0  0  0
  187.9900  178.2300  140.3190 C   0  0  0  0  0  2  0  0  0  0  0  0
  189.2150  178.3120  139.4280 C   0  0  2  0  0  3  0  0  0  0  0  0
  188.9350  179.1660  138.2870 N   0  0  0  0  0  1  0  0  0  0  0  0
  189.5770  176.9170  138.9470 C   0  0  0  0  0  2  0  0  0  0  0  0
  189.1480  176.7240  137.6040 O   0  0  0  0  0  0  0  0  0  0  0  0
  186.8070  176.1130  137.1870 N   0  0  0  0  0  1  0  0  0  0  0  0
  188.5520  174.5970  136.9900 O   0  0  0  0  0  0  0  0  0  0  0  0
  188.1890  175.7710  137.2550 C   0  0  0  0  0  0  0  0  0  0  0  0
  2  6  1  0  0  0  0
  2  1  2  0  0  0  0
  3  9  1  0  0  0  0
  4 17  1  1  0  0  0
  4 15  1  0  0  0  0
  4 14  1  0  0  0  0
  5  6  2  0  0  0  0
  5  3  1  0  0  0  0
  6 13  1  0  0  0  0
  7 12  2  0  0  0  0
  9 13  1  0  0  0  0
 10  3  2  0  0  0  0
 11 15  2  0  0  0  0
 12  1  1  0  0  0  0
 12  8  1  0  0  0  0
 14  2  1  0  0  0  0
 15  5  1  0  0  0  0
 16 14  2  0  0  0  0
 16  7  1  0  0  0  0
 18 17  1  0  0  0  0
 19 20  1  6  0  0  0
 19 18  1  0  0  0  0
 21 19  1  0  0  0  0
 22 21  1  0  0  0  0
 23 25  1  0  0  0  0
 24 25  2  0  0  0  0
 25 22  1  0  0  0  0
M  END
>  <MODEL>
6

>  <REMARK>
 VINA RESULT:      -8.3      1.744      1.990
  Name = 
  6 active torsions:
  status: ('A' for Active; 'I' for Inactive)
    1  A    between atoms: C_2  and  C_21
    2  A    between atoms: C_2  and  C_25
    3  A    between atoms: C_5  and  O_18
    4  A    between atoms: O_7  and  C_17
    5  A    between atoms: O_7  and  C_21
    6  A    between atoms: O_18  and  C_25
                            x       y       z     vdW  Elec       q    Type
                         _______ _______ _______ _____ _____    ______ ____

>  <TORSDO>
F 6

$$$$
=
 OpenBabel10222418103D

 25 27  0  0  1  0  0  0  0  0999 V2000
  189.4120  177.0870  146.5860 C   0  0  0  0  0  3  0  0  0  0  0  0
  188.9110  177.3330  145.3010 C   0  0  0  0  0  0  0  0  0  0  0  0
  185.5840  178.1450  144.0660 C   0  0  0  0  0  0  0  0  0  0  0  0
  189.2920  177.6050  142.7780 C   0  0  2  0  0  3  0  0  0  0  0  0
  186.9980  177.9070  143.9080 C   0  0  0  0  0  0  0  0  0  0  0  0
  187.4770  177.5810  145.0920 C   0  0  0  0  0  0  0  0  0  0  0  0
  191.6560  176.9390  145.6890 C   0  0  0  0  0  3  0  0  0  0  0  0
  191.2630  176.6490  148.0200 F   0  0  0  0  0  0  0  0  0  0  0  0
  185.2270  177.9470  145.3880 O   0  0  0  0  0  0  0  0  0  0  0  0
  184.7800  178.4830  143.1580 O   0  0  0  0  0  0  0  0  0  0  0  0
  187.3570  178.4440  141.6290 O   0  0  0  0  0  0  0  0  0  0  0  0
  190.7810  176.8870  146.7770 C   0  0  0  0  0  0  0  0  0  0  0  0
  186.3900  177.5810  146.1340 C   0  0  0  0  0  2  0  0  0  0  0  0
  189.7930  177.3810  144.1960 C   0  0  0  0  0  0  0  0  0  0  0  0
  187.8400  178.0230  142.7120 C   0  0  0  0  0  0  0  0  0  0  0  0
  191.1640  177.1840  144.4040 C   0  0  0  0  0  3  0  0  0  0  0  0
  189.4750  176.4430  142.0250 O   0  0  0  0  0  0  0  0  0  0  0  0
  190.4250  176.7860  141.0590 C   0  0  0  0  0  2  0  0  0  0  0  0
  189.8250  176.6450  139.6730 C   0  0  2  0  0  3  0  0  0  0  0  0
  190.6810  175.8070  138.8510 N   0  0  0  0  0  1  0  0  0  0  0  0
  189.6970  178.0210  139.0420 C   0  0  0  0  0  2  0  0  0  0  0  0
  188.4250  178.1710  138.4210 O   0  0  0  0  0  0  0  0  0  0  0  0
  189.0220  177.9480  136.0500 N   0  0  0  0  0  1  0  0  0  0  0  0
  187.4900  179.5140  136.8150 O   0  0  0  0  0  0  0  0  0  0  0  0
  188.2840  178.5800  137.0930 C   0  0  0  0  0  0  0  0  0  0  0  0
  1 12  1  0  0  0  0
  2  1  2  0  0  0  0
  3  9  1  0  0  0  0
  4 17  1  6  0  0  0
  4 14  1  0  0  0  0
  5  3  1  0  0  0  0
  5  6  2  0  0  0  0
  6  2  1  0  0  0  0
  6 13  1  0  0  0  0
  7 12  2  0  0  0  0
  9 13  1  0  0  0  0
 10  3  2  0  0  0  0
 11 15  2  0  0  0  0
 12  8  1  0  0  0  0
 14 16  2  0  0  0  0
 14  2  1  0  0  0  0
 15  4  1  0  0  0  0
 15  5  1  0  0  0  0
 16  7  1  0  0  0  0
 18 17  1  0  0  0  0
 19 20  1  6  0  0  0
 19 18  1  0  0  0  0
 21 19  1  0  0  0  0
 22 21  1  0  0  0  0
 23 25  1  0  0  0  0
 24 25  2  0  0  0  0
 25 22  1  0  0  0  0
M  END
>  <MODEL>
7

>  <REMARK>
 VINA RESULT:      -8.1      2.744      4.196
  Name = 
  6 active torsions:
  status: ('A' for Active; 'I' for Inactive)
    1  A    between atoms: C_2  and  C_21
    2  A    between atoms: C_2  and  C_25
    3  A    between atoms: C_5  and  O_18
    4  A    between atoms: O_7  and  C_17
    5  A    between atoms: O_7  and  C_21
    6  A    between atoms: O_18  and  C_25
                            x       y       z     vdW  Elec       q    Type
                         _______ _______ _______ _____ _____    ______ ____

>  <TORSDO>
F 6

$$$$
=
 OpenBabel10222418103D

 25 27  0  0  1  0  0  0  0  0999 V2000
  189.3140  177.9140  146.9270 C   0  0  0  0  0  3  0  0  0  0  0  0
  189.0010  177.7200  145.5760 C   0  0  0  0  0  0  0  0  0  0  0  0
  191.0570  177.4140  142.5880 C   0  0  0  0  0  0  0  0  0  0  0  0
  187.2640  177.3310  143.7280 C   0  0  2  0  0  3  0  0  0  0  0  0
  189.8010  177.4220  143.2950 C   0  0  0  0  0  0  0  0  0  0  0  0
  190.0620  177.6970  144.5580 C   0  0  0  0  0  0  0  0  0  0  0  0
  186.9760  177.6840  147.5090 C   0  0  0  0  0  3  0  0  0  0  0  0
  188.6090  178.0880  149.1960 F   0  0  0  0  0  0  0  0  0  0  0  0
  192.0860  177.6970  143.4690 O   0  0  0  0  0  0  0  0  0  0  0  0
  191.2190  177.1860  141.3600 O   0  0  0  0  0  0  0  0  0  0  0  0
  188.2600  176.7820  141.6130 O   0  0  0  0  0  0  0  0  0  0  0  0
  188.3030  177.8990  147.8900 C   0  0  0  0  0  0  0  0  0  0  0  0
  191.5390  177.8930  144.7740 C   0  0  0  0  0  2  0  0  0  0  0  0
  187.6580  177.5070  145.1860 C   0  0  0  0  0  0  0  0  0  0  0  0
  188.4460  177.1470  142.8030 C   0  0  0  0  0  0  0  0  0  0  0  0
  186.6550  177.4900  146.1630 C   0  0  0  0  0  3  0  0  0  0  0  0
  186.5130  178.4310  143.3080 O   0  0  0  0  0  0  0  0  0  0  0  0
  185.3090  177.8920  142.8480 C   0  0  0  0  0  2  0  0  0  0  0  0
  184.2960  179.0010  142.6340 C   0  0  2  0  0  3  0  0  0  0  0  0
  183.5060  179.1820  143.8390 N   0  0  0  0  0  1  0  0  0  0  0  0
  183.3850  178.6280  141.4760 C   0  0  0  0  0  2  0  0  0  0  0  0
  184.1450  178.1290  140.3820 O   0  0  0  0  0  0  0  0  0  0  0  0
  184.1800  180.2190  139.0940 N   0  0  0  0  0  1  0  0  0  0  0  0
  185.8590  178.6260  138.9410 O   0  0  0  0  0  0  0  0  0  0  0  0
  184.7660  178.9720  139.4560 C   0  0  0  0  0  0  0  0  0  0  0  0
  1 12  1  0  0  0  0
  2  1  2  0  0  0  0
  3  5  1  0  0  0  0
  3  9  1  0  0  0  0
  4 17  1  6  0  0  0
  4 14  1  0  0  0  0
  5  6  2  0  0  0  0
  6 13  1  0  0  0  0
  6  2  1  0  0  0  0
  7 12  2  0  0  0  0
  9 13  1  0  0  0  0
 10  3  2  0  0  0  0
 11 15  2  0  0  0  0
 12  8  1  0  0  0  0
 14  2  1  0  0  0  0
 14 16  2  0  0  0  0
 15  5  1  0  0  0  0
 15  4  1  0  0  0  0
 16  7  1  0  0  0  0
 18 17  1  0  0  0  0
 19 18  1  0  0  0  0
 19 20  1  1  0  0  0
 21 19  1  0  0  0  0
 22 21  1  0  0  0  0
 23 25  1  0  0  0  0
 24 25  2  0  0  0  0
 25 22  1  0  0  0  0
M  END
>  <MODEL>
8

>  <REMARK>
 VINA RESULT:      -8.0      3.084      4.408
  Name = 
  6 active torsions:
  status: ('A' for Active; 'I' for Inactive)
    1  A    between atoms: C_2  and  C_21
    2  A    between atoms: C_2  and  C_25
    3  A    between atoms: C_5  and  O_18
    4  A    between atoms: O_7  and  C_17
    5  A    between atoms: O_7  and  C_21
    6  A    between atoms: O_18  and  C_25
                            x       y       z     vdW  Elec       q    Type
                         _______ _______ _______ _____ _____    ______ ____

>  <TORSDO>
F 6

$$$$
=
 OpenBabel10222418103D

 25 27  0  0  1  0  0  0  0  0999 V2000
  189.3110  177.8440  147.0140 C   0  0  0  0  0  3  0  0  0  0  0  0
  188.9630  177.7460  145.6600 C   0  0  0  0  0  0  0  0  0  0  0  0
  190.9450  177.5820  142.6120 C   0  0  0  0  0  0  0  0  0  0  0  0
  187.1770  177.5250  143.8320 C   0  0  2  0  0  3  0  0  0  0  0  0
  189.7050  177.5770  143.3470 C   0  0  0  0  0  0  0  0  0  0  0  0
  190.0010  177.7620  144.6190 C   0  0  0  0  0  0  0  0  0  0  0  0
  186.9800  177.6390  147.6340 C   0  0  0  0  0  3  0  0  0  0  0  0
  188.6590  177.8880  149.3050 F   0  0  0  0  0  0  0  0  0  0  0  0
  192.0000  177.7800  143.4850 O   0  0  0  0  0  0  0  0  0  0  0  0
  191.0740  177.4300  141.3680 O   0  0  0  0  0  0  0  0  0  0  0  0
  188.1110  177.0880  141.6630 O   0  0  0  0  0  0  0  0  0  0  0  0
  188.3200  177.7930  147.9970 C   0  0  0  0  0  0  0  0  0  0  0  0
  191.4870  177.9040  144.8130 C   0  0  0  0  0  2  0  0  0  0  0  0
  187.6060  177.5950  145.2890 C   0  0  0  0  0  0  0  0  0  0  0  0
  188.3320  177.3700  142.8700 C   0  0  0  0  0  0  0  0  0  0  0  0
  186.6240  177.5410  146.2860 C   0  0  0  0  0  3  0  0  0  0  0  0
  186.4480  178.6700  143.5010 O   0  0  0  0  0  0  0  0  0  0  0  0
  185.1450  178.2150  143.2750 C   0  0  0  0  0  2  0  0  0  0  0  0
  184.1480  179.2190  143.8210 C   0  0  2  0  0  3  0  0  0  0  0  0
  183.9790  179.0150  145.2500 N   0  0  0  0  0  1  0  0  0  0  0  0
  182.8140  179.0310  143.1170 C   0  0  0  0  0  2  0  0  0  0  0  0
  181.8140  178.6200  144.0420 O   0  0  0  0  0  0  0  0  0  0  0  0
  179.9420  179.6010  142.7910 N   0  0  0  0  0  1  0  0  0  0  0  0
  179.6640  177.8670  144.3070 O   0  0  0  0  0  0  0  0  0  0  0  0
  180.4510  178.6660  143.7390 C   0  0  0  0  0  0  0  0  0  0  0  0
  1 12  1  0  0  0  0
  2  1  2  0  0  0  0
  3  5  1  0  0  0  0
  3  9  1  0  0  0  0
  4 17  1  6  0  0  0
  4 14  1  0  0  0  0
  5  6  2  0  0  0  0
  6 13  1  0  0  0  0
  6  2  1  0  0  0  0
  7 12  2  0  0  0  0
  9 13  1  0  0  0  0
 10  3  2  0  0  0  0
 11 15  2  0  0  0  0
 12  8  1  0  0  0  0
 14  2  1  0  0  0  0
 14 16  2  0  0  0  0
 15  5  1  0  0  0  0
 15  4  1  0  0  0  0
 16  7  1  0  0  0  0
 18 17  1  0  0  0  0
 18 19  1  0  0  0  0
 19 20  1  1  0  0  0
 21 19  1  0  0  0  0
 21 22  1  0  0  0  0
 23 25  1  0  0  0  0
 25 22  1  0  0  0  0
 25 24  2  0  0  0  0
M  END
>  <MODEL>
9

>  <REMARK>
 VINA RESULT:      -7.8      3.868      5.938
  Name = 
  6 active torsions:
  status: ('A' for Active; 'I' for Inactive)
    1  A    between atoms: C_2  and  C_21
    2  A    between atoms: C_2  and  C_25
    3  A    between atoms: C_5  and  O_18
    4  A    between atoms: O_7  and  C_17
    5  A    between atoms: O_7  and  C_21
    6  A    between atoms: O_18  and  C_25
                            x       y       z     vdW  Elec       q    Type
                         _______ _______ _______ _____ _____    ______ ____

>  <TORSDO>
F 6

$$$$
