=
 OpenBabel10222417263D

 28 30  0  0  1  0  0  0  0  0999 V2000
  190.8220  177.0270  140.8250 C   0  0  0  0  0  0  0  0  0  0  0  0
  188.8380  176.2410  141.9980 O   0  0  0  0  0  0  0  0  0  0  0  0
  188.3570  176.7930  143.2010 C   0  0  1  0  0  3  0  0  0  0  0  0
  189.5490  177.8650  145.2210 C   0  0  0  0  0  1  0  0  0  0  0  0
  190.7250  176.7570  143.3200 C   0  0  1  0  0  3  0  0  0  0  0  0
  191.8870  177.6920  140.9440 O   0  0  0  0  0  0  0  0  0  0  0  0
  191.5770  175.7040  143.6560 O   0  0  0  0  0  1  0  0  0  0  0  0
  190.1660  176.5330  142.0030 N   0  0  0  0  0  0  0  0  0  0  0  0
  189.5160  176.7330  144.2030 C   0  0  2  0  0  3  0  0  0  0  0  0
  190.7380  175.6330  138.8080 N   0  0  0  0  0  0  0  0  0  0  0  0
  188.8980  177.2290  137.5890 N   0  0  0  0  0  0  0  0  0  0  0  0
  190.2800  176.7280  139.4760 C   0  0  0  0  0  0  0  0  0  0  0  0
  188.7860  178.7040  139.4770 N   0  0  0  0  0  1  0  0  0  0  0  0
  190.3050  175.3180  137.5600 C   0  0  0  0  0  3  0  0  0  0  0  0
  189.3270  177.5520  138.8370 C   0  0  0  0  0  0  0  0  0  0  0  0
  189.3650  176.1340  136.9370 C   0  0  0  0  0  3  0  0  0  0  0  0
  187.8250  178.2130  142.9530 C   0  0  0  0  0  2  0  0  0  0  0  0
  186.2350  179.3840  141.5900 O   0  0  0  0  0  1  0  0  0  0  0  0
  186.4080  178.2380  142.3740 C   0  0  2  0  0  3  0  0  0  0  0  0
  185.7310  178.9440  144.7190 C   0  0  0  0  0  2  0  0  0  0  0  0
  183.3790  178.9590  145.3960 N   0  0  0  0  0  2  0  0  0  0  0  0
  184.7340  178.6450  145.8310 C   0  0  0  0  0  2  0  0  0  0  0  0
  181.7900  179.0210  143.7000 O   0  0  0  0  0  0  0  0  0  0  0  0
  182.9910  178.8250  144.0260 C   0  0  0  0  0  0  0  0  0  0  0  0
  183.9880  178.5340  143.0280 N   0  0  0  0  0  0  0  0  0  0  0  0
  185.3390  178.1390  143.4780 C   0  0  1  0  0  3  0  0  0  0  0  0
  183.2340  177.5100  140.9360 C   0  0  0  0  0  1  0  0  0  0  0  0
  183.6830  178.7880  141.6200 C   0  0  0  0  0  2  0  0  0  0  0  0
  1  6  2  0  0  0  0
  1  8  1  0  0  0  0
  2  8  1  0  0  0  0
  2  3  1  0  0  0  0
  3 17  1  6  0  0  0
  3  9  1  0  0  0  0
  5  7  1  1  0  0  0
  5  9  1  0  0  0  0
  8  5  1  0  0  0  0
  9  4  1  1  0  0  0
 10 12  1  0  0  0  0
 11 15  1  0  0  0  0
 12  1  1  0  0  0  0
 14 10  2  0  0  0  0
 15 12  2  0  0  0  0
 15 13  1  0  0  0  0
 16 14  1  0  0  0  0
 16 11  2  0  0  0  0
 19 18  1  1  0  0  0
 19 17  1  0  0  0  0
 20 22  1  0  0  0  0
 21 22  1  0  0  0  0
 23 24  2  0  0  0  0
 24 21  1  0  0  0  0
 25 26  1  0  0  0  0
 25 24  1  0  0  0  0
 26 19  1  6  0  0  0
 26 20  1  0  0  0  0
 27 28  1  0  0  0  0
 28 25  1  0  0  0  0
M  END
>  <MODEL>
1

>  <REMARK>
 VINA RESULT:      -8.1      0.000      0.000
  Name = 
  5 active torsions:
  status: ('A' for Active; 'I' for Inactive)
    1  A    between atoms: C_1  and  C_13
    2  A    between atoms: C_1  and  C_28
    3  A    between atoms: C_3  and  C_11
    4  A    between atoms: N_21  and  C_23
    5  A    between atoms: C_25  and  C_28
                            x       y       z     vdW  Elec       q    Type
                         _______ _______ _______ _____ _____    ______ ____

>  <TORSDO>
F 5

$$$$
=
 OpenBabel10222417263D

 28 30  0  0  1  0  0  0  0  0999 V2000
  189.3850  178.0820  143.8140 C   0  0  0  0  0  0  0  0  0  0  0  0
  187.2440  176.9500  144.0720 O   0  0  0  0  0  0  0  0  0  0  0  0
  186.2090  177.3940  144.9170 C   0  0  1  0  0  3  0  0  0  0  0  0
  186.2220  178.6250  147.1840 C   0  0  0  0  0  1  0  0  0  0  0  0
  188.2650  177.7630  146.0400 C   0  0  1  0  0  3  0  0  0  0  0  0
  190.1720  178.9180  144.3370 O   0  0  0  0  0  0  0  0  0  0  0  0
  189.0450  176.8670  146.7710 O   0  0  0  0  0  1  0  0  0  0  0  0
  188.3730  177.4660  144.6270 N   0  0  0  0  0  0  0  0  0  0  0  0
  186.8140  177.5190  146.3200 C   0  0  2  0  0  3  0  0  0  0  0  0
  188.7790  178.3610  141.4540 N   0  0  0  0  0  0  0  0  0  0  0  0
  190.4730  176.3980  140.6220 N   0  0  0  0  0  0  0  0  0  0  0  0
  189.5350  177.7150  142.3840 C   0  0  0  0  0  0  0  0  0  0  0  0
  191.2470  175.9870  142.8550 N   0  0  0  0  0  1  0  0  0  0  0  0
  188.8470  178.0560  140.1330 C   0  0  0  0  0  3  0  0  0  0  0  0
  190.4110  176.6960  141.9460 C   0  0  0  0  0  0  0  0  0  0  0  0
  189.7120  177.0520  139.7080 C   0  0  0  0  0  3  0  0  0  0  0  0
  185.6150  178.7060  144.3790 C   0  0  0  0  0  2  0  0  0  0  0  0
  185.5650  179.8010  142.2450 O   0  0  0  0  0  1  0  0  0  0  0  0
  185.1990  178.6250  142.9080 C   0  0  2  0  0  3  0  0  0  0  0  0
  182.8430  179.3350  143.5430 C   0  0  0  0  0  2  0  0  0  0  0  0
  180.9310  178.7480  142.1320 N   0  0  0  0  0  2  0  0  0  0  0  0
  181.3910  178.8750  143.5090 C   0  0  0  0  0  2  0  0  0  0  0  0
  181.3810  178.1920  139.9200 O   0  0  0  0  0  0  0  0  0  0  0  0
  181.8290  178.3770  141.0820 C   0  0  0  0  0  0  0  0  0  0  0  0
  183.2410  178.2840  141.3510 N   0  0  0  0  0  0  0  0  0  0  0  0
  183.6930  178.3350  142.7560 C   0  0  1  0  0  3  0  0  0  0  0  0
  183.9980  179.5620  139.4050 C   0  0  0  0  0  1  0  0  0  0  0  0
  184.1830  178.3030  140.2320 C   0  0  0  0  0  2  0  0  0  0  0  0
  1  6  2  0  0  0  0
  1  8  1  0  0  0  0
  2  8  1  0  0  0  0
  2  3  1  0  0  0  0
  3 17  1  6  0  0  0
  3  9  1  0  0  0  0
  5  9  1  0  0  0  0
  5  7  1  1  0  0  0
  8  5  1  0  0  0  0
  9  4  1  6  0  0  0
 10 12  1  0  0  0  0
 11 15  1  0  0  0  0
 12  1  1  0  0  0  0
 14 10  2  0  0  0  0
 15 12  2  0  0  0  0
 15 13  1  0  0  0  0
 16 14  1  0  0  0  0
 16 11  2  0  0  0  0
 19 18  1  6  0  0  0
 19 17  1  0  0  0  0
 21 22  1  0  0  0  0
 22 20  1  0  0  0  0
 23 24  2  0  0  0  0
 24 25  1  0  0  0  0
 24 21  1  0  0  0  0
 25 26  1  0  0  0  0
 26 19  1  6  0  0  0
 26 20  1  0  0  0  0
 27 28  1  0  0  0  0
 28 25  1  0  0  0  0
M  END
>  <MODEL>
2

>  <REMARK>
 VINA RESULT:      -8.0      2.206      3.333
  Name = 
  5 active torsions:
  status: ('A' for Active; 'I' for Inactive)
    1  A    between atoms: C_1  and  C_13
    2  A    between atoms: C_1  and  C_28
    3  A    between atoms: C_3  and  C_11
    4  A    between atoms: N_21  and  C_23
    5  A    between atoms: C_25  and  C_28
                            x       y       z     vdW  Elec       q    Type
                         _______ _______ _______ _____ _____    ______ ____

>  <TORSDO>
F 5

$$$$
=
 OpenBabel10222417263D

 28 30  0  0  1  0  0  0  0  0999 V2000
  188.4730  178.3940  138.8550 C   0  0  0  0  0  0  0  0  0  0  0  0
  188.5750  176.6760  140.5780 O   0  0  0  0  0  0  0  0  0  0  0  0
  189.4190  176.7320  141.7040 C   0  0  1  0  0  3  0  0  0  0  0  0
  191.7720  177.7230  142.0670 C   0  0  0  0  0  1  0  0  0  0  0  0
  190.6310  177.5840  139.8520 C   0  0  1  0  0  3  0  0  0  0  0  0
  189.0820  179.3760  138.3490 O   0  0  0  0  0  0  0  0  0  0  0  0
  191.3160  176.8950  138.8520 O   0  0  0  0  0  1  0  0  0  0  0  0
  189.2040  177.4480  139.6520 N   0  0  0  0  0  0  0  0  0  0  0  0
  190.8460  176.9100  141.1720 C   0  0  2  0  0  3  0  0  0  0  0  0
  186.1210  178.7470  139.4580 N   0  0  0  0  0  0  0  0  0  0  0  0
  185.1970  177.3050  137.3400 N   0  0  0  0  0  0  0  0  0  0  0  0
  187.0240  178.2050  138.5940 C   0  0  0  0  0  0  0  0  0  0  0  0
  187.4180  176.8760  136.5410 N   0  0  0  0  0  1  0  0  0  0  0  0
  184.7830  178.5880  139.2930 C   0  0  0  0  0  3  0  0  0  0  0  0
  186.5380  177.4570  137.4980 C   0  0  0  0  0  0  0  0  0  0  0  0
  184.3110  177.8510  138.2110 C   0  0  0  0  0  3  0  0  0  0  0  0
  188.9640  177.8560  142.6480 C   0  0  0  0  0  2  0  0  0  0  0  0
  187.6940  176.0420  143.5720 O   0  0  0  0  0  1  0  0  0  0  0  0
  188.0970  177.3600  143.8080 C   0  0  2  0  0  3  0  0  0  0  0  0
  185.8050  178.0940  142.9950 C   0  0  0  0  0  2  0  0  0  0  0  0
  184.1900  179.1050  144.5340 N   0  0  0  0  0  2  0  0  0  0  0  0
  184.7410  179.1680  143.1850 C   0  0  0  0  0  2  0  0  0  0  0  0
  184.5080  178.7180  146.8040 O   0  0  0  0  0  0  0  0  0  0  0  0
  184.9900  178.6780  145.6400 C   0  0  0  0  0  0  0  0  0  0  0  0
  186.3080  178.1480  145.4060 N   0  0  0  0  0  0  0  0  0  0  0  0
  186.8910  178.2860  144.0560 C   0  0  1  0  0  3  0  0  0  0  0  0
  187.8380  178.2420  147.3140 C   0  0  0  0  0  1  0  0  0  0  0  0
  186.9560  177.3580  146.4530 C   0  0  0  0  0  2  0  0  0  0  0  0
  1  8  1  0  0  0  0
  2  3  1  0  0  0  0
  3 17  1  1  0  0  0
  5  7  1  6  0  0  0
  5  9  1  0  0  0  0
  6  1  2  0  0  0  0
  8  5  1  0  0  0  0
  8  2  1  0  0  0  0
  9  3  1  0  0  0  0
  9  4  1  1  0  0  0
 11 15  2  0  0  0  0
 11 16  1  0  0  0  0
 12  1  1  0  0  0  0
 12 10  2  0  0  0  0
 13 15  1  0  0  0  0
 14 10  1  0  0  0  0
 15 12  1  0  0  0  0
 16 14  2  0  0  0  0
 17 19  1  0  0  0  0
 19 18  1  6  0  0  0
 20 22  1  0  0  0  0
 20 26  1  0  0  0  0
 21 24  1  0  0  0  0
 22 21  1  0  0  0  0
 24 23  2  0  0  0  0
 25 24  1  0  0  0  0
 25 28  1  0  0  0  0
 26 19  1  6  0  0  0
 26 25  1  0  0  0  0
 28 27  1  0  0  0  0
M  END
>  <MODEL>
3

>  <REMARK>
 VINA RESULT:      -7.9      2.254      3.939
  Name = 
  5 active torsions:
  status: ('A' for Active; 'I' for Inactive)
    1  A    between atoms: C_1  and  C_13
    2  A    between atoms: C_1  and  C_28
    3  A    between atoms: C_3  and  C_11
    4  A    between atoms: N_21  and  C_23
    5  A    between atoms: C_25  and  C_28
                            x       y       z     vdW  Elec       q    Type
                         _______ _______ _______ _____ _____    ______ ____

>  <TORSDO>
F 5

$$$$
=
 OpenBabel10222417263D

 28 30  0  0  1  0  0  0  0  0999 V2000
  187.4280  177.3810  146.0910 C   0  0  0  0  0  0  0  0  0  0  0  0
  189.2210  178.3710  144.7730 O   0  0  0  0  0  0  0  0  0  0  0  0
  190.4200  177.7100  144.4430 C   0  0  1  0  0  3  0  0  0  0  0  0
  191.8400  175.9550  145.6900 C   0  0  0  0  0  1  0  0  0  0  0  0
  189.8580  177.1150  146.6680 C   0  0  1  0  0  3  0  0  0  0  0  0
  187.1410  176.4560  146.9000 O   0  0  0  0  0  0  0  0  0  0  0  0
  190.0810  177.8150  147.8540 O   0  0  0  0  0  1  0  0  0  0  0  0
  188.8040  177.7550  145.9110 N   0  0  0  0  0  0  0  0  0  0  0  0
  191.0450  177.2520  145.7660 C   0  0  2  0  0  3  0  0  0  0  0  0
  186.1070  177.7780  144.0630 N   0  0  0  0  0  0  0  0  0  0  0  0
  184.6210  179.7430  145.2250 N   0  0  0  0  0  0  0  0  0  0  0  0
  186.3480  178.0950  145.3650 C   0  0  0  0  0  0  0  0  0  0  0  0
  185.7540  179.4910  147.3240 N   0  0  0  0  0  1  0  0  0  0  0  0
  185.1530  178.4120  143.3330 C   0  0  0  0  0  3  0  0  0  0  0  0
  185.5750  179.1160  145.9610 C   0  0  0  0  0  0  0  0  0  0  0  0
  184.3940  179.4160  143.9270 C   0  0  0  0  0  3  0  0  0  0  0  0
  190.1360  176.5630  143.4610 C   0  0  0  0  0  2  0  0  0  0  0  0
  191.6230  177.8540  142.0900 O   0  0  0  0  0  1  0  0  0  0  0  0
  190.6830  176.8180  142.0550 C   0  0  2  0  0  3  0  0  0  0  0  0
  188.7040  178.3050  141.4840 C   0  0  0  0  0  2  0  0  0  0  0  0
  187.9380  178.5460  139.1710 N   0  0  0  0  0  2  0  0  0  0  0  0
  187.5010  178.4140  140.5560 C   0  0  0  0  0  2  0  0  0  0  0  0
  189.4510  177.9940  137.4940 O   0  0  0  0  0  0  0  0  0  0  0  0
  189.1480  177.9330  138.7160 C   0  0  0  0  0  0  0  0  0  0  0  0
  190.0350  177.3120  139.6650 N   0  0  0  0  0  0  0  0  0  0  0  0
  189.5550  177.1110  141.0480 C   0  0  1  0  0  3  0  0  0  0  0  0
  191.5160  175.7530  138.4970 C   0  0  0  0  0  1  0  0  0  0  0  0
  191.4210  177.0490  139.2800 C   0  0  0  0  0  2  0  0  0  0  0  0
  1  6  2  0  0  0  0
  2  8  1  0  0  0  0
  3 17  1  6  0  0  0
  3  2  1  0  0  0  0
  3  9  1  0  0  0  0
  5  7  1  1  0  0  0
  8  1  1  0  0  0  0
  8  5  1  0  0  0  0
  9  4  1  6  0  0  0
  9  5  1  0  0  0  0
 10 12  1  0  0  0  0
 11 15  1  0  0  0  0
 12 15  2  0  0  0  0
 12  1  1  0  0  0  0
 14 16  1  0  0  0  0
 14 10  2  0  0  0  0
 15 13  1  0  0  0  0
 16 11  2  0  0  0  0
 19 18  1  1  0  0  0
 19 17  1  0  0  0  0
 21 22  1  0  0  0  0
 22 20  1  0  0  0  0
 23 24  2  0  0  0  0
 24 21  1  0  0  0  0
 24 25  1  0  0  0  0
 25 26  1  0  0  0  0
 26 20  1  0  0  0  0
 26 19  1  1  0  0  0
 27 28  1  0  0  0  0
 28 25  1  0  0  0  0
M  END
>  <MODEL>
4

>  <REMARK>
 VINA RESULT:      -7.9      2.422      6.624
  Name = 
  5 active torsions:
  status: ('A' for Active; 'I' for Inactive)
    1  A    between atoms: C_1  and  C_13
    2  A    between atoms: C_1  and  C_28
    3  A    between atoms: C_3  and  C_11
    4  A    between atoms: N_21  and  C_23
    5  A    between atoms: C_25  and  C_28
                            x       y       z     vdW  Elec       q    Type
                         _______ _______ _______ _____ _____    ______ ____

>  <TORSDO>
F 5

$$$$
=
 OpenBabel10222417263D

 28 30  0  0  1  0  0  0  0  0999 V2000
  190.1290  176.3710  143.2000 C   0  0  0  0  0  0  0  0  0  0  0  0
  189.0880  178.4540  142.4860 O   0  0  0  0  0  0  0  0  0  0  0  0
  188.2600  178.5790  141.3540 C   0  0  1  0  0  3  0  0  0  0  0  0
  188.2500  177.3880  139.0660 C   0  0  0  0  0  1  0  0  0  0  0  0
  190.0230  177.0940  140.7970 C   0  0  1  0  0  3  0  0  0  0  0  0
  190.4610  175.2120  142.8300 O   0  0  0  0  0  0  0  0  0  0  0  0
  191.3270  177.3830  140.3930 O   0  0  0  0  0  1  0  0  0  0  0  0
  189.8730  177.3790  142.2080 N   0  0  0  0  0  0  0  0  0  0  0  0
  189.0700  178.0580  140.1600 C   0  0  2  0  0  3  0  0  0  0  0  0
  191.1940  176.7660  145.3740 N   0  0  0  0  0  0  0  0  0  0  0  0
  188.8170  177.1640  146.6440 N   0  0  0  0  0  0  0  0  0  0  0  0
  190.0450  176.6930  144.6460 C   0  0  0  0  0  0  0  0  0  0  0  0
  187.5730  176.8580  144.6160 N   0  0  0  0  0  1  0  0  0  0  0  0
  191.1860  177.0290  146.7060 C   0  0  0  0  0  3  0  0  0  0  0  0
  188.8160  176.8990  145.3120 C   0  0  0  0  0  0  0  0  0  0  0  0
  189.9720  177.2320  147.3550 C   0  0  0  0  0  3  0  0  0  0  0  0
  186.9390  177.8280  141.5820 C   0  0  0  0  0  2  0  0  0  0  0  0
  186.0860  180.0620  141.3930 O   0  0  0  0  0  1  0  0  0  0  0  0
  185.7020  178.7190  141.4410 C   0  0  2  0  0  3  0  0  0  0  0  0
  184.9290  179.3710  143.7720 C   0  0  0  0  0  2  0  0  0  0  0  0
  182.6230  178.9680  144.4900 N   0  0  0  0  0  2  0  0  0  0  0  0
  184.0180  178.9300  144.9110 C   0  0  0  0  0  2  0  0  0  0  0  0
  181.0340  178.6690  142.8200 O   0  0  0  0  0  0  0  0  0  0  0  0
  182.2540  178.7140  143.1310 C   0  0  0  0  0  0  0  0  0  0  0  0
  183.2760  178.5780  142.1270 N   0  0  0  0  0  0  0  0  0  0  0  0
  184.6820  178.4610  142.5660 C   0  0  1  0  0  3  0  0  0  0  0  0
  182.7140  177.3550  140.0820 C   0  0  0  0  0  1  0  0  0  0  0  0
  182.9140  178.7190  140.7160 C   0  0  0  0  0  2  0  0  0  0  0  0
  1 12  1  0  0  0  0
  3 17  1  1  0  0  0
  3  2  1  0  0  0  0
  5  7  1  6  0  0  0
  5  8  1  0  0  0  0
  6  1  2  0  0  0  0
  8  2  1  0  0  0  0
  8  1  1  0  0  0  0
  9  4  1  6  0  0  0
  9  5  1  0  0  0  0
  9  3  1  0  0  0  0
 10 14  1  0  0  0  0
 11 16  1  0  0  0  0
 12 15  1  0  0  0  0
 12 10  2  0  0  0  0
 13 15  1  0  0  0  0
 14 16  2  0  0  0  0
 15 11  2  0  0  0  0
 19 18  1  1  0  0  0
 19 17  1  0  0  0  0
 20 22  1  0  0  0  0
 21 22  1  0  0  0  0
 23 24  2  0  0  0  0
 24 21  1  0  0  0  0
 25 26  1  0  0  0  0
 25 24  1  0  0  0  0
 26 19  1  6  0  0  0
 26 20  1  0  0  0  0
 27 28  1  0  0  0  0
 28 25  1  0  0  0  0
M  END
>  <MODEL>
5

>  <REMARK>
 VINA RESULT:      -7.8      1.898      4.439
  Name = 
  5 active torsions:
  status: ('A' for Active; 'I' for Inactive)
    1  A    between atoms: C_1  and  C_13
    2  A    between atoms: C_1  and  C_28
    3  A    between atoms: C_3  and  C_11
    4  A    between atoms: N_21  and  C_23
    5  A    between atoms: C_25  and  C_28
                            x       y       z     vdW  Elec       q    Type
                         _______ _______ _______ _____ _____    ______ ____

>  <TORSDO>
F 5

$$$$
=
 OpenBabel10222417263D

 28 30  0  0  1  0  0  0  0  0999 V2000
  188.3230  178.4070  138.0930 C   0  0  0  0  0  0  0  0  0  0  0  0
  188.9450  176.5580  139.5500 O   0  0  0  0  0  0  0  0  0  0  0  0
  190.1230  176.5170  140.3190 C   0  0  1  0  0  3  0  0  0  0  0  0
  192.4940  177.4520  139.9210 C   0  0  0  0  0  1  0  0  0  0  0  0
  190.6600  177.4990  138.2290 C   0  0  1  0  0  3  0  0  0  0  0  0
  188.7580  179.4190  137.4790 O   0  0  0  0  0  0  0  0  0  0  0  0
  190.9370  176.8830  137.0080 O   0  0  0  0  0  1  0  0  0  0  0  0
  189.2460  177.3940  138.5210 N   0  0  0  0  0  0  0  0  0  0  0  0
  191.2890  176.7210  139.3440 C   0  0  2  0  0  3  0  0  0  0  0  0
  186.3370  178.7120  139.5010 N   0  0  0  0  0  0  0  0  0  0  0  0
  184.6840  177.4950  137.7100 N   0  0  0  0  0  0  0  0  0  0  0  0
  186.8660  178.2540  138.3320 C   0  0  0  0  0  0  0  0  0  0  0  0
  186.4770  177.1350  136.1570 N   0  0  0  0  0  1  0  0  0  0  0  0
  185.0180  178.5790  139.7950 C   0  0  0  0  0  3  0  0  0  0  0  0
  186.0030  177.6230  137.4090 C   0  0  0  0  0  0  0  0  0  0  0  0
  184.1740  177.9560  138.8800 C   0  0  0  0  0  3  0  0  0  0  0  0
  190.0600  177.5670  141.4390 C   0  0  0  0  0  2  0  0  0  0  0  0
  190.3000  175.5900  142.7750 O   0  0  0  0  0  1  0  0  0  0  0  0
  190.3160  176.9870  142.8320 C   0  0  2  0  0  3  0  0  0  0  0  0
  188.0490  176.6600  143.9320 C   0  0  0  0  0  2  0  0  0  0  0  0
  187.5840  177.5860  146.1500 N   0  0  0  0  0  2  0  0  0  0  0  0
  187.0270  177.3530  144.8230 C   0  0  0  0  0  2  0  0  0  0  0  0
  189.4160  178.1100  147.4820 O   0  0  0  0  0  0  0  0  0  0  0  0
  188.9820  177.8270  146.3330 C   0  0  0  0  0  0  0  0  0  0  0  0
  189.8840  177.6810  145.2210 N   0  0  0  0  0  0  0  0  0  0  0  0
  189.3110  177.5240  143.8680 C   0  0  1  0  0  3  0  0  0  0  0  0
  191.6060  176.1780  146.0970 C   0  0  0  0  0  1  0  0  0  0  0  0
  191.3160  177.5320  145.4770 C   0  0  0  0  0  2  0  0  0  0  0  0
  1 12  1  0  0  0  0
  1  8  1  0  0  0  0
  2  3  1  0  0  0  0
  3 17  1  1  0  0  0
  5  7  1  6  0  0  0
  5  8  1  0  0  0  0
  5  9  1  0  0  0  0
  6  1  2  0  0  0  0
  8  2  1  0  0  0  0
  9  4  1  1  0  0  0
  9  3  1  0  0  0  0
 10 14  1  0  0  0  0
 11 16  1  0  0  0  0
 12 10  2  0  0  0  0
 13 15  1  0  0  0  0
 15 11  2  0  0  0  0
 15 12  1  0  0  0  0
 16 14  2  0  0  0  0
 17 19  1  0  0  0  0
 19 18  1  6  0  0  0
 20 22  1  0  0  0  0
 21 24  1  0  0  0  0
 22 21  1  0  0  0  0
 24 23  2  0  0  0  0
 25 28  1  0  0  0  0
 25 24  1  0  0  0  0
 26 19  1  6  0  0  0
 26 20  1  0  0  0  0
 26 25  1  0  0  0  0
 28 27  1  0  0  0  0
M  END
>  <MODEL>
6

>  <REMARK>
 VINA RESULT:      -7.8      2.948      5.417
  Name = 
  5 active torsions:
  status: ('A' for Active; 'I' for Inactive)
    1  A    between atoms: C_1  and  C_13
    2  A    between atoms: C_1  and  C_28
    3  A    between atoms: C_3  and  C_11
    4  A    between atoms: N_21  and  C_23
    5  A    between atoms: C_25  and  C_28
                            x       y       z     vdW  Elec       q    Type
                         _______ _______ _______ _____ _____    ______ ____

>  <TORSDO>
F 5

$$$$
=
 OpenBabel10222417263D

 28 30  0  0  1  0  0  0  0  0999 V2000
  186.3210  177.6810  138.4590 C   0  0  0  0  0  0  0  0  0  0  0  0
  187.3670  178.8170  140.3420 O   0  0  0  0  0  0  0  0  0  0  0  0
  186.8740  178.7850  141.6610 C   0  0  1  0  0  3  0  0  0  0  0  0
  184.4840  178.6600  142.6210 C   0  0  0  0  0  1  0  0  0  0  0  0
  185.0140  178.9360  140.1980 C   0  0  1  0  0  3  0  0  0  0  0  0
  185.2520  177.1520  138.0460 O   0  0  0  0  0  0  0  0  0  0  0  0
  184.4680  180.0590  139.5750 O   0  0  0  0  0  1  0  0  0  0  0  0
  186.2710  178.5900  139.5700 N   0  0  0  0  0  0  0  0  0  0  0  0
  185.4240  179.2800  141.5970 C   0  0  2  0  0  3  0  0  0  0  0  0
  188.1880  176.1730  137.9540 N   0  0  0  0  0  0  0  0  0  0  0  0
  189.4570  178.0090  136.3930 N   0  0  0  0  0  0  0  0  0  0  0  0
  187.6050  177.3910  137.7750 C   0  0  0  0  0  0  0  0  0  0  0  0
  187.7150  179.6270  136.7140 N   0  0  0  0  0  1  0  0  0  0  0  0
  189.3760  175.8520  137.3800 C   0  0  0  0  0  3  0  0  0  0  0  0
  188.2700  178.3390  136.9650 C   0  0  0  0  0  0  0  0  0  0  0  0
  190.0250  176.7910  136.5830 C   0  0  0  0  0  3  0  0  0  0  0  0
  187.0210  177.3710  142.2450 C   0  0  0  0  0  2  0  0  0  0  0  0
  188.6520  175.8580  143.1430 O   0  0  0  0  0  1  0  0  0  0  0  0
  188.2660  177.2020  143.1200 C   0  0  2  0  0  3  0  0  0  0  0  0
  186.7360  177.2370  145.1480 C   0  0  0  0  0  2  0  0  0  0  0  0
  187.6090  177.7790  147.3710 N   0  0  0  0  0  2  0  0  0  0  0  0
  186.4850  177.9680  146.4610 C   0  0  0  0  0  2  0  0  0  0  0  0
  189.8990  177.5460  147.6920 O   0  0  0  0  0  0  0  0  0  0  0  0
  188.9420  177.6200  146.8770 C   0  0  0  0  0  0  0  0  0  0  0  0
  189.1670  177.4820  145.4620 N   0  0  0  0  0  0  0  0  0  0  0  0
  188.0430  177.7520  144.5420 C   0  0  1  0  0  3  0  0  0  0  0  0
  191.3770  178.0460  144.5730 C   0  0  0  0  0  1  0  0  0  0  0  0
  190.4380  176.9300  144.9920 C   0  0  0  0  0  2  0  0  0  0  0  0
  1  8  1  0  0  0  0
  2  3  1  0  0  0  0
  3 17  1  6  0  0  0
  5  7  1  6  0  0  0
  5  9  1  0  0  0  0
  6  1  2  0  0  0  0
  8  5  1  0  0  0  0
  8  2  1  0  0  0  0
  9  3  1  0  0  0  0
  9  4  1  1  0  0  0
 11 16  2  0  0  0  0
 11 15  1  0  0  0  0
 12 10  1  0  0  0  0
 12  1  1  0  0  0  0
 13 15  1  0  0  0  0
 14 10  2  0  0  0  0
 15 12  2  0  0  0  0
 16 14  1  0  0  0  0
 17 19  1  0  0  0  0
 19 18  1  1  0  0  0
 20 22  1  0  0  0  0
 22 21  1  0  0  0  0
 24 21  1  0  0  0  0
 24 23  2  0  0  0  0
 25 24  1  0  0  0  0
 26 19  1  6  0  0  0
 26 20  1  0  0  0  0
 26 25  1  0  0  0  0
 27 28  1  0  0  0  0
 28 25  1  0  0  0  0
M  END
>  <MODEL>
7

>  <REMARK>
 VINA RESULT:      -7.7      2.540      5.101
  Name = 
  5 active torsions:
  status: ('A' for Active; 'I' for Inactive)
    1  A    between atoms: C_1  and  C_13
    2  A    between atoms: C_1  and  C_28
    3  A    between atoms: C_3  and  C_11
    4  A    between atoms: N_21  and  C_23
    5  A    between atoms: C_25  and  C_28
                            x       y       z     vdW  Elec       q    Type
                         _______ _______ _______ _____ _____    ______ ____

>  <TORSDO>
F 5

$$$$
=
 OpenBabel10222417263D

 28 30  0  0  1  0  0  0  0  0999 V2000
  188.6360  178.3150  138.9550 C   0  0  0  0  0  0  0  0  0  0  0  0
  188.6790  176.6310  140.7140 O   0  0  0  0  0  0  0  0  0  0  0  0
  189.3900  176.7650  141.9220 C   0  0  1  0  0  3  0  0  0  0  0  0
  191.6130  177.9330  142.5110 C   0  0  0  0  0  1  0  0  0  0  0  0
  190.7280  177.6810  140.1920 C   0  0  1  0  0  3  0  0  0  0  0  0
  189.2230  179.3330  138.4960 O   0  0  0  0  0  0  0  0  0  0  0  0
  191.5650  177.0310  139.2840 O   0  0  0  0  0  1  0  0  0  0  0  0
  189.3440  177.4360  139.8440 N   0  0  0  0  0  0  0  0  0  0  0  0
  190.8490  177.0420  141.5410 C   0  0  2  0  0  3  0  0  0  0  0  0
  186.2160  178.6280  139.1980 N   0  0  0  0  0  0  0  0  0  0  0  0
  185.6260  176.8490  137.2220 N   0  0  0  0  0  0  0  0  0  0  0  0
  187.2420  178.0150  138.5450 C   0  0  0  0  0  0  0  0  0  0  0  0
  187.9460  176.4250  136.7810 N   0  0  0  0  0  1  0  0  0  0  0  0
  184.9160  178.3770  138.8930 C   0  0  0  0  0  3  0  0  0  0  0  0
  186.9290  177.0920  137.5220 C   0  0  0  0  0  0  0  0  0  0  0  0
  184.6150  177.4680  137.8830 C   0  0  0  0  0  3  0  0  0  0  0  0
  188.7560  177.8640  142.7890 C   0  0  0  0  0  2  0  0  0  0  0  0
  186.3850  177.5050  142.8420 O   0  0  0  0  0  1  0  0  0  0  0  0
  187.5530  177.3780  143.6010 C   0  0  2  0  0  3  0  0  0  0  0  0
  186.0060  178.0830  145.4900 C   0  0  0  0  0  2  0  0  0  0  0  0
  186.8900  178.5750  147.7190 N   0  0  0  0  0  2  0  0  0  0  0  0
  185.9240  178.9920  146.7100 C   0  0  0  0  0  2  0  0  0  0  0  0
  188.9830  177.7080  148.2420 O   0  0  0  0  0  0  0  0  0  0  0  0
  188.1350  177.9760  147.3500 C   0  0  0  0  0  0  0  0  0  0  0  0
  188.3780  177.6260  145.9740 N   0  0  0  0  0  0  0  0  0  0  0  0
  187.4370  178.1180  144.9470 C   0  0  1  0  0  3  0  0  0  0  0  0
  190.8040  177.3120  145.8720 C   0  0  0  0  0  1  0  0  0  0  0  0
  189.4440  176.6750  145.6570 C   0  0  0  0  0  2  0  0  0  0  0  0
  1  8  1  0  0  0  0
  2  3  1  0  0  0  0
  3 17  1  1  0  0  0
  5  7  1  6  0  0  0
  5  9  1  0  0  0  0
  6  1  2  0  0  0  0
  8  5  1  0  0  0  0
  8  2  1  0  0  0  0
  9  3  1  0  0  0  0
  9  4  1  1  0  0  0
 11 15  2  0  0  0  0
 11 16  1  0  0  0  0
 12  1  1  0  0  0  0
 12 10  2  0  0  0  0
 13 15  1  0  0  0  0
 14 10  1  0  0  0  0
 15 12  1  0  0  0  0
 16 14  2  0  0  0  0
 17 19  1  0  0  0  0
 19 18  1  6  0  0  0
 20 22  1  0  0  0  0
 22 21  1  0  0  0  0
 24 21  1  0  0  0  0
 24 23  2  0  0  0  0
 25 24  1  0  0  0  0
 26 19  1  6  0  0  0
 26 20  1  0  0  0  0
 26 25  1  0  0  0  0
 28 27  1  0  0  0  0
 28 25  1  0  0  0  0
M  END
>  <MODEL>
8

>  <REMARK>
 VINA RESULT:      -7.5      2.525      4.398
  Name = 
  5 active torsions:
  status: ('A' for Active; 'I' for Inactive)
    1  A    between atoms: C_1  and  C_13
    2  A    between atoms: C_1  and  C_28
    3  A    between atoms: C_3  and  C_11
    4  A    between atoms: N_21  and  C_23
    5  A    between atoms: C_25  and  C_28
                            x       y       z     vdW  Elec       q    Type
                         _______ _______ _______ _____ _____    ______ ____

>  <TORSDO>
F 5

$$$$
=
 OpenBabel10222417263D

 28 30  0  0  1  0  0  0  0  0999 V2000
  190.9330  177.1140  140.6750 C   0  0  0  0  0  0  0  0  0  0  0  0
  189.2380  176.1060  142.1030 O   0  0  0  0  0  0  0  0  0  0  0  0
  188.8520  176.6170  143.3570 C   0  0  1  0  0  3  0  0  0  0  0  0
  190.1500  177.8720  145.1990 C   0  0  0  0  0  1  0  0  0  0  0  0
  191.2000  176.8840  143.1620 C   0  0  1  0  0  3  0  0  0  0  0  0
  191.9100  177.9110  140.6500 O   0  0  0  0  0  0  0  0  0  0  0  0
  192.2160  175.9550  143.3850 O   0  0  0  0  0  1  0  0  0  0  0  0
  190.5060  176.5650  141.9320 N   0  0  0  0  0  0  0  0  0  0  0  0
  190.1300  176.7250  144.1980 C   0  0  2  0  0  3  0  0  0  0  0  0
  190.6420  175.5690  138.7920 N   0  0  0  0  0  0  0  0  0  0  0  0
  188.7130  177.1000  137.6280 N   0  0  0  0  0  0  0  0  0  0  0  0
  190.2630  176.7220  139.4110 C   0  0  0  0  0  0  0  0  0  0  0  0
  188.7990  178.7200  139.3950 N   0  0  0  0  0  1  0  0  0  0  0  0
  190.0890  175.1660  137.6190 C   0  0  0  0  0  3  0  0  0  0  0  0
  189.2630  177.5120  138.8000 C   0  0  0  0  0  0  0  0  0  0  0  0
  189.1040  175.9490  137.0240 C   0  0  0  0  0  3  0  0  0  0  0  0
  188.1130  177.9530  143.1770 C   0  0  0  0  0  2  0  0  0  0  0  0
  186.4720  178.1090  141.4340 O   0  0  0  0  0  1  0  0  0  0  0  0
  186.6430  177.7860  142.7840 C   0  0  2  0  0  3  0  0  0  0  0  0
  184.2940  178.6930  143.1200 C   0  0  0  0  0  2  0  0  0  0  0  0
  183.4820  179.2810  145.3540 N   0  0  0  0  0  2  0  0  0  0  0  0
  183.4870  179.6820  143.9520 C   0  0  0  0  0  2  0  0  0  0  0  0
  184.5940  178.3390  147.1650 O   0  0  0  0  0  0  0  0  0  0  0  0
  184.5950  178.5940  145.9310 C   0  0  0  0  0  0  0  0  0  0  0  0
  185.6710  178.1430  145.0870 N   0  0  0  0  0  0  0  0  0  0  0  0
  185.7130  178.6170  143.6880 C   0  0  1  0  0  3  0  0  0  0  0  0
  187.3230  177.6170  146.8160 C   0  0  0  0  0  1  0  0  0  0  0  0
  186.5880  177.1180  145.5860 C   0  0  0  0  0  2  0  0  0  0  0  0
  1  8  1  0  0  0  0
  2  3  1  0  0  0  0
  3 17  1  6  0  0  0
  3  9  1  0  0  0  0
  5  7  1  1  0  0  0
  5  9  1  0  0  0  0
  6  1  2  0  0  0  0
  8  2  1  0  0  0  0
  8  5  1  0  0  0  0
  9  4  1  1  0  0  0
 10 12  1  0  0  0  0
 11 15  1  0  0  0  0
 12  1  1  0  0  0  0
 14 10  2  0  0  0  0
 15 13  1  0  0  0  0
 15 12  2  0  0  0  0
 16 14  1  0  0  0  0
 16 11  2  0  0  0  0
 19 18  1  6  0  0  0
 19 17  1  0  0  0  0
 20 26  1  0  0  0  0
 20 22  1  0  0  0  0
 21 24  1  0  0  0  0
 22 21  1  0  0  0  0
 24 23  2  0  0  0  0
 25 28  1  0  0  0  0
 25 24  1  0  0  0  0
 26 19  1  6  0  0  0
 26 25  1  0  0  0  0
 28 27  1  0  0  0  0
M  END
>  <MODEL>
9

>  <REMARK>
 VINA RESULT:      -7.4      1.292      2.141
  Name = 
  5 active torsions:
  status: ('A' for Active; 'I' for Inactive)
    1  A    between atoms: C_1  and  C_13
    2  A    between atoms: C_1  and  C_28
    3  A    between atoms: C_3  and  C_11
    4  A    between atoms: N_21  and  C_23
    5  A    between atoms: C_25  and  C_28
                            x       y       z     vdW  Elec       q    Type
                         _______ _______ _______ _____ _____    ______ ____

>  <TORSDO>
F 5

$$$$
