=
 OpenBabel10222417483D

 52 55  0  0  1  0  0  0  0  0999 V2000
  187.5040  177.5910  145.0240 C   0  0  0  0  0  0  0  0  0  0  0  0
  190.2830  177.1280  144.9640 C   0  0  0  0  0  3  0  0  0  0  0  0
  188.2350  177.6560  146.2570 C   0  0  0  0  0  0  0  0  0  0  0  0
  186.1320  177.9100  145.3860 C   0  0  0  0  0  0  0  0  0  0  0  0
  187.6770  178.1400  148.5780 N   0  0  0  0  0  1  0  0  0  0  0  0
  189.5460  177.0530  143.8290 C   0  0  0  0  0  0  0  0  0  0  0  0
  188.0730  177.3060  143.8580 C   0  0  0  0  0  3  0  0  0  0  0  0
  187.3570  177.9570  147.2010 C   0  0  0  0  0  0  0  0  0  0  0  0
  186.0360  178.1170  146.6660 N   0  0  0  0  0  0  0  0  0  0  0  0
  189.7160  177.4540  146.3350 C   0  0  0  0  0  2  0  0  0  0  0  0
  191.6860  177.2330  142.4870 C   0  0  0  0  0  1  0  0  0  0  0  0
  190.2570  176.7030  142.5500 C   0  0  2  0  0  3  0  0  0  0  0  0
  189.4590  177.1870  141.3430 C   0  0  0  0  0  2  0  0  0  0  0  0
  190.3400  177.3930  140.1570 C   0  0  0  0  0  3  0  0  0  0  0  0
  190.5770  176.3950  139.3100 C   0  0  0  0  0  3  0  0  0  0  0  0
  191.3790  176.5270  138.1720 O   0  0  0  0  0  0  0  0  0  0  0  0
  192.1820  175.4760  137.6320 C   0  0  2  0  0  3  0  0  0  0  0  0
  194.4050  175.5890  138.4960 O   0  0  0  0  0  0  0  0  0  0  0  0
  193.6220  175.8860  137.5540 C   0  0  0  0  0  0  0  0  0  0  0  0
  194.0770  176.6010  136.4430 O   0  0  0  0  0  0  0  0  0  0  0  0
  196.0980  177.0740  135.4720 O   0  0  0  0  0  1  0  0  0  0  0  0
  195.1120  176.1030  135.6080 C   0  0  0  0  0  2  0  0  0  0  0  0
  191.7000  175.0400  136.3790 O   0  0  0  0  0  0  0  0  0  0  0  0
  190.4390  174.6880  136.5520 O   0  0  0  0  0  0  0  0  0  0  0  0
  189.9770  174.3680  135.2720 C   0  0  0  0  0  2  0  0  0  0  0  0
  187.6640  173.5060  135.5820 C   0  0  0  0  0  1  0  0  0  0  0  0
  188.4990  174.7030  135.1660 C   0  0  1  0  0  3  0  0  0  0  0  0
  187.5130  175.8730  137.1500 C   0  0  0  0  0  3  0  0  0  0  0  0
  188.6150  177.1260  135.7740 C   0  0  0  0  0  0  0  0  0  0  0  0
  188.1790  175.8730  135.9820 N   0  0  0  0  0  0  0  0  0  0  0  0
  189.4530  177.5500  134.6170 C   0  0  0  0  0  1  0  0  0  0  0  0
  188.2050  177.9610  136.7880 C   0  0  0  0  0  3  0  0  0  0  0  0
  187.5000  177.1570  137.6700 C   0  0  0  0  0  3  0  0  0  0  0  0
  184.9710  178.0060  144.4530 C   0  0  0  0  0  2  0  0  0  0  0  0
  184.5920  180.3300  144.2820 O   0  0  0  0  0  0  0  0  0  0  0  0
  184.9590  179.3100  143.7210 C   0  0  0  0  0  0  0  0  0  0  0  0
  185.4690  179.3860  142.3140 C   0  0  0  0  0  2  0  0  0  0  0  0
  184.7980  178.3350  141.4420 C   0  0  0  0  0  2  0  0  0  0  0  0
  183.8810  179.5450  139.4270 C   0  0  0  0  0  0  0  0  0  0  0  0
  185.0330  179.6410  138.9230 O   0  0  0  0  0  0  0  0  0  0  0  0
  183.6940  178.9240  140.7000 N   0  0  0  0  0  2  0  0  0  0  0  0
  182.6960  180.0560  138.6740 C   0  0  0  0  0  2  0  0  0  0  0  0
  179.9760  180.5660  137.8150 C   0  0  0  0  0  1  0  0  0  0  0  0
  180.7160  178.4460  138.8640 C   0  0  2  0  0  3  0  0  0  0  0  0
  180.4880  179.1600  137.5360 C   0  0  2  0  0  3  0  0  0  0  0  0
  181.9130  178.9090  138.0280 C   0  0  1  0  0  0  0  0  0  0  0  0
  182.6920  177.8540  137.2940 C   0  0  0  0  0  0  0  0  0  0  0  0
  182.6180  177.7750  135.9090 O   0  0  0  0  0  0  0  0  0  0  0  0
  183.3790  177.0130  137.9300 O   0  0  0  0  0  1  0  0  0  0  0  0
  180.3610  176.9720  138.6920 C   0  0  0  0  0  2  0  0  0  0  0  0
  180.3390  174.8690  139.8160 O   0  0  0  0  0  1  0  0  0  0  0  0
  180.5170  176.2390  140.0090 C   0  0  0  0  0  2  0  0  0  0  0  0
  1  4  1  0  0  0  0
  1  3  1  0  0  0  0
  2 10  1  0  0  0  0
  3 10  1  0  0  0  0
  3  8  2  0  0  0  0
  4  9  2  0  0  0  0
  6  7  1  0  0  0  0
  6  2  2  0  0  0  0
  7  1  2  0  0  0  0
  8  5  1  0  0  0  0
  9  8  1  0  0  0  0
 12 11  1  1  0  0  0
 12  6  1  0  0  0  0
 13 12  1  0  0  0  0
 14 13  1  0  0  0  0
 15 14  2  0  0  0  0
 16 15  1  0  0  0  0
 17 23  1  6  0  0  0
 17 16  1  0  0  0  0
 19 17  1  0  0  0  0
 19 18  2  0  0  0  0
 20 19  1  0  0  0  0
 21 22  1  0  0  0  0
 22 20  1  0  0  0  0
 23 24  1  0  0  0  0
 25 24  1  0  0  0  0
 27 25  1  0  0  0  0
 27 26  1  1  0  0  0
 27 30  1  0  0  0  0
 28 33  2  0  0  0  0
 29 30  1  0  0  0  0
 29 32  2  0  0  0  0
 30 28  1  0  0  0  0
 31 29  1  0  0  0  0
 32 33  1  0  0  0  0
 34  4  1  0  0  0  0
 36 35  2  0  0  0  0
 36 34  1  0  0  0  0
 37 36  1  0  0  0  0
 38 37  1  0  0  0  0
 39 41  1  0  0  0  0
 40 39  2  0  0  0  0
 41 38  1  0  0  0  0
 42 39  1  0  0  0  0
 44 50  1  6  0  0  0
 45 43  1  1  0  0  0
 45 46  1  0  0  0  0
 45 44  1  0  0  0  0
 46 42  1  1  0  0  0
 46 44  1  0  0  0  0
 47 49  1  0  0  0  0
 47 46  1  0  0  0  0
 48 47  2  0  0  0  0
 50 52  1  0  0  0  0
 51 52  1  0  0  0  0
M  END
>  <MODEL>
1

>  <REMARK>
 VINA RESULT:      -6.9      0.000      0.000
  Name = 
  23 active torsions:
  status: ('A' for Active; 'I' for Inactive)
    1  A    between atoms: C_2  and  O_23
    2  A    between atoms: C_2  and  C_28
    3  A    between atoms: C_4  and  C_9
    4  A    between atoms: C_4  and  C_52
    5  A    between atoms: O_5  and  C_40
    6  A    between atoms: O_5  and  C_49
    7  A    between atoms: C_6  and  C_15
    8  A    between atoms: C_6  and  C_37
    9  A    between atoms: C_8  and  C_11
   10  A    between atoms: C_8  and  C_22
   11  A    between atoms: C_10  and  C_22
   12  A    between atoms: C_13  and  O_27
   13  A    between atoms: C_13  and  O_35
   14  A    between atoms: C_13  and  C_49
   15  A    between atoms: C_14  and  C_33
   16  A    between atoms: C_14  and  C_43
   17  A    between atoms: C_16  and  C_25
   18  A    between atoms: C_16  and  N_46
   19  A    between atoms: O_23  and  O_27
   20  A    between atoms: C_25  and  C_43
   21  A    between atoms: N_26  and  C_28
   22  A    between atoms: O_35  and  C_44
   23  A    between atoms: C_37  and  C_38
                            x       y       z     vdW  Elec       q    Type
                         _______ _______ _______ _____ _____    ______ ____

>  <TORSDO>
F 23

$$$$
=
 OpenBabel10222417483D

 52 55  0  0  1  0  0  0  0  0999 V2000
  188.3700  177.6200  144.8370 C   0  0  0  0  0  0  0  0  0  0  0  0
  190.5780  178.0180  143.1310 C   0  0  0  0  0  3  0  0  0  0  0  0
  189.6870  177.5810  145.4030 C   0  0  0  0  0  0  0  0  0  0  0  0
  187.4730  177.4230  145.9630 C   0  0  0  0  0  0  0  0  0  0  0  0
  190.6020  177.2780  147.6400 N   0  0  0  0  0  1  0  0  0  0  0  0
  189.3160  178.0210  142.6380 C   0  0  0  0  0  0  0  0  0  0  0  0
  188.1430  177.8180  143.5420 C   0  0  0  0  0  3  0  0  0  0  0  0
  189.5340  177.3640  146.7000 C   0  0  0  0  0  0  0  0  0  0  0  0
  188.1500  177.2620  147.0610 N   0  0  0  0  0  0  0  0  0  0  0  0
  190.9270  177.8070  144.5950 C   0  0  0  0  0  2  0  0  0  0  0  0
  187.6890  178.4740  140.7510 C   0  0  0  0  0  1  0  0  0  0  0  0
  189.1390  178.2290  141.1590 C   0  0  2  0  0  3  0  0  0  0  0  0
  189.7170  177.0530  140.3780 C   0  0  0  0  0  2  0  0  0  0  0  0
  190.0750  177.4500  138.9850 C   0  0  0  0  0  3  0  0  0  0  0  0
  189.6550  176.7280  137.9490 C   0  0  0  0  0  3  0  0  0  0  0  0
  189.9410  177.0560  136.6190 O   0  0  0  0  0  0  0  0  0  0  0  0
  189.5020  176.2910  135.4950 C   0  0  2  0  0  3  0  0  0  0  0  0
  187.1540  176.2400  135.9270 O   0  0  0  0  0  0  0  0  0  0  0  0
  188.2190  175.5770  135.7990 C   0  0  0  0  0  0  0  0  0  0  0  0
  188.2190  174.1880  135.9450 O   0  0  0  0  0  0  0  0  0  0  0  0
  187.6390  172.4110  137.2710 O   0  0  0  0  0  1  0  0  0  0  0  0
  187.1430  173.5030  136.5670 C   0  0  0  0  0  2  0  0  0  0  0  0
  190.4980  175.3960  135.0500 O   0  0  0  0  0  0  0  0  0  0  0  0
  191.6620  175.8970  135.4230 O   0  0  0  0  0  0  0  0  0  0  0  0
  192.3040  174.8530  136.0950 C   0  0  0  0  0  2  0  0  0  0  0  0
  194.2540  176.3720  135.8100 C   0  0  0  0  0  1  0  0  0  0  0  0
  193.8000  174.9240  135.8370 C   0  0  1  0  0  3  0  0  0  0  0  0
  194.9300  174.6190  138.0520 C   0  0  0  0  0  3  0  0  0  0  0  0
  194.8060  172.8520  136.8110 C   0  0  0  0  0  0  0  0  0  0  0  0
  194.5310  174.1660  136.8510 N   0  0  0  0  0  0  0  0  0  0  0  0
  194.4660  171.9500  135.6750 C   0  0  0  0  0  1  0  0  0  0  0  0
  195.4210  172.4450  137.9730 C   0  0  0  0  0  3  0  0  0  0  0  0
  195.4980  173.5780  138.7690 C   0  0  0  0  0  3  0  0  0  0  0  0
  185.9810  177.4090  145.9130 C   0  0  0  0  0  2  0  0  0  0  0  0
  185.3480  179.3200  147.1480 O   0  0  0  0  0  0  0  0  0  0  0  0
  185.4120  178.7860  146.0520 C   0  0  0  0  0  0  0  0  0  0  0  0
  184.9840  179.5470  144.8350 C   0  0  0  0  0  2  0  0  0  0  0  0
  184.3390  178.6180  143.8180 C   0  0  0  0  0  2  0  0  0  0  0  0
  183.9940  178.6070  141.3190 C   0  0  0  0  0  0  0  0  0  0  0  0
  184.0740  177.3490  141.2830 O   0  0  0  0  0  0  0  0  0  0  0  0
  184.1430  179.3110  142.5540 N   0  0  0  0  0  2  0  0  0  0  0  0
  183.7100  179.3690  140.0650 C   0  0  0  0  0  2  0  0  0  0  0  0
  183.5610  177.7000  137.7020 C   0  0  0  0  0  1  0  0  0  0  0  0
  182.0610  179.6260  138.1260 C   0  0  2  0  0  3  0  0  0  0  0  0
  182.2180  178.1170  138.2830 C   0  0  2  0  0  3  0  0  0  0  0  0
  182.3260  179.0230  139.5090 C   0  0  1  0  0  0  0  0  0  0  0  0
  181.1740  178.9750  140.4730 C   0  0  0  0  0  0  0  0  0  0  0  0
  180.8160  180.1130  141.1840 O   0  0  0  0  0  1  0  0  0  0  0  0
  180.5580  177.8960  140.6730 O   0  0  0  0  0  0  0  0  0  0  0  0
  180.5930  179.9370  137.8460 C   0  0  0  0  0  2  0  0  0  0  0  0
  181.4980  182.1280  138.1000 O   0  0  0  0  0  1  0  0  0  0  0  0
  180.4130  181.4190  137.5860 C   0  0  0  0  0  2  0  0  0  0  0  0
  1  3  1  0  0  0  0
  1  4  1  0  0  0  0
  2 10  1  0  0  0  0
  3  8  2  0  0  0  0
  4  9  2  0  0  0  0
  6  2  2  0  0  0  0
  6  7  1  0  0  0  0
  7  1  2  0  0  0  0
  8  9  1  0  0  0  0
  8  5  1  0  0  0  0
 10  3  1  0  0  0  0
 12 11  1  1  0  0  0
 12  6  1  0  0  0  0
 13 12  1  0  0  0  0
 14 13  1  0  0  0  0
 15 14  2  0  0  0  0
 16 15  1  0  0  0  0
 17 23  1  1  0  0  0
 17 19  1  0  0  0  0
 17 16  1  0  0  0  0
 19 18  2  0  0  0  0
 19 20  1  0  0  0  0
 20 22  1  0  0  0  0
 22 21  1  0  0  0  0
 23 24  1  0  0  0  0
 24 25  1  0  0  0  0
 27 26  1  1  0  0  0
 27 25  1  0  0  0  0
 27 30  1  0  0  0  0
 28 33  2  0  0  0  0
 29 30  1  0  0  0  0
 29 32  2  0  0  0  0
 30 28  1  0  0  0  0
 31 29  1  0  0  0  0
 32 33  1  0  0  0  0
 34  4  1  0  0  0  0
 34 36  1  0  0  0  0
 36 35  2  0  0  0  0
 37 36  1  0  0  0  0
 38 37  1  0  0  0  0
 39 41  1  0  0  0  0
 40 39  2  0  0  0  0
 41 38  1  0  0  0  0
 42 39  1  0  0  0  0
 44 50  1  1  0  0  0
 44 45  1  0  0  0  0
 44 46  1  0  0  0  0
 45 43  1  6  0  0  0
 45 46  1  0  0  0  0
 46 42  1  1  0  0  0
 46 47  1  0  0  0  0
 47 49  2  0  0  0  0
 47 48  1  0  0  0  0
 52 50  1  0  0  0  0
 52 51  1  0  0  0  0
M  END
>  <MODEL>
2

>  <REMARK>
 VINA RESULT:      -6.9      2.321      4.626
  Name = 
  23 active torsions:
  status: ('A' for Active; 'I' for Inactive)
    1  A    between atoms: C_2  and  O_23
    2  A    between atoms: C_2  and  C_28
    3  A    between atoms: C_4  and  C_9
    4  A    between atoms: C_4  and  C_52
    5  A    between atoms: O_5  and  C_40
    6  A    between atoms: O_5  and  C_49
    7  A    between atoms: C_6  and  C_15
    8  A    between atoms: C_6  and  C_37
    9  A    between atoms: C_8  and  C_11
   10  A    between atoms: C_8  and  C_22
   11  A    between atoms: C_10  and  C_22
   12  A    between atoms: C_13  and  O_27
   13  A    between atoms: C_13  and  O_35
   14  A    between atoms: C_13  and  C_49
   15  A    between atoms: C_14  and  C_33
   16  A    between atoms: C_14  and  C_43
   17  A    between atoms: C_16  and  C_25
   18  A    between atoms: C_16  and  N_46
   19  A    between atoms: O_23  and  O_27
   20  A    between atoms: C_25  and  C_43
   21  A    between atoms: N_26  and  C_28
   22  A    between atoms: O_35  and  C_44
   23  A    between atoms: C_37  and  C_38
                            x       y       z     vdW  Elec       q    Type
                         _______ _______ _______ _____ _____    ______ ____

>  <TORSDO>
F 23

$$$$
=
 OpenBabel10222417483D

 52 55  0  0  1  0  0  0  0  0999 V2000
  185.6000  178.0610  143.2000 C   0  0  0  0  0  0  0  0  0  0  0  0
  187.1470  177.9250  145.5510 C   0  0  0  0  0  3  0  0  0  0  0  0
  184.9970  178.4590  144.4390 C   0  0  0  0  0  0  0  0  0  0  0  0
  184.5720  178.2830  142.1960 C   0  0  0  0  0  0  0  0  0  0  0  0
  182.8240  179.3340  145.1050 N   0  0  0  0  0  1  0  0  0  0  0  0
  187.6650  177.5360  144.3620 C   0  0  0  0  0  0  0  0  0  0  0  0
  186.8490  177.6140  143.1120 C   0  0  0  0  0  3  0  0  0  0  0  0
  183.7620  178.8400  144.1530 C   0  0  0  0  0  0  0  0  0  0  0  0
  183.4850  178.7320  142.7500 N   0  0  0  0  0  0  0  0  0  0  0  0
  185.7350  178.4530  145.7410 C   0  0  0  0  0  2  0  0  0  0  0  0
  190.1270  178.1280  144.3960 C   0  0  0  0  0  1  0  0  0  0  0  0
  189.0780  177.0210  144.3440 C   0  0  2  0  0  3  0  0  0  0  0  0
  189.3090  176.1300  143.1270 C   0  0  0  0  0  2  0  0  0  0  0  0
  190.1790  176.8030  142.1190 C   0  0  0  0  0  3  0  0  0  0  0  0
  189.9230  176.6820  140.8190 C   0  0  0  0  0  3  0  0  0  0  0  0
  190.6890  177.3010  139.8250 O   0  0  0  0  0  0  0  0  0  0  0  0
  190.2500  177.4890  138.4780 C   0  0  2  0  0  3  0  0  0  0  0  0
  188.7470  175.7570  137.8150 O   0  0  0  0  0  0  0  0  0  0  0  0
  188.8770  176.9220  138.2760 C   0  0  0  0  0  0  0  0  0  0  0  0
  187.7580  177.6960  138.5930 O   0  0  0  0  0  0  0  0  0  0  0  0
  187.4940  178.4960  136.4620 O   0  0  0  0  0  1  0  0  0  0  0  0
  186.8160  178.0870  137.6050 C   0  0  0  0  0  2  0  0  0  0  0  0
  191.1700  176.9560  137.5500 O   0  0  0  0  0  0  0  0  0  0  0  0
  191.9340  176.1040  138.2090 O   0  0  0  0  0  0  0  0  0  0  0  0
  192.9630  175.7800  137.3190 C   0  0  0  0  0  2  0  0  0  0  0  0
  192.1270  173.5540  136.5870 C   0  0  0  0  0  1  0  0  0  0  0  0
  193.2150  174.2820  137.3550 C   0  0  1  0  0  3  0  0  0  0  0  0
  194.8460  173.8110  135.5120 C   0  0  0  0  0  3  0  0  0  0  0  0
  195.6870  173.9340  137.5010 C   0  0  0  0  0  0  0  0  0  0  0  0
  194.5360  173.9730  136.8100 N   0  0  0  0  0  0  0  0  0  0  0  0
  195.7980  174.1340  138.9730 C   0  0  0  0  0  1  0  0  0  0  0  0
  196.7540  173.7090  136.6610 C   0  0  0  0  0  3  0  0  0  0  0  0
  196.2140  173.6330  135.3870 C   0  0  0  0  0  3  0  0  0  0  0  0
  184.7060  178.0510  140.7280 C   0  0  0  0  0  2  0  0  0  0  0  0
  184.5120  180.0990  139.5690 O   0  0  0  0  0  0  0  0  0  0  0  0
  183.9570  179.0770  139.9370 C   0  0  0  0  0  0  0  0  0  0  0  0
  182.5380  178.8200  139.5280 C   0  0  0  0  0  2  0  0  0  0  0  0
  182.4070  178.8200  138.0130 C   0  0  0  0  0  2  0  0  0  0  0  0
  182.9260  177.2930  136.0730 C   0  0  0  0  0  0  0  0  0  0  0  0
  182.1790  177.9610  135.3080 O   0  0  0  0  0  0  0  0  0  0  0  0
  183.0670  177.6530  137.4490 N   0  0  0  0  0  2  0  0  0  0  0  0
  183.6960  176.1330  135.5310 C   0  0  0  0  0  2  0  0  0  0  0  0
  185.3160  174.4550  137.2500 C   0  0  0  0  0  1  0  0  0  0  0  0
  183.8420  173.5790  135.4610 C   0  0  2  0  0  3  0  0  0  0  0  0
  183.9260  173.9150  136.9460 C   0  0  2  0  0  3  0  0  0  0  0  0
  183.1060  174.8030  136.0120 C   0  0  1  0  0  0  0  0  0  0  0  0
  181.6120  174.7070  136.1470 C   0  0  0  0  0  0  0  0  0  0  0  0
  180.8020  174.8850  135.0330 O   0  0  0  0  0  0  0  0  0  0  0  0
  181.0880  174.5080  137.2740 O   0  0  0  0  0  1  0  0  0  0  0  0
  182.9660  172.3420  135.2900 C   0  0  0  0  0  2  0  0  0  0  0  0
  183.5630  170.4110  136.5550 O   0  0  0  0  0  1  0  0  0  0  0  0
  183.8120  171.0870  135.3600 C   0  0  0  0  0  2  0  0  0  0  0  0
  1  3  1  0  0  0  0
  2 10  1  0  0  0  0
  3 10  1  0  0  0  0
  4  9  2  0  0  0  0
  4  1  1  0  0  0  0
  6  2  2  0  0  0  0
  7  1  2  0  0  0  0
  7  6  1  0  0  0  0
  8  3  2  0  0  0  0
  8  5  1  0  0  0  0
  9  8  1  0  0  0  0
 12  6  1  0  0  0  0
 12 11  1  6  0  0  0
 13 12  1  0  0  0  0
 14 13  1  0  0  0  0
 15 14  2  0  0  0  0
 16 15  1  0  0  0  0
 17 23  1  6  0  0  0
 17 16  1  0  0  0  0
 18 19  2  0  0  0  0
 19 17  1  0  0  0  0
 19 20  1  0  0  0  0
 21 22  1  0  0  0  0
 22 20  1  0  0  0  0
 23 24  1  0  0  0  0
 25 27  1  0  0  0  0
 25 24  1  0  0  0  0
 27 26  1  6  0  0  0
 28 30  1  0  0  0  0
 29 31  1  0  0  0  0
 30 27  1  0  0  0  0
 30 29  1  0  0  0  0
 32 29  2  0  0  0  0
 33 28  2  0  0  0  0
 33 32  1  0  0  0  0
 34  4  1  0  0  0  0
 35 36  2  0  0  0  0
 36 34  1  0  0  0  0
 37 36  1  0  0  0  0
 38 37  1  0  0  0  0
 39 41  1  0  0  0  0
 40 39  2  0  0  0  0
 41 38  1  0  0  0  0
 42 39  1  0  0  0  0
 44 50  1  1  0  0  0
 44 46  1  0  0  0  0
 44 45  1  0  0  0  0
 45 43  1  6  0  0  0
 46 42  1  6  0  0  0
 46 47  1  0  0  0  0
 46 45  1  0  0  0  0
 47 49  1  0  0  0  0
 48 47  2  0  0  0  0
 50 52  1  0  0  0  0
 52 51  1  0  0  0  0
M  END
>  <MODEL>
3

>  <REMARK>
 VINA RESULT:      -6.8      2.620      5.295
  Name = 
  23 active torsions:
  status: ('A' for Active; 'I' for Inactive)
    1  A    between atoms: C_2  and  O_23
    2  A    between atoms: C_2  and  C_28
    3  A    between atoms: C_4  and  C_9
    4  A    between atoms: C_4  and  C_52
    5  A    between atoms: O_5  and  C_40
    6  A    between atoms: O_5  and  C_49
    7  A    between atoms: C_6  and  C_15
    8  A    between atoms: C_6  and  C_37
    9  A    between atoms: C_8  and  C_11
   10  A    between atoms: C_8  and  C_22
   11  A    between atoms: C_10  and  C_22
   12  A    between atoms: C_13  and  O_27
   13  A    between atoms: C_13  and  O_35
   14  A    between atoms: C_13  and  C_49
   15  A    between atoms: C_14  and  C_33
   16  A    between atoms: C_14  and  C_43
   17  A    between atoms: C_16  and  C_25
   18  A    between atoms: C_16  and  N_46
   19  A    between atoms: O_23  and  O_27
   20  A    between atoms: C_25  and  C_43
   21  A    between atoms: N_26  and  C_28
   22  A    between atoms: O_35  and  C_44
   23  A    between atoms: C_37  and  C_38
                            x       y       z     vdW  Elec       q    Type
                         _______ _______ _______ _____ _____    ______ ____

>  <TORSDO>
F 23

$$$$
=
 OpenBabel10222417483D

 52 55  0  0  1  0  0  0  0  0999 V2000
  187.6780  175.0190  136.9160 C   0  0  0  0  0  0  0  0  0  0  0  0
  186.5030  172.4610  136.7970 C   0  0  0  0  0  3  0  0  0  0  0  0
  188.5380  173.8710  136.9190 C   0  0  0  0  0  0  0  0  0  0  0  0
  188.5780  176.1600  136.9460 C   0  0  0  0  0  0  0  0  0  0  0  0
  190.9470  173.5110  136.9630 N   0  0  0  0  0  1  0  0  0  0  0  0
  185.7320  173.5740  136.8220 C   0  0  0  0  0  0  0  0  0  0  0  0
  186.3530  174.9310  136.8780 C   0  0  0  0  0  3  0  0  0  0  0  0
  189.7790  174.3290  136.9660 C   0  0  0  0  0  0  0  0  0  0  0  0
  189.8150  175.7620  136.9850 N   0  0  0  0  0  0  0  0  0  0  0  0
  188.0220  172.4690  136.8320 C   0  0  0  0  0  2  0  0  0  0  0  0
  183.7940  171.9610  137.0690 C   0  0  0  0  0  1  0  0  0  0  0  0
  184.2370  173.3950  136.7980 C   0  0  2  0  0  3  0  0  0  0  0  0
  183.6600  173.8860  135.4740 C   0  0  0  0  0  2  0  0  0  0  0  0
  182.4390  174.7150  135.6890 C   0  0  0  0  0  3  0  0  0  0  0  0
  182.2400  175.3370  136.8490 C   0  0  0  0  0  3  0  0  0  0  0  0
  181.1260  176.1420  137.1070 O   0  0  0  0  0  0  0  0  0  0  0  0
  180.5510  176.3210  138.4040 C   0  0  2  0  0  3  0  0  0  0  0  0
  179.0370  175.1400  139.8230 O   0  0  0  0  0  0  0  0  0  0  0  0
  179.4610  175.3210  138.6500 C   0  0  0  0  0  0  0  0  0  0  0  0
  178.9350  174.5950  137.5790 O   0  0  0  0  0  0  0  0  0  0  0  0
  180.2700  172.8280  138.1700 O   0  0  0  0  0  1  0  0  0  0  0  0
  179.1340  173.1950  137.4560 C   0  0  0  0  0  2  0  0  0  0  0  0
  180.0940  177.6420  138.5950 O   0  0  0  0  0  0  0  0  0  0  0  0
  181.1440  178.3700  138.9250 O   0  0  0  0  0  0  0  0  0  0  0  0
  181.5860  177.8340  140.1390 C   0  0  0  0  0  2  0  0  0  0  0  0
  183.3530  179.4690  139.5120 C   0  0  0  0  0  1  0  0  0  0  0  0
  183.0050  178.3010  140.4160 C   0  0  1  0  0  3  0  0  0  0  0  0
  182.1720  178.7800  142.7300 C   0  0  0  0  0  3  0  0  0  0  0  0
  184.3200  178.8120  142.4810 C   0  0  0  0  0  0  0  0  0  0  0  0
  183.1580  178.6650  141.8240 N   0  0  0  0  0  0  0  0  0  0  0  0
  185.6670  178.6950  141.8560 C   0  0  0  0  0  1  0  0  0  0  0  0
  184.0990  179.0610  143.8170 C   0  0  0  0  0  3  0  0  0  0  0  0
  182.7220  179.0380  143.9750 C   0  0  0  0  0  3  0  0  0  0  0  0
  188.1830  177.5990  136.9250 C   0  0  0  0  0  2  0  0  0  0  0  0
  186.9010  178.2500  138.7980 O   0  0  0  0  0  0  0  0  0  0  0  0
  188.0130  178.1440  138.3080 C   0  0  0  0  0  0  0  0  0  0  0  0
  189.2170  178.4950  139.1290 C   0  0  0  0  0  2  0  0  0  0  0  0
  189.5000  177.4110  140.1580 C   0  0  0  0  0  2  0  0  0  0  0  0
  190.2730  178.0760  142.4660 C   0  0  0  0  0  0  0  0  0  0  0  0
  191.4610  177.7550  142.1930 O   0  0  0  0  0  0  0  0  0  0  0  0
  189.2340  177.9060  141.5000 N   0  0  0  0  0  2  0  0  0  0  0  0
  189.9510  178.6690  143.7990 C   0  0  0  0  0  2  0  0  0  0  0  0
  187.4060  177.3520  144.2230 C   0  0  0  0  0  1  0  0  0  0  0  0
  188.9590  177.9710  146.0520 C   0  0  2  0  0  3  0  0  0  0  0  0
  188.5440  176.8530  145.1020 C   0  0  2  0  0  3  0  0  0  0  0  0
  189.8660  177.5870  144.8800 C   0  0  1  0  0  0  0  0  0  0  0  0
  191.1160  176.8140  145.1980 C   0  0  0  0  0  0  0  0  0  0  0  0
  191.9440  177.2300  146.2330 O   0  0  0  0  0  1  0  0  0  0  0  0
  191.4380  175.8150  144.5060 O   0  0  0  0  0  0  0  0  0  0  0  0
  189.3600  177.3520  147.3880 C   0  0  0  0  0  2  0  0  0  0  0  0
  187.3010  178.4370  147.9070 O   0  0  0  0  0  1  0  0  0  0  0  0
  188.3920  177.7770  148.4730 C   0  0  0  0  0  2  0  0  0  0  0  0
  1  3  1  0  0  0  0
  1  4  1  0  0  0  0
  2  6  2  0  0  0  0
  2 10  1  0  0  0  0
  3  8  2  0  0  0  0
  4  9  2  0  0  0  0
  5  8  1  0  0  0  0
  6  7  1  0  0  0  0
  7  1  2  0  0  0  0
  8  9  1  0  0  0  0
 10  3  1  0  0  0  0
 12  6  1  0  0  0  0
 12 11  1  6  0  0  0
 13 14  1  0  0  0  0
 13 12  1  0  0  0  0
 14 15  2  0  0  0  0
 15 16  1  0  0  0  0
 17 16  1  6  0  0  0
 17 23  1  0  0  0  0
 17 19  1  0  0  0  0
 19 18  2  0  0  0  0
 20 19  1  0  0  0  0
 22 20  1  0  0  0  0
 22 21  1  0  0  0  0
 23 24  1  0  0  0  0
 24 25  1  0  0  0  0
 25 27  1  0  0  0  0
 27 26  1  6  0  0  0
 27 30  1  0  0  0  0
 28 33  2  0  0  0  0
 29 32  2  0  0  0  0
 30 29  1  0  0  0  0
 30 28  1  0  0  0  0
 31 29  1  0  0  0  0
 32 33  1  0  0  0  0
 34  4  1  0  0  0  0
 34 36  1  0  0  0  0
 36 35  2  0  0  0  0
 36 37  1  0  0  0  0
 37 38  1  0  0  0  0
 38 41  1  0  0  0  0
 39 42  1  0  0  0  0
 40 39  2  0  0  0  0
 41 39  1  0  0  0  0
 44 50  1  1  0  0  0
 45 43  1  6  0  0  0
 45 44  1  0  0  0  0
 46 42  1  6  0  0  0
 46 45  1  0  0  0  0
 46 47  1  0  0  0  0
 46 44  1  0  0  0  0
 47 48  1  0  0  0  0
 49 47  2  0  0  0  0
 50 52  1  0  0  0  0
 51 52  1  0  0  0  0
M  END
>  <MODEL>
4

>  <REMARK>
 VINA RESULT:      -6.8      3.113     10.341
  Name = 
  23 active torsions:
  status: ('A' for Active; 'I' for Inactive)
    1  A    between atoms: C_2  and  O_23
    2  A    between atoms: C_2  and  C_28
    3  A    between atoms: C_4  and  C_9
    4  A    between atoms: C_4  and  C_52
    5  A    between atoms: O_5  and  C_40
    6  A    between atoms: O_5  and  C_49
    7  A    between atoms: C_6  and  C_15
    8  A    between atoms: C_6  and  C_37
    9  A    between atoms: C_8  and  C_11
   10  A    between atoms: C_8  and  C_22
   11  A    between atoms: C_10  and  C_22
   12  A    between atoms: C_13  and  O_27
   13  A    between atoms: C_13  and  O_35
   14  A    between atoms: C_13  and  C_49
   15  A    between atoms: C_14  and  C_33
   16  A    between atoms: C_14  and  C_43
   17  A    between atoms: C_16  and  C_25
   18  A    between atoms: C_16  and  N_46
   19  A    between atoms: O_23  and  O_27
   20  A    between atoms: C_25  and  C_43
   21  A    between atoms: N_26  and  C_28
   22  A    between atoms: O_35  and  C_44
   23  A    between atoms: C_37  and  C_38
                            x       y       z     vdW  Elec       q    Type
                         _______ _______ _______ _____ _____    ______ ____

>  <TORSDO>
F 23

$$$$
=
 OpenBabel10222417483D

 52 55  0  0  1  0  0  0  0  0999 V2000
  187.5160  177.6090  144.9570 C   0  0  0  0  0  0  0  0  0  0  0  0
  190.2980  177.1790  144.8190 C   0  0  0  0  0  3  0  0  0  0  0  0
  188.2770  177.6590  146.1710 C   0  0  0  0  0  0  0  0  0  0  0  0
  186.1510  177.9040  145.3570 C   0  0  0  0  0  0  0  0  0  0  0  0
  187.7710  178.0930  148.5140 N   0  0  0  0  0  1  0  0  0  0  0  0
  189.5350  177.1160  143.7020 C   0  0  0  0  0  0  0  0  0  0  0  0
  188.0610  177.3510  143.7710 C   0  0  0  0  0  3  0  0  0  0  0  0
  187.4190  177.9320  147.1420 C   0  0  0  0  0  0  0  0  0  0  0  0
  186.0840  178.0860  146.6430 N   0  0  0  0  0  0  0  0  0  0  0  0
  189.7610  177.4730  146.2100 C   0  0  0  0  0  2  0  0  0  0  0  0
  191.6610  177.2880  142.3370 C   0  0  0  0  0  1  0  0  0  0  0  0
  190.2180  176.7980  142.4000 C   0  0  2  0  0  3  0  0  0  0  0  0
  189.4190  177.3550  141.2250 C   0  0  0  0  0  2  0  0  0  0  0  0
  190.2510  177.4280  139.9890 C   0  0  0  0  0  3  0  0  0  0  0  0
  190.2950  176.4030  139.1420 C   0  0  0  0  0  3  0  0  0  0  0  0
  191.0410  176.4150  137.9590 O   0  0  0  0  0  0  0  0  0  0  0  0
  190.6740  175.7030  136.7750 C   0  0  2  0  0  3  0  0  0  0  0  0
  191.6330  173.5510  136.3910 O   0  0  0  0  0  0  0  0  0  0  0  0
  191.7840  174.8000  136.3270 C   0  0  0  0  0  0  0  0  0  0  0  0
  192.9750  175.3540  135.8520 O   0  0  0  0  0  0  0  0  0  0  0  0
  194.9680  176.4210  136.2320 O   0  0  0  0  0  1  0  0  0  0  0  0
  194.1580  175.3650  136.6370 C   0  0  0  0  0  2  0  0  0  0  0  0
  190.2710  176.5780  135.7440 O   0  0  0  0  0  0  0  0  0  0  0  0
  189.1260  177.1170  136.1200 O   0  0  0  0  0  0  0  0  0  0  0  0
  188.1930  176.0790  136.0330 C   0  0  0  0  0  2  0  0  0  0  0  0
  187.1830  177.6410  137.6840 C   0  0  0  0  0  1  0  0  0  0  0  0
  187.1630  176.2250  137.1400 C   0  0  1  0  0  3  0  0  0  0  0  0
  185.0190  176.6520  135.9150 C   0  0  0  0  0  3  0  0  0  0  0  0
  185.2530  174.6630  136.7320 C   0  0  0  0  0  0  0  0  0  0  0  0
  185.8320  175.8720  136.6490 N   0  0  0  0  0  0  0  0  0  0  0  0
  185.8540  173.4810  137.4110 C   0  0  0  0  0  1  0  0  0  0  0  0
  184.0390  174.6560  136.0820 C   0  0  0  0  0  3  0  0  0  0  0  0
  183.8920  175.9300  135.5570 C   0  0  0  0  0  3  0  0  0  0  0  0
  184.9660  178.0030  144.4550 C   0  0  0  0  0  2  0  0  0  0  0  0
  184.5830  180.3270  144.2910 O   0  0  0  0  0  0  0  0  0  0  0  0
  184.9390  179.3080  143.7230 C   0  0  0  0  0  0  0  0  0  0  0  0
  185.4200  179.3840  142.3060 C   0  0  0  0  0  2  0  0  0  0  0  0
  184.7960  178.2790  141.4660 C   0  0  0  0  0  2  0  0  0  0  0  0
  182.8100  179.0330  140.1060 C   0  0  0  0  0  0  0  0  0  0  0  0
  183.5560  179.3590  139.1420 O   0  0  0  0  0  0  0  0  0  0  0  0
  183.3670  178.5090  141.3120 N   0  0  0  0  0  2  0  0  0  0  0  0
  181.3270  179.1670  139.9750 C   0  0  0  0  0  2  0  0  0  0  0  0
  179.6240  177.1860  141.2260 C   0  0  0  0  0  1  0  0  0  0  0  0
  181.2760  176.6630  139.4550 C   0  0  2  0  0  3  0  0  0  0  0  0
  179.8180  177.0150  139.7270 C   0  0  2  0  0  3  0  0  0  0  0  0
  180.7460  178.0540  139.0980 C   0  0  1  0  0  0  0  0  0  0  0  0
  180.5170  178.3540  137.6430 C   0  0  0  0  0  0  0  0  0  0  0  0
  181.5920  178.6750  136.8250 O   0  0  0  0  0  0  0  0  0  0  0  0
  179.3510  178.3560  137.1710 O   0  0  0  0  0  1  0  0  0  0  0  0
  181.3320  175.6900  138.2800 C   0  0  0  0  0  2  0  0  0  0  0  0
  180.8210  173.4220  137.7500 O   0  0  0  0  0  1  0  0  0  0  0  0
  180.4270  174.5030  138.5400 C   0  0  0  0  0  2  0  0  0  0  0  0
  1  4  1  0  0  0  0
  1  3  1  0  0  0  0
  2 10  1  0  0  0  0
  3 10  1  0  0  0  0
  3  8  2  0  0  0  0
  4  9  2  0  0  0  0
  6  7  1  0  0  0  0
  6  2  2  0  0  0  0
  7  1  2  0  0  0  0
  8  5  1  0  0  0  0
  9  8  1  0  0  0  0
 12 11  1  1  0  0  0
 12  6  1  0  0  0  0
 13 12  1  0  0  0  0
 14 13  1  0  0  0  0
 15 14  2  0  0  0  0
 16 15  1  0  0  0  0
 17 23  1  6  0  0  0
 17 16  1  0  0  0  0
 19 18  2  0  0  0  0
 19 17  1  0  0  0  0
 20 19  1  0  0  0  0
 20 22  1  0  0  0  0
 21 22  1  0  0  0  0
 23 24  1  0  0  0  0
 25 24  1  0  0  0  0
 25 27  1  0  0  0  0
 27 26  1  6  0  0  0
 28 30  1  0  0  0  0
 29 31  1  0  0  0  0
 30 29  1  0  0  0  0
 30 27  1  0  0  0  0
 32 29  2  0  0  0  0
 33 28  2  0  0  0  0
 33 32  1  0  0  0  0
 34  4  1  0  0  0  0
 36 35  2  0  0  0  0
 36 34  1  0  0  0  0
 37 36  1  0  0  0  0
 38 37  1  0  0  0  0
 39 41  1  0  0  0  0
 40 39  2  0  0  0  0
 41 38  1  0  0  0  0
 42 39  1  0  0  0  0
 44 50  1  6  0  0  0
 44 45  1  0  0  0  0
 45 43  1  1  0  0  0
 46 44  1  0  0  0  0
 46 45  1  0  0  0  0
 46 42  1  1  0  0  0
 47 46  1  0  0  0  0
 48 47  2  0  0  0  0
 49 47  1  0  0  0  0
 50 52  1  0  0  0  0
 51 52  1  0  0  0  0
M  END
>  <MODEL>
5

>  <REMARK>
 VINA RESULT:      -6.7      1.512      2.365
  Name = 
  23 active torsions:
  status: ('A' for Active; 'I' for Inactive)
    1  A    between atoms: C_2  and  O_23
    2  A    between atoms: C_2  and  C_28
    3  A    between atoms: C_4  and  C_9
    4  A    between atoms: C_4  and  C_52
    5  A    between atoms: O_5  and  C_40
    6  A    between atoms: O_5  and  C_49
    7  A    between atoms: C_6  and  C_15
    8  A    between atoms: C_6  and  C_37
    9  A    between atoms: C_8  and  C_11
   10  A    between atoms: C_8  and  C_22
   11  A    between atoms: C_10  and  C_22
   12  A    between atoms: C_13  and  O_27
   13  A    between atoms: C_13  and  O_35
   14  A    between atoms: C_13  and  C_49
   15  A    between atoms: C_14  and  C_33
   16  A    between atoms: C_14  and  C_43
   17  A    between atoms: C_16  and  C_25
   18  A    between atoms: C_16  and  N_46
   19  A    between atoms: O_23  and  O_27
   20  A    between atoms: C_25  and  C_43
   21  A    between atoms: N_26  and  C_28
   22  A    between atoms: O_35  and  C_44
   23  A    between atoms: C_37  and  C_38
                            x       y       z     vdW  Elec       q    Type
                         _______ _______ _______ _____ _____    ______ ____

>  <TORSDO>
F 23

$$$$
=
 OpenBabel10222417483D

 52 55  0  0  1  0  0  0  0  0999 V2000
  188.0020  175.1250  136.4260 C   0  0  0  0  0  0  0  0  0  0  0  0
  186.7910  172.7010  137.2010 C   0  0  0  0  0  3  0  0  0  0  0  0
  188.8430  173.9910  136.6810 C   0  0  0  0  0  0  0  0  0  0  0  0
  188.9130  176.1820  136.0190 C   0  0  0  0  0  0  0  0  0  0  0  0
  191.2360  173.5520  136.5750 N   0  0  0  0  0  1  0  0  0  0  0  0
  186.0400  173.8050  136.9740 C   0  0  0  0  0  0  0  0  0  0  0  0
  186.6800  175.0900  136.5560 C   0  0  0  0  0  3  0  0  0  0  0  0
  190.0860  174.3860  136.4580 C   0  0  0  0  0  0  0  0  0  0  0  0
  190.1410  175.7570  136.0440 N   0  0  0  0  0  0  0  0  0  0  0  0
  188.3040  172.6500  137.0710 C   0  0  0  0  0  2  0  0  0  0  0  0
  184.0500  172.2550  137.1930 C   0  0  0  0  0  1  0  0  0  0  0  0
  184.5510  173.6950  137.1620 C   0  0  2  0  0  3  0  0  0  0  0  0
  183.8150  174.4890  136.0870 C   0  0  0  0  0  2  0  0  0  0  0  0
  182.7970  175.3990  136.6880 C   0  0  0  0  0  3  0  0  0  0  0  0
  182.5260  175.3450  137.9890 C   0  0  0  0  0  3  0  0  0  0  0  0
  181.5960  176.1810  138.6150 O   0  0  0  0  0  0  0  0  0  0  0  0
  180.3590  175.7280  139.1710 C   0  0  2  0  0  3  0  0  0  0  0  0
  179.0430  175.5250  137.1890 O   0  0  0  0  0  0  0  0  0  0  0  0
  179.5770  174.9360  138.1670 C   0  0  0  0  0  0  0  0  0  0  0  0
  179.4430  173.5550  138.3310 O   0  0  0  0  0  0  0  0  0  0  0  0
  180.6150  171.6230  137.9460 O   0  0  0  0  0  1  0  0  0  0  0  0
  179.8840  172.6390  137.3390 C   0  0  0  0  0  2  0  0  0  0  0  0
  179.5980  176.7960  139.6920 O   0  0  0  0  0  0  0  0  0  0  0  0
  180.1920  177.1860  140.8050 O   0  0  0  0  0  0  0  0  0  0  0  0
  179.8390  178.5320  140.9490 C   0  0  0  0  0  2  0  0  0  0  0  0
  181.3020  178.9250  142.9210 C   0  0  0  0  0  1  0  0  0  0  0  0
  181.0260  179.3160  141.4820 C   0  0  1  0  0  3  0  0  0  0  0  0
  183.2590  178.3170  140.9420 C   0  0  0  0  0  3  0  0  0  0  0  0
  182.3660  179.5170  139.3800 C   0  0  0  0  0  0  0  0  0  0  0  0
  182.2030  179.0940  140.6440 N   0  0  0  0  0  0  0  0  0  0  0  0
  181.3870  180.3570  138.6350 C   0  0  0  0  0  1  0  0  0  0  0  0
  183.5500  179.0490  138.8560 C   0  0  0  0  0  3  0  0  0  0  0  0
  184.1200  178.2780  139.8570 C   0  0  0  0  0  3  0  0  0  0  0  0
  188.5340  177.5670  135.6120 C   0  0  0  0  0  2  0  0  0  0  0  0
  187.1580  179.0950  136.7720 O   0  0  0  0  0  0  0  0  0  0  0  0
  188.1660  178.4080  136.7930 C   0  0  0  0  0  0  0  0  0  0  0  0
  188.9950  178.3530  138.0400 C   0  0  0  0  0  2  0  0  0  0  0  0
  188.1760  177.8250  139.2080 C   0  0  0  0  0  2  0  0  0  0  0  0
  189.1970  177.8100  141.5150 C   0  0  0  0  0  0  0  0  0  0  0  0
  188.6000  178.8790  141.8190 O   0  0  0  0  0  0  0  0  0  0  0  0
  189.0500  177.2400  140.2140 N   0  0  0  0  0  2  0  0  0  0  0  0
  190.0420  177.1170  142.5330 C   0  0  0  0  0  2  0  0  0  0  0  0
  191.4580  179.1880  143.9820 C   0  0  0  0  0  1  0  0  0  0  0  0
  190.6200  177.1040  145.0260 C   0  0  2  0  0  3  0  0  0  0  0  0
  190.2900  178.5620  144.7290 C   0  0  2  0  0  3  0  0  0  0  0  0
  189.5810  177.4510  143.9560 C   0  0  1  0  0  0  0  0  0  0  0  0
  188.1350  177.2230  144.2960 C   0  0  0  0  0  0  0  0  0  0  0  0
  187.4520  178.1480  145.0750 O   0  0  0  0  0  1  0  0  0  0  0  0
  187.5500  176.1770  143.9140 O   0  0  0  0  0  0  0  0  0  0  0  0
  190.0260  176.7350  146.3830 C   0  0  0  0  0  2  0  0  0  0  0  0
  191.8830  175.6320  147.3900 O   0  0  0  0  0  1  0  0  0  0  0  0
  191.0970  176.7820  147.4530 C   0  0  0  0  0  2  0  0  0  0  0  0
  1  7  2  0  0  0  0
  1  3  1  0  0  0  0
  3 10  1  0  0  0  0
  4  9  2  0  0  0  0
  4  1  1  0  0  0  0
  6 12  1  0  0  0  0
  6  2  2  0  0  0  0
  7  6  1  0  0  0  0
  8  5  1  0  0  0  0
  8  3  2  0  0  0  0
  9  8  1  0  0  0  0
 10  2  1  0  0  0  0
 12 11  1  6  0  0  0
 13 14  1  0  0  0  0
 13 12  1  0  0  0  0
 14 15  2  0  0  0  0
 15 16  1  0  0  0  0
 16 17  1  0  0  0  0
 17 19  1  6  0  0  0
 17 23  1  0  0  0  0
 18 19  2  0  0  0  0
 19 20  1  0  0  0  0
 22 21  1  0  0  0  0
 22 20  1  0  0  0  0
 23 24  1  0  0  0  0
 24 25  1  0  0  0  0
 25 27  1  0  0  0  0
 27 26  1  1  0  0  0
 29 30  1  0  0  0  0
 30 28  1  0  0  0  0
 30 27  1  0  0  0  0
 31 29  1  0  0  0  0
 32 29  2  0  0  0  0
 32 33  1  0  0  0  0
 33 28  2  0  0  0  0
 34  4  1  0  0  0  0
 34 36  1  0  0  0  0
 35 36  2  0  0  0  0
 36 37  1  0  0  0  0
 37 38  1  0  0  0  0
 38 41  1  0  0  0  0
 39 40  2  0  0  0  0
 39 42  1  0  0  0  0
 41 39  1  0  0  0  0
 44 50  1  1  0  0  0
 45 43  1  6  0  0  0
 45 44  1  0  0  0  0
 46 42  1  6  0  0  0
 46 47  1  0  0  0  0
 46 45  1  0  0  0  0
 46 44  1  0  0  0  0
 47 48  1  0  0  0  0
 49 47  2  0  0  0  0
 50 52  1  0  0  0  0
 51 52  1  0  0  0  0
M  END
>  <MODEL>
6

>  <REMARK>
 VINA RESULT:      -6.6      3.444     10.373
  Name = 
  23 active torsions:
  status: ('A' for Active; 'I' for Inactive)
    1  A    between atoms: C_2  and  O_23
    2  A    between atoms: C_2  and  C_28
    3  A    between atoms: C_4  and  C_9
    4  A    between atoms: C_4  and  C_52
    5  A    between atoms: O_5  and  C_40
    6  A    between atoms: O_5  and  C_49
    7  A    between atoms: C_6  and  C_15
    8  A    between atoms: C_6  and  C_37
    9  A    between atoms: C_8  and  C_11
   10  A    between atoms: C_8  and  C_22
   11  A    between atoms: C_10  and  C_22
   12  A    between atoms: C_13  and  O_27
   13  A    between atoms: C_13  and  O_35
   14  A    between atoms: C_13  and  C_49
   15  A    between atoms: C_14  and  C_33
   16  A    between atoms: C_14  and  C_43
   17  A    between atoms: C_16  and  C_25
   18  A    between atoms: C_16  and  N_46
   19  A    between atoms: O_23  and  O_27
   20  A    between atoms: C_25  and  C_43
   21  A    between atoms: N_26  and  C_28
   22  A    between atoms: O_35  and  C_44
   23  A    between atoms: C_37  and  C_38
                            x       y       z     vdW  Elec       q    Type
                         _______ _______ _______ _____ _____    ______ ____

>  <TORSDO>
F 23

$$$$
=
 OpenBabel10222417483D

 52 55  0  0  1  0  0  0  0  0999 V2000
  187.2030  177.6550  144.6950 C   0  0  0  0  0  0  0  0  0  0  0  0
  188.9350  177.3960  146.9030 C   0  0  0  0  0  3  0  0  0  0  0  0
  186.6870  177.9270  146.0050 C   0  0  0  0  0  0  0  0  0  0  0  0
  186.0930  177.9130  143.7930 C   0  0  0  0  0  0  0  0  0  0  0  0
  184.5420  178.6530  146.9040 N   0  0  0  0  0  1  0  0  0  0  0  0
  189.3710  177.1260  145.6490 C   0  0  0  0  0  0  0  0  0  0  0  0
  188.4570  177.2700  144.4760 C   0  0  0  0  0  3  0  0  0  0  0  0
  185.4200  178.2770  145.8450 C   0  0  0  0  0  0  0  0  0  0  0  0
  185.0380  178.2710  144.4630 N   0  0  0  0  0  0  0  0  0  0  0  0
  187.5240  177.8470  147.2430 C   0  0  0  0  0  2  0  0  0  0  0  0
  191.6290  176.8120  146.7530 C   0  0  0  0  0  1  0  0  0  0  0  0
  190.7960  176.6730  145.4820 C   0  0  2  0  0  3  0  0  0  0  0  0
  191.4630  177.4150  144.3280 C   0  0  0  0  0  2  0  0  0  0  0  0
  191.3910  176.6280  143.0630 C   0  0  0  0  0  3  0  0  0  0  0  0
  190.6250  177.0370  142.0550 C   0  0  0  0  0  3  0  0  0  0  0  0
  190.5280  176.3540  140.8380 O   0  0  0  0  0  0  0  0  0  0  0  0
  190.7810  176.9500  139.5640 C   0  0  2  0  0  3  0  0  0  0  0  0
  190.2050  175.0720  138.2080 O   0  0  0  0  0  0  0  0  0  0  0  0
  189.9800  176.2800  138.4890 C   0  0  0  0  0  0  0  0  0  0  0  0
  189.0000  177.0030  137.8060 O   0  0  0  0  0  0  0  0  0  0  0  0
  188.3190  179.0230  138.6490 O   0  0  0  0  0  1  0  0  0  0  0  0
  189.0800  178.4130  137.6570 C   0  0  0  0  0  2  0  0  0  0  0  0
  192.1580  176.9570  139.2540 O   0  0  0  0  0  0  0  0  0  0  0  0
  192.2590  176.8760  137.9400 O   0  0  0  0  0  0  0  0  0  0  0  0
  193.6000  176.5620  137.7010 C   0  0  0  0  0  2  0  0  0  0  0  0
  192.7550  175.0560  135.9110 C   0  0  0  0  0  1  0  0  0  0  0  0
  193.6980  175.1730  137.0930 C   0  0  1  0  0  3  0  0  0  0  0  0
  195.7960  175.5550  135.7770 C   0  0  0  0  0  3  0  0  0  0  0  0
  195.8970  173.9950  137.2720 C   0  0  0  0  0  0  0  0  0  0  0  0
  195.0750  174.8860  136.6940 N   0  0  0  0  0  0  0  0  0  0  0  0
  195.5110  173.0870  138.3890 C   0  0  0  0  0  1  0  0  0  0  0  0
  197.1520  174.0500  136.7100 C   0  0  0  0  0  3  0  0  0  0  0  0
  197.0870  175.0520  135.7530 C   0  0  0  0  0  3  0  0  0  0  0  0
  186.1190  177.8050  142.3050 C   0  0  0  0  0  2  0  0  0  0  0  0
  185.2420  179.8460  141.5020 O   0  0  0  0  0  0  0  0  0  0  0  0
  185.0590  178.6510  141.6720 C   0  0  0  0  0  0  0  0  0  0  0  0
  183.7930  178.0220  141.1770 C   0  0  0  0  0  2  0  0  0  0  0  0
  183.0930  178.9350  140.1810 C   0  0  0  0  0  2  0  0  0  0  0  0
  181.9160  177.7340  138.3000 C   0  0  0  0  0  0  0  0  0  0  0  0
  182.9220  177.8600  137.5500 O   0  0  0  0  0  0  0  0  0  0  0  0
  181.9230  178.2710  139.6240 N   0  0  0  0  0  2  0  0  0  0  0  0
  180.7160  176.9890  137.8130 C   0  0  0  0  0  2  0  0  0  0  0  0
  180.0570  174.5610  139.2500 C   0  0  0  0  0  1  0  0  0  0  0  0
  182.1700  174.8920  137.9990 C   0  0  2  0  0  3  0  0  0  0  0  0
  180.7470  174.3500  137.9100 C   0  0  2  0  0  3  0  0  0  0  0  0
  181.1130  175.6470  137.1890 C   0  0  1  0  0  0  0  0  0  0  0  0
  181.2040  175.5700  135.6910 C   0  0  0  0  0  0  0  0  0  0  0  0
  180.3020  174.7890  134.9800 O   0  0  0  0  0  0  0  0  0  0  0  0
  182.1210  176.1770  135.0790 O   0  0  0  0  0  1  0  0  0  0  0  0
  183.0840  174.0000  137.1630 C   0  0  0  0  0  2  0  0  0  0  0  0
  184.9930  175.4280  137.1600 O   0  0  0  0  0  1  0  0  0  0  0  0
  184.5270  174.1850  137.5880 C   0  0  0  0  0  2  0  0  0  0  0  0
  1  3  1  0  0  0  0
  2 10  1  0  0  0  0
  3 10  1  0  0  0  0
  4  9  2  0  0  0  0
  4  1  1  0  0  0  0
  6  2  2  0  0  0  0
  7  1  2  0  0  0  0
  7  6  1  0  0  0  0
  8  3  2  0  0  0  0
  8  5  1  0  0  0  0
  9  8  1  0  0  0  0
 12  6  1  0  0  0  0
 12 11  1  1  0  0  0
 13 12  1  0  0  0  0
 14 13  1  0  0  0  0
 15 14  2  0  0  0  0
 16 15  1  0  0  0  0
 17 19  1  6  0  0  0
 17 16  1  0  0  0  0
 18 19  2  0  0  0  0
 20 19  1  0  0  0  0
 22 20  1  0  0  0  0
 22 21  1  0  0  0  0
 23 17  1  0  0  0  0
 24 23  1  0  0  0  0
 25 24  1  0  0  0  0
 27 26  1  6  0  0  0
 27 25  1  0  0  0  0
 28 30  1  0  0  0  0
 29 31  1  0  0  0  0
 30 27  1  0  0  0  0
 30 29  1  0  0  0  0
 32 29  2  0  0  0  0
 33 28  2  0  0  0  0
 33 32  1  0  0  0  0
 34  4  1  0  0  0  0
 35 36  2  0  0  0  0
 36 34  1  0  0  0  0
 37 36  1  0  0  0  0
 38 37  1  0  0  0  0
 39 41  1  0  0  0  0
 40 39  2  0  0  0  0
 41 38  1  0  0  0  0
 42 39  1  0  0  0  0
 44 50  1  6  0  0  0
 45 44  1  0  0  0  0
 45 43  1  1  0  0  0
 46 42  1  1  0  0  0
 46 45  1  0  0  0  0
 46 44  1  0  0  0  0
 47 46  1  0  0  0  0
 48 47  2  0  0  0  0
 49 47  1  0  0  0  0
 50 52  1  0  0  0  0
 51 52  1  0  0  0  0
M  END
>  <MODEL>
7

>  <REMARK>
 VINA RESULT:      -6.5      2.285      4.642
  Name = 
  23 active torsions:
  status: ('A' for Active; 'I' for Inactive)
    1  A    between atoms: C_2  and  O_23
    2  A    between atoms: C_2  and  C_28
    3  A    between atoms: C_4  and  C_9
    4  A    between atoms: C_4  and  C_52
    5  A    between atoms: O_5  and  C_40
    6  A    between atoms: O_5  and  C_49
    7  A    between atoms: C_6  and  C_15
    8  A    between atoms: C_6  and  C_37
    9  A    between atoms: C_8  and  C_11
   10  A    between atoms: C_8  and  C_22
   11  A    between atoms: C_10  and  C_22
   12  A    between atoms: C_13  and  O_27
   13  A    between atoms: C_13  and  O_35
   14  A    between atoms: C_13  and  C_49
   15  A    between atoms: C_14  and  C_33
   16  A    between atoms: C_14  and  C_43
   17  A    between atoms: C_16  and  C_25
   18  A    between atoms: C_16  and  N_46
   19  A    between atoms: O_23  and  O_27
   20  A    between atoms: C_25  and  C_43
   21  A    between atoms: N_26  and  C_28
   22  A    between atoms: O_35  and  C_44
   23  A    between atoms: C_37  and  C_38
                            x       y       z     vdW  Elec       q    Type
                         _______ _______ _______ _____ _____    ______ ____

>  <TORSDO>
F 23

$$$$
=
 OpenBabel10222417483D

 52 55  0  0  1  0  0  0  0  0999 V2000
  186.5020  177.9750  143.6220 C   0  0  0  0  0  0  0  0  0  0  0  0
  188.6630  177.1170  145.2140 C   0  0  0  0  0  3  0  0  0  0  0  0
  186.3430  177.9730  145.0470 C   0  0  0  0  0  0  0  0  0  0  0  0
  185.2470  178.4970  143.1060 C   0  0  0  0  0  0  0  0  0  0  0  0
  184.5680  178.6050  146.5920 N   0  0  0  0  0  1  0  0  0  0  0  0
  188.7570  177.1120  143.8630 C   0  0  0  0  0  0  0  0  0  0  0  0
  187.6150  177.5730  143.0170 C   0  0  0  0  0  3  0  0  0  0  0  0
  185.1230  178.4260  145.2910 C   0  0  0  0  0  0  0  0  0  0  0  0
  184.4280  178.7560  144.0810 N   0  0  0  0  0  0  0  0  0  0  0  0
  187.4330  177.5640  145.9870 C   0  0  0  0  0  2  0  0  0  0  0  0
  191.1560  176.4070  144.2680 C   0  0  0  0  0  1  0  0  0  0  0  0
  190.0410  176.6240  143.2490 C   0  0  2  0  0  3  0  0  0  0  0  0
  190.5060  177.5750  142.1510 C   0  0  0  0  0  2  0  0  0  0  0  0
  191.2350  176.8450  141.0730 C   0  0  0  0  0  3  0  0  0  0  0  0
  192.0320  177.5000  140.2330 C   0  0  0  0  0  3  0  0  0  0  0  0
  192.7550  176.8730  139.2130 O   0  0  0  0  0  0  0  0  0  0  0  0
  192.2830  175.7430  138.4760 C   0  0  2  0  0  3  0  0  0  0  0  0
  193.8910  174.2760  137.4940 O   0  0  0  0  0  0  0  0  0  0  0  0
  193.2540  175.3600  137.4000 C   0  0  0  0  0  0  0  0  0  0  0  0
  193.4470  176.2120  136.3100 O   0  0  0  0  0  0  0  0  0  0  0  0
  195.0850  177.7090  135.7330 O   0  0  0  0  0  1  0  0  0  0  0  0
  194.7210  176.3670  135.7010 C   0  0  0  0  0  2  0  0  0  0  0  0
  190.9910  175.9630  137.9530 O   0  0  0  0  0  0  0  0  0  0  0  0
  190.4460  174.7770  137.7570 O   0  0  0  0  0  0  0  0  0  0  0  0
  189.1830  175.0450  137.2190 C   0  0  0  0  0  2  0  0  0  0  0  0
  189.4300  176.5640  135.2640 C   0  0  0  0  0  1  0  0  0  0  0  0
  189.1260  176.4890  136.7490 C   0  0  1  0  0  3  0  0  0  0  0  0
  186.6740  176.8460  136.3760 C   0  0  0  0  0  3  0  0  0  0  0  0
  187.5110  177.8230  138.1150 C   0  0  0  0  0  0  0  0  0  0  0  0
  187.8190  177.0720  137.0450 N   0  0  0  0  0  0  0  0  0  0  0  0
  188.4850  178.2510  139.1580 C   0  0  0  0  0  1  0  0  0  0  0  0
  186.1680  178.1230  138.1320 C   0  0  0  0  0  3  0  0  0  0  0  0
  185.6320  177.4950  137.0180 C   0  0  0  0  0  3  0  0  0  0  0  0
  184.9100  178.7280  141.6710 C   0  0  0  0  0  2  0  0  0  0  0  0
  182.5660  178.8560  141.9260 O   0  0  0  0  0  0  0  0  0  0  0  0
  183.5040  178.3180  141.3620 C   0  0  0  0  0  0  0  0  0  0  0  0
  183.2380  177.2930  140.3030 C   0  0  0  0  0  2  0  0  0  0  0  0
  181.7420  177.1320  140.0740 C   0  0  0  0  0  2  0  0  0  0  0  0
  180.7140  175.3660  138.5940 C   0  0  0  0  0  0  0  0  0  0  0  0
  180.2540  174.7530  139.5950 O   0  0  0  0  0  0  0  0  0  0  0  0
  181.4910  176.5530  138.7620 N   0  0  0  0  0  2  0  0  0  0  0  0
  180.4190  174.8670  137.2170 C   0  0  0  0  0  2  0  0  0  0  0  0
  180.8630  172.1020  136.4730 C   0  0  0  0  0  1  0  0  0  0  0  0
  182.6520  173.6190  137.2720 C   0  0  2  0  0  3  0  0  0  0  0  0
  181.9510  173.0710  136.0330 C   0  0  2  0  0  3  0  0  0  0  0  0
  181.7080  174.5160  136.4670 C   0  0  1  0  0  0  0  0  0  0  0  0
  182.3310  175.5800  135.6080 C   0  0  0  0  0  0  0  0  0  0  0  0
  183.5820  175.3690  135.0400 O   0  0  0  0  0  0  0  0  0  0  0  0
  181.7450  176.6800  135.4330 O   0  0  0  0  0  1  0  0  0  0  0  0
  184.1310  173.8120  136.9490 C   0  0  0  0  0  2  0  0  0  0  0  0
  186.3040  172.9860  137.4810 O   0  0  0  0  0  1  0  0  0  0  0  0
  184.9870  173.0470  137.9380 C   0  0  0  0  0  2  0  0  0  0  0  0
  1  3  1  0  0  0  0
  2 10  1  0  0  0  0
  3  8  2  0  0  0  0
  3 10  1  0  0  0  0
  4  1  1  0  0  0  0
  4  9  2  0  0  0  0
  6  2  2  0  0  0  0
  7  1  2  0  0  0  0
  7  6  1  0  0  0  0
  8  5  1  0  0  0  0
  9  8  1  0  0  0  0
 12  6  1  0  0  0  0
 12 11  1  1  0  0  0
 13 12  1  0  0  0  0
 14 13  1  0  0  0  0
 15 14  2  0  0  0  0
 16 15  1  0  0  0  0
 17 19  1  6  0  0  0
 17 16  1  0  0  0  0
 19 18  2  0  0  0  0
 20 19  1  0  0  0  0
 22 21  1  0  0  0  0
 22 20  1  0  0  0  0
 23 17  1  0  0  0  0
 24 23  1  0  0  0  0
 25 24  1  0  0  0  0
 27 26  1  6  0  0  0
 27 30  1  0  0  0  0
 27 25  1  0  0  0  0
 28 33  2  0  0  0  0
 28 30  1  0  0  0  0
 29 32  2  0  0  0  0
 29 31  1  0  0  0  0
 30 29  1  0  0  0  0
 33 32  1  0  0  0  0
 34  4  1  0  0  0  0
 36 34  1  0  0  0  0
 36 35  2  0  0  0  0
 37 36  1  0  0  0  0
 38 37  1  0  0  0  0
 39 41  1  0  0  0  0
 39 40  2  0  0  0  0
 41 38  1  0  0  0  0
 42 39  1  0  0  0  0
 44 50  1  6  0  0  0
 45 46  1  0  0  0  0
 45 43  1  1  0  0  0
 45 44  1  0  0  0  0
 46 42  1  1  0  0  0
 46 44  1  0  0  0  0
 47 46  1  0  0  0  0
 48 47  2  0  0  0  0
 49 47  1  0  0  0  0
 50 52  1  0  0  0  0
 51 52  1  0  0  0  0
M  END
>  <MODEL>
8

>  <REMARK>
 VINA RESULT:      -6.4      2.231      3.477
  Name = 
  23 active torsions:
  status: ('A' for Active; 'I' for Inactive)
    1  A    between atoms: C_2  and  O_23
    2  A    between atoms: C_2  and  C_28
    3  A    between atoms: C_4  and  C_9
    4  A    between atoms: C_4  and  C_52
    5  A    between atoms: O_5  and  C_40
    6  A    between atoms: O_5  and  C_49
    7  A    between atoms: C_6  and  C_15
    8  A    between atoms: C_6  and  C_37
    9  A    between atoms: C_8  and  C_11
   10  A    between atoms: C_8  and  C_22
   11  A    between atoms: C_10  and  C_22
   12  A    between atoms: C_13  and  O_27
   13  A    between atoms: C_13  and  O_35
   14  A    between atoms: C_13  and  C_49
   15  A    between atoms: C_14  and  C_33
   16  A    between atoms: C_14  and  C_43
   17  A    between atoms: C_16  and  C_25
   18  A    between atoms: C_16  and  N_46
   19  A    between atoms: O_23  and  O_27
   20  A    between atoms: C_25  and  C_43
   21  A    between atoms: N_26  and  C_28
   22  A    between atoms: O_35  and  C_44
   23  A    between atoms: C_37  and  C_38
                            x       y       z     vdW  Elec       q    Type
                         _______ _______ _______ _____ _____    ______ ____

>  <TORSDO>
F 23

$$$$
=
 OpenBabel10222417483D

 52 55  0  0  1  0  0  0  0  0999 V2000
  188.3780  177.4300  144.9410 C   0  0  0  0  0  0  0  0  0  0  0  0
  190.9950  177.2660  143.9090 C   0  0  0  0  0  3  0  0  0  0  0  0
  189.4810  177.5080  145.8550 C   0  0  0  0  0  0  0  0  0  0  0  0
  187.1940  177.5830  145.7690 C   0  0  0  0  0  0  0  0  0  0  0  0
  189.7160  177.8120  148.2610 N   0  0  0  0  0  1  0  0  0  0  0  0
  189.9230  177.1720  143.0870 C   0  0  0  0  0  0  0  0  0  0  0  0
  188.5340  177.2660  143.6310 C   0  0  0  0  0  3  0  0  0  0  0  0
  188.9590  177.6670  147.0620 C   0  0  0  0  0  0  0  0  0  0  0  0
  187.5270  177.7140  147.0190 N   0  0  0  0  0  0  0  0  0  0  0  0
  190.9100  177.4600  145.4130 C   0  0  0  0  0  2  0  0  0  0  0  0
  191.5450  177.4650  141.1640 C   0  0  0  0  0  1  0  0  0  0  0  0
  190.1770  176.9640  141.6180 C   0  0  2  0  0  3  0  0  0  0  0  0
  189.0740  177.6110  140.7860 C   0  0  0  0  0  2  0  0  0  0  0  0
  189.5060  177.8090  139.3720 C   0  0  0  0  0  3  0  0  0  0  0  0
  189.5210  176.7860  138.5210 C   0  0  0  0  0  3  0  0  0  0  0  0
  189.8980  176.9080  137.1800 O   0  0  0  0  0  0  0  0  0  0  0  0
  189.3560  176.1170  136.1210 C   0  0  2  0  0  3  0  0  0  0  0  0
  191.1860  175.9590  134.5960 O   0  0  0  0  0  0  0  0  0  0  0  0
  190.4360  175.3570  135.4100 C   0  0  0  0  0  0  0  0  0  0  0  0
  190.5920  173.9910  135.6530 O   0  0  0  0  0  0  0  0  0  0  0  0
  191.7080  172.0050  135.3930 O   0  0  0  0  0  1  0  0  0  0  0  0
  191.8680  173.3680  135.6200 C   0  0  0  0  0  2  0  0  0  0  0  0
  188.5960  176.8960  135.2230 O   0  0  0  0  0  0  0  0  0  0  0  0
  187.4490  177.1650  135.8200 O   0  0  0  0  0  0  0  0  0  0  0  0
  186.7460  175.9570  135.8110 C   0  0  0  0  0  2  0  0  0  0  0  0
  184.6590  177.0680  136.5830 C   0  0  0  0  0  1  0  0  0  0  0  0
  185.6740  175.9820  136.8870 C   0  0  1  0  0  3  0  0  0  0  0  0
  183.7020  174.4390  136.9870 C   0  0  0  0  0  3  0  0  0  0  0  0
  185.6420  173.4830  136.9800 C   0  0  0  0  0  0  0  0  0  0  0  0
  185.0250  174.6760  136.9940 N   0  0  0  0  0  0  0  0  0  0  0  0
  187.1190  173.2940  136.9210 C   0  0  0  0  0  1  0  0  0  0  0  0
  184.7240  172.4580  137.0000 C   0  0  0  0  0  3  0  0  0  0  0  0
  183.4810  173.0720  137.0030 C   0  0  0  0  0  3  0  0  0  0  0  0
  185.7790  177.6040  145.2930 C   0  0  0  0  0  2  0  0  0  0  0  0
  185.3640  179.7330  146.2250 O   0  0  0  0  0  0  0  0  0  0  0  0
  185.2280  178.9940  145.2640 C   0  0  0  0  0  0  0  0  0  0  0  0
  184.5670  179.5140  144.0230 C   0  0  0  0  0  2  0  0  0  0  0  0
  184.4300  178.4100  142.9850 C   0  0  0  0  0  2  0  0  0  0  0  0
  184.3670  178.9690  140.5260 C   0  0  0  0  0  0  0  0  0  0  0  0
  185.5730  178.6260  140.3870 O   0  0  0  0  0  0  0  0  0  0  0  0
  183.7370  178.9100  141.8060 N   0  0  0  0  0  2  0  0  0  0  0  0
  183.5790  179.4100  139.3350 C   0  0  0  0  0  2  0  0  0  0  0  0
  181.3870  180.8480  138.1010 C   0  0  0  0  0  1  0  0  0  0  0  0
  181.1550  179.4740  140.1500 C   0  0  2  0  0  3  0  0  0  0  0  0
  181.0350  179.4650  138.6310 C   0  0  2  0  0  3  0  0  0  0  0  0
  182.2010  178.7430  139.3050 C   0  0  1  0  0  0  0  0  0  0  0  0
  182.1490  177.2410  139.2890 C   0  0  0  0  0  0  0  0  0  0  0  0
  183.1820  176.5050  139.8560 O   0  0  0  0  0  1  0  0  0  0  0  0
  181.1940  176.6440  138.7270 O   0  0  0  0  0  0  0  0  0  0  0  0
  180.0710  178.5710  140.7310 C   0  0  0  0  0  2  0  0  0  0  0  0
  179.4060  177.6680  142.8350 O   0  0  0  0  0  1  0  0  0  0  0  0
  179.9380  178.8030  142.2220 C   0  0  0  0  0  2  0  0  0  0  0  0
  1  4  1  0  0  0  0
  1  3  1  0  0  0  0
  2 10  1  0  0  0  0
  3  8  2  0  0  0  0
  4  9  2  0  0  0  0
  6  7  1  0  0  0  0
  6  2  2  0  0  0  0
  7  1  2  0  0  0  0
  8  5  1  0  0  0  0
  9  8  1  0  0  0  0
 10  3  1  0  0  0  0
 12 11  1  6  0  0  0
 12  6  1  0  0  0  0
 13 12  1  0  0  0  0
 14 13  1  0  0  0  0
 15 14  2  0  0  0  0
 16 15  1  0  0  0  0
 17 23  1  6  0  0  0
 17 16  1  0  0  0  0
 18 19  2  0  0  0  0
 19 20  1  0  0  0  0
 19 17  1  0  0  0  0
 21 22  1  0  0  0  0
 22 20  1  0  0  0  0
 23 24  1  0  0  0  0
 25 24  1  0  0  0  0
 25 27  1  0  0  0  0
 27 26  1  6  0  0  0
 27 30  1  0  0  0  0
 28 30  1  0  0  0  0
 28 33  2  0  0  0  0
 29 30  1  0  0  0  0
 29 32  2  0  0  0  0
 31 29  1  0  0  0  0
 32 33  1  0  0  0  0
 34  4  1  0  0  0  0
 36 34  1  0  0  0  0
 36 35  2  0  0  0  0
 37 36  1  0  0  0  0
 38 37  1  0  0  0  0
 39 41  1  0  0  0  0
 40 39  2  0  0  0  0
 41 38  1  0  0  0  0
 42 39  1  0  0  0  0
 44 50  1  1  0  0  0
 45 43  1  6  0  0  0
 45 46  1  0  0  0  0
 45 44  1  0  0  0  0
 46 42  1  6  0  0  0
 46 44  1  0  0  0  0
 47 46  1  0  0  0  0
 47 48  1  0  0  0  0
 49 47  2  0  0  0  0
 50 52  1  0  0  0  0
 52 51  1  0  0  0  0
M  END
>  <MODEL>
9

>  <REMARK>
 VINA RESULT:      -6.3      2.060      3.082
  Name = 
  23 active torsions:
  status: ('A' for Active; 'I' for Inactive)
    1  A    between atoms: C_2  and  O_23
    2  A    between atoms: C_2  and  C_28
    3  A    between atoms: C_4  and  C_9
    4  A    between atoms: C_4  and  C_52
    5  A    between atoms: O_5  and  C_40
    6  A    between atoms: O_5  and  C_49
    7  A    between atoms: C_6  and  C_15
    8  A    between atoms: C_6  and  C_37
    9  A    between atoms: C_8  and  C_11
   10  A    between atoms: C_8  and  C_22
   11  A    between atoms: C_10  and  C_22
   12  A    between atoms: C_13  and  O_27
   13  A    between atoms: C_13  and  O_35
   14  A    between atoms: C_13  and  C_49
   15  A    between atoms: C_14  and  C_33
   16  A    between atoms: C_14  and  C_43
   17  A    between atoms: C_16  and  C_25
   18  A    between atoms: C_16  and  N_46
   19  A    between atoms: O_23  and  O_27
   20  A    between atoms: C_25  and  C_43
   21  A    between atoms: N_26  and  C_28
   22  A    between atoms: O_35  and  C_44
   23  A    between atoms: C_37  and  C_38
                            x       y       z     vdW  Elec       q    Type
                         _______ _______ _______ _____ _____    ______ ____

>  <TORSDO>
F 23

$$$$
