=
 OpenBabel10222416433D

 45 49  0  0  1  0  0  0  0  0999 V2000
  183.6890  177.8620  137.1850 C   0  0  0  0  0  2  0  0  0  0  0  0
  184.2520  176.9540  136.1070 C   0  0  2  0  0  0  0  0  0  0  0  0
  185.7010  176.6570  136.4220 C   0  0  2  0  0  3  0  0  0  0  0  0
  184.0520  177.3510  134.6530 C   0  0  0  0  0  1  0  0  0  0  0  0
  184.6680  175.5320  136.4940 C   0  0  2  0  0  3  0  0  0  0  0  0
  184.6740  177.8150  138.3460 C   0  0  1  0  0  3  0  0  0  0  0  0
  185.9850  177.2160  137.8120 C   0  0  2  0  0  3  0  0  0  0  0  0
  184.7310  179.1180  139.1680 C   0  0  1  0  0  3  0  0  0  0  0  0
  183.3750  179.8100  139.1650 C   0  0  0  0  0  1  0  0  0  0  0  0
  185.2300  178.9150  140.5960 C   0  0  0  0  0  2  0  0  0  0  0  0
  184.0570  178.8350  141.5580 C   0  0  0  0  0  2  0  0  0  0  0  0
  184.4190  178.0830  142.6780 O   0  0  0  0  0  0  0  0  0  0  0  0
  184.4380  178.9990  143.7380 C   0  0  1  0  0  3  0  0  0  0  0  0
  183.1250  179.2350  144.1770 O   0  0  0  0  0  1  0  0  0  0  0  0
  185.2820  178.4510  144.8810 C   0  0  0  0  0  2  0  0  0  0  0  0
  185.8150  178.9640  146.9760 C   0  0  0  0  0  1  0  0  0  0  0  0
  184.7260  178.8150  146.1100 O   0  0  0  0  0  0  0  0  0  0  0  0
  187.0610  178.2010  137.7280 N   0  0  0  0  0  0  0  0  0  0  0  0
  188.3060  178.0970  138.4410 C   0  0  0  0  0  0  0  0  0  0  0  0
  189.0980  179.1570  138.5580 C   0  0  0  0  0  1  0  0  0  0  0  0
  188.6470  176.8370  139.2130 C   0  0  1  0  0  3  0  0  0  0  0  0
  189.6480  175.8900  138.5180 C   0  0  2  0  0  3  0  0  0  0  0  0
  191.4430  177.7860  140.2120 C   0  0  0  0  0  2  0  0  0  0  0  0
  189.0230  177.0960  140.6510 C   0  0  0  0  0  0  0  0  0  0  0  0
  191.8140  176.5790  139.4930 N   0  0  0  0  0  2  0  0  0  0  0  0
  189.1800  176.9230  145.3470 C   0  0  0  0  0  3  0  0  0  0  0  0
  190.2750  177.5010  141.0970 C   0  0  0  0  0  0  0  0  0  0  0  0
  188.9560  177.0400  142.8760 C   0  0  0  0  0  0  0  0  0  0  0  0
  190.5260  177.2130  145.5940 C   0  0  0  0  0  0  0  0  0  0  0  0
  191.4960  177.5600  144.6410 C   0  0  0  0  0  3  0  0  0  0  0  0
  191.4080  177.6800  143.2600 C   0  0  0  0  0  3  0  0  0  0  0  0
  188.1980  176.8240  141.7340 C   0  0  0  0  0  3  0  0  0  0  0  0
  188.4740  176.8360  144.1540 C   0  0  0  0  0  3  0  0  0  0  0  0
  191.0230  176.5270  138.2690 C   0  0  0  0  0  2  0  0  0  0  0  0
  190.2910  177.4530  142.4720 C   0  0  0  0  0  0  0  0  0  0  0  0
  189.1210  175.4430  137.3190 F   0  0  0  0  0  0  0  0  0  0  0  0
  192.2640  176.6240  147.2920 O   0  0  0  0  0  0  0  0  0  0  0  0
  190.9860  177.1020  146.9940 C   0  0  0  0  0  0  0  0  0  0  0  0
  190.2550  177.5270  147.9330 O   0  0  0  0  0  1  0  0  0  0  0  0
  184.8050  174.6040  135.2890 C   0  0  0  0  0  2  0  0  0  0  0  0
  186.1900  173.9800  135.2220 C   0  0  0  0  0  2  0  0  0  0  0  0
  187.7040  171.6440  135.8710 O   0  0  0  0  0  0  0  0  0  0  0  0
  186.2990  172.4970  136.2740 P   0  0  0  0  0  0  0  0  0  0  0  0
  186.3570  172.9390  137.9080 O   0  0  0  0  0  1  0  0  0  0  0  0
  185.0910  171.6160  136.0360 O   0  0  0  0  0  1  0  0  0  0  0  0
  1  6  1  0  0  0  0
  2  4  1  6  0  0  0
  2  3  1  0  0  0  0
  2  5  1  0  0  0  0
  2  1  1  0  0  0  0
  3  5  1  0  0  0  0
  3  7  1  0  0  0  0
  6  8  1  0  0  0  0
  7  6  1  0  0  0  0
  8 10  1  0  0  0  0
  9  8  1  0  0  0  0
 10 11  1  0  0  0  0
 11 12  1  0  0  0  0
 12 13  1  0  0  0  0
 13 14  1  0  0  0  0
 13 15  1  0  0  0  0
 15 17  1  0  0  0  0
 17 16  1  0  0  0  0
 18  7  1  0  0  0  0
 18 19  2  0  0  0  0
 19 20  1  0  0  0  0
 19 21  1  0  0  0  0
 21 24  1  0  0  0  0
 22 21  1  0  0  0  0
 23 27  1  0  0  0  0
 24 27  2  0  0  0  0
 24 32  1  0  0  0  0
 25 23  1  0  0  0  0
 26 29  1  0  0  0  0
 27 35  1  0  0  0  0
 28 33  1  0  0  0  0
 29 38  1  0  0  0  0
 30 29  2  0  0  0  0
 31 30  1  0  0  0  0
 32 28  2  0  0  0  0
 33 26  2  0  0  0  0
 34 22  1  0  0  0  0
 34 25  1  0  0  0  0
 35 28  1  0  0  0  0
 35 31  2  0  0  0  0
 36 22  1  0  0  0  0
 38 37  2  0  0  0  0
 38 39  1  0  0  0  0
 40  5  1  0  0  0  0
 41 40  1  0  0  0  0
 41 43  1  0  0  0  0
 42 43  2  0  0  0  0
 43 44  1  0  0  0  0
 45 43  1  0  0  0  0
M  END
>  <MODEL>
1

>  <REMARK>
 VINA RESULT:      -7.0      0.000      0.000
  Name = 
  14 active torsions:
  status: ('A' for Active; 'I' for Inactive)
    1  A    between atoms: C_1  and  C_31
    2  A    between atoms: N_3  and  C_31
    3  A    between atoms: N_3  and  C_44
    4  A    between atoms: C_5  and  O_10
    5  A    between atoms: C_5  and  C_16
    6  A    between atoms: C_16  and  O_26
    7  A    between atoms: C_17  and  C_32
    8  A    between atoms: P_22  and  C_28
    9  A    between atoms: C_25  and  C_36
   10  A    between atoms: O_26  and  C_33
   11  A    between atoms: C_28  and  C_36
   12  A    between atoms: C_30  and  C_41
   13  A    between atoms: C_30  and  C_42
   14  A    between atoms: C_33  and  C_41
                            x       y       z     vdW  Elec       q    Type
                         _______ _______ _______ _____ _____    ______ ____

>  <TORSDO>
F 14

$$$$
=
 OpenBabel10222416433D

 45 49  0  0  1  0  0  0  0  0999 V2000
  191.8260  173.6940  135.2860 C   0  0  0  0  0  2  0  0  0  0  0  0
  192.8530  174.6000  135.9400 C   0  0  2  0  0  0  0  0  0  0  0  0
  192.3190  175.0640  137.2770 C   0  0  2  0  0  3  0  0  0  0  0  0
  193.4260  175.7480  135.1240 C   0  0  0  0  0  1  0  0  0  0  0  0
  193.5270  174.1290  137.2320 C   0  0  2  0  0  3  0  0  0  0  0  0
  190.8370  173.3060  136.3770 C   0  0  1  0  0  3  0  0  0  0  0  0
  191.0410  174.2790  137.5500 C   0  0  2  0  0  3  0  0  0  0  0  0
  189.4080  173.0510  135.8600 C   0  0  1  0  0  3  0  0  0  0  0  0
  189.4420  172.2070  134.5940 C   0  0  0  0  0  1  0  0  0  0  0  0
  188.4860  172.4240  136.9030 C   0  0  0  0  0  2  0  0  0  0  0  0
  187.0900  173.0120  136.7940 C   0  0  0  0  0  2  0  0  0  0  0  0
  186.4010  172.8120  137.9930 O   0  0  0  0  0  0  0  0  0  0  0  0
  185.0480  172.9430  137.6590 C   0  0  1  0  0  3  0  0  0  0  0  0
  184.7070  174.3040  137.6000 O   0  0  0  0  0  1  0  0  0  0  0  0
  184.7800  172.2780  136.3160 C   0  0  0  0  0  2  0  0  0  0  0  0
  182.7290  171.4870  136.6490 C   0  0  0  0  0  1  0  0  0  0  0  0
  184.0630  171.0910  136.4980 O   0  0  0  0  0  0  0  0  0  0  0  0
  189.9240  175.2090  137.7090 N   0  0  0  0  0  2  0  0  0  0  0  0
  189.8960  176.5360  137.1540 C   0  0  0  0  0  0  0  0  0  0  0  0
  189.5240  176.7220  135.8930 C   0  0  0  0  0  2  0  0  0  0  0  0
  190.1150  177.7450  138.0410 C   0  0  1  0  0  3  0  0  0  0  0  0
  189.1810  178.9430  137.7640 C   0  0  2  0  0  3  0  0  0  0  0  0
  187.6570  177.2660  139.8970 C   0  0  0  0  0  2  0  0  0  0  0  0
  190.1770  177.4100  139.5110 C   0  0  0  0  0  0  0  0  0  0  0  0
  187.3520  178.5940  139.3920 N   0  0  0  0  0  2  0  0  0  0  0  0
  191.5950  177.0950  143.9830 C   0  0  0  0  0  3  0  0  0  0  0  0
  189.0810  177.2150  140.3410 C   0  0  0  0  0  0  0  0  0  0  0  0
  190.9720  177.2070  141.5810 C   0  0  0  0  0  0  0  0  0  0  0  0
  190.3720  177.0530  144.6630 C   0  0  0  0  0  0  0  0  0  0  0  0
  189.0940  177.0120  144.0850 C   0  0  0  0  0  3  0  0  0  0  0  0
  188.7010  177.0280  142.7530 C   0  0  0  0  0  3  0  0  0  0  0  0
  191.3470  177.3930  140.2580 C   0  0  0  0  0  3  0  0  0  0  0  0
  191.8760  177.1700  142.6250 C   0  0  0  0  0  3  0  0  0  0  0  0
  187.6940  178.6230  137.9740 C   0  0  0  0  0  2  0  0  0  0  0  0
  189.5230  177.1150  141.6410 C   0  0  0  0  0  0  0  0  0  0  0  0
  189.3760  179.4050  136.4740 F   0  0  0  0  0  0  0  0  0  0  0  0
  191.6420  176.9600  146.8140 O   0  0  0  0  0  1  0  0  0  0  0  0
  190.4280  177.0990  146.1390 C   0  0  0  0  0  0  0  0  0  0  0  0
  189.3830  177.3560  146.8010 O   0  0  0  0  0  0  0  0  0  0  0  0
  194.8090  174.8960  137.5480 C   0  0  0  0  0  2  0  0  0  0  0  0
  195.9090  173.9640  138.0330 C   0  0  0  0  0  2  0  0  0  0  0  0
  198.1640  175.4060  139.0370 O   0  0  0  0  0  1  0  0  0  0  0  0
  197.5590  174.6360  137.6560 P   0  0  0  0  0  0  0  0  0  0  0  0
  198.6120  173.3900  137.1990 O   0  0  0  0  0  1  0  0  0  0  0  0
  197.4530  175.6400  136.5280 O   0  0  0  0  0  0  0  0  0  0  0  0
  1  2  1  0  0  0  0
  1  6  1  0  0  0  0
  2  4  1  6  0  0  0
  2  5  1  0  0  0  0
  2  3  1  0  0  0  0
  3  7  1  0  0  0  0
  5  3  1  0  0  0  0
  5 40  1  0  0  0  0
  6  7  1  0  0  0  0
  7 18  1  0  0  0  0
  8  6  1  0  0  0  0
  8 10  1  0  0  0  0
  9  8  1  0  0  0  0
 11 10  1  0  0  0  0
 11 12  1  0  0  0  0
 13 12  1  0  0  0  0
 14 13  1  0  0  0  0
 15 17  1  0  0  0  0
 15 13  1  0  0  0  0
 17 16  1  0  0  0  0
 19 18  1  0  0  0  0
 19 21  1  0  0  0  0
 20 19  2  0  0  0  0
 21 24  1  0  0  0  0
 22 34  1  0  0  0  0
 22 21  1  0  0  0  0
 23 27  1  0  0  0  0
 24 32  2  0  0  0  0
 24 27  1  0  0  0  0
 25 23  1  0  0  0  0
 26 29  2  0  0  0  0
 27 35  2  0  0  0  0
 28 35  1  0  0  0  0
 28 33  2  0  0  0  0
 29 38  1  0  0  0  0
 30 29  1  0  0  0  0
 31 30  2  0  0  0  0
 32 28  1  0  0  0  0
 33 26  1  0  0  0  0
 34 25  1  0  0  0  0
 35 31  1  0  0  0  0
 36 22  1  0  0  0  0
 38 39  2  0  0  0  0
 38 37  1  0  0  0  0
 40 41  1  0  0  0  0
 43 41  1  0  0  0  0
 43 42  1  0  0  0  0
 44 43  1  0  0  0  0
 45 43  2  0  0  0  0
M  END
>  <MODEL>
2

>  <REMARK>
 VINA RESULT:      -6.9      4.039      7.326
  Name = 
  14 active torsions:
  status: ('A' for Active; 'I' for Inactive)
    1  A    between atoms: C_1  and  C_31
    2  A    between atoms: N_3  and  C_31
    3  A    between atoms: N_3  and  C_44
    4  A    between atoms: C_5  and  O_10
    5  A    between atoms: C_5  and  C_16
    6  A    between atoms: C_16  and  O_26
    7  A    between atoms: C_17  and  C_32
    8  A    between atoms: P_22  and  C_28
    9  A    between atoms: C_25  and  C_36
   10  A    between atoms: O_26  and  C_33
   11  A    between atoms: C_28  and  C_36
   12  A    between atoms: C_30  and  C_41
   13  A    between atoms: C_30  and  C_42
   14  A    between atoms: C_33  and  C_41
                            x       y       z     vdW  Elec       q    Type
                         _______ _______ _______ _____ _____    ______ ____

>  <TORSDO>
F 14

$$$$
=
 OpenBabel10222416433D

 45 49  0  0  1  0  0  0  0  0999 V2000
  187.0130  177.8180  142.6830 C   0  0  0  0  0  2  0  0  0  0  0  0
  188.4470  177.3340  142.5730 C   0  0  2  0  0  0  0  0  0  0  0  0
  189.0160  177.7780  141.2430 C   0  0  2  0  0  3  0  0  0  0  0  0
  188.7380  175.8690  142.8580 C   0  0  0  0  0  1  0  0  0  0  0  0
  189.5690  178.3750  142.5370 C   0  0  2  0  0  3  0  0  0  0  0  0
  186.8280  178.8690  141.5960 C   0  0  1  0  0  3  0  0  0  0  0  0
  187.9980  178.7190  140.6090 C   0  0  2  0  0  3  0  0  0  0  0  0
  185.3920  178.9470  141.0420 C   0  0  1  0  0  3  0  0  0  0  0  0
  185.3780  178.6360  139.5530 C   0  0  0  0  0  1  0  0  0  0  0  0
  184.4020  178.0580  141.7890 C   0  0  0  0  0  2  0  0  0  0  0  0
  183.4050  178.9080  142.5590 C   0  0  0  0  0  2  0  0  0  0  0  0
  184.0650  179.5960  143.5800 O   0  0  0  0  0  0  0  0  0  0  0  0
  183.3490  179.2890  144.7440 C   0  0  1  0  0  3  0  0  0  0  0  0
  182.2380  178.4960  144.4160 O   0  0  0  0  0  1  0  0  0  0  0  0
  184.2490  178.5490  145.7250 C   0  0  0  0  0  2  0  0  0  0  0  0
  186.1960  178.6350  146.7930 C   0  0  0  0  0  1  0  0  0  0  0  0
  185.5710  178.9840  145.5910 O   0  0  0  0  0  0  0  0  0  0  0  0
  187.5780  178.1810  139.3170 N   0  0  0  0  0  2  0  0  0  0  0  0
  188.4830  177.8530  138.2480 C   0  0  0  0  0  0  0  0  0  0  0  0
  189.1190  178.8180  137.5940 C   0  0  0  0  0  2  0  0  0  0  0  0
  188.8570  176.4100  137.9730 C   0  0  1  0  0  3  0  0  0  0  0  0
  187.8610  175.6280  137.0900 C   0  0  2  0  0  3  0  0  0  0  0  0
  189.8730  176.8620  135.0610 C   0  0  0  0  0  2  0  0  0  0  0  0
  190.2800  176.2360  137.5030 C   0  0  0  0  0  0  0  0  0  0  0  0
  188.8280  175.8790  134.8270 N   0  0  0  0  0  2  0  0  0  0  0  0
  194.7290  174.7630  137.1200 C   0  0  0  0  0  3  0  0  0  0  0  0
  190.7280  176.4200  136.2010 C   0  0  0  0  0  0  0  0  0  0  0  0
  192.4060  175.5730  137.4600 C   0  0  0  0  0  0  0  0  0  0  0  0
  194.9480  174.8850  135.7430 C   0  0  0  0  0  0  0  0  0  0  0  0
  194.0580  175.4180  134.7980 C   0  0  0  0  0  3  0  0  0  0  0  0
  192.7720  175.9210  134.9470 C   0  0  0  0  0  3  0  0  0  0  0  0
  191.3050  175.7300  138.2910 C   0  0  0  0  0  3  0  0  0  0  0  0
  193.6110  175.0550  137.8910 C   0  0  0  0  0  3  0  0  0  0  0  0
  187.6950  176.2190  135.6820 C   0  0  0  0  0  2  0  0  0  0  0  0
  192.0340  175.9930  136.1180 C   0  0  0  0  0  0  0  0  0  0  0  0
  186.6270  175.5660  137.7130 F   0  0  0  0  0  0  0  0  0  0  0  0
  196.3820  173.0050  134.9340 O   0  0  0  0  0  0  0  0  0  0  0  0
  196.2280  174.3620  135.2220 C   0  0  0  0  0  0  0  0  0  0  0  0
  197.1690  175.1600  134.9470 O   0  0  0  0  0  1  0  0  0  0  0  0
  190.9410  177.7820  142.8550 C   0  0  0  0  0  2  0  0  0  0  0  0
  191.4170  178.1940  144.2390 C   0  0  0  0  0  2  0  0  0  0  0  0
  192.1010  177.1800  146.8230 O   0  0  0  0  0  1  0  0  0  0  0  0
  191.1690  176.8540  145.4490 P   0  0  0  0  0  0  0  0  0  0  0  0
  189.5360  176.7520  145.8860 O   0  0  0  0  0  1  0  0  0  0  0  0
  191.6080  175.5380  144.8440 O   0  0  0  0  0  0  0  0  0  0  0  0
  2  1  1  0  0  0  0
  2  4  1  1  0  0  0
  3  5  1  0  0  0  0
  3  2  1  0  0  0  0
  5  2  1  0  0  0  0
  5 40  1  0  0  0  0
  6  1  1  0  0  0  0
  7  3  1  0  0  0  0
  7  6  1  0  0  0  0
  8  6  1  0  0  0  0
  8 10  1  0  0  0  0
  9  8  1  0  0  0  0
 10 11  1  0  0  0  0
 11 12  1  0  0  0  0
 12 13  1  0  0  0  0
 13 15  1  0  0  0  0
 14 13  1  0  0  0  0
 17 15  1  0  0  0  0
 17 16  1  0  0  0  0
 18  7  1  0  0  0  0
 19 18  1  0  0  0  0
 20 19  2  0  0  0  0
 21 19  1  0  0  0  0
 22 36  1  0  0  0  0
 22 21  1  0  0  0  0
 23 27  1  0  0  0  0
 24 21  1  0  0  0  0
 24 32  1  0  0  0  0
 25 23  1  0  0  0  0
 25 34  1  0  0  0  0
 26 33  2  0  0  0  0
 27 24  2  0  0  0  0
 28 33  1  0  0  0  0
 28 32  2  0  0  0  0
 29 26  1  0  0  0  0
 30 31  1  0  0  0  0
 30 29  2  0  0  0  0
 31 35  2  0  0  0  0
 34 22  1  0  0  0  0
 35 27  1  0  0  0  0
 35 28  1  0  0  0  0
 37 38  2  0  0  0  0
 38 29  1  0  0  0  0
 39 38  1  0  0  0  0
 40 41  1  0  0  0  0
 41 43  1  0  0  0  0
 43 44  1  0  0  0  0
 43 42  1  0  0  0  0
 45 43  2  0  0  0  0
M  END
>  <MODEL>
3

>  <REMARK>
 VINA RESULT:      -6.3      3.589      7.307
  Name = 
  14 active torsions:
  status: ('A' for Active; 'I' for Inactive)
    1  A    between atoms: C_1  and  C_31
    2  A    between atoms: N_3  and  C_31
    3  A    between atoms: N_3  and  C_44
    4  A    between atoms: C_5  and  O_10
    5  A    between atoms: C_5  and  C_16
    6  A    between atoms: C_16  and  O_26
    7  A    between atoms: C_17  and  C_32
    8  A    between atoms: P_22  and  C_28
    9  A    between atoms: C_25  and  C_36
   10  A    between atoms: O_26  and  C_33
   11  A    between atoms: C_28  and  C_36
   12  A    between atoms: C_30  and  C_41
   13  A    between atoms: C_30  and  C_42
   14  A    between atoms: C_33  and  C_41
                            x       y       z     vdW  Elec       q    Type
                         _______ _______ _______ _____ _____    ______ ____

>  <TORSDO>
F 14

$$$$
=
 OpenBabel10222416433D

 45 49  0  0  1  0  0  0  0  0999 V2000
  186.9780  177.4290  142.8750 C   0  0  0  0  0  2  0  0  0  0  0  0
  188.4670  177.2040  142.6960 C   0  0  2  0  0  0  0  0  0  0  0  0
  188.9160  177.8680  141.4140 C   0  0  2  0  0  3  0  0  0  0  0  0
  189.0040  175.7860  142.8230 C   0  0  0  0  0  1  0  0  0  0  0  0
  189.4020  178.4150  142.7560 C   0  0  2  0  0  3  0  0  0  0  0  0
  186.5900  178.5390  141.9060 C   0  0  1  0  0  3  0  0  0  0  0  0
  187.7380  178.6870  140.8940 C   0  0  2  0  0  3  0  0  0  0  0  0
  185.1450  178.4320  141.3820 C   0  0  1  0  0  3  0  0  0  0  0  0
  184.1530  178.5110  142.5350 C   0  0  0  0  0  1  0  0  0  0  0  0
  184.8090  179.4640  140.3100 C   0  0  0  0  0  2  0  0  0  0  0  0
  183.6120  179.0050  139.4930 C   0  0  0  0  0  2  0  0  0  0  0  0
  184.0460  178.2010  138.4360 O   0  0  0  0  0  0  0  0  0  0  0  0
  182.8770  177.8340  137.7580 C   0  0  1  0  0  3  0  0  0  0  0  0
  182.0660  178.9650  137.5720 O   0  0  0  0  0  1  0  0  0  0  0  0
  183.2310  177.2170  136.4120 C   0  0  0  0  0  2  0  0  0  0  0  0
  183.7780  175.3900  135.2700 C   0  0  0  0  0  1  0  0  0  0  0  0
  183.4040  175.8360  136.5430 O   0  0  0  0  0  0  0  0  0  0  0  0
  187.3740  178.2200  139.5580 N   0  0  0  0  0  2  0  0  0  0  0  0
  188.3270  177.9040  138.5280 C   0  0  0  0  0  0  0  0  0  0  0  0
  189.1590  178.8390  138.0820 C   0  0  0  0  0  2  0  0  0  0  0  0
  188.5140  176.4730  138.0650 C   0  0  1  0  0  3  0  0  0  0  0  0
  187.4180  175.9380  137.1180 C   0  0  2  0  0  3  0  0  0  0  0  0
  189.5470  177.1620  135.2060 C   0  0  0  0  0  2  0  0  0  0  0  0
  189.8990  176.1870  137.5400 C   0  0  0  0  0  0  0  0  0  0  0  0
  188.3850  176.3530  134.8800 N   0  0  0  0  0  2  0  0  0  0  0  0
  194.1230  174.2380  136.8600 C   0  0  0  0  0  3  0  0  0  0  0  0
  190.3530  176.4770  136.2600 C   0  0  0  0  0  0  0  0  0  0  0  0
  191.9240  175.2770  137.3580 C   0  0  0  0  0  0  0  0  0  0  0  0
  194.3410  174.5060  135.5030 C   0  0  0  0  0  0  0  0  0  0  0  0
  193.5150  175.2590  134.6560 C   0  0  0  0  0  3  0  0  0  0  0  0
  192.3040  175.8940  134.9010 C   0  0  0  0  0  3  0  0  0  0  0  0
  190.8600  175.4620  138.2310 C   0  0  0  0  0  3  0  0  0  0  0  0
  193.0590  174.5650  137.6900 C   0  0  0  0  0  3  0  0  0  0  0  0
  187.3130  176.7180  135.8000 C   0  0  0  0  0  2  0  0  0  0  0  0
  191.5930  175.9070  136.0900 C   0  0  0  0  0  0  0  0  0  0  0  0
  186.1930  175.9490  137.7600 F   0  0  0  0  0  0  0  0  0  0  0  0
  196.6640  174.6740  134.5940 O   0  0  0  0  0  0  0  0  0  0  0  0
  195.5400  173.8990  134.8880 C   0  0  0  0  0  0  0  0  0  0  0  0
  195.5910  172.6500  134.7060 O   0  0  0  0  0  1  0  0  0  0  0  0
  190.8610  178.0310  142.9920 C   0  0  0  0  0  2  0  0  0  0  0  0
  191.3140  178.4050  144.3950 C   0  0  0  0  0  2  0  0  0  0  0  0
  189.5970  176.7120  145.9300 O   0  0  0  0  0  1  0  0  0  0  0  0
  191.2180  176.9770  145.5230 P   0  0  0  0  0  0  0  0  0  0  0  0
  191.8440  175.5930  144.7740 O   0  0  0  0  0  0  0  0  0  0  0  0
  192.0100  177.2690  146.7790 O   0  0  0  0  0  1  0  0  0  0  0  0
  2  5  1  0  0  0  0
  2  4  1  1  0  0  0
  2  1  1  0  0  0  0
  3  2  1  0  0  0  0
  3  5  1  0  0  0  0
  5 40  1  0  0  0  0
  6  1  1  0  0  0  0
  7  3  1  0  0  0  0
  7  6  1  0  0  0  0
  8  6  1  0  0  0  0
  8  9  1  0  0  0  0
 10  8  1  0  0  0  0
 11 10  1  0  0  0  0
 12 11  1  0  0  0  0
 13 12  1  0  0  0  0
 14 13  1  0  0  0  0
 15 17  1  0  0  0  0
 15 13  1  0  0  0  0
 16 17  1  0  0  0  0
 18  7  1  0  0  0  0
 19 18  1  0  0  0  0
 20 19  2  0  0  0  0
 21 19  1  0  0  0  0
 22 36  1  0  0  0  0
 22 21  1  0  0  0  0
 23 27  1  0  0  0  0
 24 21  1  0  0  0  0
 24 32  1  0  0  0  0
 25 23  1  0  0  0  0
 25 34  1  0  0  0  0
 26 33  2  0  0  0  0
 27 24  2  0  0  0  0
 28 33  1  0  0  0  0
 28 32  2  0  0  0  0
 29 26  1  0  0  0  0
 30 31  1  0  0  0  0
 30 29  2  0  0  0  0
 31 35  2  0  0  0  0
 34 22  1  0  0  0  0
 35 27  1  0  0  0  0
 35 28  1  0  0  0  0
 37 38  2  0  0  0  0
 38 29  1  0  0  0  0
 39 38  1  0  0  0  0
 40 41  1  0  0  0  0
 41 43  1  0  0  0  0
 43 42  1  0  0  0  0
 43 45  1  0  0  0  0
 44 43  2  0  0  0  0
M  END
>  <MODEL>
4

>  <REMARK>
 VINA RESULT:      -6.2      3.577      8.013
  Name = 
  14 active torsions:
  status: ('A' for Active; 'I' for Inactive)
    1  A    between atoms: C_1  and  C_31
    2  A    between atoms: N_3  and  C_31
    3  A    between atoms: N_3  and  C_44
    4  A    between atoms: C_5  and  O_10
    5  A    between atoms: C_5  and  C_16
    6  A    between atoms: C_16  and  O_26
    7  A    between atoms: C_17  and  C_32
    8  A    between atoms: P_22  and  C_28
    9  A    between atoms: C_25  and  C_36
   10  A    between atoms: O_26  and  C_33
   11  A    between atoms: C_28  and  C_36
   12  A    between atoms: C_30  and  C_41
   13  A    between atoms: C_30  and  C_42
   14  A    between atoms: C_33  and  C_41
                            x       y       z     vdW  Elec       q    Type
                         _______ _______ _______ _____ _____    ______ ____

>  <TORSDO>
F 14

$$$$
=
 OpenBabel10222416433D

 45 49  0  0  1  0  0  0  0  0999 V2000
  186.6020  178.0940  143.7390 C   0  0  0  0  0  2  0  0  0  0  0  0
  185.3010  178.7940  143.3900 C   0  0  2  0  0  0  0  0  0  0  0  0
  185.1220  178.7800  141.8880 C   0  0  2  0  0  3  0  0  0  0  0  0
  185.0390  180.1690  143.9840 C   0  0  0  0  0  1  0  0  0  0  0  0
  184.1710  177.9680  142.7670 C   0  0  2  0  0  3  0  0  0  0  0  0
  187.0280  177.3300  142.4930 C   0  0  1  0  0  3  0  0  0  0  0  0
  186.2170  177.8870  141.3110 C   0  0  2  0  0  3  0  0  0  0  0  0
  188.5550  177.1840  142.3430 C   0  0  1  0  0  3  0  0  0  0  0  0
  189.2440  178.5200  142.5810 C   0  0  0  0  0  1  0  0  0  0  0  0
  189.1530  176.1010  143.2370 C   0  0  0  0  0  2  0  0  0  0  0  0
  190.0130  176.7290  144.3220 C   0  0  0  0  0  2  0  0  0  0  0  0
  189.2950  176.7760  145.5200 O   0  0  0  0  0  0  0  0  0  0  0  0
  190.2180  177.2180  146.4770 C   0  0  1  0  0  3  0  0  0  0  0  0
  189.6410  177.1460  147.7550 O   0  0  0  0  0  1  0  0  0  0  0  0
  191.4740  176.3590  146.4200 C   0  0  0  0  0  2  0  0  0  0  0  0
  192.7880  175.8290  148.1320 C   0  0  0  0  0  1  0  0  0  0  0  0
  191.5500  175.5380  147.5480 O   0  0  0  0  0  0  0  0  0  0  0  0
  187.0360  178.6620  140.3810 N   0  0  0  0  0  2  0  0  0  0  0  0
  187.3290  178.2530  139.0340 C   0  0  0  0  0  0  0  0  0  0  0  0
  188.4420  177.5780  138.7700 C   0  0  0  0  0  2  0  0  0  0  0  0
  186.2990  178.4280  137.9360 C   0  0  1  0  0  3  0  0  0  0  0  0
  186.8750  178.5840  136.5110 C   0  0  2  0  0  3  0  0  0  0  0  0
  186.4630  175.5160  136.8350 C   0  0  0  0  0  2  0  0  0  0  0  0
  185.1890  177.4080  137.9840 C   0  0  0  0  0  0  0  0  0  0  0  0
  186.8050  176.2700  135.6410 N   0  0  0  0  0  2  0  0  0  0  0  0
  180.9320  175.4130  138.1100 C   0  0  0  0  0  3  0  0  0  0  0  0
  185.2570  176.1170  137.4760 C   0  0  0  0  0  0  0  0  0  0  0  0
  183.1430  176.5450  138.1580 C   0  0  0  0  0  0  0  0  0  0  0  0
  181.1670  174.2080  137.4390 C   0  0  0  0  0  0  0  0  0  0  0  0
  182.4030  173.7370  136.9710 C   0  0  0  0  0  3  0  0  0  0  0  0
  183.6670  174.3120  137.0140 C   0  0  0  0  0  3  0  0  0  0  0  0
  183.8980  177.6790  138.4190 C   0  0  0  0  0  3  0  0  0  0  0  0
  181.7910  176.4570  138.4280 C   0  0  0  0  0  3  0  0  0  0  0  0
  187.6820  177.3660  136.0400 C   0  0  0  0  0  2  0  0  0  0  0  0
  184.0030  175.5520  137.5350 C   0  0  0  0  0  0  0  0  0  0  0  0
  187.6660  179.7170  136.4440 F   0  0  0  0  0  0  0  0  0  0  0  0
  179.9840  172.0060  137.4860 O   0  0  0  0  0  1  0  0  0  0  0  0
  179.9890  173.3630  137.1550 C   0  0  0  0  0  0  0  0  0  0  0  0
  178.9360  173.8850  136.6910 O   0  0  0  0  0  0  0  0  0  0  0  0
  182.8110  178.6560  142.8590 C   0  0  0  0  0  2  0  0  0  0  0  0
  182.0780  178.6170  141.5270 C   0  0  0  0  0  2  0  0  0  0  0  0
  179.6220  177.7860  142.7300 O   0  0  0  0  0  1  0  0  0  0  0  0
  180.3040  178.9750  141.7380 P   0  0  0  0  0  0  0  0  0  0  0  0
  180.0920  180.4960  142.4520 O   0  0  0  0  0  1  0  0  0  0  0  0
  179.6190  178.9570  140.3880 O   0  0  0  0  0  0  0  0  0  0  0  0
  2  1  1  0  0  0  0
  2  4  1  1  0  0  0
  3  5  1  0  0  0  0
  3  2  1  0  0  0  0
  5 40  1  0  0  0  0
  5  2  1  0  0  0  0
  6  1  1  0  0  0  0
  7  3  1  0  0  0  0
  7  6  1  0  0  0  0
  8  6  1  0  0  0  0
  8  9  1  0  0  0  0
  8 10  1  0  0  0  0
 10 11  1  0  0  0  0
 11 12  1  0  0  0  0
 12 13  1  0  0  0  0
 13 14  1  0  0  0  0
 15 13  1  0  0  0  0
 15 17  1  0  0  0  0
 17 16  1  0  0  0  0
 18  7  1  0  0  0  0
 19 18  1  0  0  0  0
 20 19  2  0  0  0  0
 21 24  1  0  0  0  0
 21 19  1  0  0  0  0
 22 21  1  0  0  0  0
 23 27  1  0  0  0  0
 24 32  1  0  0  0  0
 25 34  1  0  0  0  0
 25 23  1  0  0  0  0
 26 33  2  0  0  0  0
 27 35  1  0  0  0  0
 27 24  2  0  0  0  0
 28 32  2  0  0  0  0
 28 33  1  0  0  0  0
 29 26  1  0  0  0  0
 30 31  1  0  0  0  0
 30 29  2  0  0  0  0
 31 35  2  0  0  0  0
 34 22  1  0  0  0  0
 35 28  1  0  0  0  0
 36 22  1  0  0  0  0
 38 29  1  0  0  0  0
 38 37  1  0  0  0  0
 39 38  2  0  0  0  0
 41 43  1  0  0  0  0
 41 40  1  0  0  0  0
 43 44  1  0  0  0  0
 43 42  1  0  0  0  0
 45 43  2  0  0  0  0
M  END
>  <MODEL>
5

>  <REMARK>
 VINA RESULT:      -6.2      3.223      8.411
  Name = 
  14 active torsions:
  status: ('A' for Active; 'I' for Inactive)
    1  A    between atoms: C_1  and  C_31
    2  A    between atoms: N_3  and  C_31
    3  A    between atoms: N_3  and  C_44
    4  A    between atoms: C_5  and  O_10
    5  A    between atoms: C_5  and  C_16
    6  A    between atoms: C_16  and  O_26
    7  A    between atoms: C_17  and  C_32
    8  A    between atoms: P_22  and  C_28
    9  A    between atoms: C_25  and  C_36
   10  A    between atoms: O_26  and  C_33
   11  A    between atoms: C_28  and  C_36
   12  A    between atoms: C_30  and  C_41
   13  A    between atoms: C_30  and  C_42
   14  A    between atoms: C_33  and  C_41
                            x       y       z     vdW  Elec       q    Type
                         _______ _______ _______ _____ _____    ______ ____

>  <TORSDO>
F 14

$$$$
=
 OpenBabel10222416433D

 45 49  0  0  1  0  0  0  0  0999 V2000
  186.5300  177.7620  142.5560 C   0  0  0  0  0  2  0  0  0  0  0  0
  187.9970  177.3950  142.6860 C   0  0  2  0  0  0  0  0  0  0  0  0
  188.6980  177.7000  141.3810 C   0  0  2  0  0  3  0  0  0  0  0  0
  188.3520  176.0140  143.2170 C   0  0  0  0  0  1  0  0  0  0  0  0
  189.0390  178.5160  142.6280 C   0  0  2  0  0  3  0  0  0  0  0  0
  186.4120  178.6320  141.3120 C   0  0  1  0  0  3  0  0  0  0  0  0
  187.7050  178.4510  140.5010 C   0  0  2  0  0  3  0  0  0  0  0  0
  185.0560  178.5070  140.5900 C   0  0  1  0  0  3  0  0  0  0  0  0
  183.9140  178.5260  141.5950 C   0  0  0  0  0  1  0  0  0  0  0  0
  184.8420  179.5620  139.5090 C   0  0  0  0  0  2  0  0  0  0  0  0
  183.3830  179.5960  139.0870 C   0  0  0  0  0  2  0  0  0  0  0  0
  183.0320  180.8970  138.7160 O   0  0  0  0  0  0  0  0  0  0  0  0
  181.6720  180.8250  138.3920 C   0  0  1  0  0  3  0  0  0  0  0  0
  180.9890  180.1040  139.3840 O   0  0  0  0  0  1  0  0  0  0  0  0
  181.0930  182.2290  138.2730 C   0  0  0  0  0  2  0  0  0  0  0  0
  180.4100  181.5220  136.2800 C   0  0  0  0  0  1  0  0  0  0  0  0
  181.0110  182.6060  136.9300 O   0  0  0  0  0  0  0  0  0  0  0  0
  187.4930  177.7060  139.2620 N   0  0  0  0  0  2  0  0  0  0  0  0
  187.9560  178.1390  137.9710 C   0  0  0  0  0  0  0  0  0  0  0  0
  189.0580  178.8730  137.8710 C   0  0  0  0  0  2  0  0  0  0  0  0
  187.3010  177.6220  136.7060 C   0  0  1  0  0  3  0  0  0  0  0  0
  188.2750  177.2080  135.5820 C   0  0  2  0  0  3  0  0  0  0  0  0
  187.8620  174.6010  137.2310 C   0  0  0  0  0  2  0  0  0  0  0  0
  186.2540  176.5660  136.9580 C   0  0  0  0  0  0  0  0  0  0  0  0
  188.5300  174.7760  135.9520 N   0  0  0  0  0  2  0  0  0  0  0  0
  182.2090  174.1690  136.9530 C   0  0  0  0  0  3  0  0  0  0  0  0
  186.5040  175.2170  137.1740 C   0  0  0  0  0  0  0  0  0  0  0  0
  184.2730  175.5490  137.0040 C   0  0  0  0  0  0  0  0  0  0  0  0
  182.6650  172.8480  137.0310 C   0  0  0  0  0  0  0  0  0  0  0  0
  183.9960  172.4300  137.1780 C   0  0  0  0  0  3  0  0  0  0  0  0
  185.1730  173.1630  137.2560 C   0  0  0  0  0  3  0  0  0  0  0  0
  184.8860  176.7870  136.8660 C   0  0  0  0  0  3  0  0  0  0  0  0
  182.9050  175.3700  136.9320 C   0  0  0  0  0  3  0  0  0  0  0  0
  189.2170  176.0630  135.9780 C   0  0  0  0  0  2  0  0  0  0  0  0
  185.3050  174.5400  137.1790 C   0  0  0  0  0  0  0  0  0  0  0  0
  189.0210  178.3010  135.1780 F   0  0  0  0  0  0  0  0  0  0  0  0
  180.4380  171.8620  137.5970 O   0  0  0  0  0  1  0  0  0  0  0  0
  181.6480  171.7830  136.9040 C   0  0  0  0  0  0  0  0  0  0  0  0
  181.8300  170.8330  136.0920 O   0  0  0  0  0  0  0  0  0  0  0  0
  190.3970  178.0960  143.1860 C   0  0  0  0  0  2  0  0  0  0  0  0
  190.5740  178.5610  144.6230 C   0  0  0  0  0  2  0  0  0  0  0  0
  191.4470  175.8570  144.9360 O   0  0  0  0  0  0  0  0  0  0  0  0
  190.7270  177.1470  145.7610 P   0  0  0  0  0  0  0  0  0  0  0  0
  191.6830  177.5660  147.0950 O   0  0  0  0  0  1  0  0  0  0  0  0
  189.3530  176.7310  146.2420 O   0  0  0  0  0  1  0  0  0  0  0  0
  1  2  1  0  0  0  0
  2  4  1  1  0  0  0
  3  5  1  0  0  0  0
  3  2  1  0  0  0  0
  5  2  1  0  0  0  0
  5 40  1  0  0  0  0
  6  1  1  0  0  0  0
  7  6  1  0  0  0  0
  7  3  1  0  0  0  0
  8  6  1  0  0  0  0
  8  9  1  0  0  0  0
 10  8  1  0  0  0  0
 11 10  1  0  0  0  0
 12 11  1  0  0  0  0
 13 12  1  0  0  0  0
 13 14  1  0  0  0  0
 15 13  1  0  0  0  0
 16 17  1  0  0  0  0
 17 15  1  0  0  0  0
 18  7  1  0  0  0  0
 19 18  1  0  0  0  0
 20 19  2  0  0  0  0
 21 24  1  0  0  0  0
 21 19  1  0  0  0  0
 22 34  1  0  0  0  0
 22 21  1  0  0  0  0
 24 27  1  0  0  0  0
 25 34  1  0  0  0  0
 25 23  1  0  0  0  0
 26 29  2  0  0  0  0
 27 35  2  0  0  0  0
 27 23  1  0  0  0  0
 28 35  1  0  0  0  0
 29 30  1  0  0  0  0
 30 31  2  0  0  0  0
 32 24  2  0  0  0  0
 32 28  1  0  0  0  0
 33 26  1  0  0  0  0
 33 28  2  0  0  0  0
 35 31  1  0  0  0  0
 36 22  1  0  0  0  0
 38 29  1  0  0  0  0
 38 37  1  0  0  0  0
 39 38  2  0  0  0  0
 40 41  1  0  0  0  0
 41 43  1  0  0  0  0
 42 43  2  0  0  0  0
 43 45  1  0  0  0  0
 43 44  1  0  0  0  0
M  END
>  <MODEL>
6

>  <REMARK>
 VINA RESULT:      -6.2      3.246      8.394
  Name = 
  14 active torsions:
  status: ('A' for Active; 'I' for Inactive)
    1  A    between atoms: C_1  and  C_31
    2  A    between atoms: N_3  and  C_31
    3  A    between atoms: N_3  and  C_44
    4  A    between atoms: C_5  and  O_10
    5  A    between atoms: C_5  and  C_16
    6  A    between atoms: C_16  and  O_26
    7  A    between atoms: C_17  and  C_32
    8  A    between atoms: P_22  and  C_28
    9  A    between atoms: C_25  and  C_36
   10  A    between atoms: O_26  and  C_33
   11  A    between atoms: C_28  and  C_36
   12  A    between atoms: C_30  and  C_41
   13  A    between atoms: C_30  and  C_42
   14  A    between atoms: C_33  and  C_41
                            x       y       z     vdW  Elec       q    Type
                         _______ _______ _______ _____ _____    ______ ____

>  <TORSDO>
F 14

$$$$
=
 OpenBabel10222416433D

 45 49  0  0  1  0  0  0  0  0999 V2000
  183.2720  179.0260  140.4440 C   0  0  0  0  0  2  0  0  0  0  0  0
  182.5820  178.7340  139.1250 C   0  0  2  0  0  0  0  0  0  0  0  0
  183.5970  178.1790  138.1500 C   0  0  2  0  0  3  0  0  0  0  0  0
  181.7260  179.8250  138.5000 C   0  0  0  0  0  1  0  0  0  0  0  0
  182.4740  177.2770  138.6620 C   0  0  2  0  0  3  0  0  0  0  0  0
  184.6140  178.3070  140.3970 C   0  0  1  0  0  3  0  0  0  0  0  0
  184.8840  177.9330  138.9300 C   0  0  2  0  0  3  0  0  0  0  0  0
  185.7250  179.0060  141.2040 C   0  0  1  0  0  3  0  0  0  0  0  0
  185.2210  179.3800  142.5910 C   0  0  0  0  0  1  0  0  0  0  0  0
  187.0130  178.1930  141.2980 C   0  0  0  0  0  2  0  0  0  0  0  0
  187.3490  177.9050  142.7510 C   0  0  0  0  0  2  0  0  0  0  0  0
  188.6720  178.2770  143.0090 O   0  0  0  0  0  0  0  0  0  0  0  0
  189.1810  177.2580  143.8240 C   0  0  1  0  0  3  0  0  0  0  0  0
  188.4220  177.1740  145.0020 O   0  0  0  0  0  1  0  0  0  0  0  0
  189.1390  175.9300  143.0790 C   0  0  0  0  0  2  0  0  0  0  0  0
  191.3040  176.3830  143.3020 C   0  0  0  0  0  1  0  0  0  0  0  0
  190.3960  175.6380  142.5410 O   0  0  0  0  0  0  0  0  0  0  0  0
  185.9670  178.7170  138.3400 N   0  0  0  0  0  2  0  0  0  0  0  0
  186.9300  178.1890  137.4120 C   0  0  0  0  0  0  0  0  0  0  0  0
  187.4570  178.9750  136.4790 C   0  0  0  0  0  2  0  0  0  0  0  0
  187.4860  176.7910  137.5930 C   0  0  1  0  0  3  0  0  0  0  0  0
  186.7230  175.6770  136.8440 C   0  0  2  0  0  3  0  0  0  0  0  0
  188.8910  176.6120  134.8160 C   0  0  0  0  0  2  0  0  0  0  0  0
  188.9750  176.7010  137.3670 C   0  0  0  0  0  0  0  0  0  0  0  0
  188.0000  175.4670  134.7360 N   0  0  0  0  0  2  0  0  0  0  0  0
  193.5550  175.8130  137.9520 C   0  0  0  0  0  3  0  0  0  0  0  0
  189.5990  176.6030  136.1300 C   0  0  0  0  0  0  0  0  0  0  0  0
  191.1380  176.3510  137.7690 C   0  0  0  0  0  0  0  0  0  0  0  0
  193.9720  175.6050  136.6330 C   0  0  0  0  0  0  0  0  0  0  0  0
  193.1900  175.7460  135.4760 C   0  0  0  0  0  3  0  0  0  0  0  0
  191.8530  176.0860  135.3220 C   0  0  0  0  0  3  0  0  0  0  0  0
  189.9110  176.5630  138.3830 C   0  0  0  0  0  3  0  0  0  0  0  0
  192.3080  176.1360  138.4700 C   0  0  0  0  0  3  0  0  0  0  0  0
  186.7200  175.8550  135.3190 C   0  0  0  0  0  2  0  0  0  0  0  0
  190.9380  176.3550  136.3280 C   0  0  0  0  0  0  0  0  0  0  0  0
  185.4200  175.6060  137.3040 F   0  0  0  0  0  0  0  0  0  0  0  0
  195.6930  173.7940  136.5270 O   0  0  0  0  0  1  0  0  0  0  0  0
  195.3640  175.1480  136.4370 C   0  0  0  0  0  0  0  0  0  0  0  0
  196.2560  175.9750  136.0950 O   0  0  0  0  0  0  0  0  0  0  0  0
  181.4170  177.0730  137.5800 C   0  0  0  0  0  2  0  0  0  0  0  0
  180.9650  175.6220  137.5110 C   0  0  0  0  0  2  0  0  0  0  0  0
  182.9940  173.6310  137.2080 O   0  0  0  0  0  1  0  0  0  0  0  0
  181.9810  174.6690  136.3370 P   0  0  0  0  0  0  0  0  0  0  0  0
  180.9900  173.7570  135.3090 O   0  0  0  0  0  0  0  0  0  0  0  0
  182.8230  175.6160  135.5100 O   0  0  0  0  0  1  0  0  0  0  0  0
  2  4  1  6  0  0  0
  2  1  1  0  0  0  0
  3  5  1  0  0  0  0
  3  7  1  0  0  0  0
  3  2  1  0  0  0  0
  5  2  1  0  0  0  0
  6  1  1  0  0  0  0
  6  8  1  0  0  0  0
  7  6  1  0  0  0  0
  8 10  1  0  0  0  0
  8  9  1  0  0  0  0
 10 11  1  0  0  0  0
 11 12  1  0  0  0  0
 12 13  1  0  0  0  0
 13 14  1  0  0  0  0
 15 13  1  0  0  0  0
 17 15  1  0  0  0  0
 17 16  1  0  0  0  0
 18  7  1  0  0  0  0
 19 21  1  0  0  0  0
 19 18  1  0  0  0  0
 20 19  2  0  0  0  0
 22 36  1  0  0  0  0
 22 21  1  0  0  0  0
 23 27  1  0  0  0  0
 24 21  1  0  0  0  0
 24 32  1  0  0  0  0
 25 23  1  0  0  0  0
 25 34  1  0  0  0  0
 26 33  2  0  0  0  0
 27 35  1  0  0  0  0
 27 24  2  0  0  0  0
 28 32  2  0  0  0  0
 28 33  1  0  0  0  0
 29 26  1  0  0  0  0
 30 29  2  0  0  0  0
 31 30  1  0  0  0  0
 31 35  2  0  0  0  0
 34 22  1  0  0  0  0
 35 28  1  0  0  0  0
 38 37  1  0  0  0  0
 38 29  1  0  0  0  0
 39 38  2  0  0  0  0
 40  5  1  0  0  0  0
 41 40  1  0  0  0  0
 43 42  1  0  0  0  0
 43 41  1  0  0  0  0
 44 43  2  0  0  0  0
 45 43  1  0  0  0  0
M  END
>  <MODEL>
7

>  <REMARK>
 VINA RESULT:      -5.8      3.269      5.930
  Name = 
  14 active torsions:
  status: ('A' for Active; 'I' for Inactive)
    1  A    between atoms: C_1  and  C_31
    2  A    between atoms: N_3  and  C_31
    3  A    between atoms: N_3  and  C_44
    4  A    between atoms: C_5  and  O_10
    5  A    between atoms: C_5  and  C_16
    6  A    between atoms: C_16  and  O_26
    7  A    between atoms: C_17  and  C_32
    8  A    between atoms: P_22  and  C_28
    9  A    between atoms: C_25  and  C_36
   10  A    between atoms: O_26  and  C_33
   11  A    between atoms: C_28  and  C_36
   12  A    between atoms: C_30  and  C_41
   13  A    between atoms: C_30  and  C_42
   14  A    between atoms: C_33  and  C_41
                            x       y       z     vdW  Elec       q    Type
                         _______ _______ _______ _____ _____    ______ ____

>  <TORSDO>
F 14

$$$$
=
 OpenBabel10222416433D

 45 49  0  0  1  0  0  0  0  0999 V2000
  187.0070  177.2570  143.3440 C   0  0  0  0  0  2  0  0  0  0  0  0
  188.4950  177.0350  143.1490 C   0  0  2  0  0  0  0  0  0  0  0  0
  188.9440  177.7680  141.9050 C   0  0  2  0  0  3  0  0  0  0  0  0
  189.0240  175.6100  143.1950 C   0  0  0  0  0  1  0  0  0  0  0  0
  189.4360  178.2370  143.2740 C   0  0  2  0  0  3  0  0  0  0  0  0
  186.6220  178.4210  142.4400 C   0  0  1  0  0  3  0  0  0  0  0  0
  187.7690  178.6200  141.4350 C   0  0  2  0  0  3  0  0  0  0  0  0
  185.1750  178.3510  141.9150 C   0  0  1  0  0  3  0  0  0  0  0  0
  184.1850  178.4750  143.0640 C   0  0  0  0  0  1  0  0  0  0  0  0
  184.8720  179.3780  140.8270 C   0  0  0  0  0  2  0  0  0  0  0  0
  183.7360  178.8900  139.9440 C   0  0  0  0  0  2  0  0  0  0  0  0
  183.6900  177.4940  139.9650 O   0  0  0  0  0  0  0  0  0  0  0  0
  182.4540  177.1640  139.3960 C   0  0  1  0  0  3  0  0  0  0  0  0
  182.0860  175.8680  139.7910 O   0  0  0  0  0  1  0  0  0  0  0  0
  181.3970  178.1670  139.8370 C   0  0  0  0  0  2  0  0  0  0  0  0
  180.2970  179.8750  138.9360 C   0  0  0  0  0  1  0  0  0  0  0  0
  180.5800  178.5160  138.7580 O   0  0  0  0  0  0  0  0  0  0  0  0
  187.3990  178.2300  140.0760 N   0  0  0  0  0  2  0  0  0  0  0  0
  188.3210  178.1810  138.9730 C   0  0  0  0  0  0  0  0  0  0  0  0
  189.6300  178.1610  139.2000 C   0  0  0  0  0  2  0  0  0  0  0  0
  187.8180  177.9730  137.5590 C   0  0  1  0  0  3  0  0  0  0  0  0
  188.8890  178.1010  136.4530 C   0  0  2  0  0  3  0  0  0  0  0  0
  188.9320  175.0830  137.2120 C   0  0  0  0  0  2  0  0  0  0  0  0
  186.9860  176.7260  137.3930 C   0  0  0  0  0  0  0  0  0  0  0  0
  189.5940  175.7550  136.1070 N   0  0  0  0  0  2  0  0  0  0  0  0
  183.4790  173.7840  136.3190 C   0  0  0  0  0  3  0  0  0  0  0  0
  187.4840  175.4410  137.2200 C   0  0  0  0  0  0  0  0  0  0  0  0
  185.2370  175.4170  136.9600 C   0  0  0  0  0  0  0  0  0  0  0  0
  184.1780  172.6030  136.0420 C   0  0  0  0  0  0  0  0  0  0  0  0
  185.5590  172.3970  136.1760 C   0  0  0  0  0  3  0  0  0  0  0  0
  186.5700  173.2630  136.5710 C   0  0  0  0  0  3  0  0  0  0  0  0
  185.6050  176.7230  137.2500 C   0  0  0  0  0  3  0  0  0  0  0  0
  183.9320  175.0350  136.7170 C   0  0  0  0  0  3  0  0  0  0  0  0
  190.0200  177.0700  136.5740 C   0  0  0  0  0  2  0  0  0  0  0  0
  186.4380  174.5980  136.9180 C   0  0  0  0  0  0  0  0  0  0  0  0
  189.4230  179.3770  136.4590 F   0  0  0  0  0  0  0  0  0  0  0  0
  182.0270  171.6110  135.2410 O   0  0  0  0  0  1  0  0  0  0  0  0
  183.3890  171.4700  135.5160 C   0  0  0  0  0  0  0  0  0  0  0  0
  183.9660  170.3840  135.2220 O   0  0  0  0  0  0  0  0  0  0  0  0
  190.8930  177.8330  143.4850 C   0  0  0  0  0  2  0  0  0  0  0  0
  191.3750  178.1970  144.8810 C   0  0  0  0  0  2  0  0  0  0  0  0
  192.0540  177.1280  147.4430 O   0  0  0  0  0  1  0  0  0  0  0  0
  191.1790  176.7990  146.0330 P   0  0  0  0  0  0  0  0  0  0  0  0
  189.5450  176.5810  146.4200 O   0  0  0  0  0  1  0  0  0  0  0  0
  191.7140  175.5360  145.3930 O   0  0  0  0  0  0  0  0  0  0  0  0
  2  4  1  1  0  0  0
  2  5  1  0  0  0  0
  2  1  1  0  0  0  0
  3  2  1  0  0  0  0
  3  5  1  0  0  0  0
  5 40  1  0  0  0  0
  6  1  1  0  0  0  0
  7  3  1  0  0  0  0
  7  6  1  0  0  0  0
  8  6  1  0  0  0  0
  8  9  1  0  0  0  0
 10  8  1  0  0  0  0
 11 12  1  0  0  0  0
 11 10  1  0  0  0  0
 13 14  1  0  0  0  0
 13 15  1  0  0  0  0
 13 12  1  0  0  0  0
 17 16  1  0  0  0  0
 17 15  1  0  0  0  0
 18  7  1  0  0  0  0
 19 20  2  0  0  0  0
 19 18  1  0  0  0  0
 21 19  1  0  0  0  0
 22 36  1  0  0  0  0
 22 34  1  0  0  0  0
 22 21  1  0  0  0  0
 23 27  1  0  0  0  0
 24 21  1  0  0  0  0
 25 34  1  0  0  0  0
 25 23  1  0  0  0  0
 26 33  2  0  0  0  0
 27 24  2  0  0  0  0
 28 32  2  0  0  0  0
 29 30  2  0  0  0  0
 29 26  1  0  0  0  0
 30 31  1  0  0  0  0
 31 35  2  0  0  0  0
 32 24  1  0  0  0  0
 33 28  1  0  0  0  0
 35 28  1  0  0  0  0
 35 27  1  0  0  0  0
 37 38  1  0  0  0  0
 38 29  1  0  0  0  0
 39 38  2  0  0  0  0
 40 41  1  0  0  0  0
 41 43  1  0  0  0  0
 43 44  1  0  0  0  0
 43 42  1  0  0  0  0
 45 43  2  0  0  0  0
M  END
>  <MODEL>
8

>  <REMARK>
 VINA RESULT:      -5.8      2.875      8.267
  Name = 
  14 active torsions:
  status: ('A' for Active; 'I' for Inactive)
    1  A    between atoms: C_1  and  C_31
    2  A    between atoms: N_3  and  C_31
    3  A    between atoms: N_3  and  C_44
    4  A    between atoms: C_5  and  O_10
    5  A    between atoms: C_5  and  C_16
    6  A    between atoms: C_16  and  O_26
    7  A    between atoms: C_17  and  C_32
    8  A    between atoms: P_22  and  C_28
    9  A    between atoms: C_25  and  C_36
   10  A    between atoms: O_26  and  C_33
   11  A    between atoms: C_28  and  C_36
   12  A    between atoms: C_30  and  C_41
   13  A    between atoms: C_30  and  C_42
   14  A    between atoms: C_33  and  C_41
                            x       y       z     vdW  Elec       q    Type
                         _______ _______ _______ _____ _____    ______ ____

>  <TORSDO>
F 14

$$$$
=
 OpenBabel10222416433D

 45 49  0  0  1  0  0  0  0  0999 V2000
  191.3150  177.3360  141.6940 C   0  0  0  0  0  2  0  0  0  0  0  0
  190.1510  177.7710  142.5640 C   0  0  2  0  0  0  0  0  0  0  0  0
  188.8810  177.7300  141.7440 C   0  0  2  0  0  3  0  0  0  0  0  0
  190.2820  179.0650  143.3510 C   0  0  0  0  0  1  0  0  0  0  0  0
  189.0640  176.7440  142.8980 C   0  0  2  0  0  3  0  0  0  0  0  0
  190.7100  176.6750  140.4630 C   0  0  1  0  0  3  0  0  0  0  0  0
  189.2250  177.0700  140.4130 C   0  0  2  0  0  3  0  0  0  0  0  0
  191.5650  176.8290  139.1890 C   0  0  1  0  0  3  0  0  0  0  0  0
  192.9720  177.2870  139.5440 C   0  0  0  0  0  1  0  0  0  0  0  0
  191.6080  175.5690  138.3290 C   0  0  0  0  0  2  0  0  0  0  0  0
  192.2300  175.8750  136.9770 C   0  0  0  0  0  2  0  0  0  0  0  0
  192.7930  174.7120  136.4450 O   0  0  0  0  0  0  0  0  0  0  0  0
  194.1730  174.9460  136.4460 C   0  0  1  0  0  3  0  0  0  0  0  0
  194.4160  176.3290  136.4940 O   0  0  0  0  0  1  0  0  0  0  0  0
  194.8140  174.2600  137.6450 C   0  0  0  0  0  2  0  0  0  0  0  0
  196.1260  174.4890  139.4240 C   0  0  0  0  0  1  0  0  0  0  0  0
  195.8090  175.0750  138.1930 O   0  0  0  0  0  0  0  0  0  0  0  0
  188.9250  177.9930  139.3200 N   0  0  0  0  0  2  0  0  0  0  0  0
  188.2010  177.6270  138.1320 C   0  0  0  0  0  0  0  0  0  0  0  0
  188.4830  176.4910  137.5040 C   0  0  0  0  0  2  0  0  0  0  0  0
  187.0000  178.4350  137.6840 C   0  0  1  0  0  3  0  0  0  0  0  0
  186.7430  178.4440  136.1610 C   0  0  2  0  0  3  0  0  0  0  0  0
  185.1080  176.0060  137.1960 C   0  0  0  0  0  2  0  0  0  0  0  0
  185.7450  178.1300  138.4630 C   0  0  0  0  0  0  0  0  0  0  0  0
  185.1020  176.6150  135.8770 N   0  0  0  0  0  2  0  0  0  0  0  0
  181.8500  178.5970  141.0560 C   0  0  0  0  0  3  0  0  0  0  0  0
  184.8920  177.0580  138.2330 C   0  0  0  0  0  0  0  0  0  0  0  0
  183.9780  178.4220  139.7880 C   0  0  0  0  0  0  0  0  0  0  0  0
  181.0720  177.5320  140.5880 C   0  0  0  0  0  0  0  0  0  0  0  0
  181.4620  176.5550  139.6600 C   0  0  0  0  0  3  0  0  0  0  0  0
  182.6510  176.3920  138.9620 C   0  0  0  0  0  3  0  0  0  0  0  0
  185.2020  178.9690  139.4270 C   0  0  0  0  0  3  0  0  0  0  0  0
  183.1300  179.0070  140.7080 C   0  0  0  0  0  3  0  0  0  0  0  0
  186.4620  177.0510  135.5790 C   0  0  0  0  0  2  0  0  0  0  0  0
  183.7680  177.2120  139.0110 C   0  0  0  0  0  0  0  0  0  0  0  0
  187.8210  179.0110  135.5040 F   0  0  0  0  0  0  0  0  0  0  0  0
  178.9680  176.2540  141.0220 O   0  0  0  0  0  0  0  0  0  0  0  0
  179.6840  177.4510  141.0890 C   0  0  0  0  0  0  0  0  0  0  0  0
  179.1640  178.4460  141.6680 O   0  0  0  0  0  1  0  0  0  0  0  0
  188.2040  177.1540  144.0910 C   0  0  0  0  0  2  0  0  0  0  0  0
  186.7370  176.8290  143.8570 C   0  0  0  0  0  2  0  0  0  0  0  0
  184.0800  177.8810  143.8010 O   0  0  0  0  0  1  0  0  0  0  0  0
  185.7050  178.3270  143.9570 P   0  0  0  0  0  0  0  0  0  0  0  0
  185.9360  179.1020  145.4460 O   0  0  0  0  0  1  0  0  0  0  0  0
  186.0750  179.2750  142.8370 O   0  0  0  0  0  0  0  0  0  0  0  0
  1  2  1  0  0  0  0
  2  5  1  0  0  0  0
  2  4  1  1  0  0  0
  3  2  1  0  0  0  0
  3  5  1  0  0  0  0
  5 40  1  0  0  0  0
  6  1  1  0  0  0  0
  7  6  1  0  0  0  0
  7  3  1  0  0  0  0
  8  9  1  0  0  0  0
  8  6  1  0  0  0  0
 10  8  1  0  0  0  0
 11 10  1  0  0  0  0
 12 13  1  0  0  0  0
 12 11  1  0  0  0  0
 13 14  1  0  0  0  0
 13 15  1  0  0  0  0
 15 17  1  0  0  0  0
 17 16  1  0  0  0  0
 18  7  1  0  0  0  0
 19 18  1  0  0  0  0
 20 19  2  0  0  0  0
 21 19  1  0  0  0  0
 21 24  1  0  0  0  0
 22 21  1  0  0  0  0
 23 27  1  0  0  0  0
 24 32  1  0  0  0  0
 25 23  1  0  0  0  0
 27 24  2  0  0  0  0
 27 35  1  0  0  0  0
 28 33  1  0  0  0  0
 29 26  1  0  0  0  0
 29 38  1  0  0  0  0
 30 29  2  0  0  0  0
 31 35  2  0  0  0  0
 31 30  1  0  0  0  0
 32 28  2  0  0  0  0
 33 26  2  0  0  0  0
 34 25  1  0  0  0  0
 34 22  1  0  0  0  0
 35 28  1  0  0  0  0
 36 22  1  0  0  0  0
 37 38  2  0  0  0  0
 38 39  1  0  0  0  0
 41 43  1  0  0  0  0
 41 40  1  0  0  0  0
 42 43  1  0  0  0  0
 43 44  1  0  0  0  0
 45 43  2  0  0  0  0
M  END
>  <MODEL>
9

>  <REMARK>
 VINA RESULT:      -5.7      3.471      9.083
  Name = 
  14 active torsions:
  status: ('A' for Active; 'I' for Inactive)
    1  A    between atoms: C_1  and  C_31
    2  A    between atoms: N_3  and  C_31
    3  A    between atoms: N_3  and  C_44
    4  A    between atoms: C_5  and  O_10
    5  A    between atoms: C_5  and  C_16
    6  A    between atoms: C_16  and  O_26
    7  A    between atoms: C_17  and  C_32
    8  A    between atoms: P_22  and  C_28
    9  A    between atoms: C_25  and  C_36
   10  A    between atoms: O_26  and  C_33
   11  A    between atoms: C_28  and  C_36
   12  A    between atoms: C_30  and  C_41
   13  A    between atoms: C_30  and  C_42
   14  A    between atoms: C_33  and  C_41
                            x       y       z     vdW  Elec       q    Type
                         _______ _______ _______ _____ _____    ______ ____

>  <TORSDO>
F 14

$$$$
