=
 OpenBabel10222420053D

 27 31  0  0  0  0  0  0  0  0999 V2000
  186.9580  177.9590  141.8450 C   0  0  0  0  0  3  0  0  0  0  0  0
  187.4420  177.8140  144.3080 C   0  0  0  0  0  0  0  0  0  0  0  0
  189.5870  177.2120  143.1210 C   0  0  0  0  0  3  0  0  0  0  0  0
  189.6670  177.1750  147.7550 N   0  0  0  0  0  0  0  0  0  0  0  0
  191.9940  176.4720  147.9450 N   0  0  0  0  0  1  0  0  0  0  0  0
  186.8520  178.0150  145.5870 C   0  0  0  0  0  3  0  0  0  0  0  0
  190.7740  176.8240  145.8060 C   0  0  0  0  0  0  0  0  0  0  0  0
  190.9060  177.2720  139.7130 C   0  0  0  0  0  3  0  0  0  0  0  0
  191.8890  176.4780  144.8750 C   0  0  0  0  0  1  0  0  0  0  0  0
  190.1560  178.0210  138.7980 O   0  0  0  0  0  0  0  0  0  0  0  0
  189.4770  177.2130  145.4960 C   0  0  0  0  0  0  0  0  0  0  0  0
  186.6040  178.0410  143.1870 C   0  0  0  0  0  0  0  0  0  0  0  0
  190.8380  176.8150  147.1870 C   0  0  0  0  0  0  0  0  0  0  0  0
  188.8560  177.4120  146.7060 C   0  0  0  0  0  0  0  0  0  0  0  0
  188.1300  177.6570  141.1750 C   0  0  0  0  0  0  0  0  0  0  0  0
  188.8160  177.4120  144.2620 C   0  0  0  0  0  0  0  0  0  0  0  0
  190.5740  176.9860  140.9790 C   0  0  0  0  0  3  0  0  0  0  0  0
  187.5400  177.8200  146.7860 C   0  0  0  0  0  3  0  0  0  0  0  0
  188.9400  178.6790  139.1050 C   0  0  0  0  0  2  0  0  0  0  0  0
  187.9700  177.6830  139.6940 C   0  0  0  0  0  2  0  0  0  0  0  0
  189.3580  177.3200  141.7610 C   0  0  0  0  0  0  0  0  0  0  0  0
  182.4630  179.0190  143.7390 C   0  0  0  0  0  3  0  0  0  0  0  0
  185.1750  178.3970  143.3770 C   0  0  0  0  0  0  0  0  0  0  0  0
  184.6920  178.7510  144.6460 C   0  0  0  0  0  3  0  0  0  0  0  0
  183.3420  179.0640  144.8260 C   0  0  0  0  0  3  0  0  0  0  0  0
  182.9330  178.6580  142.4740 C   0  0  0  0  0  3  0  0  0  0  0  0
  184.2840  178.3450  142.2940 C   0  0  0  0  0  3  0  0  0  0  0  0
  1 12  1  0  0  0  0
  2  6  1  0  0  0  0
  3 16  1  0  0  0  0
  6 18  2  0  0  0  0
  7 13  2  0  0  0  0
  8 17  2  0  0  0  0
  9  7  1  0  0  0  0
 10 19  1  0  0  0  0
 10  8  1  0  0  0  0
 11  7  1  0  0  0  0
 11 14  1  0  0  0  0
 12 23  1  0  0  0  0
 12  2  2  0  0  0  0
 13  4  1  0  0  0  0
 13  5  1  0  0  0  0
 14 18  1  0  0  0  0
 14  4  2  0  0  0  0
 15 21  1  0  0  0  0
 15  1  2  0  0  0  0
 16  2  1  0  0  0  0
 16 11  2  0  0  0  0
 17 21  1  0  0  0  0
 19 20  1  0  0  0  0
 20 15  1  0  0  0  0
 21  3  2  0  0  0  0
 22 25  1  0  0  0  0
 23 24  1  0  0  0  0
 24 25  2  0  0  0  0
 26 22  2  0  0  0  0
 27 26  1  0  0  0  0
 27 23  2  0  0  0  0
M  END
>  <MODEL>
1

>  <REMARK>
 VINA RESULT:     -12.1      0.000      0.000
  Name = 
  1 active torsions:
  status: ('A' for Active; 'I' for Inactive)
    1  A    between atoms: C_9  and  C_15
                            x       y       z     vdW  Elec       q    Type
                         _______ _______ _______ _____ _____    ______ ____

>  <TORSDO>
F 1

$$$$
=
 OpenBabel10222420053D

 27 31  0  0  0  0  0  0  0  0999 V2000
  189.9780  177.3890  142.9100 C   0  0  0  0  0  3  0  0  0  0  0  0
  187.8510  177.7030  144.2140 C   0  0  0  0  0  0  0  0  0  0  0  0
  187.2840  178.1710  141.8000 C   0  0  0  0  0  3  0  0  0  0  0  0
  183.8400  178.5480  144.8780 N   0  0  0  0  0  0  0  0  0  0  0  0
  182.1470  179.2140  143.2550 N   0  0  0  0  0  1  0  0  0  0  0  0
  187.3090  177.6100  145.5270 C   0  0  0  0  0  3  0  0  0  0  0  0
  184.5280  178.7310  142.7230 C   0  0  0  0  0  0  0  0  0  0  0  0
  188.8800  177.8320  138.5280 C   0  0  0  0  0  3  0  0  0  0  0  0
  184.4640  178.9830  141.2530 C   0  0  0  0  0  1  0  0  0  0  0  0
  190.0300  177.0340  138.5080 O   0  0  0  0  0  0  0  0  0  0  0  0
  185.6220  178.3470  143.4890 C   0  0  0  0  0  0  0  0  0  0  0  0
  189.2330  177.4130  144.0840 C   0  0  0  0  0  0  0  0  0  0  0  0
  183.4740  178.8400  143.6110 C   0  0  0  0  0  0  0  0  0  0  0  0
  185.1500  178.2520  144.7770 C   0  0  0  0  0  0  0  0  0  0  0  0
  189.6830  177.6150  141.5780 C   0  0  0  0  0  0  0  0  0  0  0  0
  186.9670  178.0720  143.1500 C   0  0  0  0  0  0  0  0  0  0  0  0
  188.1900  178.2180  139.6100 C   0  0  0  0  0  3  0  0  0  0  0  0
  185.9710  177.8790  145.8220 C   0  0  0  0  0  3  0  0  0  0  0  0
  190.6070  176.4260  139.6490 C   0  0  0  0  0  2  0  0  0  0  0  0
  190.8740  177.4830  140.6930 C   0  0  0  0  0  2  0  0  0  0  0  0
  188.4320  177.9680  141.0530 C   0  0  0  0  0  0  0  0  0  0  0  0
  191.5690  176.4730  147.5590 C   0  0  0  0  0  3  0  0  0  0  0  0
  190.0520  177.1020  145.2830 C   0  0  0  0  0  0  0  0  0  0  0  0
  191.2480  176.3770  145.1610 C   0  0  0  0  0  3  0  0  0  0  0  0
  192.0050  176.0680  146.2940 C   0  0  0  0  0  3  0  0  0  0  0  0
  190.3740  177.1860  147.6910 C   0  0  0  0  0  3  0  0  0  0  0  0
  189.6160  177.4970  146.5570 C   0  0  0  0  0  3  0  0  0  0  0  0
  1 12  1  0  0  0  0
  2  6  1  0  0  0  0
  3 16  1  0  0  0  0
  5 13  1  0  0  0  0
  6 18  2  0  0  0  0
  7 11  1  0  0  0  0
  7 13  2  0  0  0  0
  8 17  2  0  0  0  0
  9  7  1  0  0  0  0
 10  8  1  0  0  0  0
 10 19  1  0  0  0  0
 11 14  1  0  0  0  0
 12  2  2  0  0  0  0
 12 23  1  0  0  0  0
 13  4  1  0  0  0  0
 14  4  2  0  0  0  0
 14 18  1  0  0  0  0
 15  1  2  0  0  0  0
 16 11  2  0  0  0  0
 16  2  1  0  0  0  0
 17 21  1  0  0  0  0
 19 20  1  0  0  0  0
 20 15  1  0  0  0  0
 21 15  1  0  0  0  0
 21  3  2  0  0  0  0
 22 26  1  0  0  0  0
 23 27  1  0  0  0  0
 24 23  2  0  0  0  0
 24 25  1  0  0  0  0
 25 22  2  0  0  0  0
 27 26  2  0  0  0  0
M  END
>  <MODEL>
2

>  <REMARK>
 VINA RESULT:     -11.8      2.278      5.711
  Name = 
  1 active torsions:
  status: ('A' for Active; 'I' for Inactive)
    1  A    between atoms: C_9  and  C_15
                            x       y       z     vdW  Elec       q    Type
                         _______ _______ _______ _____ _____    ______ ____

>  <TORSDO>
F 1

$$$$
=
 OpenBabel10222420053D

 27 31  0  0  0  0  0  0  0  0999 V2000
  188.1800  177.2840  145.5530 C   0  0  0  0  0  3  0  0  0  0  0  0
  189.7080  177.2680  143.5560 C   0  0  0  0  0  0  0  0  0  0  0  0
  187.4110  177.8560  142.6930 C   0  0  0  0  0  3  0  0  0  0  0  0
  190.8310  177.6220  139.5740 N   0  0  0  0  0  0  0  0  0  0  0  0
  189.4290  178.1400  137.6480 N   0  0  0  0  0  1  0  0  0  0  0  0
  191.0680  177.0870  143.1780 C   0  0  0  0  0  3  0  0  0  0  0  0
  188.6270  177.9590  139.9960 C   0  0  0  0  0  0  0  0  0  0  0  0
  184.1400  178.7300  144.0720 C   0  0  0  0  0  3  0  0  0  0  0  0
  187.1860  178.2530  139.7430 C   0  0  0  0  0  1  0  0  0  0  0  0
  184.1380  179.0620  145.4320 O   0  0  0  0  0  0  0  0  0  0  0  0
  189.2540  177.6790  141.2030 C   0  0  0  0  0  0  0  0  0  0  0  0
  189.4140  177.1130  144.9350 C   0  0  0  0  0  0  0  0  0  0  0  0
  189.6260  177.9120  139.0400 C   0  0  0  0  0  0  0  0  0  0  0  0
  190.5790  177.4860  140.8900 C   0  0  0  0  0  0  0  0  0  0  0  0
  186.9180  177.6300  145.1050 C   0  0  0  0  0  0  0  0  0  0  0  0
  188.7660  177.5930  142.5280 C   0  0  0  0  0  0  0  0  0  0  0  0
  185.1730  178.2530  143.3650 C   0  0  0  0  0  3  0  0  0  0  0  0
  191.5160  177.1920  141.8610 C   0  0  0  0  0  3  0  0  0  0  0  0
  185.2790  179.0230  146.2710 C   0  0  0  0  0  2  0  0  0  0  0  0
  185.9040  177.6510  146.1960 C   0  0  0  0  0  2  0  0  0  0  0  0
  186.5550  177.9080  143.7790 C   0  0  0  0  0  0  0  0  0  0  0  0
  192.4550  175.9240  147.7180 C   0  0  0  0  0  3  0  0  0  0  0  0
  190.4780  176.7130  145.8910 C   0  0  0  0  0  0  0  0  0  0  0  0
  191.4440  175.7630  145.5240 C   0  0  0  0  0  3  0  0  0  0  0  0
  192.4300  175.3730  146.4340 C   0  0  0  0  0  3  0  0  0  0  0  0
  191.4910  176.8630  148.0950 C   0  0  0  0  0  3  0  0  0  0  0  0
  190.5040  177.2540  147.1850 C   0  0  0  0  0  3  0  0  0  0  0  0
  2 12  1  0  0  0  0
  3 21  1  0  0  0  0
  4 14  1  0  0  0  0
  5 13  1  0  0  0  0
  6  2  2  0  0  0  0
  7 11  2  0  0  0  0
  8 10  1  0  0  0  0
  9  7  1  0  0  0  0
 10 19  1  0  0  0  0
 11 16  1  0  0  0  0
 12  1  2  0  0  0  0
 12 23  1  0  0  0  0
 13  4  2  0  0  0  0
 13  7  1  0  0  0  0
 14 11  1  0  0  0  0
 14 18  2  0  0  0  0
 15  1  1  0  0  0  0
 15 20  1  0  0  0  0
 16  3  2  0  0  0  0
 16  2  1  0  0  0  0
 17 21  1  0  0  0  0
 17  8  2  0  0  0  0
 18  6  1  0  0  0  0
 20 19  1  0  0  0  0
 21 15  2  0  0  0  0
 22 26  1  0  0  0  0
 23 27  1  0  0  0  0
 24 23  2  0  0  0  0
 24 25  1  0  0  0  0
 25 22  2  0  0  0  0
 27 26  2  0  0  0  0
M  END
>  <MODEL>
3

>  <REMARK>
 VINA RESULT:     -11.4      3.224      6.993
  Name = 
  1 active torsions:
  status: ('A' for Active; 'I' for Inactive)
    1  A    between atoms: C_9  and  C_15
                            x       y       z     vdW  Elec       q    Type
                         _______ _______ _______ _____ _____    ______ ____

>  <TORSDO>
F 1

$$$$
=
 OpenBabel10222420053D

 27 31  0  0  0  0  0  0  0  0999 V2000
  186.3410  178.3490  141.2500 C   0  0  0  0  0  3  0  0  0  0  0  0
  187.9130  177.8160  143.1390 C   0  0  0  0  0  0  0  0  0  0  0  0
  185.7060  178.4290  144.1980 C   0  0  0  0  0  3  0  0  0  0  0  0
  189.1710  177.3040  147.0630 N   0  0  0  0  0  0  0  0  0  0  0  0
  187.9010  177.6500  149.1150 N   0  0  0  0  0  1  0  0  0  0  0  0
  189.2390  177.3780  143.4130 C   0  0  0  0  0  3  0  0  0  0  0  0
  187.0230  177.9910  146.8130 C   0  0  0  0  0  0  0  0  0  0  0  0
  182.2680  179.0570  143.1250 C   0  0  0  0  0  3  0  0  0  0  0  0
  185.6410  178.4190  147.1820 C   0  0  0  0  0  1  0  0  0  0  0  0
  181.9710  178.6560  141.8170 O   0  0  0  0  0  0  0  0  0  0  0  0
  187.5760  177.8520  145.5460 C   0  0  0  0  0  0  0  0  0  0  0  0
  187.5760  177.9790  141.7700 C   0  0  0  0  0  0  0  0  0  0  0  0
  188.0300  177.6490  147.6970 C   0  0  0  0  0  0  0  0  0  0  0  0
  188.8690  177.4360  145.7570 C   0  0  0  0  0  0  0  0  0  0  0  0
  185.1150  178.6620  141.8080 C   0  0  0  0  0  0  0  0  0  0  0  0
  187.0420  178.0470  144.2510 C   0  0  0  0  0  0  0  0  0  0  0  0
  183.4740  179.0580  143.7090 C   0  0  0  0  0  3  0  0  0  0  0  0
  189.7280  177.1840  144.7060 C   0  0  0  0  0  3  0  0  0  0  0  0
  182.9090  178.0960  140.9160 C   0  0  0  0  0  2  0  0  0  0  0  0
  184.0920  179.0240  140.7880 C   0  0  0  0  0  2  0  0  0  0  0  0
  184.8090  178.6910  143.1770 C   0  0  0  0  0  0  0  0  0  0  0  0
  190.5010  177.3120  138.7030 C   0  0  0  0  0  3  0  0  0  0  0  0
  188.5970  177.7630  140.7140 C   0  0  0  0  0  0  0  0  0  0  0  0
  188.4950  178.4240  139.4800 C   0  0  0  0  0  3  0  0  0  0  0  0
  189.4450  178.2010  138.4800 C   0  0  0  0  0  3  0  0  0  0  0  0
  190.6040  176.6430  139.9250 C   0  0  0  0  0  3  0  0  0  0  0  0
  189.6540  176.8650  140.9270 C   0  0  0  0  0  3  0  0  0  0  0  0
  1 12  2  0  0  0  0
  1 15  1  0  0  0  0
  2  6  2  0  0  0  0
  2 16  1  0  0  0  0
  3 16  2  0  0  0  0
  4 13  2  0  0  0  0
  6 18  1  0  0  0  0
  7  9  1  0  0  0  0
  7 13  1  0  0  0  0
  8 17  2  0  0  0  0
 10  8  1  0  0  0  0
 11 14  1  0  0  0  0
 11  7  2  0  0  0  0
 12  2  1  0  0  0  0
 13  5  1  0  0  0  0
 14  4  1  0  0  0  0
 15 21  2  0  0  0  0
 16 11  1  0  0  0  0
 18 14  2  0  0  0  0
 19 10  1  0  0  0  0
 20 19  1  0  0  0  0
 20 15  1  0  0  0  0
 21 17  1  0  0  0  0
 21  3  1  0  0  0  0
 22 26  1  0  0  0  0
 23 27  1  0  0  0  0
 23 12  1  0  0  0  0
 24 23  2  0  0  0  0
 25 22  2  0  0  0  0
 25 24  1  0  0  0  0
 26 27  2  0  0  0  0
M  END
>  <MODEL>
4

>  <REMARK>
 VINA RESULT:     -11.2      2.067      5.446
  Name = 
  1 active torsions:
  status: ('A' for Active; 'I' for Inactive)
    1  A    between atoms: C_9  and  C_15
                            x       y       z     vdW  Elec       q    Type
                         _______ _______ _______ _____ _____    ______ ____

>  <TORSDO>
F 1

$$$$
=
 OpenBabel10222420053D

 27 31  0  0  0  0  0  0  0  0999 V2000
  188.6820  177.9010  143.7700 C   0  0  0  0  0  3  0  0  0  0  0  0
  186.2780  178.2190  144.4350 C   0  0  0  0  0  0  0  0  0  0  0  0
  186.3510  178.3860  141.9180 C   0  0  0  0  0  3  0  0  0  0  0  0
  182.2080  178.8730  143.9360 N   0  0  0  0  0  0  0  0  0  0  0  0
  180.9800  179.2500  141.8640 N   0  0  0  0  0  1  0  0  0  0  0  0
  185.4130  178.2340  145.5650 C   0  0  0  0  0  3  0  0  0  0  0  0
  183.4320  178.8660  142.0260 C   0  0  0  0  0  0  0  0  0  0  0  0
  188.7620  177.7970  139.2330 C   0  0  0  0  0  3  0  0  0  0  0  0
  183.7490  178.9530  140.5700 C   0  0  0  0  0  1  0  0  0  0  0  0
  189.9020  177.0760  139.6060 O   0  0  0  0  0  0  0  0  0  0  0  0
  184.2980  178.6370  143.0880 C   0  0  0  0  0  0  0  0  0  0  0  0
  187.6550  178.0040  144.7020 C   0  0  0  0  0  0  0  0  0  0  0  0
  182.1780  179.0030  142.5930 C   0  0  0  0  0  0  0  0  0  0  0  0
  183.5070  178.6520  144.2120 C   0  0  0  0  0  0  0  0  0  0  0  0
  188.7410  177.9630  142.3900 C   0  0  0  0  0  0  0  0  0  0  0  0
  185.6930  178.4130  143.1430 C   0  0  0  0  0  0  0  0  0  0  0  0
  187.7990  178.2530  140.0470 C   0  0  0  0  0  3  0  0  0  0  0  0
  184.0370  178.4470  145.4710 C   0  0  0  0  0  3  0  0  0  0  0  0
  190.1790  176.6340  140.9230 C   0  0  0  0  0  2  0  0  0  0  0  0
  190.1270  177.8120  141.8640 C   0  0  0  0  0  2  0  0  0  0  0  0
  187.6610  178.1770  141.5220 C   0  0  0  0  0  0  0  0  0  0  0  0
  189.0830  177.6830  148.7350 C   0  0  0  0  0  3  0  0  0  0  0  0
  188.1390  177.8780  146.0990 C   0  0  0  0  0  0  0  0  0  0  0  0
  187.3600  178.3480  147.1680 C   0  0  0  0  0  3  0  0  0  0  0  0
  187.8290  178.2470  148.4810 C   0  0  0  0  0  3  0  0  0  0  0  0
  189.8690  177.2220  147.6750 C   0  0  0  0  0  3  0  0  0  0  0  0
  189.4000  177.3220  146.3620 C   0  0  0  0  0  3  0  0  0  0  0  0
  1 12  1  0  0  0  0
  2 12  2  0  0  0  0
  2  6  1  0  0  0  0
  3 16  1  0  0  0  0
  4 14  2  0  0  0  0
  5 13  1  0  0  0  0
  7 13  2  0  0  0  0
  7 11  1  0  0  0  0
  8 10  1  0  0  0  0
  8 17  2  0  0  0  0
  9  7  1  0  0  0  0
 10 19  1  0  0  0  0
 11 16  2  0  0  0  0
 11 14  1  0  0  0  0
 12 23  1  0  0  0  0
 13  4  1  0  0  0  0
 14 18  1  0  0  0  0
 15  1  2  0  0  0  0
 16  2  1  0  0  0  0
 17 21  1  0  0  0  0
 18  6  2  0  0  0  0
 19 20  1  0  0  0  0
 20 15  1  0  0  0  0
 21  3  2  0  0  0  0
 21 15  1  0  0  0  0
 23 27  2  0  0  0  0
 23 24  1  0  0  0  0
 24 25  2  0  0  0  0
 25 22  1  0  0  0  0
 26 22  2  0  0  0  0
 27 26  1  0  0  0  0
M  END
>  <MODEL>
5

>  <REMARK>
 VINA RESULT:     -11.2      2.870      5.851
  Name = 
  1 active torsions:
  status: ('A' for Active; 'I' for Inactive)
    1  A    between atoms: C_9  and  C_15
                            x       y       z     vdW  Elec       q    Type
                         _______ _______ _______ _____ _____    ______ ____

>  <TORSDO>
F 1

$$$$
=
 OpenBabel10222420053D

 27 31  0  0  0  0  0  0  0  0999 V2000
  187.1490  178.2520  141.5700 C   0  0  0  0  0  3  0  0  0  0  0  0
  189.3030  177.4610  142.5990 C   0  0  0  0  0  0  0  0  0  0  0  0
  187.7430  177.9790  144.5150 C   0  0  0  0  0  3  0  0  0  0  0  0
  191.9780  176.4440  145.6090 N   0  0  0  0  0  0  0  0  0  0  0  0
  191.6520  176.5570  148.0220 N   0  0  0  0  0  1  0  0  0  0  0  0
  190.5960  176.9670  142.2700 C   0  0  0  0  0  3  0  0  0  0  0  0
  189.9580  177.1970  146.3170 C   0  0  0  0  0  0  0  0  0  0  0  0
  184.2130  178.8000  144.9880 C   0  0  0  0  0  3  0  0  0  0  0  0
  188.8680  177.6010  147.2540 C   0  0  0  0  0  1  0  0  0  0  0  0
  183.3950  178.5690  143.8750 O   0  0  0  0  0  0  0  0  0  0  0  0
  189.9520  177.2050  144.9290 C   0  0  0  0  0  0  0  0  0  0  0  0
  188.4620  177.7980  141.5080 C   0  0  0  0  0  0  0  0  0  0  0  0
  191.2070  176.7280  146.6800 C   0  0  0  0  0  0  0  0  0  0  0  0
  191.1920  176.7410  144.5560 C   0  0  0  0  0  0  0  0  0  0  0  0
  186.2700  178.5170  142.6040 C   0  0  0  0  0  0  0  0  0  0  0  0
  188.9630  177.5690  143.9860 C   0  0  0  0  0  0  0  0  0  0  0  0
  185.5480  178.7060  145.0350 C   0  0  0  0  0  3  0  0  0  0  0  0
  191.5440  176.6060  143.2280 C   0  0  0  0  0  3  0  0  0  0  0  0
  183.8580  178.1070  142.6190 C   0  0  0  0  0  2  0  0  0  0  0  0
  184.9520  179.0220  142.1260 C   0  0  0  0  0  2  0  0  0  0  0  0
  186.5350  178.3820  143.9750 C   0  0  0  0  0  0  0  0  0  0  0  0
  189.8660  177.4750  137.4660 C   0  0  0  0  0  3  0  0  0  0  0  0
  188.9630  177.6960  140.1140 C   0  0  0  0  0  0  0  0  0  0  0  0
  188.7610  178.7460  139.2050 C   0  0  0  0  0  3  0  0  0  0  0  0
  189.2140  178.6370  137.8880 C   0  0  0  0  0  3  0  0  0  0  0  0
  190.0630  176.4200  138.3620 C   0  0  0  0  0  3  0  0  0  0  0  0
  189.6100  176.5280  139.6810 C   0  0  0  0  0  3  0  0  0  0  0  0
  1 15  1  0  0  0  0
  2 16  1  0  0  0  0
  4 13  2  0  0  0  0
  6  2  2  0  0  0  0
  6 18  1  0  0  0  0
  7 13  1  0  0  0  0
  7  9  1  0  0  0  0
  8 17  2  0  0  0  0
 10  8  1  0  0  0  0
 11  7  2  0  0  0  0
 12  1  2  0  0  0  0
 12  2  1  0  0  0  0
 13  5  1  0  0  0  0
 14 11  1  0  0  0  0
 14  4  1  0  0  0  0
 15 21  2  0  0  0  0
 16  3  2  0  0  0  0
 16 11  1  0  0  0  0
 18 14  2  0  0  0  0
 19 10  1  0  0  0  0
 20 15  1  0  0  0  0
 20 19  1  0  0  0  0
 21  3  1  0  0  0  0
 21 17  1  0  0  0  0
 22 25  2  0  0  0  0
 22 26  1  0  0  0  0
 23 12  1  0  0  0  0
 24 23  2  0  0  0  0
 25 24  1  0  0  0  0
 26 27  2  0  0  0  0
 27 23  1  0  0  0  0
M  END
>  <MODEL>
6

>  <REMARK>
 VINA RESULT:     -11.1      1.954      5.249
  Name = 
  1 active torsions:
  status: ('A' for Active; 'I' for Inactive)
    1  A    between atoms: C_9  and  C_15
                            x       y       z     vdW  Elec       q    Type
                         _______ _______ _______ _____ _____    ______ ____

>  <TORSDO>
F 1

$$$$
=
 OpenBabel10222420053D

 27 31  0  0  0  0  0  0  0  0999 V2000
  189.4020  177.4270  144.3150 C   0  0  0  0  0  3  0  0  0  0  0  0
  187.4720  178.0310  142.8200 C   0  0  0  0  0  0  0  0  0  0  0  0
  186.5740  178.0250  145.1780 C   0  0  0  0  0  3  0  0  0  0  0  0
  183.5820  179.0600  141.7930 N   0  0  0  0  0  0  0  0  0  0  0  0
  181.6550  179.3400  143.2590 N   0  0  0  0  0  1  0  0  0  0  0  0
  187.1330  178.2770  141.4600 C   0  0  0  0  0  3  0  0  0  0  0  0
  183.9460  178.7210  144.0070 C   0  0  0  0  0  0  0  0  0  0  0  0
  187.8950  177.8070  148.5800 C   0  0  0  0  0  3  0  0  0  0  0  0
  183.6630  178.6180  145.4690 C   0  0  0  0  0  1  0  0  0  0  0  0
  189.2780  177.9950  148.6940 O   0  0  0  0  0  0  0  0  0  0  0  0
  185.1480  178.5170  143.3420 C   0  0  0  0  0  0  0  0  0  0  0  0
  188.8200  177.6700  143.0750 C   0  0  0  0  0  0  0  0  0  0  0  0
  183.0290  179.0470  143.0240 C   0  0  0  0  0  0  0  0  0  0  0  0
  184.8710  178.7350  142.0130 C   0  0  0  0  0  0  0  0  0  0  0  0
  188.9370  177.4430  145.6170 C   0  0  0  0  0  0  0  0  0  0  0  0
  186.4400  178.1720  143.8020 C   0  0  0  0  0  0  0  0  0  0  0  0
  187.1900  177.7090  147.4450 C   0  0  0  0  0  3  0  0  0  0  0  0
  185.8480  178.6280  141.0430 C   0  0  0  0  0  3  0  0  0  0  0  0
  190.1530  178.2020  147.6000 C   0  0  0  0  0  2  0  0  0  0  0  0
  189.9850  177.0750  146.6090 C   0  0  0  0  0  2  0  0  0  0  0  0
  187.6260  177.7310  146.0270 C   0  0  0  0  0  0  0  0  0  0  0  0
  191.6000  177.1270  139.8530 C   0  0  0  0  0  3  0  0  0  0  0  0
  189.7780  177.4990  141.9540 C   0  0  0  0  0  0  0  0  0  0  0  0
  189.3250  177.1110  140.6830 C   0  0  0  0  0  3  0  0  0  0  0  0
  190.2320  176.9300  139.6360 C   0  0  0  0  0  3  0  0  0  0  0  0
  192.0600  177.5030  141.1170 C   0  0  0  0  0  3  0  0  0  0  0  0
  191.1520  177.6850  142.1660 C   0  0  0  0  0  3  0  0  0  0  0  0
  1 15  1  0  0  0  0
  2 12  1  0  0  0  0
  2 16  1  0  0  0  0
  3 21  1  0  0  0  0
  4 14  1  0  0  0  0
  4 13  2  0  0  0  0
  6  2  2  0  0  0  0
  7  9  1  0  0  0  0
  8 10  1  0  0  0  0
 11 16  1  0  0  0  0
 11  7  2  0  0  0  0
 12  1  2  0  0  0  0
 13  5  1  0  0  0  0
 13  7  1  0  0  0  0
 14 11  1  0  0  0  0
 15 21  2  0  0  0  0
 15 20  1  0  0  0  0
 16  3  2  0  0  0  0
 17  8  2  0  0  0  0
 18  6  1  0  0  0  0
 18 14  2  0  0  0  0
 19 10  1  0  0  0  0
 20 19  1  0  0  0  0
 21 17  1  0  0  0  0
 22 26  1  0  0  0  0
 23 27  1  0  0  0  0
 23 12  1  0  0  0  0
 24 23  2  0  0  0  0
 25 22  2  0  0  0  0
 25 24  1  0  0  0  0
 26 27  2  0  0  0  0
M  END
>  <MODEL>
7

>  <REMARK>
 VINA RESULT:     -10.9      3.447      7.119
  Name = 
  1 active torsions:
  status: ('A' for Active; 'I' for Inactive)
    1  A    between atoms: C_9  and  C_15
                            x       y       z     vdW  Elec       q    Type
                         _______ _______ _______ _____ _____    ______ ____

>  <TORSDO>
F 1

$$$$
=
 OpenBabel10222420053D

 27 31  0  0  0  0  0  0  0  0999 V2000
  185.9950  178.0820  144.7920 C   0  0  0  0  0  3  0  0  0  0  0  0
  188.1400  177.8640  143.4990 C   0  0  0  0  0  0  0  0  0  0  0  0
  186.2930  178.0570  141.7900 C   0  0  0  0  0  3  0  0  0  0  0  0
  190.6140  177.6140  140.1730 N   0  0  0  0  0  0  0  0  0  0  0  0
  189.9870  177.6390  137.8170 N   0  0  0  0  0  1  0  0  0  0  0  0
  189.5500  177.7550  143.6630 C   0  0  0  0  0  3  0  0  0  0  0  0
  188.3970  177.8000  139.7240 C   0  0  0  0  0  0  0  0  0  0  0  0
  182.7210  178.8330  141.7380 C   0  0  0  0  0  3  0  0  0  0  0  0
  187.1360  177.8990  138.9310 C   0  0  0  0  0  1  0  0  0  0  0  0
  182.2190  179.3990  142.9160 O   0  0  0  0  0  0  0  0  0  0  0  0
  188.5540  177.8030  141.1040 C   0  0  0  0  0  0  0  0  0  0  0  0
  187.3730  177.9280  144.6900 C   0  0  0  0  0  0  0  0  0  0  0  0
  189.6740  177.6830  139.2050 C   0  0  0  0  0  0  0  0  0  0  0  0
  189.9080  177.6900  141.3170 C   0  0  0  0  0  0  0  0  0  0  0  0
  184.9700  178.2160  143.8730 C   0  0  0  0  0  0  0  0  0  0  0  0
  187.6240  177.9050  142.1640 C   0  0  0  0  0  0  0  0  0  0  0  0
  183.9530  178.3420  141.5460 C   0  0  0  0  0  3  0  0  0  0  0  0
  190.4400  177.6680  142.5910 C   0  0  0  0  0  3  0  0  0  0  0  0
  182.9810  179.6240  144.0880 C   0  0  0  0  0  2  0  0  0  0  0  0
  183.6300  178.3300  144.5140 C   0  0  0  0  0  2  0  0  0  0  0  0
  185.1020  178.2160  142.4760 C   0  0  0  0  0  0  0  0  0  0  0  0
  189.3060  177.6360  148.5090 C   0  0  0  0  0  3  0  0  0  0  0  0
  188.0320  177.8120  146.0160 C   0  0  0  0  0  0  0  0  0  0  0  0
  187.4310  178.3610  147.1590 C   0  0  0  0  0  3  0  0  0  0  0  0
  188.0640  178.2700  148.4020 C   0  0  0  0  0  3  0  0  0  0  0  0
  189.9160  177.0960  147.3730 C   0  0  0  0  0  3  0  0  0  0  0  0
  189.2820  177.1870  146.1300 C   0  0  0  0  0  3  0  0  0  0  0  0
  2  6  1  0  0  0  0
  2 12  2  0  0  0  0
  3 16  1  0  0  0  0
  3 21  2  0  0  0  0
  4 14  2  0  0  0  0
  5 13  1  0  0  0  0
  7 11  1  0  0  0  0
  8 10  1  0  0  0  0
  9  7  1  0  0  0  0
 10 19  1  0  0  0  0
 11 14  1  0  0  0  0
 11 16  2  0  0  0  0
 12  1  1  0  0  0  0
 12 23  1  0  0  0  0
 13  7  2  0  0  0  0
 13  4  1  0  0  0  0
 14 18  1  0  0  0  0
 15 20  1  0  0  0  0
 15  1  2  0  0  0  0
 16  2  1  0  0  0  0
 17  8  2  0  0  0  0
 17 21  1  0  0  0  0
 18  6  2  0  0  0  0
 19 20  1  0  0  0  0
 21 15  1  0  0  0  0
 23 27  2  0  0  0  0
 23 24  1  0  0  0  0
 24 25  2  0  0  0  0
 25 22  1  0  0  0  0
 26 22  2  0  0  0  0
 27 26  1  0  0  0  0
M  END
>  <MODEL>
8

>  <REMARK>
 VINA RESULT:     -10.8      3.115      6.241
  Name = 
  1 active torsions:
  status: ('A' for Active; 'I' for Inactive)
    1  A    between atoms: C_9  and  C_15
                            x       y       z     vdW  Elec       q    Type
                         _______ _______ _______ _____ _____    ______ ____

>  <TORSDO>
F 1

$$$$
=
 OpenBabel10222420053D

 27 31  0  0  0  0  0  0  0  0999 V2000
  189.8490  177.1920  142.4020 C   0  0  0  0  0  3  0  0  0  0  0  0
  187.5170  178.0390  141.9900 C   0  0  0  0  0  0  0  0  0  0  0  0
  187.7290  177.7110  144.4840 C   0  0  0  0  0  3  0  0  0  0  0  0
  183.6610  179.2760  142.9080 N   0  0  0  0  0  0  0  0  0  0  0  0
  182.5860  179.3770  145.0940 N   0  0  0  0  0  1  0  0  0  0  0  0
  186.6450  178.4840  140.9580 C   0  0  0  0  0  3  0  0  0  0  0  0
  184.9170  178.6150  144.6790 C   0  0  0  0  0  0  0  0  0  0  0  0
  190.3690  176.9840  146.9060 C   0  0  0  0  0  3  0  0  0  0  0  0
  185.2860  178.3090  146.0920 C   0  0  0  0  0  1  0  0  0  0  0  0
  191.6750  177.1280  146.4230 O   0  0  0  0  0  0  0  0  0  0  0  0
  185.6930  178.4870  143.5340 C   0  0  0  0  0  0  0  0  0  0  0  0
  188.8100  177.6200  141.5830 C   0  0  0  0  0  0  0  0  0  0  0  0
  183.6940  179.0960  144.2460 C   0  0  0  0  0  0  0  0  0  0  0  0
  184.8870  178.8990  142.4990 C   0  0  0  0  0  0  0  0  0  0  0  0
  189.9950  177.0300  143.7670 C   0  0  0  0  0  0  0  0  0  0  0  0
  187.0250  178.0570  143.3350 C   0  0  0  0  0  0  0  0  0  0  0  0
  189.2370  177.0620  146.1930 C   0  0  0  0  0  3  0  0  0  0  0  0
  185.3380  178.9140  141.1940 C   0  0  0  0  0  3  0  0  0  0  0  0
  192.0050  177.4730  145.0900 C   0  0  0  0  0  2  0  0  0  0  0  0
  191.3360  176.5040  144.1450 C   0  0  0  0  0  2  0  0  0  0  0  0
  189.0180  177.2790  144.7420 C   0  0  0  0  0  0  0  0  0  0  0  0
  189.8160  177.5140  137.4130 C   0  0  0  0  0  3  0  0  0  0  0  0
  189.1720  177.5950  140.1430 C   0  0  0  0  0  0  0  0  0  0  0  0
  188.7620  178.6280  139.2870 C   0  0  0  0  0  3  0  0  0  0  0  0
  189.0860  178.5890  137.9280 C   0  0  0  0  0  3  0  0  0  0  0  0
  190.2200  176.4760  138.2570 C   0  0  0  0  0  3  0  0  0  0  0  0
  189.8970  176.5140  139.6170 C   0  0  0  0  0  3  0  0  0  0  0  0
  1 15  1  0  0  0  0
  2 16  1  0  0  0  0
  3 21  1  0  0  0  0
  4 13  2  0  0  0  0
  6 18  1  0  0  0  0
  6  2  2  0  0  0  0
  7  9  1  0  0  0  0
 10  8  1  0  0  0  0
 11  7  2  0  0  0  0
 12  2  1  0  0  0  0
 12  1  2  0  0  0  0
 13  7  1  0  0  0  0
 13  5  1  0  0  0  0
 14  4  1  0  0  0  0
 14 11  1  0  0  0  0
 15 20  1  0  0  0  0
 15 21  2  0  0  0  0
 16 11  1  0  0  0  0
 16  3  2  0  0  0  0
 17  8  2  0  0  0  0
 18 14  2  0  0  0  0
 19 10  1  0  0  0  0
 20 19  1  0  0  0  0
 21 17  1  0  0  0  0
 22 25  2  0  0  0  0
 22 26  1  0  0  0  0
 23 12  1  0  0  0  0
 24 23  2  0  0  0  0
 25 24  1  0  0  0  0
 26 27  2  0  0  0  0
 27 23  1  0  0  0  0
M  END
>  <MODEL>
9

>  <REMARK>
 VINA RESULT:     -10.8      3.050      6.314
  Name = 
  1 active torsions:
  status: ('A' for Active; 'I' for Inactive)
    1  A    between atoms: C_9  and  C_15
                            x       y       z     vdW  Elec       q    Type
                         _______ _______ _______ _____ _____    ______ ____

>  <TORSDO>
F 1

$$$$
