=
 OpenBabel10222419023D

 50 55  0  0  1  0  0  0  0  0999 V2000
  181.7580  177.4880  140.5250 C   0  0  0  0  0  2  0  0  0  0  0  0
  180.2080  175.3180  138.3840 C   0  0  0  0  0  1  0  0  0  0  0  0
  184.4950  179.3610  139.2020 C   0  0  2  0  0  3  0  0  0  0  0  0
  180.0680  178.7390  137.9650 C   0  0  0  0  0  2  0  0  0  0  0  0
  179.3410  177.5180  137.9940 O   0  0  0  0  0  0  0  0  0  0  0  0
  184.0190  178.4680  140.3440 C   0  0  2  0  0  3  0  0  0  0  0  0
  181.4800  178.4680  138.4320 C   0  0  2  0  0  3  0  0  0  0  0  0
  181.2400  177.3450  139.3100 C   0  0  2  0  0  3  0  0  0  0  0  0
  179.9500  176.6930  138.9690 C   0  0  0  0  0  0  0  0  0  0  0  0
  182.0510  179.5320  139.3660 C   0  0  2  0  0  3  0  0  0  0  0  0
  179.0190  176.5640  140.1680 C   0  0  0  0  0  1  0  0  0  0  0  0
  183.2800  180.1640  138.7450 C   0  0  0  0  0  2  0  0  0  0  0  0
  182.5440  178.7530  140.5820 C   0  0  1  0  0  3  0  0  0  0  0  0
  185.6260  179.6780  141.6010 O   0  0  0  0  0  0  0  0  0  0  0  0
  184.8290  178.7030  141.5740 C   0  0  0  0  0  0  0  0  0  0  0  0
  184.6940  177.8300  142.7070 N   0  0  0  0  0  2  0  0  0  0  0  0
  185.2420  178.0600  144.0100 C   0  0  0  0  0  0  0  0  0  0  0  0
  186.5890  177.7980  144.2960 C   0  0  0  0  0  3  0  0  0  0  0  0
  187.1190  178.0330  145.5740 C   0  0  0  0  0  0  0  0  0  0  0  0
  184.4210  178.5870  145.0120 C   0  0  0  0  0  3  0  0  0  0  0  0
  186.2750  178.5530  146.5680 C   0  0  0  0  0  3  0  0  0  0  0  0
  184.9340  178.8300  146.2880 C   0  0  0  0  0  3  0  0  0  0  0  0
  189.5020  177.8630  144.9230 C   0  0  0  0  0  3  0  0  0  0  0  0
  188.5540  177.7630  145.8670 C   0  0  0  0  0  0  0  0  0  0  0  0
  188.9820  177.3860  147.2360 C   0  0  0  0  0  0  0  0  0  0  0  0
  188.9210  178.3320  148.3010 N   0  0  0  0  0  1  0  0  0  0  0  0
  189.3950  176.2210  147.4810 O   0  0  0  0  0  0  0  0  0  0  0  0
  189.2110  178.1830  143.5610 N   0  0  0  0  0  2  0  0  0  0  0  0
  189.6490  177.3530  142.5210 N   0  0  0  0  0  2  0  0  0  0  0  0
  190.6740  176.4810  143.0700 C   0  0  0  0  0  2  0  0  0  0  0  0
  190.3440  175.1530  142.8050 O   0  0  0  0  0  1  0  0  0  0  0  0
  185.0740  178.5190  138.0530 C   0  0  1  0  0  3  0  0  0  0  0  0
  186.5750  178.5310  138.0770 C   0  0  0  0  0  0  0  0  0  0  0  0
  188.7360  179.0590  136.8980 C   0  0  0  0  0  1  0  0  0  0  0  0
  187.2000  178.1120  139.0900 O   0  0  0  0  0  0  0  0  0  0  0  0
  187.2850  179.0180  136.9390 N   0  0  0  0  0  2  0  0  0  0  0  0
  185.1310  176.2770  136.9550 C   0  0  2  0  0  3  0  0  0  0  0  0
  184.5720  177.0770  138.1180 C   0  0  2  0  0  3  0  0  0  0  0  0
  183.7050  176.7770  136.9100 C   0  0  0  0  0  2  0  0  0  0  0  0
  185.1430  174.8110  137.3370 C   0  0  0  0  0  2  0  0  0  0  0  0
  186.1350  174.1080  136.5430 N   0  0  0  0  0  2  0  0  0  0  0  0
  187.4270  174.6580  136.9110 C   0  0  0  0  0  2  0  0  0  0  0  0
  188.4710  173.7130  136.5600 N   0  0  0  0  0  2  0  0  0  0  0  0
  192.2110  174.1520  137.0290 C   0  0  0  0  0  2  0  0  0  0  0  0
  189.5900  175.6550  137.4920 C   0  0  0  0  0  2  0  0  0  0  0  0
  191.9370  176.4670  138.0610 C   0  0  0  0  0  2  0  0  0  0  0  0
  190.5670  176.0380  138.5940 C   0  0  0  0  0  2  0  0  0  0  0  0
  190.8890  173.8060  136.3550 C   0  0  0  0  0  2  0  0  0  0  0  0
  192.4780  175.6440  136.8880 C   0  0  0  0  0  2  0  0  0  0  0  0
  189.6840  174.1560  137.2250 C   0  0  0  0  0  3  0  0  0  0  0  0
  2  9  1  0  0  0  0
  3 32  1  6  0  0  0
  3  6  1  0  0  0  0
  4  5  1  0  0  0  0
  5  9  1  0  0  0  0
  6 13  1  0  0  0  0
  6 15  1  1  0  0  0
  7  4  1  1  0  0  0
  7  8  1  0  0  0  0
  7 10  1  0  0  0  0
  8  1  1  1  0  0  0
  9  8  1  0  0  0  0
  9 11  1  0  0  0  0
 10 12  1  6  0  0  0
 10 13  1  0  0  0  0
 12  3  1  0  0  0  0
 13  1  1  6  0  0  0
 15 14  2  0  0  0  0
 15 16  1  0  0  0  0
 16 17  1  0  0  0  0
 17 18  2  0  0  0  0
 17 20  1  0  0  0  0
 18 19  1  0  0  0  0
 19 24  1  0  0  0  0
 19 21  2  0  0  0  0
 20 22  2  0  0  0  0
 22 21  1  0  0  0  0
 23 24  2  0  0  0  0
 24 25  1  0  0  0  0
 25 27  2  0  0  0  0
 25 26  1  0  0  0  0
 28 23  1  0  0  0  0
 29 30  1  0  0  0  0
 29 28  1  0  0  0  0
 31 30  1  0  0  0  0
 32 33  1  1  0  0  0
 33 35  2  0  0  0  0
 34 36  1  0  0  0  0
 36 33  1  0  0  0  0
 37 40  1  1  0  0  0
 37 38  1  0  0  0  0
 38 32  1  6  0  0  0
 39 37  1  0  0  0  0
 39 38  1  0  0  0  0
 41 42  1  0  0  0  0
 41 40  1  0  0  0  0
 43 42  1  0  0  0  0
 43 50  1  0  0  0  0
 45 47  1  0  0  0  0
 46 47  1  0  0  0  0
 48 44  1  0  0  0  0
 48 50  1  0  0  0  0
 49 44  1  0  0  0  0
 49 46  1  0  0  0  0
 50 45  1  0  0  0  0
M  END
>  <MODEL>
1

>  <REMARK>
 VINA RESULT:      -8.4      0.000      0.000
  Name = 
  15 active torsions:
  status: ('A' for Active; 'I' for Inactive)
    1  A    between atoms: C_1  and  N_45
    2  A    between atoms: C_3  and  C_41
    3  A    between atoms: C_6  and  C_36
    4  A    between atoms: C_7  and  C_39
    5  A    between atoms: C_11  and  C_36
    6  A    between atoms: C_12  and  C_39
    7  A    between atoms: C_15  and  N_26
    8  A    between atoms: C_16  and  C_36
    9  A    between atoms: C_17  and  C_42
   10  A    between atoms: N_18  and  C_41
   11  A    between atoms: N_18  and  C_47
   12  A    between atoms: C_19  and  N_23
   13  A    between atoms: N_23  and  N_26
   14  A    between atoms: N_37  and  C_47
   15  A    between atoms: N_37  and  C_48
                            x       y       z     vdW  Elec       q    Type
                         _______ _______ _______ _____ _____    ______ ____

>  <TORSDO>
F 15

$$$$
=
 OpenBabel10222419023D

 50 55  0  0  1  0  0  0  0  0999 V2000
  186.6020  175.8570  137.0950 C   0  0  0  0  0  2  0  0  0  0  0  0
  187.7480  172.7800  136.1380 C   0  0  0  0  0  1  0  0  0  0  0  0
  188.8520  177.8870  138.9850 C   0  0  2  0  0  3  0  0  0  0  0  0
  189.0740  175.7120  134.8930 C   0  0  0  0  0  2  0  0  0  0  0  0
  188.5790  174.4140  134.5940 O   0  0  0  0  0  0  0  0  0  0  0  0
  187.4420  177.3100  138.9090 C   0  0  2  0  0  3  0  0  0  0  0  0
  188.8040  176.0030  136.3520 C   0  0  2  0  0  3  0  0  0  0  0  0
  187.6190  175.1980  136.5510 C   0  0  2  0  0  3  0  0  0  0  0  0
  187.5340  174.1440  135.5080 C   0  0  0  0  0  0  0  0  0  0  0  0
  188.3190  177.4220  136.6340 C   0  0  2  0  0  3  0  0  0  0  0  0
  186.2040  174.1530  134.7660 C   0  0  0  0  0  1  0  0  0  0  0  0
  189.2960  178.1360  137.5460 C   0  0  0  0  0  2  0  0  0  0  0  0
  187.0380  177.2390  137.4440 C   0  0  1  0  0  3  0  0  0  0  0  0
  185.8340  179.0420  139.1150 O   0  0  0  0  0  0  0  0  0  0  0  0
  186.4860  178.1380  139.7020 C   0  0  0  0  0  0  0  0  0  0  0  0
  186.3170  177.9010  141.1080 N   0  0  0  0  0  2  0  0  0  0  0  0
  185.2940  178.4690  141.9340 C   0  0  0  0  0  0  0  0  0  0  0  0
  183.9350  178.3280  141.6210 C   0  0  0  0  0  3  0  0  0  0  0  0
  182.9400  178.8830  142.4410 C   0  0  0  0  0  0  0  0  0  0  0  0
  185.6600  179.1530  143.0970 C   0  0  0  0  0  3  0  0  0  0  0  0
  183.3290  179.5750  143.5990 C   0  0  0  0  0  3  0  0  0  0  0  0
  184.6820  179.7070  143.9260 C   0  0  0  0  0  3  0  0  0  0  0  0
  181.0940  178.0620  141.0100 C   0  0  0  0  0  3  0  0  0  0  0  0
  181.4970  178.7200  142.1070 C   0  0  0  0  0  0  0  0  0  0  0  0
  180.4530  179.2740  143.0020 C   0  0  0  0  0  0  0  0  0  0  0  0
  179.9200  180.5760  142.7750 N   0  0  0  0  0  1  0  0  0  0  0  0
  180.0130  178.5970  143.9700 O   0  0  0  0  0  0  0  0  0  0  0  0
  182.0020  177.5140  140.0540 N   0  0  0  0  0  2  0  0  0  0  0  0
  181.6930  177.5160  138.6880 N   0  0  0  0  0  2  0  0  0  0  0  0
  180.6670  176.5070  138.4800 C   0  0  0  0  0  2  0  0  0  0  0  0
  181.2430  175.2390  138.5390 O   0  0  0  0  0  1  0  0  0  0  0  0
  189.8030  176.9160  139.7030 C   0  0  1  0  0  3  0  0  0  0  0  0
  190.8920  176.4450  138.7830 C   0  0  0  0  0  0  0  0  0  0  0  0
  191.9220  174.5660  137.4610 C   0  0  0  0  0  1  0  0  0  0  0  0
  191.7900  177.2430  138.3960 O   0  0  0  0  0  0  0  0  0  0  0  0
  190.8990  175.0840  138.3530 N   0  0  0  0  0  2  0  0  0  0  0  0
  190.5240  176.5520  142.0660 C   0  0  2  0  0  3  0  0  0  0  0  0
  190.4240  177.5650  140.9400 C   0  0  2  0  0  3  0  0  0  0  0  0
  189.4170  177.5820  142.0740 C   0  0  0  0  0  2  0  0  0  0  0  0
  191.6270  176.9850  143.0110 C   0  0  0  0  0  2  0  0  0  0  0  0
  191.4010  176.4080  144.3230 N   0  0  0  0  0  2  0  0  0  0  0  0
  191.3130  177.5170  145.2550 C   0  0  0  0  0  2  0  0  0  0  0  0
  191.1230  177.0040  146.6000 N   0  0  0  0  0  2  0  0  0  0  0  0
  187.9560  177.6030  148.6000 C   0  0  0  0  0  2  0  0  0  0  0  0
  188.9830  177.7460  145.7260 C   0  0  0  0  0  2  0  0  0  0  0  0
  186.6200  178.2580  146.5300 C   0  0  0  0  0  2  0  0  0  0  0  0
  187.5170  177.3400  145.6940 C   0  0  0  0  0  2  0  0  0  0  0  0
  189.4280  177.6500  148.2140 C   0  0  0  0  0  2  0  0  0  0  0  0
  187.2040  178.7090  147.8720 C   0  0  0  0  0  2  0  0  0  0  0  0
  189.6940  177.0060  146.8550 C   0  0  0  0  0  3  0  0  0  0  0  0
  3 32  1  6  0  0  0
  5  4  1  0  0  0  0
  5  9  1  0  0  0  0
  6  3  1  0  0  0  0
  6 15  1  1  0  0  0
  7  4  1  6  0  0  0
  7  8  1  0  0  0  0
  7 10  1  0  0  0  0
  8  1  1  6  0  0  0
  9  2  1  0  0  0  0
  9  8  1  0  0  0  0
 10 13  1  0  0  0  0
 10 12  1  1  0  0  0
 11  9  1  0  0  0  0
 12  3  1  0  0  0  0
 13  1  1  1  0  0  0
 13  6  1  0  0  0  0
 14 15  2  0  0  0  0
 15 16  1  0  0  0  0
 16 17  1  0  0  0  0
 17 20  1  0  0  0  0
 18 17  2  0  0  0  0
 18 19  1  0  0  0  0
 19 21  2  0  0  0  0
 20 22  2  0  0  0  0
 21 22  1  0  0  0  0
 23 24  2  0  0  0  0
 24 19  1  0  0  0  0
 24 25  1  0  0  0  0
 25 27  2  0  0  0  0
 26 25  1  0  0  0  0
 28 23  1  0  0  0  0
 29 28  1  0  0  0  0
 30 31  1  0  0  0  0
 30 29  1  0  0  0  0
 32 33  1  6  0  0  0
 34 36  1  0  0  0  0
 35 33  2  0  0  0  0
 36 33  1  0  0  0  0
 37 39  1  0  0  0  0
 37 40  1  1  0  0  0
 38 32  1  6  0  0  0
 38 37  1  0  0  0  0
 38 39  1  0  0  0  0
 40 41  1  0  0  0  0
 41 42  1  0  0  0  0
 42 43  1  0  0  0  0
 43 50  1  0  0  0  0
 45 50  1  0  0  0  0
 46 49  1  0  0  0  0
 47 45  1  0  0  0  0
 47 46  1  0  0  0  0
 48 44  1  0  0  0  0
 49 44  1  0  0  0  0
 50 48  1  0  0  0  0
M  END
>  <MODEL>
2

>  <REMARK>
 VINA RESULT:      -7.6      2.570      7.970
  Name = 
  15 active torsions:
  status: ('A' for Active; 'I' for Inactive)
    1  A    between atoms: C_1  and  N_45
    2  A    between atoms: C_3  and  C_41
    3  A    between atoms: C_6  and  C_36
    4  A    between atoms: C_7  and  C_39
    5  A    between atoms: C_11  and  C_36
    6  A    between atoms: C_12  and  C_39
    7  A    between atoms: C_15  and  N_26
    8  A    between atoms: C_16  and  C_36
    9  A    between atoms: C_17  and  C_42
   10  A    between atoms: N_18  and  C_41
   11  A    between atoms: N_18  and  C_47
   12  A    between atoms: C_19  and  N_23
   13  A    between atoms: N_23  and  N_26
   14  A    between atoms: N_37  and  C_47
   15  A    between atoms: N_37  and  C_48
                            x       y       z     vdW  Elec       q    Type
                         _______ _______ _______ _____ _____    ______ ____

>  <TORSDO>
F 15

$$$$
=
 OpenBabel10222419023D

 50 55  0  0  1  0  0  0  0  0999 V2000
  186.7000  176.7810  137.6550 C   0  0  0  0  0  2  0  0  0  0  0  0
  185.1210  175.4020  134.9540 C   0  0  0  0  0  1  0  0  0  0  0  0
  190.2010  177.3980  137.3210 C   0  0  2  0  0  3  0  0  0  0  0  0
  186.4320  178.5920  134.8940 C   0  0  0  0  0  2  0  0  0  0  0  0
  185.3170  177.7630  134.5940 O   0  0  0  0  0  0  0  0  0  0  0  0
  189.1130  176.7750  138.1890 C   0  0  2  0  0  3  0  0  0  0  0  0
  187.4330  177.7820  135.6850 C   0  0  2  0  0  3  0  0  0  0  0  0
  186.5390  176.8520  136.3380 C   0  0  2  0  0  3  0  0  0  0  0  0
  185.2550  176.7680  135.5980 C   0  0  0  0  0  0  0  0  0  0  0  0
  188.0750  178.5320  136.8490 C   0  0  2  0  0  3  0  0  0  0  0  0
  184.0440  177.0280  136.4850 C   0  0  0  0  0  1  0  0  0  0  0  0
  189.5750  178.6180  136.6490 C   0  0  0  0  0  2  0  0  0  0  0  0
  187.8590  177.6260  138.0590 C   0  0  1  0  0  3  0  0  0  0  0  0
  190.4940  175.8760  139.8960 O   0  0  0  0  0  0  0  0  0  0  0  0
  189.5610  176.6720  139.6090 C   0  0  0  0  0  0  0  0  0  0  0  0
  188.9360  177.4730  140.6240 N   0  0  0  0  0  2  0  0  0  0  0  0
  189.4020  177.6310  141.9690 C   0  0  0  0  0  0  0  0  0  0  0  0
  188.5370  177.5060  143.0640 C   0  0  0  0  0  3  0  0  0  0  0  0
  189.0050  177.6550  144.3800 C   0  0  0  0  0  0  0  0  0  0  0  0
  190.7590  177.8850  142.1950 C   0  0  0  0  0  3  0  0  0  0  0  0
  190.3680  177.9200  144.5840 C   0  0  0  0  0  3  0  0  0  0  0  0
  191.2410  178.0320  143.4970 C   0  0  0  0  0  3  0  0  0  0  0  0
  186.7510  177.4420  145.3820 C   0  0  0  0  0  3  0  0  0  0  0  0
  188.0810  177.5100  145.5390 C   0  0  0  0  0  0  0  0  0  0  0  0
  188.6180  177.4190  146.9190 C   0  0  0  0  0  0  0  0  0  0  0  0
  188.1440  178.2910  147.9410 N   0  0  0  0  0  1  0  0  0  0  0  0
  189.4930  176.5590  147.2100 O   0  0  0  0  0  0  0  0  0  0  0  0
  186.1120  177.5540  144.1090 N   0  0  0  0  0  2  0  0  0  0  0  0
  185.0110  178.4020  143.9310 N   0  0  0  0  0  2  0  0  0  0  0  0
  184.8380  178.5840  142.5000 C   0  0  0  0  0  2  0  0  0  0  0  0
  185.4770  179.7570  142.0990 O   0  0  0  0  0  1  0  0  0  0  0  0
  190.7160  176.3900  136.2790 C   0  0  1  0  0  3  0  0  0  0  0  0
  192.1720  176.0910  136.4890 C   0  0  0  0  0  0  0  0  0  0  0  0
  193.9920  175.2460  138.0100 C   0  0  0  0  0  1  0  0  0  0  0  0
  193.0070  176.3110  135.5690 O   0  0  0  0  0  0  0  0  0  0  0  0
  192.6000  175.5590  137.7430 N   0  0  0  0  0  2  0  0  0  0  0  0
  190.4260  174.1220  135.2750 C   0  0  2  0  0  3  0  0  0  0  0  0
  189.9150  175.0890  136.3270 C   0  0  2  0  0  3  0  0  0  0  0  0
  189.1540  174.9030  135.0280 C   0  0  0  0  0  2  0  0  0  0  0  0
  190.0800  172.7110  135.7040 C   0  0  0  0  0  2  0  0  0  0  0  0
  189.4770  171.9960  134.5940 N   0  0  0  0  0  2  0  0  0  0  0  0
  188.3790  171.2230  135.1440 C   0  0  0  0  0  2  0  0  0  0  0  0
  187.1190  171.7710  134.6750 N   0  0  0  0  0  2  0  0  0  0  0  0
  185.5630  172.9310  137.9350 C   0  0  0  0  0  2  0  0  0  0  0  0
  184.7670  171.6710  135.2660 C   0  0  0  0  0  2  0  0  0  0  0  0
  183.2200  172.2310  137.2120 C   0  0  0  0  0  2  0  0  0  0  0  0
  183.8450  171.1310  136.3480 C   0  0  0  0  0  2  0  0  0  0  0  0
  186.4280  172.9510  136.6810 C   0  0  0  0  0  2  0  0  0  0  0  0
  184.1530  173.3870  137.5860 C   0  0  0  0  0  2  0  0  0  0  0  0
  186.1970  171.7290  135.7950 C   0  0  0  0  0  3  0  0  0  0  0  0
  2  9  1  0  0  0  0
  3 32  1  6  0  0  0
  3  6  1  0  0  0  0
  5  4  1  0  0  0  0
  5  9  1  0  0  0  0
  6 15  1  1  0  0  0
  7  4  1  6  0  0  0
  7  8  1  0  0  0  0
  7 10  1  0  0  0  0
  8  1  1  1  0  0  0
  9  8  1  0  0  0  0
  9 11  1  0  0  0  0
 10 12  1  6  0  0  0
 10 13  1  0  0  0  0
 12  3  1  0  0  0  0
 13  1  1  6  0  0  0
 13  6  1  0  0  0  0
 15 14  2  0  0  0  0
 15 16  1  0  0  0  0
 16 17  1  0  0  0  0
 17 20  2  0  0  0  0
 17 18  1  0  0  0  0
 18 19  2  0  0  0  0
 19 21  1  0  0  0  0
 19 24  1  0  0  0  0
 20 22  1  0  0  0  0
 22 21  2  0  0  0  0
 23 24  2  0  0  0  0
 24 25  1  0  0  0  0
 25 27  2  0  0  0  0
 25 26  1  0  0  0  0
 28 23  1  0  0  0  0
 29 28  1  0  0  0  0
 30 29  1  0  0  0  0
 31 30  1  0  0  0  0
 32 33  1  1  0  0  0
 33 36  1  0  0  0  0
 35 33  2  0  0  0  0
 36 34  1  0  0  0  0
 37 40  1  1  0  0  0
 37 38  1  0  0  0  0
 38 32  1  6  0  0  0
 39 37  1  0  0  0  0
 39 38  1  0  0  0  0
 41 42  1  0  0  0  0
 41 40  1  0  0  0  0
 43 42  1  0  0  0  0
 43 50  1  0  0  0  0
 45 50  1  0  0  0  0
 45 47  1  0  0  0  0
 46 49  1  0  0  0  0
 47 46  1  0  0  0  0
 48 44  1  0  0  0  0
 49 44  1  0  0  0  0
 50 48  1  0  0  0  0
M  END
>  <MODEL>
3

>  <REMARK>
 VINA RESULT:      -7.4      2.794      5.778
  Name = 
  15 active torsions:
  status: ('A' for Active; 'I' for Inactive)
    1  A    between atoms: C_1  and  N_45
    2  A    between atoms: C_3  and  C_41
    3  A    between atoms: C_6  and  C_36
    4  A    between atoms: C_7  and  C_39
    5  A    between atoms: C_11  and  C_36
    6  A    between atoms: C_12  and  C_39
    7  A    between atoms: C_15  and  N_26
    8  A    between atoms: C_16  and  C_36
    9  A    between atoms: C_17  and  C_42
   10  A    between atoms: N_18  and  C_41
   11  A    between atoms: N_18  and  C_47
   12  A    between atoms: C_19  and  N_23
   13  A    between atoms: N_23  and  N_26
   14  A    between atoms: N_37  and  C_47
   15  A    between atoms: N_37  and  C_48
                            x       y       z     vdW  Elec       q    Type
                         _______ _______ _______ _____ _____    ______ ____

>  <TORSDO>
F 15

$$$$
=
 OpenBabel10222419023D

 50 55  0  0  1  0  0  0  0  0999 V2000
  186.5230  176.8930  137.5220 C   0  0  0  0  0  2  0  0  0  0  0  0
  187.3280  174.1230  135.6870 C   0  0  0  0  0  1  0  0  0  0  0  0
  189.0350  178.1340  139.7360 C   0  0  2  0  0  3  0  0  0  0  0  0
  188.8710  177.1700  135.2010 C   0  0  0  0  0  2  0  0  0  0  0  0
  188.2420  176.0490  134.5940 O   0  0  0  0  0  0  0  0  0  0  0  0
  187.5750  177.7140  139.6030 C   0  0  2  0  0  3  0  0  0  0  0  0
  188.6940  177.0650  136.6990 C   0  0  2  0  0  3  0  0  0  0  0  0
  187.4480  176.3330  136.7510 C   0  0  2  0  0  3  0  0  0  0  0  0
  187.2180  175.6200  135.4690 C   0  0  0  0  0  0  0  0  0  0  0  0
  188.3580  178.3840  137.3890 C   0  0  2  0  0  3  0  0  0  0  0  0
  185.8630  175.9400  134.8500 C   0  0  0  0  0  1  0  0  0  0  0  0
  189.4380  178.7370  138.3920 C   0  0  0  0  0  2  0  0  0  0  0  0
  187.1030  178.0850  138.2050 C   0  0  1  0  0  3  0  0  0  0  0  0
  187.1280  179.4500  141.1560 O   0  0  0  0  0  0  0  0  0  0  0  0
  186.7380  178.3630  140.6540 C   0  0  0  0  0  0  0  0  0  0  0  0
  185.5090  177.7530  141.0770 N   0  0  0  0  0  2  0  0  0  0  0  0
  184.5160  178.3650  141.9100 C   0  0  0  0  0  0  0  0  0  0  0  0
  183.1610  178.3720  141.5520 C   0  0  0  0  0  3  0  0  0  0  0  0
  182.1950  178.9670  142.3780 C   0  0  0  0  0  0  0  0  0  0  0  0
  184.9050  178.9410  143.1230 C   0  0  0  0  0  3  0  0  0  0  0  0
  182.6080  179.5490  143.5870 C   0  0  0  0  0  3  0  0  0  0  0  0
  183.9560  179.5340  143.9580 C   0  0  0  0  0  3  0  0  0  0  0  0
  180.2720  179.7660  141.0380 C   0  0  0  0  0  3  0  0  0  0  0  0
  180.7550  178.9610  141.9960 C   0  0  0  0  0  0  0  0  0  0  0  0
  179.8060  178.0370  142.6630 C   0  0  0  0  0  0  0  0  0  0  0  0
  179.5100  178.1790  144.0500 N   0  0  0  0  0  1  0  0  0  0  0  0
  179.2380  177.1200  142.0100 O   0  0  0  0  0  0  0  0  0  0  0  0
  181.0780  180.7220  140.3480 N   0  0  0  0  0  2  0  0  0  0  0  0
  181.0580  180.8010  138.9490 N   0  0  0  0  0  2  0  0  0  0  0  0
  180.2080  181.9260  138.5960 C   0  0  0  0  0  2  0  0  0  0  0  0
  179.6650  181.7190  137.3280 O   0  0  0  0  0  1  0  0  0  0  0  0
  189.9210  176.9290  140.0960 C   0  0  1  0  0  3  0  0  0  0  0  0
  190.7490  176.4970  138.9200 C   0  0  0  0  0  0  0  0  0  0  0  0
  191.2360  174.7650  137.1590 C   0  0  0  0  0  1  0  0  0  0  0  0
  191.6770  177.2350  138.4880 O   0  0  0  0  0  0  0  0  0  0  0  0
  190.4750  175.2410  138.3010 N   0  0  0  0  0  2  0  0  0  0  0  0
  190.3530  176.5310  142.5220 C   0  0  2  0  0  3  0  0  0  0  0  0
  190.8370  177.2510  141.2760 C   0  0  2  0  0  3  0  0  0  0  0  0
  190.0620  178.0040  142.3410 C   0  0  0  0  0  2  0  0  0  0  0  0
  191.5250  176.3590  143.4680 C   0  0  0  0  0  2  0  0  0  0  0  0
  191.5640  177.4670  144.4050 N   0  0  0  0  0  2  0  0  0  0  0  0
  191.6380  176.8840  145.7330 C   0  0  0  0  0  2  0  0  0  0  0  0
  190.3910  176.2030  146.0310 N   0  0  0  0  0  2  0  0  0  0  0  0
  187.2080  178.1650  145.3890 C   0  0  0  0  0  2  0  0  0  0  0  0
  188.9070  177.1340  147.7110 C   0  0  0  0  0  2  0  0  0  0  0  0
  186.7640  178.5040  147.8770 C   0  0  0  0  0  2  0  0  0  0  0  0
  188.2750  178.4550  148.1250 C   0  0  0  0  0  2  0  0  0  0  0  0
  188.2520  177.0620  145.2690 C   0  0  0  0  0  2  0  0  0  0  0  0
  186.2890  177.8680  146.5660 C   0  0  0  0  0  2  0  0  0  0  0  0
  189.3940  177.2310  146.2690 C   0  0  0  0  0  3  0  0  0  0  0  0
  3 32  1  6  0  0  0
  5  4  1  0  0  0  0
  5  9  1  0  0  0  0
  6  3  1  0  0  0  0
  6 15  1  1  0  0  0
  7  4  1  6  0  0  0
  7  8  1  0  0  0  0
  7 10  1  0  0  0  0
  8  1  1  6  0  0  0
  9  2  1  0  0  0  0
  9  8  1  0  0  0  0
 10 13  1  0  0  0  0
 10 12  1  1  0  0  0
 11  9  1  0  0  0  0
 12  3  1  0  0  0  0
 13  1  1  6  0  0  0
 13  6  1  0  0  0  0
 15 16  1  0  0  0  0
 15 14  2  0  0  0  0
 16 17  1  0  0  0  0
 17 20  1  0  0  0  0
 18 17  2  0  0  0  0
 18 19  1  0  0  0  0
 19 21  2  0  0  0  0
 20 22  2  0  0  0  0
 21 22  1  0  0  0  0
 23 24  2  0  0  0  0
 24 19  1  0  0  0  0
 24 25  1  0  0  0  0
 25 26  1  0  0  0  0
 27 25  2  0  0  0  0
 28 23  1  0  0  0  0
 29 28  1  0  0  0  0
 30 29  1  0  0  0  0
 31 30  1  0  0  0  0
 32 33  1  6  0  0  0
 34 36  1  0  0  0  0
 35 33  2  0  0  0  0
 36 33  1  0  0  0  0
 37 40  1  1  0  0  0
 38 32  1  6  0  0  0
 38 39  1  0  0  0  0
 38 37  1  0  0  0  0
 39 37  1  0  0  0  0
 40 41  1  0  0  0  0
 41 42  1  0  0  0  0
 42 43  1  0  0  0  0
 43 50  1  0  0  0  0
 44 49  1  0  0  0  0
 45 47  1  0  0  0  0
 46 47  1  0  0  0  0
 48 44  1  0  0  0  0
 48 50  1  0  0  0  0
 49 46  1  0  0  0  0
 50 45  1  0  0  0  0
M  END
>  <MODEL>
4

>  <REMARK>
 VINA RESULT:      -7.4      2.671      8.105
  Name = 
  15 active torsions:
  status: ('A' for Active; 'I' for Inactive)
    1  A    between atoms: C_1  and  N_45
    2  A    between atoms: C_3  and  C_41
    3  A    between atoms: C_6  and  C_36
    4  A    between atoms: C_7  and  C_39
    5  A    between atoms: C_11  and  C_36
    6  A    between atoms: C_12  and  C_39
    7  A    between atoms: C_15  and  N_26
    8  A    between atoms: C_16  and  C_36
    9  A    between atoms: C_17  and  C_42
   10  A    between atoms: N_18  and  C_41
   11  A    between atoms: N_18  and  C_47
   12  A    between atoms: C_19  and  N_23
   13  A    between atoms: N_23  and  N_26
   14  A    between atoms: N_37  and  C_47
   15  A    between atoms: N_37  and  C_48
                            x       y       z     vdW  Elec       q    Type
                         _______ _______ _______ _____ _____    ______ ____

>  <TORSDO>
F 15

$$$$
=
 OpenBabel10222419023D

 50 55  0  0  1  0  0  0  0  0999 V2000
  182.8270  176.9450  139.9050 C   0  0  0  0  0  2  0  0  0  0  0  0
  182.0190  174.3730  137.8010 C   0  0  0  0  0  1  0  0  0  0  0  0
  185.7440  178.8320  139.0800 C   0  0  2  0  0  3  0  0  0  0  0  0
  181.8600  177.6780  136.8220 C   0  0  0  0  0  2  0  0  0  0  0  0
  181.2040  176.4170  136.8500 O   0  0  0  0  0  0  0  0  0  0  0  0
  185.0090  178.0740  140.1800 C   0  0  2  0  0  3  0  0  0  0  0  0
  183.0970  177.5940  137.6850 C   0  0  2  0  0  3  0  0  0  0  0  0
  182.6710  176.5900  138.6340 C   0  0  2  0  0  3  0  0  0  0  0  0
  181.5530  175.7920  138.0700 C   0  0  0  0  0  0  0  0  0  0  0  0
  183.3450  178.8220  138.5560 C   0  0  2  0  0  3  0  0  0  0  0  0
  180.3330  175.7570  138.9810 C   0  0  0  0  0  1  0  0  0  0  0  0
  184.6710  179.4590  138.1930 C   0  0  0  0  0  2  0  0  0  0  0  0
  183.5140  178.2660  139.9680 C   0  0  1  0  0  3  0  0  0  0  0  0
  185.6100  179.7800  141.7130 O   0  0  0  0  0  0  0  0  0  0  0  0
  185.4370  178.5470  141.5280 C   0  0  0  0  0  0  0  0  0  0  0  0
  185.6430  177.6050  142.5930 N   0  0  0  0  0  2  0  0  0  0  0  0
  185.8430  177.9340  143.9730 C   0  0  0  0  0  0  0  0  0  0  0  0
  187.0700  177.7050  144.6110 C   0  0  0  0  0  3  0  0  0  0  0  0
  187.2590  178.0370  145.9620 C   0  0  0  0  0  0  0  0  0  0  0  0
  184.7990  178.5250  144.6910 C   0  0  0  0  0  3  0  0  0  0  0  0
  186.1950  178.6210  146.6670 C   0  0  0  0  0  3  0  0  0  0  0  0
  184.9720  178.8650  146.0340 C   0  0  0  0  0  3  0  0  0  0  0  0
  189.7210  177.7790  145.9430 C   0  0  0  0  0  3  0  0  0  0  0  0
  188.5690  177.8010  146.6300 C   0  0  0  0  0  0  0  0  0  0  0  0
  188.6370  177.5980  148.0970 C   0  0  0  0  0  0  0  0  0  0  0  0
  189.4760  178.4200  148.9050 N   0  0  0  0  0  1  0  0  0  0  0  0
  187.9440  176.7040  148.6530 O   0  0  0  0  0  0  0  0  0  0  0  0
  189.7830  177.9270  144.5240 N   0  0  0  0  0  2  0  0  0  0  0  0
  190.8940  177.4710  143.8030 N   0  0  0  0  0  2  0  0  0  0  0  0
  190.6970  176.0510  143.5640 C   0  0  0  0  0  2  0  0  0  0  0  0
  190.2750  175.8540  142.2500 O   0  0  0  0  0  1  0  0  0  0  0  0
  186.6510  177.8870  138.2750 C   0  0  1  0  0  3  0  0  0  0  0  0
  186.4290  178.0520  136.7990 C   0  0  0  0  0  0  0  0  0  0  0  0
  185.3510  177.2130  134.6840 C   0  0  0  0  0  1  0  0  0  0  0  0
  186.9650  179.0100  136.1760 O   0  0  0  0  0  0  0  0  0  0  0  0
  185.6080  177.1100  136.1090 N   0  0  0  0  0  2  0  0  0  0  0  0
  188.7680  176.8410  139.0860 C   0  0  2  0  0  3  0  0  0  0  0  0
  188.1250  178.1270  138.6000 C   0  0  2  0  0  3  0  0  0  0  0  0
  188.3690  177.9070  140.0810 C   0  0  0  0  0  2  0  0  0  0  0  0
  190.2600  176.9170  138.8300 C   0  0  0  0  0  2  0  0  0  0  0  0
  190.7510  175.6170  138.4120 N   0  0  0  0  0  2  0  0  0  0  0  0
  189.8140  175.1180  137.4220 C   0  0  0  0  0  2  0  0  0  0  0  0
  190.0140  173.6910  137.2440 N   0  0  0  0  0  2  0  0  0  0  0  0
  186.2460  173.6830  136.8020 C   0  0  0  0  0  2  0  0  0  0  0  0
  188.7420  172.2800  135.7330 C   0  0  0  0  0  2  0  0  0  0  0  0
  186.3270  171.8210  135.0620 C   0  0  0  0  0  2  0  0  0  0  0  0
  187.5930  171.2830  135.7360 C   0  0  0  0  0  2  0  0  0  0  0  0
  187.6640  174.2210  136.9440 C   0  0  0  0  0  2  0  0  0  0  0  0
  185.9960  173.2880  135.3530 C   0  0  0  0  0  2  0  0  0  0  0  0
  188.7050  173.1060  137.0150 C   0  0  0  0  0  3  0  0  0  0  0  0
  2  9  1  0  0  0  0
  3 32  1  6  0  0  0
  3  6  1  0  0  0  0
  4  5  1  0  0  0  0
  5  9  1  0  0  0  0
  6 15  1  1  0  0  0
  7  4  1  6  0  0  0
  7 10  1  0  0  0  0
  7  8  1  0  0  0  0
  8  1  1  1  0  0  0
  9  8  1  0  0  0  0
  9 11  1  0  0  0  0
 10 12  1  6  0  0  0
 10 13  1  0  0  0  0
 12  3  1  0  0  0  0
 13  1  1  6  0  0  0
 13  6  1  0  0  0  0
 15 14  2  0  0  0  0
 15 16  1  0  0  0  0
 16 17  1  0  0  0  0
 17 18  2  0  0  0  0
 17 20  1  0  0  0  0
 18 19  1  0  0  0  0
 19 24  1  0  0  0  0
 19 21  2  0  0  0  0
 20 22  2  0  0  0  0
 22 21  1  0  0  0  0
 23 24  2  0  0  0  0
 24 25  1  0  0  0  0
 25 27  2  0  0  0  0
 25 26  1  0  0  0  0
 28 23  1  0  0  0  0
 29 28  1  0  0  0  0
 30 29  1  0  0  0  0
 31 30  1  0  0  0  0
 32 33  1  6  0  0  0
 34 36  1  0  0  0  0
 35 33  2  0  0  0  0
 36 33  1  0  0  0  0
 37 40  1  6  0  0  0
 37 39  1  0  0  0  0
 38 32  1  1  0  0  0
 38 37  1  0  0  0  0
 38 39  1  0  0  0  0
 41 40  1  0  0  0  0
 42 41  1  0  0  0  0
 43 42  1  0  0  0  0
 44 48  1  0  0  0  0
 45 47  1  0  0  0  0
 45 50  1  0  0  0  0
 46 49  1  0  0  0  0
 46 47  1  0  0  0  0
 48 50  1  0  0  0  0
 49 44  1  0  0  0  0
 50 43  1  0  0  0  0
M  END
>  <MODEL>
5

>  <REMARK>
 VINA RESULT:      -7.4      1.695      2.998
  Name = 
  15 active torsions:
  status: ('A' for Active; 'I' for Inactive)
    1  A    between atoms: C_1  and  N_45
    2  A    between atoms: C_3  and  C_41
    3  A    between atoms: C_6  and  C_36
    4  A    between atoms: C_7  and  C_39
    5  A    between atoms: C_11  and  C_36
    6  A    between atoms: C_12  and  C_39
    7  A    between atoms: C_15  and  N_26
    8  A    between atoms: C_16  and  C_36
    9  A    between atoms: C_17  and  C_42
   10  A    between atoms: N_18  and  C_41
   11  A    between atoms: N_18  and  C_47
   12  A    between atoms: C_19  and  N_23
   13  A    between atoms: N_23  and  N_26
   14  A    between atoms: N_37  and  C_47
   15  A    between atoms: N_37  and  C_48
                            x       y       z     vdW  Elec       q    Type
                         _______ _______ _______ _____ _____    ______ ____

>  <TORSDO>
F 15

$$$$
=
 OpenBabel10222419023D

 50 55  0  0  1  0  0  0  0  0999 V2000
  182.9840  176.8390  139.9220 C   0  0  0  0  0  2  0  0  0  0  0  0
  182.4300  174.2890  137.7120 C   0  0  0  0  0  1  0  0  0  0  0  0
  185.8070  178.9290  139.2810 C   0  0  2  0  0  3  0  0  0  0  0  0
  182.1030  177.6060  136.8220 C   0  0  0  0  0  2  0  0  0  0  0  0
  181.5280  176.3070  136.7850 O   0  0  0  0  0  0  0  0  0  0  0  0
  185.0760  178.0920  140.3250 C   0  0  2  0  0  3  0  0  0  0  0  0
  183.3060  177.5720  137.7370 C   0  0  2  0  0  3  0  0  0  0  0  0
  182.9040  176.5140  138.6370 C   0  0  2  0  0  3  0  0  0  0  0  0
  181.8640  175.6660  138.0000 C   0  0  0  0  0  0  0  0  0  0  0  0
  183.4380  178.7860  138.6520 C   0  0  2  0  0  3  0  0  0  0  0  0
  180.6120  175.5270  138.8560 C   0  0  0  0  0  1  0  0  0  0  0  0
  184.7350  179.5160  138.3670 C   0  0  0  0  0  2  0  0  0  0  0  0
  183.5820  178.1980  140.0540 C   0  0  1  0  0  3  0  0  0  0  0  0
  185.3060  179.7710  141.9850 O   0  0  0  0  0  0  0  0  0  0  0  0
  185.4160  178.5480  141.7050 C   0  0  0  0  0  0  0  0  0  0  0  0
  185.8560  177.6020  142.6920 N   0  0  0  0  0  2  0  0  0  0  0  0
  186.0080  177.8630  144.0920 C   0  0  0  0  0  0  0  0  0  0  0  0
  187.2170  177.6190  144.7570 C   0  0  0  0  0  3  0  0  0  0  0  0
  187.3580  177.8850  146.1280 C   0  0  0  0  0  0  0  0  0  0  0  0
  184.9330  178.4040  144.8040 C   0  0  0  0  0  3  0  0  0  0  0  0
  186.2640  178.4190  146.8260 C   0  0  0  0  0  3  0  0  0  0  0  0
  185.0590  178.6790  146.1680 C   0  0  0  0  0  3  0  0  0  0  0  0
  189.7510  177.2500  146.1620 C   0  0  0  0  0  3  0  0  0  0  0  0
  188.6500  177.6330  146.8250 C   0  0  0  0  0  0  0  0  0  0  0  0
  188.7590  177.8200  148.2920 C   0  0  0  0  0  0  0  0  0  0  0  0
  189.7950  178.6280  148.8450 N   0  0  0  0  0  1  0  0  0  0  0  0
  187.9300  177.2770  149.0710 O   0  0  0  0  0  0  0  0  0  0  0  0
  189.7640  177.0030  144.7550 N   0  0  0  0  0  2  0  0  0  0  0  0
  190.8500  177.4030  143.9660 N   0  0  0  0  0  2  0  0  0  0  0  0
  190.7820  176.6470  142.7270 C   0  0  0  0  0  2  0  0  0  0  0  0
  190.1650  175.4190  142.9650 O   0  0  0  0  0  1  0  0  0  0  0  0
  186.8060  178.0680  138.4900 C   0  0  1  0  0  3  0  0  0  0  0  0
  186.6520  178.2820  137.0120 C   0  0  0  0  0  0  0  0  0  0  0  0
  185.8610  177.4070  134.7880 C   0  0  0  0  0  1  0  0  0  0  0  0
  187.0590  179.3490  136.4770 O   0  0  0  0  0  0  0  0  0  0  0  0
  186.0420  177.2620  136.2210 N   0  0  0  0  0  2  0  0  0  0  0  0
  188.9790  177.0830  139.2260 C   0  0  2  0  0  3  0  0  0  0  0  0
  188.2460  178.3720  138.9040 C   0  0  2  0  0  3  0  0  0  0  0  0
  188.4660  177.9590  140.3470 C   0  0  0  0  0  2  0  0  0  0  0  0
  190.4660  177.3120  139.0420 C   0  0  0  0  0  2  0  0  0  0  0  0
  191.1380  176.0380  138.8660 N   0  0  0  0  0  2  0  0  0  0  0  0
  192.5480  176.3340  138.6860 C   0  0  0  0  0  2  0  0  0  0  0  0
  192.8960  176.1890  137.2840 N   0  0  0  0  0  2  0  0  0  0  0  0
  194.6340  173.3620  135.4440 C   0  0  0  0  0  2  0  0  0  0  0  0
  194.7650  174.8720  138.0980 C   0  0  0  0  0  2  0  0  0  0  0  0
  196.2440  172.9280  137.3720 C   0  0  0  0  0  2  0  0  0  0  0  0
  195.1710  173.4260  138.3450 C   0  0  0  0  0  2  0  0  0  0  0  0
  194.0000  174.7250  135.6920 C   0  0  0  0  0  2  0  0  0  0  0  0
  196.0800  173.3820  135.9180 C   0  0  0  0  0  2  0  0  0  0  0  0
  193.5740  174.9120  137.1470 C   0  0  0  0  0  3  0  0  0  0  0  0
  2  9  1  0  0  0  0
  3 32  1  6  0  0  0
  3  6  1  0  0  0  0
  5  4  1  0  0  0  0
  5  9  1  0  0  0  0
  6 15  1  1  0  0  0
  7  4  1  6  0  0  0
  7  8  1  0  0  0  0
  7 10  1  0  0  0  0
  8  1  1  1  0  0  0
  9  8  1  0  0  0  0
  9 11  1  0  0  0  0
 10 12  1  6  0  0  0
 10 13  1  0  0  0  0
 12  3  1  0  0  0  0
 13  1  1  6  0  0  0
 13  6  1  0  0  0  0
 15 14  2  0  0  0  0
 15 16  1  0  0  0  0
 16 17  1  0  0  0  0
 17 18  2  0  0  0  0
 17 20  1  0  0  0  0
 18 19  1  0  0  0  0
 19 24  1  0  0  0  0
 19 21  2  0  0  0  0
 20 22  2  0  0  0  0
 22 21  1  0  0  0  0
 23 24  2  0  0  0  0
 24 25  1  0  0  0  0
 25 26  1  0  0  0  0
 25 27  2  0  0  0  0
 28 23  1  0  0  0  0
 29 28  1  0  0  0  0
 30 31  1  0  0  0  0
 30 29  1  0  0  0  0
 32 33  1  6  0  0  0
 34 36  1  0  0  0  0
 35 33  2  0  0  0  0
 36 33  1  0  0  0  0
 37 40  1  1  0  0  0
 37 39  1  0  0  0  0
 38 32  1  6  0  0  0
 38 37  1  0  0  0  0
 38 39  1  0  0  0  0
 41 40  1  0  0  0  0
 42 41  1  0  0  0  0
 43 42  1  0  0  0  0
 44 48  1  0  0  0  0
 44 49  1  0  0  0  0
 45 47  1  0  0  0  0
 46 47  1  0  0  0  0
 48 50  1  0  0  0  0
 49 46  1  0  0  0  0
 50 43  1  0  0  0  0
 50 45  1  0  0  0  0
M  END
>  <MODEL>
6

>  <REMARK>
 VINA RESULT:      -6.8      2.040      3.012
  Name = 
  15 active torsions:
  status: ('A' for Active; 'I' for Inactive)
    1  A    between atoms: C_1  and  N_45
    2  A    between atoms: C_3  and  C_41
    3  A    between atoms: C_6  and  C_36
    4  A    between atoms: C_7  and  C_39
    5  A    between atoms: C_11  and  C_36
    6  A    between atoms: C_12  and  C_39
    7  A    between atoms: C_15  and  N_26
    8  A    between atoms: C_16  and  C_36
    9  A    between atoms: C_17  and  C_42
   10  A    between atoms: N_18  and  C_41
   11  A    between atoms: N_18  and  C_47
   12  A    between atoms: C_19  and  N_23
   13  A    between atoms: N_23  and  N_26
   14  A    between atoms: N_37  and  C_47
   15  A    between atoms: N_37  and  C_48
                            x       y       z     vdW  Elec       q    Type
                         _______ _______ _______ _____ _____    ______ ____

>  <TORSDO>
F 15

$$$$
=
 OpenBabel10222419023D

 50 55  0  0  1  0  0  0  0  0999 V2000
  186.2400  174.8070  136.1860 C   0  0  0  0  0  2  0  0  0  0  0  0
  187.8770  171.8610  136.7640 C   0  0  0  0  0  1  0  0  0  0  0  0
  187.7060  177.7530  137.5740 C   0  0  2  0  0  3  0  0  0  0  0  0
  189.2130  174.3580  134.7950 C   0  0  0  0  0  2  0  0  0  0  0  0
  188.9370  172.9700  134.9230 O   0  0  0  0  0  0  0  0  0  0  0  0
  186.4270  176.9350  137.4300 C   0  0  2  0  0  3  0  0  0  0  0  0
  188.5370  175.0890  135.9320 C   0  0  2  0  0  3  0  0  0  0  0  0
  187.4210  174.2000  136.1700 C   0  0  2  0  0  3  0  0  0  0  0  0
  187.7150  172.8500  135.6260 C   0  0  0  0  0  0  0  0  0  0  0  0
  187.8660  176.4000  135.5320 C   0  0  2  0  0  3  0  0  0  0  0  0
  186.6370  172.3500  134.6730 C   0  0  0  0  0  1  0  0  0  0  0  0
  188.4940  177.5570  136.2820 C   0  0  0  0  0  2  0  0  0  0  0  0
  186.4380  176.2790  136.0570 C   0  0  1  0  0  3  0  0  0  0  0  0
  185.3810  178.9970  137.9600 O   0  0  0  0  0  0  0  0  0  0  0  0
  185.2220  177.7960  137.6160 C   0  0  0  0  0  0  0  0  0  0  0  0
  183.9080  177.2580  137.4010 N   0  0  0  0  0  2  0  0  0  0  0  0
  182.6950  178.0160  137.3370 C   0  0  0  0  0  0  0  0  0  0  0  0
  182.2560  178.7910  138.4180 C   0  0  0  0  0  3  0  0  0  0  0  0
  181.0680  179.5360  138.3430 C   0  0  0  0  0  0  0  0  0  0  0  0
  181.9470  178.0050  136.1550 C   0  0  0  0  0  3  0  0  0  0  0  0
  180.3270  179.5040  137.1510 C   0  0  0  0  0  3  0  0  0  0  0  0
  180.7650  178.7440  136.0630 C   0  0  0  0  0  3  0  0  0  0  0  0
  180.2300  181.6420  139.3390 C   0  0  0  0  0  3  0  0  0  0  0  0
  180.6140  180.3670  139.4930 C   0  0  0  0  0  0  0  0  0  0  0  0
  180.5560  179.7900  140.8590 C   0  0  0  0  0  0  0  0  0  0  0  0
  180.9960  178.4560  141.1010 N   0  0  0  0  0  1  0  0  0  0  0  0
  180.1280  180.4750  141.8260 O   0  0  0  0  0  0  0  0  0  0  0  0
  180.2750  182.3200  138.0820 N   0  0  0  0  0  2  0  0  0  0  0  0
  181.1790  183.3670  137.8630 N   0  0  0  0  0  2  0  0  0  0  0  0
  181.1800  183.6420  136.4360 C   0  0  0  0  0  2  0  0  0  0  0  0
  180.8640  184.9830  136.2200 O   0  0  0  0  0  1  0  0  0  0  0  0
  188.5160  177.2920  138.7980 C   0  0  1  0  0  3  0  0  0  0  0  0
  189.9290  176.9590  138.4160 C   0  0  0  0  0  0  0  0  0  0  0  0
  191.6730  175.2000  137.9620 C   0  0  0  0  0  1  0  0  0  0  0  0
  190.7590  177.8790  138.1790 O   0  0  0  0  0  0  0  0  0  0  0  0
  190.3220  175.5890  138.3280 N   0  0  0  0  0  2  0  0  0  0  0  0
  188.5440  177.7030  141.2600 C   0  0  2  0  0  3  0  0  0  0  0  0
  188.5190  178.3590  139.8920 C   0  0  2  0  0  3  0  0  0  0  0  0
  187.2480  178.2580  140.7140 C   0  0  0  0  0  2  0  0  0  0  0  0
  189.1360  178.6800  142.2560 C   0  0  0  0  0  2  0  0  0  0  0  0
  190.2540  178.0600  142.9440 N   0  0  0  0  0  2  0  0  0  0  0  0
  189.9230  178.0620  144.3570 C   0  0  0  0  0  2  0  0  0  0  0  0
  189.4270  176.7510  144.7390 N   0  0  0  0  0  2  0  0  0  0  0  0
  187.9360  177.7670  148.0760 C   0  0  0  0  0  2  0  0  0  0  0  0
  187.2870  177.8420  145.0900 C   0  0  0  0  0  2  0  0  0  0  0  0
  185.8190  178.6880  146.9930 C   0  0  0  0  0  2  0  0  0  0  0  0
  185.9880  177.6690  145.8620 C   0  0  0  0  0  2  0  0  0  0  0  0
  188.9660  177.5990  146.9670 C   0  0  0  0  0  2  0  0  0  0  0  0
  187.0860  178.9990  147.7970 C   0  0  0  0  0  2  0  0  0  0  0  0
  188.3700  176.9660  145.7110 C   0  0  0  0  0  3  0  0  0  0  0  0
  3 32  1  1  0  0  0
  4  5  1  0  0  0  0
  5  9  1  0  0  0  0
  6  3  1  0  0  0  0
  6 15  1  6  0  0  0
  7  4  1  6  0  0  0
  7  8  1  0  0  0  0
  8  1  1  6  0  0  0
  9  8  1  0  0  0  0
  9  2  1  0  0  0  0
 10  7  1  0  0  0  0
 10 13  1  0  0  0  0
 10 12  1  1  0  0  0
 11  9  1  0  0  0  0
 12  3  1  0  0  0  0
 13  1  1  1  0  0  0
 13  6  1  0  0  0  0
 15 14  2  0  0  0  0
 16 15  1  0  0  0  0
 17 16  1  0  0  0  0
 17 18  1  0  0  0  0
 19 18  2  0  0  0  0
 19 24  1  0  0  0  0
 20 17  2  0  0  0  0
 21 19  1  0  0  0  0
 22 20  1  0  0  0  0
 22 21  2  0  0  0  0
 23 24  2  0  0  0  0
 24 25  1  0  0  0  0
 25 26  1  0  0  0  0
 25 27  2  0  0  0  0
 28 23  1  0  0  0  0
 29 28  1  0  0  0  0
 30 29  1  0  0  0  0
 31 30  1  0  0  0  0
 32 33  1  6  0  0  0
 34 36  1  0  0  0  0
 35 33  2  0  0  0  0
 36 33  1  0  0  0  0
 37 40  1  1  0  0  0
 38 32  1  6  0  0  0
 38 39  1  0  0  0  0
 38 37  1  0  0  0  0
 39 37  1  0  0  0  0
 40 41  1  0  0  0  0
 41 42  1  0  0  0  0
 42 43  1  0  0  0  0
 43 50  1  0  0  0  0
 45 50  1  0  0  0  0
 45 47  1  0  0  0  0
 46 49  1  0  0  0  0
 47 46  1  0  0  0  0
 48 44  1  0  0  0  0
 49 44  1  0  0  0  0
 50 48  1  0  0  0  0
M  END
>  <MODEL>
7

>  <REMARK>
 VINA RESULT:      -6.6      3.049      8.894
  Name = 
  15 active torsions:
  status: ('A' for Active; 'I' for Inactive)
    1  A    between atoms: C_1  and  N_45
    2  A    between atoms: C_3  and  C_41
    3  A    between atoms: C_6  and  C_36
    4  A    between atoms: C_7  and  C_39
    5  A    between atoms: C_11  and  C_36
    6  A    between atoms: C_12  and  C_39
    7  A    between atoms: C_15  and  N_26
    8  A    between atoms: C_16  and  C_36
    9  A    between atoms: C_17  and  C_42
   10  A    between atoms: N_18  and  C_41
   11  A    between atoms: N_18  and  C_47
   12  A    between atoms: C_19  and  N_23
   13  A    between atoms: N_23  and  N_26
   14  A    between atoms: N_37  and  C_47
   15  A    between atoms: N_37  and  C_48
                            x       y       z     vdW  Elec       q    Type
                         _______ _______ _______ _____ _____    ______ ____

>  <TORSDO>
F 15

$$$$
=
 OpenBabel10222419023D

 50 55  0  0  1  0  0  0  0  0999 V2000
  181.8110  181.3540  138.0320 C   0  0  0  0  0  2  0  0  0  0  0  0
  179.5320  183.8090  138.7190 C   0  0  0  0  0  1  0  0  0  0  0  0
  180.8590  178.0100  138.8470 C   0  0  2  0  0  3  0  0  0  0  0  0
  178.9860  181.4080  136.3030 C   0  0  0  0  0  2  0  0  0  0  0  0
  178.9440  182.7900  136.6310 O   0  0  0  0  0  0  0  0  0  0  0  0
  181.9430  179.0750  138.9790 C   0  0  2  0  0  3  0  0  0  0  0  0
  179.6700  180.6680  137.4290 C   0  0  2  0  0  3  0  0  0  0  0  0
  180.5370  181.7140  137.9230 C   0  0  2  0  0  3  0  0  0  0  0  0
  180.0260  183.0440  137.5050 C   0  0  0  0  0  0  0  0  0  0  0  0
  180.6450  179.5850  136.9750 C   0  0  2  0  0  3  0  0  0  0  0  0
  181.0730  183.8770  136.7780 C   0  0  0  0  0  1  0  0  0  0  0  0
  180.1970  178.2320  137.4890 C   0  0  0  0  0  2  0  0  0  0  0  0
  181.9470  179.9060  137.7050 C   0  0  1  0  0  3  0  0  0  0  0  0
  183.3370  177.4270  139.9620 O   0  0  0  0  0  0  0  0  0  0  0  0
  183.2740  178.4490  139.2280 C   0  0  0  0  0  0  0  0  0  0  0  0
  184.4580  179.0050  138.6350 N   0  0  0  0  0  2  0  0  0  0  0  0
  185.7520  178.3910  138.6160 C   0  0  0  0  0  0  0  0  0  0  0  0
  186.1760  177.6070  137.5350 C   0  0  0  0  0  3  0  0  0  0  0  0
  187.4480  177.0140  137.5230 C   0  0  0  0  0  0  0  0  0  0  0  0
  186.6230  178.6040  139.6890 C   0  0  0  0  0  3  0  0  0  0  0  0
  188.3040  177.2330  138.6150 C   0  0  0  0  0  3  0  0  0  0  0  0
  187.8930  178.0250  139.6910 C   0  0  0  0  0  3  0  0  0  0  0  0
  187.5580  174.9000  136.2400 C   0  0  0  0  0  3  0  0  0  0  0  0
  187.8960  176.1910  136.3650 C   0  0  0  0  0  0  0  0  0  0  0  0
  188.7270  176.7930  135.2940 C   0  0  0  0  0  0  0  0  0  0  0  0
  189.9290  176.1580  134.8650 N   0  0  0  0  0  1  0  0  0  0  0  0
  188.3760  177.8690  134.7390 O   0  0  0  0  0  0  0  0  0  0  0  0
  186.7920  174.1990  137.2210 N   0  0  0  0  0  2  0  0  0  0  0  0
  186.0070  173.0950  136.8640 N   0  0  0  0  0  2  0  0  0  0  0  0
  184.7420  173.2230  137.5680 C   0  0  0  0  0  2  0  0  0  0  0  0
  183.8290  172.3020  137.0550 O   0  0  0  0  0  1  0  0  0  0  0  0
  179.8380  178.1230  139.9910 C   0  0  1  0  0  3  0  0  0  0  0  0
  179.6520  176.8040  140.6820 C   0  0  0  0  0  0  0  0  0  0  0  0
  179.7440  174.2900  140.5690 C   0  0  0  0  0  1  0  0  0  0  0  0
  179.2780  176.7610  141.8870 O   0  0  0  0  0  0  0  0  0  0  0  0
  179.9020  175.5980  139.9590 N   0  0  0  0  0  2  0  0  0  0  0  0
  179.3480  179.1390  142.2190 C   0  0  2  0  0  3  0  0  0  0  0  0
  180.2650  179.1790  141.0100 C   0  0  2  0  0  3  0  0  0  0  0  0
  179.1690  180.2150  141.1710 C   0  0  0  0  0  2  0  0  0  0  0  0
  180.0910  179.7090  143.4100 C   0  0  0  0  0  2  0  0  0  0  0  0
  180.9510  178.6900  143.9830 N   0  0  0  0  0  2  0  0  0  0  0  0
  182.2540  178.8510  143.3620 C   0  0  0  0  0  2  0  0  0  0  0  0
  183.1640  179.4780  144.3040 N   0  0  0  0  0  2  0  0  0  0  0  0
  186.2230  177.5010  143.2400 C   0  0  0  0  0  2  0  0  0  0  0  0
  185.1410  179.0480  145.6440 C   0  0  0  0  0  2  0  0  0  0  0  0
  187.3710  177.8250  145.4930 C   0  0  0  0  0  2  0  0  0  0  0  0
  185.9920  177.8950  146.1560 C   0  0  0  0  0  2  0  0  0  0  0  0
  185.0820  178.5080  143.1740 C   0  0  0  0  0  2  0  0  0  0  0  0
  187.3980  178.1140  143.9890 C   0  0  0  0  0  2  0  0  0  0  0  0
  184.2850  178.5710  144.4760 C   0  0  0  0  0  3  0  0  0  0  0  0
  3  6  1  0  0  0  0
  3 32  1  1  0  0  0
  4  5  1  0  0  0  0
  5  9  1  0  0  0  0
  6 15  1  6  0  0  0
  7  4  1  6  0  0  0
  7  8  1  0  0  0  0
  8  1  1  6  0  0  0
  9  8  1  0  0  0  0
  9  2  1  0  0  0  0
 10  7  1  0  0  0  0
 10 12  1  1  0  0  0
 10 13  1  0  0  0  0
 11  9  1  0  0  0  0
 12  3  1  0  0  0  0
 13  1  1  1  0  0  0
 13  6  1  0  0  0  0
 15 14  2  0  0  0  0
 16 15  1  0  0  0  0
 17 16  1  0  0  0  0
 17 20  1  0  0  0  0
 18 17  2  0  0  0  0
 19 18  1  0  0  0  0
 19 21  2  0  0  0  0
 20 22  2  0  0  0  0
 21 22  1  0  0  0  0
 23 24  2  0  0  0  0
 23 28  1  0  0  0  0
 24 19  1  0  0  0  0
 25 24  1  0  0  0  0
 26 25  1  0  0  0  0
 27 25  2  0  0  0  0
 29 28  1  0  0  0  0
 29 30  1  0  0  0  0
 31 30  1  0  0  0  0
 32 33  1  1  0  0  0
 33 35  2  0  0  0  0
 36 34  1  0  0  0  0
 36 33  1  0  0  0  0
 37 40  1  1  0  0  0
 38 32  1  6  0  0  0
 38 39  1  0  0  0  0
 38 37  1  0  0  0  0
 39 37  1  0  0  0  0
 40 41  1  0  0  0  0
 42 41  1  0  0  0  0
 42 43  1  0  0  0  0
 43 50  1  0  0  0  0
 44 49  1  0  0  0  0
 45 47  1  0  0  0  0
 46 47  1  0  0  0  0
 48 44  1  0  0  0  0
 48 50  1  0  0  0  0
 49 46  1  0  0  0  0
 50 45  1  0  0  0  0
M  END
>  <MODEL>
8

>  <REMARK>
 VINA RESULT:      -6.5      3.240      7.949
  Name = 
  15 active torsions:
  status: ('A' for Active; 'I' for Inactive)
    1  A    between atoms: C_1  and  N_45
    2  A    between atoms: C_3  and  C_41
    3  A    between atoms: C_6  and  C_36
    4  A    between atoms: C_7  and  C_39
    5  A    between atoms: C_11  and  C_36
    6  A    between atoms: C_12  and  C_39
    7  A    between atoms: C_15  and  N_26
    8  A    between atoms: C_16  and  C_36
    9  A    between atoms: C_17  and  C_42
   10  A    between atoms: N_18  and  C_41
   11  A    between atoms: N_18  and  C_47
   12  A    between atoms: C_19  and  N_23
   13  A    between atoms: N_23  and  N_26
   14  A    between atoms: N_37  and  C_47
   15  A    between atoms: N_37  and  C_48
                            x       y       z     vdW  Elec       q    Type
                         _______ _______ _______ _____ _____    ______ ____

>  <TORSDO>
F 15

$$$$
=
 OpenBabel10222419023D

 50 55  0  0  1  0  0  0  0  0999 V2000
  181.8560  179.7860  137.8000 C   0  0  0  0  0  2  0  0  0  0  0  0
  178.9910  181.1370  139.0890 C   0  0  0  0  0  1  0  0  0  0  0  0
  181.6300  176.4530  136.5400 C   0  0  2  0  0  3  0  0  0  0  0  0
  179.3400  180.4060  135.7350 C   0  0  0  0  0  2  0  0  0  0  0  0
  178.9310  181.3630  136.7040 O   0  0  0  0  0  0  0  0  0  0  0  0
  182.4050  177.4020  137.4480 C   0  0  2  0  0  3  0  0  0  0  0  0
  180.0330  179.2680  136.4490 C   0  0  2  0  0  3  0  0  0  0  0  0
  180.5570  179.9750  137.5950 C   0  0  2  0  0  3  0  0  0  0  0  0
  179.8020  181.2360  137.8110 C   0  0  0  0  0  0  0  0  0  0  0  0
  181.2860  178.7510  135.7480 C   0  0  2  0  0  3  0  0  0  0  0  0
  180.7050  182.4610  137.8800 C   0  0  0  0  0  1  0  0  0  0  0  0
  181.1110  177.2930  135.3760 C   0  0  0  0  0  2  0  0  0  0  0  0
  182.3710  178.7880  136.8210 C   0  0  1  0  0  3  0  0  0  0  0  0
  184.0020  175.7010  137.8740 O   0  0  0  0  0  0  0  0  0  0  0  0
  183.8040  176.9240  137.6460 C   0  0  0  0  0  0  0  0  0  0  0  0
  184.9010  177.8480  137.5730 N   0  0  0  0  0  2  0  0  0  0  0  0
  186.2890  177.4950  137.5310 C   0  0  0  0  0  0  0  0  0  0  0  0
  187.1090  177.6060  138.6620 C   0  0  0  0  0  3  0  0  0  0  0  0
  188.4660  177.2520  138.6140 C   0  0  0  0  0  0  0  0  0  0  0  0
  186.8310  177.0010  136.3410 C   0  0  0  0  0  3  0  0  0  0  0  0
  188.9920  176.7670  137.4060 C   0  0  0  0  0  3  0  0  0  0  0  0
  188.1790  176.6400  136.2760 C   0  0  0  0  0  3  0  0  0  0  0  0
  190.6490  177.1380  139.7750 C   0  0  0  0  0  3  0  0  0  0  0  0
  189.3280  177.3620  139.8230 C   0  0  0  0  0  0  0  0  0  0  0  0
  188.7410  177.7470  141.1300 C   0  0  0  0  0  0  0  0  0  0  0  0
  188.6150  176.7890  142.1780 N   0  0  0  0  0  1  0  0  0  0  0  0
  188.3560  178.9290  141.3360 O   0  0  0  0  0  0  0  0  0  0  0  0
  191.3250  176.7280  138.5850 N   0  0  0  0  0  2  0  0  0  0  0  0
  192.7200  176.8110  138.4880 N   0  0  0  0  0  2  0  0  0  0  0  0
  193.1800  175.5810  137.8670 C   0  0  0  0  0  2  0  0  0  0  0  0
  194.5220  175.3730  138.1840 O   0  0  0  0  0  1  0  0  0  0  0  0
  180.4750  175.7840  137.3050 C   0  0  1  0  0  3  0  0  0  0  0  0
  180.6370  174.2920  137.3320 C   0  0  0  0  0  0  0  0  0  0  0  0
  179.6460  172.0160  136.9080 C   0  0  0  0  0  1  0  0  0  0  0  0
  181.7190  173.7750  137.7270 O   0  0  0  0  0  0  0  0  0  0  0  0
  179.5530  173.4660  136.9090 N   0  0  0  0  0  2  0  0  0  0  0  0
  179.2100  175.6680  139.4540 C   0  0  2  0  0  3  0  0  0  0  0  0
  180.3790  176.3150  138.7350 C   0  0  2  0  0  3  0  0  0  0  0  0
  179.0810  177.0760  138.9170 C   0  0  0  0  0  2  0  0  0  0  0  0
  179.4710  175.7160  140.9460 C   0  0  0  0  0  2  0  0  0  0  0  0
  178.9310  176.9450  141.4980 N   0  0  0  0  0  2  0  0  0  0  0  0
  180.0010  177.5650  142.2580 C   0  0  0  0  0  2  0  0  0  0  0  0
  180.2500  178.8990  141.7420 N   0  0  0  0  0  2  0  0  0  0  0  0
  183.4020  179.4240  143.7870 C   0  0  0  0  0  2  0  0  0  0  0  0
  182.5000  178.2340  141.1200 C   0  0  0  0  0  2  0  0  0  0  0  0
  184.8830  178.3470  142.0140 C   0  0  0  0  0  2  0  0  0  0  0  0
  183.8950  178.8150  140.9420 C   0  0  0  0  0  2  0  0  0  0  0  0
  181.9640  179.0460  143.4550 C   0  0  0  0  0  2  0  0  0  0  0  0
  184.3250  178.2640  143.4380 C   0  0  0  0  0  2  0  0  0  0  0  0
  181.6560  179.1830  141.9660 C   0  0  0  0  0  3  0  0  0  0  0  0
  3 32  1  1  0  0  0
  3  6  1  0  0  0  0
  4  5  1  0  0  0  0
  5  9  1  0  0  0  0
  6 15  1  6  0  0  0
  7  4  1  6  0  0  0
  7  8  1  0  0  0  0
  8  1  1  6  0  0  0
  8  9  1  0  0  0  0
  9 11  1  0  0  0  0
  9  2  1  0  0  0  0
 10 12  1  1  0  0  0
 10  7  1  0  0  0  0
 10 13  1  0  0  0  0
 12  3  1  0  0  0  0
 13  6  1  0  0  0  0
 13  1  1  1  0  0  0
 15 14  2  0  0  0  0
 16 15  1  0  0  0  0
 17 16  1  0  0  0  0
 17 18  1  0  0  0  0
 19 18  2  0  0  0  0
 19 24  1  0  0  0  0
 20 17  2  0  0  0  0
 21 19  1  0  0  0  0
 22 20  1  0  0  0  0
 22 21  2  0  0  0  0
 23 24  2  0  0  0  0
 24 25  1  0  0  0  0
 25 27  2  0  0  0  0
 25 26  1  0  0  0  0
 28 23  1  0  0  0  0
 29 28  1  0  0  0  0
 30 31  1  0  0  0  0
 30 29  1  0  0  0  0
 32 33  1  1  0  0  0
 33 35  2  0  0  0  0
 34 36  1  0  0  0  0
 36 33  1  0  0  0  0
 37 40  1  1  0  0  0
 38 32  1  6  0  0  0
 38 39  1  0  0  0  0
 38 37  1  0  0  0  0
 39 37  1  0  0  0  0
 40 41  1  0  0  0  0
 41 42  1  0  0  0  0
 43 50  1  0  0  0  0
 43 42  1  0  0  0  0
 45 50  1  0  0  0  0
 46 49  1  0  0  0  0
 47 45  1  0  0  0  0
 47 46  1  0  0  0  0
 48 44  1  0  0  0  0
 49 44  1  0  0  0  0
 50 48  1  0  0  0  0
M  END
>  <MODEL>
9

>  <REMARK>
 VINA RESULT:      -6.5      2.865      7.186
  Name = 
  15 active torsions:
  status: ('A' for Active; 'I' for Inactive)
    1  A    between atoms: C_1  and  N_45
    2  A    between atoms: C_3  and  C_41
    3  A    between atoms: C_6  and  C_36
    4  A    between atoms: C_7  and  C_39
    5  A    between atoms: C_11  and  C_36
    6  A    between atoms: C_12  and  C_39
    7  A    between atoms: C_15  and  N_26
    8  A    between atoms: C_16  and  C_36
    9  A    between atoms: C_17  and  C_42
   10  A    between atoms: N_18  and  C_41
   11  A    between atoms: N_18  and  C_47
   12  A    between atoms: C_19  and  N_23
   13  A    between atoms: N_23  and  N_26
   14  A    between atoms: N_37  and  C_47
   15  A    between atoms: N_37  and  C_48
                            x       y       z     vdW  Elec       q    Type
                         _______ _______ _______ _____ _____    ______ ____

>  <TORSDO>
F 15

$$$$
