=
 OpenBabel10222417053D

 55 60  0  0  1  0  0  0  0  0999 V2000
  190.2870  176.0630  142.5240 N   0  0  0  0  0  2  0  0  0  0  0  0
  189.9690  177.8490  139.9620 C   0  0  2  0  0  3  0  0  0  0  0  0
  190.3330  177.4180  141.9870 C   0  0  1  0  0  3  0  0  0  0  0  0
  191.5750  177.5130  140.6940 S   0  0  0  0  0  0  0  0  0  0  0  0
  187.8940  177.8010  141.4160 O   0  0  0  0  0  0  0  0  0  0  0  0
  189.0850  177.7030  141.1820 C   0  0  0  0  0  0  0  0  0  0  0  0
  188.3330  176.0200  136.9760 C   0  0  0  0  0  0  0  0  0  0  0  0
  187.3590  178.0970  136.4590 C   0  0  0  0  0  2  0  0  0  0  0  0
  188.7480  177.0330  137.9040 C   0  0  0  0  0  0  0  0  0  0  0  0
  185.9960  176.0330  136.1750 C   0  0  0  0  0  1  0  0  0  0  0  0
  188.7650  174.7950  136.9870 N   0  0  0  0  0  0  0  0  0  0  0  0
  188.2260  178.1800  137.6370 N   0  0  0  0  0  0  0  0  0  0  0  0
  189.6520  176.8120  138.9910 N   0  0  0  0  0  2  0  0  0  0  0  0
  187.3840  176.6290  136.0010 C   0  0  2  0  0  3  0  0  0  0  0  0
  188.3750  173.7880  136.0100 C   0  0  0  0  0  2  0  0  0  0  0  0
  189.5860  173.3350  135.2110 C   0  0  0  0  0  2  0  0  0  0  0  0
  191.4350  173.2380  136.6540 O   0  0  0  0  0  0  0  0  0  0  0  0
  190.8850  173.8590  135.7590 C   0  0  0  0  0  0  0  0  0  0  0  0
  191.6790  175.3440  135.1240 S   0  0  0  0  0  0  0  0  0  0  0  0
  194.0360  176.2840  135.9380 C   0  0  2  0  0  3  0  0  0  0  0  0
  192.8820  176.1630  137.5830 C   0  0  0  0  0  2  0  0  0  0  0  0
  192.9900  175.2720  136.3780 C   0  0  1  0  0  0  0  0  0  0  0  0
  194.3810  174.8040  135.9820 C   0  0  2  0  0  3  0  0  0  0  0  0
  193.9600  176.9590  137.1730 O   0  0  0  0  0  0  0  0  0  0  0  0
  195.2410  174.4350  137.1930 C   0  0  0  0  0  2  0  0  0  0  0  0
  197.1880  172.9670  137.1310 C   0  0  0  0  0  2  0  0  0  0  0  0
  196.6750  174.1520  136.8220 C   0  0  0  0  0  0  0  0  0  0  0  0
  197.5430  175.1490  136.1100 C   0  0  0  0  0  1  0  0  0  0  0  0
  190.3090  176.7880  144.8900 C   0  0  0  0  0  0  0  0  0  0  0  0
  189.6800  176.1330  143.7860 N   0  0  0  0  0  2  0  0  0  0  0  0
  191.4500  177.3070  144.7610 O   0  0  0  0  0  0  0  0  0  0  0  0
  189.4640  176.8850  146.4660 S   0  0  0  0  0  0  0  0  0  0  0  0
  188.3200  178.1770  145.8950 C   0  0  0  0  0  2  0  0  0  0  0  0
  186.8900  177.4110  145.0760 S   0  0  0  0  0  0  0  0  0  0  0  0
  185.7390  178.5730  145.8050 C   0  0  0  0  0  0  0  0  0  0  0  0
  186.0860  179.2200  146.8680 N   0  0  0  0  0  2  0  0  0  0  0  0
  184.3000  178.7050  143.7550 N   0  0  0  0  0  2  0  0  0  0  0  0
  184.4370  178.8290  145.1750 C   0  0  0  0  0  0  0  0  0  0  0  0
  183.4450  179.1470  145.8860 O   0  0  0  0  0  0  0  0  0  0  0  0
  181.8960  178.7450  140.8430 C   0  0  1  0  0  3  0  0  0  0  0  0
  179.3570  178.2990  143.6420 O   0  0  0  0  0  1  0  0  0  0  0  0
  180.6900  178.2550  141.3800 O   0  0  0  0  0  0  0  0  0  0  0  0
  180.5590  178.9020  142.9470 P   0  0  2  0  0  0  0  0  0  0  0  0
  181.9660  178.4700  143.7960 O   0  0  0  0  0  0  0  0  0  0  0  0
  183.1080  178.2680  141.6470 C   0  0  0  0  0  2  0  0  0  0  0  0
  183.0540  178.9280  143.0300 C   0  0  2  0  0  3  0  0  0  0  0  0
  180.3990  180.5870  142.8800 O   0  0  0  0  0  0  0  0  0  0  0  0
  182.0180  178.3140  139.5200 O   0  0  0  0  0  0  0  0  0  0  0  0
  182.9370  176.3970  138.3510 C   0  0  1  0  0  3  0  0  0  0  0  0
  183.8770  177.4370  138.5210 O   0  0  0  0  0  0  0  0  0  0  0  0
  182.9520  177.2710  139.5680 C   0  0  1  0  0  3  0  0  0  0  0  0
  181.8790  176.7300  137.2710 C   0  0  1  0  0  3  0  0  0  0  0  0
  182.4500  176.7280  136.0000 O   0  0  0  0  0  1  0  0  0  0  0  0
  180.6180  175.8720  137.2890 C   0  0  0  0  0  2  0  0  0  0  0  0
  180.9600  174.5270  137.4190 O   0  0  0  0  0  1  0  0  0  0  0  0
  1 30  1  0  0  0  0
  2 13  1  6  0  0  0
  2  4  1  0  0  0  0
  2  6  1  0  0  0  0
  3  1  1  6  0  0  0
  4  3  1  0  0  0  0
  6  5  2  0  0  0  0
  6  3  1  0  0  0  0
  7 11  2  0  0  0  0
  7  9  1  0  0  0  0
  8 12  1  0  0  0  0
  9 13  1  0  0  0  0
 12  9  2  0  0  0  0
 14 10  1  1  0  0  0
 14  8  1  0  0  0  0
 14  7  1  0  0  0  0
 15 11  1  0  0  0  0
 16 18  1  0  0  0  0
 16 15  1  0  0  0  0
 18 17  2  0  0  0  0
 19 18  1  0  0  0  0
 20 23  1  0  0  0  0
 20 22  1  0  0  0  0
 20 24  1  1  0  0  0
 22 19  1  6  0  0  0
 22 21  1  0  0  0  0
 23 22  1  0  0  0  0
 23 25  1  1  0  0  0
 24 21  1  0  0  0  0
 27 26  2  0  0  0  0
 27 25  1  0  0  0  0
 28 27  1  0  0  0  0
 29 32  1  0  0  0  0
 30 29  1  0  0  0  0
 31 29  2  0  0  0  0
 33 32  1  0  0  0  0
 34 35  1  0  0  0  0
 34 33  1  0  0  0  0
 35 36  2  0  0  0  0
 37 38  1  0  0  0  0
 38 35  1  0  0  0  0
 38 39  2  0  0  0  0
 40 48  1  6  0  0  0
 40 42  1  0  0  0  0
 40 45  1  0  0  0  0
 42 43  1  0  0  0  0
 43 47  2  6  0  0  0
 43 41  1  0  0  0  0
 43 44  1  0  0  0  0
 45 46  1  0  0  0  0
 46 37  1  1  0  0  0
 46 44  1  0  0  0  0
 49 52  1  6  0  0  0
 49 50  1  0  0  0  0
 49 51  1  0  0  0  0
 50 51  1  0  0  0  0
 51 48  1  6  0  0  0
 52 53  1  6  0  0  0
 52 54  1  0  0  0  0
 54 55  1  0  0  0  0
M  END
>  <MODEL>
1

>  <REMARK>
 VINA RESULT:      -6.9      0.000      0.000
  Name = 
  20 active torsions:
  status: ('A' for Active; 'I' for Inactive)
    1  A    between atoms: C_1  and  C_18
    2  A    between atoms: C_2  and  N_44
    3  A    between atoms: C_3  and  O_22
    4  A    between atoms: C_5  and  N_24
    5  A    between atoms: C_6  and  C_18
    6  A    between atoms: S_8  and  C_16
    7  A    between atoms: S_8  and  C_23
    8  A    between atoms: N_10  and  C_35
    9  A    between atoms: C_16  and  C_31
   10  A    between atoms: O_22  and  C_49
   11  A    between atoms: C_23  and  S_34
   12  A    between atoms: N_24  and  N_29
   13  A    between atoms: C_25  and  S_34
   14  A    between atoms: C_27  and  C_28
   15  A    between atoms: C_27  and  C_40
   16  A    between atoms: C_28  and  N_42
   17  A    between atoms: C_32  and  S_47
   18  A    between atoms: C_36  and  C_55
   19  A    between atoms: C_38  and  C_55
   20  A    between atoms: C_40  and  S_47
                            x       y       z     vdW  Elec       q    Type
                         _______ _______ _______ _____ _____    ______ ____

>  <TORSDO>
F 20

$$$$
=
 OpenBabel10222417053D

 55 60  0  0  1  0  0  0  0  0999 V2000
  185.5480  177.5140  144.4140 N   0  0  0  0  0  2  0  0  0  0  0  0
  184.0590  179.1930  142.2180 C   0  0  2  0  0  3  0  0  0  0  0  0
  185.1560  178.8490  143.9780 C   0  0  1  0  0  3  0  0  0  0  0  0
  185.8510  179.1830  142.3550 S   0  0  0  0  0  0  0  0  0  0  0  0
  182.6410  178.7420  144.2690 O   0  0  0  0  0  0  0  0  0  0  0  0
  183.6800  178.8800  143.6490 C   0  0  0  0  0  0  0  0  0  0  0  0
  181.9130  177.0940  139.7820 C   0  0  0  0  0  0  0  0  0  0  0  0
  180.5080  178.9760  139.6710 C   0  0  0  0  0  2  0  0  0  0  0  0
  182.4210  178.1690  140.5870 C   0  0  0  0  0  0  0  0  0  0  0  0
  179.4730  176.7120  139.7190 C   0  0  0  0  0  1  0  0  0  0  0  0
  182.5190  175.9580  139.6120 N   0  0  0  0  0  0  0  0  0  0  0  0
  181.6650  179.2120  140.5380 N   0  0  0  0  0  0  0  0  0  0  0  0
  183.6340  178.1100  141.3430 N   0  0  0  0  0  2  0  0  0  0  0  0
  180.6280  177.5290  139.1630 C   0  0  2  0  0  3  0  0  0  0  0  0
  182.0190  174.8930  138.7540 C   0  0  0  0  0  2  0  0  0  0  0  0
  182.8650  174.7910  137.4950 C   0  0  0  0  0  2  0  0  0  0  0  0
  181.3230  175.2940  135.7980 O   0  0  0  0  0  0  0  0  0  0  0  0
  182.3480  175.6380  136.3650 C   0  0  0  0  0  0  0  0  0  0  0  0
  183.1590  177.1560  135.8390 S   0  0  0  0  0  0  0  0  0  0  0  0
  185.8120  177.3870  135.7410 C   0  0  2  0  0  3  0  0  0  0  0  0
  185.3190  177.4050  137.6930 C   0  0  0  0  0  2  0  0  0  0  0  0
  184.7530  176.6360  136.5330 C   0  0  1  0  0  0  0  0  0  0  0  0
  185.7360  175.8710  135.6600 C   0  0  2  0  0  3  0  0  0  0  0  0
  186.3570  177.9380  136.9180 O   0  0  0  0  0  0  0  0  0  0  0  0
  186.8310  175.1820  136.4780 C   0  0  0  0  0  2  0  0  0  0  0  0
  186.1780  173.0880  137.5440 C   0  0  0  0  0  2  0  0  0  0  0  0
  186.7000  173.6800  136.4760 C   0  0  0  0  0  0  0  0  0  0  0  0
  187.1230  172.8280  135.3160 C   0  0  0  0  0  1  0  0  0  0  0  0
  187.9500  177.3550  144.9860 C   0  0  0  0  0  0  0  0  0  0  0  0
  186.8840  177.3250  144.0340 N   0  0  0  0  0  2  0  0  0  0  0  0
  187.7150  177.5780  146.2040 O   0  0  0  0  0  0  0  0  0  0  0  0
  189.6320  177.0620  144.4480 S   0  0  0  0  0  0  0  0  0  0  0  0
  189.1720  176.9910  142.6910 C   0  0  0  0  0  2  0  0  0  0  0  0
  190.6080  177.4230  141.6640 S   0  0  0  0  0  0  0  0  0  0  0  0
  189.6180  177.5410  140.1760 C   0  0  0  0  0  0  0  0  0  0  0  0
  188.4660  178.1220  140.2310 N   0  0  0  0  0  2  0  0  0  0  0  0
  190.7460  175.7390  138.8440 N   0  0  0  0  0  2  0  0  0  0  0  0
  190.1300  177.0310  138.8980 C   0  0  0  0  0  0  0  0  0  0  0  0
  190.0190  177.7270  137.8510 O   0  0  0  0  0  0  0  0  0  0  0  0
  193.3330  174.5270  136.3750 C   0  0  1  0  0  3  0  0  0  0  0  0
  190.5830  172.0260  135.5570 O   0  0  0  0  0  1  0  0  0  0  0  0
  192.8630  173.2620  135.9700 O   0  0  0  0  0  0  0  0  0  0  0  0
  191.1720  173.3910  135.8450 P   0  0  2  0  0  0  0  0  0  0  0  0
  190.5910  173.9420  137.3440 O   0  0  0  0  0  0  0  0  0  0  0  0
  192.7920  174.9170  137.7530 C   0  0  0  0  0  2  0  0  0  0  0  0
  191.2800  175.1360  137.6290 C   0  0  2  0  0  3  0  0  0  0  0  0
  190.7490  174.4720  134.6110 O   0  0  0  0  0  0  0  0  0  0  0  0
  194.7290  174.5070  136.4120 O   0  0  0  0  0  0  0  0  0  0  0  0
  196.3180  173.4260  137.8920 C   0  0  1  0  0  3  0  0  0  0  0  0
  196.2650  174.8250  138.0740 O   0  0  0  0  0  0  0  0  0  0  0  0
  195.0460  174.2050  137.7430 C   0  0  1  0  0  3  0  0  0  0  0  0
  197.0470  173.0300  136.5850 C   0  0  1  0  0  3  0  0  0  0  0  0
  198.4110  173.3010  136.6750 O   0  0  0  0  0  1  0  0  0  0  0  0
  196.8190  171.6000  136.1050 C   0  0  0  0  0  2  0  0  0  0  0  0
  195.7560  171.5640  135.2050 O   0  0  0  0  0  1  0  0  0  0  0  0
  2 13  1  6  0  0  0
  2  4  1  0  0  0  0
  2  6  1  0  0  0  0
  3  1  1  6  0  0  0
  4  3  1  0  0  0  0
  6  3  1  0  0  0  0
  6  5  2  0  0  0  0
  7  9  1  0  0  0  0
  8 12  1  0  0  0  0
  9 13  1  0  0  0  0
 11  7  2  0  0  0  0
 12  9  2  0  0  0  0
 14  8  1  0  0  0  0
 14 10  1  1  0  0  0
 14  7  1  0  0  0  0
 15 11  1  0  0  0  0
 16 15  1  0  0  0  0
 17 18  2  0  0  0  0
 18 16  1  0  0  0  0
 19 18  1  0  0  0  0
 20 22  1  0  0  0  0
 20 24  1  1  0  0  0
 22 19  1  6  0  0  0
 22 21  1  0  0  0  0
 23 20  1  0  0  0  0
 23 25  1  1  0  0  0
 23 22  1  0  0  0  0
 24 21  1  0  0  0  0
 27 25  1  0  0  0  0
 27 26  2  0  0  0  0
 28 27  1  0  0  0  0
 29 31  2  0  0  0  0
 30  1  1  0  0  0  0
 30 29  1  0  0  0  0
 32 29  1  0  0  0  0
 33 32  1  0  0  0  0
 34 33  1  0  0  0  0
 35 36  2  0  0  0  0
 35 34  1  0  0  0  0
 37 38  1  0  0  0  0
 38 35  1  0  0  0  0
 39 38  2  0  0  0  0
 40 48  1  1  0  0  0
 40 45  1  0  0  0  0
 41 43  1  0  0  0  0
 42 40  1  0  0  0  0
 43 47  2  6  0  0  0
 43 42  1  0  0  0  0
 43 44  1  0  0  0  0
 44 46  1  0  0  0  0
 46 45  1  0  0  0  0
 46 37  1  1  0  0  0
 49 52  1  6  0  0  0
 49 50  1  0  0  0  0
 51 48  1  6  0  0  0
 51 49  1  0  0  0  0
 51 50  1  0  0  0  0
 52 53  1  1  0  0  0
 54 52  1  0  0  0  0
 55 54  1  0  0  0  0
M  END
>  <MODEL>
2

>  <REMARK>
 VINA RESULT:      -6.6      3.209      9.774
  Name = 
  20 active torsions:
  status: ('A' for Active; 'I' for Inactive)
    1  A    between atoms: C_1  and  C_18
    2  A    between atoms: C_2  and  N_44
    3  A    between atoms: C_3  and  O_22
    4  A    between atoms: C_5  and  N_24
    5  A    between atoms: C_6  and  C_18
    6  A    between atoms: S_8  and  C_16
    7  A    between atoms: S_8  and  C_23
    8  A    between atoms: N_10  and  C_35
    9  A    between atoms: C_16  and  C_31
   10  A    between atoms: O_22  and  C_49
   11  A    between atoms: C_23  and  S_34
   12  A    between atoms: N_24  and  N_29
   13  A    between atoms: C_25  and  S_34
   14  A    between atoms: C_27  and  C_28
   15  A    between atoms: C_27  and  C_40
   16  A    between atoms: C_28  and  N_42
   17  A    between atoms: C_32  and  S_47
   18  A    between atoms: C_36  and  C_55
   19  A    between atoms: C_38  and  C_55
   20  A    between atoms: C_40  and  S_47
                            x       y       z     vdW  Elec       q    Type
                         _______ _______ _______ _____ _____    ______ ____

>  <TORSDO>
F 20

$$$$
=
 OpenBabel10222417053D

 55 60  0  0  1  0  0  0  0  0999 V2000
  186.9540  178.9830  137.6660 N   0  0  0  0  0  2  0  0  0  0  0  0
  186.8210  176.2510  136.1250 C   0  0  2  0  0  3  0  0  0  0  0  0
  187.6720  178.0470  136.8090 C   0  0  1  0  0  3  0  0  0  0  0  0
  187.7920  176.4510  137.6240 S   0  0  0  0  0  0  0  0  0  0  0  0
  186.3640  178.2590  134.6480 O   0  0  0  0  0  0  0  0  0  0  0  0
  186.8230  177.6750  135.6140 C   0  0  0  0  0  0  0  0  0  0  0  0
  183.7510  174.0270  136.8800 C   0  0  0  0  0  0  0  0  0  0  0  0
  185.2510  172.2190  136.7760 C   0  0  0  0  0  2  0  0  0  0  0  0
  185.0900  174.4770  136.6260 C   0  0  0  0  0  0  0  0  0  0  0  0
  182.9770  171.9440  135.8000 C   0  0  0  0  0  1  0  0  0  0  0  0
  182.7320  174.8150  137.0470 N   0  0  0  0  0  0  0  0  0  0  0  0
  185.9290  173.5010  136.5660 N   0  0  0  0  0  0  0  0  0  0  0  0
  185.4660  175.8500  136.4750 N   0  0  0  0  0  2  0  0  0  0  0  0
  183.7580  172.5380  136.9610 C   0  0  2  0  0  3  0  0  0  0  0  0
  181.3880  174.3490  137.3540 C   0  0  0  0  0  2  0  0  0  0  0  0
  180.4660  174.5870  136.1680 C   0  0  0  0  0  2  0  0  0  0  0  0
  179.1040  176.2850  135.2900 O   0  0  0  0  0  0  0  0  0  0  0  0
  179.6740  175.8600  136.2820 C   0  0  0  0  0  0  0  0  0  0  0  0
  179.5050  176.7630  137.8290 S   0  0  0  0  0  0  0  0  0  0  0  0
  180.6520  179.1300  138.2600 C   0  0  2  0  0  3  0  0  0  0  0  0
  181.5830  178.3390  136.6600 C   0  0  0  0  0  2  0  0  0  0  0  0
  180.1450  178.2950  137.0950 C   0  0  1  0  0  0  0  0  0  0  0  0
  179.4780  179.6210  137.4270 C   0  0  2  0  0  3  0  0  0  0  0  0
  181.9330  179.2310  137.6820 O   0  0  0  0  0  0  0  0  0  0  0  0
  179.8720  180.7340  136.4530 C   0  0  0  0  0  2  0  0  0  0  0  0
  180.6990  183.0270  136.5240 C   0  0  0  0  0  2  0  0  0  0  0  0
  179.9910  182.0780  137.1250 C   0  0  0  0  0  0  0  0  0  0  0  0
  179.3350  182.3920  138.4370 C   0  0  0  0  0  1  0  0  0  0  0  0
  185.0370  178.7950  139.2210 C   0  0  0  0  0  0  0  0  0  0  0  0
  186.1570  178.2260  138.5360 N   0  0  0  0  0  2  0  0  0  0  0  0
  184.7480  180.0120  139.0730 O   0  0  0  0  0  0  0  0  0  0  0  0
  184.0300  177.7680  140.2850 S   0  0  0  0  0  0  0  0  0  0  0  0
  183.4120  179.1820  141.2470 C   0  0  0  0  0  2  0  0  0  0  0  0
  182.0990  178.6280  142.3740 S   0  0  0  0  0  0  0  0  0  0  0  0
  183.1410  178.8170  143.8190 C   0  0  0  0  0  0  0  0  0  0  0  0
  182.6080  178.7390  144.9930 N   0  0  0  0  0  2  0  0  0  0  0  0
  185.4500  177.8640  143.5850 N   0  0  0  0  0  2  0  0  0  0  0  0
  184.5900  179.0060  143.6750 C   0  0  0  0  0  0  0  0  0  0  0  0
  185.0710  180.1710  143.6220 O   0  0  0  0  0  0  0  0  0  0  0  0
  189.0680  178.2290  144.6000 C   0  0  1  0  0  3  0  0  0  0  0  0
  189.5770  176.0060  141.5530 O   0  0  0  0  0  1  0  0  0  0  0  0
  189.7370  177.2250  143.8740 O   0  0  0  0  0  0  0  0  0  0  0  0
  189.0060  177.1670  142.3390 P   0  0  2  0  0  0  0  0  0  0  0  0
  187.3430  176.9140  142.5770 O   0  0  0  0  0  0  0  0  0  0  0  0
  187.5890  177.8920  144.8000 C   0  0  0  0  0  2  0  0  0  0  0  0
  186.8980  177.9380  143.4320 C   0  0  2  0  0  3  0  0  0  0  0  0
  189.2730  178.6150  141.5020 O   0  0  0  0  0  0  0  0  0  0  0  0
  189.6820  178.3820  145.8450 O   0  0  0  0  0  0  0  0  0  0  0  0
  189.9020  176.5800  147.4530 C   0  0  1  0  0  3  0  0  0  0  0  0
  189.3760  177.7600  148.0220 O   0  0  0  0  0  0  0  0  0  0  0  0
  188.9980  177.5010  146.6910 C   0  0  1  0  0  3  0  0  0  0  0  0
  191.4170  176.6940  147.1580 C   0  0  1  0  0  3  0  0  0  0  0  0
  192.1160  177.0960  148.2950 O   0  0  0  0  0  1  0  0  0  0  0  0
  192.0690  175.4590  146.5430 C   0  0  0  0  0  2  0  0  0  0  0  0
  192.1070  175.5830  145.1550 O   0  0  0  0  0  1  0  0  0  0  0  0
  1 30  1  0  0  0  0
  2 13  1  1  0  0  0
  2  4  1  0  0  0  0
  3  4  1  0  0  0  0
  3  1  1  1  0  0  0
  5  6  2  0  0  0  0
  6  2  1  0  0  0  0
  6  3  1  0  0  0  0
  7 14  1  0  0  0  0
  7 11  2  0  0  0  0
  8 14  1  0  0  0  0
  9  7  1  0  0  0  0
 11 15  1  0  0  0  0
 12  9  2  0  0  0  0
 12  8  1  0  0  0  0
 13  9  1  0  0  0  0
 14 10  1  6  0  0  0
 16 18  1  0  0  0  0
 16 15  1  0  0  0  0
 17 18  2  0  0  0  0
 18 19  1  0  0  0  0
 20 24  1  6  0  0  0
 21 22  1  0  0  0  0
 21 24  1  0  0  0  0
 22 23  1  0  0  0  0
 22 19  1  1  0  0  0
 22 20  1  0  0  0  0
 23 25  1  6  0  0  0
 23 20  1  0  0  0  0
 25 27  1  0  0  0  0
 26 27  2  0  0  0  0
 27 28  1  0  0  0  0
 29 32  1  0  0  0  0
 30 29  1  0  0  0  0
 31 29  2  0  0  0  0
 32 33  1  0  0  0  0
 33 34  1  0  0  0  0
 34 35  1  0  0  0  0
 35 36  2  0  0  0  0
 37 38  1  0  0  0  0
 38 35  1  0  0  0  0
 39 38  2  0  0  0  0
 40 45  1  0  0  0  0
 40 48  1  1  0  0  0
 41 43  1  0  0  0  0
 42 40  1  0  0  0  0
 43 47  2  6  0  0  0
 43 44  1  0  0  0  0
 43 42  1  0  0  0  0
 44 46  1  0  0  0  0
 46 37  1  1  0  0  0
 46 45  1  0  0  0  0
 49 52  1  6  0  0  0
 49 50  1  0  0  0  0
 51 48  1  6  0  0  0
 51 49  1  0  0  0  0
 51 50  1  0  0  0  0
 52 53  1  1  0  0  0
 54 52  1  0  0  0  0
 55 54  1  0  0  0  0
M  END
>  <MODEL>
3

>  <REMARK>
 VINA RESULT:      -6.5      4.679      9.975
  Name = 
  20 active torsions:
  status: ('A' for Active; 'I' for Inactive)
    1  A    between atoms: C_1  and  C_18
    2  A    between atoms: C_2  and  N_44
    3  A    between atoms: C_3  and  O_22
    4  A    between atoms: C_5  and  N_24
    5  A    between atoms: C_6  and  C_18
    6  A    between atoms: S_8  and  C_16
    7  A    between atoms: S_8  and  C_23
    8  A    between atoms: N_10  and  C_35
    9  A    between atoms: C_16  and  C_31
   10  A    between atoms: O_22  and  C_49
   11  A    between atoms: C_23  and  S_34
   12  A    between atoms: N_24  and  N_29
   13  A    between atoms: C_25  and  S_34
   14  A    between atoms: C_27  and  C_28
   15  A    between atoms: C_27  and  C_40
   16  A    between atoms: C_28  and  N_42
   17  A    between atoms: C_32  and  S_47
   18  A    between atoms: C_36  and  C_55
   19  A    between atoms: C_38  and  C_55
   20  A    between atoms: C_40  and  S_47
                            x       y       z     vdW  Elec       q    Type
                         _______ _______ _______ _____ _____    ______ ____

>  <TORSDO>
F 20

$$$$
=
 OpenBabel10222417053D

 55 60  0  0  1  0  0  0  0  0999 V2000
  183.1560  175.4310  136.6230 N   0  0  0  0  0  2  0  0  0  0  0  0
  180.7980  176.9240  135.1860 C   0  0  2  0  0  3  0  0  0  0  0  0
  182.3990  175.5770  135.3860 C   0  0  1  0  0  3  0  0  0  0  0  0
  180.6690  175.2040  135.6890 S   0  0  0  0  0  0  0  0  0  0  0  0
  183.0740  177.9130  134.6700 O   0  0  0  0  0  0  0  0  0  0  0  0
  182.2960  177.0370  135.0050 C   0  0  0  0  0  0  0  0  0  0  0  0
  179.6900  180.0700  137.1400 C   0  0  0  0  0  0  0  0  0  0  0  0
  179.6140  181.1340  135.0450 C   0  0  0  0  0  2  0  0  0  0  0  0
  180.0350  179.1610  136.0840 C   0  0  0  0  0  0  0  0  0  0  0  0
  180.4860  182.4050  137.0010 C   0  0  0  0  0  1  0  0  0  0  0  0
  179.5920  179.7350  138.3920 N   0  0  0  0  0  0  0  0  0  0  0  0
  179.9980  179.7260  134.9260 N   0  0  0  0  0  0  0  0  0  0  0  0
  180.3630  177.7820  136.2790 N   0  0  0  0  0  2  0  0  0  0  0  0
  179.4280  181.4120  136.5460 C   0  0  2  0  0  3  0  0  0  0  0  0
  179.1930  180.6540  139.4480 C   0  0  0  0  0  2  0  0  0  0  0  0
  179.8530  180.2630  140.7610 C   0  0  0  0  0  2  0  0  0  0  0  0
  179.2960  178.2740  141.8760 O   0  0  0  0  0  0  0  0  0  0  0  0
  179.9320  178.7750  140.9630 C   0  0  0  0  0  0  0  0  0  0  0  0
  180.8960  177.6990  139.8900 S   0  0  0  0  0  0  0  0  0  0  0  0
  183.5500  177.4980  140.0120 C   0  0  2  0  0  3  0  0  0  0  0  0
  183.1590  179.3640  139.3660 C   0  0  0  0  0  2  0  0  0  0  0  0
  182.4570  178.4920  140.3690 C   0  0  1  0  0  0  0  0  0  0  0  0
  183.3070  177.8710  141.4660 C   0  0  2  0  0  3  0  0  0  0  0  0
  184.2090  178.4500  139.2100 O   0  0  0  0  0  0  0  0  0  0  0  0
  184.3600  178.8400  142.0090 C   0  0  0  0  0  2  0  0  0  0  0  0
  184.9300  180.0960  144.0210 C   0  0  0  0  0  2  0  0  0  0  0  0
  184.0740  179.2740  143.4250 C   0  0  0  0  0  0  0  0  0  0  0  0
  182.8590  178.8260  144.1830 C   0  0  0  0  0  1  0  0  0  0  0  0
  185.4710  174.5560  136.6010 C   0  0  0  0  0  0  0  0  0  0  0  0
  184.5130  175.5750  136.3030 N   0  0  0  0  0  2  0  0  0  0  0  0
  185.1180  173.4980  137.1860 O   0  0  0  0  0  0  0  0  0  0  0  0
  187.1830  174.7780  136.1270 S   0  0  0  0  0  0  0  0  0  0  0  0
  187.5590  175.8230  137.5670 C   0  0  0  0  0  2  0  0  0  0  0  0
  188.2900  177.3910  137.0100 S   0  0  0  0  0  0  0  0  0  0  0  0
  189.9420  176.8910  137.4920 C   0  0  0  0  0  0  0  0  0  0  0  0
  190.7540  176.4500  136.5900 N   0  0  0  0  0  2  0  0  0  0  0  0
  189.4160  177.1120  139.9350 N   0  0  0  0  0  2  0  0  0  0  0  0
  190.3860  177.0290  138.8850 C   0  0  0  0  0  0  0  0  0  0  0  0
  191.6190  177.0660  139.1520 O   0  0  0  0  0  0  0  0  0  0  0  0
  188.8970  177.8180  143.6080 C   0  0  1  0  0  3  0  0  0  0  0  0
  191.6430  175.2050  143.9360 O   0  0  0  0  0  1  0  0  0  0  0  0
  189.5510  176.7560  144.2630 O   0  0  0  0  0  0  0  0  0  0  0  0
  190.9640  176.4350  143.3740 P   0  0  2  0  0  0  0  0  0  0  0  0
  190.4990  176.1300  141.7690 O   0  0  0  0  0  0  0  0  0  0  0  0
  188.4780  177.4340  142.1870 C   0  0  0  0  0  2  0  0  0  0  0  0
  189.7480  177.2420  141.3490 C   0  0  2  0  0  3  0  0  0  0  0  0
  192.0210  177.7580  143.4450 O   0  0  0  0  0  0  0  0  0  0  0  0
  187.7670  178.1850  144.3420 O   0  0  0  0  0  0  0  0  0  0  0  0
  186.8420  177.0790  146.2920 C   0  0  1  0  0  3  0  0  0  0  0  0
  185.9240  177.1600  145.2220 O   0  0  0  0  0  0  0  0  0  0  0  0
  187.2720  176.9810  144.8600 C   0  0  1  0  0  3  0  0  0  0  0  0
  187.0550  178.4440  146.9900 C   0  0  1  0  0  3  0  0  0  0  0  0
  185.8350  179.0670  147.2470 O   0  0  0  0  0  1  0  0  0  0  0  0
  187.9150  178.4190  148.2490 C   0  0  0  0  0  2  0  0  0  0  0  0
  188.8930  177.4320  148.1380 O   0  0  0  0  0  1  0  0  0  0  0  0
  2  4  1  0  0  0  0
  2 13  1  1  0  0  0
  3  4  1  0  0  0  0
  3  1  1  1  0  0  0
  5  6  2  0  0  0  0
  6  2  1  0  0  0  0
  6  3  1  0  0  0  0
  7 11  2  0  0  0  0
  8 14  1  0  0  0  0
  9 13  1  0  0  0  0
  9  7  1  0  0  0  0
 11 15  1  0  0  0  0
 12  8  1  0  0  0  0
 12  9  2  0  0  0  0
 14 10  1  1  0  0  0
 14  7  1  0  0  0  0
 15 16  1  0  0  0  0
 16 18  1  0  0  0  0
 18 17  2  0  0  0  0
 19 18  1  0  0  0  0
 20 24  1  6  0  0  0
 20 22  1  0  0  0  0
 20 23  1  0  0  0  0
 21 22  1  0  0  0  0
 22 19  1  6  0  0  0
 22 23  1  0  0  0  0
 23 25  1  6  0  0  0
 24 21  1  0  0  0  0
 25 27  1  0  0  0  0
 27 26  2  0  0  0  0
 27 28  1  0  0  0  0
 29 31  2  0  0  0  0
 30 29  1  0  0  0  0
 30  1  1  0  0  0  0
 32 29  1  0  0  0  0
 32 33  1  0  0  0  0
 34 35  1  0  0  0  0
 34 33  1  0  0  0  0
 35 38  1  0  0  0  0
 36 35  2  0  0  0  0
 38 39  2  0  0  0  0
 38 37  1  0  0  0  0
 40 42  1  0  0  0  0
 40 48  1  1  0  0  0
 43 47  2  1  0  0  0
 43 41  1  0  0  0  0
 43 42  1  0  0  0  0
 44 43  1  0  0  0  0
 45 40  1  0  0  0  0
 46 37  1  6  0  0  0
 46 44  1  0  0  0  0
 46 45  1  0  0  0  0
 49 52  1  6  0  0  0
 50 49  1  0  0  0  0
 51 48  1  6  0  0  0
 51 50  1  0  0  0  0
 51 49  1  0  0  0  0
 52 53  1  1  0  0  0
 52 54  1  0  0  0  0
 55 54  1  0  0  0  0
M  END
>  <MODEL>
4

>  <REMARK>
 VINA RESULT:      -6.3      4.107     10.704
  Name = 
  20 active torsions:
  status: ('A' for Active; 'I' for Inactive)
    1  A    between atoms: C_1  and  C_18
    2  A    between atoms: C_2  and  N_44
    3  A    between atoms: C_3  and  O_22
    4  A    between atoms: C_5  and  N_24
    5  A    between atoms: C_6  and  C_18
    6  A    between atoms: S_8  and  C_16
    7  A    between atoms: S_8  and  C_23
    8  A    between atoms: N_10  and  C_35
    9  A    between atoms: C_16  and  C_31
   10  A    between atoms: O_22  and  C_49
   11  A    between atoms: C_23  and  S_34
   12  A    between atoms: N_24  and  N_29
   13  A    between atoms: C_25  and  S_34
   14  A    between atoms: C_27  and  C_28
   15  A    between atoms: C_27  and  C_40
   16  A    between atoms: C_28  and  N_42
   17  A    between atoms: C_32  and  S_47
   18  A    between atoms: C_36  and  C_55
   19  A    between atoms: C_38  and  C_55
   20  A    between atoms: C_40  and  S_47
                            x       y       z     vdW  Elec       q    Type
                         _______ _______ _______ _____ _____    ______ ____

>  <TORSDO>
F 20

$$$$
=
 OpenBabel10222417053D

 55 60  0  0  1  0  0  0  0  0999 V2000
  190.6440  175.9730  143.0960 N   0  0  0  0  0  2  0  0  0  0  0  0
  190.8210  177.6930  140.4750 C   0  0  2  0  0  3  0  0  0  0  0  0
  190.5720  177.3140  142.5280 C   0  0  1  0  0  3  0  0  0  0  0  0
  192.1230  177.7100  141.7140 S   0  0  0  0  0  0  0  0  0  0  0  0
  188.4420  177.1550  141.1630 O   0  0  0  0  0  0  0  0  0  0  0  0
  189.6350  177.3300  141.3410 C   0  0  0  0  0  0  0  0  0  0  0  0
  190.6740  175.5760  137.2440 C   0  0  0  0  0  0  0  0  0  0  0  0
  189.4250  177.3530  136.3420 C   0  0  0  0  0  2  0  0  0  0  0  0
  190.5250  176.6410  138.1960 C   0  0  0  0  0  0  0  0  0  0  0  0
  188.7640  175.0190  135.7800 C   0  0  0  0  0  1  0  0  0  0  0  0
  191.3690  174.4990  137.4540 N   0  0  0  0  0  0  0  0  0  0  0  0
  189.8440  177.6260  137.7190 N   0  0  0  0  0  0  0  0  0  0  0  0
  191.0800  176.6310  139.5140 N   0  0  0  0  0  2  0  0  0  0  0  0
  189.9480  175.9480  135.9970 C   0  0  2  0  0  3  0  0  0  0  0  0
  191.5550  173.4480  136.4640 C   0  0  0  0  0  2  0  0  0  0  0  0
  193.0130  173.0170  136.4220 C   0  0  0  0  0  2  0  0  0  0  0  0
  193.3950  174.7090  134.8400 O   0  0  0  0  0  0  0  0  0  0  0  0
  193.7800  173.6420  135.2890 C   0  0  0  0  0  0  0  0  0  0  0  0
  195.2640  172.8960  134.5940 S   0  0  0  0  0  0  0  0  0  0  0  0
  197.7620  173.4360  135.3470 C   0  0  2  0  0  3  0  0  0  0  0  0
  196.8990  175.2120  134.9550 C   0  0  0  0  0  2  0  0  0  0  0  0
  196.3540  173.9600  135.5820 C   0  0  1  0  0  0  0  0  0  0  0  0
  197.1430  173.3590  136.7340 C   0  0  2  0  0  3  0  0  0  0  0  0
  198.2030  174.7020  134.9140 O   0  0  0  0  0  0  0  0  0  0  0  0
  197.6940  174.4250  137.6850 C   0  0  0  0  0  2  0  0  0  0  0  0
  197.5270  175.0950  140.0240 C   0  0  0  0  0  2  0  0  0  0  0  0
  196.9620  174.4610  139.0030 C   0  0  0  0  0  0  0  0  0  0  0  0
  195.6200  173.8220  139.2060 C   0  0  0  0  0  1  0  0  0  0  0  0
  190.2730  176.8780  145.3690 C   0  0  0  0  0  0  0  0  0  0  0  0
  189.9300  175.9900  144.3020 N   0  0  0  0  0  2  0  0  0  0  0  0
  191.2520  177.6630  145.2580 O   0  0  0  0  0  0  0  0  0  0  0  0
  189.2950  176.8860  146.8690 S   0  0  0  0  0  0  0  0  0  0  0  0
  188.2420  178.2560  146.3040 C   0  0  0  0  0  2  0  0  0  0  0  0
  186.9090  177.6080  145.2500 S   0  0  0  0  0  0  0  0  0  0  0  0
  185.7510  178.8590  145.7980 C   0  0  0  0  0  0  0  0  0  0  0  0
  186.1270  179.7210  146.6840 N   0  0  0  0  0  2  0  0  0  0  0  0
  184.2560  179.0340  143.7900 N   0  0  0  0  0  2  0  0  0  0  0  0
  184.4060  178.9390  145.2120 C   0  0  0  0  0  0  0  0  0  0  0  0
  183.3900  178.9160  145.9590 O   0  0  0  0  0  0  0  0  0  0  0  0
  181.7390  178.6370  141.0040 C   0  0  1  0  0  3  0  0  0  0  0  0
  179.3470  178.3410  143.9480 O   0  0  0  0  0  1  0  0  0  0  0  0
  180.5880  178.1390  141.6430 O   0  0  0  0  0  0  0  0  0  0  0  0
  180.4810  178.9360  143.1410 P   0  0  2  0  0  0  0  0  0  0  0  0
  181.9450  178.6740  143.9630 O   0  0  0  0  0  0  0  0  0  0  0  0
  183.0090  178.3150  141.7950 C   0  0  0  0  0  2  0  0  0  0  0  0
  182.9720  179.1100  143.1060 C   0  0  2  0  0  3  0  0  0  0  0  0
  180.2170  180.5930  142.9130 O   0  0  0  0  0  0  0  0  0  0  0  0
  181.8340  178.0790  139.7270 O   0  0  0  0  0  0  0  0  0  0  0  0
  183.1900  176.4000  138.6220 C   0  0  1  0  0  3  0  0  0  0  0  0
  183.7300  177.7000  138.5100 O   0  0  0  0  0  0  0  0  0  0  0  0
  183.0660  177.4150  139.7180 C   0  0  1  0  0  3  0  0  0  0  0  0
  181.9500  176.1990  137.7180 C   0  0  1  0  0  3  0  0  0  0  0  0
  182.3240  176.0660  136.3820 O   0  0  0  0  0  1  0  0  0  0  0  0
  181.0100  175.0670  138.1230 C   0  0  0  0  0  2  0  0  0  0  0  0
  179.6860  175.4570  137.9330 O   0  0  0  0  0  1  0  0  0  0  0  0
  1 30  1  0  0  0  0
  2 13  1  6  0  0  0
  2  6  1  0  0  0  0
  2  4  1  0  0  0  0
  3  1  1  6  0  0  0
  4  3  1  0  0  0  0
  5  6  2  0  0  0  0
  6  3  1  0  0  0  0
  7 11  2  0  0  0  0
  7  9  1  0  0  0  0
  8 12  1  0  0  0  0
  9 13  1  0  0  0  0
 12  9  2  0  0  0  0
 14 10  1  1  0  0  0
 14  8  1  0  0  0  0
 14  7  1  0  0  0  0
 15 11  1  0  0  0  0
 16 15  1  0  0  0  0
 17 18  2  0  0  0  0
 18 16  1  0  0  0  0
 19 18  1  0  0  0  0
 20 24  1  1  0  0  0
 20 22  1  0  0  0  0
 20 23  1  0  0  0  0
 21 22  1  0  0  0  0
 22 19  1  6  0  0  0
 22 23  1  0  0  0  0
 23 25  1  1  0  0  0
 24 21  1  0  0  0  0
 25 27  1  0  0  0  0
 27 28  1  0  0  0  0
 27 26  2  0  0  0  0
 29 32  1  0  0  0  0
 30 29  1  0  0  0  0
 31 29  2  0  0  0  0
 33 32  1  0  0  0  0
 34 35  1  0  0  0  0
 34 33  1  0  0  0  0
 35 36  2  0  0  0  0
 37 38  1  0  0  0  0
 38 35  1  0  0  0  0
 38 39  2  0  0  0  0
 40 48  1  6  0  0  0
 40 42  1  0  0  0  0
 40 45  1  0  0  0  0
 42 43  1  0  0  0  0
 43 47  2  6  0  0  0
 43 41  1  0  0  0  0
 43 44  1  0  0  0  0
 45 46  1  0  0  0  0
 46 37  1  1  0  0  0
 46 44  1  0  0  0  0
 49 52  1  6  0  0  0
 49 51  1  0  0  0  0
 50 49  1  0  0  0  0
 50 51  1  0  0  0  0
 51 48  1  6  0  0  0
 52 53  1  6  0  0  0
 52 54  1  0  0  0  0
 55 54  1  0  0  0  0
M  END
>  <MODEL>
5

>  <REMARK>
 VINA RESULT:      -6.0      1.578      2.147
  Name = 
  20 active torsions:
  status: ('A' for Active; 'I' for Inactive)
    1  A    between atoms: C_1  and  C_18
    2  A    between atoms: C_2  and  N_44
    3  A    between atoms: C_3  and  O_22
    4  A    between atoms: C_5  and  N_24
    5  A    between atoms: C_6  and  C_18
    6  A    between atoms: S_8  and  C_16
    7  A    between atoms: S_8  and  C_23
    8  A    between atoms: N_10  and  C_35
    9  A    between atoms: C_16  and  C_31
   10  A    between atoms: O_22  and  C_49
   11  A    between atoms: C_23  and  S_34
   12  A    between atoms: N_24  and  N_29
   13  A    between atoms: C_25  and  S_34
   14  A    between atoms: C_27  and  C_28
   15  A    between atoms: C_27  and  C_40
   16  A    between atoms: C_28  and  N_42
   17  A    between atoms: C_32  and  S_47
   18  A    between atoms: C_36  and  C_55
   19  A    between atoms: C_38  and  C_55
   20  A    between atoms: C_40  and  S_47
                            x       y       z     vdW  Elec       q    Type
                         _______ _______ _______ _____ _____    ______ ____

>  <TORSDO>
F 20

$$$$
=
 OpenBabel10222417053D

 55 60  0  0  1  0  0  0  0  0999 V2000
  186.0580  177.8850  137.4600 N   0  0  0  0  0  2  0  0  0  0  0  0
  186.2240  175.6560  135.2560 C   0  0  2  0  0  3  0  0  0  0  0  0
  186.6960  177.4640  136.2190 C   0  0  1  0  0  3  0  0  0  0  0  0
  187.5270  175.8920  136.4700 S   0  0  0  0  0  0  0  0  0  0  0  0
  184.7560  177.6140  134.5950 O   0  0  0  0  0  0  0  0  0  0  0  0
  185.6500  177.0550  135.2050 C   0  0  0  0  0  0  0  0  0  0  0  0
  184.3580  172.3650  136.0500 C   0  0  0  0  0  0  0  0  0  0  0  0
  186.2210  171.2830  135.1070 C   0  0  0  0  0  2  0  0  0  0  0  0
  185.3510  173.3130  135.6300 C   0  0  0  0  0  0  0  0  0  0  0  0
  183.9480  170.3770  134.6430 C   0  0  0  0  0  1  0  0  0  0  0  0
  183.2550  172.6820  136.6590 N   0  0  0  0  0  0  0  0  0  0  0  0
  186.3820  172.7390  135.1110 N   0  0  0  0  0  0  0  0  0  0  0  0
  185.2320  174.7310  135.7830 N   0  0  0  0  0  2  0  0  0  0  0  0
  184.8360  170.9950  135.7110 C   0  0  2  0  0  3  0  0  0  0  0  0
  182.2780  171.7090  137.1240 C   0  0  0  0  0  2  0  0  0  0  0  0
  181.1620  171.5550  136.1030 C   0  0  0  0  0  2  0  0  0  0  0  0
  179.0930  171.9340  137.1450 O   0  0  0  0  0  0  0  0  0  0  0  0
  179.9550  172.3960  136.4150 C   0  0  0  0  0  0  0  0  0  0  0  0
  179.7470  174.0690  135.7850 S   0  0  0  0  0  0  0  0  0  0  0  0
  179.3870  175.7950  137.7830 C   0  0  2  0  0  3  0  0  0  0  0  0
  180.1620  174.1330  138.6120 C   0  0  0  0  0  2  0  0  0  0  0  0
  180.4330  174.8050  137.2960 C   0  0  1  0  0  0  0  0  0  0  0  0
  180.7500  176.2920  137.3270 C   0  0  2  0  0  3  0  0  0  0  0  0
  179.3240  175.1690  139.0430 O   0  0  0  0  0  0  0  0  0  0  0  0
  181.6600  176.6720  138.4980 C   0  0  0  0  0  2  0  0  0  0  0  0
  180.7450  178.3700  139.9910 C   0  0  0  0  0  2  0  0  0  0  0  0
  181.4890  178.1090  138.9230 C   0  0  0  0  0  0  0  0  0  0  0  0
  182.1340  179.2530  138.1970 C   0  0  0  0  0  1  0  0  0  0  0  0
  186.7990  178.3990  139.7650 C   0  0  0  0  0  0  0  0  0  0  0  0
  187.0320  177.8460  138.4670 N   0  0  0  0  0  2  0  0  0  0  0  0
  185.7040  178.9610  140.0330 O   0  0  0  0  0  0  0  0  0  0  0  0
  188.0650  178.2780  141.0240 S   0  0  0  0  0  0  0  0  0  0  0  0
  189.4220  178.2810  139.8130 C   0  0  0  0  0  2  0  0  0  0  0  0
  190.2670  176.6720  139.8390 S   0  0  0  0  0  0  0  0  0  0  0  0
  191.3080  177.1440  141.2180 C   0  0  0  0  0  0  0  0  0  0  0  0
  192.3630  177.8540  140.9960 N   0  0  0  0  0  2  0  0  0  0  0  0
  191.3140  177.6230  143.6810 N   0  0  0  0  0  2  0  0  0  0  0  0
  190.9400  176.7720  142.5910 C   0  0  0  0  0  0  0  0  0  0  0  0
  190.2910  175.7120  142.8040 O   0  0  0  0  0  0  0  0  0  0  0  0
  189.2020  177.2960  146.7940 C   0  0  1  0  0  3  0  0  0  0  0  0
  191.8120  174.6530  147.6240 O   0  0  0  0  0  0  0  0  0  0  0  0
  189.6250  176.0850  147.3760 O   0  0  0  0  0  0  0  0  0  0  0  0
  191.3080  176.0010  147.1530 P   0  0  2  0  0  0  0  0  0  0  0  0
  191.6100  176.1570  145.4880 O   0  0  0  0  0  0  0  0  0  0  0  0
  189.4750  177.3250  145.2880 C   0  0  0  0  0  2  0  0  0  0  0  0
  190.9940  177.3530  145.0770 C   0  0  2  0  0  3  0  0  0  0  0  0
  192.0820  177.2370  148.0150 O   0  0  0  0  0  1  0  0  0  0  0  0
  187.8340  177.4620  147.0210 O   0  0  0  0  0  0  0  0  0  0  0  0
  186.4580  179.4490  146.8180 C   0  0  1  0  0  3  0  0  0  0  0  0
  186.5200  178.9590  148.1410 O   0  0  0  0  0  0  0  0  0  0  0  0
  187.6920  178.8100  147.3770 C   0  0  1  0  0  3  0  0  0  0  0  0
  185.5710  178.5670  145.9060 C   0  0  1  0  0  3  0  0  0  0  0  0
  184.2520  178.5580  146.3530 O   0  0  0  0  0  1  0  0  0  0  0  0
  185.6260  178.8880  144.4150 C   0  0  0  0  0  2  0  0  0  0  0  0
  184.4410  178.4910  143.7990 O   0  0  0  0  0  1  0  0  0  0  0  0
  1 30  1  0  0  0  0
  2 13  1  1  0  0  0
  2  4  1  0  0  0  0
  3  4  1  0  0  0  0
  3  1  1  1  0  0  0
  5  6  2  0  0  0  0
  6  2  1  0  0  0  0
  6  3  1  0  0  0  0
  7 11  2  0  0  0  0
  8 12  1  0  0  0  0
  8 14  1  0  0  0  0
  9 13  1  0  0  0  0
  9  7  1  0  0  0  0
 11 15  1  0  0  0  0
 12  9  2  0  0  0  0
 14 10  1  6  0  0  0
 14  7  1  0  0  0  0
 16 18  1  0  0  0  0
 16 15  1  0  0  0  0
 18 17  2  0  0  0  0
 19 18  1  0  0  0  0
 20 24  1  1  0  0  0
 21 24  1  0  0  0  0
 22 19  1  6  0  0  0
 22 23  1  0  0  0  0
 22 20  1  0  0  0  0
 22 21  1  0  0  0  0
 23 20  1  0  0  0  0
 23 25  1  1  0  0  0
 25 27  1  0  0  0  0
 27 26  2  0  0  0  0
 28 27  1  0  0  0  0
 29 31  2  0  0  0  0
 29 32  1  0  0  0  0
 30 29  1  0  0  0  0
 33 34  1  0  0  0  0
 33 32  1  0  0  0  0
 34 35  1  0  0  0  0
 35 38  1  0  0  0  0
 36 35  2  0  0  0  0
 38 39  2  0  0  0  0
 38 37  1  0  0  0  0
 40 48  1  6  0  0  0
 40 42  1  0  0  0  0
 43 42  1  0  0  0  0
 43 41  2  1  0  0  0
 43 47  1  0  0  0  0
 44 43  1  0  0  0  0
 45 40  1  0  0  0  0
 46 37  1  6  0  0  0
 46 45  1  0  0  0  0
 46 44  1  0  0  0  0
 49 52  1  6  0  0  0
 49 51  1  0  0  0  0
 49 50  1  0  0  0  0
 51 48  1  6  0  0  0
 51 50  1  0  0  0  0
 52 53  1  1  0  0  0
 54 52  1  0  0  0  0
 55 54  1  0  0  0  0
M  END
>  <MODEL>
6

>  <REMARK>
 VINA RESULT:      -5.9      4.248      9.807
  Name = 
  20 active torsions:
  status: ('A' for Active; 'I' for Inactive)
    1  A    between atoms: C_1  and  C_18
    2  A    between atoms: C_2  and  N_44
    3  A    between atoms: C_3  and  O_22
    4  A    between atoms: C_5  and  N_24
    5  A    between atoms: C_6  and  C_18
    6  A    between atoms: S_8  and  C_16
    7  A    between atoms: S_8  and  C_23
    8  A    between atoms: N_10  and  C_35
    9  A    between atoms: C_16  and  C_31
   10  A    between atoms: O_22  and  C_49
   11  A    between atoms: C_23  and  S_34
   12  A    between atoms: N_24  and  N_29
   13  A    between atoms: C_25  and  S_34
   14  A    between atoms: C_27  and  C_28
   15  A    between atoms: C_27  and  C_40
   16  A    between atoms: C_28  and  N_42
   17  A    between atoms: C_32  and  S_47
   18  A    between atoms: C_36  and  C_55
   19  A    between atoms: C_38  and  C_55
   20  A    between atoms: C_40  and  S_47
                            x       y       z     vdW  Elec       q    Type
                         _______ _______ _______ _____ _____    ______ ____

>  <TORSDO>
F 20

$$$$
=
 OpenBabel10222417053D

 55 60  0  0  1  0  0  0  0  0999 V2000
  188.5740  177.8790  139.8690 N   0  0  0  0  0  2  0  0  0  0  0  0
  188.5440  176.8330  136.9090 C   0  0  2  0  0  3  0  0  0  0  0  0
  189.1340  178.0330  138.5320 C   0  0  1  0  0  3  0  0  0  0  0  0
  189.9130  176.4960  138.0230 S   0  0  0  0  0  0  0  0  0  0  0  0
  187.1250  178.9050  137.2560 O   0  0  0  0  0  0  0  0  0  0  0  0
  188.0250  178.1220  137.5070 C   0  0  0  0  0  0  0  0  0  0  0  0
  186.7820  173.4060  136.6030 C   0  0  0  0  0  0  0  0  0  0  0  0
  188.8240  172.6280  135.7340 C   0  0  0  0  0  2  0  0  0  0  0  0
  187.7670  174.4500  136.5790 C   0  0  0  0  0  0  0  0  0  0  0  0
  186.7020  171.8090  134.7200 C   0  0  0  0  0  1  0  0  0  0  0  0
  185.5840  173.5410  137.0890 N   0  0  0  0  0  0  0  0  0  0  0  0
  188.8950  174.0430  136.1070 N   0  0  0  0  0  0  0  0  0  0  0  0
  187.5420  175.7850  137.0410 N   0  0  0  0  0  2  0  0  0  0  0  0
  187.3850  172.1700  136.0300 C   0  0  2  0  0  3  0  0  0  0  0  0
  184.6100  172.4620  137.1530 C   0  0  0  0  0  2  0  0  0  0  0  0
  183.2090  173.0280  137.3280 C   0  0  0  0  0  2  0  0  0  0  0  0
  183.1510  173.2100  134.9880 O   0  0  0  0  0  0  0  0  0  0  0  0
  182.5070  173.2820  136.0220 C   0  0  0  0  0  0  0  0  0  0  0  0
  180.7490  173.6520  135.9210 S   0  0  0  0  0  0  0  0  0  0  0  0
  179.6230  175.9450  136.6780 C   0  0  2  0  0  3  0  0  0  0  0  0
  180.6090  175.2470  138.2880 C   0  0  0  0  0  2  0  0  0  0  0  0
  180.9470  175.2140  136.8250 C   0  0  1  0  0  0  0  0  0  0  0  0
  180.8860  176.5310  136.0670 C   0  0  2  0  0  3  0  0  0  0  0  0
  179.4820  176.0510  138.0760 O   0  0  0  0  0  0  0  0  0  0  0  0
  181.4460  177.7000  136.8800 C   0  0  0  0  0  2  0  0  0  0  0  0
  180.6180  179.1730  135.1210 C   0  0  0  0  0  2  0  0  0  0  0  0
  180.9350  179.0360  136.4030 C   0  0  0  0  0  0  0  0  0  0  0  0
  180.7600  180.2130  137.3180 C   0  0  0  0  0  1  0  0  0  0  0  0
  190.3260  177.2990  141.5180 C   0  0  0  0  0  0  0  0  0  0  0  0
  189.5640  178.2620  140.7840 N   0  0  0  0  0  2  0  0  0  0  0  0
  190.1080  176.0670  141.3740 O   0  0  0  0  0  0  0  0  0  0  0  0
  191.6090  177.8480  142.6390 S   0  0  0  0  0  0  0  0  0  0  0  0
  190.6980  177.3090  144.1170 C   0  0  0  0  0  2  0  0  0  0  0  0
  191.7050  176.1260  145.0600 S   0  0  0  0  0  0  0  0  0  0  0  0
  190.8980  176.5370  146.6050 C   0  0  0  0  0  0  0  0  0  0  0  0
  191.4440  176.1710  147.7170 N   0  0  0  0  0  2  0  0  0  0  0  0
  188.6820  177.1240  145.5860 N   0  0  0  0  0  2  0  0  0  0  0  0
  189.6600  177.3270  146.6130 C   0  0  0  0  0  0  0  0  0  0  0  0
  189.4580  178.1740  147.5260 O   0  0  0  0  0  0  0  0  0  0  0  0
  185.5200  178.4940  144.0420 C   0  0  1  0  0  3  0  0  0  0  0  0
  184.2820  178.1680  147.6260 O   0  0  0  0  0  1  0  0  0  0  0  0
  184.5280  178.2580  145.0130 O   0  0  0  0  0  0  0  0  0  0  0  0
  185.2500  178.5470  146.5250 P   0  0  2  0  0  0  0  0  0  0  0  0
  186.6260  177.5560  146.6300 O   0  0  0  0  0  0  0  0  0  0  0  0
  186.6970  177.5260  144.1900 C   0  0  0  0  0  2  0  0  0  0  0  0
  187.4180  177.8460  145.5040 C   0  0  2  0  0  3  0  0  0  0  0  0
  185.6810  180.1780  146.6740 O   0  0  0  0  0  0  0  0  0  0  0  0
  184.9610  178.3540  142.7700 O   0  0  0  0  0  0  0  0  0  0  0  0
  182.9290  178.9560  141.5910 C   0  0  1  0  0  3  0  0  0  0  0  0
  182.6790  178.2360  142.7810 O   0  0  0  0  0  0  0  0  0  0  0  0
  183.7820  179.1090  142.8140 C   0  0  1  0  0  3  0  0  0  0  0  0
  183.4860  178.0540  140.4640 C   0  0  1  0  0  3  0  0  0  0  0  0
  182.5850  177.0390  140.1480 O   0  0  0  0  0  1  0  0  0  0  0  0
  183.9390  178.7760  139.1990 C   0  0  0  0  0  2  0  0  0  0  0  0
  184.6350  179.9360  139.5360 O   0  0  0  0  0  1  0  0  0  0  0  0
  1 30  1  0  0  0  0
  2 13  1  1  0  0  0
  2  6  1  0  0  0  0
  2  4  1  0  0  0  0
  3  1  1  1  0  0  0
  4  3  1  0  0  0  0
  5  6  2  0  0  0  0
  6  3  1  0  0  0  0
  7 11  2  0  0  0  0
  8 14  1  0  0  0  0
  8 12  1  0  0  0  0
  9  7  1  0  0  0  0
  9 13  1  0  0  0  0
 11 15  1  0  0  0  0
 12  9  2  0  0  0  0
 14 10  1  6  0  0  0
 14  7  1  0  0  0  0
 15 16  1  0  0  0  0
 17 18  2  0  0  0  0
 18 16  1  0  0  0  0
 19 18  1  0  0  0  0
 20 22  1  0  0  0  0
 20 24  1  1  0  0  0
 22 19  1  6  0  0  0
 22 21  1  0  0  0  0
 23 20  1  0  0  0  0
 23 22  1  0  0  0  0
 23 25  1  1  0  0  0
 24 21  1  0  0  0  0
 26 27  2  0  0  0  0
 27 25  1  0  0  0  0
 27 28  1  0  0  0  0
 29 32  1  0  0  0  0
 30 29  1  0  0  0  0
 31 29  2  0  0  0  0
 32 33  1  0  0  0  0
 33 34  1  0  0  0  0
 34 35  1  0  0  0  0
 35 38  1  0  0  0  0
 35 36  2  0  0  0  0
 37 38  1  0  0  0  0
 38 39  2  0  0  0  0
 40 48  1  6  0  0  0
 40 45  1  0  0  0  0
 40 42  1  0  0  0  0
 42 43  1  0  0  0  0
 43 44  1  0  0  0  0
 43 47  2  1  0  0  0
 43 41  1  0  0  0  0
 45 46  1  0  0  0  0
 46 37  1  1  0  0  0
 46 44  1  0  0  0  0
 49 52  1  6  0  0  0
 49 50  1  0  0  0  0
 49 51  1  0  0  0  0
 50 51  1  0  0  0  0
 51 48  1  6  0  0  0
 52 53  1  6  0  0  0
 54 55  1  0  0  0  0
 54 52  1  0  0  0  0
M  END
>  <MODEL>
7

>  <REMARK>
 VINA RESULT:      -5.9      3.588      7.658
  Name = 
  20 active torsions:
  status: ('A' for Active; 'I' for Inactive)
    1  A    between atoms: C_1  and  C_18
    2  A    between atoms: C_2  and  N_44
    3  A    between atoms: C_3  and  O_22
    4  A    between atoms: C_5  and  N_24
    5  A    between atoms: C_6  and  C_18
    6  A    between atoms: S_8  and  C_16
    7  A    between atoms: S_8  and  C_23
    8  A    between atoms: N_10  and  C_35
    9  A    between atoms: C_16  and  C_31
   10  A    between atoms: O_22  and  C_49
   11  A    between atoms: C_23  and  S_34
   12  A    between atoms: N_24  and  N_29
   13  A    between atoms: C_25  and  S_34
   14  A    between atoms: C_27  and  C_28
   15  A    between atoms: C_27  and  C_40
   16  A    between atoms: C_28  and  N_42
   17  A    between atoms: C_32  and  S_47
   18  A    between atoms: C_36  and  C_55
   19  A    between atoms: C_38  and  C_55
   20  A    between atoms: C_40  and  S_47
                            x       y       z     vdW  Elec       q    Type
                         _______ _______ _______ _____ _____    ______ ____

>  <TORSDO>
F 20

$$$$
=
 OpenBabel10222417053D

 55 60  0  0  1  0  0  0  0  0999 V2000
  191.2830  176.0420  143.1160 N   0  0  0  0  0  2  0  0  0  0  0  0
  190.1610  177.8940  140.8430 C   0  0  2  0  0  3  0  0  0  0  0  0
  190.7010  177.3400  142.7970 C   0  0  1  0  0  3  0  0  0  0  0  0
  191.7510  178.2010  141.6220 S   0  0  0  0  0  0  0  0  0  0  0  0
  188.3490  176.6730  142.1270 O   0  0  0  0  0  0  0  0  0  0  0  0
  189.4520  177.1630  141.9620 C   0  0  0  0  0  0  0  0  0  0  0  0
  189.9030  176.4300  137.2740 C   0  0  0  0  0  0  0  0  0  0  0  0
  188.8620  178.4600  136.7030 C   0  0  0  0  0  2  0  0  0  0  0  0
  189.8300  177.3120  138.4040 C   0  0  0  0  0  0  0  0  0  0  0  0
  187.9920  176.3480  135.7110 C   0  0  0  0  0  1  0  0  0  0  0  0
  190.4820  175.2680  137.2890 N   0  0  0  0  0  0  0  0  0  0  0  0
  189.2640  178.4320  138.1110 N   0  0  0  0  0  0  0  0  0  0  0  0
  190.3420  177.0050  139.7050 N   0  0  0  0  0  2  0  0  0  0  0  0
  189.2540  177.0960  136.1090 C   0  0  2  0  0  3  0  0  0  0  0  0
  190.5930  174.4020  136.1240 C   0  0  0  0  0  2  0  0  0  0  0  0
  191.3760  173.1460  136.4740 C   0  0  0  0  0  2  0  0  0  0  0  0
  192.7080  173.6290  134.6030 O   0  0  0  0  0  0  0  0  0  0  0  0
  192.4290  172.8030  135.4560 C   0  0  0  0  0  0  0  0  0  0  0  0
  193.3170  171.2380  135.4680 S   0  0  0  0  0  0  0  0  0  0  0  0
  195.3600  171.1590  137.1770 C   0  0  2  0  0  3  0  0  0  0  0  0
  196.1470  171.6310  135.3850 C   0  0  0  0  0  2  0  0  0  0  0  0
  194.8510  172.0250  136.0360 C   0  0  1  0  0  0  0  0  0  0  0  0
  194.9250  172.5920  137.4450 C   0  0  2  0  0  3  0  0  0  0  0  0
  196.6030  170.9780  136.5380 O   0  0  0  0  0  0  0  0  0  0  0  0
  196.1100  173.5420  137.6330 C   0  0  0  0  0  2  0  0  0  0  0  0
  194.7550  175.2280  138.7590 C   0  0  0  0  0  2  0  0  0  0  0  0
  195.8880  174.5350  138.7450 C   0  0  0  0  0  0  0  0  0  0  0  0
  196.8870  174.7660  139.8410 C   0  0  0  0  0  1  0  0  0  0  0  0
  191.4270  176.7270  145.4900 C   0  0  0  0  0  0  0  0  0  0  0  0
  191.0400  175.7960  144.4740 N   0  0  0  0  0  2  0  0  0  0  0  0
  192.0210  177.7950  145.1860 O   0  0  0  0  0  0  0  0  0  0  0  0
  191.0500  176.3790  147.2050 S   0  0  0  0  0  0  0  0  0  0  0  0
  189.7290  177.6260  147.2800 C   0  0  0  0  0  2  0  0  0  0  0  0
  188.5720  177.3770  145.9010 S   0  0  0  0  0  0  0  0  0  0  0  0
  187.2190  178.1530  146.7820 C   0  0  0  0  0  0  0  0  0  0  0  0
  187.3290  178.3530  148.0530 N   0  0  0  0  0  2  0  0  0  0  0  0
  185.8510  178.2570  144.6820 N   0  0  0  0  0  2  0  0  0  0  0  0
  186.0220  178.6040  146.0610 C   0  0  0  0  0  0  0  0  0  0  0  0
  185.1460  179.2870  146.6590 O   0  0  0  0  0  0  0  0  0  0  0  0
  183.7310  178.7310  141.5920 C   0  0  1  0  0  3  0  0  0  0  0  0
  180.9210  178.3150  144.1250 O   0  0  0  0  0  1  0  0  0  0  0  0
  182.4440  178.3160  141.9860 O   0  0  0  0  0  0  0  0  0  0  0  0
  182.2280  178.8550  143.5840 P   0  0  2  0  0  0  0  0  0  0  0  0
  183.5120  178.2350  144.5090 O   0  0  0  0  0  0  0  0  0  0  0  0
  184.8210  178.0870  142.4540 C   0  0  0  0  0  2  0  0  0  0  0  0
  184.6990  178.6460  143.8760 C   0  0  2  0  0  3  0  0  0  0  0  0
  182.2180  180.5480  143.6410 O   0  0  0  0  0  0  0  0  0  0  0  0
  183.9350  178.3890  140.2540 O   0  0  0  0  0  0  0  0  0  0  0  0
  185.7800  177.9550  138.7410 C   0  0  1  0  0  3  0  0  0  0  0  0
  185.5900  179.3320  138.9920 O   0  0  0  0  0  0  0  0  0  0  0  0
  185.3210  178.4700  140.0710 C   0  0  1  0  0  3  0  0  0  0  0  0
  184.6910  177.3710  137.8090 C   0  0  1  0  0  3  0  0  0  0  0  0
  184.7100  178.0010  136.5660 O   0  0  0  0  0  1  0  0  0  0  0  0
  184.7060  175.8550  137.6380 C   0  0  0  0  0  2  0  0  0  0  0  0
  183.4710  175.4170  137.1650 O   0  0  0  0  0  1  0  0  0  0  0  0
  1 30  1  0  0  0  0
  2 13  1  6  0  0  0
  2  4  1  0  0  0  0
  2  6  1  0  0  0  0
  3  1  1  6  0  0  0
  4  3  1  0  0  0  0
  6  5  2  0  0  0  0
  6  3  1  0  0  0  0
  7 11  2  0  0  0  0
  7  9  1  0  0  0  0
  8 12  1  0  0  0  0
  9 13  1  0  0  0  0
 12  9  2  0  0  0  0
 14 10  1  1  0  0  0
 14  8  1  0  0  0  0
 14  7  1  0  0  0  0
 15 16  1  0  0  0  0
 15 11  1  0  0  0  0
 17 18  2  0  0  0  0
 18 19  1  0  0  0  0
 18 16  1  0  0  0  0
 20 24  1  6  0  0  0
 20 23  1  0  0  0  0
 21 22  1  0  0  0  0
 21 24  1  0  0  0  0
 22 19  1  6  0  0  0
 22 20  1  0  0  0  0
 22 23  1  0  0  0  0
 23 25  1  6  0  0  0
 25 27  1  0  0  0  0
 27 26  2  0  0  0  0
 27 28  1  0  0  0  0
 29 32  1  0  0  0  0
 30 29  1  0  0  0  0
 31 29  2  0  0  0  0
 32 33  1  0  0  0  0
 34 35  1  0  0  0  0
 34 33  1  0  0  0  0
 35 36  2  0  0  0  0
 37 38  1  0  0  0  0
 38 39  2  0  0  0  0
 38 35  1  0  0  0  0
 40 48  1  6  0  0  0
 40 42  1  0  0  0  0
 40 45  1  0  0  0  0
 42 43  1  0  0  0  0
 43 47  2  1  0  0  0
 43 41  1  0  0  0  0
 43 44  1  0  0  0  0
 45 46  1  0  0  0  0
 46 44  1  0  0  0  0
 46 37  1  1  0  0  0
 49 52  1  6  0  0  0
 49 50  1  0  0  0  0
 49 51  1  0  0  0  0
 50 51  1  0  0  0  0
 51 48  1  6  0  0  0
 52 53  1  6  0  0  0
 54 52  1  0  0  0  0
 55 54  1  0  0  0  0
M  END
>  <MODEL>
8

>  <REMARK>
 VINA RESULT:      -5.3      1.990      2.560
  Name = 
  20 active torsions:
  status: ('A' for Active; 'I' for Inactive)
    1  A    between atoms: C_1  and  C_18
    2  A    between atoms: C_2  and  N_44
    3  A    between atoms: C_3  and  O_22
    4  A    between atoms: C_5  and  N_24
    5  A    between atoms: C_6  and  C_18
    6  A    between atoms: S_8  and  C_16
    7  A    between atoms: S_8  and  C_23
    8  A    between atoms: N_10  and  C_35
    9  A    between atoms: C_16  and  C_31
   10  A    between atoms: O_22  and  C_49
   11  A    between atoms: C_23  and  S_34
   12  A    between atoms: N_24  and  N_29
   13  A    between atoms: C_25  and  S_34
   14  A    between atoms: C_27  and  C_28
   15  A    between atoms: C_27  and  C_40
   16  A    between atoms: C_28  and  N_42
   17  A    between atoms: C_32  and  S_47
   18  A    between atoms: C_36  and  C_55
   19  A    between atoms: C_38  and  C_55
   20  A    between atoms: C_40  and  S_47
                            x       y       z     vdW  Elec       q    Type
                         _______ _______ _______ _____ _____    ______ ____

>  <TORSDO>
F 20

$$$$
=
 OpenBabel10222417053D

 55 60  0  0  1  0  0  0  0  0999 V2000
  189.4050  178.1920  144.4840 N   0  0  0  0  0  2  0  0  0  0  0  0
  190.0350  175.9540  142.3730 C   0  0  2  0  0  3  0  0  0  0  0  0
  189.7650  176.7930  144.2820 C   0  0  1  0  0  3  0  0  0  0  0  0
  188.4980  175.9790  143.3040 S   0  0  0  0  0  0  0  0  0  0  0  0
  192.1140  177.0200  143.3560 O   0  0  0  0  0  0  0  0  0  0  0  0
  190.9420  176.6870  143.3370 C   0  0  0  0  0  0  0  0  0  0  0  0
  188.4290  178.1460  139.6240 C   0  0  0  0  0  0  0  0  0  0  0  0
  186.6000  178.3400  141.0890 C   0  0  0  0  0  2  0  0  0  0  0  0
  188.6700  177.4420  140.8520 C   0  0  0  0  0  0  0  0  0  0  0  0
  186.1590  178.0870  138.6510 C   0  0  0  0  0  1  0  0  0  0  0  0
  189.2950  178.2570  138.6610 N   0  0  0  0  0  0  0  0  0  0  0  0
  187.6790  177.5380  141.6690 N   0  0  0  0  0  0  0  0  0  0  0  0
  189.8750  176.7310  141.1530 N   0  0  0  0  0  2  0  0  0  0  0  0
  187.0650  178.7450  139.6790 C   0  0  2  0  0  3  0  0  0  0  0  0
  189.0570  179.0150  137.4420 C   0  0  0  0  0  2  0  0  0  0  0  0
  189.3990  178.1710  136.2240 C   0  0  0  0  0  2  0  0  0  0  0  0
  187.4810  177.5690  135.0130 O   0  0  0  0  0  0  0  0  0  0  0  0
  188.3040  177.2150  135.8410 C   0  0  0  0  0  0  0  0  0  0  0  0
  188.1780  175.5570  136.5300 S   0  0  0  0  0  0  0  0  0  0  0  0
  190.2110  173.8620  136.8410 C   0  0  2  0  0  3  0  0  0  0  0  0
  190.2310  174.4120  134.9040 C   0  0  0  0  0  2  0  0  0  0  0  0
  189.9150  175.1850  136.1530 C   0  0  1  0  0  0  0  0  0  0  0  0
  190.9300  175.1270  137.2830 C   0  0  2  0  0  3  0  0  0  0  0  0
  190.6300  173.2810  135.6280 O   0  0  0  0  0  0  0  0  0  0  0  0
  192.3730  175.1920  136.7770 C   0  0  0  0  0  2  0  0  0  0  0  0
  194.4670  175.0560  138.0200 C   0  0  0  0  0  2  0  0  0  0  0  0
  193.3310  175.7130  137.8190 C   0  0  0  0  0  0  0  0  0  0  0  0
  193.0600  176.9460  138.6290 C   0  0  0  0  0  1  0  0  0  0  0  0
  187.5030  178.0700  146.0610 C   0  0  0  0  0  0  0  0  0  0  0  0
  188.0290  178.2370  144.7420 N   0  0  0  0  0  2  0  0  0  0  0  0
  188.2730  177.8550  147.0340 O   0  0  0  0  0  0  0  0  0  0  0  0
  185.7370  178.1830  146.3360 S   0  0  0  0  0  0  0  0  0  0  0  0
  185.3460  178.0840  144.5630 C   0  0  0  0  0  2  0  0  0  0  0  0
  184.5980  179.6460  144.0130 S   0  0  0  0  0  0  0  0  0  0  0  0
  182.9440  178.9590  144.0270 C   0  0  0  0  0  0  0  0  0  0  0  0
  182.3960  178.6610  145.1580 N   0  0  0  0  0  2  0  0  0  0  0  0
  182.9050  178.5020  141.5600 N   0  0  0  0  0  2  0  0  0  0  0  0
  182.1980  178.7850  142.7740 C   0  0  0  0  0  0  0  0  0  0  0  0
  180.9400  178.8780  142.7710 O   0  0  0  0  0  0  0  0  0  0  0  0
  181.3300  179.4120  138.2510 C   0  0  1  0  0  3  0  0  0  0  0  0
  182.7530  176.0230  137.2650 O   0  0  0  0  0  0  0  0  0  0  0  0
  181.8940  178.5040  137.3350 O   0  0  0  0  0  0  0  0  0  0  0  0
  182.0160  177.0120  138.1430 P   0  0  2  0  0  0  0  0  0  0  0  0
  182.9140  177.2740  139.5620 O   0  0  0  0  0  0  0  0  0  0  0  0
  182.2290  179.6160  139.4730 C   0  0  0  0  0  2  0  0  0  0  0  0
  182.2640  178.3030  140.2660 C   0  0  2  0  0  3  0  0  0  0  0  0
  180.4760  176.4140  138.5170 O   0  0  0  0  0  1  0  0  0  0  0  0
  181.1260  180.6390  137.6160 O   0  0  0  0  0  0  0  0  0  0  0  0
  179.3370  182.2460  137.3070 C   0  0  1  0  0  3  0  0  0  0  0  0
  178.9370  180.9220  137.0250 O   0  0  0  0  0  0  0  0  0  0  0  0
  179.8720  181.0700  138.0660 C   0  0  1  0  0  3  0  0  0  0  0  0
  180.2480  182.8340  136.2030 C   0  0  1  0  0  3  0  0  0  0  0  0
  179.5290  183.0560  135.0300 O   0  0  0  0  0  1  0  0  0  0  0  0
  181.0380  184.0810  136.5880 C   0  0  0  0  0  2  0  0  0  0  0  0
  181.8840  183.7970  137.6580 O   0  0  0  0  0  1  0  0  0  0  0  0
  1 30  1  0  0  0  0
  2 13  1  6  0  0  0
  2  4  1  0  0  0  0
  2  6  1  0  0  0  0
  3  1  1  6  0  0  0
  4  3  1  0  0  0  0
  6  5  2  0  0  0  0
  6  3  1  0  0  0  0
  7 14  1  0  0  0  0
  7  9  1  0  0  0  0
  8 12  1  0  0  0  0
  9 13  1  0  0  0  0
  9 12  2  0  0  0  0
 11  7  2  0  0  0  0
 14 10  1  6  0  0  0
 14  8  1  0  0  0  0
 15 11  1  0  0  0  0
 16 15  1  0  0  0  0
 17 18  2  0  0  0  0
 18 16  1  0  0  0  0
 18 19  1  0  0  0  0
 20 24  1  6  0  0  0
 20 23  1  0  0  0  0
 21 24  1  0  0  0  0
 21 22  1  0  0  0  0
 22 19  1  1  0  0  0
 22 20  1  0  0  0  0
 22 23  1  0  0  0  0
 23 25  1  6  0  0  0
 25 27  1  0  0  0  0
 27 26  2  0  0  0  0
 27 28  1  0  0  0  0
 29 32  1  0  0  0  0
 29 31  2  0  0  0  0
 30 29  1  0  0  0  0
 33 32  1  0  0  0  0
 34 35  1  0  0  0  0
 34 33  1  0  0  0  0
 35 36  2  0  0  0  0
 37 38  1  0  0  0  0
 38 35  1  0  0  0  0
 39 38  2  0  0  0  0
 40 48  1  6  0  0  0
 40 45  1  0  0  0  0
 42 43  1  0  0  0  0
 42 40  1  0  0  0  0
 43 41  2  6  0  0  0
 43 47  1  0  0  0  0
 43 44  1  0  0  0  0
 44 46  1  0  0  0  0
 45 46  1  0  0  0  0
 46 37  1  1  0  0  0
 49 52  1  6  0  0  0
 49 51  1  0  0  0  0
 50 49  1  0  0  0  0
 50 51  1  0  0  0  0
 51 48  1  6  0  0  0
 52 53  1  6  0  0  0
 52 54  1  0  0  0  0
 54 55  1  0  0  0  0
M  END
>  <MODEL>
9

>  <REMARK>
 VINA RESULT:      -5.3      2.974      4.566
  Name = 
  20 active torsions:
  status: ('A' for Active; 'I' for Inactive)
    1  A    between atoms: C_1  and  C_18
    2  A    between atoms: C_2  and  N_44
    3  A    between atoms: C_3  and  O_22
    4  A    between atoms: C_5  and  N_24
    5  A    between atoms: C_6  and  C_18
    6  A    between atoms: S_8  and  C_16
    7  A    between atoms: S_8  and  C_23
    8  A    between atoms: N_10  and  C_35
    9  A    between atoms: C_16  and  C_31
   10  A    between atoms: O_22  and  C_49
   11  A    between atoms: C_23  and  S_34
   12  A    between atoms: N_24  and  N_29
   13  A    between atoms: C_25  and  S_34
   14  A    between atoms: C_27  and  C_28
   15  A    between atoms: C_27  and  C_40
   16  A    between atoms: C_28  and  N_42
   17  A    between atoms: C_32  and  S_47
   18  A    between atoms: C_36  and  C_55
   19  A    between atoms: C_38  and  C_55
   20  A    between atoms: C_40  and  S_47
                            x       y       z     vdW  Elec       q    Type
                         _______ _______ _______ _____ _____    ______ ____

>  <TORSDO>
F 20

$$$$
