=
 OpenBabel10222417273D

 28 31  0  0  1  0  0  0  0  0999 V2000
  189.9570  177.2870  147.2630 C   0  0  0  0  0  0  0  0  0  0  0  0
  188.8080  177.5390  143.7250 N   0  0  0  0  0  0  0  0  0  0  0  0
  187.7420  177.7190  143.0040 C   0  0  0  0  0  0  0  0  0  0  0  0
  184.3330  178.2630  142.2440 O   0  0  0  0  0  0  0  0  0  0  0  0
  188.7770  177.4560  147.9190 N   0  0  0  0  0  0  0  0  0  0  0  0
  186.2840  177.9000  145.1460 C   0  0  0  0  0  2  0  0  0  0  0  0
  187.5850  177.6840  145.8610 C   0  0  0  0  0  0  0  0  0  0  0  0
  185.3500  178.0910  142.9280 C   0  0  0  0  0  0  0  0  0  0  0  0
  189.9760  177.3140  145.8600 C   0  0  0  0  0  3  0  0  0  0  0  0
  188.7880  177.5120  145.1570 C   0  0  0  0  0  0  0  0  0  0  0  0
  187.6060  177.6510  147.2550 C   0  0  0  0  0  3  0  0  0  0  0  0
  187.8460  177.7330  141.5770 N   0  0  0  0  0  0  0  0  0  0  0  0
  186.4220  177.9100  143.6500 C   0  0  0  0  0  0  0  0  0  0  0  0
  188.1980  178.2510  138.6860 N   0  0  0  0  0  0  0  0  0  0  0  0
  190.4130  177.6020  139.0450 O   0  0  0  0  0  0  0  0  0  0  0  0
  186.9630  178.4810  139.1950 O   0  0  0  0  0  1  0  0  0  0  0  0
  189.0780  177.5560  140.9330 N   0  0  0  0  0  0  0  0  0  0  0  0
  189.2690  177.7970  139.5350 C   0  0  0  0  0  0  0  0  0  0  0  0
  188.4580  178.4660  137.2620 C   0  0  0  0  0  2  0  0  0  0  0  0
  185.9770  176.9180  134.6780 N   0  0  0  0  0  0  0  0  0  0  0  0
  186.8240  177.8880  135.4630 C   0  0  1  0  0  0  0  0  0  0  0  0
  185.7210  177.1200  136.0800 C   0  0  0  0  0  2  0  0  0  0  0  0
  186.5340  175.6810  134.5940 O   0  0  0  0  0  1  0  0  0  0  0  0
  187.9160  177.3340  136.4010 C   0  0  1  0  0  3  0  0  0  0  0  0
  188.2660  177.5780  134.9940 C   0  0  0  0  0  2  0  0  0  0  0  0
  191.1240  177.0910  148.0080 O   0  0  0  0  0  0  0  0  0  0  0  0
  192.8400  175.3270  147.4280 N   0  0  0  0  0  0  0  0  0  0  0  0
  192.0550  176.1340  147.6940 C   0  0  0  0  0  0  0  0  0  0  0  0
  1  5  2  0  0  0  0
  1 26  1  0  0  0  0
  2 10  1  0  0  0  0
  3 13  1  0  0  0  0
  3  2  2  0  0  0  0
  4  8  2  0  0  0  0
  6  7  1  0  0  0  0
  7 11  2  0  0  0  0
  8 13  2  0  0  0  0
  9  1  1  0  0  0  0
 10  9  2  0  0  0  0
 10  7  1  0  0  0  0
 11  5  1  0  0  0  0
 12  3  1  0  0  0  0
 13  6  1  0  0  0  0
 14 16  1  0  0  0  0
 14 18  1  0  0  0  0
 15 18  2  0  0  0  0
 17 12  2  0  0  0  0
 18 17  1  0  0  0  0
 19 14  1  0  0  0  0
 20 21  1  0  0  0  0
 20 22  1  0  0  0  0
 21 25  1  6  0  0  0
 21 22  1  0  0  0  0
 21 24  1  0  0  0  0
 23 20  1  0  0  0  0
 24 19  1  1  0  0  0
 25 24  1  0  0  0  0
 27 28  3  0  0  0  0
 28 26  1  0  0  0  0
M  END
>  <MODEL>
1

>  <REMARK>
 VINA RESULT:      -8.4      0.000      0.000
  Name = 
  5 active torsions:
  status: ('A' for Active; 'I' for Inactive)
    1  A    between atoms: N_1  and  C_14
    2  A    between atoms: C_2  and  O_19
    3  A    between atoms: C_14  and  C_23
    4  A    between atoms: C_15  and  O_19
    5  A    between atoms: N_24  and  N_25
                            x       y       z     vdW  Elec       q    Type
                         _______ _______ _______ _____ _____    ______ ____

>  <TORSDO>
F 5

$$$$
=
 OpenBabel10222417273D

 28 31  0  0  1  0  0  0  0  0999 V2000
  184.7720  178.6430  145.8270 C   0  0  0  0  0  0  0  0  0  0  0  0
  187.7140  177.5170  143.8340 N   0  0  0  0  0  0  0  0  0  0  0  0
  188.9600  177.1670  143.9520 C   0  0  0  0  0  0  0  0  0  0  0  0
  192.0480  176.4660  145.5230 O   0  0  0  0  0  0  0  0  0  0  0  0
  185.3090  178.6500  147.0770 N   0  0  0  0  0  0  0  0  0  0  0  0
  188.8510  177.5360  146.5220 C   0  0  0  0  0  2  0  0  0  0  0  0
  187.4270  177.9180  146.2480 C   0  0  0  0  0  0  0  0  0  0  0  0
  190.8620  176.7990  145.4070 C   0  0  0  0  0  0  0  0  0  0  0  0
  185.5700  178.2650  144.7360 C   0  0  0  0  0  3  0  0  0  0  0  0
  186.9000  177.9030  144.9470 C   0  0  0  0  0  0  0  0  0  0  0  0
  186.6030  178.3000  147.3080 C   0  0  0  0  0  3  0  0  0  0  0  0
  189.7060  176.7950  142.7890 N   0  0  0  0  0  2  0  0  0  0  0  0
  189.6100  177.1510  145.2840 C   0  0  0  0  0  0  0  0  0  0  0  0
  191.3010  177.1950  140.3310 N   0  0  0  0  0  0  0  0  0  0  0  0
  189.2590  176.9910  139.2150 O   0  0  0  0  0  0  0  0  0  0  0  0
  191.9850  177.1880  141.5000 O   0  0  0  0  0  1  0  0  0  0  0  0
  189.1220  176.8000  141.5160 N   0  0  0  0  0  2  0  0  0  0  0  0
  189.8750  176.9950  140.3140 C   0  0  0  0  0  0  0  0  0  0  0  0
  192.0080  177.4010  139.0660 C   0  0  0  0  0  2  0  0  0  0  0  0
  192.1170  174.5660  136.3870 N   0  0  0  0  0  0  0  0  0  0  0  0
  191.9310  175.8950  137.0750 C   0  0  1  0  0  0  0  0  0  0  0  0
  191.1450  174.6970  137.4410 C   0  0  0  0  0  2  0  0  0  0  0  0
  193.1260  173.8310  136.9250 O   0  0  0  0  0  1  0  0  0  0  0  0
  192.5310  176.0980  138.4810 C   0  0  1  0  0  3  0  0  0  0  0  0
  193.3770  176.3890  137.3140 C   0  0  0  0  0  2  0  0  0  0  0  0
  183.4330  179.0150  145.6620 O   0  0  0  0  0  0  0  0  0  0  0  0
  182.2740  179.0010  143.4160 N   0  0  0  0  0  0  0  0  0  0  0  0
  182.8050  179.0080  144.4440 C   0  0  0  0  0  0  0  0  0  0  0  0
  1  5  2  0  0  0  0
  2  3  2  0  0  0  0
  2 10  1  0  0  0  0
  3 13  1  0  0  0  0
  5 11  1  0  0  0  0
  7  6  1  0  0  0  0
  7 11  2  0  0  0  0
  8  4  2  0  0  0  0
  9 10  2  0  0  0  0
  9  1  1  0  0  0  0
 10  7  1  0  0  0  0
 12  3  1  0  0  0  0
 13  8  2  0  0  0  0
 13  6  1  0  0  0  0
 14 16  1  0  0  0  0
 15 18  2  0  0  0  0
 17 12  1  0  0  0  0
 18 14  1  0  0  0  0
 18 17  1  0  0  0  0
 19 14  1  0  0  0  0
 20 23  1  0  0  0  0
 20 21  1  0  0  0  0
 20 22  1  0  0  0  0
 21 25  1  6  0  0  0
 21 22  1  0  0  0  0
 21 24  1  0  0  0  0
 24 19  1  1  0  0  0
 25 24  1  0  0  0  0
 26  1  1  0  0  0  0
 27 28  3  0  0  0  0
 28 26  1  0  0  0  0
M  END
>  <MODEL>
2

>  <REMARK>
 VINA RESULT:      -8.3      3.336      5.427
  Name = 
  5 active torsions:
  status: ('A' for Active; 'I' for Inactive)
    1  A    between atoms: N_1  and  C_14
    2  A    between atoms: C_2  and  O_19
    3  A    between atoms: C_14  and  C_23
    4  A    between atoms: C_15  and  O_19
    5  A    between atoms: N_24  and  N_25
                            x       y       z     vdW  Elec       q    Type
                         _______ _______ _______ _____ _____    ______ ____

>  <TORSDO>
F 5

$$$$
=
 OpenBabel10222417273D

 28 31  0  0  1  0  0  0  0  0999 V2000
  190.3010  176.7810  146.1570 C   0  0  0  0  0  0  0  0  0  0  0  0
  187.4880  177.9260  143.9950 N   0  0  0  0  0  0  0  0  0  0  0  0
  186.2510  178.3220  144.0450 C   0  0  0  0  0  0  0  0  0  0  0  0
  183.1260  179.1860  145.4510 O   0  0  0  0  0  0  0  0  0  0  0  0
  189.7120  176.8410  147.3810 N   0  0  0  0  0  0  0  0  0  0  0  0
  186.2370  178.0500  146.6290 C   0  0  0  0  0  2  0  0  0  0  0  0
  187.6580  177.6090  146.4330 C   0  0  0  0  0  0  0  0  0  0  0  0
  184.3030  178.8090  145.3990 C   0  0  0  0  0  0  0  0  0  0  0  0
  189.5640  177.1420  145.0180 C   0  0  0  0  0  3  0  0  0  0  0  0
  188.2400  177.5570  145.1560 C   0  0  0  0  0  0  0  0  0  0  0  0
  188.4220  177.2420  147.5410 C   0  0  0  0  0  3  0  0  0  0  0  0
  185.5690  178.6730  142.8370 N   0  0  0  0  0  0  0  0  0  0  0  0
  185.5450  178.4110  145.3450 C   0  0  0  0  0  0  0  0  0  0  0  0
  184.0900  178.9770  140.2940 N   0  0  0  0  0  0  0  0  0  0  0  0
  186.1680  178.6500  139.2800 O   0  0  0  0  0  0  0  0  0  0  0  0
  183.3640  179.0910  141.4330 O   0  0  0  0  0  1  0  0  0  0  0  0
  186.2070  178.5990  141.5920 N   0  0  0  0  0  0  0  0  0  0  0  0
  185.5090  178.7400  140.3500 C   0  0  0  0  0  0  0  0  0  0  0  0
  183.4360  179.0990  138.9910 C   0  0  0  0  0  2  0  0  0  0  0  0
  180.2830  180.9840  137.6740 N   0  0  0  0  0  0  0  0  0  0  0  0
  181.5690  180.2000  137.7490 C   0  0  1  0  0  0  0  0  0  0  0  0
  181.4620  181.5940  138.2300 C   0  0  0  0  0  2  0  0  0  0  0  0
  179.4670  180.7590  138.7380 O   0  0  0  0  0  1  0  0  0  0  0  0
  182.0120  179.6210  139.1080 C   0  0  1  0  0  3  0  0  0  0  0  0
  181.1220  178.8110  138.2650 C   0  0  0  0  0  2  0  0  0  0  0  0
  191.6320  176.3590  146.0650 O   0  0  0  0  0  0  0  0  0  0  0  0
  192.9270  175.4650  148.0440 N   0  0  0  0  0  0  0  0  0  0  0  0
  192.3330  175.8740  147.1380 C   0  0  0  0  0  0  0  0  0  0  0  0
  1  5  2  0  0  0  0
  2  3  2  0  0  0  0
  2 10  1  0  0  0  0
  3 13  1  0  0  0  0
  5 11  1  0  0  0  0
  7  6  1  0  0  0  0
  7 11  2  0  0  0  0
  8  4  2  0  0  0  0
  9 10  2  0  0  0  0
  9  1  1  0  0  0  0
 10  7  1  0  0  0  0
 12  3  1  0  0  0  0
 13  8  2  0  0  0  0
 13  6  1  0  0  0  0
 14 18  1  0  0  0  0
 14 16  1  0  0  0  0
 15 18  2  0  0  0  0
 17 12  2  0  0  0  0
 18 17  1  0  0  0  0
 19 14  1  0  0  0  0
 20 21  1  0  0  0  0
 20 22  1  0  0  0  0
 20 23  1  0  0  0  0
 21 22  1  6  0  0  0
 21 25  1  0  0  0  0
 21 24  1  0  0  0  0
 24 19  1  6  0  0  0
 25 24  1  0  0  0  0
 26  1  1  0  0  0  0
 26 28  1  0  0  0  0
 28 27  3  0  0  0  0
M  END
>  <MODEL>
3

>  <REMARK>
 VINA RESULT:      -8.3      3.370      4.246
  Name = 
  5 active torsions:
  status: ('A' for Active; 'I' for Inactive)
    1  A    between atoms: N_1  and  C_14
    2  A    between atoms: C_2  and  O_19
    3  A    between atoms: C_14  and  C_23
    4  A    between atoms: C_15  and  O_19
    5  A    between atoms: N_24  and  N_25
                            x       y       z     vdW  Elec       q    Type
                         _______ _______ _______ _____ _____    ______ ____

>  <TORSDO>
F 5

$$$$
=
 OpenBabel10222417273D

 28 31  0  0  1  0  0  0  0  0999 V2000
  190.3650  176.7650  146.2840 C   0  0  0  0  0  0  0  0  0  0  0  0
  187.6080  177.9000  144.0450 N   0  0  0  0  0  0  0  0  0  0  0  0
  186.3710  178.2970  144.0620 C   0  0  0  0  0  0  0  0  0  0  0  0
  183.2110  179.1710  145.3840 O   0  0  0  0  0  0  0  0  0  0  0  0
  189.7440  176.8320  147.4930 N   0  0  0  0  0  0  0  0  0  0  0  0
  186.2910  178.0400  146.6460 C   0  0  0  0  0  2  0  0  0  0  0  0
  187.7160  177.5970  146.4890 C   0  0  0  0  0  0  0  0  0  0  0  0
  184.3900  178.7930  145.3640 C   0  0  0  0  0  0  0  0  0  0  0  0
  189.6570  177.1210  145.1250 C   0  0  0  0  0  3  0  0  0  0  0  0
  188.3300  177.5370  145.2280 C   0  0  0  0  0  0  0  0  0  0  0  0
  188.4510  177.2360  147.6180 C   0  0  0  0  0  3  0  0  0  0  0  0
  185.7200  178.6420  142.8360 N   0  0  0  0  0  0  0  0  0  0  0  0
  185.6320  178.3950  145.3440 C   0  0  0  0  0  0  0  0  0  0  0  0
  184.3140  178.9820  140.2560 N   0  0  0  0  0  0  0  0  0  0  0  0
  186.4120  178.6200  139.2950 O   0  0  0  0  0  0  0  0  0  0  0  0
  183.5600  179.1050  141.3750 O   0  0  0  0  0  1  0  0  0  0  0  0
  186.3890  178.5600  141.6070 N   0  0  0  0  0  0  0  0  0  0  0  0
  185.7260  178.7180  140.3480 C   0  0  0  0  0  0  0  0  0  0  0  0
  183.6970  179.1200  138.9360 C   0  0  0  0  0  2  0  0  0  0  0  0
  180.3120  177.2220  138.5230 N   0  0  0  0  0  0  0  0  0  0  0  0
  181.3570  178.3050  138.6210 C   0  0  1  0  0  0  0  0  0  0  0  0
  181.0270  177.4170  139.7560 C   0  0  0  0  0  2  0  0  0  0  0  0
  180.8040  176.0630  138.0080 O   0  0  0  0  0  1  0  0  0  0  0  0
  182.8470  177.9120  138.5690 C   0  0  1  0  0  3  0  0  0  0  0  0
  182.1520  178.1700  137.3000 C   0  0  0  0  0  2  0  0  0  0  0  0
  191.6970  176.3420  146.2290 O   0  0  0  0  0  0  0  0  0  0  0  0
  192.9450  175.4740  148.2490 N   0  0  0  0  0  0  0  0  0  0  0  0
  192.3740  175.8720  147.3250 C   0  0  0  0  0  0  0  0  0  0  0  0
  1  5  2  0  0  0  0
  2  3  2  0  0  0  0
  2 10  1  0  0  0  0
  3 13  1  0  0  0  0
  5 11  1  0  0  0  0
  7  6  1  0  0  0  0
  7 11  2  0  0  0  0
  8  4  2  0  0  0  0
  9 10  2  0  0  0  0
  9  1  1  0  0  0  0
 10  7  1  0  0  0  0
 12  3  1  0  0  0  0
 13  8  2  0  0  0  0
 13  6  1  0  0  0  0
 14 18  1  0  0  0  0
 14 16  1  0  0  0  0
 15 18  2  0  0  0  0
 17 12  2  0  0  0  0
 18 17  1  0  0  0  0
 19 14  1  0  0  0  0
 20 21  1  0  0  0  0
 20 22  1  0  0  0  0
 21 25  1  1  0  0  0
 21 22  1  0  0  0  0
 23 20  1  0  0  0  0
 24 21  1  0  0  0  0
 24 19  1  1  0  0  0
 25 24  1  0  0  0  0
 26  1  1  0  0  0  0
 26 28  1  0  0  0  0
 28 27  3  0  0  0  0
M  END
>  <MODEL>
4

>  <REMARK>
 VINA RESULT:      -8.2      3.037      3.728
  Name = 
  5 active torsions:
  status: ('A' for Active; 'I' for Inactive)
    1  A    between atoms: N_1  and  C_14
    2  A    between atoms: C_2  and  O_19
    3  A    between atoms: C_14  and  C_23
    4  A    between atoms: C_15  and  O_19
    5  A    between atoms: N_24  and  N_25
                            x       y       z     vdW  Elec       q    Type
                         _______ _______ _______ _____ _____    ______ ____

>  <TORSDO>
F 5

$$$$
=
 OpenBabel10222417273D

 28 31  0  0  1  0  0  0  0  0999 V2000
  184.7170  178.6240  145.3520 C   0  0  0  0  0  0  0  0  0  0  0  0
  187.3860  177.9030  142.8500 N   0  0  0  0  0  0  0  0  0  0  0  0
  188.6090  177.4760  142.7500 C   0  0  0  0  0  0  0  0  0  0  0  0
  191.7640  176.2540  143.7730 O   0  0  0  0  0  0  0  0  0  0  0  0
  185.3600  178.2870  146.5020 N   0  0  0  0  0  0  0  0  0  0  0  0
  188.7510  177.1850  145.3280 C   0  0  0  0  0  2  0  0  0  0  0  0
  187.3390  177.6910  145.3050 C   0  0  0  0  0  0  0  0  0  0  0  0
  190.5990  176.6620  143.8650 C   0  0  0  0  0  0  0  0  0  0  0  0
  185.3880  178.4980  144.1250 C   0  0  0  0  0  3  0  0  0  0  0  0
  186.7010  178.0310  144.1020 C   0  0  0  0  0  0  0  0  0  0  0  0
  186.6400  177.8290  146.5050 C   0  0  0  0  0  3  0  0  0  0  0  0
  189.2220  177.3770  141.4610 N   0  0  0  0  0  2  0  0  0  0  0  0
  189.3700  177.0920  143.9620 C   0  0  0  0  0  0  0  0  0  0  0  0
  190.0170  176.3730  138.7950 N   0  0  0  0  0  0  0  0  0  0  0  0
  188.2230  177.6430  138.0050 O   0  0  0  0  0  0  0  0  0  0  0  0
  190.7520  175.9380  139.8480 O   0  0  0  0  0  1  0  0  0  0  0  0
  188.5310  177.7330  140.2950 N   0  0  0  0  0  2  0  0  0  0  0  0
  188.9020  177.2610  138.9950 C   0  0  0  0  0  0  0  0  0  0  0  0
  190.3500  175.9390  137.4380 C   0  0  0  0  0  2  0  0  0  0  0  0
  194.1350  175.4130  136.6470 N   0  0  0  0  0  0  0  0  0  0  0  0
  192.6570  175.1870  136.8450 C   0  0  1  0  0  0  0  0  0  0  0  0
  193.5570  175.5590  137.9570 C   0  0  0  0  0  2  0  0  0  0  0  0
  194.4250  176.6790  136.2450 O   0  0  0  0  0  1  0  0  0  0  0  0
  191.7300  176.4090  137.0050 C   0  0  1  0  0  3  0  0  0  0  0  0
  192.0110  175.9240  135.6460 C   0  0  0  0  0  2  0  0  0  0  0  0
  183.3990  179.0880  145.4220 O   0  0  0  0  0  0  0  0  0  0  0  0
  181.7990  178.9760  143.4680 N   0  0  0  0  0  0  0  0  0  0  0  0
  182.5320  179.0270  144.3620 C   0  0  0  0  0  0  0  0  0  0  0  0
  1 26  1  0  0  0  0
  1  5  2  0  0  0  0
  2 10  1  0  0  0  0
  3  2  2  0  0  0  0
  3 13  1  0  0  0  0
  4  8  2  0  0  0  0
  5 11  1  0  0  0  0
  7  6  1  0  0  0  0
  7 11  2  0  0  0  0
  8 13  2  0  0  0  0
  9  1  1  0  0  0  0
 10  9  2  0  0  0  0
 10  7  1  0  0  0  0
 12  3  1  0  0  0  0
 13  6  1  0  0  0  0
 14 18  1  0  0  0  0
 14 16  1  0  0  0  0
 15 18  2  0  0  0  0
 17 12  1  0  0  0  0
 18 17  1  0  0  0  0
 19 14  1  0  0  0  0
 20 21  1  0  0  0  0
 20 22  1  0  0  0  0
 21 25  1  6  0  0  0
 21 24  1  0  0  0  0
 21 22  1  0  0  0  0
 23 20  1  0  0  0  0
 24 19  1  1  0  0  0
 25 24  1  0  0  0  0
 27 28  3  0  0  0  0
 28 26  1  0  0  0  0
M  END
>  <MODEL>
5

>  <REMARK>
 VINA RESULT:      -8.2      3.240      5.521
  Name = 
  5 active torsions:
  status: ('A' for Active; 'I' for Inactive)
    1  A    between atoms: N_1  and  C_14
    2  A    between atoms: C_2  and  O_19
    3  A    between atoms: C_14  and  C_23
    4  A    between atoms: C_15  and  O_19
    5  A    between atoms: N_24  and  N_25
                            x       y       z     vdW  Elec       q    Type
                         _______ _______ _______ _____ _____    ______ ____

>  <TORSDO>
F 5

$$$$
=
 OpenBabel10222417273D

 28 31  0  0  1  0  0  0  0  0999 V2000
  193.6210  175.7050  137.3250 C   0  0  0  0  0  0  0  0  0  0  0  0
  191.3950  177.0670  139.9870 N   0  0  0  0  0  0  0  0  0  0  0  0
  190.1940  177.5220  140.1870 C   0  0  0  0  0  0  0  0  0  0  0  0
  186.8740  178.4860  139.4500 O   0  0  0  0  0  0  0  0  0  0  0  0
  192.7820  175.7490  136.2550 N   0  0  0  0  0  0  0  0  0  0  0  0
  189.6060  177.1540  137.6830 C   0  0  0  0  0  2  0  0  0  0  0  0
  191.0170  176.6520  137.5870 C   0  0  0  0  0  0  0  0  0  0  0  0
  188.0190  178.0540  139.2640 C   0  0  0  0  0  0  0  0  0  0  0  0
  193.1650  176.1450  138.5770 C   0  0  0  0  0  3  0  0  0  0  0  0
  191.8610  176.6190  138.7090 C   0  0  0  0  0  0  0  0  0  0  0  0
  191.5050  176.2070  136.3590 C   0  0  0  0  0  3  0  0  0  0  0  0
  189.8060  177.9500  141.4950 N   0  0  0  0  0  2  0  0  0  0  0  0
  189.2260  177.5980  139.0670 C   0  0  0  0  0  0  0  0  0  0  0  0
  188.8990  177.3750  144.2510 N   0  0  0  0  0  0  0  0  0  0  0  0
  191.1520  177.5960  144.8230 O   0  0  0  0  0  0  0  0  0  0  0  0
  187.9430  177.3820  143.2890 O   0  0  0  0  0  1  0  0  0  0  0  0
  190.6970  177.8920  142.5750 N   0  0  0  0  0  2  0  0  0  0  0  0
  190.2770  177.6190  143.9170 C   0  0  0  0  0  0  0  0  0  0  0  0
  188.5360  177.1150  145.6450 C   0  0  0  0  0  2  0  0  0  0  0  0
  185.1700  178.6280  146.9120 N   0  0  0  0  0  0  0  0  0  0  0  0
  186.2700  177.6670  146.5400 C   0  0  1  0  0  0  0  0  0  0  0  0
  185.5760  178.5030  145.5370 C   0  0  0  0  0  2  0  0  0  0  0  0
  185.6420  179.8390  147.3120 O   0  0  0  0  0  1  0  0  0  0  0  0
  187.6750  178.2230  146.2320 C   0  0  1  0  0  3  0  0  0  0  0  0
  187.3460  177.9010  147.6280 C   0  0  0  0  0  2  0  0  0  0  0  0
  194.9220  175.2210  137.1460 O   0  0  0  0  0  0  0  0  0  0  0  0
  195.9510  173.4670  138.6480 N   0  0  0  0  0  0  0  0  0  0  0  0
  195.4790  174.2700  137.9610 C   0  0  0  0  0  0  0  0  0  0  0  0
  1  9  1  0  0  0  0
  2  3  2  0  0  0  0
  3 12  1  0  0  0  0
  5 11  1  0  0  0  0
  5  1  2  0  0  0  0
  6 13  1  0  0  0  0
  7  6  1  0  0  0  0
  7 10  1  0  0  0  0
  8  4  2  0  0  0  0
  9 10  2  0  0  0  0
 10  2  1  0  0  0  0
 11  7  2  0  0  0  0
 12 17  1  0  0  0  0
 13  8  2  0  0  0  0
 13  3  1  0  0  0  0
 14 19  1  0  0  0  0
 16 14  1  0  0  0  0
 17 18  1  0  0  0  0
 18 14  1  0  0  0  0
 18 15  2  0  0  0  0
 20 23  1  0  0  0  0
 21 22  1  6  0  0  0
 21 20  1  0  0  0  0
 21 25  1  0  0  0  0
 22 20  1  0  0  0  0
 24 19  1  6  0  0  0
 24 21  1  0  0  0  0
 24 25  1  0  0  0  0
 26  1  1  0  0  0  0
 26 28  1  0  0  0  0
 28 27  3  0  0  0  0
M  END
>  <MODEL>
6

>  <REMARK>
 VINA RESULT:      -8.0      3.593      8.656
  Name = 
  5 active torsions:
  status: ('A' for Active; 'I' for Inactive)
    1  A    between atoms: N_1  and  C_14
    2  A    between atoms: C_2  and  O_19
    3  A    between atoms: C_14  and  C_23
    4  A    between atoms: C_15  and  O_19
    5  A    between atoms: N_24  and  N_25
                            x       y       z     vdW  Elec       q    Type
                         _______ _______ _______ _____ _____    ______ ____

>  <TORSDO>
F 5

$$$$
=
 OpenBabel10222417273D

 28 31  0  0  1  0  0  0  0  0999 V2000
  188.6070  177.2110  146.7730 C   0  0  0  0  0  0  0  0  0  0  0  0
  188.2720  177.7890  143.1050 N   0  0  0  0  0  0  0  0  0  0  0  0
  187.4120  178.1420  142.1970 C   0  0  0  0  0  0  0  0  0  0  0  0
  184.3290  179.1610  140.8010 O   0  0  0  0  0  0  0  0  0  0  0  0
  187.3420  177.4980  147.1850 N   0  0  0  0  0  0  0  0  0  0  0  0
  185.5640  178.4020  144.0040 C   0  0  0  0  0  2  0  0  0  0  0  0
  186.6490  177.9830  144.9500 C   0  0  0  0  0  0  0  0  0  0  0  0
  185.1500  178.8240  141.6630 C   0  0  0  0  0  0  0  0  0  0  0  0
  188.9260  177.3060  145.4090 C   0  0  0  0  0  3  0  0  0  0  0  0
  187.9460  177.6920  144.4970 C   0  0  0  0  0  0  0  0  0  0  0  0
  186.3690  177.8770  146.3130 C   0  0  0  0  0  3  0  0  0  0  0  0
  187.8180  178.2150  140.8270 N   0  0  0  0  0  0  0  0  0  0  0  0
  186.0160  178.4690  142.5730 C   0  0  0  0  0  0  0  0  0  0  0  0
  188.6650  178.2580  137.9930 N   0  0  0  0  0  0  0  0  0  0  0  0
  190.7570  177.6290  138.8190 O   0  0  0  0  0  0  0  0  0  0  0  0
  187.3750  178.5920  138.2440 O   0  0  0  0  0  1  0  0  0  0  0  0
  189.1290  177.9120  140.4370 N   0  0  0  0  0  0  0  0  0  0  0  0
  189.5580  177.9230  139.0710 C   0  0  0  0  0  0  0  0  0  0  0  0
  189.1650  178.2390  136.6180 C   0  0  0  0  0  2  0  0  0  0  0  0
  187.3300  175.0420  135.3370 N   0  0  0  0  0  0  0  0  0  0  0  0
  187.6520  176.4630  135.7260 C   0  0  1  0  0  0  0  0  0  0  0  0
  187.6110  175.3610  136.7110 C   0  0  0  0  0  2  0  0  0  0  0  0
  188.4200  174.3560  134.9020 O   0  0  0  0  0  1  0  0  0  0  0  0
  189.1190  176.8450  136.0090 C   0  0  1  0  0  3  0  0  0  0  0  0
  188.6320  176.9320  134.6240 C   0  0  0  0  0  2  0  0  0  0  0  0
  189.5580  176.8280  147.7240 O   0  0  0  0  0  0  0  0  0  0  0  0
  191.9700  176.3490  147.1330 N   0  0  0  0  0  0  0  0  0  0  0  0
  190.8660  176.5680  147.4040 C   0  0  0  0  0  0  0  0  0  0  0  0
  1  5  2  0  0  0  0
  1 26  1  0  0  0  0
  2 10  1  0  0  0  0
  3 13  1  0  0  0  0
  3  2  2  0  0  0  0
  4  8  2  0  0  0  0
  6  7  1  0  0  0  0
  7 11  2  0  0  0  0
  8 13  2  0  0  0  0
  9  1  1  0  0  0  0
 10  7  1  0  0  0  0
 10  9  2  0  0  0  0
 11  5  1  0  0  0  0
 12  3  1  0  0  0  0
 13  6  1  0  0  0  0
 14 16  1  0  0  0  0
 14 18  1  0  0  0  0
 15 18  2  0  0  0  0
 17 12  2  0  0  0  0
 18 17  1  0  0  0  0
 19 14  1  0  0  0  0
 20 21  1  0  0  0  0
 20 22  1  0  0  0  0
 21 25  1  6  0  0  0
 21 24  1  0  0  0  0
 21 22  1  0  0  0  0
 23 20  1  0  0  0  0
 24 19  1  1  0  0  0
 25 24  1  0  0  0  0
 27 28  3  0  0  0  0
 28 26  1  0  0  0  0
M  END
>  <MODEL>
7

>  <REMARK>
 VINA RESULT:      -8.0      1.281      1.414
  Name = 
  5 active torsions:
  status: ('A' for Active; 'I' for Inactive)
    1  A    between atoms: N_1  and  C_14
    2  A    between atoms: C_2  and  O_19
    3  A    between atoms: C_14  and  C_23
    4  A    between atoms: C_15  and  O_19
    5  A    between atoms: N_24  and  N_25
                            x       y       z     vdW  Elec       q    Type
                         _______ _______ _______ _____ _____    ______ ____

>  <TORSDO>
F 5

$$$$
=
 OpenBabel10222417273D

 28 31  0  0  1  0  0  0  0  0999 V2000
  184.6470  178.6040  145.3170 C   0  0  0  0  0  0  0  0  0  0  0  0
  187.2810  177.9400  142.7630 N   0  0  0  0  0  0  0  0  0  0  0  0
  188.5060  177.5250  142.6370 C   0  0  0  0  0  0  0  0  0  0  0  0
  191.6880  176.3190  143.5920 O   0  0  0  0  0  0  0  0  0  0  0  0
  185.3110  178.2580  146.4520 N   0  0  0  0  0  0  0  0  0  0  0  0
  188.6930  177.2020  145.2080 C   0  0  0  0  0  2  0  0  0  0  0  0
  187.2760  177.6960  145.2150 C   0  0  0  0  0  0  0  0  0  0  0  0
  190.5210  176.7150  143.7090 C   0  0  0  0  0  0  0  0  0  0  0  0
  185.2990  178.5000  144.0780 C   0  0  0  0  0  3  0  0  0  0  0  0
  186.6160  178.0460  144.0270 C   0  0  0  0  0  0  0  0  0  0  0  0
  186.5960  177.8120  146.4280 C   0  0  0  0  0  3  0  0  0  0  0  0
  189.0990  177.4490  141.3370 N   0  0  0  0  0  2  0  0  0  0  0  0
  189.2900  177.1320  143.8310 C   0  0  0  0  0  0  0  0  0  0  0  0
  189.8270  176.4470  138.6510 N   0  0  0  0  0  0  0  0  0  0  0  0
  188.0270  177.7330  137.9040 O   0  0  0  0  0  0  0  0  0  0  0  0
  190.5810  176.0030  139.6870 O   0  0  0  0  0  1  0  0  0  0  0  0
  188.3850  177.8140  140.1880 N   0  0  0  0  0  2  0  0  0  0  0  0
  188.7240  177.3430  138.8790 C   0  0  0  0  0  0  0  0  0  0  0  0
  190.1270  176.0140  137.2860 C   0  0  0  0  0  2  0  0  0  0  0  0
  187.5740  173.5900  135.6020 N   0  0  0  0  0  0  0  0  0  0  0  0
  188.4520  174.7780  135.9050 C   0  0  1  0  0  0  0  0  0  0  0  0
  187.3460  174.3620  136.7950 C   0  0  0  0  0  2  0  0  0  0  0  0
  188.1080  172.4170  136.0350 O   0  0  0  0  0  1  0  0  0  0  0  0
  189.5500  174.6400  136.9790 C   0  0  1  0  0  3  0  0  0  0  0  0
  189.8790  174.2680  135.5950 C   0  0  0  0  0  2  0  0  0  0  0  0
  183.3260  179.0550  145.4150 O   0  0  0  0  0  0  0  0  0  0  0  0
  181.7110  179.0030  143.4710 N   0  0  0  0  0  0  0  0  0  0  0  0
  182.4510  179.0260  144.3600 C   0  0  0  0  0  0  0  0  0  0  0  0
  1 26  1  0  0  0  0
  1  5  2  0  0  0  0
  2 10  1  0  0  0  0
  3  2  2  0  0  0  0
  3 13  1  0  0  0  0
  4  8  2  0  0  0  0
  6  7  1  0  0  0  0
  7 11  2  0  0  0  0
  8 13  2  0  0  0  0
  9  1  1  0  0  0  0
 10  9  2  0  0  0  0
 10  7  1  0  0  0  0
 11  5  1  0  0  0  0
 12  3  1  0  0  0  0
 13  6  1  0  0  0  0
 14 18  1  0  0  0  0
 14 16  1  0  0  0  0
 15 18  2  0  0  0  0
 17 12  1  0  0  0  0
 18 17  1  0  0  0  0
 19 14  1  0  0  0  0
 20 21  1  0  0  0  0
 20 23  1  0  0  0  0
 20 22  1  0  0  0  0
 21 25  1  6  0  0  0
 21 22  1  0  0  0  0
 21 24  1  0  0  0  0
 24 19  1  6  0  0  0
 25 24  1  0  0  0  0
 27 28  3  0  0  0  0
 28 26  1  0  0  0  0
M  END
>  <MODEL>
8

>  <REMARK>
 VINA RESULT:      -7.8      2.818      4.818
  Name = 
  5 active torsions:
  status: ('A' for Active; 'I' for Inactive)
    1  A    between atoms: N_1  and  C_14
    2  A    between atoms: C_2  and  O_19
    3  A    between atoms: C_14  and  C_23
    4  A    between atoms: C_15  and  O_19
    5  A    between atoms: N_24  and  N_25
                            x       y       z     vdW  Elec       q    Type
                         _______ _______ _______ _____ _____    ______ ____

>  <TORSDO>
F 5

$$$$
=
 OpenBabel10222417273D

 28 31  0  0  1  0  0  0  0  0999 V2000
  189.6410  177.1320  145.7250 C   0  0  0  0  0  0  0  0  0  0  0  0
  186.9000  178.2110  143.4400 N   0  0  0  0  0  0  0  0  0  0  0  0
  185.6490  178.5650  143.4340 C   0  0  0  0  0  0  0  0  0  0  0  0
  182.4310  179.3060  144.6940 O   0  0  0  0  0  0  0  0  0  0  0  0
  188.9900  177.1560  146.9190 N   0  0  0  0  0  0  0  0  0  0  0  0
  185.5180  178.2590  146.0110 C   0  0  0  0  0  2  0  0  0  0  0  0
  186.9610  177.8690  145.8800 C   0  0  0  0  0  0  0  0  0  0  0  0
  183.6220  178.9700  144.6970 C   0  0  0  0  0  0  0  0  0  0  0  0
  188.9480  177.4840  144.5550 C   0  0  0  0  0  3  0  0  0  0  0  0
  187.6060  177.8520  144.6330 C   0  0  0  0  0  0  0  0  0  0  0  0
  187.6820  177.5120  147.0200 C   0  0  0  0  0  3  0  0  0  0  0  0
  185.0160  178.9090  142.1990 N   0  0  0  0  0  0  0  0  0  0  0  0
  184.8780  178.6140  144.6990 C   0  0  0  0  0  0  0  0  0  0  0  0
  183.6300  178.8690  139.5860 N   0  0  0  0  0  0  0  0  0  0  0  0
  185.7790  178.8090  138.6740 O   0  0  0  0  0  0  0  0  0  0  0  0
  182.8410  178.9270  140.6870 O   0  0  0  0  0  1  0  0  0  0  0  0
  185.7150  178.8730  140.9850 N   0  0  0  0  0  0  0  0  0  0  0  0
  185.0640  178.8500  139.7110 C   0  0  0  0  0  0  0  0  0  0  0  0
  183.0280  178.8300  138.2520 C   0  0  0  0  0  2  0  0  0  0  0  0
  181.7860  175.1470  137.9010 N   0  0  0  0  0  0  0  0  0  0  0  0
  181.8490  176.6290  138.1740 C   0  0  1  0  0  0  0  0  0  0  0  0
  182.6630  175.6500  138.9260 C   0  0  0  0  0  2  0  0  0  0  0  0
  182.6090  174.7630  136.8890 O   0  0  0  0  0  1  0  0  0  0  0  0
  183.0560  177.4330  137.6490 C   0  0  1  0  0  3  0  0  0  0  0  0
  181.8970  177.2600  136.7610 C   0  0  0  0  0  2  0  0  0  0  0  0
  190.9880  176.7550  145.6940 O   0  0  0  0  0  0  0  0  0  0  0  0
  192.2730  176.0860  147.7660 N   0  0  0  0  0  0  0  0  0  0  0  0
  191.6840  176.3920  146.8180 C   0  0  0  0  0  0  0  0  0  0  0  0
  1  5  2  0  0  0  0
  2 10  1  0  0  0  0
  3  2  2  0  0  0  0
  3 13  1  0  0  0  0
  4  8  2  0  0  0  0
  5 11  1  0  0  0  0
  7  6  1  0  0  0  0
  7 11  2  0  0  0  0
  8 13  2  0  0  0  0
  9 10  2  0  0  0  0
  9  1  1  0  0  0  0
 10  7  1  0  0  0  0
 12  3  1  0  0  0  0
 13  6  1  0  0  0  0
 14 18  1  0  0  0  0
 14 16  1  0  0  0  0
 15 18  2  0  0  0  0
 17 12  2  0  0  0  0
 18 17  1  0  0  0  0
 19 14  1  0  0  0  0
 20 21  1  0  0  0  0
 20 22  1  0  0  0  0
 21 25  1  1  0  0  0
 21 22  1  0  0  0  0
 23 20  1  0  0  0  0
 24 21  1  0  0  0  0
 24 19  1  1  0  0  0
 25 24  1  0  0  0  0
 26  1  1  0  0  0  0
 26 28  1  0  0  0  0
 28 27  3  0  0  0  0
M  END
>  <MODEL>
9

>  <REMARK>
 VINA RESULT:      -7.8      3.006      3.587
  Name = 
  5 active torsions:
  status: ('A' for Active; 'I' for Inactive)
    1  A    between atoms: N_1  and  C_14
    2  A    between atoms: C_2  and  O_19
    3  A    between atoms: C_14  and  C_23
    4  A    between atoms: C_15  and  O_19
    5  A    between atoms: N_24  and  N_25
                            x       y       z     vdW  Elec       q    Type
                         _______ _______ _______ _____ _____    ______ ____

>  <TORSDO>
F 5

$$$$
