=
 OpenBabel10222420563D

 56 63  0  0  1  0  0  0  0  0999 V2000
  189.1430  177.2050  141.6580 C   0  0  0  0  0  0  0  0  0  0  0  0
  187.0640  177.9420  142.6390 C   0  0  0  0  0  0  0  0  0  0  0  0
  187.5290  177.7900  140.1460 N   0  0  0  0  0  0  0  0  0  0  0  0
  189.7280  177.0080  142.9080 C   0  0  0  0  0  3  0  0  0  0  0  0
  187.6290  177.7420  143.9100 C   0  0  0  0  0  3  0  0  0  0  0  0
  188.7180  177.3900  139.3810 C   0  0  0  0  0  3  0  0  0  0  0  0
  189.7330  177.0330  140.3790 N   0  0  0  0  0  0  0  0  0  0  0  0
  188.9540  177.2770  144.0550 C   0  0  0  0  0  0  0  0  0  0  0  0
  187.8670  177.6630  141.5200 C   0  0  0  0  0  0  0  0  0  0  0  0
  192.1250  177.5390  140.1740 C   0  0  0  0  0  2  0  0  0  0  0  0
  191.0460  176.4440  140.1140 C   0  0  2  0  0  3  0  0  0  0  0  0
  192.9830  176.9770  137.8550 C   0  0  2  0  0  3  0  0  0  0  0  0
  191.0500  175.6670  138.7820 C   0  0  0  0  0  2  0  0  0  0  0  0
  193.3470  177.1680  139.3370 C   0  0  0  0  0  2  0  0  0  0  0  0
  191.5300  176.5460  137.6320 C   0  0  0  0  0  2  0  0  0  0  0  0
  193.8720  175.9960  137.2540 N   0  0  0  0  0  2  0  0  0  0  0  0
  193.9770  175.8060  135.8420 C   0  0  0  0  0  0  0  0  0  0  0  0
  193.2680  176.4890  135.0530 O   0  0  0  0  0  0  0  0  0  0  0  0
  195.6090  171.9030  138.4190 O   0  0  0  0  0  1  0  0  0  0  0  0
  196.5250  173.4700  136.8390 C   0  0  1  0  0  3  0  0  0  0  0  0
  195.3060  173.0370  137.6660 C   0  0  1  0  0  3  0  0  0  0  0  0
  194.0700  172.7490  136.8040 C   0  0  0  0  0  2  0  0  0  0  0  0
  194.8370  174.6900  135.3310 C   0  0  2  0  0  3  0  0  0  0  0  0
  194.1550  173.3170  135.3830 C   0  0  0  0  0  2  0  0  0  0  0  0
  196.2070  174.7210  136.0180 C   0  0  0  0  0  2  0  0  0  0  0  0
  197.9580  173.8340  137.8840 S   0  0  2  0  0  3  0  0  0  0  0  0
  198.4560  175.1780  137.3760 O   0  0  0  0  0  1  0  0  0  0  0  0
  199.1800  172.7260  137.3640 O   0  0  0  0  0  0  0  0  0  0  0  0
  199.1050  171.4910  135.4090 O   0  0  0  0  0  0  0  0  0  0  0  0
  198.8710  171.5720  136.6430 C   0  0  0  0  0  3  0  0  0  0  0  0
  189.5270  177.1290  145.4050 C   0  0  0  0  0  0  0  0  0  0  0  0
  190.8920  176.8320  147.1080 C   0  0  0  0  0  0  0  0  0  0  0  0
  190.7910  176.8220  145.6620 C   0  0  0  0  0  3  0  0  0  0  0  0
  192.0900  176.5640  147.8230 N   0  0  0  0  0  1  0  0  0  0  0  0
  189.7870  177.1380  147.6970 N   0  0  0  0  0  0  0  0  0  0  0  0
  188.7780  177.3640  146.6760 C   0  0  0  0  0  2  0  0  0  0  0  0
  185.7210  178.4330  142.5370 N   0  0  0  0  0  2  0  0  0  0  0  0
  185.2990  179.4370  141.5720 C   0  0  0  0  0  2  0  0  0  0  0  0
  183.8800  179.4310  139.4740 C   0  0  0  0  0  0  0  0  0  0  0  0
  184.1950  178.9260  140.7740 N   0  0  0  0  0  2  0  0  0  0  0  0
  184.5440  180.3820  138.9810 O   0  0  0  0  0  0  0  0  0  0  0  0
  182.2710  177.5180  139.2590 C   0  0  2  0  0  3  0  0  0  0  0  0
  182.3120  177.4630  136.6060 C   0  0  0  0  0  2  0  0  0  0  0  0
  182.7260  178.8690  138.6970 C   0  0  2  0  0  3  0  0  0  0  0  0
  180.4710  175.7710  136.1940 C   0  0  0  0  0  2  0  0  0  0  0  0
  180.0850  177.6950  140.4490 C   0  0  0  0  0  2  0  0  0  0  0  0
  183.0520  177.5780  137.9430 C   0  0  1  0  0  0  0  0  0  0  0  0
  179.6630  176.3160  137.3760 C   0  0  0  0  0  2  0  0  0  0  0  0
  179.5730  174.1240  139.8430 C   0  0  0  0  0  1  0  0  0  0  0  0
  180.3500  176.1000  138.6450 N   0  0  2  0  0  0  0  0  0  0  0  0
  181.9770  176.0040  136.3100 C   0  0  0  0  0  2  0  0  0  0  0  0
  179.3620  175.6050  139.5980 C   0  0  2  0  0  3  0  0  0  0  0  0
  179.5460  176.3660  140.8880 C   0  0  0  0  0  2  0  0  0  0  0  0
  180.7530  177.4280  139.1120 C   0  0  2  0  0  3  0  0  0  0  0  0
  185.3200  177.5160  136.8310 C   0  0  0  0  0  1  0  0  0  0  0  0
  184.4930  177.0610  138.0210 C   0  0  0  0  0  2  0  0  0  0  0  0
  1  4  1  0  0  0  0
  2  5  2  0  0  0  0
  3  9  1  0  0  0  0
  4  8  2  0  0  0  0
  5  8  1  0  0  0  0
  6  3  2  0  0  0  0
  6  7  1  0  0  0  0
  7  1  1  0  0  0  0
  8 31  1  0  0  0  0
  9  1  2  0  0  0  0
  9  2  1  0  0  0  0
 11 10  1  0  0  0  0
 11  7  1  0  0  0  0
 12 14  1  0  0  0  0
 13 11  1  0  0  0  0
 14 10  1  0  0  0  0
 15 12  1  0  0  0  0
 15 13  1  0  0  0  0
 16 12  1  0  0  0  0
 17 16  1  0  0  0  0
 18 17  2  0  0  0  0
 20 21  1  0  0  0  0
 20 26  1  1  0  0  0
 21 19  1  6  0  0  0
 22 21  1  0  0  0  0
 23 24  1  0  0  0  0
 23 17  1  1  0  0  0
 23 25  1  0  0  0  0
 24 22  1  0  0  0  0
 25 20  1  0  0  0  0
 26 27  1  6  0  0  0
 28 26  1  0  0  0  0
 29 30  2  0  0  0  0
 30 28  1  0  0  0  0
 31 33  2  0  0  0  0
 31 36  1  0  0  0  0
 32 35  2  0  0  0  0
 32 34  1  0  0  0  0
 33 32  1  0  0  0  0
 36 35  1  0  0  0  0
 37  2  1  0  0  0  0
 38 37  1  0  0  0  0
 39 40  1  0  0  0  0
 40 38  1  0  0  0  0
 41 39  2  0  0  0  0
 43 47  1  0  0  0  0
 44 42  1  0  0  0  0
 44 39  1  0  0  0  0
 45 51  1  0  0  0  0
 45 48  1  0  0  0  0
 46 53  1  0  0  0  0
 47 56  1  0  0  0  0
 47 44  1  0  0  0  0
 47 42  1  0  0  0  0
 48 50  1  0  0  0  0
 50 54  1  0  0  0  0
 50 52  1  0  0  0  0
 51 43  1  0  0  0  0
 52 49  1  0  0  0  0
 52 53  1  0  0  0  0
 54 42  1  0  0  0  0
 54 46  1  0  0  0  0
 55 56  1  0  0  0  0
M  END
>  <MODEL>
1

>  <REMARK>
 VINA RESULT:      -8.6      0.000      0.000
  Name = 
  12 active torsions:
  status: ('A' for Active; 'I' for Inactive)
    1  A    between atoms: N_3  and  C_32
    2  A    between atoms: C_4  and  C_26
    3  A    between atoms: C_5  and  C_22
    4  A    between atoms: N_8  and  C_46
    5  A    between atoms: C_9  and  S_21
    6  A    between atoms: C_11  and  C_42
    7  A    between atoms: C_13  and  N_17
    8  A    between atoms: N_17  and  C_46
    9  A    between atoms: C_18  and  O_56
   10  A    between atoms: S_21  and  O_56
   11  A    between atoms: C_29  and  N_39
   12  A    between atoms: C_31  and  C_40
                            x       y       z     vdW  Elec       q    Type
                         _______ _______ _______ _____ _____    ______ ____

>  <TORSDO>
F 12

$$$$
=
 OpenBabel10222420563D

 56 63  0  0  1  0  0  0  0  0999 V2000
  187.6600  178.0210  139.4430 C   0  0  0  0  0  0  0  0  0  0  0  0
  186.3940  178.7740  141.3560 C   0  0  0  0  0  0  0  0  0  0  0  0
  185.5850  178.8480  138.9500 N   0  0  0  0  0  0  0  0  0  0  0  0
  188.7510  177.6660  140.2350 C   0  0  0  0  0  3  0  0  0  0  0  0
  187.4770  178.4140  142.1760 C   0  0  0  0  0  3  0  0  0  0  0  0
  186.2140  178.4600  137.6800 C   0  0  0  0  0  3  0  0  0  0  0  0
  187.5430  177.9470  138.0320 N   0  0  0  0  0  0  0  0  0  0  0  0
  188.6560  177.8620  141.6280 C   0  0  0  0  0  0  0  0  0  0  0  0
  186.5280  178.5630  139.9740 C   0  0  0  0  0  0  0  0  0  0  0  0
  188.1270  175.8340  136.9310 C   0  0  0  0  0  2  0  0  0  0  0  0
  188.5010  177.3130  137.1250 C   0  0  2  0  0  3  0  0  0  0  0  0
  190.4310  175.0420  137.6340 C   0  0  2  0  0  3  0  0  0  0  0  0
  189.9490  177.5090  137.6190 C   0  0  0  0  0  2  0  0  0  0  0  0
  189.3430  174.9930  136.5480 C   0  0  0  0  0  2  0  0  0  0  0  0
  190.4070  176.3270  138.4680 C   0  0  0  0  0  2  0  0  0  0  0  0
  191.7420  174.8940  137.0220 N   0  0  0  0  0  2  0  0  0  0  0  0
  192.1040  173.7660  136.2250 C   0  0  0  0  0  0  0  0  0  0  0  0
  191.2810  172.8270  136.0400 O   0  0  0  0  0  0  0  0  0  0  0  0
  195.7540  171.1190  138.2760 O   0  0  0  0  0  1  0  0  0  0  0  0
  195.4940  173.3230  137.3450 C   0  0  1  0  0  3  0  0  0  0  0  0
  194.8220  171.9940  137.7210 C   0  0  1  0  0  3  0  0  0  0  0  0
  194.1420  171.3090  136.5270 C   0  0  0  0  0  2  0  0  0  0  0  0
  193.5160  173.6560  135.7360 C   0  0  2  0  0  3  0  0  0  0  0  0
  193.9150  172.2330  135.3260 C   0  0  0  0  0  2  0  0  0  0  0  0
  194.4770  174.2950  136.7450 C   0  0  0  0  0  2  0  0  0  0  0  0
  196.2580  174.1230  138.7770 S   0  0  2  0  0  3  0  0  0  0  0  0
  195.3090  175.2630  139.1160 O   0  0  0  0  0  1  0  0  0  0  0  0
  197.6500  174.9310  138.1440 O   0  0  0  0  0  0  0  0  0  0  0  0
  197.5450  176.0900  136.1440 O   0  0  0  0  0  0  0  0  0  0  0  0
  197.8740  175.0500  136.7720 C   0  0  0  0  0  3  0  0  0  0  0  0
  189.7880  177.5450  142.5160 C   0  0  0  0  0  0  0  0  0  0  0  0
  191.0550  177.1110  144.2650 C   0  0  0  0  0  0  0  0  0  0  0  0
  189.7240  177.4980  143.8390 C   0  0  0  0  0  2  0  0  0  0  0  0
  191.4320  176.9270  145.6230 N   0  0  0  0  0  1  0  0  0  0  0  0
  191.8700  176.9170  143.2860 N   0  0  0  0  0  0  0  0  0  0  0  0
  191.1580  177.1740  142.0460 C   0  0  0  0  0  3  0  0  0  0  0  0
  185.2230  179.3480  141.9520 N   0  0  0  0  0  2  0  0  0  0  0  0
  184.0390  178.5820  142.3090 C   0  0  0  0  0  2  0  0  0  0  0  0
  182.0520  178.4440  140.7450 C   0  0  0  0  0  0  0  0  0  0  0  0
  183.3880  178.0840  141.1080 N   0  0  0  0  0  2  0  0  0  0  0  0
  181.3700  179.1970  141.4900 O   0  0  0  0  0  0  0  0  0  0  0  0
  182.4800  177.6000  138.4210 C   0  0  2  0  0  3  0  0  0  0  0  0
  180.3430  178.7490  137.3480 C   0  0  0  0  0  2  0  0  0  0  0  0
  181.4290  177.8950  139.4960 C   0  0  2  0  0  3  0  0  0  0  0  0
  180.4390  177.7270  135.0300 C   0  0  0  0  0  2  0  0  0  0  0  0
  182.8370  175.1480  138.1200 C   0  0  0  0  0  2  0  0  0  0  0  0
  181.5590  178.8140  138.2780 C   0  0  1  0  0  0  0  0  0  0  0  0
  180.9310  176.3950  135.6040 C   0  0  0  0  0  2  0  0  0  0  0  0
  184.0690  175.8380  134.7460 C   0  0  0  0  0  1  0  0  0  0  0  0
  182.2490  176.5240  136.2150 N   0  0  2  0  0  0  0  0  0  0  0  0
  180.7770  178.9400  135.8970 C   0  0  0  0  0  2  0  0  0  0  0  0
  183.0490  175.3870  135.7730 C   0  0  2  0  0  3  0  0  0  0  0  0
  183.7570  174.8240  136.9800 C   0  0  0  0  0  2  0  0  0  0  0  0
  182.0410  176.3540  137.6540 C   0  0  2  0  0  3  0  0  0  0  0  0
  181.2260  181.3020  138.5730 C   0  0  0  0  0  1  0  0  0  0  0  0
  182.2390  180.1720  138.4900 C   0  0  0  0  0  2  0  0  0  0  0  0
  1  9  2  0  0  0  0
  1  4  1  0  0  0  0
  2 37  1  0  0  0  0
  2  5  2  0  0  0  0
  3  9  1  0  0  0  0
  4  8  2  0  0  0  0
  6  7  1  0  0  0  0
  6  3  2  0  0  0  0
  7  1  1  0  0  0  0
  8  5  1  0  0  0  0
  8 31  1  0  0  0  0
  9  2  1  0  0  0  0
 10 11  1  0  0  0  0
 11 13  1  0  0  0  0
 11  7  1  0  0  0  0
 12 15  1  0  0  0  0
 13 15  1  0  0  0  0
 14 10  1  0  0  0  0
 14 12  1  0  0  0  0
 16 12  1  0  0  0  0
 17 16  1  0  0  0  0
 18 17  2  0  0  0  0
 20 21  1  0  0  0  0
 20 26  1  1  0  0  0
 21 19  1  6  0  0  0
 22 21  1  0  0  0  0
 23 17  1  1  0  0  0
 23 25  1  0  0  0  0
 24 23  1  0  0  0  0
 24 22  1  0  0  0  0
 25 20  1  0  0  0  0
 26 27  1  6  0  0  0
 28 26  1  0  0  0  0
 29 30  2  0  0  0  0
 30 28  1  0  0  0  0
 31 33  1  0  0  0  0
 32 34  1  0  0  0  0
 33 32  1  0  0  0  0
 35 32  2  0  0  0  0
 36 31  2  0  0  0  0
 36 35  1  0  0  0  0
 37 38  1  0  0  0  0
 39 40  1  0  0  0  0
 39 41  2  0  0  0  0
 40 38  1  0  0  0  0
 42 44  1  0  0  0  0
 43 47  1  0  0  0  0
 44 39  1  0  0  0  0
 45 48  1  0  0  0  0
 45 51  1  0  0  0  0
 47 42  1  0  0  0  0
 47 56  1  0  0  0  0
 47 44  1  0  0  0  0
 48 50  1  0  0  0  0
 49 52  1  0  0  0  0
 50 54  1  0  0  0  0
 51 43  1  0  0  0  0
 52 50  1  0  0  0  0
 52 53  1  0  0  0  0
 53 46  1  0  0  0  0
 54 46  1  0  0  0  0
 54 42  1  0  0  0  0
 56 55  1  0  0  0  0
M  END
>  <MODEL>
2

>  <REMARK>
 VINA RESULT:      -8.1      2.158      3.270
  Name = 
  12 active torsions:
  status: ('A' for Active; 'I' for Inactive)
    1  A    between atoms: N_3  and  C_32
    2  A    between atoms: C_4  and  C_26
    3  A    between atoms: C_5  and  C_22
    4  A    between atoms: N_8  and  C_46
    5  A    between atoms: C_9  and  S_21
    6  A    between atoms: C_11  and  C_42
    7  A    between atoms: C_13  and  N_17
    8  A    between atoms: N_17  and  C_46
    9  A    between atoms: C_18  and  O_56
   10  A    between atoms: S_21  and  O_56
   11  A    between atoms: C_29  and  N_39
   12  A    between atoms: C_31  and  C_40
                            x       y       z     vdW  Elec       q    Type
                         _______ _______ _______ _____ _____    ______ ____

>  <TORSDO>
F 12

$$$$
=
 OpenBabel10222420563D

 56 63  0  0  1  0  0  0  0  0999 V2000
  187.4510  177.1700  137.5850 C   0  0  0  0  0  0  0  0  0  0  0  0
  185.7400  178.2900  138.8680 C   0  0  0  0  0  0  0  0  0  0  0  0
  188.2360  178.4490  139.3110 N   0  0  0  0  0  0  0  0  0  0  0  0
  186.5090  176.5690  136.7500 C   0  0  0  0  0  3  0  0  0  0  0  0
  184.7740  177.7050  138.0330 C   0  0  0  0  0  3  0  0  0  0  0  0
  189.4000  177.8340  138.6590 C   0  0  0  0  0  3  0  0  0  0  0  0
  188.8600  177.0140  137.5680 N   0  0  0  0  0  0  0  0  0  0  0  0
  185.1450  176.8460  136.9760 C   0  0  0  0  0  0  0  0  0  0  0  0
  187.0880  177.9900  138.6110 C   0  0  0  0  0  0  0  0  0  0  0  0
  189.2810  174.8110  136.5740 C   0  0  0  0  0  2  0  0  0  0  0  0
  189.6310  176.3090  136.5430 C   0  0  2  0  0  3  0  0  0  0  0  0
  191.7100  174.1340  136.8450 C   0  0  2  0  0  3  0  0  0  0  0  0
  191.1420  176.5780  136.6990 C   0  0  0  0  0  2  0  0  0  0  0  0
  190.4220  173.9570  136.0240 C   0  0  0  0  0  2  0  0  0  0  0  0
  191.8110  175.4960  137.5410 C   0  0  0  0  0  2  0  0  0  0  0  0
  192.8690  173.9470  135.9870 N   0  0  0  0  0  2  0  0  0  0  0  0
  193.3270  172.6610  135.5710 C   0  0  0  0  0  0  0  0  0  0  0  0
  192.7360  171.6170  135.9620 O   0  0  0  0  0  0  0  0  0  0  0  0
  197.9440  172.9640  137.3400 O   0  0  0  0  0  1  0  0  0  0  0  0
  196.7200  173.8520  135.4680 C   0  0  1  0  0  3  0  0  0  0  0  0
  196.6820  173.0060  136.7490 C   0  0  1  0  0  3  0  0  0  0  0  0
  196.1940  171.5720  136.5050 C   0  0  0  0  0  2  0  0  0  0  0  0
  194.5970  172.5730  134.7810 C   0  0  2  0  0  3  0  0  0  0  0  0
  195.4770  171.3770  135.1650 C   0  0  0  0  0  2  0  0  0  0  0  0
  195.3370  173.9160  134.8180 C   0  0  0  0  0  2  0  0  0  0  0  0
  197.2670  175.5470  135.7910 S   0  0  2  0  0  3  0  0  0  0  0  0
  197.5880  175.5560  137.2790 O   0  0  0  0  0  1  0  0  0  0  0  0
  195.8310  176.5050  135.6820 O   0  0  0  0  0  0  0  0  0  0  0  0
  196.2070  178.7490  135.2660 O   0  0  0  0  0  0  0  0  0  0  0  0
  195.7600  177.6390  134.8740 C   0  0  0  0  0  3  0  0  0  0  0  0
  184.0990  176.2110  136.1550 C   0  0  0  0  0  0  0  0  0  0  0  0
  182.5980  174.8220  135.3360 C   0  0  0  0  0  0  0  0  0  0  0  0
  183.6250  174.9880  136.3460 C   0  0  0  0  0  2  0  0  0  0  0  0
  181.8140  173.6470  135.1850 N   0  0  0  0  0  1  0  0  0  0  0  0
  182.4360  175.8640  134.5950 N   0  0  0  0  0  0  0  0  0  0  0  0
  183.3800  176.8800  135.0290 C   0  0  0  0  0  3  0  0  0  0  0  0
  185.3180  179.1410  139.9420 N   0  0  0  0  0  2  0  0  0  0  0  0
  184.9820  178.6570  141.2720 C   0  0  0  0  0  2  0  0  0  0  0  0
  186.2260  178.9900  143.4530 C   0  0  0  0  0  0  0  0  0  0  0  0
  186.1830  178.5670  142.0880 N   0  0  0  0  0  2  0  0  0  0  0  0
  185.2090  179.4980  143.9960 O   0  0  0  0  0  0  0  0  0  0  0  0
  188.2050  177.5440  143.9900 C   0  0  2  0  0  3  0  0  0  0  0  0
  188.2580  178.1530  146.5720 C   0  0  0  0  0  2  0  0  0  0  0  0
  187.4960  178.8780  144.2450 C   0  0  2  0  0  3  0  0  0  0  0  0
  190.4250  177.0120  147.2260 C   0  0  0  0  0  2  0  0  0  0  0  0
  190.2690  177.8380  142.6170 C   0  0  0  0  0  2  0  0  0  0  0  0
  187.4700  177.7800  145.3120 C   0  0  1  0  0  0  0  0  0  0  0  0
  191.0640  177.3880  145.8860 C   0  0  0  0  0  2  0  0  0  0  0  0
  191.5350  174.7060  144.0190 C   0  0  0  0  0  1  0  0  0  0  0  0
  190.3990  176.7290  144.7670 N   0  0  2  0  0  0  0  0  0  0  0  0
  188.9000  176.9090  147.1810 C   0  0  0  0  0  2  0  0  0  0  0  0
  191.4390  176.2130  143.8830 C   0  0  2  0  0  3  0  0  0  0  0  0
  191.0610  176.5730  142.4670 C   0  0  0  0  0  2  0  0  0  0  0  0
  189.7130  177.7920  144.0290 C   0  0  2  0  0  3  0  0  0  0  0  0
  185.2710  177.6000  146.5420 C   0  0  0  0  0  1  0  0  0  0  0  0
  186.1670  176.9900  145.4780 C   0  0  0  0  0  2  0  0  0  0  0  0
  1  9  1  0  0  0  0
  2 37  1  0  0  0  0
  4  8  1  0  0  0  0
  4  1  2  0  0  0  0
  5  2  1  0  0  0  0
  6  3  2  0  0  0  0
  7  1  1  0  0  0  0
  7  6  1  0  0  0  0
  8  5  2  0  0  0  0
  9  2  2  0  0  0  0
  9  3  1  0  0  0  0
 11 10  1  0  0  0  0
 11 13  1  0  0  0  0
 11  7  1  0  0  0  0
 12 15  1  0  0  0  0
 13 15  1  0  0  0  0
 14 10  1  0  0  0  0
 14 12  1  0  0  0  0
 16 12  1  0  0  0  0
 17 18  2  0  0  0  0
 17 16  1  0  0  0  0
 20 26  1  1  0  0  0
 20 21  1  0  0  0  0
 21 19  1  6  0  0  0
 22 21  1  0  0  0  0
 23 25  1  0  0  0  0
 23 24  1  0  0  0  0
 23 17  1  1  0  0  0
 24 22  1  0  0  0  0
 25 20  1  0  0  0  0
 26 27  1  1  0  0  0
 28 26  1  0  0  0  0
 30 29  2  0  0  0  0
 30 28  1  0  0  0  0
 31 33  1  0  0  0  0
 31  8  1  0  0  0  0
 32 33  1  0  0  0  0
 34 32  1  0  0  0  0
 35 36  1  0  0  0  0
 35 32  2  0  0  0  0
 36 31  2  0  0  0  0
 37 38  1  0  0  0  0
 38 40  1  0  0  0  0
 39 41  2  0  0  0  0
 39 44  1  0  0  0  0
 40 39  1  0  0  0  0
 42 54  1  0  0  0  0
 42 44  1  0  0  0  0
 42 47  1  0  0  0  0
 43 51  1  0  0  0  0
 44 47  1  0  0  0  0
 46 54  1  0  0  0  0
 47 56  1  0  0  0  0
 47 43  1  0  0  0  0
 48 45  1  0  0  0  0
 50 48  1  0  0  0  0
 51 45  1  0  0  0  0
 52 49  1  0  0  0  0
 52 50  1  0  0  0  0
 53 46  1  0  0  0  0
 53 52  1  0  0  0  0
 54 50  1  0  0  0  0
 56 55  1  0  0  0  0
M  END
>  <MODEL>
3

>  <REMARK>
 VINA RESULT:      -7.6      2.579      8.017
  Name = 
  12 active torsions:
  status: ('A' for Active; 'I' for Inactive)
    1  A    between atoms: N_3  and  C_32
    2  A    between atoms: C_4  and  C_26
    3  A    between atoms: C_5  and  C_22
    4  A    between atoms: N_8  and  C_46
    5  A    between atoms: C_9  and  S_21
    6  A    between atoms: C_11  and  C_42
    7  A    between atoms: C_13  and  N_17
    8  A    between atoms: N_17  and  C_46
    9  A    between atoms: C_18  and  O_56
   10  A    between atoms: S_21  and  O_56
   11  A    between atoms: C_29  and  N_39
   12  A    between atoms: C_31  and  C_40
                            x       y       z     vdW  Elec       q    Type
                         _______ _______ _______ _____ _____    ______ ____

>  <TORSDO>
F 12

$$$$
=
 OpenBabel10222420563D

 56 63  0  0  1  0  0  0  0  0999 V2000
  185.4430  177.0050  137.7660 C   0  0  0  0  0  0  0  0  0  0  0  0
  183.6870  177.9860  139.1020 C   0  0  0  0  0  0  0  0  0  0  0  0
  186.1210  178.7130  139.1280 N   0  0  0  0  0  0  0  0  0  0  0  0
  184.5670  176.0860  137.1900 C   0  0  0  0  0  3  0  0  0  0  0  0
  182.7840  177.0770  138.5270 C   0  0  0  0  0  3  0  0  0  0  0  0
  187.3090  178.2280  138.4120 C   0  0  0  0  0  3  0  0  0  0  0  0
  186.8400  177.1290  137.5600 N   0  0  0  0  0  0  0  0  0  0  0  0
  183.2110  176.1260  137.5750 C   0  0  0  0  0  0  0  0  0  0  0  0
  185.0290  177.9150  138.6930 C   0  0  0  0  0  0  0  0  0  0  0  0
  187.5730  174.9000  136.8430 C   0  0  0  0  0  2  0  0  0  0  0  0
  187.6240  176.4100  136.5540 C   0  0  2  0  0  3  0  0  0  0  0  0
  190.1020  174.7090  136.8900 C   0  0  2  0  0  3  0  0  0  0  0  0
  189.0630  176.9600  136.4730 C   0  0  0  0  0  2  0  0  0  0  0  0
  188.7950  174.1790  136.2760 C   0  0  0  0  0  2  0  0  0  0  0  0
  190.0090  176.1630  137.3650 C   0  0  0  0  0  2  0  0  0  0  0  0
  191.1810  174.5900  135.9230 N   0  0  0  0  0  2  0  0  0  0  0  0
  192.5200  174.2540  136.2930 C   0  0  0  0  0  0  0  0  0  0  0  0
  192.8180  174.0660  137.5040 O   0  0  0  0  0  0  0  0  0  0  0  0
  196.8190  171.7940  136.3720 O   0  0  0  0  0  1  0  0  0  0  0  0
  196.0750  174.0110  135.8020 C   0  0  1  0  0  3  0  0  0  0  0  0
  195.6980  172.6220  136.3370 C   0  0  1  0  0  3  0  0  0  0  0  0
  194.5980  171.9410  135.5100 C   0  0  0  0  0  2  0  0  0  0  0  0
  193.5800  174.2680  135.2340 C   0  0  2  0  0  3  0  0  0  0  0  0
  193.8260  172.8960  134.5940 C   0  0  0  0  0  2  0  0  0  0  0  0
  194.8540  174.9310  135.7710 C   0  0  0  0  0  2  0  0  0  0  0  0
  197.3500  174.8030  136.8140 S   0  0  2  0  0  3  0  0  0  0  0  0
  198.6590  174.3260  136.2030 O   0  0  0  0  0  1  0  0  0  0  0  0
  197.2870  173.9760  138.3320 O   0  0  0  0  0  0  0  0  0  0  0  0
  195.5080  175.1900  139.1750 O   0  0  0  0  0  0  0  0  0  0  0  0
  196.4810  174.4180  139.3810 C   0  0  0  0  0  3  0  0  0  0  0  0
  182.2430  175.1560  137.0340 C   0  0  0  0  0  0  0  0  0  0  0  0
  181.2850  173.3550  136.2000 C   0  0  0  0  0  0  0  0  0  0  0  0
  182.5520  173.9490  136.5810 C   0  0  0  0  0  3  0  0  0  0  0  0
  181.1500  172.0450  135.6690 N   0  0  0  0  0  1  0  0  0  0  0  0
  180.2740  174.1240  136.4160 N   0  0  0  0  0  0  0  0  0  0  0  0
  180.7650  175.3730  136.9750 C   0  0  0  0  0  2  0  0  0  0  0  0
  183.2150  178.9230  140.0790 N   0  0  0  0  0  2  0  0  0  0  0  0
  183.1530  178.6410  141.5050 C   0  0  0  0  0  2  0  0  0  0  0  0
  184.7800  179.2010  143.3630 C   0  0  0  0  0  0  0  0  0  0  0  0
  184.4920  178.6550  142.0730 N   0  0  0  0  0  2  0  0  0  0  0  0
  183.8670  179.7300  144.0500 O   0  0  0  0  0  0  0  0  0  0  0  0
  186.8930  177.8680  143.6010 C   0  0  2  0  0  3  0  0  0  0  0  0
  187.4120  178.6740  146.0750 C   0  0  0  0  0  2  0  0  0  0  0  0
  186.1820  179.1930  143.8970 C   0  0  2  0  0  3  0  0  0  0  0  0
  189.7170  177.6610  146.3700 C   0  0  0  0  0  2  0  0  0  0  0  0
  188.6370  178.1260  141.8340 C   0  0  0  0  0  2  0  0  0  0  0  0
  186.4150  178.1800  145.0220 C   0  0  1  0  0  0  0  0  0  0  0  0
  190.0670  177.9540  144.9070 C   0  0  0  0  0  2  0  0  0  0  0  0
  190.2980  175.1550  143.1740 C   0  0  0  0  0  1  0  0  0  0  0  0
  189.2320  177.1900  143.9880 N   0  0  2  0  0  0  0  0  0  0  0  0
  188.2190  177.5030  146.6300 C   0  0  0  0  0  2  0  0  0  0  0  0
  190.1050  176.6420  142.9550 C   0  0  2  0  0  3  0  0  0  0  0  0
  189.4450  176.8800  141.6200 C   0  0  0  0  0  2  0  0  0  0  0  0
  188.3660  178.1690  143.3270 C   0  0  2  0  0  3  0  0  0  0  0  0
  184.6260  177.9090  146.7850 C   0  0  0  0  0  1  0  0  0  0  0  0
  185.2080  177.3610  145.4930 C   0  0  0  0  0  2  0  0  0  0  0  0
  1  9  1  0  0  0  0
  2 37  1  0  0  0  0
  4  8  1  0  0  0  0
  4  1  2  0  0  0  0
  5  2  1  0  0  0  0
  6  3  2  0  0  0  0
  7  1  1  0  0  0  0
  7  6  1  0  0  0  0
  8  5  2  0  0  0  0
  9  2  2  0  0  0  0
  9  3  1  0  0  0  0
 11 10  1  0  0  0  0
 11  7  1  0  0  0  0
 12 15  1  0  0  0  0
 13 11  1  0  0  0  0
 13 15  1  0  0  0  0
 14 10  1  0  0  0  0
 14 12  1  0  0  0  0
 16 17  1  0  0  0  0
 16 12  1  0  0  0  0
 17 18  2  0  0  0  0
 20 21  1  0  0  0  0
 20 26  1  1  0  0  0
 21 19  1  6  0  0  0
 22 21  1  0  0  0  0
 23 25  1  0  0  0  0
 23 17  1  1  0  0  0
 24 23  1  0  0  0  0
 24 22  1  0  0  0  0
 25 20  1  0  0  0  0
 26 27  1  6  0  0  0
 26 28  1  0  0  0  0
 28 30  1  0  0  0  0
 29 30  2  0  0  0  0
 31  8  1  0  0  0  0
 32 35  2  0  0  0  0
 32 33  1  0  0  0  0
 33 31  2  0  0  0  0
 34 32  1  0  0  0  0
 35 36  1  0  0  0  0
 36 31  1  0  0  0  0
 37 38  1  0  0  0  0
 38 40  1  0  0  0  0
 39 44  1  0  0  0  0
 39 41  2  0  0  0  0
 40 39  1  0  0  0  0
 42 44  1  0  0  0  0
 42 47  1  0  0  0  0
 43 51  1  0  0  0  0
 44 47  1  0  0  0  0
 45 51  1  0  0  0  0
 46 54  1  0  0  0  0
 47 56  1  0  0  0  0
 47 43  1  0  0  0  0
 48 45  1  0  0  0  0
 50 48  1  0  0  0  0
 52 49  1  0  0  0  0
 52 50  1  0  0  0  0
 53 46  1  0  0  0  0
 53 52  1  0  0  0  0
 54 42  1  0  0  0  0
 54 50  1  0  0  0  0
 56 55  1  0  0  0  0
M  END
>  <MODEL>
4

>  <REMARK>
 VINA RESULT:      -7.4      2.279      7.693
  Name = 
  12 active torsions:
  status: ('A' for Active; 'I' for Inactive)
    1  A    between atoms: N_3  and  C_32
    2  A    between atoms: C_4  and  C_26
    3  A    between atoms: C_5  and  C_22
    4  A    between atoms: N_8  and  C_46
    5  A    between atoms: C_9  and  S_21
    6  A    between atoms: C_11  and  C_42
    7  A    between atoms: C_13  and  N_17
    8  A    between atoms: N_17  and  C_46
    9  A    between atoms: C_18  and  O_56
   10  A    between atoms: S_21  and  O_56
   11  A    between atoms: C_29  and  N_39
   12  A    between atoms: C_31  and  C_40
                            x       y       z     vdW  Elec       q    Type
                         _______ _______ _______ _____ _____    ______ ____

>  <TORSDO>
F 12

$$$$
=
 OpenBabel10222420563D

 56 63  0  0  1  0  0  0  0  0999 V2000
  187.3410  178.0920  140.8870 C   0  0  0  0  0  0  0  0  0  0  0  0
  189.6600  177.5560  141.2930 C   0  0  0  0  0  0  0  0  0  0  0  0
  188.6250  177.9200  139.0010 N   0  0  0  0  0  0  0  0  0  0  0  0
  187.0370  178.0600  142.2470 C   0  0  0  0  0  3  0  0  0  0  0  0
  189.3810  177.5290  142.6690 C   0  0  0  0  0  3  0  0  0  0  0  0
  187.2550  178.2270  138.5690 C   0  0  0  0  0  3  0  0  0  0  0  0
  186.4600  178.3190  139.7990 N   0  0  0  0  0  0  0  0  0  0  0  0
  188.0780  177.7780  143.1550 C   0  0  0  0  0  0  0  0  0  0  0  0
  188.5960  177.8410  140.4200 C   0  0  0  0  0  0  0  0  0  0  0  0
  184.3050  177.7850  140.8430 C   0  0  0  0  0  2  0  0  0  0  0  0
  185.0620  178.7390  139.9030 C   0  0  2  0  0  3  0  0  0  0  0  0
  182.5400  177.2790  139.0940 C   0  0  2  0  0  3  0  0  0  0  0  0
  184.4090  178.8550  138.5110 C   0  0  0  0  0  2  0  0  0  0  0  0
  182.8100  177.7570  140.5300 C   0  0  0  0  0  2  0  0  0  0  0  0
  183.6940  177.5640  138.1270 C   0  0  0  0  0  2  0  0  0  0  0  0
  181.3280  177.9030  138.5890 N   0  0  0  0  0  2  0  0  0  0  0  0
  180.5150  177.3110  137.5750 C   0  0  0  0  0  0  0  0  0  0  0  0
  180.8450  176.2080  137.0570 O   0  0  0  0  0  0  0  0  0  0  0  0
  180.5690  181.9920  135.9540 O   0  0  0  0  0  1  0  0  0  0  0  0
  179.1580  180.6360  137.3540 C   0  0  1  0  0  3  0  0  0  0  0  0
  180.4430  180.7230  136.5190 C   0  0  1  0  0  3  0  0  0  0  0  0
  180.5060  179.6710  135.4040 C   0  0  0  0  0  2  0  0  0  0  0  0
  179.3500  178.0900  137.0450 C   0  0  2  0  0  3  0  0  0  0  0  0
  179.5120  178.5170  135.5810 C   0  0  0  0  0  2  0  0  0  0  0  0
  179.0160  179.2510  137.9880 C   0  0  0  0  0  2  0  0  0  0  0  0
  179.1270  181.8670  138.6800 S   0  0  2  0  0  3  0  0  0  0  0  0
  180.2750  182.8060  138.3420 O   0  0  0  0  0  1  0  0  0  0  0  0
  179.6940  181.0240  140.0810 O   0  0  0  0  0  0  0  0  0  0  0  0
  179.7010  180.9230  142.3920 O   0  0  0  0  0  0  0  0  0  0  0  0
  179.0770  181.1610  141.3250 C   0  0  0  0  0  3  0  0  0  0  0  0
  187.8150  177.6890  144.6020 C   0  0  0  0  0  0  0  0  0  0  0  0
  188.0020  177.7160  146.7970 C   0  0  0  0  0  0  0  0  0  0  0  0
  188.7290  177.8490  145.5500 C   0  0  0  0  0  2  0  0  0  0  0  0
  188.5990  177.8310  148.0810 N   0  0  0  0  0  1  0  0  0  0  0  0
  186.7400  177.5090  146.6360 N   0  0  0  0  0  0  0  0  0  0  0  0
  186.4680  177.4650  145.2090 C   0  0  0  0  0  3  0  0  0  0  0  0
  190.9920  177.2790  140.8410 N   0  0  0  0  0  2  0  0  0  0  0  0
  191.5010  177.6730  139.5360 C   0  0  0  0  0  2  0  0  0  0  0  0
  191.8070  175.4270  138.4060 C   0  0  0  0  0  0  0  0  0  0  0  0
  192.3410  176.6180  138.9910 N   0  0  0  0  0  2  0  0  0  0  0  0
  190.5620  175.2340  138.3760 O   0  0  0  0  0  0  0  0  0  0  0  0
  194.1250  174.9200  137.5890 C   0  0  2  0  0  3  0  0  0  0  0  0
  193.3440  173.3270  135.6160 C   0  0  0  0  0  2  0  0  0  0  0  0
  192.7210  174.3690  137.8630 C   0  0  2  0  0  3  0  0  0  0  0  0
  195.6020  172.4540  134.8650 C   0  0  0  0  0  2  0  0  0  0  0  0
  195.7900  174.0890  139.2530 C   0  0  0  0  0  2  0  0  0  0  0  0
  193.1780  174.6190  136.4240 C   0  0  1  0  0  0  0  0  0  0  0  0
  196.1060  172.4240  136.3120 C   0  0  0  0  0  2  0  0  0  0  0  0
  198.4220  174.7260  136.7940 C   0  0  0  0  0  1  0  0  0  0  0  0
  196.1850  173.7630  136.8850 N   0  0  2  0  0  0  0  0  0  0  0  0
  194.4880  173.4710  134.6160 C   0  0  0  0  0  2  0  0  0  0  0  0
  197.4600  173.8640  137.5870 C   0  0  2  0  0  3  0  0  0  0  0  0
  197.1960  174.4980  138.9300 C   0  0  0  0  0  2  0  0  0  0  0  0
  195.1390  173.8220  137.9070 C   0  0  2  0  0  3  0  0  0  0  0  0
  191.4420  175.4990  134.8130 C   0  0  0  0  0  1  0  0  0  0  0  0
  192.6160  175.8530  135.7110 C   0  0  0  0  0  2  0  0  0  0  0  0
  1  4  1  0  0  0  0
  2  5  2  0  0  0  0
  3  9  1  0  0  0  0
  4  8  2  0  0  0  0
  5  8  1  0  0  0  0
  6  3  2  0  0  0  0
  6  7  1  0  0  0  0
  7 11  1  0  0  0  0
  7  1  1  0  0  0  0
  8 31  1  0  0  0  0
  9  1  2  0  0  0  0
  9  2  1  0  0  0  0
 11 10  1  0  0  0  0
 12 14  1  0  0  0  0
 13 11  1  0  0  0  0
 14 10  1  0  0  0  0
 15 13  1  0  0  0  0
 15 12  1  0  0  0  0
 16 12  1  0  0  0  0
 17 16  1  0  0  0  0
 18 17  2  0  0  0  0
 20 25  1  0  0  0  0
 20 26  1  1  0  0  0
 21 19  1  6  0  0  0
 21 20  1  0  0  0  0
 22 24  1  0  0  0  0
 22 21  1  0  0  0  0
 23 17  1  1  0  0  0
 23 25  1  0  0  0  0
 24 23  1  0  0  0  0
 26 27  1  6  0  0  0
 26 28  1  0  0  0  0
 28 30  1  0  0  0  0
 30 29  2  0  0  0  0
 31 36  2  0  0  0  0
 31 33  1  0  0  0  0
 32 34  1  0  0  0  0
 33 32  1  0  0  0  0
 35 32  2  0  0  0  0
 36 35  1  0  0  0  0
 37  2  1  0  0  0  0
 38 37  1  0  0  0  0
 39 40  1  0  0  0  0
 40 38  1  0  0  0  0
 41 39  2  0  0  0  0
 42 44  1  0  0  0  0
 42 54  1  0  0  0  0
 43 47  1  0  0  0  0
 44 39  1  0  0  0  0
 45 48  1  0  0  0  0
 47 42  1  0  0  0  0
 47 44  1  0  0  0  0
 48 50  1  0  0  0  0
 49 52  1  0  0  0  0
 50 52  1  0  0  0  0
 50 54  1  0  0  0  0
 51 45  1  0  0  0  0
 51 43  1  0  0  0  0
 52 53  1  0  0  0  0
 53 46  1  0  0  0  0
 54 46  1  0  0  0  0
 55 56  1  0  0  0  0
 56 47  1  0  0  0  0
M  END
>  <MODEL>
5

>  <REMARK>
 VINA RESULT:      -7.3      4.049     12.498
  Name = 
  12 active torsions:
  status: ('A' for Active; 'I' for Inactive)
    1  A    between atoms: N_3  and  C_32
    2  A    between atoms: C_4  and  C_26
    3  A    between atoms: C_5  and  C_22
    4  A    between atoms: N_8  and  C_46
    5  A    between atoms: C_9  and  S_21
    6  A    between atoms: C_11  and  C_42
    7  A    between atoms: C_13  and  N_17
    8  A    between atoms: N_17  and  C_46
    9  A    between atoms: C_18  and  O_56
   10  A    between atoms: S_21  and  O_56
   11  A    between atoms: C_29  and  N_39
   12  A    between atoms: C_31  and  C_40
                            x       y       z     vdW  Elec       q    Type
                         _______ _______ _______ _____ _____    ______ ____

>  <TORSDO>
F 12

$$$$
=
 OpenBabel10222420563D

 56 63  0  0  1  0  0  0  0  0999 V2000
  183.7800  177.4980  138.7340 C   0  0  0  0  0  0  0  0  0  0  0  0
  182.3100  178.2550  140.4930 C   0  0  0  0  0  0  0  0  0  0  0  0
  184.5290  179.3290  139.8830 N   0  0  0  0  0  0  0  0  0  0  0  0
  182.9310  176.4440  138.4010 C   0  0  0  0  0  3  0  0  0  0  0  0
  181.4330  177.2070  140.1690 C   0  0  0  0  0  3  0  0  0  0  0  0
  185.5470  179.0000  138.8760 C   0  0  0  0  0  3  0  0  0  0  0  0
  185.0400  177.8180  138.1680 N   0  0  0  0  0  0  0  0  0  0  0  0
  181.7320  176.2980  139.1300 C   0  0  0  0  0  0  0  0  0  0  0  0
  183.4930  178.3670  139.7440 C   0  0  0  0  0  0  0  0  0  0  0  0
  185.1800  175.7220  136.9000 C   0  0  0  0  0  2  0  0  0  0  0  0
  185.6320  177.1900  136.9850 C   0  0  2  0  0  3  0  0  0  0  0  0
  187.5680  174.8760  136.7910 C   0  0  2  0  0  3  0  0  0  0  0  0
  187.1650  177.3500  136.9780 C   0  0  0  0  0  2  0  0  0  0  0  0
  186.1830  174.8710  136.1240 C   0  0  0  0  0  2  0  0  0  0  0  0
  187.8490  176.1420  137.6090 C   0  0  0  0  0  2  0  0  0  0  0  0
  188.6010  174.7220  135.7790 N   0  0  0  0  0  2  0  0  0  0  0  0
  189.8130  174.0020  136.0110 C   0  0  0  0  0  0  0  0  0  0  0  0
  190.0390  173.4820  137.1380 O   0  0  0  0  0  0  0  0  0  0  0  0
  194.6600  173.1730  136.6080 O   0  0  0  0  0  1  0  0  0  0  0  0
  193.2820  174.7320  135.4000 C   0  0  1  0  0  3  0  0  0  0  0  0
  193.3370  173.5500  136.3790 C   0  0  1  0  0  3  0  0  0  0  0  0
  192.5460  172.3300  135.8890 C   0  0  0  0  0  2  0  0  0  0  0  0
  190.8600  173.9990  134.9400 C   0  0  2  0  0  3  0  0  0  0  0  0
  191.5540  172.6420  134.7630 C   0  0  0  0  0  2  0  0  0  0  0  0
  191.8360  175.1630  135.1500 C   0  0  0  0  0  2  0  0  0  0  0  0
  194.1960  176.1670  136.0180 S   0  0  2  0  0  3  0  0  0  0  0  0
  195.6570  175.7840  135.8340 O   0  0  0  0  0  1  0  0  0  0  0  0
  193.9810  176.1240  137.7340 O   0  0  0  0  0  0  0  0  0  0  0  0
  191.7620  176.1450  138.3870 O   0  0  0  0  0  0  0  0  0  0  0  0
  192.8820  176.7180  138.3550 C   0  0  0  0  0  3  0  0  0  0  0  0
  180.8120  175.1810  138.8560 C   0  0  0  0  0  0  0  0  0  0  0  0
  179.9000  173.3180  138.1130 C   0  0  0  0  0  0  0  0  0  0  0  0
  181.0610  174.1820  138.0210 C   0  0  0  0  0  3  0  0  0  0  0  0
  179.7500  172.1070  137.3850 N   0  0  0  0  0  1  0  0  0  0  0  0
  179.0150  173.7370  138.9510 N   0  0  0  0  0  0  0  0  0  0  0  0
  179.4910  174.9840  139.5260 C   0  0  0  0  0  2  0  0  0  0  0  0
  181.9760  179.1430  141.5680 N   0  0  0  0  0  2  0  0  0  0  0  0
  182.2570  178.8600  142.9670 C   0  0  0  0  0  2  0  0  0  0  0  0
  184.2480  179.1700  144.5020 C   0  0  0  0  0  0  0  0  0  0  0  0
  183.6900  178.9200  143.2090 N   0  0  0  0  0  2  0  0  0  0  0  0
  183.4970  179.3850  145.4900 O   0  0  0  0  0  0  0  0  0  0  0  0
  186.4200  177.9580  144.1680 C   0  0  2  0  0  3  0  0  0  0  0  0
  187.4700  178.6980  146.4900 C   0  0  0  0  0  2  0  0  0  0  0  0
  185.7350  179.2250  144.6910 C   0  0  2  0  0  3  0  0  0  0  0  0
  189.8260  177.8140  146.1840 C   0  0  0  0  0  2  0  0  0  0  0  0
  187.6810  178.3890  142.0570 C   0  0  0  0  0  2  0  0  0  0  0  0
  186.2770  178.1850  145.6750 C   0  0  1  0  0  0  0  0  0  0  0  0
  189.8050  178.1850  144.6970 C   0  0  0  0  0  2  0  0  0  0  0  0
  189.7570  175.4750  142.8140 C   0  0  0  0  0  1  0  0  0  0  0  0
  188.8140  177.4080  143.9600 N   0  0  2  0  0  0  0  0  0  0  0  0
  188.4420  177.5570  146.7790 C   0  0  0  0  0  2  0  0  0  0  0  0
  189.4440  176.9550  142.7250 C   0  0  2  0  0  3  0  0  0  0  0  0
  188.4760  177.2040  141.5950 C   0  0  0  0  0  2  0  0  0  0  0  0
  187.7700  178.3580  143.5730 C   0  0  2  0  0  3  0  0  0  0  0  0
  184.7370  177.9000  147.6570 C   0  0  0  0  0  1  0  0  0  0  0  0
  185.2580  177.2770  146.3730 C   0  0  0  0  0  2  0  0  0  0  0  0
  1  9  1  0  0  0  0
  2 37  1  0  0  0  0
  4  1  2  0  0  0  0
  4  8  1  0  0  0  0
  5  2  1  0  0  0  0
  6  3  2  0  0  0  0
  7  1  1  0  0  0  0
  7  6  1  0  0  0  0
  8  5  2  0  0  0  0
  9  3  1  0  0  0  0
  9  2  2  0  0  0  0
 10 11  1  0  0  0  0
 11  7  1  0  0  0  0
 12 15  1  0  0  0  0
 13 11  1  0  0  0  0
 13 15  1  0  0  0  0
 14 12  1  0  0  0  0
 14 10  1  0  0  0  0
 16 17  1  0  0  0  0
 16 12  1  0  0  0  0
 17 18  2  0  0  0  0
 20 26  1  1  0  0  0
 20 21  1  0  0  0  0
 21 19  1  6  0  0  0
 22 21  1  0  0  0  0
 23 25  1  0  0  0  0
 23 17  1  1  0  0  0
 24 23  1  0  0  0  0
 24 22  1  0  0  0  0
 25 20  1  0  0  0  0
 26 27  1  1  0  0  0
 26 28  1  0  0  0  0
 28 30  1  0  0  0  0
 30 29  2  0  0  0  0
 31  8  1  0  0  0  0
 31 36  1  0  0  0  0
 32 35  2  0  0  0  0
 33 32  1  0  0  0  0
 33 31  2  0  0  0  0
 34 32  1  0  0  0  0
 35 36  1  0  0  0  0
 37 38  1  0  0  0  0
 38 40  1  0  0  0  0
 39 44  1  0  0  0  0
 39 41  2  0  0  0  0
 40 39  1  0  0  0  0
 42 44  1  0  0  0  0
 42 47  1  0  0  0  0
 43 51  1  0  0  0  0
 44 47  1  0  0  0  0
 45 51  1  0  0  0  0
 46 54  1  0  0  0  0
 47 56  1  0  0  0  0
 47 43  1  0  0  0  0
 48 45  1  0  0  0  0
 50 48  1  0  0  0  0
 52 49  1  0  0  0  0
 52 50  1  0  0  0  0
 53 46  1  0  0  0  0
 53 52  1  0  0  0  0
 54 50  1  0  0  0  0
 54 42  1  0  0  0  0
 56 55  1  0  0  0  0
M  END
>  <MODEL>
6

>  <REMARK>
 VINA RESULT:      -7.1      2.651      8.119
  Name = 
  12 active torsions:
  status: ('A' for Active; 'I' for Inactive)
    1  A    between atoms: N_3  and  C_32
    2  A    between atoms: C_4  and  C_26
    3  A    between atoms: C_5  and  C_22
    4  A    between atoms: N_8  and  C_46
    5  A    between atoms: C_9  and  S_21
    6  A    between atoms: C_11  and  C_42
    7  A    between atoms: C_13  and  N_17
    8  A    between atoms: N_17  and  C_46
    9  A    between atoms: C_18  and  O_56
   10  A    between atoms: S_21  and  O_56
   11  A    between atoms: C_29  and  N_39
   12  A    between atoms: C_31  and  C_40
                            x       y       z     vdW  Elec       q    Type
                         _______ _______ _______ _____ _____    ______ ____

>  <TORSDO>
F 12

$$$$
=
 OpenBabel10222420563D

 56 63  0  0  1  0  0  0  0  0999 V2000
  189.3990  176.0180  137.4820 C   0  0  0  0  0  0  0  0  0  0  0  0
  188.7990  174.6360  135.5960 C   0  0  0  0  0  0  0  0  0  0  0  0
  187.2870  176.3670  136.6770 N   0  0  0  0  0  0  0  0  0  0  0  0
  190.6630  175.4380  137.5770 C   0  0  0  0  0  3  0  0  0  0  0  0
  190.0710  174.0430  135.6650 C   0  0  0  0  0  3  0  0  0  0  0  0
  187.4710  177.2690  137.8220 C   0  0  0  0  0  3  0  0  0  0  0  0
  188.8280  177.0110  138.3180 N   0  0  0  0  0  0  0  0  0  0  0  0
  191.0070  174.4340  136.6470 C   0  0  0  0  0  0  0  0  0  0  0  0
  188.4940  175.6310  136.5390 C   0  0  0  0  0  0  0  0  0  0  0  0
  191.0060  177.3250  139.4040 C   0  0  0  0  0  2  0  0  0  0  0  0
  189.5290  177.7560  139.3650 C   0  0  2  0  0  3  0  0  0  0  0  0
  190.8900  176.7510  141.8710 C   0  0  2  0  0  3  0  0  0  0  0  0
  188.8210  177.6050  140.7260 C   0  0  0  0  0  2  0  0  0  0  0  0
  191.6210  177.5550  140.7830 C   0  0  0  0  0  2  0  0  0  0  0  0
  189.4230  176.4610  141.5370 C   0  0  0  0  0  2  0  0  0  0  0  0
  190.9600  177.4620  143.1370 N   0  0  0  0  0  2  0  0  0  0  0  0
  191.3740  176.8400  144.3550 C   0  0  0  0  0  0  0  0  0  0  0  0
  191.6790  175.6160  144.3730 O   0  0  0  0  0  0  0  0  0  0  0  0
  188.4480  175.9380  148.2490 O   0  0  0  0  0  1  0  0  0  0  0  0
  189.1200  177.8600  146.9670 C   0  0  1  0  0  3  0  0  0  0  0  0
  189.1990  176.3370  147.1440 C   0  0  1  0  0  3  0  0  0  0  0  0
  190.6380  175.8270  147.3070 C   0  0  0  0  0  2  0  0  0  0  0  0
  191.3020  177.6320  145.6250 C   0  0  2  0  0  3  0  0  0  0  0  0
  191.7080  176.8330  146.8700 C   0  0  0  0  0  2  0  0  0  0  0  0
  189.9320  178.3080  145.7500 C   0  0  0  0  0  2  0  0  0  0  0  0
  187.4160  178.4280  146.7460 S   0  0  2  0  0  3  0  0  0  0  0  0
  186.7730  178.2110  148.1070 O   0  0  0  0  0  1  0  0  0  0  0  0
  186.6730  177.2240  145.7500 O   0  0  0  0  0  0  0  0  0  0  0  0
  186.6310  178.0210  143.5790 O   0  0  0  0  0  0  0  0  0  0  0  0
  186.9570  177.1140  144.3890 C   0  0  0  0  0  3  0  0  0  0  0  0
  192.3110  173.7520  136.7190 C   0  0  0  0  0  0  0  0  0  0  0  0
  194.3310  173.0940  137.3030 C   0  0  0  0  0  0  0  0  0  0  0  0
  193.2730  174.0460  137.5830 C   0  0  0  0  0  2  0  0  0  0  0  0
  195.5600  173.0420  138.0130 N   0  0  0  0  0  1  0  0  0  0  0  0
  194.0400  172.2690  136.3570 N   0  0  0  0  0  0  0  0  0  0  0  0
  192.7110  172.5920  135.8660 C   0  0  0  0  0  3  0  0  0  0  0  0
  187.8720  174.1950  134.5940 N   0  0  0  0  0  2  0  0  0  0  0  0
  187.1400  172.9410  134.6670 C   0  0  0  0  0  2  0  0  0  0  0  0
  185.0090  173.3850  135.9620 C   0  0  0  0  0  0  0  0  0  0  0  0
  185.7100  173.2020  134.7290 N   0  0  0  0  0  2  0  0  0  0  0  0
  185.6160  173.2890  137.0610 O   0  0  0  0  0  0  0  0  0  0  0  0
  182.9640  173.6660  137.3900 C   0  0  2  0  0  3  0  0  0  0  0  0
  181.3430  172.3470  135.7550 C   0  0  0  0  0  2  0  0  0  0  0  0
  183.5320  173.6460  135.9660 C   0  0  2  0  0  3  0  0  0  0  0  0
  179.1290  172.8090  136.8990 C   0  0  0  0  0  2  0  0  0  0  0  0
  182.3610  175.9760  138.1170 C   0  0  0  0  0  2  0  0  0  0  0  0
  182.6920  172.4710  136.4720 C   0  0  1  0  0  0  0  0  0  0  0  0
  179.5790  174.2270  137.2650 C   0  0  0  0  0  2  0  0  0  0  0  0
  180.0300  174.5070  140.5230 C   0  0  0  0  0  1  0  0  0  0  0  0
  180.7000  174.2130  138.1980 N   0  0  2  0  0  0  0  0  0  0  0  0
  180.2800  171.8200  136.7150 C   0  0  0  0  0  2  0  0  0  0  0  0
  180.4200  175.2020  139.2340 C   0  0  2  0  0  3  0  0  0  0  0  0
  181.6750  176.0110  139.4510 C   0  0  0  0  0  2  0  0  0  0  0  0
  181.8520  174.7130  137.4450 C   0  0  2  0  0  3  0  0  0  0  0  0
  183.4370  170.1810  135.7050 C   0  0  0  0  0  1  0  0  0  0  0  0
  183.4350  171.1840  136.8470 C   0  0  0  0  0  2  0  0  0  0  0  0
  1  4  1  0  0  0  0
  1  7  1  0  0  0  0
  2  5  2  0  0  0  0
  2  9  1  0  0  0  0
  3  6  2  0  0  0  0
  5  8  1  0  0  0  0
  6  7  1  0  0  0  0
  7 11  1  0  0  0  0
  8 31  1  0  0  0  0
  8  4  2  0  0  0  0
  9  3  1  0  0  0  0
  9  1  2  0  0  0  0
 10 14  1  0  0  0  0
 11 10  1  0  0  0  0
 11 13  1  0  0  0  0
 12 16  1  0  0  0  0
 13 15  1  0  0  0  0
 14 12  1  0  0  0  0
 15 12  1  0  0  0  0
 16 17  1  0  0  0  0
 17 18  2  0  0  0  0
 20 26  1  6  0  0  0
 20 21  1  0  0  0  0
 21 22  1  0  0  0  0
 21 19  1  1  0  0  0
 23 17  1  6  0  0  0
 23 25  1  0  0  0  0
 23 24  1  0  0  0  0
 24 22  1  0  0  0  0
 25 20  1  0  0  0  0
 26 27  1  1  0  0  0
 28 26  1  0  0  0  0
 29 30  2  0  0  0  0
 30 28  1  0  0  0  0
 31 33  1  0  0  0  0
 32 33  1  0  0  0  0
 32 34  1  0  0  0  0
 35 32  2  0  0  0  0
 36 35  1  0  0  0  0
 36 31  2  0  0  0  0
 37 38  1  0  0  0  0
 37  2  1  0  0  0  0
 38 40  1  0  0  0  0
 39 44  1  0  0  0  0
 39 41  2  0  0  0  0
 40 39  1  0  0  0  0
 42 54  1  0  0  0  0
 43 47  1  0  0  0  0
 43 51  1  0  0  0  0
 44 47  1  0  0  0  0
 44 42  1  0  0  0  0
 45 48  1  0  0  0  0
 46 53  1  0  0  0  0
 47 56  1  0  0  0  0
 47 42  1  0  0  0  0
 48 50  1  0  0  0  0
 50 52  1  0  0  0  0
 51 45  1  0  0  0  0
 52 53  1  0  0  0  0
 52 49  1  0  0  0  0
 54 46  1  0  0  0  0
 54 50  1  0  0  0  0
 55 56  1  0  0  0  0
M  END
>  <MODEL>
7

>  <REMARK>
 VINA RESULT:      -6.9      4.356      8.691
  Name = 
  12 active torsions:
  status: ('A' for Active; 'I' for Inactive)
    1  A    between atoms: N_3  and  C_32
    2  A    between atoms: C_4  and  C_26
    3  A    between atoms: C_5  and  C_22
    4  A    between atoms: N_8  and  C_46
    5  A    between atoms: C_9  and  S_21
    6  A    between atoms: C_11  and  C_42
    7  A    between atoms: C_13  and  N_17
    8  A    between atoms: N_17  and  C_46
    9  A    between atoms: C_18  and  O_56
   10  A    between atoms: S_21  and  O_56
   11  A    between atoms: C_29  and  N_39
   12  A    between atoms: C_31  and  C_40
                            x       y       z     vdW  Elec       q    Type
                         _______ _______ _______ _____ _____    ______ ____

>  <TORSDO>
F 12

$$$$
=
 OpenBabel10222420563D

 56 63  0  0  1  0  0  0  0  0999 V2000
  184.5810  178.4240  140.2690 C   0  0  0  0  0  0  0  0  0  0  0  0
  183.1770  178.8080  142.1950 C   0  0  0  0  0  0  0  0  0  0  0  0
  185.6170  179.4890  142.0080 N   0  0  0  0  0  0  0  0  0  0  0  0
  183.5520  177.7870  139.5760 C   0  0  0  0  0  3  0  0  0  0  0  0
  182.1220  178.1800  141.5130 C   0  0  0  0  0  3  0  0  0  0  0  0
  186.6140  179.3230  140.9430 C   0  0  0  0  0  3  0  0  0  0  0  0
  185.9200  178.6290  139.8510 N   0  0  0  0  0  0  0  0  0  0  0  0
  182.2980  177.6670  140.2090 C   0  0  0  0  0  0  0  0  0  0  0  0
  184.4110  178.9080  141.5310 C   0  0  0  0  0  0  0  0  0  0  0  0
  185.6570  177.2080  137.8690 C   0  0  0  0  0  2  0  0  0  0  0  0
  186.4520  178.3540  138.5160 C   0  0  2  0  0  3  0  0  0  0  0  0
  187.7530  175.8500  137.4310 C   0  0  2  0  0  3  0  0  0  0  0  0
  187.9690  178.0820  138.5650 C   0  0  0  0  0  2  0  0  0  0  0  0
  186.4860  176.4710  136.8190 C   0  0  0  0  0  2  0  0  0  0  0  0
  188.2590  176.5880  138.6750 C   0  0  0  0  0  2  0  0  0  0  0  0
  188.8110  175.8110  136.4350 N   0  0  0  0  0  2  0  0  0  0  0  0
  189.6620  174.6780  136.2500 C   0  0  0  0  0  0  0  0  0  0  0  0
  189.5310  173.6570  136.9790 O   0  0  0  0  0  0  0  0  0  0  0  0
  194.0460  172.3900  136.5370 O   0  0  0  0  0  1  0  0  0  0  0  0
  193.2510  174.5990  136.0110 C   0  0  1  0  0  3  0  0  0  0  0  0
  192.8950  173.1730  136.4560 C   0  0  1  0  0  3  0  0  0  0  0  0
  191.8880  172.4880  135.5220 C   0  0  0  0  0  2  0  0  0  0  0  0
  190.7940  174.7840  135.2740 C   0  0  2  0  0  3  0  0  0  0  0  0
  191.1430  173.4540  134.5940 C   0  0  0  0  0  2  0  0  0  0  0  0
  191.9970  175.4710  135.9310 C   0  0  0  0  0  2  0  0  0  0  0  0
  194.4140  175.3930  137.1480 S   0  0  2  0  0  3  0  0  0  0  0  0
  193.9020  176.8210  137.2660 O   0  0  0  0  0  1  0  0  0  0  0  0
  195.8770  175.5610  136.2410 O   0  0  0  0  0  0  0  0  0  0  0  0
  198.1490  175.5060  136.6700 O   0  0  0  0  0  0  0  0  0  0  0  0
  197.0500  174.8970  136.6000 C   0  0  0  0  0  3  0  0  0  0  0  0
  181.1820  176.9690  139.5480 C   0  0  0  0  0  0  0  0  0  0  0  0
  179.9440  175.5200  138.4410 C   0  0  0  0  0  0  0  0  0  0  0  0
  181.2950  175.8420  138.8590 C   0  0  0  0  0  3  0  0  0  0  0  0
  179.6000  174.3710  137.6790 N   0  0  0  0  0  1  0  0  0  0  0  0
  179.0650  176.3680  138.8530 N   0  0  0  0  0  0  0  0  0  0  0  0
  179.7520  177.4000  139.6110 C   0  0  0  0  0  2  0  0  0  0  0  0
  182.9600  179.2970  143.5260 N   0  0  0  0  0  2  0  0  0  0  0  0
  183.4620  178.6370  144.7210 C   0  0  0  0  0  2  0  0  0  0  0  0
  185.7040  178.7880  145.8890 C   0  0  0  0  0  0  0  0  0  0  0  0
  184.9160  178.6200  144.7070 N   0  0  0  0  0  2  0  0  0  0  0  0
  185.1500  178.9940  147.0010 O   0  0  0  0  0  0  0  0  0  0  0  0
  187.7180  177.4730  145.1750 C   0  0  2  0  0  3  0  0  0  0  0  0
  189.1960  178.1320  147.2780 C   0  0  0  0  0  2  0  0  0  0  0  0
  187.2020  178.7660  145.8140 C   0  0  2  0  0  3  0  0  0  0  0  0
  191.4130  177.1340  146.5610 C   0  0  0  0  0  2  0  0  0  0  0  0
  188.6100  177.8630  142.8770 C   0  0  0  0  0  2  0  0  0  0  0  0
  187.8540  177.6890  146.6850 C   0  0  1  0  0  0  0  0  0  0  0  0
  191.1510  177.5230  145.1020 C   0  0  0  0  0  2  0  0  0  0  0  0
  190.6340  174.8390  143.2510 C   0  0  0  0  0  1  0  0  0  0  0  0
  190.0080  176.8050  144.5490 N   0  0  2  0  0  0  0  0  0  0  0  0
  190.1440  176.9400  147.3900 C   0  0  0  0  0  2  0  0  0  0  0  0
  190.3870  176.3340  143.2210 C   0  0  2  0  0  3  0  0  0  0  0  0
  189.2490  176.6450  142.2800 C   0  0  0  0  0  2  0  0  0  0  0  0
  188.9620  177.8100  144.3530 C   0  0  2  0  0  3  0  0  0  0  0  0
  187.2540  176.9570  149.0270 C   0  0  0  0  0  1  0  0  0  0  0  0
  186.9280  176.8260  147.5490 C   0  0  0  0  0  2  0  0  0  0  0  0
  1  9  1  0  0  0  0
  2 37  1  0  0  0  0
  4  8  1  0  0  0  0
  4  1  2  0  0  0  0
  5  2  1  0  0  0  0
  6  3  2  0  0  0  0
  7  1  1  0  0  0  0
  7  6  1  0  0  0  0
  8  5  2  0  0  0  0
  9  3  1  0  0  0  0
  9  2  2  0  0  0  0
 10 11  1  0  0  0  0
 11 13  1  0  0  0  0
 11  7  1  0  0  0  0
 12 15  1  0  0  0  0
 13 15  1  0  0  0  0
 14 12  1  0  0  0  0
 14 10  1  0  0  0  0
 16 12  1  0  0  0  0
 17 16  1  0  0  0  0
 17 18  2  0  0  0  0
 20 21  1  0  0  0  0
 20 26  1  1  0  0  0
 21 19  1  6  0  0  0
 22 21  1  0  0  0  0
 23 25  1  0  0  0  0
 23 17  1  1  0  0  0
 24 23  1  0  0  0  0
 24 22  1  0  0  0  0
 25 20  1  0  0  0  0
 26 27  1  6  0  0  0
 28 30  1  0  0  0  0
 28 26  1  0  0  0  0
 30 29  2  0  0  0  0
 31 36  1  0  0  0  0
 31  8  1  0  0  0  0
 32 35  2  0  0  0  0
 32 33  1  0  0  0  0
 33 31  2  0  0  0  0
 34 32  1  0  0  0  0
 35 36  1  0  0  0  0
 37 38  1  0  0  0  0
 39 41  2  0  0  0  0
 40 38  1  0  0  0  0
 40 39  1  0  0  0  0
 42 44  1  0  0  0  0
 42 47  1  0  0  0  0
 43 51  1  0  0  0  0
 44 39  1  0  0  0  0
 44 47  1  0  0  0  0
 45 51  1  0  0  0  0
 46 54  1  0  0  0  0
 47 43  1  0  0  0  0
 47 56  1  0  0  0  0
 48 45  1  0  0  0  0
 50 48  1  0  0  0  0
 52 49  1  0  0  0  0
 52 50  1  0  0  0  0
 53 46  1  0  0  0  0
 53 52  1  0  0  0  0
 54 50  1  0  0  0  0
 54 42  1  0  0  0  0
 56 55  1  0  0  0  0
M  END
>  <MODEL>
8

>  <REMARK>
 VINA RESULT:      -6.8      2.512      8.202
  Name = 
  12 active torsions:
  status: ('A' for Active; 'I' for Inactive)
    1  A    between atoms: N_3  and  C_32
    2  A    between atoms: C_4  and  C_26
    3  A    between atoms: C_5  and  C_22
    4  A    between atoms: N_8  and  C_46
    5  A    between atoms: C_9  and  S_21
    6  A    between atoms: C_11  and  C_42
    7  A    between atoms: C_13  and  N_17
    8  A    between atoms: N_17  and  C_46
    9  A    between atoms: C_18  and  O_56
   10  A    between atoms: S_21  and  O_56
   11  A    between atoms: C_29  and  N_39
   12  A    between atoms: C_31  and  C_40
                            x       y       z     vdW  Elec       q    Type
                         _______ _______ _______ _____ _____    ______ ____

>  <TORSDO>
F 12

$$$$
=
 OpenBabel10222420563D

 56 63  0  0  1  0  0  0  0  0999 V2000
  189.4680  177.0720  141.9700 C   0  0  0  0  0  0  0  0  0  0  0  0
  187.5830  177.7850  143.2990 C   0  0  0  0  0  0  0  0  0  0  0  0
  187.6420  177.7300  140.7600 N   0  0  0  0  0  0  0  0  0  0  0  0
  190.2420  176.8200  143.1010 C   0  0  0  0  0  3  0  0  0  0  0  0
  188.3400  177.5280  144.4540 C   0  0  0  0  0  3  0  0  0  0  0  0
  188.6880  177.3530  139.8000 C   0  0  0  0  0  3  0  0  0  0  0  0
  189.8440  176.9480  140.6080 N   0  0  0  0  0  0  0  0  0  0  0  0
  189.6650  177.0480  144.3680 C   0  0  0  0  0  0  0  0  0  0  0  0
  188.1930  177.5450  142.0560 C   0  0  0  0  0  0  0  0  0  0  0  0
  192.2220  177.3970  140.2050 C   0  0  0  0  0  2  0  0  0  0  0  0
  191.0900  176.3600  140.1140 C   0  0  2  0  0  3  0  0  0  0  0  0
  192.7960  177.1540  137.7470 C   0  0  2  0  0  3  0  0  0  0  0  0
  190.9100  175.7870  138.6930 C   0  0  0  0  0  2  0  0  0  0  0  0
  193.3270  177.1120  139.1900 C   0  0  0  0  0  2  0  0  0  0  0  0
  191.3070  176.8090  137.6320 C   0  0  0  0  0  2  0  0  0  0  0  0
  193.5640  176.2410  136.9150 N   0  0  0  0  0  2  0  0  0  0  0  0
  194.4940  175.2990  137.4500 C   0  0  0  0  0  0  0  0  0  0  0  0
  194.6990  175.2430  138.6940 O   0  0  0  0  0  0  0  0  0  0  0  0
  193.2010  171.0120  135.3330 O   0  0  0  0  0  1  0  0  0  0  0  0
  195.1530  171.9200  136.4060 C   0  0  1  0  0  3  0  0  0  0  0  0
  193.6910  172.1390  135.9920 C   0  0  1  0  0  3  0  0  0  0  0  0
  193.5010  173.3670  135.0920 C   0  0  0  0  0  2  0  0  0  0  0  0
  195.3170  174.4850  136.4990 C   0  0  2  0  0  3  0  0  0  0  0  0
  194.6850  174.3410  135.1090 C   0  0  0  0  0  2  0  0  0  0  0  0
  195.6980  173.1460  137.1410 C   0  0  0  0  0  2  0  0  0  0  0  0
  195.3420  170.4850  137.4920 S   0  0  2  0  0  3  0  0  0  0  0  0
  195.0240  171.0240  138.8790 O   0  0  0  0  0  1  0  0  0  0  0  0
  197.0460  170.1940  137.5520 O   0  0  0  0  0  0  0  0  0  0  0  0
  199.0710  170.9810  136.7570 O   0  0  0  0  0  0  0  0  0  0  0  0
  197.8990  170.5880  136.5200 C   0  0  0  0  0  3  0  0  0  0  0  0
  190.4430  176.8410  145.6010 C   0  0  0  0  0  0  0  0  0  0  0  0
  191.9720  176.2360  147.0680 C   0  0  0  0  0  0  0  0  0  0  0  0
  191.5460  176.1110  145.6880 C   0  0  0  0  0  3  0  0  0  0  0  0
  193.1340  175.6160  147.6010 N   0  0  0  0  0  1  0  0  0  0  0  0
  191.2060  176.9960  147.7730 N   0  0  0  0  0  0  0  0  0  0  0  0
  190.1320  177.4740  146.9190 C   0  0  0  0  0  2  0  0  0  0  0  0
  186.2470  178.2890  143.4320 N   0  0  0  0  0  2  0  0  0  0  0  0
  185.5200  178.9440  142.3560 C   0  0  0  0  0  2  0  0  0  0  0  0
  184.0700  177.9710  140.5210 C   0  0  0  0  0  0  0  0  0  0  0  0
  184.4330  178.0930  141.8990 N   0  0  0  0  0  2  0  0  0  0  0  0
  184.6740  178.6400  139.6420 O   0  0  0  0  0  0  0  0  0  0  0  0
  182.7230  177.1010  138.5910 C   0  0  2  0  0  3  0  0  0  0  0  0
  180.3950  177.1850  139.8620 C   0  0  0  0  0  2  0  0  0  0  0  0
  182.9350  177.0810  140.1090 C   0  0  2  0  0  3  0  0  0  0  0  0
  178.9390  176.0230  138.1430 C   0  0  0  0  0  2  0  0  0  0  0  0
  183.4620  174.9700  137.5220 C   0  0  0  0  0  2  0  0  0  0  0  0
  181.7410  177.8300  139.5120 C   0  0  1  0  0  0  0  0  0  0  0  0
  180.0790  175.0670  137.7770 C   0  0  0  0  0  2  0  0  0  0  0  0
  181.2030  175.6950  134.7380 C   0  0  0  0  0  1  0  0  0  0  0  0
  181.2030  175.7740  137.1740 N   0  0  2  0  0  0  0  0  0  0  0  0
  179.4090  177.3620  138.7110 C   0  0  0  0  0  2  0  0  0  0  0  0
  181.6350  175.0010  136.0140 C   0  0  2  0  0  3  0  0  0  0  0  0
  183.1400  174.9050  136.0580 C   0  0  0  0  0  2  0  0  0  0  0  0
  182.2910  175.7030  138.1520 C   0  0  2  0  0  3  0  0  0  0  0  0
  181.6560  179.8880  138.0490 C   0  0  0  0  0  1  0  0  0  0  0  0
  181.8210  179.3600  139.4640 C   0  0  0  0  0  2  0  0  0  0  0  0
  1  9  2  0  0  0  0
  1  4  1  0  0  0  0
  2 37  1  0  0  0  0
  2  5  2  0  0  0  0
  3  9  1  0  0  0  0
  4  8  2  0  0  0  0
  6  7  1  0  0  0  0
  6  3  2  0  0  0  0
  7  1  1  0  0  0  0
  8  5  1  0  0  0  0
  8 31  1  0  0  0  0
  9  2  1  0  0  0  0
 11 10  1  0  0  0  0
 11  7  1  0  0  0  0
 12 14  1  0  0  0  0
 13 11  1  0  0  0  0
 14 10  1  0  0  0  0
 15 12  1  0  0  0  0
 15 13  1  0  0  0  0
 16 17  1  0  0  0  0
 16 12  1  0  0  0  0
 17 18  2  0  0  0  0
 20 25  1  0  0  0  0
 20 26  1  1  0  0  0
 21 19  1  6  0  0  0
 21 20  1  0  0  0  0
 22 24  1  0  0  0  0
 22 21  1  0  0  0  0
 23 25  1  0  0  0  0
 23 17  1  1  0  0  0
 24 23  1  0  0  0  0
 26 28  1  0  0  0  0
 26 27  1  1  0  0  0
 30 29  2  0  0  0  0
 30 28  1  0  0  0  0
 31 33  2  0  0  0  0
 31 36  1  0  0  0  0
 32 34  1  0  0  0  0
 32 35  2  0  0  0  0
 33 32  1  0  0  0  0
 36 35  1  0  0  0  0
 38 37  1  0  0  0  0
 39 40  1  0  0  0  0
 40 38  1  0  0  0  0
 41 39  2  0  0  0  0
 42 47  1  0  0  0  0
 42 44  1  0  0  0  0
 44 39  1  0  0  0  0
 45 51  1  0  0  0  0
 46 54  1  0  0  0  0
 47 43  1  0  0  0  0
 47 44  1  0  0  0  0
 48 45  1  0  0  0  0
 49 52  1  0  0  0  0
 50 48  1  0  0  0  0
 50 54  1  0  0  0  0
 51 43  1  0  0  0  0
 52 53  1  0  0  0  0
 52 50  1  0  0  0  0
 53 46  1  0  0  0  0
 54 42  1  0  0  0  0
 55 56  1  0  0  0  0
 56 47  1  0  0  0  0
M  END
>  <MODEL>
9

>  <REMARK>
 VINA RESULT:      -6.3      1.515      2.512
  Name = 
  12 active torsions:
  status: ('A' for Active; 'I' for Inactive)
    1  A    between atoms: N_3  and  C_32
    2  A    between atoms: C_4  and  C_26
    3  A    between atoms: C_5  and  C_22
    4  A    between atoms: N_8  and  C_46
    5  A    between atoms: C_9  and  S_21
    6  A    between atoms: C_11  and  C_42
    7  A    between atoms: C_13  and  N_17
    8  A    between atoms: N_17  and  C_46
    9  A    between atoms: C_18  and  O_56
   10  A    between atoms: S_21  and  O_56
   11  A    between atoms: C_29  and  N_39
   12  A    between atoms: C_31  and  C_40
                            x       y       z     vdW  Elec       q    Type
                         _______ _______ _______ _____ _____    ______ ____

>  <TORSDO>
F 12

$$$$
