=
 OpenBabel10222416563D

 28 30  0  0  1  0  0  0  0  0999 V2000
  190.1770  177.2690  141.5870 C   0  0  2  0  0  3  0  0  0  0  0  0
  190.5200  177.5660  139.2330 O   0  0  0  0  0  0  0  0  0  0  0  0
  186.9980  178.4350  139.8800 N   0  0  0  0  0  1  0  0  0  0  0  0
  188.7080  177.6930  141.4440 C   0  0  2  0  0  3  0  0  0  0  0  0
  188.4340  178.3990  140.1100 C   0  0  1  0  0  3  0  0  0  0  0  0
  190.6550  176.6410  140.2800 C   0  0  0  0  0  2  0  0  0  0  0  0
  189.1450  177.6600  138.9600 C   0  0  1  0  0  3  0  0  0  0  0  0
  188.9580  178.3570  137.6140 C   0  0  0  0  0  3  0  0  0  0  0  0
  189.7640  177.7900  136.6430 F   0  0  0  0  0  0  0  0  0  0  0  0
  189.2180  179.7120  137.7170 F   0  0  0  0  0  0  0  0  0  0  0  0
  188.3540  178.5590  142.5170 O   0  0  0  0  0  0  0  0  0  0  0  0
  185.6100  178.0970  142.7070 O   0  0  0  0  0  0  0  0  0  0  0  0
  185.5960  177.7130  145.0720 C   0  0  1  0  0  3  0  0  0  0  0  0
  188.4940  177.8080  144.7820 C   0  0  0  0  0  3  0  0  0  0  0  0
  186.2930  177.9690  143.7590 C   0  0  0  0  0  0  0  0  0  0  0  0
  186.5410  177.2540  146.1540 C   0  0  0  0  0  3  0  0  0  0  0  0
  187.7600  178.1090  143.7020 C   0  0  0  0  0  0  0  0  0  0  0  0
  187.8690  177.3220  146.0240 C   0  0  0  0  0  3  0  0  0  0  0  0
  184.8510  178.9320  145.5150 C   0  0  0  0  0  0  0  0  0  0  0  0
  185.4020  179.7450  146.3540 N   0  0  0  0  0  1  0  0  0  0  0  0
  183.4940  179.1320  145.1290 N   0  0  0  0  0  2  0  0  0  0  0  0
  190.3440  176.2420  142.7020 C   0  0  0  0  0  2  0  0  0  0  0  0
  191.5970  176.4800  143.5360 C   0  0  1  0  0  3  0  0  0  0  0  0
  191.7600  177.9670  143.7610 C   0  0  0  0  0  1  0  0  0  0  0  0
  191.4980  175.7840  144.8830 C   0  0  0  0  0  2  0  0  0  0  0  0
  192.3630  175.7950  147.0600 C   0  0  0  0  0  2  0  0  0  0  0  0
  191.0750  176.4740  147.0810 C   0  0  0  0  0  2  0  0  0  0  0  0
  191.9780  176.6620  145.9360 N   0  0  0  0  0  0  0  0  0  0  0  0
  1 22  1  1  0  0  0
  2  6  1  0  0  0  0
  4  1  1  0  0  0  0
  4 11  1  1  0  0  0
  5  3  1  6  0  0  0
  5  4  1  0  0  0  0
  6  1  1  0  0  0  0
  7  8  1  6  0  0  0
  7  2  1  0  0  0  0
  7  5  1  0  0  0  0
  8 10  1  0  0  0  0
  9  8  1  0  0  0  0
 11 17  1  0  0  0  0
 12 15  2  0  0  0  0
 13 19  1  1  0  0  0
 13 16  1  0  0  0  0
 14 18  1  0  0  0  0
 15 13  1  0  0  0  0
 17 15  1  0  0  0  0
 17 14  2  0  0  0  0
 18 16  2  0  0  0  0
 19 20  1  0  0  0  0
 21 19  2  0  0  0  0
 22 23  1  0  0  0  0
 23 24  1  1  0  0  0
 23 25  1  0  0  0  0
 25 28  1  0  0  0  0
 26 27  1  0  0  0  0
 28 26  1  0  0  0  0
 28 27  1  0  0  0  0
M  END
>  <MODEL>
1

>  <REMARK>
 VINA RESULT:      -8.1      0.000      0.000
  Name = 
  8 active torsions:
  status: ('A' for Active; 'I' for Inactive)
    1  A    between atoms: C_1  and  C_26
    2  A    between atoms: C_3  and  C_7
    3  A    between atoms: C_5  and  C_12
    4  A    between atoms: O_11  and  C_15
    5  A    between atoms: O_11  and  C_20
    6  A    between atoms: C_12  and  C_14
    7  A    between atoms: C_14  and  C_25
    8  A    between atoms: N_17  and  C_25
                            x       y       z     vdW  Elec       q    Type
                         _______ _______ _______ _____ _____    ______ ____

>  <TORSDO>
F 8

$$$$
=
 OpenBabel10222416563D

 28 30  0  0  1  0  0  0  0  0999 V2000
  187.9150  177.9620  142.5750 C   0  0  2  0  0  3  0  0  0  0  0  0
  189.5750  177.7050  140.8640 O   0  0  0  0  0  0  0  0  0  0  0  0
  186.4080  178.4340  139.1270 N   0  0  0  0  0  1  0  0  0  0  0  0
  186.8370  178.2260  141.5130 C   0  0  2  0  0  3  0  0  0  0  0  0
  187.4400  178.5650  140.1440 C   0  0  1  0  0  3  0  0  0  0  0  0
  189.0060  177.0750  141.9820 C   0  0  0  0  0  2  0  0  0  0  0  0
  188.6210  177.6240  139.8340 C   0  0  1  0  0  3  0  0  0  0  0  0
  189.3010  177.9570  138.5090 C   0  0  0  0  0  3  0  0  0  0  0  0
  190.6020  177.4840  138.4830 F   0  0  0  0  0  0  0  0  0  0  0  0
  189.2860  179.3210  138.2730 F   0  0  0  0  0  0  0  0  0  0  0  0
  186.0000  179.2970  141.9370 O   0  0  0  0  0  0  0  0  0  0  0  0
  183.7970  177.9000  140.9490 O   0  0  0  0  0  0  0  0  0  0  0  0
  182.3440  178.4210  142.7810 C   0  0  1  0  0  3  0  0  0  0  0  0
  184.7630  179.5310  143.9680 C   0  0  0  0  0  3  0  0  0  0  0  0
  183.6820  178.4380  142.0830 C   0  0  0  0  0  0  0  0  0  0  0  0
  182.4420  178.7910  144.2400 C   0  0  0  0  0  3  0  0  0  0  0  0
  184.8410  179.1100  142.6980 C   0  0  0  0  0  0  0  0  0  0  0  0
  183.5460  179.3210  144.7730 C   0  0  0  0  0  3  0  0  0  0  0  0
  181.3770  179.3210  142.0810 C   0  0  0  0  0  0  0  0  0  0  0  0
  180.6190  180.1040  142.7730 N   0  0  0  0  0  1  0  0  0  0  0  0
  181.1880  179.2250  140.6710 N   0  0  0  0  0  2  0  0  0  0  0  0
  187.3240  177.2530  143.7890 C   0  0  0  0  0  2  0  0  0  0  0  0
  187.9300  177.7340  145.1020 C   0  0  1  0  0  3  0  0  0  0  0  0
  186.8760  177.6590  146.1830 C   0  0  0  0  0  1  0  0  0  0  0  0
  189.1150  176.8730  145.5060 C   0  0  0  0  0  2  0  0  0  0  0  0
  191.3770  176.8670  144.8990 C   0  0  0  0  0  2  0  0  0  0  0  0
  191.2980  176.9270  146.3520 C   0  0  0  0  0  2  0  0  0  0  0  0
  190.3270  177.6730  145.5380 N   0  0  0  0  0  0  0  0  0  0  0  0
  1 22  1  1  0  0  0
  2  6  1  0  0  0  0
  4 11  1  1  0  0  0
  4  1  1  0  0  0  0
  5  3  1  6  0  0  0
  5  4  1  0  0  0  0
  6  1  1  0  0  0  0
  7  8  1  6  0  0  0
  7  5  1  0  0  0  0
  7  2  1  0  0  0  0
  9  8  1  0  0  0  0
 10  8  1  0  0  0  0
 11 17  1  0  0  0  0
 12 15  2  0  0  0  0
 13 19  1  6  0  0  0
 13 16  1  0  0  0  0
 14 18  1  0  0  0  0
 15 17  1  0  0  0  0
 15 13  1  0  0  0  0
 16 18  2  0  0  0  0
 17 14  2  0  0  0  0
 19 20  1  0  0  0  0
 21 19  2  0  0  0  0
 22 23  1  0  0  0  0
 23 25  1  0  0  0  0
 23 24  1  1  0  0  0
 25 28  1  0  0  0  0
 26 28  1  0  0  0  0
 26 27  1  0  0  0  0
 28 27  1  0  0  0  0
M  END
>  <MODEL>
2

>  <REMARK>
 VINA RESULT:      -7.6      2.236      3.301
  Name = 
  8 active torsions:
  status: ('A' for Active; 'I' for Inactive)
    1  A    between atoms: C_1  and  C_26
    2  A    between atoms: C_3  and  C_7
    3  A    between atoms: C_5  and  C_12
    4  A    between atoms: O_11  and  C_15
    5  A    between atoms: O_11  and  C_20
    6  A    between atoms: C_12  and  C_14
    7  A    between atoms: C_14  and  C_25
    8  A    between atoms: N_17  and  C_25
                            x       y       z     vdW  Elec       q    Type
                         _______ _______ _______ _____ _____    ______ ____

>  <TORSDO>
F 8

$$$$
=
 OpenBabel10222416563D

 28 30  0  0  1  0  0  0  0  0999 V2000
  187.4880  177.4710  145.1010 C   0  0  2  0  0  3  0  0  0  0  0  0
  185.2800  178.2370  145.6330 O   0  0  0  0  0  0  0  0  0  0  0  0
  185.7920  178.9660  142.0570 N   0  0  0  0  0  1  0  0  0  0  0  0
  187.3170  177.9310  143.6460 C   0  0  2  0  0  3  0  0  0  0  0  0
  185.8490  178.1950  143.2890 C   0  0  1  0  0  3  0  0  0  0  0  0
  186.6270  178.3390  146.0140 C   0  0  0  0  0  2  0  0  0  0  0  0
  185.1510  178.9580  144.4330 C   0  0  1  0  0  3  0  0  0  0  0  0
  183.6680  179.1940  144.1590 C   0  0  0  0  0  3  0  0  0  0  0  0
  182.9290  179.1270  145.3270 F   0  0  0  0  0  0  0  0  0  0  0  0
  183.1840  178.2830  143.2360 F   0  0  0  0  0  0  0  0  0  0  0  0
  187.8450  176.9430  142.7670 O   0  0  0  0  0  0  0  0  0  0  0  0
  187.8090  177.9540  140.1670 O   0  0  0  0  0  0  0  0  0  0  0  0
  190.1320  177.5640  139.7290 C   0  0  1  0  0  3  0  0  0  0  0  0
  190.2250  176.8870  142.5620 C   0  0  0  0  0  3  0  0  0  0  0  0
  188.9210  177.5790  140.6290 C   0  0  0  0  0  0  0  0  0  0  0  0
  191.4250  177.4230  140.4940 C   0  0  0  0  0  3  0  0  0  0  0  0
  189.0190  177.1230  142.0270 C   0  0  0  0  0  0  0  0  0  0  0  0
  191.4620  177.0890  141.7860 C   0  0  0  0  0  3  0  0  0  0  0  0
  190.0120  176.4790  138.7070 C   0  0  0  0  0  0  0  0  0  0  0  0
  190.8940  175.5370  138.6710 N   0  0  0  0  0  1  0  0  0  0  0  0
  189.0170  176.5500  137.6890 N   0  0  0  0  0  2  0  0  0  0  0  0
  188.9410  177.5980  145.5470 C   0  0  0  0  0  2  0  0  0  0  0  0
  189.0890  177.6300  147.0630 C   0  0  1  0  0  3  0  0  0  0  0  0
  188.2500  176.5220  147.6600 C   0  0  0  0  0  1  0  0  0  0  0  0
  190.5380  177.4290  147.4770 C   0  0  0  0  0  2  0  0  0  0  0  0
  192.2860  175.9130  147.8340 C   0  0  0  0  0  2  0  0  0  0  0  0
  192.0670  176.0210  146.3990 C   0  0  0  0  0  2  0  0  0  0  0  0
  190.9170  176.0370  147.3140 N   0  0  0  0  0  0  0  0  0  0  0  0
  1 22  1  1  0  0  0
  1  6  1  0  0  0  0
  2  6  1  0  0  0  0
  4 11  1  6  0  0  0
  4  1  1  0  0  0  0
  5  3  1  6  0  0  0
  5  4  1  0  0  0  0
  5  7  1  0  0  0  0
  7  8  1  6  0  0  0
  7  2  1  0  0  0  0
  8  9  1  0  0  0  0
 10  8  1  0  0  0  0
 12 15  2  0  0  0  0
 13 19  1  6  0  0  0
 13 16  1  0  0  0  0
 13 15  1  0  0  0  0
 15 17  1  0  0  0  0
 16 18  2  0  0  0  0
 17 14  2  0  0  0  0
 17 11  1  0  0  0  0
 18 14  1  0  0  0  0
 20 19  1  0  0  0  0
 21 19  2  0  0  0  0
 22 23  1  0  0  0  0
 23 25  1  0  0  0  0
 23 24  1  1  0  0  0
 27 28  1  0  0  0  0
 27 26  1  0  0  0  0
 28 25  1  0  0  0  0
 28 26  1  0  0  0  0
M  END
>  <MODEL>
3

>  <REMARK>
 VINA RESULT:      -7.5      3.032      6.035
  Name = 
  8 active torsions:
  status: ('A' for Active; 'I' for Inactive)
    1  A    between atoms: C_1  and  C_26
    2  A    between atoms: C_3  and  C_7
    3  A    between atoms: C_5  and  C_12
    4  A    between atoms: O_11  and  C_15
    5  A    between atoms: O_11  and  C_20
    6  A    between atoms: C_12  and  C_14
    7  A    between atoms: C_14  and  C_25
    8  A    between atoms: N_17  and  C_25
                            x       y       z     vdW  Elec       q    Type
                         _______ _______ _______ _____ _____    ______ ____

>  <TORSDO>
F 8

$$$$
=
 OpenBabel10222416563D

 28 30  0  0  1  0  0  0  0  0999 V2000
  186.9020  178.0270  144.5030 C   0  0  2  0  0  3  0  0  0  0  0  0
  186.8830  177.9990  146.9000 O   0  0  0  0  0  0  0  0  0  0  0  0
  190.2700  176.9620  145.8820 N   0  0  0  0  0  1  0  0  0  0  0  0
  188.3670  177.5660  144.4910 C   0  0  2  0  0  3  0  0  0  0  0  0
  189.0430  177.7430  145.8570 C   0  0  1  0  0  3  0  0  0  0  0  0
  186.2160  177.5120  145.7650 C   0  0  0  0  0  2  0  0  0  0  0  0
  188.0940  177.2900  146.9840 C   0  0  1  0  0  3  0  0  0  0  0  0
  188.6930  177.5030  148.3720 C   0  0  0  0  0  3  0  0  0  0  0  0
  187.7080  177.5030  149.3450 F   0  0  0  0  0  0  0  0  0  0  0  0
  189.4130  178.6830  148.4250 F   0  0  0  0  0  0  0  0  0  0  0  0
  189.0910  178.2980  143.5080 O   0  0  0  0  0  0  0  0  0  0  0  0
  190.5430  176.1200  142.5450 O   0  0  0  0  0  0  0  0  0  0  0  0
  190.1770  176.5980  140.2260 C   0  0  1  0  0  3  0  0  0  0  0  0
  188.3520  178.6200  141.2590 C   0  0  0  0  0  3  0  0  0  0  0  0
  189.9580  176.8480  141.6970 C   0  0  0  0  0  0  0  0  0  0  0  0
  189.1700  177.3100  139.3570 C   0  0  0  0  0  3  0  0  0  0  0  0
  189.1010  177.9580  142.1510 C   0  0  0  0  0  0  0  0  0  0  0  0
  188.3520  178.2530  139.8320 C   0  0  0  0  0  3  0  0  0  0  0  0
  191.5680  176.9820  139.8300 C   0  0  0  0  0  0  0  0  0  0  0  0
  192.2700  177.7290  140.6150 N   0  0  0  0  0  1  0  0  0  0  0  0
  192.0720  176.6460  138.5400 N   0  0  0  0  0  2  0  0  0  0  0  0
  186.1490  177.4860  143.2920 C   0  0  0  0  0  2  0  0  0  0  0  0
  184.8890  178.2860  142.9800 C   0  0  1  0  0  3  0  0  0  0  0  0
  185.1770  179.7550  143.1910 C   0  0  0  0  0  1  0  0  0  0  0  0
  184.4470  178.0710  141.5420 C   0  0  0  0  0  2  0  0  0  0  0  0
  183.6370  179.3800  139.7760 C   0  0  0  0  0  2  0  0  0  0  0  0
  184.9050  178.7950  139.3620 C   0  0  0  0  0  2  0  0  0  0  0  0
  184.7330  179.2530  140.7480 N   0  0  0  0  0  0  0  0  0  0  0  0
  1 22  1  6  0  0  0
  1  6  1  0  0  0  0
  2  7  1  0  0  0  0
  4 11  1  6  0  0  0
  4  1  1  0  0  0  0
  4  5  1  0  0  0  0
  5  3  1  6  0  0  0
  5  7  1  0  0  0  0
  6  2  1  0  0  0  0
  7  8  1  1  0  0  0
  8 10  1  0  0  0  0
  8  9  1  0  0  0  0
 13 19  1  6  0  0  0
 13 15  1  0  0  0  0
 14 17  2  0  0  0  0
 15 17  1  0  0  0  0
 15 12  2  0  0  0  0
 16 18  2  0  0  0  0
 16 13  1  0  0  0  0
 17 11  1  0  0  0  0
 18 14  1  0  0  0  0
 19 20  1  0  0  0  0
 21 19  2  0  0  0  0
 23 24  1  6  0  0  0
 23 22  1  0  0  0  0
 25 23  1  0  0  0  0
 26 28  1  0  0  0  0
 27 26  1  0  0  0  0
 27 28  1  0  0  0  0
 28 25  1  0  0  0  0
M  END
>  <MODEL>
4

>  <REMARK>
 VINA RESULT:      -7.5      3.901      7.800
  Name = 
  8 active torsions:
  status: ('A' for Active; 'I' for Inactive)
    1  A    between atoms: C_1  and  C_26
    2  A    between atoms: C_3  and  C_7
    3  A    between atoms: C_5  and  C_12
    4  A    between atoms: O_11  and  C_15
    5  A    between atoms: O_11  and  C_20
    6  A    between atoms: C_12  and  C_14
    7  A    between atoms: C_14  and  C_25
    8  A    between atoms: N_17  and  C_25
                            x       y       z     vdW  Elec       q    Type
                         _______ _______ _______ _____ _____    ______ ____

>  <TORSDO>
F 8

$$$$
=
 OpenBabel10222416563D

 28 30  0  0  1  0  0  0  0  0999 V2000
  188.0320  177.9570  143.1280 C   0  0  2  0  0  3  0  0  0  0  0  0
  190.2890  177.5300  142.4430 O   0  0  0  0  0  0  0  0  0  0  0  0
  188.2860  177.6950  139.3540 N   0  0  0  0  0  1  0  0  0  0  0  0
  187.5660  177.9460  141.6650 C   0  0  2  0  0  3  0  0  0  0  0  0
  188.7360  178.0830  140.6820 C   0  0  1  0  0  3  0  0  0  0  0  0
  189.2610  177.0650  143.2780 C   0  0  0  0  0  2  0  0  0  0  0  0
  189.9150  177.1960  141.1290 C   0  0  1  0  0  3  0  0  0  0  0  0
  191.1330  177.3410  140.2200 C   0  0  0  0  0  3  0  0  0  0  0  0
  191.2240  176.2790  139.3370 F   0  0  0  0  0  0  0  0  0  0  0  0
  192.2960  177.4450  140.9620 F   0  0  0  0  0  0  0  0  0  0  0  0
  186.6420  179.0070  141.4490 O   0  0  0  0  0  0  0  0  0  0  0  0
  185.5920  178.5360  138.9080 O   0  0  0  0  0  0  0  0  0  0  0  0
  183.2940  178.6550  139.5740 C   0  0  1  0  0  3  0  0  0  0  0  0
  184.4110  178.7490  142.2640 C   0  0  0  0  0  3  0  0  0  0  0  0
  184.7750  178.6460  139.8620 C   0  0  0  0  0  0  0  0  0  0  0  0
  182.4580  178.4530  140.8140 C   0  0  0  0  0  3  0  0  0  0  0  0
  185.2740  178.8020  141.2400 C   0  0  0  0  0  0  0  0  0  0  0  0
  182.9720  178.5210  142.0450 C   0  0  0  0  0  3  0  0  0  0  0  0
  182.9020  179.9240  138.8860 C   0  0  0  0  0  0  0  0  0  0  0  0
  181.7620  179.9980  138.2860 N   0  0  0  0  0  2  0  0  0  0  0  0
  183.8300  181.0000  138.7680 N   0  0  0  0  0  1  0  0  0  0  0  0
  186.9400  177.4290  144.0530 C   0  0  0  0  0  2  0  0  0  0  0  0
  186.8540  178.2060  145.3620 C   0  0  1  0  0  3  0  0  0  0  0  0
  185.3980  178.4320  145.7030 C   0  0  0  0  0  1  0  0  0  0  0  0
  187.5140  177.4400  146.4970 C   0  0  0  0  0  2  0  0  0  0  0  0
  189.6030  176.8570  147.3810 C   0  0  0  0  0  2  0  0  0  0  0  0
  189.0600  177.9460  148.1810 C   0  0  0  0  0  2  0  0  0  0  0  0
  188.8570  177.9420  146.7260 N   0  0  0  0  0  0  0  0  0  0  0  0
  1  6  1  0  0  0  0
  1 22  1  1  0  0  0
  2  6  1  0  0  0  0
  4 11  1  1  0  0  0
  4  1  1  0  0  0  0
  5  3  1  6  0  0  0
  5  7  1  0  0  0  0
  5  4  1  0  0  0  0
  7  8  1  6  0  0  0
  7  2  1  0  0  0  0
  8 10  1  0  0  0  0
  9  8  1  0  0  0  0
 12 15  2  0  0  0  0
 13 19  1  1  0  0  0
 13 15  1  0  0  0  0
 13 16  1  0  0  0  0
 15 17  1  0  0  0  0
 16 18  2  0  0  0  0
 17 11  1  0  0  0  0
 17 14  2  0  0  0  0
 18 14  1  0  0  0  0
 20 19  2  0  0  0  0
 21 19  1  0  0  0  0
 22 23  1  0  0  0  0
 23 24  1  1  0  0  0
 23 25  1  0  0  0  0
 25 28  1  0  0  0  0
 26 27  1  0  0  0  0
 28 26  1  0  0  0  0
 28 27  1  0  0  0  0
M  END
>  <MODEL>
5

>  <REMARK>
 VINA RESULT:      -7.4      3.101      4.609
  Name = 
  8 active torsions:
  status: ('A' for Active; 'I' for Inactive)
    1  A    between atoms: C_1  and  C_26
    2  A    between atoms: C_3  and  C_7
    3  A    between atoms: C_5  and  C_12
    4  A    between atoms: O_11  and  C_15
    5  A    between atoms: O_11  and  C_20
    6  A    between atoms: C_12  and  C_14
    7  A    between atoms: C_14  and  C_25
    8  A    between atoms: N_17  and  C_25
                            x       y       z     vdW  Elec       q    Type
                         _______ _______ _______ _____ _____    ______ ____

>  <TORSDO>
F 8

$$$$
=
 OpenBabel10222416563D

 28 30  0  0  1  0  0  0  0  0999 V2000
  185.9180  178.3450  142.2180 C   0  0  2  0  0  3  0  0  0  0  0  0
  186.5630  178.3350  139.9090 O   0  0  0  0  0  0  0  0  0  0  0  0
  189.6530  177.8070  141.8460 N   0  0  0  0  0  1  0  0  0  0  0  0
  187.3760  178.1200  142.6450 C   0  0  2  0  0  3  0  0  0  0  0  0
  188.2550  177.6410  141.4820 C   0  0  1  0  0  3  0  0  0  0  0  0
  185.8870  179.0850  140.8830 C   0  0  0  0  0  2  0  0  0  0  0  0
  187.9330  178.4420  140.2050 C   0  0  1  0  0  3  0  0  0  0  0  0
  188.7360  177.9640  138.9980 C   0  0  0  0  0  3  0  0  0  0  0  0
  188.9820  179.0040  138.1190 F   0  0  0  0  0  0  0  0  0  0  0  0
  188.0820  176.9330  138.3450 F   0  0  0  0  0  0  0  0  0  0  0  0
  187.4240  177.1630  143.6970 O   0  0  0  0  0  0  0  0  0  0  0  0
  189.9640  177.9450  144.5450 O   0  0  0  0  0  0  0  0  0  0  0  0
  189.4400  177.9620  146.8830 C   0  0  1  0  0  3  0  0  0  0  0  0
  186.7130  177.5340  145.9480 C   0  0  0  0  0  3  0  0  0  0  0  0
  189.0710  177.8210  145.4270 C   0  0  0  0  0  0  0  0  0  0  0  0
  188.2350  178.1230  147.7760 C   0  0  0  0  0  3  0  0  0  0  0  0
  187.6880  177.5000  145.0300 C   0  0  0  0  0  0  0  0  0  0  0  0
  186.9890  177.9030  147.3480 C   0  0  0  0  0  3  0  0  0  0  0  0
  190.2660  176.7970  147.3290 C   0  0  0  0  0  0  0  0  0  0  0  0
  189.6810  175.7140  147.7180 N   0  0  0  0  0  1  0  0  0  0  0  0
  191.6800  176.9200  147.4580 N   0  0  0  0  0  2  0  0  0  0  0  0
  185.1690  179.1820  143.2500 C   0  0  0  0  0  2  0  0  0  0  0  0
  183.8710  178.5270  143.7060 C   0  0  1  0  0  3  0  0  0  0  0  0
  183.5480  179.0030  145.1040 C   0  0  0  0  0  1  0  0  0  0  0  0
  182.7200  178.8910  142.7820 C   0  0  0  0  0  2  0  0  0  0  0  0
  180.4600  178.3340  142.5250 C   0  0  0  0  0  2  0  0  0  0  0  0
  180.5440  179.7530  142.8430 C   0  0  0  0  0  2  0  0  0  0  0  0
  181.4590  178.8050  143.4960 N   0  0  0  0  0  0  0  0  0  0  0  0
  1  4  1  0  0  0  0
  1 22  1  1  0  0  0
  2  7  1  0  0  0  0
  2  6  1  0  0  0  0
  4 11  1  1  0  0  0
  5  3  1  1  0  0  0
  5  4  1  0  0  0  0
  6  1  1  0  0  0  0
  7  8  1  6  0  0  0
  7  5  1  0  0  0  0
  9  8  1  0  0  0  0
 10  8  1  0  0  0  0
 11 17  1  0  0  0  0
 12 15  2  0  0  0  0
 13 19  1  1  0  0  0
 13 16  1  0  0  0  0
 14 18  1  0  0  0  0
 15 13  1  0  0  0  0
 17 15  1  0  0  0  0
 17 14  2  0  0  0  0
 18 16  2  0  0  0  0
 19 21  2  0  0  0  0
 19 20  1  0  0  0  0
 22 23  1  0  0  0  0
 23 24  1  1  0  0  0
 25 28  1  0  0  0  0
 25 23  1  0  0  0  0
 26 27  1  0  0  0  0
 26 28  1  0  0  0  0
 27 28  1  0  0  0  0
M  END
>  <MODEL>
6

>  <REMARK>
 VINA RESULT:      -7.3      2.374      6.020
  Name = 
  8 active torsions:
  status: ('A' for Active; 'I' for Inactive)
    1  A    between atoms: C_1  and  C_26
    2  A    between atoms: C_3  and  C_7
    3  A    between atoms: C_5  and  C_12
    4  A    between atoms: O_11  and  C_15
    5  A    between atoms: O_11  and  C_20
    6  A    between atoms: C_12  and  C_14
    7  A    between atoms: C_14  and  C_25
    8  A    between atoms: N_17  and  C_25
                            x       y       z     vdW  Elec       q    Type
                         _______ _______ _______ _____ _____    ______ ____

>  <TORSDO>
F 8

$$$$
=
 OpenBabel10222416563D

 28 30  0  0  1  0  0  0  0  0999 V2000
  187.7890  177.9040  141.1720 C   0  0  2  0  0  3  0  0  0  0  0  0
  189.2080  177.5260  139.2780 O   0  0  0  0  0  0  0  0  0  0  0  0
  191.2500  176.8000  142.2580 N   0  0  0  0  0  1  0  0  0  0  0  0
  188.9320  177.5270  142.1260 C   0  0  2  0  0  3  0  0  0  0  0  0
  190.0700  176.7920  141.4070 C   0  0  1  0  0  3  0  0  0  0  0  0
  188.3700  178.4760  139.8820 C   0  0  0  0  0  2  0  0  0  0  0  0
  190.3760  177.4720  140.0580 C   0  0  1  0  0  3  0  0  0  0  0  0
  191.4600  176.7430  139.2690 C   0  0  0  0  0  3  0  0  0  0  0  0
  192.7080  177.2900  139.5160 F   0  0  0  0  0  0  0  0  0  0  0  0
  191.1890  176.7700  137.9130 F   0  0  0  0  0  0  0  0  0  0  0  0
  188.4290  176.7060  143.1750 O   0  0  0  0  0  0  0  0  0  0  0  0
  190.0330  178.3350  144.7730 O   0  0  0  0  0  0  0  0  0  0  0  0
  188.5450  178.3630  146.6510 C   0  0  1  0  0  3  0  0  0  0  0  0
  186.7270  177.0010  144.8260 C   0  0  0  0  0  3  0  0  0  0  0  0
  188.9090  177.9960  145.2340 C   0  0  0  0  0  0  0  0  0  0  0  0
  187.0740  178.1940  146.9390 C   0  0  0  0  0  3  0  0  0  0  0  0
  187.9790  177.2140  144.3990 C   0  0  0  0  0  0  0  0  0  0  0  0
  186.2500  177.5480  146.1090 C   0  0  0  0  0  3  0  0  0  0  0  0
  189.3590  177.5690  147.6230 C   0  0  0  0  0  0  0  0  0  0  0  0
  189.5330  178.0140  148.8220 N   0  0  0  0  0  1  0  0  0  0  0  0
  190.0550  176.4000  147.1980 N   0  0  0  0  0  2  0  0  0  0  0  0
  186.8800  178.9570  141.7980 C   0  0  0  0  0  2  0  0  0  0  0  0
  185.4790  178.4270  142.0840 C   0  0  1  0  0  3  0  0  0  0  0  0
  184.7800  179.3790  143.0280 C   0  0  0  0  0  1  0  0  0  0  0  0
  184.6660  178.3130  140.8050 C   0  0  0  0  0  2  0  0  0  0  0  0
  183.7400  179.6220  139.0980 C   0  0  0  0  0  2  0  0  0  0  0  0
  184.9060  178.9350  138.5610 C   0  0  0  0  0  2  0  0  0  0  0  0
  184.9340  179.4460  139.9380 N   0  0  0  0  0  0  0  0  0  0  0  0
  1 22  1  1  0  0  0
  1  4  1  0  0  0  0
  2  6  1  0  0  0  0
  2  7  1  0  0  0  0
  4 11  1  1  0  0  0
  5  4  1  0  0  0  0
  5  3  1  1  0  0  0
  6  1  1  0  0  0  0
  7  8  1  6  0  0  0
  7  5  1  0  0  0  0
  8  9  1  0  0  0  0
 10  8  1  0  0  0  0
 11 17  1  0  0  0  0
 12 15  2  0  0  0  0
 13 16  1  0  0  0  0
 13 19  1  1  0  0  0
 14 18  1  0  0  0  0
 15 13  1  0  0  0  0
 17 14  2  0  0  0  0
 17 15  1  0  0  0  0
 18 16  2  0  0  0  0
 19 20  1  0  0  0  0
 21 19  2  0  0  0  0
 22 23  1  0  0  0  0
 23 24  1  1  0  0  0
 25 23  1  0  0  0  0
 26 28  1  0  0  0  0
 27 26  1  0  0  0  0
 27 28  1  0  0  0  0
 28 25  1  0  0  0  0
M  END
>  <MODEL>
7

>  <REMARK>
 VINA RESULT:      -7.2      2.446      5.369
  Name = 
  8 active torsions:
  status: ('A' for Active; 'I' for Inactive)
    1  A    between atoms: C_1  and  C_26
    2  A    between atoms: C_3  and  C_7
    3  A    between atoms: C_5  and  C_12
    4  A    between atoms: O_11  and  C_15
    5  A    between atoms: O_11  and  C_20
    6  A    between atoms: C_12  and  C_14
    7  A    between atoms: C_14  and  C_25
    8  A    between atoms: N_17  and  C_25
                            x       y       z     vdW  Elec       q    Type
                         _______ _______ _______ _____ _____    ______ ____

>  <TORSDO>
F 8

$$$$
=
 OpenBabel10222416563D

 28 30  0  0  1  0  0  0  0  0999 V2000
  187.0270  178.2060  143.9880 C   0  0  2  0  0  3  0  0  0  0  0  0
  187.0420  178.0960  146.3830 O   0  0  0  0  0  0  0  0  0  0  0  0
  190.3140  176.8160  145.2710 N   0  0  0  0  0  1  0  0  0  0  0  0
  188.4470  177.6240  143.9350 C   0  0  2  0  0  3  0  0  0  0  0  0
  189.1560  177.6970  145.2930 C   0  0  1  0  0  3  0  0  0  0  0  0
  186.3190  177.7050  145.2450 C   0  0  0  0  0  2  0  0  0  0  0  0
  188.1900  177.2850  146.4220 C   0  0  1  0  0  3  0  0  0  0  0  0
  188.8250  177.3990  147.8050 C   0  0  0  0  0  3  0  0  0  0  0  0
  187.9280  177.0400  148.7960 F   0  0  0  0  0  0  0  0  0  0  0  0
  189.2950  178.6810  148.0310 F   0  0  0  0  0  0  0  0  0  0  0  0
  189.2150  178.3270  142.9640 O   0  0  0  0  0  0  0  0  0  0  0  0
  190.5390  176.0380  142.0770 O   0  0  0  0  0  0  0  0  0  0  0  0
  190.2990  176.5150  139.7410 C   0  0  1  0  0  3  0  0  0  0  0  0
  188.5900  178.6780  140.6850 C   0  0  0  0  0  3  0  0  0  0  0  0
  190.0430  176.7970  141.2010 C   0  0  0  0  0  0  0  0  0  0  0  0
  189.3820  177.2900  138.8270 C   0  0  0  0  0  3  0  0  0  0  0  0
  189.2530  177.9720  141.6110 C   0  0  0  0  0  0  0  0  0  0  0  0
  188.6180  178.2960  139.2620 C   0  0  0  0  0  3  0  0  0  0  0  0
  191.7290  176.7920  139.3980 C   0  0  0  0  0  0  0  0  0  0  0  0
  192.2450  176.2580  138.3410 N   0  0  0  0  0  2  0  0  0  0  0  0
  192.5610  177.5230  140.2950 N   0  0  0  0  0  1  0  0  0  0  0  0
  186.2130  177.7720  142.7730 C   0  0  0  0  0  2  0  0  0  0  0  0
  185.1950  178.8220  142.3440 C   0  0  1  0  0  3  0  0  0  0  0  0
  185.2910  179.0130  140.8470 C   0  0  0  0  0  1  0  0  0  0  0  0
  183.7810  178.3920  142.6980 C   0  0  0  0  0  2  0  0  0  0  0  0
  182.4660  178.7310  144.6060 C   0  0  0  0  0  2  0  0  0  0  0  0
  181.6880  179.1310  143.4420 C   0  0  0  0  0  2  0  0  0  0  0  0
  183.1280  179.4200  143.4890 N   0  0  0  0  0  0  0  0  0  0  0  0
  1 22  1  6  0  0  0
  1  6  1  0  0  0  0
  2  7  1  0  0  0  0
  4 11  1  6  0  0  0
  4  1  1  0  0  0  0
  4  5  1  0  0  0  0
  5  3  1  6  0  0  0
  5  7  1  0  0  0  0
  6  2  1  0  0  0  0
  7  8  1  1  0  0  0
  8 10  1  0  0  0  0
  8  9  1  0  0  0  0
 13 19  1  6  0  0  0
 13 15  1  0  0  0  0
 14 17  2  0  0  0  0
 15 17  1  0  0  0  0
 15 12  2  0  0  0  0
 16 18  2  0  0  0  0
 16 13  1  0  0  0  0
 17 11  1  0  0  0  0
 18 14  1  0  0  0  0
 19 21  1  0  0  0  0
 20 19  2  0  0  0  0
 23 24  1  6  0  0  0
 23 25  1  0  0  0  0
 23 22  1  0  0  0  0
 25 28  1  0  0  0  0
 27 28  1  0  0  0  0
 27 26  1  0  0  0  0
 28 26  1  0  0  0  0
M  END
>  <MODEL>
8

>  <REMARK>
 VINA RESULT:      -7.1      3.753      7.752
  Name = 
  8 active torsions:
  status: ('A' for Active; 'I' for Inactive)
    1  A    between atoms: C_1  and  C_26
    2  A    between atoms: C_3  and  C_7
    3  A    between atoms: C_5  and  C_12
    4  A    between atoms: O_11  and  C_15
    5  A    between atoms: O_11  and  C_20
    6  A    between atoms: C_12  and  C_14
    7  A    between atoms: C_14  and  C_25
    8  A    between atoms: N_17  and  C_25
                            x       y       z     vdW  Elec       q    Type
                         _______ _______ _______ _____ _____    ______ ____

>  <TORSDO>
F 8

$$$$
=
 OpenBabel10222416563D

 28 30  0  0  1  0  0  0  0  0999 V2000
  189.9290  177.1690  143.4830 C   0  0  2  0  0  3  0  0  0  0  0  0
  191.6810  176.4420  144.9490 O   0  0  0  0  0  0  0  0  0  0  0  0
  188.8290  177.3240  147.1090 N   0  0  0  0  0  1  0  0  0  0  0  0
  189.0070  177.4280  144.6840 C   0  0  2  0  0  3  0  0  0  0  0  0
  189.5140  176.7470  145.9620 C   0  0  1  0  0  3  0  0  0  0  0  0
  191.3840  177.3400  143.9120 C   0  0  0  0  0  2  0  0  0  0  0  0
  191.0380  176.9340  146.0980 C   0  0  1  0  0  3  0  0  0  0  0  0
  191.6070  176.2220  147.3220 C   0  0  0  0  0  3  0  0  0  0  0  0
  192.0370  177.1320  148.2730 F   0  0  0  0  0  0  0  0  0  0  0  0
  192.6450  175.3790  146.9670 F   0  0  0  0  0  0  0  0  0  0  0  0
  187.6960  176.9600  144.3900 O   0  0  0  0  0  0  0  0  0  0  0  0
  186.4520  178.9530  145.8940 O   0  0  0  0  0  0  0  0  0  0  0  0
  184.7840  179.4810  144.2570 C   0  0  1  0  0  3  0  0  0  0  0  0
  186.3340  177.6850  142.5650 C   0  0  0  0  0  3  0  0  0  0  0  0
  186.0170  178.7500  144.7280 C   0  0  0  0  0  0  0  0  0  0  0  0
  184.5900  179.3950  142.7630 C   0  0  0  0  0  3  0  0  0  0  0  0
  186.6930  177.7750  143.8530 C   0  0  0  0  0  0  0  0  0  0  0  0
  185.2880  178.5530  141.9960 C   0  0  0  0  0  3  0  0  0  0  0  0
  183.5700  178.9720  144.9680 C   0  0  0  0  0  0  0  0  0  0  0  0
  183.6550  178.6340  146.2110 N   0  0  0  0  0  1  0  0  0  0  0  0
  182.3620  178.7280  144.2530 N   0  0  0  0  0  2  0  0  0  0  0  0
  189.6420  178.1530  142.3530 C   0  0  0  0  0  2  0  0  0  0  0  0
  189.5050  177.4660  140.9990 C   0  0  1  0  0  3  0  0  0  0  0  0
  188.5800  178.2860  140.1270 C   0  0  0  0  0  1  0  0  0  0  0  0
  190.8530  177.3410  140.3090 C   0  0  0  0  0  2  0  0  0  0  0  0
  191.9100  176.3600  138.4630 C   0  0  0  0  0  2  0  0  0  0  0  0
  190.5000  176.5320  138.1400 C   0  0  0  0  0  2  0  0  0  0  0  0
  190.8920  176.1360  139.5000 N   0  0  0  0  0  0  0  0  0  0  0  0
  1 22  1  6  0  0  0
  1  6  1  0  0  0  0
  1  4  1  0  0  0  0
  2  7  1  0  0  0  0
  4 11  1  6  0  0  0
  4  5  1  0  0  0  0
  5  7  1  0  0  0  0
  5  3  1  1  0  0  0
  6  2  1  0  0  0  0
  7  8  1  1  0  0  0
  8  9  1  0  0  0  0
 10  8  1  0  0  0  0
 13 15  1  0  0  0  0
 13 19  1  1  0  0  0
 14 17  2  0  0  0  0
 15 12  2  0  0  0  0
 16 13  1  0  0  0  0
 17 11  1  0  0  0  0
 17 15  1  0  0  0  0
 18 14  1  0  0  0  0
 18 16  2  0  0  0  0
 19 20  1  0  0  0  0
 21 19  2  0  0  0  0
 23 24  1  6  0  0  0
 23 22  1  0  0  0  0
 25 23  1  0  0  0  0
 26 28  1  0  0  0  0
 27 26  1  0  0  0  0
 27 28  1  0  0  0  0
 28 25  1  0  0  0  0
M  END
>  <MODEL>
9

>  <REMARK>
 VINA RESULT:      -7.1      3.562      5.748
  Name = 
  8 active torsions:
  status: ('A' for Active; 'I' for Inactive)
    1  A    between atoms: C_1  and  C_26
    2  A    between atoms: C_3  and  C_7
    3  A    between atoms: C_5  and  C_12
    4  A    between atoms: O_11  and  C_15
    5  A    between atoms: O_11  and  C_20
    6  A    between atoms: C_12  and  C_14
    7  A    between atoms: C_14  and  C_25
    8  A    between atoms: N_17  and  C_25
                            x       y       z     vdW  Elec       q    Type
                         _______ _______ _______ _____ _____    ______ ____

>  <TORSDO>
F 8

$$$$
