=
 OpenBabel10222419493D

 50 51  0  0  1  0  0  0  0  0999 V2000
  191.7190  176.7150  145.6190 N   0  0  0  0  0  1  0  0  0  0  0  0
  188.2830  177.8420  146.5930 C   0  0  0  0  0  0  0  0  0  0  0  0
  187.6090  177.7490  145.3530 C   0  0  0  0  0  0  0  0  0  0  0  0
  190.3530  177.5660  147.8580 O   0  0  0  0  0  1  0  0  0  0  0  0
  189.6520  177.4860  146.6600 C   0  0  0  0  0  0  0  0  0  0  0  0
  190.3320  177.0450  145.5140 C   0  0  0  0  0  0  0  0  0  0  0  0
  188.3100  177.3080  144.2250 C   0  0  0  0  0  3  0  0  0  0  0  0
  189.6580  176.9520  144.2820 C   0  0  0  0  0  0  0  0  0  0  0  0
  190.4320  175.2760  142.7670 O   0  0  0  0  0  0  0  0  0  0  0  0
  190.8250  177.4750  142.1140 N   0  0  0  0  0  2  0  0  0  0  0  0
  190.3170  176.5030  143.0320 C   0  0  0  0  0  0  0  0  0  0  0  0
  191.4300  177.1110  140.8440 C   0  0  0  0  0  2  0  0  0  0  0  0
  190.3590  176.9970  139.7750 C   0  0  0  0  0  2  0  0  0  0  0  0
  190.7160  175.9410  138.8430 N   0  0  0  0  0  2  0  0  0  0  0  0
  190.6010  176.4840  137.4970 C   0  0  2  0  0  3  0  0  0  0  0  0
  189.2060  176.9580  137.2190 C   0  0  0  0  0  0  0  0  0  0  0  0
  187.8870  175.8190  137.4580 Cl  0  0  0  0  0  0  0  0  0  0  0  0
  188.9980  178.1640  136.7810 N   0  0  0  0  0  0  0  0  0  0  0  0
  187.7020  178.6700  136.4740 C   0  0  0  0  0  3  0  0  0  0  0  0
  186.9820  179.1500  137.3870 O   0  0  0  0  0  0  0  0  0  0  0  0
  191.0980  175.4830  136.4540 C   0  0  0  0  0  2  0  0  0  0  0  0
  191.5450  174.1660  137.0730 C   0  0  0  0  0  2  0  0  0  0  0  0
  193.2400  173.7950  136.5470 S   0  0  0  0  0  1  0  0  0  0  0  0
  185.4220  178.2270  146.1990 O   0  0  0  0  0  0  0  0  0  0  0  0
  186.1730  178.0990  145.1950 C   0  0  0  0  0  0  0  0  0  0  0  0
  185.6070  178.3070  143.8900 C   0  0  0  0  0  0  0  0  0  0  0  0
  185.1460  178.4880  142.7910 C   0  0  0  0  0  0  0  0  0  0  0  0
  184.4910  178.7590  141.1760 S   0  0  0  0  0  0  0  0  0  0  0  0
  181.7290  178.7700  141.0090 C   0  0  0  0  0  0  0  0  0  0  0  0
  182.8090  178.4230  141.7090 C   0  0  0  0  0  3  0  0  0  0  0  0
  181.8580  179.4970  139.7010 C   0  0  0  0  0  2  0  0  0  0  0  0
  181.1640  178.7210  138.5990 C   0  0  0  0  0  2  0  0  0  0  0  0
  182.0850  177.8900  137.9600 O   0  0  0  0  0  0  0  0  0  0  0  0
  181.9880  176.7390  138.5920 O   0  0  0  0  0  0  0  0  0  0  0  0
  181.7550  176.2790  136.3830 F   0  0  0  0  0  0  0  0  0  0  0  0
  181.4300  175.8600  137.6590 C   0  0  1  0  0  3  0  0  0  0  0  0
  181.9590  174.5230  137.8750 N   0  0  0  0  0  2  0  0  0  0  0  0
  182.9180  172.9560  136.3140 C   0  0  0  0  0  2  0  0  0  0  0  0
  183.0310  174.3160  136.9110 C   0  0  2  0  0  3  0  0  0  0  0  0
  183.8770  172.1480  136.7390 C   0  0  0  0  0  2  0  0  0  0  0  0
  186.2210  172.6970  137.2260 C   0  0  0  0  0  1  0  0  0  0  0  0
  184.7880  172.8310  137.6920 C   0  0  1  0  0  3  0  0  0  0  0  0
  184.3640  174.2920  137.6450 C   0  0  0  0  0  2  0  0  0  0  0  0
  180.4720  178.4510  141.5430 O   0  0  0  0  0  0  0  0  0  0  0  0
  179.8240  179.1620  142.6000 C   0  0  2  0  0  3  0  0  0  0  0  0
  180.3420  180.4530  142.7170 O   0  0  0  0  0  1  0  0  0  0  0  0
  179.9380  178.4220  143.9220 C   0  0  0  0  0  2  0  0  0  0  0  0
  181.1830  178.6470  144.4790 F   0  0  0  0  0  0  0  0  0  0  0  0
  187.4640  177.5690  149.0240 C   0  0  0  0  0  1  0  0  0  0  0  0
  187.5540  178.2720  147.7560 N   0  0  0  0  0  2  0  0  0  0  0  0
  2  5  1  0  0  0  0
  2 50  1  0  0  0  0
  3  2  2  0  0  0  0
  5  4  1  0  0  0  0
  6  1  1  0  0  0  0
  6  5  2  0  0  0  0
  7  8  2  0  0  0  0
  7  3  1  0  0  0  0
  8  6  1  0  0  0  0
  9 11  2  0  0  0  0
 10 11  1  0  0  0  0
 11  8  1  0  0  0  0
 12 10  1  0  0  0  0
 13 12  1  0  0  0  0
 14 13  1  0  0  0  0
 15 21  1  6  0  0  0
 15 14  1  0  0  0  0
 16 17  1  0  0  0  0
 16 15  1  0  0  0  0
 18 16  2  0  0  0  0
 19 18  1  0  0  0  0
 19 20  2  0  0  0  0
 21 22  1  0  0  0  0
 23 22  1  0  0  0  0
 25  3  1  0  0  0  0
 25 24  2  0  0  0  0
 26 25  1  0  0  0  0
 27 26  3  0  0  0  0
 28 30  1  0  0  0  0
 28 27  1  0  0  0  0
 29 44  1  0  0  0  0
 29 30  2  0  0  0  0
 31 29  1  0  0  0  0
 32 31  1  0  0  0  0
 33 34  1  0  0  0  0
 33 32  1  0  0  0  0
 36 35  1  6  0  0  0
 36 37  1  0  0  0  0
 36 34  1  0  0  0  0
 38 40  1  0  0  0  0
 38 39  1  0  0  0  0
 39 43  1  0  0  0  0
 39 37  1  1  0  0  0
 40 42  1  0  0  0  0
 42 41  1  6  0  0  0
 43 42  1  0  0  0  0
 44 45  1  0  0  0  0
 45 46  1  1  0  0  0
 45 47  1  0  0  0  0
 47 48  1  0  0  0  0
 50 49  1  0  0  0  0
M  END
>  <MODEL>
1

>  <REMARK>
 VINA RESULT:      -6.7      0.000      0.000
  Name = 
  24 active torsions:
  status: ('A' for Active; 'I' for Inactive)
    1  A    between atoms: C_1  and  N_47
    2  A    between atoms: C_5  and  N_29
    3  A    between atoms: C_5  and  C_39
    4  A    between atoms: N_7  and  C_19
    5  A    between atoms: N_7  and  C_37
    6  A    between atoms: C_8  and  C_13
    7  A    between atoms: C_9  and  C_25
    8  A    between atoms: C_9  and  O_43
    9  A    between atoms: C_10  and  N_49
   10  A    between atoms: C_11  and  C_20
   11  A    between atoms: C_11  and  O_43
   12  A    between atoms: C_12  and  C_42
   13  A    between atoms: C_13  and  N_29
   14  A    between atoms: C_13  and  C_42
   15  A    between atoms: C_15  and  C_50
   16  A    between atoms: S_16  and  C_22
   17  A    between atoms: S_16  and  C_33
   18  A    between atoms: O_18  and  O_32
   19  A    between atoms: O_18  and  C_46
   20  A    between atoms: C_21  and  C_50
   21  A    between atoms: N_23  and  C_39
   22  A    between atoms: C_25  and  C_46
   23  A    between atoms: C_27  and  C_45
   24  A    between atoms: O_32  and  C_37
                            x       y       z     vdW  Elec       q    Type
                         _______ _______ _______ _____ _____    ______ ____

>  <TORSDO>
F 24

$$$$
=
 OpenBabel10222419493D

 50 51  0  0  1  0  0  0  0  0999 V2000
  191.7140  176.6770  145.3840 N   0  0  0  0  0  1  0  0  0  0  0  0
  188.3250  177.7290  146.5800 C   0  0  0  0  0  0  0  0  0  0  0  0
  187.5890  177.6850  145.3730 C   0  0  0  0  0  0  0  0  0  0  0  0
  190.4590  177.4170  147.7250 O   0  0  0  0  0  1  0  0  0  0  0  0
  189.6980  177.3830  146.5620 C   0  0  0  0  0  0  0  0  0  0  0  0
  190.3220  176.9990  145.3650 C   0  0  0  0  0  0  0  0  0  0  0  0
  188.2350  177.2990  144.1930 C   0  0  0  0  0  3  0  0  0  0  0  0
  189.5860  176.9540  144.1650 C   0  0  0  0  0  0  0  0  0  0  0  0
  190.3510  175.3520  142.5670 O   0  0  0  0  0  0  0  0  0  0  0  0
  190.5710  177.5820  141.9360 N   0  0  0  0  0  2  0  0  0  0  0  0
  190.1830  176.5660  142.8650 C   0  0  0  0  0  0  0  0  0  0  0  0
  191.1090  177.2750  140.6200 C   0  0  0  0  0  2  0  0  0  0  0  0
  190.1020  177.6540  139.5500 C   0  0  0  0  0  2  0  0  0  0  0  0
  189.1090  176.6020  139.4260 N   0  0  0  0  0  2  0  0  0  0  0  0
  188.9130  176.3450  138.0070 C   0  0  2  0  0  3  0  0  0  0  0  0
  190.1540  175.7820  137.3800 C   0  0  0  0  0  0  0  0  0  0  0  0
  190.7970  176.5910  135.9570 Cl  0  0  0  0  0  0  0  0  0  0  0  0
  190.7030  174.7070  137.8630 N   0  0  0  0  0  0  0  0  0  0  0  0
  191.8670  174.1060  137.3030 C   0  0  0  0  0  3  0  0  0  0  0  0
  191.8310  173.6290  136.1390 O   0  0  0  0  0  0  0  0  0  0  0  0
  188.4070  177.5930  137.2840 C   0  0  0  0  0  2  0  0  0  0  0  0
  186.9570  177.4640  136.8400 C   0  0  0  0  0  2  0  0  0  0  0  0
  185.8840  178.3170  138.0260 S   0  0  0  0  0  1  0  0  0  0  0  0
  185.4500  178.1230  146.3500 O   0  0  0  0  0  0  0  0  0  0  0  0
  186.1450  178.0280  145.3050 C   0  0  0  0  0  0  0  0  0  0  0  0
  185.5070  178.2670  144.0380 C   0  0  0  0  0  0  0  0  0  0  0  0
  184.9830  178.4770  142.9720 C   0  0  0  0  0  0  0  0  0  0  0  0
  184.2380  178.7920  141.4050 S   0  0  0  0  0  0  0  0  0  0  0  0
  181.4880  178.5050  141.2830 C   0  0  0  0  0  0  0  0  0  0  0  0
  182.5800  178.5310  142.0470 C   0  0  0  0  0  3  0  0  0  0  0  0
  181.5800  178.7120  139.7980 C   0  0  0  0  0  2  0  0  0  0  0  0
  181.1750  177.4470  139.0670 C   0  0  0  0  0  2  0  0  0  0  0  0
  182.1980  177.0610  138.1990 O   0  0  0  0  0  0  0  0  0  0  0  0
  182.9790  176.2910  138.9270 O   0  0  0  0  0  0  0  0  0  0  0  0
  181.8710  174.7010  137.7480 F   0  0  0  0  0  0  0  0  0  0  0  0
  183.1150  175.1120  138.1870 C   0  0  1  0  0  3  0  0  0  0  0  0
  183.9730  175.3560  137.0390 N   0  0  0  0  0  2  0  0  0  0  0  0
  184.8750  173.1930  137.6050 C   0  0  0  0  0  2  0  0  0  0  0  0
  184.3660  174.0590  136.5040 C   0  0  2  0  0  3  0  0  0  0  0  0
  186.1840  173.0150  137.5300 C   0  0  0  0  0  2  0  0  0  0  0  0
  187.5730  172.7760  135.5180 C   0  0  0  0  0  1  0  0  0  0  0  0
  186.7700  173.7340  136.3710 C   0  0  1  0  0  3  0  0  0  0  0  0
  185.5670  174.2400  135.5880 C   0  0  0  0  0  2  0  0  0  0  0  0
  180.2520  178.2970  141.9130 O   0  0  0  0  0  0  0  0  0  0  0  0
  179.5150  179.2940  142.6230 C   0  0  2  0  0  3  0  0  0  0  0  0
  180.1240  180.5430  142.4970 O   0  0  0  0  0  1  0  0  0  0  0  0
  179.3500  178.9290  144.0890 C   0  0  0  0  0  2  0  0  0  0  0  0
  179.9640  177.7160  144.3420 F   0  0  0  0  0  0  0  0  0  0  0  0
  187.6830  177.3730  149.0530 C   0  0  0  0  0  1  0  0  0  0  0  0
  187.6540  178.1020  147.7960 N   0  0  0  0  0  2  0  0  0  0  0  0
  2 50  1  0  0  0  0
  3  2  2  0  0  0  0
  5  2  1  0  0  0  0
  5  4  1  0  0  0  0
  6  1  1  0  0  0  0
  6  5  2  0  0  0  0
  7  3  1  0  0  0  0
  8  7  2  0  0  0  0
  8  6  1  0  0  0  0
  9 11  2  0  0  0  0
 10 11  1  0  0  0  0
 11  8  1  0  0  0  0
 12 10  1  0  0  0  0
 13 12  1  0  0  0  0
 14 13  1  0  0  0  0
 15 21  1  6  0  0  0
 15 14  1  0  0  0  0
 16 18  2  0  0  0  0
 16 15  1  0  0  0  0
 17 16  1  0  0  0  0
 19 18  1  0  0  0  0
 20 19  2  0  0  0  0
 22 21  1  0  0  0  0
 22 23  1  0  0  0  0
 25  3  1  0  0  0  0
 25 24  2  0  0  0  0
 26 25  1  0  0  0  0
 27 26  3  0  0  0  0
 28 30  1  0  0  0  0
 28 27  1  0  0  0  0
 29 44  1  0  0  0  0
 29 30  2  0  0  0  0
 31 29  1  0  0  0  0
 32 31  1  0  0  0  0
 33 34  1  0  0  0  0
 33 32  1  0  0  0  0
 36 35  1  6  0  0  0
 36 34  1  0  0  0  0
 37 36  1  0  0  0  0
 39 37  1  1  0  0  0
 39 38  1  0  0  0  0
 40 38  1  0  0  0  0
 42 41  1  6  0  0  0
 42 40  1  0  0  0  0
 43 42  1  0  0  0  0
 43 39  1  0  0  0  0
 44 45  1  0  0  0  0
 45 46  1  1  0  0  0
 45 47  1  0  0  0  0
 47 48  1  0  0  0  0
 50 49  1  0  0  0  0
M  END
>  <MODEL>
2

>  <REMARK>
 VINA RESULT:      -6.6      1.814      2.475
  Name = 
  24 active torsions:
  status: ('A' for Active; 'I' for Inactive)
    1  A    between atoms: C_1  and  N_47
    2  A    between atoms: C_5  and  N_29
    3  A    between atoms: C_5  and  C_39
    4  A    between atoms: N_7  and  C_19
    5  A    between atoms: N_7  and  C_37
    6  A    between atoms: C_8  and  C_13
    7  A    between atoms: C_9  and  C_25
    8  A    between atoms: C_9  and  O_43
    9  A    between atoms: C_10  and  N_49
   10  A    between atoms: C_11  and  C_20
   11  A    between atoms: C_11  and  O_43
   12  A    between atoms: C_12  and  C_42
   13  A    between atoms: C_13  and  N_29
   14  A    between atoms: C_13  and  C_42
   15  A    between atoms: C_15  and  C_50
   16  A    between atoms: S_16  and  C_22
   17  A    between atoms: S_16  and  C_33
   18  A    between atoms: O_18  and  O_32
   19  A    between atoms: O_18  and  C_46
   20  A    between atoms: C_21  and  C_50
   21  A    between atoms: N_23  and  C_39
   22  A    between atoms: C_25  and  C_46
   23  A    between atoms: C_27  and  C_45
   24  A    between atoms: O_32  and  C_37
                            x       y       z     vdW  Elec       q    Type
                         _______ _______ _______ _____ _____    ______ ____

>  <TORSDO>
F 24

$$$$
=
 OpenBabel10222419493D

 50 51  0  0  1  0  0  0  0  0999 V2000
  183.5370  179.1280  144.6520 N   0  0  0  0  0  1  0  0  0  0  0  0
  186.7300  177.8460  146.1300 C   0  0  0  0  0  0  0  0  0  0  0  0
  187.4990  177.6350  144.9630 C   0  0  0  0  0  0  0  0  0  0  0  0
  184.6210  178.5700  147.1260 O   0  0  0  0  0  1  0  0  0  0  0  0
  185.4130  178.3510  146.0040 C   0  0  0  0  0  0  0  0  0  0  0  0
  184.8770  178.6400  144.7390 C   0  0  0  0  0  0  0  0  0  0  0  0
  186.9420  177.9300  143.7140 C   0  0  0  0  0  3  0  0  0  0  0  0
  185.6460  178.4300  143.5790 C   0  0  0  0  0  0  0  0  0  0  0  0
  185.5590  179.6970  141.5560 O   0  0  0  0  0  0  0  0  0  0  0  0
  184.1670  177.8340  141.6330 N   0  0  0  0  0  2  0  0  0  0  0  0
  185.1410  178.7050  142.2130 C   0  0  0  0  0  0  0  0  0  0  0  0
  183.6690  178.0080  140.2780 C   0  0  0  0  0  2  0  0  0  0  0  0
  182.7590  176.8510  139.9090 C   0  0  0  0  0  2  0  0  0  0  0  0
  181.4840  177.3680  139.4430 N   0  0  0  0  0  2  0  0  0  0  0  0
  181.4360  178.7850  139.7740 C   0  0  2  0  0  3  0  0  0  0  0  0
  180.4240  179.0600  140.8450 C   0  0  0  0  0  0  0  0  0  0  0  0
  179.0750  180.1180  140.4510 Cl  0  0  0  0  0  0  0  0  0  0  0  0
  180.5710  178.5530  142.0330 N   0  0  0  0  0  0  0  0  0  0  0  0
  179.6610  178.7920  143.1030 C   0  0  0  0  0  3  0  0  0  0  0  0
  180.0540  178.7040  144.2940 O   0  0  0  0  0  0  0  0  0  0  0  0
  181.2120  179.6370  138.5240 C   0  0  0  0  0  2  0  0  0  0  0  0
  181.9900  180.9450  138.5600 C   0  0  0  0  0  2  0  0  0  0  0  0
  180.9810  182.2670  137.8380 S   0  0  0  0  0  1  0  0  0  0  0  0
  189.3560  176.5920  146.0540 O   0  0  0  0  0  0  0  0  0  0  0  0
  188.8900  177.1120  145.0060 C   0  0  0  0  0  0  0  0  0  0  0  0
  189.7370  177.1820  143.8450 C   0  0  0  0  0  0  0  0  0  0  0  0
  190.4430  177.2560  142.8710 C   0  0  0  0  0  0  0  0  0  0  0  0
  191.4750  177.3870  141.4470 S   0  0  0  0  0  0  0  0  0  0  0  0
  190.0840  176.9320  139.0990 C   0  0  0  0  0  0  0  0  0  0  0  0
  190.0700  177.4450  140.3290 C   0  0  0  0  0  3  0  0  0  0  0  0
  191.3160  176.2690  138.5530 C   0  0  0  0  0  2  0  0  0  0  0  0
  190.9320  175.1290  137.6300 C   0  0  0  0  0  2  0  0  0  0  0  0
  191.8040  175.0950  136.5400 O   0  0  0  0  0  0  0  0  0  0  0  0
  192.9860  174.8550  137.0660 O   0  0  0  0  0  0  0  0  0  0  0  0
  193.5090  176.6450  135.7740 F   0  0  0  0  0  0  0  0  0  0  0  0
  193.9030  175.3740  136.1470 C   0  0  1  0  0  3  0  0  0  0  0  0
  195.2200  175.4400  136.7600 N   0  0  0  0  0  2  0  0  0  0  0  0
  196.6150  174.2490  138.3240 C   0  0  0  0  0  2  0  0  0  0  0  0
  195.4940  174.1360  137.3490 C   0  0  2  0  0  3  0  0  0  0  0  0
  197.7200  173.6760  137.8760 C   0  0  0  0  0  2  0  0  0  0  0  0
  197.9350  171.6320  136.5310 C   0  0  0  0  0  1  0  0  0  0  0  0
  197.5250  173.0890  136.5260 C   0  0  1  0  0  3  0  0  0  0  0  0
  196.0300  173.2050  136.2720 C   0  0  0  0  0  2  0  0  0  0  0  0
  188.9180  177.0490  138.3270 O   0  0  0  0  0  0  0  0  0  0  0  0
  188.5790  178.1780  137.5200 C   0  0  2  0  0  3  0  0  0  0  0  0
  187.3050  178.6500  137.8400 O   0  0  0  0  0  1  0  0  0  0  0  0
  188.6670  177.8520  136.0390 C   0  0  0  0  0  2  0  0  0  0  0  0
  188.3770  176.5150  135.8350 F   0  0  0  0  0  0  0  0  0  0  0  0
  187.8760  178.5380  148.3360 C   0  0  0  0  0  1  0  0  0  0  0  0
  187.3140  177.5660  147.4140 N   0  0  0  0  0  2  0  0  0  0  0  0
  1  6  1  0  0  0  0
  2 50  1  0  0  0  0
  3 25  1  0  0  0  0
  3  2  2  0  0  0  0
  5  2  1  0  0  0  0
  5  4  1  0  0  0  0
  6  5  2  0  0  0  0
  7  3  1  0  0  0  0
  8  7  2  0  0  0  0
  8  6  1  0  0  0  0
  9 11  2  0  0  0  0
 10 11  1  0  0  0  0
 11  8  1  0  0  0  0
 12 10  1  0  0  0  0
 13 12  1  0  0  0  0
 14 15  1  0  0  0  0
 14 13  1  0  0  0  0
 15 21  1  6  0  0  0
 15 16  1  0  0  0  0
 16 18  2  0  0  0  0
 17 16  1  0  0  0  0
 18 19  1  0  0  0  0
 19 20  2  0  0  0  0
 21 22  1  0  0  0  0
 23 22  1  0  0  0  0
 25 24  2  0  0  0  0
 26 25  1  0  0  0  0
 27 26  3  0  0  0  0
 28 27  1  0  0  0  0
 29 30  2  0  0  0  0
 30 28  1  0  0  0  0
 31 29  1  0  0  0  0
 32 31  1  0  0  0  0
 33 34  1  0  0  0  0
 33 32  1  0  0  0  0
 36 35  1  1  0  0  0
 36 37  1  0  0  0  0
 36 34  1  0  0  0  0
 39 37  1  6  0  0  0
 39 38  1  0  0  0  0
 40 38  1  0  0  0  0
 42 41  1  1  0  0  0
 42 40  1  0  0  0  0
 43 42  1  0  0  0  0
 43 39  1  0  0  0  0
 44 29  1  0  0  0  0
 45 46  1  1  0  0  0
 45 44  1  0  0  0  0
 47 45  1  0  0  0  0
 48 47  1  0  0  0  0
 50 49  1  0  0  0  0
M  END
>  <MODEL>
3

>  <REMARK>
 VINA RESULT:      -6.4      4.107      9.260
  Name = 
  24 active torsions:
  status: ('A' for Active; 'I' for Inactive)
    1  A    between atoms: C_1  and  N_47
    2  A    between atoms: C_5  and  N_29
    3  A    between atoms: C_5  and  C_39
    4  A    between atoms: N_7  and  C_19
    5  A    between atoms: N_7  and  C_37
    6  A    between atoms: C_8  and  C_13
    7  A    between atoms: C_9  and  C_25
    8  A    between atoms: C_9  and  O_43
    9  A    between atoms: C_10  and  N_49
   10  A    between atoms: C_11  and  C_20
   11  A    between atoms: C_11  and  O_43
   12  A    between atoms: C_12  and  C_42
   13  A    between atoms: C_13  and  N_29
   14  A    between atoms: C_13  and  C_42
   15  A    between atoms: C_15  and  C_50
   16  A    between atoms: S_16  and  C_22
   17  A    between atoms: S_16  and  C_33
   18  A    between atoms: O_18  and  O_32
   19  A    between atoms: O_18  and  C_46
   20  A    between atoms: C_21  and  C_50
   21  A    between atoms: N_23  and  C_39
   22  A    between atoms: C_25  and  C_46
   23  A    between atoms: C_27  and  C_45
   24  A    between atoms: O_32  and  C_37
                            x       y       z     vdW  Elec       q    Type
                         _______ _______ _______ _____ _____    ______ ____

>  <TORSDO>
F 24

$$$$
=
 OpenBabel10222419493D

 50 51  0  0  1  0  0  0  0  0999 V2000
  183.3110  179.0680  144.5170 N   0  0  0  0  0  1  0  0  0  0  0  0
  186.6070  177.8380  145.8000 C   0  0  0  0  0  0  0  0  0  0  0  0
  187.3080  177.6360  144.5880 C   0  0  0  0  0  0  0  0  0  0  0  0
  184.5510  178.5320  146.9210 O   0  0  0  0  0  1  0  0  0  0  0  0
  185.2770  178.3230  145.7530 C   0  0  0  0  0  0  0  0  0  0  0  0
  184.6620  178.6010  144.5230 C   0  0  0  0  0  0  0  0  0  0  0  0
  186.6710  177.9200  143.3750 C   0  0  0  0  0  3  0  0  0  0  0  0
  185.3630  178.4000  143.3180 C   0  0  0  0  0  0  0  0  0  0  0  0
  185.1890  179.6150  141.2700 O   0  0  0  0  0  0  0  0  0  0  0  0
  183.7140  177.8300  141.5040 N   0  0  0  0  0  2  0  0  0  0  0  0
  184.7710  178.6650  141.9860 C   0  0  0  0  0  0  0  0  0  0  0  0
  183.1260  177.9930  140.1850 C   0  0  0  0  0  2  0  0  0  0  0  0
  182.8420  176.6340  139.5740 C   0  0  0  0  0  2  0  0  0  0  0  0
  181.6410  176.7120  138.7600 N   0  0  0  0  0  2  0  0  0  0  0  0
  180.8330  175.5370  139.0540 C   0  0  2  0  0  3  0  0  0  0  0  0
  180.7830  174.6040  137.8820 C   0  0  0  0  0  0  0  0  0  0  0  0
  180.1730  172.9760  138.1500 Cl  0  0  0  0  0  0  0  0  0  0  0  0
  181.2160  174.9890  136.7180 N   0  0  0  0  0  0  0  0  0  0  0  0
  181.2200  174.1460  135.5680 C   0  0  0  0  0  3  0  0  0  0  0  0
  180.1360  173.7020  135.1100 O   0  0  0  0  0  0  0  0  0  0  0  0
  179.4410  175.9330  139.5470 C   0  0  0  0  0  2  0  0  0  0  0  0
  179.4570  176.4800  140.9670 C   0  0  0  0  0  2  0  0  0  0  0  0
  179.1870  178.2730  140.9270 S   0  0  0  0  0  1  0  0  0  0  0  0
  189.2640  176.6820  145.5830 O   0  0  0  0  0  0  0  0  0  0  0  0
  188.7060  177.1350  144.5480 C   0  0  0  0  0  0  0  0  0  0  0  0
  189.4560  177.1490  143.3210 C   0  0  0  0  0  0  0  0  0  0  0  0
  190.0830  177.1760  142.2910 C   0  0  0  0  0  0  0  0  0  0  0  0
  191.0020  177.2380  140.7870 S   0  0  0  0  0  0  0  0  0  0  0  0
  189.4750  177.7400  138.5360 C   0  0  0  0  0  0  0  0  0  0  0  0
  189.6000  177.8660  139.8570 C   0  0  0  0  0  3  0  0  0  0  0  0
  190.5370  177.0590  137.7210 C   0  0  0  0  0  2  0  0  0  0  0  0
  190.2910  175.5630  137.6840 C   0  0  0  0  0  2  0  0  0  0  0  0
  191.4230  174.8910  138.1460 O   0  0  0  0  0  0  0  0  0  0  0  0
  192.4250  175.7010  137.8760 O   0  0  0  0  0  0  0  0  0  0  0  0
  193.2650  175.1410  135.8450 F   0  0  0  0  0  0  0  0  0  0  0  0
  193.3600  174.9080  137.2030 C   0  0  1  0  0  3  0  0  0  0  0  0
  194.7000  175.2460  137.6570 N   0  0  0  0  0  2  0  0  0  0  0  0
  196.6500  174.0600  138.4290 C   0  0  0  0  0  2  0  0  0  0  0  0
  195.1650  174.1530  138.4990 C   0  0  2  0  0  3  0  0  0  0  0  0
  197.0490  172.9930  137.7560 C   0  0  0  0  0  2  0  0  0  0  0  0
  196.0300  170.7580  137.7090 C   0  0  0  0  0  1  0  0  0  0  0  0
  195.8980  172.1960  137.2590 C   0  0  1  0  0  3  0  0  0  0  0  0
  194.6820  172.8330  137.9150 C   0  0  0  0  0  2  0  0  0  0  0  0
  188.3300  178.2810  137.9320 O   0  0  0  0  0  0  0  0  0  0  0  0
  187.3820  177.5410  137.1600 C   0  0  2  0  0  3  0  0  0  0  0  0
  187.6190  177.7070  135.7940 O   0  0  0  0  0  1  0  0  0  0  0  0
  185.9550  177.9340  137.5020 C   0  0  0  0  0  2  0  0  0  0  0  0
  185.1090  177.5690  136.4720 F   0  0  0  0  0  0  0  0  0  0  0  0
  187.6780  178.5530  148.0360 C   0  0  0  0  0  1  0  0  0  0  0  0
  187.2720  177.5690  147.0470 N   0  0  0  0  0  2  0  0  0  0  0  0
  1  6  1  0  0  0  0
  2 50  1  0  0  0  0
  3  2  2  0  0  0  0
  5  2  1  0  0  0  0
  5  4  1  0  0  0  0
  6  5  2  0  0  0  0
  7  3  1  0  0  0  0
  8  7  2  0  0  0  0
  8  6  1  0  0  0  0
  9 11  2  0  0  0  0
 10 11  1  0  0  0  0
 11  8  1  0  0  0  0
 12 10  1  0  0  0  0
 13 12  1  0  0  0  0
 14 15  1  0  0  0  0
 14 13  1  0  0  0  0
 15 21  1  6  0  0  0
 16 17  1  0  0  0  0
 16 15  1  0  0  0  0
 18 16  2  0  0  0  0
 19 18  1  0  0  0  0
 20 19  2  0  0  0  0
 21 22  1  0  0  0  0
 23 22  1  0  0  0  0
 25  3  1  0  0  0  0
 25 24  2  0  0  0  0
 26 25  1  0  0  0  0
 27 26  3  0  0  0  0
 28 27  1  0  0  0  0
 29 30  2  0  0  0  0
 30 28  1  0  0  0  0
 31 29  1  0  0  0  0
 32 31  1  0  0  0  0
 32 33  1  0  0  0  0
 34 33  1  0  0  0  0
 36 35  1  6  0  0  0
 36 37  1  0  0  0  0
 36 34  1  0  0  0  0
 38 39  1  0  0  0  0
 39 37  1  6  0  0  0
 40 38  1  0  0  0  0
 42 41  1  1  0  0  0
 42 40  1  0  0  0  0
 42 43  1  0  0  0  0
 43 39  1  0  0  0  0
 44 29  1  0  0  0  0
 45 46  1  6  0  0  0
 45 47  1  0  0  0  0
 45 44  1  0  0  0  0
 48 47  1  0  0  0  0
 50 49  1  0  0  0  0
M  END
>  <MODEL>
4

>  <REMARK>
 VINA RESULT:      -6.3      3.677      8.827
  Name = 
  24 active torsions:
  status: ('A' for Active; 'I' for Inactive)
    1  A    between atoms: C_1  and  N_47
    2  A    between atoms: C_5  and  N_29
    3  A    between atoms: C_5  and  C_39
    4  A    between atoms: N_7  and  C_19
    5  A    between atoms: N_7  and  C_37
    6  A    between atoms: C_8  and  C_13
    7  A    between atoms: C_9  and  C_25
    8  A    between atoms: C_9  and  O_43
    9  A    between atoms: C_10  and  N_49
   10  A    between atoms: C_11  and  C_20
   11  A    between atoms: C_11  and  O_43
   12  A    between atoms: C_12  and  C_42
   13  A    between atoms: C_13  and  N_29
   14  A    between atoms: C_13  and  C_42
   15  A    between atoms: C_15  and  C_50
   16  A    between atoms: S_16  and  C_22
   17  A    between atoms: S_16  and  C_33
   18  A    between atoms: O_18  and  O_32
   19  A    between atoms: O_18  and  C_46
   20  A    between atoms: C_21  and  C_50
   21  A    between atoms: N_23  and  C_39
   22  A    between atoms: C_25  and  C_46
   23  A    between atoms: C_27  and  C_45
   24  A    between atoms: O_32  and  C_37
                            x       y       z     vdW  Elec       q    Type
                         _______ _______ _______ _____ _____    ______ ____

>  <TORSDO>
F 24

$$$$
=
 OpenBabel10222419493D

 50 51  0  0  1  0  0  0  0  0999 V2000
  190.0970  177.1840  143.3210 N   0  0  0  0  0  1  0  0  0  0  0  0
  187.5970  177.7330  146.0540 C   0  0  0  0  0  0  0  0  0  0  0  0
  186.4700  178.1480  145.3060 C   0  0  0  0  0  0  0  0  0  0  0  0
  189.9270  177.0020  146.0670 O   0  0  0  0  0  1  0  0  0  0  0  0
  188.7940  177.4100  145.3700 C   0  0  0  0  0  0  0  0  0  0  0  0
  188.8640  177.4980  143.9710 C   0  0  0  0  0  0  0  0  0  0  0  0
  186.5660  178.2280  143.9130 C   0  0  0  0  0  3  0  0  0  0  0  0
  187.7400  177.9100  143.2300 C   0  0  0  0  0  0  0  0  0  0  0  0
  187.0600  178.9180  141.1750 O   0  0  0  0  0  0  0  0  0  0  0  0
  188.5440  177.1360  140.9740 N   0  0  0  0  0  2  0  0  0  0  0  0
  187.7470  178.0330  141.7530 C   0  0  0  0  0  0  0  0  0  0  0  0
  188.6450  177.2350  139.5270 C   0  0  0  0  0  2  0  0  0  0  0  0
  189.9470  177.9130  139.1450 C   0  0  0  0  0  2  0  0  0  0  0  0
  190.2550  177.6200  137.7560 N   0  0  0  0  0  2  0  0  0  0  0  0
  190.8140  176.2770  137.7020 C   0  0  2  0  0  3  0  0  0  0  0  0
  192.3100  176.3140  137.6050 C   0  0  0  0  0  0  0  0  0  0  0  0
  193.2190  176.7290  139.0520 Cl  0  0  0  0  0  0  0  0  0  0  0  0
  192.9000  176.0800  136.4700 N   0  0  0  0  0  0  0  0  0  0  0  0
  194.3140  176.1230  136.3020 C   0  0  0  0  0  3  0  0  0  0  0  0
  194.8490  177.1030  135.7230 O   0  0  0  0  0  0  0  0  0  0  0  0
  190.1740  175.4560  136.5820 C   0  0  0  0  0  2  0  0  0  0  0  0
  189.9650  173.9990  136.9700 C   0  0  0  0  0  2  0  0  0  0  0  0
  189.6710  173.0130  135.4770 S   0  0  0  0  0  1  0  0  0  0  0  0
  185.0870  178.6670  147.1890 O   0  0  0  0  0  0  0  0  0  0  0  0
  185.1750  178.5010  145.9440 C   0  0  0  0  0  0  0  0  0  0  0  0
  183.9870  178.6690  145.1490 C   0  0  0  0  0  0  0  0  0  0  0  0
  183.0010  178.8130  144.4710 C   0  0  0  0  0  0  0  0  0  0  0  0
  181.5710  179.0220  143.4600 S   0  0  0  0  0  0  0  0  0  0  0  0
  182.0580  178.3240  140.8270 C   0  0  0  0  0  0  0  0  0  0  0  0
  182.5220  178.8900  141.9410 C   0  0  0  0  0  3  0  0  0  0  0  0
  180.6780  177.7330  140.7780 C   0  0  0  0  0  2  0  0  0  0  0  0
  180.4180  177.1220  139.4150 C   0  0  0  0  0  2  0  0  0  0  0  0
  180.7340  175.7630  139.4430 O   0  0  0  0  0  0  0  0  0  0  0  0
  180.1960  175.2730  138.3460 O   0  0  0  0  0  0  0  0  0  0  0  0
  180.5450  173.0430  138.1190 F   0  0  0  0  0  0  0  0  0  0  0  0
  181.0940  174.2940  137.9090 C   0  0  1  0  0  3  0  0  0  0  0  0
  181.3540  174.4730  136.4900 N   0  0  0  0  0  2  0  0  0  0  0  0
  183.4950  174.6850  137.5770 C   0  0  0  0  0  2  0  0  0  0  0  0
  182.7950  174.3860  136.2960 C   0  0  2  0  0  3  0  0  0  0  0  0
  184.1060  175.8580  137.5460 C   0  0  0  0  0  2  0  0  0  0  0  0
  185.2550  176.9230  135.6550 C   0  0  0  0  0  1  0  0  0  0  0  0
  183.9140  176.5420  136.2420 C   0  0  1  0  0  3  0  0  0  0  0  0
  183.2400  175.5010  135.3610 C   0  0  0  0  0  2  0  0  0  0  0  0
  182.9070  178.2830  139.7110 O   0  0  0  0  0  0  0  0  0  0  0  0
  183.2670  179.4110  138.9110 C   0  0  2  0  0  3  0  0  0  0  0  0
  184.4480  179.9900  139.3750 O   0  0  0  0  0  1  0  0  0  0  0  0
  182.1520  180.4420  138.8670 C   0  0  0  0  0  2  0  0  0  0  0  0
  182.6680  181.6760  138.5170 F   0  0  0  0  0  0  0  0  0  0  0  0
  188.3140  178.3150  148.4630 C   0  0  0  0  0  1  0  0  0  0  0  0
  187.4890  177.6280  147.4840 N   0  0  0  0  0  2  0  0  0  0  0  0
  1  6  1  0  0  0  0
  2 50  1  0  0  0  0
  3 25  1  0  0  0  0
  3  2  2  0  0  0  0
  5  2  1  0  0  0  0
  5  4  1  0  0  0  0
  6  5  2  0  0  0  0
  7  3  1  0  0  0  0
  8  7  2  0  0  0  0
  8  6  1  0  0  0  0
  9 11  2  0  0  0  0
 10 11  1  0  0  0  0
 11  8  1  0  0  0  0
 12 10  1  0  0  0  0
 13 12  1  0  0  0  0
 14 13  1  0  0  0  0
 15 21  1  6  0  0  0
 15 14  1  0  0  0  0
 16 15  1  0  0  0  0
 16 17  1  0  0  0  0
 18 16  2  0  0  0  0
 19 18  1  0  0  0  0
 20 19  2  0  0  0  0
 21 22  1  0  0  0  0
 23 22  1  0  0  0  0
 25 24  2  0  0  0  0
 26 25  1  0  0  0  0
 27 26  3  0  0  0  0
 28 27  1  0  0  0  0
 29 30  2  0  0  0  0
 30 28  1  0  0  0  0
 31 29  1  0  0  0  0
 32 33  1  0  0  0  0
 32 31  1  0  0  0  0
 34 33  1  0  0  0  0
 36 35  1  6  0  0  0
 36 34  1  0  0  0  0
 37 36  1  0  0  0  0
 39 37  1  1  0  0  0
 39 38  1  0  0  0  0
 40 38  1  0  0  0  0
 42 41  1  6  0  0  0
 42 40  1  0  0  0  0
 43 42  1  0  0  0  0
 43 39  1  0  0  0  0
 44 29  1  0  0  0  0
 45 46  1  1  0  0  0
 45 44  1  0  0  0  0
 47 45  1  0  0  0  0
 48 47  1  0  0  0  0
 50 49  1  0  0  0  0
M  END
>  <MODEL>
5

>  <REMARK>
 VINA RESULT:      -6.2      2.577      3.389
  Name = 
  24 active torsions:
  status: ('A' for Active; 'I' for Inactive)
    1  A    between atoms: C_1  and  N_47
    2  A    between atoms: C_5  and  N_29
    3  A    between atoms: C_5  and  C_39
    4  A    between atoms: N_7  and  C_19
    5  A    between atoms: N_7  and  C_37
    6  A    between atoms: C_8  and  C_13
    7  A    between atoms: C_9  and  C_25
    8  A    between atoms: C_9  and  O_43
    9  A    between atoms: C_10  and  N_49
   10  A    between atoms: C_11  and  C_20
   11  A    between atoms: C_11  and  O_43
   12  A    between atoms: C_12  and  C_42
   13  A    between atoms: C_13  and  N_29
   14  A    between atoms: C_13  and  C_42
   15  A    between atoms: C_15  and  C_50
   16  A    between atoms: S_16  and  C_22
   17  A    between atoms: S_16  and  C_33
   18  A    between atoms: O_18  and  O_32
   19  A    between atoms: O_18  and  C_46
   20  A    between atoms: C_21  and  C_50
   21  A    between atoms: N_23  and  C_39
   22  A    between atoms: C_25  and  C_46
   23  A    between atoms: C_27  and  C_45
   24  A    between atoms: O_32  and  C_37
                            x       y       z     vdW  Elec       q    Type
                         _______ _______ _______ _____ _____    ______ ____

>  <TORSDO>
F 24

$$$$
=
 OpenBabel10222419493D

 50 51  0  0  1  0  0  0  0  0999 V2000
  191.1200  176.7530  145.8990 N   0  0  0  0  0  1  0  0  0  0  0  0
  187.5260  177.7900  146.0780 C   0  0  0  0  0  0  0  0  0  0  0  0
  187.1530  177.7010  144.7170 C   0  0  0  0  0  0  0  0  0  0  0  0
  189.2620  177.5410  147.7780 O   0  0  0  0  0  1  0  0  0  0  0  0
  188.8530  177.4630  146.4510 C   0  0  0  0  0  0  0  0  0  0  0  0
  189.7850  177.0540  145.4850 C   0  0  0  0  0  0  0  0  0  0  0  0
  188.1020  177.2910  143.7740 C   0  0  0  0  0  3  0  0  0  0  0  0
  189.4100  176.9650  144.1310 C   0  0  0  0  0  0  0  0  0  0  0  0
  190.5880  175.3290  142.8500 O   0  0  0  0  0  0  0  0  0  0  0  0
  190.9810  177.5440  142.2520 N   0  0  0  0  0  2  0  0  0  0  0  0
  190.3460  176.5490  143.0600 C   0  0  0  0  0  0  0  0  0  0  0  0
  191.8640  177.2080  141.1460 C   0  0  0  0  0  2  0  0  0  0  0  0
  191.0450  176.8860  139.9110 C   0  0  0  0  0  2  0  0  0  0  0  0
  191.8660  177.0670  138.7260 N   0  0  0  0  0  2  0  0  0  0  0  0
  191.5840  175.9610  137.8220 C   0  0  2  0  0  3  0  0  0  0  0  0
  192.7770  175.0650  137.6700 C   0  0  0  0  0  0  0  0  0  0  0  0
  192.5560  173.5360  136.8300 Cl  0  0  0  0  0  0  0  0  0  0  0  0
  193.9230  175.4050  138.1810 N   0  0  0  0  0  0  0  0  0  0  0  0
  195.0890  174.5910  138.0960 C   0  0  0  0  0  3  0  0  0  0  0  0
  196.1590  175.0710  137.6430 O   0  0  0  0  0  0  0  0  0  0  0  0
  191.0570  176.4670  136.4790 C   0  0  0  0  0  2  0  0  0  0  0  0
  189.5380  176.5400  136.4370 C   0  0  0  0  0  2  0  0  0  0  0  0
  189.0040  178.2350  136.7940 S   0  0  0  0  0  1  0  0  0  0  0  0
  184.8130  178.0770  145.0430 O   0  0  0  0  0  0  0  0  0  0  0  0
  185.7820  178.0220  144.2410 C   0  0  0  0  0  0  0  0  0  0  0  0
  185.5310  178.2840  142.8490 C   0  0  0  0  0  0  0  0  0  0  0  0
  185.3360  178.5070  141.6810 C   0  0  0  0  0  0  0  0  0  0  0  0
  185.0720  178.8300  139.9670 S   0  0  0  0  0  0  0  0  0  0  0  0
  182.3740  178.2380  140.1270 C   0  0  0  0  0  0  0  0  0  0  0  0
  183.3250  179.1680  140.2130 C   0  0  0  0  0  3  0  0  0  0  0  0
  182.7150  176.8140  139.7950 C   0  0  0  0  0  2  0  0  0  0  0  0
  182.5480  176.5680  138.3080 C   0  0  0  0  0  2  0  0  0  0  0  0
  182.4040  175.2000  138.0730 O   0  0  0  0  0  0  0  0  0  0  0  0
  183.6210  174.7120  138.1870 O   0  0  0  0  0  0  0  0  0  0  0  0
  183.5140  173.9350  136.0580 F   0  0  0  0  0  0  0  0  0  0  0  0
  183.6270  173.5660  137.3850 C   0  0  1  0  0  3  0  0  0  0  0  0
  184.8760  172.8460  137.5780 N   0  0  0  0  0  2  0  0  0  0  0  0
  186.0370  171.7590  135.7660 C   0  0  0  0  0  2  0  0  0  0  0  0
  185.6950  173.0670  136.3940 C   0  0  2  0  0  3  0  0  0  0  0  0
  187.3130  171.4510  135.9290 C   0  0  0  0  0  2  0  0  0  0  0  0
  189.2530  172.9580  135.9210 C   0  0  0  0  0  1  0  0  0  0  0  0
  188.0370  172.4980  136.6940 C   0  0  1  0  0  3  0  0  0  0  0  0
  187.0390  173.6390  136.8170 C   0  0  0  0  0  2  0  0  0  0  0  0
  181.0460  178.6380  140.3380 O   0  0  0  0  0  0  0  0  0  0  0  0
  180.4450  178.8480  141.6170 C   0  0  2  0  0  3  0  0  0  0  0  0
  181.4210  179.0420  142.5960 O   0  0  0  0  0  1  0  0  0  0  0  0
  179.5300  177.6970  142.0000 C   0  0  0  0  0  2  0  0  0  0  0  0
  179.3270  176.8760  140.9070 F   0  0  0  0  0  0  0  0  0  0  0  0
  186.2820  179.5410  147.5070 C   0  0  0  0  0  1  0  0  0  0  0  0
  186.5420  178.1870  147.0490 N   0  0  0  0  0  2  0  0  0  0  0  0
  2  5  1  0  0  0  0
  2 50  1  0  0  0  0
  3  2  2  0  0  0  0
  5  4  1  0  0  0  0
  6  1  1  0  0  0  0
  6  5  2  0  0  0  0
  7  8  2  0  0  0  0
  7  3  1  0  0  0  0
  8  6  1  0  0  0  0
  9 11  2  0  0  0  0
 10 11  1  0  0  0  0
 11  8  1  0  0  0  0
 12 10  1  0  0  0  0
 13 12  1  0  0  0  0
 14 13  1  0  0  0  0
 15 21  1  6  0  0  0
 15 14  1  0  0  0  0
 16 15  1  0  0  0  0
 16 18  2  0  0  0  0
 17 16  1  0  0  0  0
 19 18  1  0  0  0  0
 20 19  2  0  0  0  0
 22 21  1  0  0  0  0
 22 23  1  0  0  0  0
 25  3  1  0  0  0  0
 25 24  2  0  0  0  0
 26 25  1  0  0  0  0
 27 26  3  0  0  0  0
 28 30  1  0  0  0  0
 28 27  1  0  0  0  0
 29 30  2  0  0  0  0
 29 44  1  0  0  0  0
 31 29  1  0  0  0  0
 32 31  1  0  0  0  0
 33 34  1  0  0  0  0
 33 32  1  0  0  0  0
 36 35  1  6  0  0  0
 36 37  1  0  0  0  0
 36 34  1  0  0  0  0
 38 40  1  0  0  0  0
 38 39  1  0  0  0  0
 39 43  1  0  0  0  0
 39 37  1  1  0  0  0
 40 42  1  0  0  0  0
 42 41  1  6  0  0  0
 42 43  1  0  0  0  0
 44 45  1  0  0  0  0
 45 47  1  0  0  0  0
 45 46  1  1  0  0  0
 48 47  1  0  0  0  0
 50 49  1  0  0  0  0
M  END
>  <MODEL>
6

>  <REMARK>
 VINA RESULT:      -6.1      2.321      3.113
  Name = 
  24 active torsions:
  status: ('A' for Active; 'I' for Inactive)
    1  A    between atoms: C_1  and  N_47
    2  A    between atoms: C_5  and  N_29
    3  A    between atoms: C_5  and  C_39
    4  A    between atoms: N_7  and  C_19
    5  A    between atoms: N_7  and  C_37
    6  A    between atoms: C_8  and  C_13
    7  A    between atoms: C_9  and  C_25
    8  A    between atoms: C_9  and  O_43
    9  A    between atoms: C_10  and  N_49
   10  A    between atoms: C_11  and  C_20
   11  A    between atoms: C_11  and  O_43
   12  A    between atoms: C_12  and  C_42
   13  A    between atoms: C_13  and  N_29
   14  A    between atoms: C_13  and  C_42
   15  A    between atoms: C_15  and  C_50
   16  A    between atoms: S_16  and  C_22
   17  A    between atoms: S_16  and  C_33
   18  A    between atoms: O_18  and  O_32
   19  A    between atoms: O_18  and  C_46
   20  A    between atoms: C_21  and  C_50
   21  A    between atoms: N_23  and  C_39
   22  A    between atoms: C_25  and  C_46
   23  A    between atoms: C_27  and  C_45
   24  A    between atoms: O_32  and  C_37
                            x       y       z     vdW  Elec       q    Type
                         _______ _______ _______ _____ _____    ______ ____

>  <TORSDO>
F 24

$$$$
=
 OpenBabel10222419493D

 50 51  0  0  1  0  0  0  0  0999 V2000
  192.0240  176.8600  142.9760 N   0  0  0  0  0  1  0  0  0  0  0  0
  189.2430  177.1840  145.4620 C   0  0  0  0  0  0  0  0  0  0  0  0
  188.1340  177.3580  144.6030 C   0  0  0  0  0  0  0  0  0  0  0  0
  191.6480  176.8420  145.7080 O   0  0  0  0  0  1  0  0  0  0  0  0
  190.5310  177.0130  144.8980 C   0  0  0  0  0  0  0  0  0  0  0  0
  190.7060  177.0140  143.5060 C   0  0  0  0  0  0  0  0  0  0  0  0
  188.3360  177.3570  143.2180 C   0  0  0  0  0  3  0  0  0  0  0  0
  189.5990  177.1870  142.6520 C   0  0  0  0  0  0  0  0  0  0  0  0
  189.0070  177.9890  140.4820 O   0  0  0  0  0  0  0  0  0  0  0  0
  190.6400  176.3310  140.5270 N   0  0  0  0  0  2  0  0  0  0  0  0
  189.7140  177.2070  141.1750 C   0  0  0  0  0  0  0  0  0  0  0  0
  190.8480  176.3380  139.0880 C   0  0  0  0  0  2  0  0  0  0  0  0
  192.2560  176.8050  138.7710 C   0  0  0  0  0  2  0  0  0  0  0  0
  192.6590  176.2820  137.4770 N   0  0  0  0  0  2  0  0  0  0  0  0
  193.0610  174.8960  137.6670 C   0  0  2  0  0  3  0  0  0  0  0  0
  194.5450  174.7360  137.5260 C   0  0  0  0  0  0  0  0  0  0  0  0
  195.3780  173.7200  138.6960 Cl  0  0  0  0  0  0  0  0  0  0  0  0
  195.1870  175.3650  136.5870 N   0  0  0  0  0  0  0  0  0  0  0  0
  196.5990  175.2770  136.4120 C   0  0  0  0  0  3  0  0  0  0  0  0
  197.3070  176.3140  136.4860 O   0  0  0  0  0  0  0  0  0  0  0  0
  192.2810  173.9630  136.7410 C   0  0  0  0  0  2  0  0  0  0  0  0
  191.7870  174.6650  135.4840 C   0  0  0  0  0  2  0  0  0  0  0  0
  190.3600  173.7690  134.8130 S   0  0  0  0  0  1  0  0  0  0  0  0
  186.4820  177.3930  146.3330 O   0  0  0  0  0  0  0  0  0  0  0  0
  186.7490  177.5400  145.1110 C   0  0  0  0  0  0  0  0  0  0  0  0
  185.6800  177.8960  144.2170 C   0  0  0  0  0  0  0  0  0  0  0  0
  184.7860  178.2090  143.4720 C   0  0  0  0  0  0  0  0  0  0  0  0
  183.4840  178.6890  142.3820 S   0  0  0  0  0  0  0  0  0  0  0  0
  184.3780  178.8150  139.7670 C   0  0  0  0  0  0  0  0  0  0  0  0
  184.6270  179.0730  141.0510 C   0  0  0  0  0  3  0  0  0  0  0  0
  183.0960  178.1550  139.3470 C   0  0  0  0  0  2  0  0  0  0  0  0
  182.3040  179.0780  138.4410 C   0  0  0  0  0  2  0  0  0  0  0  0
  182.1460  178.4830  137.1890 O   0  0  0  0  0  0  0  0  0  0  0  0
  182.0930  177.1910  137.4390 O   0  0  0  0  0  0  0  0  0  0  0  0
  180.8640  177.6770  135.5950 F   0  0  0  0  0  0  0  0  0  0  0  0
  181.3230  176.6540  136.4020 C   0  0  1  0  0  3  0  0  0  0  0  0
  182.1400  175.7480  135.6110 N   0  0  0  0  0  2  0  0  0  0  0  0
  184.1660  174.4580  135.8160 C   0  0  0  0  0  2  0  0  0  0  0  0
  182.9760  174.9940  136.5350 C   0  0  2  0  0  3  0  0  0  0  0  0
  184.0980  173.1460  135.6560 C   0  0  0  0  0  2  0  0  0  0  0  0
  183.1870  171.4710  137.2050 C   0  0  0  0  0  1  0  0  0  0  0  0
  182.8520  172.5860  136.2370 C   0  0  1  0  0  3  0  0  0  0  0  0
  182.2240  173.7510  136.9880 C   0  0  0  0  0  2  0  0  0  0  0  0
  185.3600  179.1620  138.8270 O   0  0  0  0  0  0  0  0  0  0  0  0
  186.3730  178.2830  138.3350 C   0  0  2  0  0  3  0  0  0  0  0  0
  187.2930  178.9780  137.5490 O   0  0  0  0  0  1  0  0  0  0  0  0
  185.7760  177.1250  137.5530 C   0  0  0  0  0  2  0  0  0  0  0  0
  185.1250  177.6040  136.4300 F   0  0  0  0  0  0  0  0  0  0  0  0
  189.1880  178.2800  147.7970 C   0  0  0  0  0  1  0  0  0  0  0  0
  189.0300  177.1600  146.8850 N   0  0  0  0  0  2  0  0  0  0  0  0
  1  6  1  0  0  0  0
  2 50  1  0  0  0  0
  3 25  1  0  0  0  0
  3  2  2  0  0  0  0
  5  2  1  0  0  0  0
  5  4  1  0  0  0  0
  6  5  2  0  0  0  0
  7  3  1  0  0  0  0
  8  7  2  0  0  0  0
  8  6  1  0  0  0  0
  9 11  2  0  0  0  0
 10 11  1  0  0  0  0
 11  8  1  0  0  0  0
 12 10  1  0  0  0  0
 13 12  1  0  0  0  0
 14 15  1  0  0  0  0
 14 13  1  0  0  0  0
 15 21  1  6  0  0  0
 16 15  1  0  0  0  0
 16 17  1  0  0  0  0
 18 16  2  0  0  0  0
 19 20  2  0  0  0  0
 19 18  1  0  0  0  0
 22 21  1  0  0  0  0
 23 22  1  0  0  0  0
 25 24  2  0  0  0  0
 26 25  1  0  0  0  0
 27 26  3  0  0  0  0
 28 27  1  0  0  0  0
 29 30  2  0  0  0  0
 30 28  1  0  0  0  0
 31 29  1  0  0  0  0
 32 31  1  0  0  0  0
 33 34  1  0  0  0  0
 33 32  1  0  0  0  0
 36 35  1  6  0  0  0
 36 34  1  0  0  0  0
 37 36  1  0  0  0  0
 38 39  1  0  0  0  0
 39 37  1  6  0  0  0
 39 43  1  0  0  0  0
 40 38  1  0  0  0  0
 40 42  1  0  0  0  0
 42 43  1  0  0  0  0
 42 41  1  1  0  0  0
 44 29  1  0  0  0  0
 45 46  1  6  0  0  0
 45 44  1  0  0  0  0
 47 45  1  0  0  0  0
 48 47  1  0  0  0  0
 50 49  1  0  0  0  0
M  END
>  <MODEL>
7

>  <REMARK>
 VINA RESULT:      -6.0      2.814      4.113
  Name = 
  24 active torsions:
  status: ('A' for Active; 'I' for Inactive)
    1  A    between atoms: C_1  and  N_47
    2  A    between atoms: C_5  and  N_29
    3  A    between atoms: C_5  and  C_39
    4  A    between atoms: N_7  and  C_19
    5  A    between atoms: N_7  and  C_37
    6  A    between atoms: C_8  and  C_13
    7  A    between atoms: C_9  and  C_25
    8  A    between atoms: C_9  and  O_43
    9  A    between atoms: C_10  and  N_49
   10  A    between atoms: C_11  and  C_20
   11  A    between atoms: C_11  and  O_43
   12  A    between atoms: C_12  and  C_42
   13  A    between atoms: C_13  and  N_29
   14  A    between atoms: C_13  and  C_42
   15  A    between atoms: C_15  and  C_50
   16  A    between atoms: S_16  and  C_22
   17  A    between atoms: S_16  and  C_33
   18  A    between atoms: O_18  and  O_32
   19  A    between atoms: O_18  and  C_46
   20  A    between atoms: C_21  and  C_50
   21  A    between atoms: N_23  and  C_39
   22  A    between atoms: C_25  and  C_46
   23  A    between atoms: C_27  and  C_45
   24  A    between atoms: O_32  and  C_37
                            x       y       z     vdW  Elec       q    Type
                         _______ _______ _______ _____ _____    ______ ____

>  <TORSDO>
F 24

$$$$
=
 OpenBabel10222419493D

 50 51  0  0  1  0  0  0  0  0999 V2000
  184.5200  179.4570  143.7500 N   0  0  0  0  0  1  0  0  0  0  0  0
  181.1920  178.3220  142.4620 C   0  0  0  0  0  0  0  0  0  0  0  0
  181.4940  178.1010  141.0980 C   0  0  0  0  0  0  0  0  0  0  0  0
  181.9630  179.0010  144.6770 O   0  0  0  0  0  1  0  0  0  0  0  0
  182.2180  178.7680  143.3300 C   0  0  0  0  0  0  0  0  0  0  0  0
  183.5170  178.9870  142.8470 C   0  0  0  0  0  0  0  0  0  0  0  0
  182.7970  178.3280  140.6410 C   0  0  0  0  0  3  0  0  0  0  0  0
  183.8150  178.7650  141.4890 C   0  0  0  0  0  0  0  0  0  0  0  0
  185.3120  179.6730  139.8650 O   0  0  0  0  0  0  0  0  0  0  0  0
  186.3050  178.4080  141.5470 N   0  0  0  0  0  2  0  0  0  0  0  0
  185.1620  178.9840  140.9100 C   0  0  0  0  0  0  0  0  0  0  0  0
  187.6610  178.6280  141.0700 C   0  0  0  0  0  2  0  0  0  0  0  0
  188.6310  178.5910  142.2360 C   0  0  0  0  0  2  0  0  0  0  0  0
  188.4710  177.3400  142.9570 N   0  0  0  0  0  2  0  0  0  0  0  0
  188.7520  177.6020  144.3610 C   0  0  2  0  0  3  0  0  0  0  0  0
  190.0780  177.0300  144.7670 C   0  0  0  0  0  0  0  0  0  0  0  0
  191.0800  176.3080  143.5140 Cl  0  0  0  0  0  0  0  0  0  0  0  0
  190.4440  177.0420  146.0140 N   0  0  0  0  0  0  0  0  0  0  0  0
  191.6780  176.4950  146.4710 C   0  0  0  0  0  3  0  0  0  0  0  0
  192.0800  176.7390  147.6370 O   0  0  0  0  0  0  0  0  0  0  0  0
  187.6080  177.1190  145.2530 C   0  0  0  0  0  2  0  0  0  0  0  0
  186.9560  178.2520  146.0330 C   0  0  0  0  0  2  0  0  0  0  0  0
  187.4620  178.1570  147.7720 S   0  0  0  0  0  1  0  0  0  0  0  0
  179.3370  177.2550  140.5000 O   0  0  0  0  0  0  0  0  0  0  0  0
  180.4780  177.6300  140.1210 C   0  0  0  0  0  0  0  0  0  0  0  0
  180.7730  177.5980  138.7130 C   0  0  0  0  0  0  0  0  0  0  0  0
  181.0060  177.5650  137.5310 C   0  0  0  0  0  0  0  0  0  0  0  0
  181.3250  177.5130  135.7970 S   0  0  0  0  0  0  0  0  0  0  0  0
  183.3670  175.6600  136.0290 C   0  0  0  0  0  0  0  0  0  0  0  0
  182.0590  175.8760  135.8960 C   0  0  0  0  0  3  0  0  0  0  0  0
  184.3360  176.8070  136.0920 C   0  0  0  0  0  2  0  0  0  0  0  0
  184.7730  177.0460  137.5240 C   0  0  0  0  0  2  0  0  0  0  0  0
  186.1260  177.3880  137.5500 O   0  0  0  0  0  0  0  0  0  0  0  0
  186.6700  176.6670  136.5920 O   0  0  0  0  0  0  0  0  0  0  0  0
  187.8220  174.7150  136.5080 F   0  0  0  0  0  0  0  0  0  0  0  0
  187.6250  175.8740  137.2350 C   0  0  1  0  0  3  0  0  0  0  0  0
  188.8800  176.6030  137.3270 N   0  0  0  0  0  2  0  0  0  0  0  0
  190.4220  176.4140  139.1690 C   0  0  0  0  0  2  0  0  0  0  0  0
  189.8450  175.7290  137.9790 C   0  0  2  0  0  3  0  0  0  0  0  0
  191.6830  176.7660  138.9760 C   0  0  0  0  0  2  0  0  0  0  0  0
  193.4240  175.5550  137.7370 C   0  0  0  0  0  1  0  0  0  0  0  0
  192.1590  176.3770  137.6240 C   0  0  1  0  0  3  0  0  0  0  0  0
  191.0360  175.5230  137.0550 C   0  0  0  0  0  2  0  0  0  0  0  0
  183.8090  174.3300  136.0900 O   0  0  0  0  0  0  0  0  0  0  0  0
  183.7220  173.4880  137.2410 C   0  0  2  0  0  3  0  0  0  0  0  0
  184.9440  173.4380  137.9120 O   0  0  0  0  0  1  0  0  0  0  0  0
  183.2610  172.0870  136.8730 C   0  0  0  0  0  2  0  0  0  0  0  0
  183.6200  171.8030  135.5690 F   0  0  0  0  0  0  0  0  0  0  0  0
  178.9860  179.0120  143.6090 C   0  0  0  0  0  1  0  0  0  0  0  0
  179.8580  178.0650  142.9350 N   0  0  0  0  0  2  0  0  0  0  0  0
  2 50  1  0  0  0  0
  2  5  1  0  0  0  0
  3  2  2  0  0  0  0
  5  4  1  0  0  0  0
  6  5  2  0  0  0  0
  6  1  1  0  0  0  0
  7  3  1  0  0  0  0
  7  8  2  0  0  0  0
  8  6  1  0  0  0  0
  9 11  2  0  0  0  0
 11  8  1  0  0  0  0
 11 10  1  0  0  0  0
 12 10  1  0  0  0  0
 12 13  1  0  0  0  0
 13 14  1  0  0  0  0
 14 15  1  0  0  0  0
 15 16  1  0  0  0  0
 15 21  1  1  0  0  0
 16 18  2  0  0  0  0
 17 16  1  0  0  0  0
 18 19  1  0  0  0  0
 19 20  2  0  0  0  0
 21 22  1  0  0  0  0
 22 23  1  0  0  0  0
 25 24  2  0  0  0  0
 25  3  1  0  0  0  0
 26 25  1  0  0  0  0
 27 26  3  0  0  0  0
 28 30  1  0  0  0  0
 28 27  1  0  0  0  0
 29 44  1  0  0  0  0
 29 31  1  0  0  0  0
 30 29  2  0  0  0  0
 31 32  1  0  0  0  0
 32 33  1  0  0  0  0
 34 36  1  0  0  0  0
 34 33  1  0  0  0  0
 36 35  1  6  0  0  0
 36 37  1  0  0  0  0
 39 37  1  6  0  0  0
 39 38  1  0  0  0  0
 40 38  1  0  0  0  0
 42 41  1  1  0  0  0
 42 40  1  0  0  0  0
 43 42  1  0  0  0  0
 43 39  1  0  0  0  0
 44 45  1  0  0  0  0
 45 46  1  6  0  0  0
 47 45  1  0  0  0  0
 48 47  1  0  0  0  0
 50 49  1  0  0  0  0
M  END
>  <MODEL>
8

>  <REMARK>
 VINA RESULT:      -6.0      3.543      7.916
  Name = 
  24 active torsions:
  status: ('A' for Active; 'I' for Inactive)
    1  A    between atoms: C_1  and  N_47
    2  A    between atoms: C_5  and  N_29
    3  A    between atoms: C_5  and  C_39
    4  A    between atoms: N_7  and  C_19
    5  A    between atoms: N_7  and  C_37
    6  A    between atoms: C_8  and  C_13
    7  A    between atoms: C_9  and  C_25
    8  A    between atoms: C_9  and  O_43
    9  A    between atoms: C_10  and  N_49
   10  A    between atoms: C_11  and  C_20
   11  A    between atoms: C_11  and  O_43
   12  A    between atoms: C_12  and  C_42
   13  A    between atoms: C_13  and  N_29
   14  A    between atoms: C_13  and  C_42
   15  A    between atoms: C_15  and  C_50
   16  A    between atoms: S_16  and  C_22
   17  A    between atoms: S_16  and  C_33
   18  A    between atoms: O_18  and  O_32
   19  A    between atoms: O_18  and  C_46
   20  A    between atoms: C_21  and  C_50
   21  A    between atoms: N_23  and  C_39
   22  A    between atoms: C_25  and  C_46
   23  A    between atoms: C_27  and  C_45
   24  A    between atoms: O_32  and  C_37
                            x       y       z     vdW  Elec       q    Type
                         _______ _______ _______ _____ _____    ______ ____

>  <TORSDO>
F 24

$$$$
=
 OpenBabel10222419493D

 50 51  0  0  1  0  0  0  0  0999 V2000
  191.9760  177.0790  143.2530 N   0  0  0  0  0  1  0  0  0  0  0  0
  189.3170  177.2290  145.8850 C   0  0  0  0  0  0  0  0  0  0  0  0
  188.1610  177.4010  145.0890 C   0  0  0  0  0  0  0  0  0  0  0  0
  191.7400  176.9500  145.9970 O   0  0  0  0  0  1  0  0  0  0  0  0
  190.5780  177.1170  145.2510 C   0  0  0  0  0  0  0  0  0  0  0  0
  190.6820  177.1740  143.8530 C   0  0  0  0  0  0  0  0  0  0  0  0
  188.2920  177.4560  143.6970 C   0  0  0  0  0  3  0  0  0  0  0  0
  189.5290  177.3450  143.0630 C   0  0  0  0  0  0  0  0  0  0  0  0
  188.6780  178.0480  140.9460 O   0  0  0  0  0  0  0  0  0  0  0  0
  190.6300  176.7820  140.8710 N   0  0  0  0  0  2  0  0  0  0  0  0
  189.5680  177.4220  141.5840 C   0  0  0  0  0  0  0  0  0  0  0  0
  190.7640  176.8650  139.4250 C   0  0  0  0  0  2  0  0  0  0  0  0
  192.1130  176.3170  139.0000 C   0  0  0  0  0  2  0  0  0  0  0  0
  192.4100  176.7610  137.6490 N   0  0  0  0  0  2  0  0  0  0  0  0
  192.6650  175.5760  136.8420 C   0  0  2  0  0  3  0  0  0  0  0  0
  194.1360  175.3540  136.6510 C   0  0  0  0  0  0  0  0  0  0  0  0
  194.9940  176.4240  135.5500 Cl  0  0  0  0  0  0  0  0  0  0  0  0
  194.7360  174.3750  137.2600 N   0  0  0  0  0  0  0  0  0  0  0  0
  196.1240  174.0930  137.1050 C   0  0  0  0  0  3  0  0  0  0  0  0
  196.9230  174.3300  138.0470 O   0  0  0  0  0  0  0  0  0  0  0  0
  191.9060  175.6370  135.5160 C   0  0  0  0  0  2  0  0  0  0  0  0
  190.4330  175.2820  135.6690 C   0  0  0  0  0  2  0  0  0  0  0  0
  190.2640  173.8870  136.8150 S   0  0  0  0  0  1  0  0  0  0  0  0
  186.5170  176.9910  146.7780 O   0  0  0  0  0  0  0  0  0  0  0  0
  186.7990  177.5230  145.6720 C   0  0  0  0  0  0  0  0  0  0  0  0
  185.7710  178.2600  144.9880 C   0  0  0  0  0  0  0  0  0  0  0  0
  184.9140  178.8710  144.4010 C   0  0  0  0  0  0  0  0  0  0  0  0
  183.6630  179.7530  143.5240 S   0  0  0  0  0  0  0  0  0  0  0  0
  183.8010  178.1020  141.3080 C   0  0  0  0  0  0  0  0  0  0  0  0
  183.2580  178.3310  142.5030 C   0  0  0  0  0  3  0  0  0  0  0  0
  184.8040  179.0540  140.7200 C   0  0  0  0  0  2  0  0  0  0  0  0
  185.0430  178.7260  139.2590 C   0  0  0  0  0  2  0  0  0  0  0  0
  186.4150  178.6570  139.0140 O   0  0  0  0  0  0  0  0  0  0  0  0
  186.5420  178.9670  137.7410 O   0  0  0  0  0  0  0  0  0  0  0  0
  187.6210  177.0190  138.1700 F   0  0  0  0  0  0  0  0  0  0  0  0
  187.2210  177.8860  137.1710 C   0  0  1  0  0  3  0  0  0  0  0  0
  186.3370  177.1860  136.2530 N   0  0  0  0  0  2  0  0  0  0  0  0
  186.3600  174.8580  135.6300 C   0  0  0  0  0  2  0  0  0  0  0  0
  186.1820  175.8260  136.7480 C   0  0  2  0  0  3  0  0  0  0  0  0
  185.2190  174.2850  135.2830 C   0  0  0  0  0  2  0  0  0  0  0  0
  183.3570  173.6080  136.7340 C   0  0  0  0  0  1  0  0  0  0  0  0
  184.0860  174.7760  136.1080 C   0  0  1  0  0  3  0  0  0  0  0  0
  184.7420  175.6180  137.1930 C   0  0  0  0  0  2  0  0  0  0  0  0
  183.3930  176.9540  140.6120 O   0  0  0  0  0  0  0  0  0  0  0  0
  182.0760  176.7270  140.1060 C   0  0  2  0  0  3  0  0  0  0  0  0
  181.9930  175.4790  139.4850 O   0  0  0  0  0  1  0  0  0  0  0  0
  181.6490  177.8260  139.1470 C   0  0  0  0  0  2  0  0  0  0  0  0
  181.7850  177.3890  137.8430 F   0  0  0  0  0  0  0  0  0  0  0  0
  189.1440  178.2660  148.2410 C   0  0  0  0  0  1  0  0  0  0  0  0
  189.1770  177.1470  147.3140 N   0  0  0  0  0  2  0  0  0  0  0  0
  1  6  1  0  0  0  0
  2 50  1  0  0  0  0
  3 25  1  0  0  0  0
  3  2  2  0  0  0  0
  5  2  1  0  0  0  0
  5  4  1  0  0  0  0
  6  5  2  0  0  0  0
  7  3  1  0  0  0  0
  8  7  2  0  0  0  0
  8  6  1  0  0  0  0
  9 11  2  0  0  0  0
 10 11  1  0  0  0  0
 11  8  1  0  0  0  0
 12 10  1  0  0  0  0
 13 12  1  0  0  0  0
 14 13  1  0  0  0  0
 15 21  1  6  0  0  0
 15 14  1  0  0  0  0
 16 15  1  0  0  0  0
 16 18  2  0  0  0  0
 17 16  1  0  0  0  0
 19 18  1  0  0  0  0
 19 20  2  0  0  0  0
 21 22  1  0  0  0  0
 22 23  1  0  0  0  0
 25 24  2  0  0  0  0
 26 25  1  0  0  0  0
 27 26  3  0  0  0  0
 28 27  1  0  0  0  0
 29 30  2  0  0  0  0
 30 28  1  0  0  0  0
 31 29  1  0  0  0  0
 32 31  1  0  0  0  0
 33 32  1  0  0  0  0
 34 33  1  0  0  0  0
 36 34  1  0  0  0  0
 36 35  1  1  0  0  0
 37 36  1  0  0  0  0
 38 39  1  0  0  0  0
 39 37  1  6  0  0  0
 39 43  1  0  0  0  0
 40 38  1  0  0  0  0
 40 42  1  0  0  0  0
 42 41  1  1  0  0  0
 42 43  1  0  0  0  0
 44 29  1  0  0  0  0
 45 46  1  6  0  0  0
 45 44  1  0  0  0  0
 47 45  1  0  0  0  0
 48 47  1  0  0  0  0
 50 49  1  0  0  0  0
M  END
>  <MODEL>
9

>  <REMARK>
 VINA RESULT:      -5.9      2.677      4.043
  Name = 
  24 active torsions:
  status: ('A' for Active; 'I' for Inactive)
    1  A    between atoms: C_1  and  N_47
    2  A    between atoms: C_5  and  N_29
    3  A    between atoms: C_5  and  C_39
    4  A    between atoms: N_7  and  C_19
    5  A    between atoms: N_7  and  C_37
    6  A    between atoms: C_8  and  C_13
    7  A    between atoms: C_9  and  C_25
    8  A    between atoms: C_9  and  O_43
    9  A    between atoms: C_10  and  N_49
   10  A    between atoms: C_11  and  C_20
   11  A    between atoms: C_11  and  O_43
   12  A    between atoms: C_12  and  C_42
   13  A    between atoms: C_13  and  N_29
   14  A    between atoms: C_13  and  C_42
   15  A    between atoms: C_15  and  C_50
   16  A    between atoms: S_16  and  C_22
   17  A    between atoms: S_16  and  C_33
   18  A    between atoms: O_18  and  O_32
   19  A    between atoms: O_18  and  C_46
   20  A    between atoms: C_21  and  C_50
   21  A    between atoms: N_23  and  C_39
   22  A    between atoms: C_25  and  C_46
   23  A    between atoms: C_27  and  C_45
   24  A    between atoms: O_32  and  C_37
                            x       y       z     vdW  Elec       q    Type
                         _______ _______ _______ _____ _____    ______ ____

>  <TORSDO>
F 24

$$$$
