=
 OpenBabel10222419513D

 50 53  0  0  1  0  0  0  0  0999 V2000
  188.1790  177.8030  142.0650 C   0  0  0  0  0  3  0  0  0  0  0  0
  188.9580  176.3860  138.1750 C   0  0  0  0  0  0  0  0  0  0  0  0
  190.0520  176.4430  139.1860 C   0  0  0  0  0  0  0  0  0  0  0  0
  185.1390  178.4060  144.2460 C   0  0  0  0  0  3  0  0  0  0  0  0
  185.7870  178.4410  141.5190 C   0  0  0  0  0  0  0  0  0  0  0  0
  187.9430  177.3410  138.2100 O   0  0  0  0  0  0  0  0  0  0  0  0
  186.7420  177.2420  137.4630 C   0  0  0  0  0  2  0  0  0  0  0  0
  188.4820  177.3330  140.8600 C   0  0  0  0  0  3  0  0  0  0  0  0
  189.8380  176.9400  140.4290 C   0  0  0  0  0  0  0  0  0  0  0  0
  186.1940  179.5610  137.0740 C   0  0  0  0  0  2  0  0  0  0  0  0
  185.1700  178.5090  139.0760 C   0  0  2  0  0  3  0  0  0  0  0  0
  184.4710  178.6620  141.9490 C   0  0  0  0  0  3  0  0  0  0  0  0
  190.9600  177.0230  141.4230 C   0  0  0  0  0  1  0  0  0  0  0  0
  186.1120  178.5550  140.1540 O   0  0  0  0  0  0  0  0  0  0  0  0
  186.7960  178.1430  142.4770 C   0  0  0  0  0  0  0  0  0  0  0  0
  185.9080  178.4470  137.7540 C   0  0  0  0  0  0  0  0  0  0  0  0
  188.9640  175.5010  137.2770 O   0  0  0  0  0  0  0  0  0  0  0  0
  184.1480  178.6470  143.3020 C   0  0  0  0  0  3  0  0  0  0  0  0
  186.4630  178.1490  143.8610 C   0  0  0  0  0  0  0  0  0  0  0  0
  189.2760  177.2550  146.9840 C   0  0  0  0  0  3  0  0  0  0  0  0
  187.9060  177.2840  147.2580 C   0  0  0  0  0  3  0  0  0  0  0  0
  188.8230  177.8130  144.6770 C   0  0  0  0  0  3  0  0  0  0  0  0
  187.4460  177.8630  144.9400 C   0  0  0  0  0  0  0  0  0  0  0  0
  189.7430  177.5180  145.6900 C   0  0  0  0  0  0  0  0  0  0  0  0
  186.9970  177.5840  146.2400 C   0  0  0  0  0  3  0  0  0  0  0  0
  191.7100  178.3030  144.3980 O   0  0  0  0  0  0  0  0  0  0  0  0
  191.9520  176.7250  146.0370 O   0  0  0  0  0  1  0  0  0  0  0  0
  191.1830  177.4870  145.3930 C   0  0  0  0  0  0  0  0  0  0  0  0
  192.5610  174.7260  137.0790 C   0  0  0  0  0  2  0  0  0  0  0  0
  191.3370  174.6690  137.9620 C   0  0  0  0  0  2  0  0  0  0  0  0
  192.8420  176.2010  136.8730 C   0  0  2  0  0  3  0  0  0  0  0  0
  194.2180  176.4160  136.8110 O   0  0  0  0  0  1  0  0  0  0  0  0
  192.2590  176.9290  138.0710 C   0  0  0  0  0  2  0  0  0  0  0  0
  191.4190  175.9110  138.8260 C   0  0  1  0  0  3  0  0  0  0  0  0
  183.0400  179.5740  138.5490 C   0  0  0  0  0  0  0  0  0  0  0  0
  181.5380  180.4250  136.9910 O   0  0  0  0  0  1  0  0  0  0  0  0
  184.1980  179.6540  139.1420 C   0  0  0  0  0  3  0  0  0  0  0  0
  181.8800  179.4860  137.9560 C   0  0  0  0  0  0  0  0  0  0  0  0
  180.9870  177.8100  139.5890 N   0  0  0  0  0  2  0  0  0  0  0  0
  180.0960  178.0050  137.4420 O   0  0  0  0  0  0  0  0  0  0  0  0
  180.9390  178.4070  138.2920 C   0  0  0  0  0  0  0  0  0  0  0  0
  180.0720  176.7540  140.0080 C   0  0  1  0  0  3  0  0  0  0  0  0
  179.9750  174.4710  138.9810 C   0  0  0  0  0  1  0  0  0  0  0  0
  182.1960  175.4690  139.4800 C   0  0  0  0  0  1  0  0  0  0  0  0
  180.7430  175.3790  139.9200 C   0  0  0  0  0  3  0  0  0  0  0  0
  179.5600  177.0320  141.4180 C   0  0  0  0  0  2  0  0  0  0  0  0
  178.9510  178.7400  141.5490 S   0  0  0  0  0  0  0  0  0  0  0  0
  180.1630  180.5870  142.9860 O   0  0  0  0  0  1  0  0  0  0  0  0
  180.1980  178.4170  143.9480 C   0  0  0  0  0  1  0  0  0  0  0  0
  180.2870  179.2320  142.6770 C   0  0  1  0  0  3  0  0  0  0  0  0
  1 15  1  0  0  0  0
  2  6  1  0  0  0  0
  2  3  1  0  0  0  0
  3  9  2  0  0  0  0
  5 12  2  0  0  0  0
  5 15  1  0  0  0  0
  7 16  1  0  0  0  0
  7  6  1  0  0  0  0
  8  1  2  0  0  0  0
  9  8  1  0  0  0  0
  9 13  1  0  0  0  0
 10 16  2  0  0  0  0
 11 37  1  6  0  0  0
 11 14  1  0  0  0  0
 12 18  1  0  0  0  0
 14  5  1  0  0  0  0
 15 19  2  0  0  0  0
 16 11  1  0  0  0  0
 17  2  2  0  0  0  0
 18  4  2  0  0  0  0
 19  4  1  0  0  0  0
 19 23  1  0  0  0  0
 20 21  1  0  0  0  0
 22 23  2  0  0  0  0
 22 24  1  0  0  0  0
 23 25  1  0  0  0  0
 24 20  2  0  0  0  0
 25 21  2  0  0  0  0
 26 28  2  0  0  0  0
 28 24  1  0  0  0  0
 28 27  1  0  0  0  0
 29 30  1  0  0  0  0
 30 34  1  0  0  0  0
 31 32  1  1  0  0  0
 31 29  1  0  0  0  0
 31 33  1  0  0  0  0
 33 34  1  0  0  0  0
 34  3  1  6  0  0  0
 35 37  2  0  0  0  0
 36 38  1  0  0  0  0
 38 41  1  0  0  0  0
 38 35  2  0  0  0  0
 39 42  1  0  0  0  0
 40 41  2  0  0  0  0
 41 39  1  0  0  0  0
 42 46  1  1  0  0  0
 43 45  1  0  0  0  0
 44 45  1  0  0  0  0
 45 42  1  0  0  0  0
 46 47  1  0  0  0  0
 47 50  1  0  0  0  0
 50 48  1  0  0  0  0
 50 49  1  1  0  0  0
M  END
>  <MODEL>
1

>  <REMARK>
 VINA RESULT:      -9.5      0.000      0.000
  Name = 
  10 active torsions:
  status: ('A' for Active; 'I' for Inactive)
    1  A    between atoms: N_3  and  C_13
    2  A    between atoms: C_9  and  C_50
    3  A    between atoms: C_13  and  C_27
    4  A    between atoms: C_13  and  C_45
    5  A    between atoms: C_20  and  C_24
    6  A    between atoms: C_27  and  S_39
    7  A    between atoms: C_30  and  C_49
    8  A    between atoms: C_35  and  C_40
    9  A    between atoms: C_36  and  C_37
   10  A    between atoms: S_39  and  C_48
                            x       y       z     vdW  Elec       q    Type
                         _______ _______ _______ _____ _____    ______ ____

>  <TORSDO>
F 10

$$$$
=
 OpenBabel10222419513D

 50 53  0  0  1  0  0  0  0  0999 V2000
  188.2310  177.8110  142.1070 C   0  0  0  0  0  3  0  0  0  0  0  0
  189.0800  176.4340  138.2180 C   0  0  0  0  0  0  0  0  0  0  0  0
  190.1630  176.5110  139.2400 C   0  0  0  0  0  0  0  0  0  0  0  0
  185.1570  178.3290  144.2630 C   0  0  0  0  0  3  0  0  0  0  0  0
  185.8290  178.3950  141.5420 C   0  0  0  0  0  0  0  0  0  0  0  0
  188.0420  177.3640  138.2480 O   0  0  0  0  0  0  0  0  0  0  0  0
  186.8510  177.2400  137.4900 C   0  0  0  0  0  2  0  0  0  0  0  0
  188.5560  177.3550  140.9030 C   0  0  0  0  0  3  0  0  0  0  0  0
  189.9260  176.9960  140.4830 C   0  0  0  0  0  0  0  0  0  0  0  0
  186.2520  179.5480  137.1070 C   0  0  0  0  0  2  0  0  0  0  0  0
  185.2340  178.4610  139.0940 C   0  0  2  0  0  3  0  0  0  0  0  0
  184.5050  178.5820  141.9610 C   0  0  0  0  0  3  0  0  0  0  0  0
  191.0350  177.1010  141.4880 C   0  0  0  0  0  1  0  0  0  0  0  0
  186.1640  178.5240  140.1810 O   0  0  0  0  0  0  0  0  0  0  0  0
  186.8360  178.1160  142.5080 C   0  0  0  0  0  0  0  0  0  0  0  0
  185.9860  178.4230  137.7790 C   0  0  0  0  0  0  0  0  0  0  0  0
  189.1150  175.5530  137.3160 O   0  0  0  0  0  0  0  0  0  0  0  0
  184.1700  178.5520  143.3100 C   0  0  0  0  0  3  0  0  0  0  0  0
  186.4900  178.1060  143.8890 C   0  0  0  0  0  0  0  0  0  0  0  0
  189.2790  177.2730  147.0500 C   0  0  0  0  0  3  0  0  0  0  0  0
  187.9690  177.6540  147.3500 C   0  0  0  0  0  3  0  0  0  0  0  0
  188.7840  177.4380  144.6900 C   0  0  0  0  0  3  0  0  0  0  0  0
  187.4690  177.8380  144.9760 C   0  0  0  0  0  0  0  0  0  0  0  0
  189.6940  177.1620  145.7170 C   0  0  0  0  0  0  0  0  0  0  0  0
  187.0690  177.9320  146.3180 C   0  0  0  0  0  3  0  0  0  0  0  0
  191.3230  175.9450  144.2950 O   0  0  0  0  0  0  0  0  0  0  0  0
  192.0360  177.1510  146.1040 O   0  0  0  0  0  1  0  0  0  0  0  0
  191.0720  176.7600  145.3930 C   0  0  0  0  0  0  0  0  0  0  0  0
  192.7200  174.8150  137.1750 C   0  0  0  0  0  2  0  0  0  0  0  0
  191.5020  174.7440  138.0640 C   0  0  0  0  0  2  0  0  0  0  0  0
  192.9520  176.2910  136.9230 C   0  0  2  0  0  3  0  0  0  0  0  0
  194.3200  176.5500  136.8490 O   0  0  0  0  0  1  0  0  0  0  0  0
  192.3490  177.0350  138.1010 C   0  0  0  0  0  2  0  0  0  0  0  0
  191.5450  176.0140  138.8900 C   0  0  1  0  0  3  0  0  0  0  0  0
  183.0590  179.4520  138.6080 C   0  0  0  0  0  0  0  0  0  0  0  0
  181.4810  180.2100  137.0780 O   0  0  0  0  0  1  0  0  0  0  0  0
  184.2350  179.5820  139.1560 C   0  0  0  0  0  3  0  0  0  0  0  0
  181.8820  179.3130  138.0610 C   0  0  0  0  0  0  0  0  0  0  0  0
  180.8970  177.0450  137.6610 N   0  0  0  0  0  2  0  0  0  0  0  0
  180.2860  178.3230  139.5150 O   0  0  0  0  0  0  0  0  0  0  0  0
  180.9820  178.2230  138.4660 C   0  0  0  0  0  0  0  0  0  0  0  0
  180.0500  175.9100  138.0080 C   0  0  1  0  0  3  0  0  0  0  0  0
  179.5380  176.3000  135.5870 C   0  0  0  0  0  1  0  0  0  0  0  0
  179.3490  173.9950  136.4980 C   0  0  0  0  0  1  0  0  0  0  0  0
  179.1970  175.4750  136.8120 C   0  0  0  0  0  3  0  0  0  0  0  0
  180.9030  174.7580  138.5280 C   0  0  0  0  0  2  0  0  0  0  0  0
  182.6660  175.2060  138.4960 S   0  0  0  0  0  0  0  0  0  0  0  0
  182.8980  174.5220  135.9610 O   0  0  0  0  0  1  0  0  0  0  0  0
  184.4900  173.5070  137.3990 C   0  0  0  0  0  1  0  0  0  0  0  0
  183.0580  173.9640  137.2290 C   0  0  1  0  0  3  0  0  0  0  0  0
  1 15  1  0  0  0  0
  2  6  1  0  0  0  0
  2  3  1  0  0  0  0
  3  9  2  0  0  0  0
  5 12  2  0  0  0  0
  5 15  1  0  0  0  0
  7 16  1  0  0  0  0
  7  6  1  0  0  0  0
  8  1  2  0  0  0  0
  9  8  1  0  0  0  0
  9 13  1  0  0  0  0
 10 16  2  0  0  0  0
 11 37  1  6  0  0  0
 11 14  1  0  0  0  0
 12 18  1  0  0  0  0
 14  5  1  0  0  0  0
 15 19  2  0  0  0  0
 16 11  1  0  0  0  0
 17  2  2  0  0  0  0
 18  4  2  0  0  0  0
 19  4  1  0  0  0  0
 19 23  1  0  0  0  0
 20 21  1  0  0  0  0
 22 23  2  0  0  0  0
 22 24  1  0  0  0  0
 23 25  1  0  0  0  0
 24 20  2  0  0  0  0
 25 21  2  0  0  0  0
 26 28  2  0  0  0  0
 28 24  1  0  0  0  0
 28 27  1  0  0  0  0
 29 30  1  0  0  0  0
 30 34  1  0  0  0  0
 31 32  1  1  0  0  0
 31 29  1  0  0  0  0
 31 33  1  0  0  0  0
 33 34  1  0  0  0  0
 34  3  1  6  0  0  0
 35 37  2  0  0  0  0
 36 38  1  0  0  0  0
 38 41  1  0  0  0  0
 38 35  2  0  0  0  0
 39 42  1  0  0  0  0
 39 41  1  0  0  0  0
 41 40  2  0  0  0  0
 42 46  1  6  0  0  0
 43 45  1  0  0  0  0
 44 45  1  0  0  0  0
 45 42  1  0  0  0  0
 47 46  1  0  0  0  0
 48 50  1  0  0  0  0
 50 49  1  1  0  0  0
 50 47  1  0  0  0  0
M  END
>  <MODEL>
2

>  <REMARK>
 VINA RESULT:      -8.6      1.581      2.692
  Name = 
  10 active torsions:
  status: ('A' for Active; 'I' for Inactive)
    1  A    between atoms: N_3  and  C_13
    2  A    between atoms: C_9  and  C_50
    3  A    between atoms: C_13  and  C_27
    4  A    between atoms: C_13  and  C_45
    5  A    between atoms: C_20  and  C_24
    6  A    between atoms: C_27  and  S_39
    7  A    between atoms: C_30  and  C_49
    8  A    between atoms: C_35  and  C_40
    9  A    between atoms: C_36  and  C_37
   10  A    between atoms: S_39  and  C_48
                            x       y       z     vdW  Elec       q    Type
                         _______ _______ _______ _____ _____    ______ ____

>  <TORSDO>
F 10

$$$$
=
 OpenBabel10222419513D

 50 53  0  0  1  0  0  0  0  0999 V2000
  184.5000  178.9500  141.3770 C   0  0  0  0  0  3  0  0  0  0  0  0
  187.9610  177.3190  143.1390 C   0  0  0  0  0  0  0  0  0  0  0  0
  187.0080  178.1180  143.9590 C   0  0  0  0  0  0  0  0  0  0  0  0
  182.4750  178.4200  138.2180 C   0  0  0  0  0  3  0  0  0  0  0  0
  185.1450  178.1940  139.0440 C   0  0  0  0  0  0  0  0  0  0  0  0
  188.1360  177.6320  141.7910 O   0  0  0  0  0  0  0  0  0  0  0  0
  188.8210  176.7990  140.8710 C   0  0  0  0  0  2  0  0  0  0  0  0
  185.5660  178.4490  141.9910 C   0  0  0  0  0  3  0  0  0  0  0  0
  185.9130  178.6950  143.4050 C   0  0  0  0  0  0  0  0  0  0  0  0
  189.7330  178.4050  139.3160 C   0  0  0  0  0  2  0  0  0  0  0  0
  187.5260  177.4340  138.7270 C   0  0  2  0  0  3  0  0  0  0  0  0
  184.7580  177.8230  137.7490 C   0  0  0  0  0  3  0  0  0  0  0  0
  184.9820  179.5270  144.2380 C   0  0  0  0  0  1  0  0  0  0  0  0
  186.5030  178.1640  139.4130 O   0  0  0  0  0  0  0  0  0  0  0  0
  184.1590  178.6420  139.9670 C   0  0  0  0  0  0  0  0  0  0  0  0
  188.8070  177.4670  139.5350 C   0  0  0  0  0  0  0  0  0  0  0  0
  188.6270  176.3850  143.6630 O   0  0  0  0  0  0  0  0  0  0  0  0
  183.4360  177.9360  137.3360 C   0  0  0  0  0  3  0  0  0  0  0  0
  182.8090  178.7740  139.5320 C   0  0  0  0  0  0  0  0  0  0  0  0
  179.5780  180.1040  142.0340 C   0  0  0  0  0  3  0  0  0  0  0  0
  179.7280  180.6200  140.7440 C   0  0  0  0  0  3  0  0  0  0  0  0
  181.5340  178.7230  141.7060 C   0  0  0  0  0  3  0  0  0  0  0  0
  181.7080  179.2450  140.4140 C   0  0  0  0  0  0  0  0  0  0  0  0
  180.4800  179.1510  142.5220 C   0  0  0  0  0  0  0  0  0  0  0  0
  180.7850  180.1900  139.9380 C   0  0  0  0  0  3  0  0  0  0  0  0
  179.0730  178.2290  144.3460 O   0  0  0  0  0  0  0  0  0  0  0  0
  181.3330  178.4590  144.6260 O   0  0  0  0  0  1  0  0  0  0  0  0
  180.3290  178.6010  143.8780 C   0  0  0  0  0  0  0  0  0  0  0  0
  187.5040  176.9540  147.4340 C   0  0  0  0  0  2  0  0  0  0  0  0
  186.6010  177.1580  146.2400 C   0  0  0  0  0  2  0  0  0  0  0  0
  188.8990  177.2950  146.9490 C   0  0  2  0  0  3  0  0  0  0  0  0
  189.6200  177.9050  147.9750 O   0  0  0  0  0  1  0  0  0  0  0  0
  188.7330  178.2610  145.7900 C   0  0  0  0  0  2  0  0  0  0  0  0
  187.2530  178.2680  145.4410 C   0  0  1  0  0  3  0  0  0  0  0  0
  188.0530  177.1150  136.3660 C   0  0  0  0  0  0  0  0  0  0  0  0
  189.5530  176.5160  134.6950 O   0  0  0  0  0  1  0  0  0  0  0  0
  187.7160  177.9350  137.3220 C   0  0  0  0  0  3  0  0  0  0  0  0
  188.3860  176.2880  135.4130 C   0  0  0  0  0  0  0  0  0  0  0  0
  186.1460  175.1690  135.3650 N   0  0  0  0  0  2  0  0  0  0  0  0
  188.0620  174.0820  134.5940 O   0  0  0  0  0  0  0  0  0  0  0  0
  187.5490  175.1210  135.0960 C   0  0  0  0  0  0  0  0  0  0  0  0
  185.2450  174.0650  135.0550 C   0  0  1  0  0  3  0  0  0  0  0  0
  185.6260  171.7490  135.9340 C   0  0  0  0  0  1  0  0  0  0  0  0
  185.7710  173.6690  137.5060 C   0  0  0  0  0  1  0  0  0  0  0  0
  185.0890  173.1290  136.2590 C   0  0  0  0  0  3  0  0  0  0  0  0
  183.8940  174.6030  134.5940 C   0  0  0  0  0  2  0  0  0  0  0  0
  182.5380  173.6510  135.3440 S   0  0  0  0  0  0  0  0  0  0  0  0
  181.4610  175.9590  134.6640 O   0  0  0  0  0  1  0  0  0  0  0  0
  180.2380  174.7510  136.3010 C   0  0  0  0  0  1  0  0  0  0  0  0
  181.6060  175.1460  135.7880 C   0  0  1  0  0  3  0  0  0  0  0  0
  1  8  2  0  0  0  0
  2 17  2  0  0  0  0
  2  3  1  0  0  0  0
  4 19  1  0  0  0  0
  5 14  1  0  0  0  0
  5 15  1  0  0  0  0
  6  2  1  0  0  0  0
  7  6  1  0  0  0  0
  8  9  1  0  0  0  0
  9  3  2  0  0  0  0
  9 13  1  0  0  0  0
 10 16  2  0  0  0  0
 11 37  1  6  0  0  0
 11 14  1  0  0  0  0
 11 16  1  0  0  0  0
 12  5  2  0  0  0  0
 15  1  1  0  0  0  0
 16  7  1  0  0  0  0
 18 12  1  0  0  0  0
 18  4  2  0  0  0  0
 19 15  2  0  0  0  0
 19 23  1  0  0  0  0
 20 24  1  0  0  0  0
 21 20  2  0  0  0  0
 22 24  2  0  0  0  0
 23 22  1  0  0  0  0
 24 28  1  0  0  0  0
 25 23  2  0  0  0  0
 25 21  1  0  0  0  0
 28 26  2  0  0  0  0
 28 27  1  0  0  0  0
 30 29  1  0  0  0  0
 31 29  1  0  0  0  0
 31 32  1  1  0  0  0
 33 31  1  0  0  0  0
 34  3  1  6  0  0  0
 34 33  1  0  0  0  0
 34 30  1  0  0  0  0
 35 37  2  0  0  0  0
 36 38  1  0  0  0  0
 38 35  2  0  0  0  0
 40 41  2  0  0  0  0
 41 39  1  0  0  0  0
 41 38  1  0  0  0  0
 42 46  1  1  0  0  0
 42 39  1  0  0  0  0
 42 45  1  0  0  0  0
 43 45  1  0  0  0  0
 45 44  1  0  0  0  0
 46 47  1  0  0  0  0
 47 50  1  0  0  0  0
 48 50  1  0  0  0  0
 50 49  1  6  0  0  0
M  END
>  <MODEL>
3

>  <REMARK>
 VINA RESULT:      -8.0      2.875      7.694
  Name = 
  10 active torsions:
  status: ('A' for Active; 'I' for Inactive)
    1  A    between atoms: N_3  and  C_13
    2  A    between atoms: C_9  and  C_50
    3  A    between atoms: C_13  and  C_27
    4  A    between atoms: C_13  and  C_45
    5  A    between atoms: C_20  and  C_24
    6  A    between atoms: C_27  and  S_39
    7  A    between atoms: C_30  and  C_49
    8  A    between atoms: C_35  and  C_40
    9  A    between atoms: C_36  and  C_37
   10  A    between atoms: S_39  and  C_48
                            x       y       z     vdW  Elec       q    Type
                         _______ _______ _______ _____ _____    ______ ____

>  <TORSDO>
F 10

$$$$
=
 OpenBabel10222419513D

 50 53  0  0  1  0  0  0  0  0999 V2000
  188.6690  177.2240  140.3430 C   0  0  0  0  0  3  0  0  0  0  0  0
  186.2520  178.1880  143.6550 C   0  0  0  0  0  0  0  0  0  0  0  0
  187.4770  177.3600  143.8370 C   0  0  0  0  0  0  0  0  0  0  0  0
  189.1530  178.4720  136.7980 C   0  0  0  0  0  3  0  0  0  0  0  0
  187.0820  178.2920  138.6790 C   0  0  0  0  0  0  0  0  0  0  0  0
  185.5280  178.0890  142.4670 O   0  0  0  0  0  0  0  0  0  0  0  0
  184.5020  178.9930  142.0920 C   0  0  0  0  0  2  0  0  0  0  0  0
  187.9550  177.5070  141.4270 C   0  0  0  0  0  3  0  0  0  0  0  0
  188.2450  176.9950  142.7810 C   0  0  0  0  0  0  0  0  0  0  0  0
  183.0460  177.5890  140.7740 C   0  0  0  0  0  2  0  0  0  0  0  0
  184.7780  178.8570  139.5270 C   0  0  2  0  0  3  0  0  0  0  0  0
  186.8760  178.9110  137.4390 C   0  0  0  0  0  3  0  0  0  0  0  0
  189.4560  176.1300  142.9770 C   0  0  0  0  0  1  0  0  0  0  0  0
  186.0080  178.1270  139.5730 O   0  0  0  0  0  0  0  0  0  0  0  0
  188.3750  177.7950  139.0070 C   0  0  0  0  0  0  0  0  0  0  0  0
  183.9600  178.5630  140.7680 C   0  0  0  0  0  0  0  0  0  0  0  0
  185.8540  178.9510  144.5770 O   0  0  0  0  0  0  0  0  0  0  0  0
  187.9010  179.0000  136.5030 C   0  0  0  0  0  3  0  0  0  0  0  0
  189.4150  177.8710  138.0370 C   0  0  0  0  0  0  0  0  0  0  0  0
  193.3740  176.3730  138.7780 C   0  0  0  0  0  3  0  0  0  0  0  0
  192.6600  177.0090  139.7960 C   0  0  0  0  0  3  0  0  0  0  0  0
  191.5170  176.7140  137.2680 C   0  0  0  0  0  3  0  0  0  0  0  0
  190.7940  177.3700  138.2770 C   0  0  0  0  0  0  0  0  0  0  0  0
  192.8050  176.2210  137.5070 C   0  0  0  0  0  0  0  0  0  0  0  0
  191.3760  177.5020  139.5480 C   0  0  0  0  0  3  0  0  0  0  0  0
  194.8900  175.8490  136.2130 O   0  0  0  0  0  1  0  0  0  0  0  0
  192.9810  174.7000  135.6930 O   0  0  0  0  0  0  0  0  0  0  0  0
  193.5490  175.5510  136.4290 C   0  0  0  0  0  0  0  0  0  0  0  0
  189.1810  177.6990  147.1030 C   0  0  0  0  0  2  0  0  0  0  0  0
  189.2490  177.4830  145.6090 C   0  0  0  0  0  2  0  0  0  0  0  0
  187.7330  178.0390  147.3960 C   0  0  2  0  0  3  0  0  0  0  0  0
  187.3630  177.5040  148.6290 O   0  0  0  0  0  1  0  0  0  0  0  0
  186.9040  177.4110  146.2900 C   0  0  0  0  0  2  0  0  0  0  0  0
  187.8860  176.9410  145.2290 C   0  0  1  0  0  3  0  0  0  0  0  0
  184.3160  177.5490  137.5200 C   0  0  0  0  0  0  0  0  0  0  0  0
  184.9900  176.7010  135.4620 O   0  0  0  0  0  1  0  0  0  0  0  0
  184.0190  178.5820  138.2580 C   0  0  0  0  0  3  0  0  0  0  0  0
  184.6170  176.5110  136.7870 C   0  0  0  0  0  0  0  0  0  0  0  0
  185.4610  174.1540  136.8420 N   0  0  0  0  0  2  0  0  0  0  0  0
  183.7480  174.8630  138.2600 O   0  0  0  0  0  0  0  0  0  0  0  0
  184.5700  175.1520  137.3460 C   0  0  0  0  0  0  0  0  0  0  0  0
  185.4940  172.7910  137.3610 C   0  0  1  0  0  3  0  0  0  0  0  0
  183.4240  171.4250  137.0100 C   0  0  0  0  0  1  0  0  0  0  0  0
  184.5610  172.4120  135.0320 C   0  0  0  0  0  1  0  0  0  0  0  0
  184.7620  171.8270  136.4220 C   0  0  0  0  0  3  0  0  0  0  0  0
  186.9370  172.3520  137.5900 C   0  0  0  0  0  2  0  0  0  0  0  0
  187.9140  172.5600  136.0700 S   0  0  0  0  0  0  0  0  0  0  0  0
  190.0030  173.5550  137.3340 O   0  0  0  0  0  1  0  0  0  0  0  0
  189.1510  174.9410  135.6060 C   0  0  0  0  0  1  0  0  0  0  0  0
  188.8200  173.9880  136.7330 C   0  0  1  0  0  3  0  0  0  0  0  0
  1  8  2  0  0  0  0
  2  3  1  0  0  0  0
  2 17  2  0  0  0  0
  4 19  1  0  0  0  0
  5 15  1  0  0  0  0
  5 14  1  0  0  0  0
  6  2  1  0  0  0  0
  7  6  1  0  0  0  0
  8  9  1  0  0  0  0
  9 13  1  0  0  0  0
  9  3  2  0  0  0  0
 11 37  1  6  0  0  0
 11 14  1  0  0  0  0
 11 16  1  0  0  0  0
 12  5  2  0  0  0  0
 15  1  1  0  0  0  0
 16 10  2  0  0  0  0
 16  7  1  0  0  0  0
 18  4  2  0  0  0  0
 18 12  1  0  0  0  0
 19 23  1  0  0  0  0
 19 15  2  0  0  0  0
 20 21  1  0  0  0  0
 22 24  1  0  0  0  0
 22 23  2  0  0  0  0
 23 25  1  0  0  0  0
 24 20  2  0  0  0  0
 25 21  2  0  0  0  0
 26 28  1  0  0  0  0
 27 28  2  0  0  0  0
 28 24  1  0  0  0  0
 29 31  1  0  0  0  0
 30 29  1  0  0  0  0
 31 32  1  1  0  0  0
 33 31  1  0  0  0  0
 34  3  1  6  0  0  0
 34 30  1  0  0  0  0
 34 33  1  0  0  0  0
 35 37  2  0  0  0  0
 36 38  1  0  0  0  0
 38 41  1  0  0  0  0
 38 35  2  0  0  0  0
 39 41  1  0  0  0  0
 39 42  1  0  0  0  0
 41 40  2  0  0  0  0
 42 46  1  6  0  0  0
 44 45  1  0  0  0  0
 45 43  1  0  0  0  0
 45 42  1  0  0  0  0
 47 50  1  0  0  0  0
 47 46  1  0  0  0  0
 50 49  1  6  0  0  0
 50 48  1  0  0  0  0
M  END
>  <MODEL>
4

>  <REMARK>
 VINA RESULT:      -7.8      3.196      7.583
  Name = 
  10 active torsions:
  status: ('A' for Active; 'I' for Inactive)
    1  A    between atoms: N_3  and  C_13
    2  A    between atoms: C_9  and  C_50
    3  A    between atoms: C_13  and  C_27
    4  A    between atoms: C_13  and  C_45
    5  A    between atoms: C_20  and  C_24
    6  A    between atoms: C_27  and  S_39
    7  A    between atoms: C_30  and  C_49
    8  A    between atoms: C_35  and  C_40
    9  A    between atoms: C_36  and  C_37
   10  A    between atoms: S_39  and  C_48
                            x       y       z     vdW  Elec       q    Type
                         _______ _______ _______ _____ _____    ______ ____

>  <TORSDO>
F 10

$$$$
=
 OpenBabel10222419513D

 50 53  0  0  1  0  0  0  0  0999 V2000
  185.9850  178.6390  140.9330 C   0  0  0  0  0  3  0  0  0  0  0  0
  188.6410  177.1180  143.8270 C   0  0  0  0  0  0  0  0  0  0  0  0
  187.5100  177.9980  144.2360 C   0  0  0  0  0  0  0  0  0  0  0  0
  185.0460  177.8670  137.3430 C   0  0  0  0  0  3  0  0  0  0  0  0
  187.3040  177.6770  138.9930 C   0  0  0  0  0  0  0  0  0  0  0  0
  189.2460  177.3120  142.5850 O   0  0  0  0  0  0  0  0  0  0  0  0
  190.1530  176.3930  142.0000 C   0  0  0  0  0  2  0  0  0  0  0  0
  186.7800  178.1780  141.8920 C   0  0  0  0  0  3  0  0  0  0  0  0
  186.6710  178.5400  143.3190 C   0  0  0  0  0  0  0  0  0  0  0  0
  191.5750  177.8470  140.6980 C   0  0  0  0  0  2  0  0  0  0  0  0
  189.6300  176.8590  139.5120 C   0  0  2  0  0  3  0  0  0  0  0  0
  187.3330  177.2010  137.6750 C   0  0  0  0  0  3  0  0  0  0  0  0
  185.5590  179.4530  143.7450 C   0  0  0  0  0  1  0  0  0  0  0  0
  188.4730  177.6590  139.7770 O   0  0  0  0  0  0  0  0  0  0  0  0
  186.0950  178.2160  139.5160 C   0  0  0  0  0  0  0  0  0  0  0  0
  190.5900  176.9440  140.6810 C   0  0  0  0  0  0  0  0  0  0  0  0
  189.0680  176.2240  144.6070 O   0  0  0  0  0  0  0  0  0  0  0  0
  186.2150  177.2960  136.8550 C   0  0  0  0  0  3  0  0  0  0  0  0
  184.9600  178.3280  138.6640 C   0  0  0  0  0  0  0  0  0  0  0  0
  181.1700  179.9490  139.8800 C   0  0  0  0  0  3  0  0  0  0  0  0
  182.0470  180.7130  139.1060 C   0  0  0  0  0  3  0  0  0  0  0  0
  182.7580  178.1260  139.8730 C   0  0  0  0  0  3  0  0  0  0  0  0
  183.6560  178.8880  139.1100 C   0  0  0  0  0  0  0  0  0  0  0  0
  181.5200  178.6490  140.2670 C   0  0  0  0  0  0  0  0  0  0  0  0
  183.2810  180.1840  138.7210 C   0  0  0  0  0  3  0  0  0  0  0  0
  180.2400  178.2550  142.3560 O   0  0  0  0  0  1  0  0  0  0  0  0
  180.1350  176.7560  140.6300 O   0  0  0  0  0  0  0  0  0  0  0  0
  180.6020  177.8360  141.0800 C   0  0  0  0  0  0  0  0  0  0  0  0
  186.9970  177.1260  147.7930 C   0  0  0  0  0  2  0  0  0  0  0  0
  186.4910  177.1620  146.3710 C   0  0  0  0  0  2  0  0  0  0  0  0
  188.4460  177.5630  147.7190 C   0  0  2  0  0  3  0  0  0  0  0  0
  188.7750  178.3050  148.8510 O   0  0  0  0  0  1  0  0  0  0  0  0
  188.5780  178.4270  146.4770 C   0  0  0  0  0  2  0  0  0  0  0  0
  187.2790  178.2710  145.7030 C   0  0  1  0  0  3  0  0  0  0  0  0
  191.4360  176.7400  137.8750 C   0  0  0  0  0  0  0  0  0  0  0  0
  193.6570  177.0950  137.2890 O   0  0  0  0  0  1  0  0  0  0  0  0
  190.2760  177.2350  138.2070 C   0  0  0  0  0  3  0  0  0  0  0  0
  192.5950  176.2380  137.5470 C   0  0  0  0  0  0  0  0  0  0  0  0
  194.1110  174.2610  137.2870 N   0  0  0  0  0  2  0  0  0  0  0  0
  191.8030  173.9990  137.5150 O   0  0  0  0  0  0  0  0  0  0  0  0
  192.7910  174.7830  137.4540 C   0  0  0  0  0  0  0  0  0  0  0  0
  194.3900  172.8310  137.2130 C   0  0  1  0  0  3  0  0  0  0  0  0
  195.6900  171.7290  135.3760 C   0  0  0  0  0  1  0  0  0  0  0  0
  193.2380  171.3410  135.5120 C   0  0  0  0  0  1  0  0  0  0  0  0
  194.3580  172.3400  135.7620 C   0  0  0  0  0  3  0  0  0  0  0  0
  195.7310  172.5240  137.8710 C   0  0  0  0  0  2  0  0  0  0  0  0
  196.4280  174.0240  138.6280 S   0  0  0  0  0  0  0  0  0  0  0  0
  197.9420  175.6220  137.1780 O   0  0  0  0  0  1  0  0  0  0  0  0
  198.8730  173.4720  137.5630 C   0  0  0  0  0  1  0  0  0  0  0  0
  197.6190  174.2680  137.2780 C   0  0  1  0  0  3  0  0  0  0  0  0
  1  8  2  0  0  0  0
  2  3  1  0  0  0  0
  2 17  2  0  0  0  0
  4 19  1  0  0  0  0
  5 15  1  0  0  0  0
  5 14  1  0  0  0  0
  6  2  1  0  0  0  0
  7  6  1  0  0  0  0
  8  9  1  0  0  0  0
  9 13  1  0  0  0  0
  9  3  2  0  0  0  0
 11 37  1  6  0  0  0
 11 14  1  0  0  0  0
 11 16  1  0  0  0  0
 12  5  2  0  0  0  0
 15  1  1  0  0  0  0
 16 10  2  0  0  0  0
 16  7  1  0  0  0  0
 18  4  2  0  0  0  0
 18 12  1  0  0  0  0
 19 23  1  0  0  0  0
 19 15  2  0  0  0  0
 20 24  1  0  0  0  0
 21 20  2  0  0  0  0
 22 24  2  0  0  0  0
 23 22  1  0  0  0  0
 24 28  1  0  0  0  0
 25 21  1  0  0  0  0
 25 23  2  0  0  0  0
 27 28  2  0  0  0  0
 28 26  1  0  0  0  0
 30 29  1  0  0  0  0
 31 29  1  0  0  0  0
 31 32  1  1  0  0  0
 33 31  1  0  0  0  0
 34  3  1  6  0  0  0
 34 30  1  0  0  0  0
 34 33  1  0  0  0  0
 35 37  2  0  0  0  0
 36 38  1  0  0  0  0
 38 35  2  0  0  0  0
 39 41  1  0  0  0  0
 41 40  2  0  0  0  0
 41 38  1  0  0  0  0
 42 39  1  0  0  0  0
 42 46  1  6  0  0  0
 43 45  1  0  0  0  0
 44 45  1  0  0  0  0
 45 42  1  0  0  0  0
 46 47  1  0  0  0  0
 48 50  1  0  0  0  0
 50 49  1  1  0  0  0
 50 47  1  0  0  0  0
M  END
>  <MODEL>
5

>  <REMARK>
 VINA RESULT:      -7.7      3.981     10.722
  Name = 
  10 active torsions:
  status: ('A' for Active; 'I' for Inactive)
    1  A    between atoms: N_3  and  C_13
    2  A    between atoms: C_9  and  C_50
    3  A    between atoms: C_13  and  C_27
    4  A    between atoms: C_13  and  C_45
    5  A    between atoms: C_20  and  C_24
    6  A    between atoms: C_27  and  S_39
    7  A    between atoms: C_30  and  C_49
    8  A    between atoms: C_35  and  C_40
    9  A    between atoms: C_36  and  C_37
   10  A    between atoms: S_39  and  C_48
                            x       y       z     vdW  Elec       q    Type
                         _______ _______ _______ _____ _____    ______ ____

>  <TORSDO>
F 10

$$$$
=
 OpenBabel10222419513D

 50 53  0  0  1  0  0  0  0  0999 V2000
  188.5230  177.7080  141.8440 C   0  0  0  0  0  3  0  0  0  0  0  0
  188.8570  176.4150  137.8490 C   0  0  0  0  0  0  0  0  0  0  0  0
  190.0720  176.5310  138.7040 C   0  0  0  0  0  0  0  0  0  0  0  0
  185.7760  178.0600  144.4310 C   0  0  0  0  0  3  0  0  0  0  0  0
  186.0410  178.1870  141.6430 C   0  0  0  0  0  0  0  0  0  0  0  0
  187.7940  177.2960  138.0460 O   0  0  0  0  0  0  0  0  0  0  0  0
  186.5120  177.1260  137.4660 C   0  0  0  0  0  2  0  0  0  0  0  0
  188.6890  177.2810  140.5970 C   0  0  0  0  0  3  0  0  0  0  0  0
  189.9970  176.9900  139.9770 C   0  0  0  0  0  0  0  0  0  0  0  0
  185.7620  179.4080  137.2160 C   0  0  0  0  0  2  0  0  0  0  0  0
  185.0940  178.2530  139.3090 C   0  0  2  0  0  3  0  0  0  0  0  0
  184.7850  178.3080  142.2530 C   0  0  0  0  0  3  0  0  0  0  0  0
  191.2360  177.1350  140.8120 C   0  0  0  0  0  1  0  0  0  0  0  0
  186.1690  178.3470  140.2510 O   0  0  0  0  0  0  0  0  0  0  0  0
  187.1900  177.9440  142.4480 C   0  0  0  0  0  0  0  0  0  0  0  0
  185.6470  178.2650  137.8980 C   0  0  0  0  0  0  0  0  0  0  0  0
  188.7980  175.5470  136.9360 O   0  0  0  0  0  0  0  0  0  0  0  0
  184.6520  178.2480  143.6360 C   0  0  0  0  0  3  0  0  0  0  0  0
  187.0490  177.9030  143.8640 C   0  0  0  0  0  0  0  0  0  0  0  0
  190.3760  177.2800  146.5120 C   0  0  0  0  0  3  0  0  0  0  0  0
  190.5030  177.0130  145.1470 C   0  0  0  0  0  3  0  0  0  0  0  0
  188.0790  177.9480  146.1640 C   0  0  0  0  0  3  0  0  0  0  0  0
  188.1870  177.6680  144.7930 C   0  0  0  0  0  0  0  0  0  0  0  0
  189.1620  177.7500  147.0290 C   0  0  0  0  0  0  0  0  0  0  0  0
  189.4160  177.2100  144.2920 C   0  0  0  0  0  3  0  0  0  0  0  0
  187.7590  178.0630  149.0510 O   0  0  0  0  0  0  0  0  0  0  0  0
  190.0350  178.2530  149.1780 O   0  0  0  0  0  1  0  0  0  0  0  0
  189.0190  178.0350  148.4650 C   0  0  0  0  0  0  0  0  0  0  0  0
  192.4010  174.4090  136.7660 C   0  0  0  0  0  2  0  0  0  0  0  0
  191.4900  174.6010  137.9560 C   0  0  0  0  0  2  0  0  0  0  0  0
  192.1850  175.6270  135.8910 C   0  0  2  0  0  3  0  0  0  0  0  0
  193.3850  175.9890  135.2790 O   0  0  0  0  0  1  0  0  0  0  0  0
  191.7150  176.7440  136.8060 C   0  0  0  0  0  2  0  0  0  0  0  0
  191.4090  176.1020  138.1490 C   0  0  1  0  0  3  0  0  0  0  0  0
  183.0160  179.4110  138.7660 C   0  0  0  0  0  0  0  0  0  0  0  0
  181.7270  180.6590  137.2890 O   0  0  0  0  0  1  0  0  0  0  0  0
  184.0660  179.3270  139.5350 C   0  0  0  0  0  3  0  0  0  0  0  0
  181.9660  179.4870  137.9950 C   0  0  0  0  0  0  0  0  0  0  0  0
  181.5630  177.0210  137.8200 N   0  0  0  0  0  2  0  0  0  0  0  0
  179.7970  178.5450  137.7790 O   0  0  0  0  0  0  0  0  0  0  0  0
  181.0420  178.3510  137.8610 C   0  0  0  0  0  0  0  0  0  0  0  0
  180.7110  175.8420  137.7150 C   0  0  1  0  0  3  0  0  0  0  0  0
  181.3500  174.2140  135.9210 C   0  0  0  0  0  1  0  0  0  0  0  0
  183.0170  174.7820  137.6760 C   0  0  0  0  0  1  0  0  0  0  0  0
  181.5370  174.5970  137.3760 C   0  0  0  0  0  3  0  0  0  0  0  0
  179.9220  175.6480  139.0060 C   0  0  0  0  0  2  0  0  0  0  0  0
  179.6190  173.8810  139.3090 S   0  0  0  0  0  0  0  0  0  0  0  0
  179.6690  173.3310  141.8860 O   0  0  0  0  0  1  0  0  0  0  0  0
  179.2700  175.6150  141.3790 C   0  0  0  0  0  1  0  0  0  0  0  0
  179.0090  174.1760  140.9940 C   0  0  1  0  0  3  0  0  0  0  0  0
  1 15  1  0  0  0  0
  2  6  1  0  0  0  0
  2  3  1  0  0  0  0
  3  9  2  0  0  0  0
  5 12  2  0  0  0  0
  5 15  1  0  0  0  0
  7 16  1  0  0  0  0
  7  6  1  0  0  0  0
  8  1  2  0  0  0  0
  9  8  1  0  0  0  0
  9 13  1  0  0  0  0
 10 16  2  0  0  0  0
 11 37  1  6  0  0  0
 11 14  1  0  0  0  0
 12 18  1  0  0  0  0
 14  5  1  0  0  0  0
 15 19  2  0  0  0  0
 16 11  1  0  0  0  0
 17  2  2  0  0  0  0
 18  4  2  0  0  0  0
 19  4  1  0  0  0  0
 19 23  1  0  0  0  0
 20 24  1  0  0  0  0
 21 20  2  0  0  0  0
 22 24  2  0  0  0  0
 23 22  1  0  0  0  0
 24 28  1  0  0  0  0
 25 23  2  0  0  0  0
 25 21  1  0  0  0  0
 28 26  2  0  0  0  0
 28 27  1  0  0  0  0
 29 30  1  0  0  0  0
 30 34  1  0  0  0  0
 31 32  1  1  0  0  0
 31 29  1  0  0  0  0
 31 33  1  0  0  0  0
 33 34  1  0  0  0  0
 34  3  1  6  0  0  0
 35 37  2  0  0  0  0
 36 38  1  0  0  0  0
 38 35  2  0  0  0  0
 39 41  1  0  0  0  0
 40 41  2  0  0  0  0
 41 38  1  0  0  0  0
 42 39  1  0  0  0  0
 42 46  1  1  0  0  0
 43 45  1  0  0  0  0
 45 44  1  0  0  0  0
 45 42  1  0  0  0  0
 46 47  1  0  0  0  0
 47 50  1  0  0  0  0
 50 49  1  1  0  0  0
 50 48  1  0  0  0  0
M  END
>  <MODEL>
6

>  <REMARK>
 VINA RESULT:      -7.7      1.860      2.363
  Name = 
  10 active torsions:
  status: ('A' for Active; 'I' for Inactive)
    1  A    between atoms: N_3  and  C_13
    2  A    between atoms: C_9  and  C_50
    3  A    between atoms: C_13  and  C_27
    4  A    between atoms: C_13  and  C_45
    5  A    between atoms: C_20  and  C_24
    6  A    between atoms: C_27  and  S_39
    7  A    between atoms: C_30  and  C_49
    8  A    between atoms: C_35  and  C_40
    9  A    between atoms: C_36  and  C_37
   10  A    between atoms: S_39  and  C_48
                            x       y       z     vdW  Elec       q    Type
                         _______ _______ _______ _____ _____    ______ ____

>  <TORSDO>
F 10

$$$$
=
 OpenBabel10222419513D

 50 53  0  0  1  0  0  0  0  0999 V2000
  188.4660  177.1570  139.9190 C   0  0  0  0  0  3  0  0  0  0  0  0
  186.3600  178.3300  143.3730 C   0  0  0  0  0  0  0  0  0  0  0  0
  187.5340  177.4190  143.4830 C   0  0  0  0  0  0  0  0  0  0  0  0
  188.7870  178.3250  136.3280 C   0  0  0  0  0  3  0  0  0  0  0  0
  186.8450  178.3150  138.3500 C   0  0  0  0  0  0  0  0  0  0  0  0
  185.5490  178.2680  142.2390 O   0  0  0  0  0  0  0  0  0  0  0  0
  184.5660  179.2380  141.9210 C   0  0  0  0  0  2  0  0  0  0  0  0
  187.8510  177.5030  141.0440 C   0  0  0  0  0  3  0  0  0  0  0  0
  188.1990  176.9890  142.3830 C   0  0  0  0  0  0  0  0  0  0  0  0
  182.9270  177.9240  140.7300 C   0  0  0  0  0  2  0  0  0  0  0  0
  184.6510  179.0520  139.3450 C   0  0  2  0  0  3  0  0  0  0  0  0
  186.5970  178.9320  137.1160 C   0  0  0  0  0  3  0  0  0  0  0  0
  189.3570  176.0430  142.5100 C   0  0  0  0  0  1  0  0  0  0  0  0
  185.8280  178.2370  139.3190 O   0  0  0  0  0  0  0  0  0  0  0  0
  188.1200  177.7320  138.5970 C   0  0  0  0  0  0  0  0  0  0  0  0
  183.9030  178.8320  140.6450 C   0  0  0  0  0  0  0  0  0  0  0  0
  186.0810  179.1300  144.3070 O   0  0  0  0  0  0  0  0  0  0  0  0
  187.5570  178.9370  136.1120 C   0  0  0  0  0  3  0  0  0  0  0  0
  189.0920  177.7220  137.5560 C   0  0  0  0  0  0  0  0  0  0  0  0
  193.0310  176.0470  137.9400 C   0  0  0  0  0  3  0  0  0  0  0  0
  192.2810  175.8250  136.7820 C   0  0  0  0  0  3  0  0  0  0  0  0
  191.2180  177.3560  138.8580 C   0  0  0  0  0  3  0  0  0  0  0  0
  190.4470  177.1280  137.7090 C   0  0  0  0  0  0  0  0  0  0  0  0
  192.5040  176.8160  138.9850 C   0  0  0  0  0  0  0  0  0  0  0  0
  190.9980  176.3660  136.6660 C   0  0  0  0  0  3  0  0  0  0  0  0
  192.6580  177.5010  141.3650 O   0  0  0  0  0  1  0  0  0  0  0  0
  194.5310  176.8590  140.2180 O   0  0  0  0  0  0  0  0  0  0  0  0
  193.2870  177.0560  140.2070 C   0  0  0  0  0  0  0  0  0  0  0  0
  189.1210  177.8490  146.7970 C   0  0  0  0  0  2  0  0  0  0  0  0
  189.2380  177.7580  145.2940 C   0  0  0  0  0  2  0  0  0  0  0  0
  187.6340  177.8790  147.0860 C   0  0  2  0  0  3  0  0  0  0  0  0
  187.3680  177.1960  148.2710 O   0  0  0  0  0  1  0  0  0  0  0  0
  186.9490  177.1830  145.9230 C   0  0  0  0  0  2  0  0  0  0  0  0
  188.0090  176.9900  144.8510 C   0  0  1  0  0  3  0  0  0  0  0  0
  183.5630  177.6040  137.7100 C   0  0  0  0  0  0  0  0  0  0  0  0
  183.6930  176.0420  135.9930 O   0  0  0  0  0  1  0  0  0  0  0  0
  183.7880  178.8160  138.1360 C   0  0  0  0  0  3  0  0  0  0  0  0
  183.3390  176.3880  137.2910 C   0  0  0  0  0  0  0  0  0  0  0  0
  181.3160  175.4280  138.4130 N   0  0  0  0  0  2  0  0  0  0  0  0
  183.4320  174.4940  138.7190 O   0  0  0  0  0  0  0  0  0  0  0  0
  182.7240  175.3850  138.1730 C   0  0  0  0  0  0  0  0  0  0  0  0
  180.6280  174.4540  139.2530 C   0  0  1  0  0  3  0  0  0  0  0  0
  179.2460  174.3760  141.3420 C   0  0  0  0  0  1  0  0  0  0  0  0
  179.7590  176.5850  140.3230 C   0  0  0  0  0  1  0  0  0  0  0  0
  179.4920  175.1140  140.0410 C   0  0  0  0  0  3  0  0  0  0  0  0
  180.1130  173.2980  138.4020 C   0  0  0  0  0  2  0  0  0  0  0  0
  179.4630  173.9120  136.8190 S   0  0  0  0  0  0  0  0  0  0  0  0
  181.6790  173.3800  135.4930 O   0  0  0  0  0  1  0  0  0  0  0  0
  180.7730  171.5290  136.6710 C   0  0  0  0  0  1  0  0  0  0  0  0
  180.4790  172.7620  135.8460 C   0  0  1  0  0  3  0  0  0  0  0  0
  1  8  2  0  0  0  0
  2  3  1  0  0  0  0
  2 17  2  0  0  0  0
  4 19  1  0  0  0  0
  5 15  1  0  0  0  0
  5 14  1  0  0  0  0
  6  2  1  0  0  0  0
  7  6  1  0  0  0  0
  8  9  1  0  0  0  0
  9 13  1  0  0  0  0
  9  3  2  0  0  0  0
 11 37  1  6  0  0  0
 11 16  1  0  0  0  0
 12  5  2  0  0  0  0
 14 11  1  0  0  0  0
 15  1  1  0  0  0  0
 16 10  2  0  0  0  0
 16  7  1  0  0  0  0
 18  4  2  0  0  0  0
 18 12  1  0  0  0  0
 19 23  1  0  0  0  0
 19 15  2  0  0  0  0
 20 24  1  0  0  0  0
 21 20  2  0  0  0  0
 22 24  2  0  0  0  0
 23 22  1  0  0  0  0
 24 28  1  0  0  0  0
 25 21  1  0  0  0  0
 25 23  2  0  0  0  0
 28 27  2  0  0  0  0
 28 26  1  0  0  0  0
 29 31  1  0  0  0  0
 30 29  1  0  0  0  0
 31 32  1  1  0  0  0
 33 31  1  0  0  0  0
 34  3  1  6  0  0  0
 34 30  1  0  0  0  0
 34 33  1  0  0  0  0
 35 37  2  0  0  0  0
 36 38  1  0  0  0  0
 38 35  2  0  0  0  0
 38 41  1  0  0  0  0
 39 42  1  0  0  0  0
 41 39  1  0  0  0  0
 41 40  2  0  0  0  0
 42 46  1  6  0  0  0
 42 45  1  0  0  0  0
 45 44  1  0  0  0  0
 45 43  1  0  0  0  0
 47 46  1  0  0  0  0
 48 50  1  0  0  0  0
 50 49  1  1  0  0  0
 50 47  1  0  0  0  0
M  END
>  <MODEL>
7

>  <REMARK>
 VINA RESULT:      -7.0      2.453      6.596
  Name = 
  10 active torsions:
  status: ('A' for Active; 'I' for Inactive)
    1  A    between atoms: N_3  and  C_13
    2  A    between atoms: C_9  and  C_50
    3  A    between atoms: C_13  and  C_27
    4  A    between atoms: C_13  and  C_45
    5  A    between atoms: C_20  and  C_24
    6  A    between atoms: C_27  and  S_39
    7  A    between atoms: C_30  and  C_49
    8  A    between atoms: C_35  and  C_40
    9  A    between atoms: C_36  and  C_37
   10  A    between atoms: S_39  and  C_48
                            x       y       z     vdW  Elec       q    Type
                         _______ _______ _______ _____ _____    ______ ____

>  <TORSDO>
F 10

$$$$
=
 OpenBabel10222419513D

 50 53  0  0  1  0  0  0  0  0999 V2000
  188.5280  177.0520  138.8770 C   0  0  0  0  0  3  0  0  0  0  0  0
  186.1230  178.9460  141.7710 C   0  0  0  0  0  0  0  0  0  0  0  0
  187.3990  178.2870  142.1700 C   0  0  0  0  0  0  0  0  0  0  0  0
  188.8670  177.0680  135.1020 C   0  0  0  0  0  3  0  0  0  0  0  0
  186.8480  177.4250  137.0140 C   0  0  0  0  0  0  0  0  0  0  0  0
  185.3830  178.4210  140.7110 O   0  0  0  0  0  0  0  0  0  0  0  0
  184.2990  179.0970  140.0970 C   0  0  0  0  0  2  0  0  0  0  0  0
  187.8200  177.6450  139.8310 C   0  0  0  0  0  3  0  0  0  0  0  0
  188.1660  177.6280  141.2660 C   0  0  0  0  0  0  0  0  0  0  0  0
  182.9030  177.2630  139.3770 C   0  0  0  0  0  2  0  0  0  0  0  0
  184.5310  178.1270  137.7140 C   0  0  2  0  0  3  0  0  0  0  0  0
  186.5810  177.5840  135.6470 C   0  0  0  0  0  3  0  0  0  0  0  0
  189.4290  176.9390  141.6920 C   0  0  0  0  0  1  0  0  0  0  0  0
  185.8030  177.5150  137.9530 O   0  0  0  0  0  0  0  0  0  0  0  0
  188.1740  177.1300  137.4390 C   0  0  0  0  0  0  0  0  0  0  0  0
  183.7570  178.2240  139.0130 C   0  0  0  0  0  0  0  0  0  0  0  0
  185.6990  179.9520  142.4020 O   0  0  0  0  0  0  0  0  0  0  0  0
  187.5800  177.4060  134.6970 C   0  0  0  0  0  3  0  0  0  0  0  0
  189.1880  176.9290  136.4600 C   0  0  0  0  0  0  0  0  0  0  0  0
  193.2890  176.0380  137.3860 C   0  0  0  0  0  3  0  0  0  0  0  0
  192.7510  175.6750  136.1480 C   0  0  0  0  0  3  0  0  0  0  0  0
  191.1570  176.9780  138.0310 C   0  0  0  0  0  3  0  0  0  0  0  0
  190.5990  176.6040  136.7990 C   0  0  0  0  0  0  0  0  0  0  0  0
  192.4940  176.6930  138.3350 C   0  0  0  0  0  0  0  0  0  0  0  0
  191.4150  175.9600  135.8560 C   0  0  0  0  0  3  0  0  0  0  0  0
  194.3620  176.7500  139.9670 O   0  0  0  0  0  0  0  0  0  0  0  0
  192.3500  177.7150  140.4720 O   0  0  0  0  0  1  0  0  0  0  0  0
  193.0520  177.0800  139.6400 C   0  0  0  0  0  0  0  0  0  0  0  0
  187.8930  177.1030  145.6390 C   0  0  0  0  0  2  0  0  0  0  0  0
  186.9740  177.5770  144.5380 C   0  0  0  0  0  2  0  0  0  0  0  0
  189.2510  176.9340  144.9880 C   0  0  2  0  0  3  0  0  0  0  0  0
  190.2550  177.2820  145.8900 O   0  0  0  0  0  1  0  0  0  0  0  0
  189.2810  177.8710  143.7930 C   0  0  0  0  0  2  0  0  0  0  0  0
  187.8600  178.3770  143.6050 C   0  0  1  0  0  3  0  0  0  0  0  0
  182.4670  177.5070  136.5700 C   0  0  0  0  0  0  0  0  0  0  0  0
  180.3870  176.4670  136.5780 O   0  0  0  0  0  1  0  0  0  0  0  0
  183.7650  177.4070  136.6380 C   0  0  0  0  0  3  0  0  0  0  0  0
  181.1680  177.6140  136.5060 C   0  0  0  0  0  0  0  0  0  0  0  0
  180.4840  179.8170  137.4820 N   0  0  0  0  0  2  0  0  0  0  0  0
  180.0040  179.2710  135.2650 O   0  0  0  0  0  0  0  0  0  0  0  0
  180.5230  178.9290  136.3630 C   0  0  0  0  0  0  0  0  0  0  0  0
  179.8870  181.1470  137.4140 C   0  0  1  0  0  3  0  0  0  0  0  0
  180.0140  181.0220  139.9130 C   0  0  0  0  0  1  0  0  0  0  0  0
  178.9330  182.9980  138.8630 C   0  0  0  0  0  1  0  0  0  0  0  0
  179.1950  181.5060  138.7330 C   0  0  0  0  0  3  0  0  0  0  0  0
  180.9470  182.1790  137.0450 C   0  0  0  0  0  2  0  0  0  0  0  0
  180.5760  182.9230  135.4270 S   0  0  0  0  0  0  0  0  0  0  0  0
  179.7280  185.2770  136.2570 O   0  0  0  0  0  1  0  0  0  0  0  0
  181.7320  184.5370  137.2920 C   0  0  0  0  0  1  0  0  0  0  0  0
  180.9270  184.6070  136.0130 C   0  0  1  0  0  3  0  0  0  0  0  0
  1  8  2  0  0  0  0
  2  3  1  0  0  0  0
  2 17  2  0  0  0  0
  4 19  1  0  0  0  0
  5 15  1  0  0  0  0
  5 14  1  0  0  0  0
  6  2  1  0  0  0  0
  7  6  1  0  0  0  0
  8  9  1  0  0  0  0
  9 13  1  0  0  0  0
  9  3  2  0  0  0  0
 11 37  1  6  0  0  0
 11 14  1  0  0  0  0
 11 16  1  0  0  0  0
 12  5  2  0  0  0  0
 15  1  1  0  0  0  0
 16 10  2  0  0  0  0
 16  7  1  0  0  0  0
 18  4  2  0  0  0  0
 18 12  1  0  0  0  0
 19 23  1  0  0  0  0
 19 15  2  0  0  0  0
 20 24  1  0  0  0  0
 21 20  2  0  0  0  0
 22 24  2  0  0  0  0
 23 22  1  0  0  0  0
 24 28  1  0  0  0  0
 25 21  1  0  0  0  0
 25 23  2  0  0  0  0
 28 26  2  0  0  0  0
 28 27  1  0  0  0  0
 30 29  1  0  0  0  0
 31 29  1  0  0  0  0
 31 32  1  1  0  0  0
 33 31  1  0  0  0  0
 34  3  1  6  0  0  0
 34 33  1  0  0  0  0
 34 30  1  0  0  0  0
 35 37  2  0  0  0  0
 38 35  2  0  0  0  0
 38 36  1  0  0  0  0
 40 41  2  0  0  0  0
 41 38  1  0  0  0  0
 41 39  1  0  0  0  0
 42 46  1  1  0  0  0
 42 39  1  0  0  0  0
 42 45  1  0  0  0  0
 45 44  1  0  0  0  0
 45 43  1  0  0  0  0
 47 50  1  0  0  0  0
 47 46  1  0  0  0  0
 50 48  1  0  0  0  0
 50 49  1  1  0  0  0
M  END
>  <MODEL>
8

>  <REMARK>
 VINA RESULT:      -6.9      2.622      6.661
  Name = 
  10 active torsions:
  status: ('A' for Active; 'I' for Inactive)
    1  A    between atoms: N_3  and  C_13
    2  A    between atoms: C_9  and  C_50
    3  A    between atoms: C_13  and  C_27
    4  A    between atoms: C_13  and  C_45
    5  A    between atoms: C_20  and  C_24
    6  A    between atoms: C_27  and  S_39
    7  A    between atoms: C_30  and  C_49
    8  A    between atoms: C_35  and  C_40
    9  A    between atoms: C_36  and  C_37
   10  A    between atoms: S_39  and  C_48
                            x       y       z     vdW  Elec       q    Type
                         _______ _______ _______ _____ _____    ______ ____

>  <TORSDO>
F 10

$$$$
=
 OpenBabel10222419513D

 50 53  0  0  1  0  0  0  0  0999 V2000
  188.6800  177.1470  140.2540 C   0  0  0  0  0  3  0  0  0  0  0  0
  186.0810  178.1320  143.4190 C   0  0  0  0  0  0  0  0  0  0  0  0
  187.3610  177.4200  143.6930 C   0  0  0  0  0  0  0  0  0  0  0  0
  189.1870  178.1910  136.6460 C   0  0  0  0  0  3  0  0  0  0  0  0
  187.0730  177.9700  138.4740 C   0  0  0  0  0  0  0  0  0  0  0  0
  185.4090  177.8960  142.2200 O   0  0  0  0  0  0  0  0  0  0  0  0
  184.3290  178.6870  141.7530 C   0  0  0  0  0  2  0  0  0  0  0  0
  187.9090  177.4440  141.2940 C   0  0  0  0  0  3  0  0  0  0  0  0
  188.1910  177.0490  142.6880 C   0  0  0  0  0  0  0  0  0  0  0  0
  183.0350  177.0830  140.4940 C   0  0  0  0  0  2  0  0  0  0  0  0
  184.7030  178.4020  139.2120 C   0  0  2  0  0  3  0  0  0  0  0  0
  186.8620  178.4860  137.1880 C   0  0  0  0  0  3  0  0  0  0  0  0
  189.4590  176.3000  142.9790 C   0  0  0  0  0  1  0  0  0  0  0  0
  185.9850  177.7780  139.3460 O   0  0  0  0  0  0  0  0  0  0  0  0
  188.3880  177.6020  138.8730 C   0  0  0  0  0  0  0  0  0  0  0  0
  183.8690  178.1260  140.4470 C   0  0  0  0  0  0  0  0  0  0  0  0
  185.5920  178.9200  144.2730 O   0  0  0  0  0  0  0  0  0  0  0  0
  187.9080  178.5940  136.2790 C   0  0  0  0  0  3  0  0  0  0  0  0
  189.4520  177.6970  137.9310 C   0  0  0  0  0  0  0  0  0  0  0  0
  193.4890  176.5740  138.8850 C   0  0  0  0  0  3  0  0  0  0  0  0
  192.6620  177.1290  139.8650 C   0  0  0  0  0  3  0  0  0  0  0  0
  191.6940  176.7530  137.2750 C   0  0  0  0  0  3  0  0  0  0  0  0
  190.8580  177.3270  138.2450 C   0  0  0  0  0  0  0  0  0  0  0  0
  193.0090  176.3820  137.5830 C   0  0  0  0  0  0  0  0  0  0  0  0
  191.3530  177.5000  139.5470 C   0  0  0  0  0  3  0  0  0  0  0  0
  195.0610  175.1670  136.8960 O   0  0  0  0  0  1  0  0  0  0  0  0
  193.5420  175.8570  135.3310 O   0  0  0  0  0  0  0  0  0  0  0  0
  193.8720  175.7960  136.5450 C   0  0  0  0  0  0  0  0  0  0  0  0
  188.8330  178.1520  147.0070 C   0  0  0  0  0  2  0  0  0  0  0  0
  189.0060  177.8770  145.5320 C   0  0  0  0  0  2  0  0  0  0  0  0
  187.3390  178.2970  147.2190 C   0  0  2  0  0  3  0  0  0  0  0  0
  186.9850  177.7740  148.4610 O   0  0  0  0  0  1  0  0  0  0  0  0
  186.6630  177.5060  146.1130 C   0  0  0  0  0  2  0  0  0  0  0  0
  187.7530  177.1300  145.1220 C   0  0  1  0  0  3  0  0  0  0  0  0
  182.7340  177.7260  137.9390 C   0  0  0  0  0  0  0  0  0  0  0  0
  181.0070  176.2220  137.5380 O   0  0  0  0  0  1  0  0  0  0  0  0
  184.0130  177.9820  137.9440 C   0  0  0  0  0  3  0  0  0  0  0  0
  181.4540  177.4740  137.9410 C   0  0  0  0  0  0  0  0  0  0  0  0
  180.3630  178.8140  139.7550 N   0  0  0  0  0  2  0  0  0  0  0  0
  179.7560  179.0800  137.5180 O   0  0  0  0  0  0  0  0  0  0  0  0
  180.4830  178.4940  138.3670 C   0  0  0  0  0  0  0  0  0  0  0  0
  179.4440  179.8310  140.2540 C   0  0  1  0  0  3  0  0  0  0  0  0
  179.3750  178.1150  142.0780 C   0  0  0  0  0  1  0  0  0  0  0  0
  179.7220  180.5010  142.6860 C   0  0  0  0  0  1  0  0  0  0  0  0
  179.0510  179.5490  141.7080 C   0  0  0  0  0  3  0  0  0  0  0  0
  180.0640  181.2160  140.1070 C   0  0  0  0  0  2  0  0  0  0  0  0
  178.9880  182.2940  139.1120 S   0  0  0  0  0  0  0  0  0  0  0  0
  180.3310  183.8570  137.4680 O   0  0  0  0  0  1  0  0  0  0  0  0
  181.5820  182.0300  138.3250 C   0  0  0  0  0  1  0  0  0  0  0  0
  180.2410  182.5080  137.8140 C   0  0  1  0  0  3  0  0  0  0  0  0
  1  8  2  0  0  0  0
  2  3  1  0  0  0  0
  2 17  2  0  0  0  0
  4 19  1  0  0  0  0
  5 15  1  0  0  0  0
  5 14  1  0  0  0  0
  6  2  1  0  0  0  0
  7  6  1  0  0  0  0
  8  9  1  0  0  0  0
  9 13  1  0  0  0  0
  9  3  2  0  0  0  0
 11 37  1  6  0  0  0
 11 14  1  0  0  0  0
 11 16  1  0  0  0  0
 12  5  2  0  0  0  0
 15  1  1  0  0  0  0
 16 10  2  0  0  0  0
 16  7  1  0  0  0  0
 18  4  2  0  0  0  0
 18 12  1  0  0  0  0
 19 23  1  0  0  0  0
 19 15  2  0  0  0  0
 20 21  1  0  0  0  0
 22 24  1  0  0  0  0
 22 23  2  0  0  0  0
 23 25  1  0  0  0  0
 24 20  2  0  0  0  0
 25 21  2  0  0  0  0
 27 28  2  0  0  0  0
 28 26  1  0  0  0  0
 28 24  1  0  0  0  0
 29 31  1  0  0  0  0
 30 29  1  0  0  0  0
 31 32  1  1  0  0  0
 33 31  1  0  0  0  0
 34  3  1  6  0  0  0
 34 30  1  0  0  0  0
 34 33  1  0  0  0  0
 35 38  2  0  0  0  0
 35 37  2  0  0  0  0
 36 38  1  0  0  0  0
 38 41  1  0  0  0  0
 39 42  1  0  0  0  0
 40 41  2  0  0  0  0
 41 39  1  0  0  0  0
 42 46  1  1  0  0  0
 42 45  1  0  0  0  0
 45 43  1  0  0  0  0
 45 44  1  0  0  0  0
 47 46  1  0  0  0  0
 48 50  1  0  0  0  0
 50 49  1  1  0  0  0
 50 47  1  0  0  0  0
M  END
>  <MODEL>
9

>  <REMARK>
 VINA RESULT:      -6.7      2.231      6.577
  Name = 
  10 active torsions:
  status: ('A' for Active; 'I' for Inactive)
    1  A    between atoms: N_3  and  C_13
    2  A    between atoms: C_9  and  C_50
    3  A    between atoms: C_13  and  C_27
    4  A    between atoms: C_13  and  C_45
    5  A    between atoms: C_20  and  C_24
    6  A    between atoms: C_27  and  S_39
    7  A    between atoms: C_30  and  C_49
    8  A    between atoms: C_35  and  C_40
    9  A    between atoms: C_36  and  C_37
   10  A    between atoms: S_39  and  C_48
                            x       y       z     vdW  Elec       q    Type
                         _______ _______ _______ _____ _____    ______ ____

>  <TORSDO>
F 10

$$$$
