=
 OpenBabel10222418413D

 41 46  0  0  1  0  0  0  0  0999 V2000
  190.5170  177.3820  144.2950 C   0  0  0  0  0  3  0  0  0  0  0  0
  188.4480  177.4230  145.5650 C   0  0  0  0  0  0  0  0  0  0  0  0
  188.3700  177.6710  143.1430 C   0  0  0  0  0  0  0  0  0  0  0  0
  186.3530  177.6840  144.4820 C   0  0  0  0  0  3  0  0  0  0  0  0
  187.0950  177.5250  145.6060 N   0  0  0  0  0  0  0  0  0  0  0  0
  191.2180  177.1790  145.4830 C   0  0  0  0  0  3  0  0  0  0  0  0
  189.1940  177.2240  146.7440 C   0  0  0  0  0  0  0  0  0  0  0  0
  190.5510  177.1050  146.6650 N   0  0  0  0  0  0  0  0  0  0  0  0
  189.1200  177.4990  144.3230 C   0  0  0  0  0  0  0  0  0  0  0  0
  186.9670  177.7550  143.2300 C   0  0  0  0  0  0  0  0  0  0  0  0
  190.7320  176.8520  140.2550 C   0  0  0  0  0  2  0  0  0  0  0  0
  188.7370  177.2470  138.7880 C   0  0  0  0  0  3  0  0  0  0  0  0
  189.0500  177.7080  141.8340 C   0  0  0  0  0  0  0  0  0  0  0  0
  188.7210  178.7800  140.8470 C   0  0  0  0  0  2  0  0  0  0  0  0
  189.9700  176.7940  141.5420 C   0  0  0  0  0  3  0  0  0  0  0  0
  187.9530  178.1790  139.6800 C   0  0  0  0  0  2  0  0  0  0  0  0
  189.8920  176.6080  139.0280 C   0  0  0  0  0  0  0  0  0  0  0  0
  191.6630  175.8230  137.3420 C   0  0  0  0  0  0  0  0  0  0  0  0
  190.3830  175.7510  137.9880 N   0  0  0  0  0  2  0  0  0  0  0  0
  192.4990  176.7180  137.6390 O   0  0  0  0  0  0  0  0  0  0  0  0
  191.9880  174.8610  136.2570 C   0  0  0  0  0  2  0  0  0  0  0  0
  193.3990  175.1180  135.7580 C   0  0  0  0  0  2  0  0  0  0  0  0
  194.0570  173.5450  137.6690 C   0  0  0  0  0  2  0  0  0  0  0  0
  194.6380  173.0580  135.3560 O   0  0  0  0  0  1  0  0  0  0  0  0
  194.3800  174.0780  136.2800 C   0  0  0  0  0  0  0  0  0  0  0  0
  195.3460  174.1630  138.1750 C   0  0  0  0  0  0  0  0  0  0  0  0
  196.2720  173.2150  138.6160 O   0  0  0  0  0  1  0  0  0  0  0  0
  195.1390  175.1770  139.1100 O   0  0  0  0  0  1  0  0  0  0  0  0
  195.6640  174.7000  136.7950 C   0  0  0  0  0  2  0  0  0  0  0  0
  187.7690  178.4500  148.3830 C   0  0  0  0  0  2  0  0  0  0  0  0
  189.1240  178.2130  149.0110 C   0  0  0  0  0  2  0  0  0  0  0  0
  188.5270  177.1620  148.0900 C   0  0  0  0  0  3  0  0  0  0  0  0
  186.1050  177.9360  142.0210 C   0  0  0  0  0  2  0  0  0  0  0  0
  185.0290  178.9770  142.2760 C   0  0  0  0  0  2  0  0  0  0  0  0
  183.6460  178.4000  142.0340 C   0  0  0  0  0  2  0  0  0  0  0  0
  182.6770  178.8340  143.0830 C   0  0  0  0  0  0  0  0  0  0  0  0
  183.4700  179.1670  145.4700 O   0  0  0  0  0  0  0  0  0  0  0  0
  183.0870  179.0020  144.3110 C   0  0  0  0  0  0  0  0  0  0  0  0
  181.3480  179.3890  142.6670 C   0  0  1  0  0  3  0  0  0  0  0  0
  181.0850  179.0260  141.3300 O   0  0  0  0  0  0  0  0  0  0  0  0
  180.3960  178.3110  142.3210 C   0  0  0  0  0  2  0  0  0  0  0  0
  1  9  2  0  0  0  0
  1  6  1  0  0  0  0
  2  5  1  0  0  0  0
  2  7  2  0  0  0  0
  3 10  2  0  0  0  0
  3  9  1  0  0  0  0
  4  5  2  0  0  0  0
  6  8  2  0  0  0  0
  7 32  1  0  0  0  0
  8  7  1  0  0  0  0
  9  2  1  0  0  0  0
 10  4  1  0  0  0  0
 11 15  1  0  0  0  0
 12 17  2  0  0  0  0
 12 16  1  0  0  0  0
 13  3  1  0  0  0  0
 14 13  1  0  0  0  0
 15 13  2  0  0  0  0
 16 14  1  0  0  0  0
 17 11  1  0  0  0  0
 18 20  2  0  0  0  0
 18 19  1  0  0  0  0
 19 17  1  0  0  0  0
 21 18  1  0  0  0  0
 22 21  1  0  0  0  0
 22 25  1  0  0  0  0
 23 26  1  0  0  0  0
 24 25  1  0  0  0  0
 25 29  1  0  0  0  0
 25 23  1  0  0  0  0
 26 27  1  0  0  0  0
 26 28  1  0  0  0  0
 29 26  1  0  0  0  0
 30 31  1  0  0  0  0
 32 30  1  0  0  0  0
 32 31  1  0  0  0  0
 33 34  1  0  0  0  0
 33 10  1  0  0  0  0
 35 34  1  0  0  0  0
 35 36  1  0  0  0  0
 36 38  2  0  0  0  0
 38 37  2  0  0  0  0
 39 36  1  1  0  0  0
 40 41  1  0  0  0  0
 40 39  1  0  0  0  0
 41 39  1  0  0  0  0
M  END
>  <MODEL>
1

>  <REMARK>
 VINA RESULT:      -9.1      0.000      0.000
  Name = 
  11 active torsions:
  status: ('A' for Active; 'I' for Inactive)
    1  A    between atoms: C_1  and  C_27
    2  A    between atoms: C_2  and  C_6
    3  A    between atoms: C_2  and  C_39
    4  A    between atoms: C_4  and  C_33
    5  A    between atoms: C_6  and  C_8
    6  A    between atoms: N_7  and  C_38
    7  A    between atoms: C_8  and  C_27
    8  A    between atoms: C_10  and  C_31
    9  A    between atoms: C_15  and  C_17
   10  A    between atoms: C_22  and  C_30
   11  A    between atoms: C_31  and  C_33
                            x       y       z     vdW  Elec       q    Type
                         _______ _______ _______ _____ _____    ______ ____

>  <TORSDO>
F 11

$$$$
=
 OpenBabel10222418413D

 41 46  0  0  1  0  0  0  0  0999 V2000
  190.4510  177.2720  144.3160 C   0  0  0  0  0  3  0  0  0  0  0  0
  188.3000  177.4360  145.4290 C   0  0  0  0  0  0  0  0  0  0  0  0
  188.4130  177.6570  143.0050 C   0  0  0  0  0  0  0  0  0  0  0  0
  186.3070  177.7910  144.1910 C   0  0  0  0  0  3  0  0  0  0  0  0
  186.9550  177.6070  145.3690 N   0  0  0  0  0  0  0  0  0  0  0  0
  191.0520  177.0480  145.5540 C   0  0  0  0  0  3  0  0  0  0  0  0
  188.9460  177.2130  146.6610 C   0  0  0  0  0  0  0  0  0  0  0  0
  190.2970  177.0230  146.6830 N   0  0  0  0  0  0  0  0  0  0  0  0
  189.0640  177.4610  144.2390 C   0  0  0  0  0  0  0  0  0  0  0  0
  187.0140  177.8140  142.9880 C   0  0  0  0  0  0  0  0  0  0  0  0
  191.0050  176.7520  140.3490 C   0  0  0  0  0  2  0  0  0  0  0  0
  189.1170  177.0090  138.7190 C   0  0  0  0  0  3  0  0  0  0  0  0
  189.1880  177.6420  141.7500 C   0  0  0  0  0  0  0  0  0  0  0  0
  188.9080  178.6500  140.6820 C   0  0  0  0  0  2  0  0  0  0  0  0
  190.1500  176.7410  141.5780 C   0  0  0  0  0  3  0  0  0  0  0  0
  188.2450  177.9640  139.4980 C   0  0  0  0  0  2  0  0  0  0  0  0
  190.2660  176.4170  139.0790 C   0  0  0  0  0  0  0  0  0  0  0  0
  192.1210  175.6680  137.4700 C   0  0  0  0  0  0  0  0  0  0  0  0
  190.8540  175.5200  138.1280 N   0  0  0  0  0  2  0  0  0  0  0  0
  192.8500  176.6770  137.6690 O   0  0  0  0  0  0  0  0  0  0  0  0
  192.5570  174.6450  136.4860 C   0  0  0  0  0  2  0  0  0  0  0  0
  193.9720  174.9530  136.0270 C   0  0  0  0  0  2  0  0  0  0  0  0
  195.7150  174.3420  137.8020 C   0  0  0  0  0  2  0  0  0  0  0  0
  194.4260  172.6370  136.6360 O   0  0  0  0  0  1  0  0  0  0  0  0
  194.9690  173.9240  136.5420 C   0  0  0  0  0  0  0  0  0  0  0  0
  197.0060  174.3330  137.0060 C   0  0  0  0  0  0  0  0  0  0  0  0
  197.9110  173.3630  137.4410 O   0  0  0  0  0  1  0  0  0  0  0  0
  197.5910  175.5940  136.8970 O   0  0  0  0  0  1  0  0  0  0  0  0
  196.2630  173.9260  135.7510 C   0  0  0  0  0  2  0  0  0  0  0  0
  187.5880  178.5740  148.2500 C   0  0  0  0  0  2  0  0  0  0  0  0
  188.8480  178.1280  148.9580 C   0  0  0  0  0  2  0  0  0  0  0  0
  188.1790  177.2030  147.9540 C   0  0  0  0  0  3  0  0  0  0  0  0
  186.2540  178.0240  141.7160 C   0  0  0  0  0  2  0  0  0  0  0  0
  184.9670  178.7870  141.9770 C   0  0  0  0  0  2  0  0  0  0  0  0
  183.7650  178.0230  141.4500 C   0  0  0  0  0  2  0  0  0  0  0  0
  183.5510  178.2710  139.9930 C   0  0  0  0  0  0  0  0  0  0  0  0
  184.2340  180.4960  138.9810 O   0  0  0  0  0  0  0  0  0  0  0  0
  183.9010  179.4180  139.4760 C   0  0  0  0  0  0  0  0  0  0  0  0
  183.2570  177.1130  139.0890 C   0  0  1  0  0  3  0  0  0  0  0  0
  182.4310  176.1890  139.7620 O   0  0  0  0  0  0  0  0  0  0  0  0
  181.8100  177.0030  138.8040 C   0  0  0  0  0  2  0  0  0  0  0  0
  1  6  1  0  0  0  0
  2  7  2  0  0  0  0
  3  9  1  0  0  0  0
  4  5  2  0  0  0  0
  5  2  1  0  0  0  0
  6  8  2  0  0  0  0
  7  8  1  0  0  0  0
  7 32  1  0  0  0  0
  9  1  2  0  0  0  0
  9  2  1  0  0  0  0
 10  3  2  0  0  0  0
 10  4  1  0  0  0  0
 11 15  1  0  0  0  0
 12 17  2  0  0  0  0
 12 16  1  0  0  0  0
 13  3  1  0  0  0  0
 14 13  1  0  0  0  0
 15 13  2  0  0  0  0
 16 14  1  0  0  0  0
 17 11  1  0  0  0  0
 18 20  2  0  0  0  0
 18 19  1  0  0  0  0
 19 17  1  0  0  0  0
 21 18  1  0  0  0  0
 22 21  1  0  0  0  0
 22 25  1  0  0  0  0
 25 24  1  0  0  0  0
 25 23  1  0  0  0  0
 26 27  1  0  0  0  0
 26 23  1  0  0  0  0
 28 26  1  0  0  0  0
 29 25  1  0  0  0  0
 29 26  1  0  0  0  0
 30 31  1  0  0  0  0
 32 30  1  0  0  0  0
 32 31  1  0  0  0  0
 33 34  1  0  0  0  0
 33 10  1  0  0  0  0
 35 34  1  0  0  0  0
 36 35  1  0  0  0  0
 37 38  2  0  0  0  0
 38 36  2  0  0  0  0
 39 40  1  0  0  0  0
 39 36  1  1  0  0  0
 41 39  1  0  0  0  0
 41 40  1  0  0  0  0
M  END
>  <MODEL>
2

>  <REMARK>
 VINA RESULT:      -8.9      1.662      1.977
  Name = 
  11 active torsions:
  status: ('A' for Active; 'I' for Inactive)
    1  A    between atoms: C_1  and  C_27
    2  A    between atoms: C_2  and  C_6
    3  A    between atoms: C_2  and  C_39
    4  A    between atoms: C_4  and  C_33
    5  A    between atoms: C_6  and  C_8
    6  A    between atoms: N_7  and  C_38
    7  A    between atoms: C_8  and  C_27
    8  A    between atoms: C_10  and  C_31
    9  A    between atoms: C_15  and  C_17
   10  A    between atoms: C_22  and  C_30
   11  A    between atoms: C_31  and  C_33
                            x       y       z     vdW  Elec       q    Type
                         _______ _______ _______ _____ _____    ______ ____

>  <TORSDO>
F 11

$$$$
=
 OpenBabel10222418413D

 41 46  0  0  1  0  0  0  0  0999 V2000
  186.0710  177.9880  138.1760 C   0  0  0  0  0  3  0  0  0  0  0  0
  184.9050  178.5170  140.2390 C   0  0  0  0  0  0  0  0  0  0  0  0
  187.3210  178.2030  140.2760 C   0  0  0  0  0  0  0  0  0  0  0  0
  186.0840  178.7490  142.2840 C   0  0  0  0  0  3  0  0  0  0  0  0
  184.9290  178.7610  141.5740 N   0  0  0  0  0  0  0  0  0  0  0  0
  184.8560  178.0530  137.4960 C   0  0  0  0  0  3  0  0  0  0  0  0
  183.6970  178.5680  139.5160 C   0  0  0  0  0  0  0  0  0  0  0  0
  183.7110  178.3390  138.1710 N   0  0  0  0  0  0  0  0  0  0  0  0
  186.1100  178.2270  139.5570 C   0  0  0  0  0  0  0  0  0  0  0  0
  187.3020  178.4780  141.6570 C   0  0  0  0  0  0  0  0  0  0  0  0
  190.5530  176.5310  139.1150 C   0  0  0  0  0  2  0  0  0  0  0  0
  189.9190  177.3660  136.8370 C   0  0  0  0  0  3  0  0  0  0  0  0
  188.5930  177.9460  139.5740 C   0  0  0  0  0  0  0  0  0  0  0  0
  189.1830  178.9900  138.6830 C   0  0  0  0  0  2  0  0  0  0  0  0
  189.2230  176.7890  139.7510 C   0  0  0  0  0  3  0  0  0  0  0  0
  189.0660  178.5460  137.2330 C   0  0  0  0  0  2  0  0  0  0  0  0
  190.5120  176.4440  137.6110 C   0  0  0  0  0  0  0  0  0  0  0  0
  190.8920  174.0180  136.8630 C   0  0  0  0  0  0  0  0  0  0  0  0
  191.2400  175.4080  136.9370 N   0  0  0  0  0  2  0  0  0  0  0  0
  189.8700  173.5640  137.4450 O   0  0  0  0  0  0  0  0  0  0  0  0
  191.7880  173.0790  136.1390 C   0  0  0  0  0  2  0  0  0  0  0  0
  192.7000  173.8630  135.2110 C   0  0  0  0  0  2  0  0  0  0  0  0
  194.3400  173.4610  137.1370 C   0  0  0  0  0  2  0  0  0  0  0  0
  194.9580  173.0330  134.8220 O   0  0  0  0  0  1  0  0  0  0  0  0
  194.1520  173.8050  135.6660 C   0  0  0  0  0  0  0  0  0  0  0  0
  194.9370  174.8380  137.3530 C   0  0  0  0  0  0  0  0  0  0  0  0
  196.2820  174.8010  137.7280 O   0  0  0  0  0  1  0  0  0  0  0  0
  194.1730  175.6410  138.2000 O   0  0  0  0  0  1  0  0  0  0  0  0
  194.7420  175.1840  135.8920 C   0  0  0  0  0  2  0  0  0  0  0  0
  181.5560  177.5790  140.3290 C   0  0  0  0  0  2  0  0  0  0  0  0
  181.2370  178.5820  139.2440 C   0  0  0  0  0  2  0  0  0  0  0  0
  182.3880  178.8480  140.2010 C   0  0  0  0  0  3  0  0  0  0  0  0
  188.5470  178.4730  142.4860 C   0  0  0  0  0  2  0  0  0  0  0  0
  188.4740  177.4040  143.5620 C   0  0  0  0  0  2  0  0  0  0  0  0
  189.0900  177.8960  144.8600 C   0  0  0  0  0  2  0  0  0  0  0  0
  188.1570  177.7210  146.0130 C   0  0  0  0  0  0  0  0  0  0  0  0
  185.6560  177.9630  145.6580 O   0  0  0  0  0  0  0  0  0  0  0  0
  186.8710  177.8490  145.8270 C   0  0  0  0  0  0  0  0  0  0  0  0
  188.6610  177.0820  147.2710 C   0  0  1  0  0  3  0  0  0  0  0  0
  190.0530  177.2830  147.3760 O   0  0  0  0  0  0  0  0  0  0  0  0
  189.2410  178.0840  148.1920 C   0  0  0  0  0  2  0  0  0  0  0  0
  1  9  1  0  0  0  0
  2  5  1  0  0  0  0
  3 10  2  0  0  0  0
  5  4  2  0  0  0  0
  6  8  1  0  0  0  0
  6  1  2  0  0  0  0
  7 32  1  0  0  0  0
  7  2  1  0  0  0  0
  8  7  2  0  0  0  0
  9  2  2  0  0  0  0
  9  3  1  0  0  0  0
 10  4  1  0  0  0  0
 10 33  1  0  0  0  0
 11 15  1  0  0  0  0
 12 16  1  0  0  0  0
 12 17  2  0  0  0  0
 13 15  2  0  0  0  0
 13  3  1  0  0  0  0
 14 13  1  0  0  0  0
 16 14  1  0  0  0  0
 17 11  1  0  0  0  0
 18 19  1  0  0  0  0
 18 20  2  0  0  0  0
 19 17  1  0  0  0  0
 21 18  1  0  0  0  0
 22 25  1  0  0  0  0
 22 21  1  0  0  0  0
 23 26  1  0  0  0  0
 24 25  1  0  0  0  0
 25 29  1  0  0  0  0
 25 23  1  0  0  0  0
 26 27  1  0  0  0  0
 26 28  1  0  0  0  0
 29 26  1  0  0  0  0
 31 32  1  0  0  0  0
 31 30  1  0  0  0  0
 32 30  1  0  0  0  0
 33 34  1  0  0  0  0
 34 35  1  0  0  0  0
 35 36  1  0  0  0  0
 37 38  2  0  0  0  0
 38 36  2  0  0  0  0
 39 36  1  6  0  0  0
 39 40  1  0  0  0  0
 39 41  1  0  0  0  0
 40 41  1  0  0  0  0
M  END
>  <MODEL>
3

>  <REMARK>
 VINA RESULT:      -8.6      2.454      5.746
  Name = 
  11 active torsions:
  status: ('A' for Active; 'I' for Inactive)
    1  A    between atoms: C_1  and  C_27
    2  A    between atoms: C_2  and  C_6
    3  A    between atoms: C_2  and  C_39
    4  A    between atoms: C_4  and  C_33
    5  A    between atoms: C_6  and  C_8
    6  A    between atoms: N_7  and  C_38
    7  A    between atoms: C_8  and  C_27
    8  A    between atoms: C_10  and  C_31
    9  A    between atoms: C_15  and  C_17
   10  A    between atoms: C_22  and  C_30
   11  A    between atoms: C_31  and  C_33
                            x       y       z     vdW  Elec       q    Type
                         _______ _______ _______ _____ _____    ______ ____

>  <TORSDO>
F 11

$$$$
=
 OpenBabel10222418413D

 41 46  0  0  1  0  0  0  0  0999 V2000
  188.0910  178.1980  147.0850 C   0  0  0  0  0  3  0  0  0  0  0  0
  189.7870  177.1200  145.7220 C   0  0  0  0  0  0  0  0  0  0  0  0
  187.7520  177.9490  144.6680 C   0  0  0  0  0  0  0  0  0  0  0  0
  189.4990  176.8770  143.3800 C   0  0  0  0  0  3  0  0  0  0  0  0
  190.2270  176.6970  144.5100 N   0  0  0  0  0  0  0  0  0  0  0  0
  188.9040  178.0170  148.2030 C   0  0  0  0  0  3  0  0  0  0  0  0
  190.5750  176.9500  146.8770 C   0  0  0  0  0  0  0  0  0  0  0  0
  190.1120  177.4070  148.0770 N   0  0  0  0  0  0  0  0  0  0  0  0
  188.5280  177.7560  145.8280 C   0  0  0  0  0  0  0  0  0  0  0  0
  188.2550  177.5090  143.4290 C   0  0  0  0  0  0  0  0  0  0  0  0
  184.5230  179.7400  143.6900 C   0  0  0  0  0  2  0  0  0  0  0  0
  183.4700  178.4010  145.5300 C   0  0  0  0  0  3  0  0  0  0  0  0
  186.4580  178.6500  144.7520 C   0  0  0  0  0  0  0  0  0  0  0  0
  185.8960  179.0330  146.0830 C   0  0  0  0  0  2  0  0  0  0  0  0
  185.7990  178.9590  143.6390 C   0  0  0  0  0  3  0  0  0  0  0  0
  184.6860  178.1650  146.3930 C   0  0  0  0  0  2  0  0  0  0  0  0
  183.3760  179.0080  144.3370 C   0  0  0  0  0  0  0  0  0  0  0  0
  181.7400  178.7300  142.3780 C   0  0  0  0  0  0  0  0  0  0  0  0
  182.0750  179.0500  143.7370 N   0  0  0  0  0  2  0  0  0  0  0  0
  182.6240  178.3930  141.5460 O   0  0  0  0  0  0  0  0  0  0  0  0
  180.3310  178.8600  141.9240 C   0  0  0  0  0  2  0  0  0  0  0  0
  180.2940  178.9600  140.4080 C   0  0  0  0  0  2  0  0  0  0  0  0
  179.0800  180.5020  138.7640 C   0  0  0  0  0  2  0  0  0  0  0  0
  179.7100  181.2520  140.9920 O   0  0  0  0  0  1  0  0  0  0  0  0
  180.0370  180.3850  139.9430 C   0  0  0  0  0  0  0  0  0  0  0  0
  180.2190  181.0580  137.9310 C   0  0  0  0  0  0  0  0  0  0  0  0
  180.0140  182.3810  137.5340 O   0  0  0  0  0  1  0  0  0  0  0  0
  180.5710  180.2320  136.8630 O   0  0  0  0  0  1  0  0  0  0  0  0
  181.1730  180.9340  139.1010 C   0  0  0  0  0  2  0  0  0  0  0  0
  191.8370  174.8800  147.4640 C   0  0  0  0  0  2  0  0  0  0  0  0
  192.4390  176.0390  148.2260 C   0  0  0  0  0  2  0  0  0  0  0  0
  191.9080  176.2570  146.8180 C   0  0  0  0  0  3  0  0  0  0  0  0
  187.4900  177.6800  142.1540 C   0  0  0  0  0  2  0  0  0  0  0  0
  188.3830  178.2390  141.0610 C   0  0  0  0  0  2  0  0  0  0  0  0
  188.2210  177.4530  139.7720 C   0  0  0  0  0  2  0  0  0  0  0  0
  189.3110  177.7620  138.7980 C   0  0  0  0  0  0  0  0  0  0  0  0
  189.0720  179.7400  137.2270 O   0  0  0  0  0  0  0  0  0  0  0  0
  189.1830  178.7780  137.9890 C   0  0  0  0  0  0  0  0  0  0  0  0
  190.6560  177.1280  138.9800 C   0  0  1  0  0  3  0  0  0  0  0  0
  190.5080  175.7270  139.0610 O   0  0  0  0  0  0  0  0  0  0  0  0
  190.9910  176.2370  137.8470 C   0  0  0  0  0  2  0  0  0  0  0  0
  1  6  1  0  0  0  0
  2  9  1  0  0  0  0
  2  7  2  0  0  0  0
  3 13  1  0  0  0  0
  3  9  1  0  0  0  0
  4 10  1  0  0  0  0
  4  5  2  0  0  0  0
  5  2  1  0  0  0  0
  7  8  1  0  0  0  0
  8  6  2  0  0  0  0
  9  1  2  0  0  0  0
 10  3  2  0  0  0  0
 11 17  1  0  0  0  0
 12 16  1  0  0  0  0
 13 14  1  0  0  0  0
 14 16  1  0  0  0  0
 15 11  1  0  0  0  0
 15 13  2  0  0  0  0
 17 12  2  0  0  0  0
 18 19  1  0  0  0  0
 19 17  1  0  0  0  0
 20 18  2  0  0  0  0
 21 18  1  0  0  0  0
 22 21  1  0  0  0  0
 23 25  1  0  0  0  0
 25 22  1  0  0  0  0
 25 24  1  0  0  0  0
 26 23  1  0  0  0  0
 26 29  1  0  0  0  0
 27 26  1  0  0  0  0
 28 26  1  0  0  0  0
 29 25  1  0  0  0  0
 30 31  1  0  0  0  0
 32  7  1  0  0  0  0
 32 30  1  0  0  0  0
 32 31  1  0  0  0  0
 33 10  1  0  0  0  0
 34 33  1  0  0  0  0
 35 34  1  0  0  0  0
 36 35  1  0  0  0  0
 37 38  2  0  0  0  0
 38 36  2  0  0  0  0
 39 36  1  6  0  0  0
 39 40  1  0  0  0  0
 41 39  1  0  0  0  0
 41 40  1  0  0  0  0
M  END
>  <MODEL>
4

>  <REMARK>
 VINA RESULT:      -8.5      2.785      9.663
  Name = 
  11 active torsions:
  status: ('A' for Active; 'I' for Inactive)
    1  A    between atoms: C_1  and  C_27
    2  A    between atoms: C_2  and  C_6
    3  A    between atoms: C_2  and  C_39
    4  A    between atoms: C_4  and  C_33
    5  A    between atoms: C_6  and  C_8
    6  A    between atoms: N_7  and  C_38
    7  A    between atoms: C_8  and  C_27
    8  A    between atoms: C_10  and  C_31
    9  A    between atoms: C_15  and  C_17
   10  A    between atoms: C_22  and  C_30
   11  A    between atoms: C_31  and  C_33
                            x       y       z     vdW  Elec       q    Type
                         _______ _______ _______ _____ _____    ______ ____

>  <TORSDO>
F 11

$$$$
=
 OpenBabel10222418413D

 41 46  0  0  1  0  0  0  0  0999 V2000
  185.9960  177.4000  136.9780 C   0  0  0  0  0  3  0  0  0  0  0  0
  184.4800  178.1490  138.7200 C   0  0  0  0  0  0  0  0  0  0  0  0
  186.8750  178.0850  139.1650 C   0  0  0  0  0  0  0  0  0  0  0  0
  185.2960  178.8340  140.8400 C   0  0  0  0  0  3  0  0  0  0  0  0
  184.2720  178.6130  139.9790 N   0  0  0  0  0  0  0  0  0  0  0  0
  184.9040  177.2310  136.1290 C   0  0  0  0  0  3  0  0  0  0  0  0
  183.4020  177.9580  137.8330 C   0  0  0  0  0  0  0  0  0  0  0  0
  183.6490  177.5100  136.5670 N   0  0  0  0  0  0  0  0  0  0  0  0
  185.7960  177.8690  138.2850 C   0  0  0  0  0  0  0  0  0  0  0  0
  186.6150  178.5830  140.4550 C   0  0  0  0  0  0  0  0  0  0  0  0
  190.3040  176.4750  138.6780 C   0  0  0  0  0  2  0  0  0  0  0  0
  190.0670  177.1890  136.2850 C   0  0  0  0  0  3  0  0  0  0  0  0
  188.2580  177.8410  138.7130 C   0  0  0  0  0  0  0  0  0  0  0  0
  188.9710  178.8650  137.8910 C   0  0  0  0  0  2  0  0  0  0  0  0
  188.8760  176.7150  139.0540 C   0  0  0  0  0  3  0  0  0  0  0  0
  189.1260  178.3550  136.4670 C   0  0  0  0  0  2  0  0  0  0  0  0
  190.5350  176.3220  137.1960 C   0  0  0  0  0  0  0  0  0  0  0  0
  191.1510  173.8700  136.7490 C   0  0  0  0  0  0  0  0  0  0  0  0
  191.3980  175.2830  136.7130 N   0  0  0  0  0  2  0  0  0  0  0  0
  190.1020  173.3990  137.2660 O   0  0  0  0  0  0  0  0  0  0  0  0
  192.1800  172.9360  136.2240 C   0  0  0  0  0  2  0  0  0  0  0  0
  193.2050  173.7130  135.4160 C   0  0  0  0  0  2  0  0  0  0  0  0
  194.5660  173.4130  137.5640 C   0  0  0  0  0  2  0  0  0  0  0  0
  195.4840  172.8500  135.3810 O   0  0  0  0  0  1  0  0  0  0  0  0
  194.5810  173.6740  136.0640 C   0  0  0  0  0  0  0  0  0  0  0  0
  195.1470  174.7970  137.7820 C   0  0  0  0  0  0  0  0  0  0  0  0
  196.4280  174.7730  138.3360 O   0  0  0  0  0  1  0  0  0  0  0  0
  194.2860  175.6510  138.4720 O   0  0  0  0  0  1  0  0  0  0  0  0
  195.1540  175.0600  136.2900 C   0  0  0  0  0  2  0  0  0  0  0  0
  181.3090  176.9340  138.7200 C   0  0  0  0  0  2  0  0  0  0  0  0
  181.0260  177.4800  137.3390 C   0  0  0  0  0  2  0  0  0  0  0  0
  181.9840  178.2180  138.2590 C   0  0  0  0  0  3  0  0  0  0  0  0
  187.7080  178.8400  141.4430 C   0  0  0  0  0  2  0  0  0  0  0  0
  187.5540  177.9470  142.6620 C   0  0  0  0  0  2  0  0  0  0  0  0
  188.5760  176.8250  142.6470 C   0  0  0  0  0  2  0  0  0  0  0  0
  189.8990  177.2770  143.1730 C   0  0  0  0  0  0  0  0  0  0  0  0
  191.8710  177.5060  141.5920 O   0  0  0  0  0  0  0  0  0  0  0  0
  190.9120  177.3910  142.3570 C   0  0  0  0  0  0  0  0  0  0  0  0
  189.9700  177.9070  144.5300 C   0  0  1  0  0  3  0  0  0  0  0  0
  189.3300  177.0720  145.4700 O   0  0  0  0  0  0  0  0  0  0  0  0
  190.7330  177.0650  145.4780 C   0  0  0  0  0  2  0  0  0  0  0  0
  1  9  1  0  0  0  0
  2  5  1  0  0  0  0
  3 10  2  0  0  0  0
  5  4  2  0  0  0  0
  6  8  1  0  0  0  0
  6  1  2  0  0  0  0
  7 32  1  0  0  0  0
  7  2  1  0  0  0  0
  8  7  2  0  0  0  0
  9  2  2  0  0  0  0
  9  3  1  0  0  0  0
 10  4  1  0  0  0  0
 10 33  1  0  0  0  0
 11 15  1  0  0  0  0
 12 16  1  0  0  0  0
 12 17  2  0  0  0  0
 13 15  2  0  0  0  0
 13  3  1  0  0  0  0
 14 13  1  0  0  0  0
 16 14  1  0  0  0  0
 17 11  1  0  0  0  0
 18 20  2  0  0  0  0
 19 18  1  0  0  0  0
 19 17  1  0  0  0  0
 21 18  1  0  0  0  0
 22 25  1  0  0  0  0
 22 21  1  0  0  0  0
 23 26  1  0  0  0  0
 24 25  1  0  0  0  0
 25 29  1  0  0  0  0
 25 23  1  0  0  0  0
 26 27  1  0  0  0  0
 26 28  1  0  0  0  0
 29 26  1  0  0  0  0
 31 32  1  0  0  0  0
 31 30  1  0  0  0  0
 32 30  1  0  0  0  0
 33 34  1  0  0  0  0
 35 34  1  0  0  0  0
 35 36  1  0  0  0  0
 37 38  2  0  0  0  0
 38 36  2  0  0  0  0
 39 36  1  6  0  0  0
 39 40  1  0  0  0  0
 39 41  1  0  0  0  0
 40 41  1  0  0  0  0
M  END
>  <MODEL>
5

>  <REMARK>
 VINA RESULT:      -8.4      3.202      6.561
  Name = 
  11 active torsions:
  status: ('A' for Active; 'I' for Inactive)
    1  A    between atoms: C_1  and  C_27
    2  A    between atoms: C_2  and  C_6
    3  A    between atoms: C_2  and  C_39
    4  A    between atoms: C_4  and  C_33
    5  A    between atoms: C_6  and  C_8
    6  A    between atoms: N_7  and  C_38
    7  A    between atoms: C_8  and  C_27
    8  A    between atoms: C_10  and  C_31
    9  A    between atoms: C_15  and  C_17
   10  A    between atoms: C_22  and  C_30
   11  A    between atoms: C_31  and  C_33
                            x       y       z     vdW  Elec       q    Type
                         _______ _______ _______ _____ _____    ______ ____

>  <TORSDO>
F 11

$$$$
=
 OpenBabel10222418413D

 41 46  0  0  1  0  0  0  0  0999 V2000
  186.3310  177.8800  137.9600 C   0  0  0  0  0  3  0  0  0  0  0  0
  184.8560  178.4940  139.7880 C   0  0  0  0  0  0  0  0  0  0  0  0
  187.2460  178.2650  140.2040 C   0  0  0  0  0  0  0  0  0  0  0  0
  185.7090  178.8900  141.9660 C   0  0  0  0  0  3  0  0  0  0  0  0
  184.6740  178.8190  141.0930 N   0  0  0  0  0  0  0  0  0  0  0  0
  185.2310  177.8620  137.1050 C   0  0  0  0  0  3  0  0  0  0  0  0
  183.7690  178.4580  138.8930 C   0  0  0  0  0  0  0  0  0  0  0  0
  183.9910  178.1490  137.5820 N   0  0  0  0  0  0  0  0  0  0  0  0
  186.1570  178.2040  139.3130 C   0  0  0  0  0  0  0  0  0  0  0  0
  187.0130  178.6230  141.5450 C   0  0  0  0  0  0  0  0  0  0  0  0
  190.7150  176.7290  139.7630 C   0  0  0  0  0  2  0  0  0  0  0  0
  190.3310  177.0840  137.3100 C   0  0  0  0  0  3  0  0  0  0  0  0
  188.6150  178.0100  139.7160 C   0  0  0  0  0  0  0  0  0  0  0  0
  189.2420  178.9320  138.7210 C   0  0  0  0  0  2  0  0  0  0  0  0
  189.2980  176.9680  140.1790 C   0  0  0  0  0  3  0  0  0  0  0  0
  189.3500  178.2290  137.3760 C   0  0  0  0  0  2  0  0  0  0  0  0
  190.8810  176.3740  138.3080 C   0  0  0  0  0  0  0  0  0  0  0  0
  193.1850  175.3870  137.7550 C   0  0  0  0  0  0  0  0  0  0  0  0
  191.7630  175.3090  137.9300 N   0  0  0  0  0  2  0  0  0  0  0  0
  193.8070  176.4730  137.9030 O   0  0  0  0  0  0  0  0  0  0  0  0
  193.9360  174.1770  137.3300 C   0  0  0  0  0  2  0  0  0  0  0  0
  195.0260  173.8740  138.3440 C   0  0  0  0  0  2  0  0  0  0  0  0
  196.4320  174.4540  136.2830 C   0  0  0  0  0  2  0  0  0  0  0  0
  197.1840  174.9890  138.5350 O   0  0  0  0  0  1  0  0  0  0  0  0
  196.4150  174.1090  137.7660 C   0  0  0  0  0  0  0  0  0  0  0  0
  197.1800  173.1610  136.0210 C   0  0  0  0  0  0  0  0  0  0  0  0
  198.4720  173.3650  135.5310 O   0  0  0  0  0  1  0  0  0  0  0  0
  196.4560  172.2560  135.2450 O   0  0  0  0  0  1  0  0  0  0  0  0
  197.1550  172.8140  137.4940 C   0  0  0  0  0  2  0  0  0  0  0  0
  181.6310  177.4390  139.6730 C   0  0  0  0  0  2  0  0  0  0  0  0
  181.3710  178.1530  138.3660 C   0  0  0  0  0  2  0  0  0  0  0  0
  182.3660  178.7350  139.3570 C   0  0  0  0  0  3  0  0  0  0  0  0
  188.1200  178.7120  142.5480 C   0  0  0  0  0  2  0  0  0  0  0  0
  187.8120  177.8610  143.7680 C   0  0  0  0  0  2  0  0  0  0  0  0
  188.8670  176.7870  143.9630 C   0  0  0  0  0  2  0  0  0  0  0  0
  189.8420  177.1620  145.0300 C   0  0  0  0  0  0  0  0  0  0  0  0
  189.0720  177.3170  147.4430 O   0  0  0  0  0  0  0  0  0  0  0  0
  189.4420  177.2440  146.2700 C   0  0  0  0  0  0  0  0  0  0  0  0
  191.3090  177.1120  144.7300 C   0  0  1  0  0  3  0  0  0  0  0  0
  191.5030  176.6730  143.4030 O   0  0  0  0  0  0  0  0  0  0  0  0
  191.6710  178.0450  143.6400 C   0  0  0  0  0  2  0  0  0  0  0  0
  1  9  1  0  0  0  0
  2  5  1  0  0  0  0
  3 10  2  0  0  0  0
  5  4  2  0  0  0  0
  6  8  1  0  0  0  0
  6  1  2  0  0  0  0
  7 32  1  0  0  0  0
  7  2  1  0  0  0  0
  8  7  2  0  0  0  0
  9  2  2  0  0  0  0
  9  3  1  0  0  0  0
 10  4  1  0  0  0  0
 10 33  1  0  0  0  0
 11 15  1  0  0  0  0
 12 16  1  0  0  0  0
 12 17  2  0  0  0  0
 13 15  2  0  0  0  0
 13  3  1  0  0  0  0
 14 13  1  0  0  0  0
 16 14  1  0  0  0  0
 17 11  1  0  0  0  0
 18 20  2  0  0  0  0
 18 19  1  0  0  0  0
 19 17  1  0  0  0  0
 21 18  1  0  0  0  0
 21 22  1  0  0  0  0
 23 25  1  0  0  0  0
 25 22  1  0  0  0  0
 25 24  1  0  0  0  0
 26 23  1  0  0  0  0
 26 29  1  0  0  0  0
 27 26  1  0  0  0  0
 28 26  1  0  0  0  0
 29 25  1  0  0  0  0
 31 32  1  0  0  0  0
 31 30  1  0  0  0  0
 32 30  1  0  0  0  0
 33 34  1  0  0  0  0
 34 35  1  0  0  0  0
 35 36  1  0  0  0  0
 36 38  2  0  0  0  0
 38 37  2  0  0  0  0
 39 36  1  6  0  0  0
 40 41  1  0  0  0  0
 40 39  1  0  0  0  0
 41 39  1  0  0  0  0
M  END
>  <MODEL>
6

>  <REMARK>
 VINA RESULT:      -8.2      2.957      6.263
  Name = 
  11 active torsions:
  status: ('A' for Active; 'I' for Inactive)
    1  A    between atoms: C_1  and  C_27
    2  A    between atoms: C_2  and  C_6
    3  A    between atoms: C_2  and  C_39
    4  A    between atoms: C_4  and  C_33
    5  A    between atoms: C_6  and  C_8
    6  A    between atoms: N_7  and  C_38
    7  A    between atoms: C_8  and  C_27
    8  A    between atoms: C_10  and  C_31
    9  A    between atoms: C_15  and  C_17
   10  A    between atoms: C_22  and  C_30
   11  A    between atoms: C_31  and  C_33
                            x       y       z     vdW  Elec       q    Type
                         _______ _______ _______ _____ _____    ______ ____

>  <TORSDO>
F 11

$$$$
=
 OpenBabel10222418413D

 41 46  0  0  1  0  0  0  0  0999 V2000
  181.1230  180.7820  139.4910 C   0  0  0  0  0  3  0  0  0  0  0  0
  181.0730  180.2310  137.1270 C   0  0  0  0  0  0  0  0  0  0  0  0
  182.1960  178.7290  138.6820 C   0  0  0  0  0  0  0  0  0  0  0  0
  182.0850  178.2460  136.3130 C   0  0  0  0  0  3  0  0  0  0  0  0
  181.3950  179.3960  136.1070 N   0  0  0  0  0  0  0  0  0  0  0  0
  180.3790  181.9290  139.2190 C   0  0  0  0  0  3  0  0  0  0  0  0
  180.3270  181.4040  136.8930 C   0  0  0  0  0  0  0  0  0  0  0  0
  180.0010  182.2110  137.9440 N   0  0  0  0  0  0  0  0  0  0  0  0
  181.4730  179.9150  138.4460 C   0  0  0  0  0  0  0  0  0  0  0  0
  182.4940  177.8830  137.5970 C   0  0  0  0  0  0  0  0  0  0  0  0
  184.2550  178.2010  141.8550 C   0  0  0  0  0  2  0  0  0  0  0  0
  182.2050  178.9900  143.0650 C   0  0  0  0  0  3  0  0  0  0  0  0
  182.5830  178.3610  140.0570 C   0  0  0  0  0  0  0  0  0  0  0  0
  181.6090  177.6640  140.9500 C   0  0  0  0  0  2  0  0  0  0  0  0
  183.8080  178.6330  140.4940 C   0  0  0  0  0  3  0  0  0  0  0  0
  181.1560  178.6140  142.0470 C   0  0  0  0  0  2  0  0  0  0  0  0
  183.5410  178.8920  142.9880 C   0  0  0  0  0  0  0  0  0  0  0  0
  185.3620  178.6940  144.7880 C   0  0  0  0  0  0  0  0  0  0  0  0
  184.2880  179.3680  144.1160 N   0  0  0  0  0  2  0  0  0  0  0  0
  185.7390  177.5440  144.4340 O   0  0  0  0  0  0  0  0  0  0  0  0
  186.0030  179.3340  145.9650 C   0  0  0  0  0  2  0  0  0  0  0  0
  186.1430  178.3150  147.0830 C   0  0  0  0  0  2  0  0  0  0  0  0
  188.6130  178.6540  146.4970 C   0  0  0  0  0  2  0  0  0  0  0  0
  187.8470  178.5720  148.8060 O   0  0  0  0  0  1  0  0  0  0  0  0
  187.5950  178.1320  147.5010 C   0  0  0  0  0  0  0  0  0  0  0  0
  189.1020  177.2330  146.2960 C   0  0  0  0  0  0  0  0  0  0  0  0
  190.4190  177.0410  146.7170 O   0  0  0  0  0  1  0  0  0  0  0  0
  188.8830  176.7550  145.0040 O   0  0  0  0  0  1  0  0  0  0  0  0
  188.0840  176.7120  147.2880 C   0  0  0  0  0  2  0  0  0  0  0  0
  180.5050  183.1330  135.1050 C   0  0  0  0  0  2  0  0  0  0  0  0
  179.0640  183.0620  135.5600 C   0  0  0  0  0  2  0  0  0  0  0  0
  179.9000  181.7940  135.5050 C   0  0  0  0  0  3  0  0  0  0  0  0
  183.2560  176.6070  137.7700 C   0  0  0  0  0  2  0  0  0  0  0  0
  184.5580  176.6460  136.9890 C   0  0  0  0  0  2  0  0  0  0  0  0
  185.5490  177.6000  137.6320 C   0  0  0  0  0  2  0  0  0  0  0  0
  186.9250  177.0200  137.6710 C   0  0  0  0  0  0  0  0  0  0  0  0
  187.3570  174.7340  136.6600 O   0  0  0  0  0  0  0  0  0  0  0  0
  187.1430  175.8420  137.1530 C   0  0  0  0  0  0  0  0  0  0  0  0
  188.0850  177.9110  137.9940 C   0  0  1  0  0  3  0  0  0  0  0  0
  187.8180  178.6200  139.1840 O   0  0  0  0  0  0  0  0  0  0  0  0
  188.7080  177.5420  139.2840 C   0  0  0  0  0  2  0  0  0  0  0  0
  2  9  1  0  0  0  0
  3 13  1  0  0  0  0
  4 10  1  0  0  0  0
  5  4  2  0  0  0  0
  5  2  1  0  0  0  0
  6  1  1  0  0  0  0
  7  2  2  0  0  0  0
  7  8  1  0  0  0  0
  8  6  2  0  0  0  0
  9  3  1  0  0  0  0
  9  1  2  0  0  0  0
 10 33  1  0  0  0  0
 10  3  2  0  0  0  0
 11 17  1  0  0  0  0
 13 15  2  0  0  0  0
 13 14  1  0  0  0  0
 14 16  1  0  0  0  0
 15 11  1  0  0  0  0
 16 12  1  0  0  0  0
 17 12  2  0  0  0  0
 17 19  1  0  0  0  0
 18 21  1  0  0  0  0
 19 18  1  0  0  0  0
 20 18  2  0  0  0  0
 21 22  1  0  0  0  0
 22 25  1  0  0  0  0
 23 25  1  0  0  0  0
 25 24  1  0  0  0  0
 26 23  1  0  0  0  0
 26 27  1  0  0  0  0
 26 29  1  0  0  0  0
 28 26  1  0  0  0  0
 29 25  1  0  0  0  0
 30 32  1  0  0  0  0
 30 31  1  0  0  0  0
 32 31  1  0  0  0  0
 32  7  1  0  0  0  0
 34 35  1  0  0  0  0
 34 33  1  0  0  0  0
 35 36  1  0  0  0  0
 37 38  2  0  0  0  0
 38 36  2  0  0  0  0
 39 36  1  1  0  0  0
 39 40  1  0  0  0  0
 39 41  1  0  0  0  0
 40 41  1  0  0  0  0
M  END
>  <MODEL>
7

>  <REMARK>
 VINA RESULT:      -8.2      4.725     10.642
  Name = 
  11 active torsions:
  status: ('A' for Active; 'I' for Inactive)
    1  A    between atoms: C_1  and  C_27
    2  A    between atoms: C_2  and  C_6
    3  A    between atoms: C_2  and  C_39
    4  A    between atoms: C_4  and  C_33
    5  A    between atoms: C_6  and  C_8
    6  A    between atoms: N_7  and  C_38
    7  A    between atoms: C_8  and  C_27
    8  A    between atoms: C_10  and  C_31
    9  A    between atoms: C_15  and  C_17
   10  A    between atoms: C_22  and  C_30
   11  A    between atoms: C_31  and  C_33
                            x       y       z     vdW  Elec       q    Type
                         _______ _______ _______ _____ _____    ______ ____

>  <TORSDO>
F 11

$$$$
=
 OpenBabel10222418413D

 41 46  0  0  1  0  0  0  0  0999 V2000
  188.4410  177.7250  140.2100 C   0  0  0  0  0  3  0  0  0  0  0  0
  190.6350  177.5580  141.2360 C   0  0  0  0  0  0  0  0  0  0  0  0
  190.3800  177.0480  138.8670 C   0  0  0  0  0  0  0  0  0  0  0  0
  192.5350  176.9230  139.9640 C   0  0  0  0  0  3  0  0  0  0  0  0
  191.9630  177.2920  141.1370 N   0  0  0  0  0  0  0  0  0  0  0  0
  187.9220  178.1380  141.4360 C   0  0  0  0  0  3  0  0  0  0  0  0
  190.0700  177.9720  142.4580 C   0  0  0  0  0  0  0  0  0  0  0  0
  188.7360  178.2520  142.5180 N   0  0  0  0  0  0  0  0  0  0  0  0
  189.8090  177.4370  140.0950 C   0  0  0  0  0  0  0  0  0  0  0  0
  191.7640  176.7990  138.8060 C   0  0  0  0  0  0  0  0  0  0  0  0
  188.1180  175.6810  136.1090 C   0  0  0  0  0  2  0  0  0  0  0  0
  186.9010  177.8630  136.3150 C   0  0  0  0  0  3  0  0  0  0  0  0
  189.5420  176.9600  137.6560 C   0  0  0  0  0  0  0  0  0  0  0  0
  189.4170  178.1350  136.7420 C   0  0  0  0  0  2  0  0  0  0  0  0
  188.9110  175.8250  137.3700 C   0  0  0  0  0  3  0  0  0  0  0  0
  188.0190  178.7220  136.8550 C   0  0  0  0  0  2  0  0  0  0  0  0
  186.8870  176.5480  136.0510 C   0  0  0  0  0  0  0  0  0  0  0  0
  184.5260  175.5880  136.3610 C   0  0  0  0  0  0  0  0  0  0  0  0
  185.6520  176.0000  135.5720 N   0  0  0  0  0  2  0  0  0  0  0  0
  184.5470  175.6540  137.6200 O   0  0  0  0  0  0  0  0  0  0  0  0
  183.3340  175.0120  135.6880 C   0  0  0  0  0  2  0  0  0  0  0  0
  182.5470  174.1720  136.6800 C   0  0  0  0  0  2  0  0  0  0  0  0
  183.3850  171.8110  137.2110 C   0  0  0  0  0  2  0  0  0  0  0  0
  181.2640  172.1900  136.0770 O   0  0  0  0  0  1  0  0  0  0  0  0
  182.5490  172.6990  136.2980 C   0  0  0  0  0  0  0  0  0  0  0  0
  184.2990  171.5140  136.0380 C   0  0  0  0  0  0  0  0  0  0  0  0
  184.2770  170.1730  135.6510 O   0  0  0  0  0  1  0  0  0  0  0  0
  185.5970  171.9920  136.2200 O   0  0  0  0  0  1  0  0  0  0  0  0
  183.4730  172.4040  135.1330 C   0  0  0  0  0  2  0  0  0  0  0  0
  190.7840  176.8400  144.5620 C   0  0  0  0  0  2  0  0  0  0  0  0
  190.0050  178.0820  144.9290 C   0  0  0  0  0  2  0  0  0  0  0  0
  190.9040  178.0910  143.7040 C   0  0  0  0  0  3  0  0  0  0  0  0
  192.4420  176.3850  137.5380 C   0  0  0  0  0  2  0  0  0  0  0  0
  192.8180  174.9140  137.5830 C   0  0  0  0  0  2  0  0  0  0  0  0
  194.2220  174.6950  137.0480 C   0  0  0  0  0  2  0  0  0  0  0  0
  195.0880  173.9940  138.0420 C   0  0  0  0  0  0  0  0  0  0  0  0
  195.9100  175.2390  140.0950 O   0  0  0  0  0  0  0  0  0  0  0  0
  195.5110  174.6390  139.0960 C   0  0  0  0  0  0  0  0  0  0  0  0
  195.1840  172.5000  138.0030 C   0  0  1  0  0  3  0  0  0  0  0  0
  195.4670  172.0810  136.6860 O   0  0  0  0  0  0  0  0  0  0  0  0
  196.5350  172.0550  137.5950 C   0  0  0  0  0  2  0  0  0  0  0  0
  1  6  1  0  0  0  0
  2  7  2  0  0  0  0
  3  9  1  0  0  0  0
  4  5  2  0  0  0  0
  5  2  1  0  0  0  0
  6  8  2  0  0  0  0
  7  8  1  0  0  0  0
  7 32  1  0  0  0  0
  9  1  2  0  0  0  0
  9  2  1  0  0  0  0
 10  3  2  0  0  0  0
 10  4  1  0  0  0  0
 11 15  1  0  0  0  0
 12 16  1  0  0  0  0
 13  3  1  0  0  0  0
 14 16  1  0  0  0  0
 14 13  1  0  0  0  0
 15 13  2  0  0  0  0
 17 11  1  0  0  0  0
 17 12  2  0  0  0  0
 18 20  2  0  0  0  0
 19 17  1  0  0  0  0
 19 18  1  0  0  0  0
 21 18  1  0  0  0  0
 21 22  1  0  0  0  0
 24 25  1  0  0  0  0
 25 22  1  0  0  0  0
 25 23  1  0  0  0  0
 26 28  1  0  0  0  0
 26 23  1  0  0  0  0
 27 26  1  0  0  0  0
 29 26  1  0  0  0  0
 29 25  1  0  0  0  0
 30 31  1  0  0  0  0
 32 30  1  0  0  0  0
 32 31  1  0  0  0  0
 33 34  1  0  0  0  0
 33 10  1  0  0  0  0
 35 34  1  0  0  0  0
 35 36  1  0  0  0  0
 36 38  2  0  0  0  0
 38 37  2  0  0  0  0
 39 36  1  6  0  0  0
 40 41  1  0  0  0  0
 40 39  1  0  0  0  0
 41 39  1  0  0  0  0
M  END
>  <MODEL>
8

>  <REMARK>
 VINA RESULT:      -8.2      4.433      9.374
  Name = 
  11 active torsions:
  status: ('A' for Active; 'I' for Inactive)
    1  A    between atoms: C_1  and  C_27
    2  A    between atoms: C_2  and  C_6
    3  A    between atoms: C_2  and  C_39
    4  A    between atoms: C_4  and  C_33
    5  A    between atoms: C_6  and  C_8
    6  A    between atoms: N_7  and  C_38
    7  A    between atoms: C_8  and  C_27
    8  A    between atoms: C_10  and  C_31
    9  A    between atoms: C_15  and  C_17
   10  A    between atoms: C_22  and  C_30
   11  A    between atoms: C_31  and  C_33
                            x       y       z     vdW  Elec       q    Type
                         _______ _______ _______ _____ _____    ______ ____

>  <TORSDO>
F 11

$$$$
=
 OpenBabel10222418413D

 41 46  0  0  1  0  0  0  0  0999 V2000
  188.6350  177.5030  140.5420 C   0  0  0  0  0  3  0  0  0  0  0  0
  190.8430  177.5980  141.5470 C   0  0  0  0  0  0  0  0  0  0  0  0
  190.6310  177.1070  139.1700 C   0  0  0  0  0  0  0  0  0  0  0  0
  192.7950  177.2370  140.2470 C   0  0  0  0  0  3  0  0  0  0  0  0
  192.1930  177.5060  141.4320 N   0  0  0  0  0  0  0  0  0  0  0  0
  188.0800  177.8210  141.7800 C   0  0  0  0  0  3  0  0  0  0  0  0
  190.2430  177.9110  142.7830 C   0  0  0  0  0  0  0  0  0  0  0  0
  188.8840  178.0170  142.8590 N   0  0  0  0  0  0  0  0  0  0  0  0
  190.0270  177.3940  140.4100 C   0  0  0  0  0  0  0  0  0  0  0  0
  192.0350  177.0380  139.0930 C   0  0  0  0  0  0  0  0  0  0  0  0
  188.6140  175.5080  136.3480 C   0  0  0  0  0  2  0  0  0  0  0  0
  187.0020  177.3940  136.7140 C   0  0  0  0  0  3  0  0  0  0  0  0
  189.7980  176.9360  137.9650 C   0  0  0  0  0  0  0  0  0  0  0  0
  189.4280  178.1220  137.1330 C   0  0  0  0  0  2  0  0  0  0  0  0
  189.3920  175.7220  137.6080 C   0  0  0  0  0  3  0  0  0  0  0  0
  187.9460  178.4160  137.3000 C   0  0  0  0  0  2  0  0  0  0  0  0
  187.2370  176.1210  136.3610 C   0  0  0  0  0  0  0  0  0  0  0  0
  185.4690  174.2640  136.4900 C   0  0  0  0  0  0  0  0  0  0  0  0
  186.1210  175.3760  135.8570 N   0  0  0  0  0  2  0  0  0  0  0  0
  185.8700  173.8090  137.5950 O   0  0  0  0  0  0  0  0  0  0  0  0
  184.3370  173.5930  135.8000 C   0  0  0  0  0  2  0  0  0  0  0  0
  183.3890  173.0070  136.8330 C   0  0  0  0  0  2  0  0  0  0  0  0
  181.9090  174.8340  135.8180 C   0  0  0  0  0  2  0  0  0  0  0  0
  180.9640  172.9720  137.0680 O   0  0  0  0  0  1  0  0  0  0  0  0
  182.0880  173.7920  136.9140 C   0  0  0  0  0  0  0  0  0  0  0  0
  181.9460  175.9160  136.8810 C   0  0  0  0  0  0  0  0  0  0  0  0
  180.7420  176.6140  136.9950 O   0  0  0  0  0  1  0  0  0  0  0  0
  183.0440  176.7670  136.7590 O   0  0  0  0  0  1  0  0  0  0  0  0
  182.1320  174.8800  137.9700 C   0  0  0  0  0  2  0  0  0  0  0  0
  191.1980  176.8120  144.8070 C   0  0  0  0  0  2  0  0  0  0  0  0
  190.2120  177.8660  145.2560 C   0  0  0  0  0  2  0  0  0  0  0  0
  191.0670  178.1110  144.0240 C   0  0  0  0  0  3  0  0  0  0  0  0
  192.7470  176.7400  137.8110 C   0  0  0  0  0  2  0  0  0  0  0  0
  193.3680  175.3550  137.8500 C   0  0  0  0  0  2  0  0  0  0  0  0
  194.4820  175.2300  136.8250 C   0  0  0  0  0  2  0  0  0  0  0  0
  195.6220  174.4180  137.3470 C   0  0  0  0  0  0  0  0  0  0  0  0
  195.1950  172.6260  139.0920 O   0  0  0  0  0  0  0  0  0  0  0  0
  195.3990  173.4990  138.2480 C   0  0  0  0  0  0  0  0  0  0  0  0
  196.9260  174.4290  136.6100 C   0  0  1  0  0  3  0  0  0  0  0  0
  197.6130  175.6300  136.8870 O   0  0  0  0  0  0  0  0  0  0  0  0
  198.0740  174.4790  137.5430 C   0  0  0  0  0  2  0  0  0  0  0  0
  1  6  1  0  0  0  0
  2  7  2  0  0  0  0
  3  9  1  0  0  0  0
  4  5  2  0  0  0  0
  5  2  1  0  0  0  0
  6  8  2  0  0  0  0
  7  8  1  0  0  0  0
  7 32  1  0  0  0  0
  9  1  2  0  0  0  0
  9  2  1  0  0  0  0
 10  3  2  0  0  0  0
 10  4  1  0  0  0  0
 11 17  1  0  0  0  0
 11 15  1  0  0  0  0
 12 16  1  0  0  0  0
 13  3  1  0  0  0  0
 14 16  1  0  0  0  0
 14 13  1  0  0  0  0
 15 13  2  0  0  0  0
 17 12  2  0  0  0  0
 18 20  2  0  0  0  0
 19 17  1  0  0  0  0
 19 18  1  0  0  0  0
 21 18  1  0  0  0  0
 21 22  1  0  0  0  0
 22 25  1  0  0  0  0
 23 26  1  0  0  0  0
 23 25  1  0  0  0  0
 25 24  1  0  0  0  0
 25 29  1  0  0  0  0
 26 27  1  0  0  0  0
 26 29  1  0  0  0  0
 28 26  1  0  0  0  0
 30 31  1  0  0  0  0
 32 30  1  0  0  0  0
 32 31  1  0  0  0  0
 33 34  1  0  0  0  0
 33 10  1  0  0  0  0
 35 36  1  0  0  0  0
 35 34  1  0  0  0  0
 36 38  2  0  0  0  0
 38 37  2  0  0  0  0
 39 40  1  0  0  0  0
 39 36  1  1  0  0  0
 39 41  1  0  0  0  0
 40 41  1  0  0  0  0
M  END
>  <MODEL>
9

>  <REMARK>
 VINA RESULT:      -8.1      3.783      9.802
  Name = 
  11 active torsions:
  status: ('A' for Active; 'I' for Inactive)
    1  A    between atoms: C_1  and  C_27
    2  A    between atoms: C_2  and  C_6
    3  A    between atoms: C_2  and  C_39
    4  A    between atoms: C_4  and  C_33
    5  A    between atoms: C_6  and  C_8
    6  A    between atoms: N_7  and  C_38
    7  A    between atoms: C_8  and  C_27
    8  A    between atoms: C_10  and  C_31
    9  A    between atoms: C_15  and  C_17
   10  A    between atoms: C_22  and  C_30
   11  A    between atoms: C_31  and  C_33
                            x       y       z     vdW  Elec       q    Type
                         _______ _______ _______ _____ _____    ______ ____

>  <TORSDO>
F 11

$$$$
