=
 OpenBabel10222419153D

 35 40  0  0  1  0  0  0  0  0999 V2000
  178.9910  176.2070  141.0570 O   0  0  0  0  0  0  0  0  0  0  0  0
  180.3230  179.3260  141.4510 C   0  0  0  0  0  0  0  0  0  0  0  0
  179.2610  178.4530  141.6300 O   0  0  0  0  0  0  0  0  0  0  0  0
  180.3330  180.5120  141.8750 O   0  0  0  0  0  0  0  0  0  0  0  0
  181.4250  178.6560  140.7550 C   0  0  0  0  0  0  0  0  0  0  0  0
  179.6810  177.2610  141.0630 C   0  0  0  0  0  0  0  0  0  0  0  0
  181.0310  177.4020  140.5110 C   0  0  0  0  0  0  0  0  0  0  0  0
  184.9440  178.5890  146.6080 F   0  0  0  0  0  0  0  0  0  0  0  0
  185.5630  178.8400  139.6460 N   0  0  0  0  0  1  0  0  0  0  0  0
  184.6270  178.6890  145.2940 C   0  0  0  0  0  0  0  0  0  0  0  0
  183.9580  178.8720  142.6150 C   0  0  0  0  0  0  0  0  0  0  0  0
  182.9340  179.0030  143.5540 C   0  0  0  0  0  3  0  0  0  0  0  0
  182.8780  179.9830  139.4400 O   0  0  0  0  0  0  0  0  0  0  0  0
  186.0650  178.6300  141.9040 N   0  0  0  0  0  0  0  0  0  0  0  0
  183.2840  178.9040  144.9120 C   0  0  0  0  0  3  0  0  0  0  0  0
  185.6390  178.5720  144.3210 C   0  0  0  0  0  3  0  0  0  0  0  0
  185.1900  178.8140  140.8820 C   0  0  0  0  0  0  0  0  0  0  0  0
  183.8940  178.9530  141.2730 N   0  0  0  0  0  0  0  0  0  0  0  0
  185.2620  178.6750  142.9850 C   0  0  0  0  0  0  0  0  0  0  0  0
  182.7480  179.2390  140.4500 C   0  0  0  0  0  0  0  0  0  0  0  0
  181.0430  175.4020  139.0500 C   0  0  0  0  0  2  0  0  0  0  0  0
  181.8860  176.3820  138.3490 N   0  0  0  0  0  0  0  0  0  0  0  0
  181.8570  176.3220  139.8410 C   0  0  1  0  0  3  0  0  0  0  0  0
  180.9580  177.3460  137.7610 C   0  0  0  0  0  2  0  0  0  0  0  0
  181.6610  178.1550  136.6870 C   0  0  0  0  0  2  0  0  0  0  0  0
  180.7140  178.9490  135.9880 O   0  0  0  0  0  0  0  0  0  0  0  0
  180.8380  183.4110  137.7710 C   0  0  0  0  0  3  0  0  0  0  0  0
  180.7220  181.2430  134.8320 C   0  0  0  0  0  2  0  0  0  0  0  0
  180.7980  182.3500  136.8670 C   0  0  0  0  0  0  0  0  0  0  0  0
  180.8030  184.9310  135.8570 C   0  0  0  0  0  3  0  0  0  0  0  0
  180.7610  182.5570  135.5140 C   0  0  0  0  0  0  0  0  0  0  0  0
  180.7860  180.9710  137.1830 N   0  0  0  0  0  0  0  0  0  0  0  0
  180.8390  184.7170  137.2510 C   0  0  0  0  0  3  0  0  0  0  0  0
  180.7640  183.8410  134.9710 C   0  0  0  0  0  3  0  0  0  0  0  0
  180.7410  180.3430  136.0470 C   0  0  0  0  0  0  0  0  0  0  0  0
  1  6  2  0  0  0  0
  2  3  1  0  0  0  0
  2  4  2  0  0  0  0
  5  2  1  0  0  0  0
  6  3  1  0  0  0  0
  7  5  2  0  0  0  0
  7  6  1  0  0  0  0
  9 17  1  0  0  0  0
 10  8  1  0  0  0  0
 11 19  2  0  0  0  0
 11 12  1  0  0  0  0
 12 15  2  0  0  0  0
 13 20  2  0  0  0  0
 14 19  1  0  0  0  0
 15 10  1  0  0  0  0
 16 10  2  0  0  0  0
 17 18  1  0  0  0  0
 17 14  2  0  0  0  0
 18 11  1  0  0  0  0
 19 16  1  0  0  0  0
 20  5  1  0  0  0  0
 20 18  1  0  0  0  0
 21 23  1  0  0  0  0
 22 21  1  0  0  0  0
 22 23  1  0  0  0  0
 23  7  1  1  0  0  0
 24 22  1  0  0  0  0
 25 24  1  0  0  0  0
 26 35  1  0  0  0  0
 26 25  1  0  0  0  0
 28 31  1  0  0  0  0
 28 35  1  0  0  0  0
 29 32  1  0  0  0  0
 29 27  2  0  0  0  0
 30 33  2  0  0  0  0
 31 29  1  0  0  0  0
 33 27  1  0  0  0  0
 34 31  2  0  0  0  0
 34 30  1  0  0  0  0
 35 32  2  0  0  0  0
M  END
>  <MODEL>
1

>  <REMARK>
 VINA RESULT:      -8.3      0.000      0.000
  Name = 
  6 active torsions:
  status: ('A' for Active; 'I' for Inactive)
    1  A    between atoms: O_4  and  C_25
    2  A    between atoms: O_4  and  C_34
    3  A    between atoms: N_9  and  C_12
    4  A    between atoms: C_12  and  C_25
    5  A    between atoms: C_22  and  C_35
    6  A    between atoms: C_29  and  C_33
                            x       y       z     vdW  Elec       q    Type
                         _______ _______ _______ _____ _____    ______ ____

>  <TORSDO>
F 6

$$$$
=
 OpenBabel10222419153D

 35 40  0  0  1  0  0  0  0  0999 V2000
  182.7040  177.0900  139.0300 O   0  0  0  0  0  0  0  0  0  0  0  0
  185.3200  175.7660  137.2800 C   0  0  0  0  0  0  0  0  0  0  0  0
  184.1220  175.5810  137.9530 O   0  0  0  0  0  0  0  0  0  0  0  0
  185.9450  174.8410  136.6960 O   0  0  0  0  0  0  0  0  0  0  0  0
  185.7120  177.1770  137.3090 C   0  0  0  0  0  0  0  0  0  0  0  0
  183.7640  176.8440  138.3950 C   0  0  0  0  0  0  0  0  0  0  0  0
  184.7700  177.8320  137.9950 C   0  0  0  0  0  0  0  0  0  0  0  0
  190.7450  177.1700  141.9250 F   0  0  0  0  0  0  0  0  0  0  0  0
  189.3640  177.3960  135.0720 N   0  0  0  0  0  1  0  0  0  0  0  0
  190.0680  177.2610  140.7550 C   0  0  0  0  0  0  0  0  0  0  0  0
  188.6660  177.4250  138.3750 C   0  0  0  0  0  0  0  0  0  0  0  0
  187.9480  177.5510  139.5650 C   0  0  0  0  0  3  0  0  0  0  0  0
  186.7190  178.5120  135.6340 O   0  0  0  0  0  0  0  0  0  0  0  0
  190.4870  177.2010  137.0960 N   0  0  0  0  0  0  0  0  0  0  0  0
  188.6700  177.4610  140.7680 C   0  0  0  0  0  3  0  0  0  0  0  0
  190.7650  177.1500  139.5340 C   0  0  0  0  0  3  0  0  0  0  0  0
  189.3570  177.3720  136.3630 C   0  0  0  0  0  0  0  0  0  0  0  0
  188.2240  177.5010  137.1060 N   0  0  0  0  0  0  0  0  0  0  0  0
  190.0230  177.2430  138.3600 C   0  0  0  0  0  0  0  0  0  0  0  0
  186.8880  177.7710  136.6400 C   0  0  0  0  0  0  0  0  0  0  0  0
  183.5720  179.7270  139.0490 C   0  0  0  0  0  2  0  0  0  0  0  0
  184.9000  179.7250  139.6830 N   0  0  0  0  0  0  0  0  0  0  0  0
  184.7300  179.3250  138.2530 C   0  0  1  0  0  3  0  0  0  0  0  0
  184.8780  178.6130  140.6310 C   0  0  0  0  0  2  0  0  0  0  0  0
  185.4980  179.0410  141.9480 C   0  0  0  0  0  2  0  0  0  0  0  0
  185.2930  178.0320  142.9250 O   0  0  0  0  0  0  0  0  0  0  0  0
  186.7630  178.4230  147.4840 C   0  0  0  0  0  3  0  0  0  0  0  0
  187.4870  177.3400  144.0710 C   0  0  0  0  0  2  0  0  0  0  0  0
  186.7450  178.1210  146.1240 C   0  0  0  0  0  0  0  0  0  0  0  0
  189.0150  177.4790  147.5780 C   0  0  0  0  0  3  0  0  0  0  0  0
  187.8110  177.5250  145.5040 C   0  0  0  0  0  0  0  0  0  0  0  0
  185.6890  178.3720  145.2160 N   0  0  0  0  0  0  0  0  0  0  0  0
  187.9180  178.0950  148.2150 C   0  0  0  0  0  3  0  0  0  0  0  0
  188.9680  177.1860  146.2040 C   0  0  0  0  0  3  0  0  0  0  0  0
  186.0970  177.9390  144.0610 C   0  0  0  0  0  0  0  0  0  0  0  0
  2  5  1  0  0  0  0
  2  3  1  0  0  0  0
  3  6  1  0  0  0  0
  4  2  2  0  0  0  0
  5  7  2  0  0  0  0
  6  1  2  0  0  0  0
  7  6  1  0  0  0  0
  9 17  1  0  0  0  0
 10 15  1  0  0  0  0
 10  8  1  0  0  0  0
 11 12  1  0  0  0  0
 12 15  2  0  0  0  0
 13 20  2  0  0  0  0
 14 19  1  0  0  0  0
 16 10  2  0  0  0  0
 17 14  2  0  0  0  0
 17 18  1  0  0  0  0
 18 11  1  0  0  0  0
 19 11  2  0  0  0  0
 19 16  1  0  0  0  0
 20 18  1  0  0  0  0
 20  5  1  0  0  0  0
 21 22  1  0  0  0  0
 22 24  1  0  0  0  0
 23  7  1  1  0  0  0
 23 21  1  0  0  0  0
 23 22  1  0  0  0  0
 24 25  1  0  0  0  0
 25 26  1  0  0  0  0
 26 35  1  0  0  0  0
 27 33  1  0  0  0  0
 28 31  1  0  0  0  0
 29 27  2  0  0  0  0
 30 33  2  0  0  0  0
 31 29  1  0  0  0  0
 31 34  2  0  0  0  0
 32 29  1  0  0  0  0
 34 30  1  0  0  0  0
 35 28  1  0  0  0  0
 35 32  2  0  0  0  0
M  END
>  <MODEL>
2

>  <REMARK>
 VINA RESULT:      -8.2      4.255      8.584
  Name = 
  6 active torsions:
  status: ('A' for Active; 'I' for Inactive)
    1  A    between atoms: O_4  and  C_25
    2  A    between atoms: O_4  and  C_34
    3  A    between atoms: N_9  and  C_12
    4  A    between atoms: C_12  and  C_25
    5  A    between atoms: C_22  and  C_35
    6  A    between atoms: C_29  and  C_33
                            x       y       z     vdW  Elec       q    Type
                         _______ _______ _______ _____ _____    ______ ____

>  <TORSDO>
F 6

$$$$
=
 OpenBabel10222419153D

 35 40  0  0  1  0  0  0  0  0999 V2000
  185.7230  175.3630  136.7740 O   0  0  0  0  0  0  0  0  0  0  0  0
  188.9590  174.3000  137.0110 C   0  0  0  0  0  0  0  0  0  0  0  0
  187.6060  174.0330  137.1440 O   0  0  0  0  0  0  0  0  0  0  0  0
  189.8640  173.4430  137.2000 O   0  0  0  0  0  0  0  0  0  0  0  0
  189.1690  175.6840  136.5780 C   0  0  0  0  0  0  0  0  0  0  0  0
  186.9740  175.2190  136.8030 C   0  0  0  0  0  0  0  0  0  0  0  0
  187.9620  176.2460  136.4590 C   0  0  0  0  0  0  0  0  0  0  0  0
  191.7680  177.8180  142.5220 F   0  0  0  0  0  0  0  0  0  0  0  0
  193.3950  176.0550  135.9520 N   0  0  0  0  0  1  0  0  0  0  0  0
  191.6430  177.4790  141.2150 C   0  0  0  0  0  0  0  0  0  0  0  0
  191.3690  176.7670  138.5560 C   0  0  0  0  0  0  0  0  0  0  0  0
  190.2080  177.0410  139.2810 C   0  0  0  0  0  3  0  0  0  0  0  0
  190.6830  176.7310  135.0900 O   0  0  0  0  0  0  0  0  0  0  0  0
  193.5710  176.5950  138.2040 N   0  0  0  0  0  0  0  0  0  0  0  0
  190.3590  177.3970  140.6330 C   0  0  0  0  0  3  0  0  0  0  0  0
  192.7960  177.2080  140.4510 C   0  0  0  0  0  3  0  0  0  0  0  0
  192.8450  176.3520  137.0820 C   0  0  0  0  0  0  0  0  0  0  0  0
  191.4990  176.4350  137.2580 N   0  0  0  0  0  0  0  0  0  0  0  0
  192.6140  176.8580  139.1160 C   0  0  0  0  0  0  0  0  0  0  0  0
  190.4680  176.3130  136.2600 C   0  0  0  0  0  0  0  0  0  0  0  0
  186.2820  178.0470  136.1950 C   0  0  0  0  0  2  0  0  0  0  0  0
  187.3050  178.6170  137.0850 N   0  0  0  0  0  0  0  0  0  0  0  0
  187.6780  177.6610  135.9990 C   0  0  1  0  0  3  0  0  0  0  0  0
  187.0780  177.9970  138.3890 C   0  0  0  0  0  2  0  0  0  0  0  0
  185.6670  178.2890  138.8640 C   0  0  0  0  0  2  0  0  0  0  0  0
  185.6950  179.3110  139.8490 O   0  0  0  0  0  0  0  0  0  0  0  0
  184.3420  179.1130  144.4560 C   0  0  0  0  0  3  0  0  0  0  0  0
  186.8050  178.2400  141.9030 C   0  0  0  0  0  2  0  0  0  0  0  0
  185.0800  178.9340  143.2880 C   0  0  0  0  0  0  0  0  0  0  0  0
  186.0820  177.8750  145.6450 C   0  0  0  0  0  3  0  0  0  0  0  0
  186.2700  178.2570  143.2850 C   0  0  0  0  0  0  0  0  0  0  0  0
  184.7420  179.3990  141.9950 N   0  0  0  0  0  0  0  0  0  0  0  0
  184.8570  178.5750  145.6480 C   0  0  0  0  0  3  0  0  0  0  0  0
  186.8040  177.7100  144.4500 C   0  0  0  0  0  3  0  0  0  0  0  0
  185.7060  179.0160  141.2120 C   0  0  0  0  0  0  0  0  0  0  0  0
  1  6  2  0  0  0  0
  2  3  1  0  0  0  0
  2  4  2  0  0  0  0
  5  2  1  0  0  0  0
  6  3  1  0  0  0  0
  7  5  2  0  0  0  0
  7  6  1  0  0  0  0
  9 17  1  0  0  0  0
 10  8  1  0  0  0  0
 11 19  2  0  0  0  0
 11 12  1  0  0  0  0
 12 15  2  0  0  0  0
 13 20  2  0  0  0  0
 14 19  1  0  0  0  0
 15 10  1  0  0  0  0
 16 10  2  0  0  0  0
 17 18  1  0  0  0  0
 17 14  2  0  0  0  0
 18 11  1  0  0  0  0
 19 16  1  0  0  0  0
 20  5  1  0  0  0  0
 20 18  1  0  0  0  0
 21 22  1  0  0  0  0
 22 24  1  0  0  0  0
 23 21  1  0  0  0  0
 23  7  1  1  0  0  0
 23 22  1  0  0  0  0
 24 25  1  0  0  0  0
 25 26  1  0  0  0  0
 26 35  1  0  0  0  0
 27 33  1  0  0  0  0
 28 31  1  0  0  0  0
 29 27  2  0  0  0  0
 30 33  2  0  0  0  0
 31 29  1  0  0  0  0
 31 34  2  0  0  0  0
 32 29  1  0  0  0  0
 34 30  1  0  0  0  0
 35 28  1  0  0  0  0
 35 32  2  0  0  0  0
M  END
>  <MODEL>
3

>  <REMARK>
 VINA RESULT:      -8.2      5.901      8.952
  Name = 
  6 active torsions:
  status: ('A' for Active; 'I' for Inactive)
    1  A    between atoms: O_4  and  C_25
    2  A    between atoms: O_4  and  C_34
    3  A    between atoms: N_9  and  C_12
    4  A    between atoms: C_12  and  C_25
    5  A    between atoms: C_22  and  C_35
    6  A    between atoms: C_29  and  C_33
                            x       y       z     vdW  Elec       q    Type
                         _______ _______ _______ _____ _____    ______ ____

>  <TORSDO>
F 6

$$$$
=
 OpenBabel10222419153D

 35 40  0  0  1  0  0  0  0  0999 V2000
  185.7650  179.0080  139.6020 O   0  0  0  0  0  0  0  0  0  0  0  0
  182.6830  180.3590  139.0260 C   0  0  0  0  0  0  0  0  0  0  0  0
  184.0330  180.2990  138.7180 O   0  0  0  0  0  0  0  0  0  0  0  0
  181.8560  181.0810  138.4080 O   0  0  0  0  0  0  0  0  0  0  0  0
  182.3650  179.4370  140.1190 C   0  0  0  0  0  0  0  0  0  0  0  0
  184.5570  179.3620  139.5950 C   0  0  0  0  0  0  0  0  0  0  0  0
  183.5060  178.8370  140.4720 C   0  0  0  0  0  0  0  0  0  0  0  0
  180.2480  173.5980  137.2790 F   0  0  0  0  0  0  0  0  0  0  0  0
  179.3490  177.8770  142.7380 N   0  0  0  0  0  1  0  0  0  0  0  0
  180.3380  174.6800  138.0900 C   0  0  0  0  0  0  0  0  0  0  0  0
  180.5500  176.8900  139.7420 C   0  0  0  0  0  0  0  0  0  0  0  0
  181.1960  176.9350  138.5050 C   0  0  0  0  0  3  0  0  0  0  0  0
  180.3490  180.1230  141.1530 O   0  0  0  0  0  0  0  0  0  0  0  0
  179.2520  176.0220  141.3430 N   0  0  0  0  0  0  0  0  0  0  0  0
  181.0850  175.8050  137.6760 C   0  0  0  0  0  3  0  0  0  0  0  0
  179.6870  174.6720  139.3400 C   0  0  0  0  0  3  0  0  0  0  0  0
  179.6750  177.2780  141.6420 C   0  0  0  0  0  0  0  0  0  0  0  0
  180.4780  177.8370  140.6960 N   0  0  0  0  0  0  0  0  0  0  0  0
  179.8150  175.8060  140.1390 C   0  0  0  0  0  0  0  0  0  0  0  0
  181.0210  179.1700  140.6740 C   0  0  0  0  0  0  0  0  0  0  0  0
  184.9290  177.8780  142.2580 C   0  0  0  0  0  2  0  0  0  0  0  0
  183.6920  178.2830  142.9430 N   0  0  0  0  0  0  0  0  0  0  0  0
  183.6620  177.7720  141.5390 C   0  0  1  0  0  3  0  0  0  0  0  0
  183.7670  179.7380  143.0590 C   0  0  0  0  0  2  0  0  0  0  0  0
  184.3500  180.1210  144.4050 C   0  0  0  0  0  2  0  0  0  0  0  0
  184.4470  178.9710  145.2320 O   0  0  0  0  0  0  0  0  0  0  0  0
  187.9300  178.2530  148.4640 C   0  0  0  0  0  3  0  0  0  0  0  0
  186.7610  177.8740  145.0230 C   0  0  0  0  0  2  0  0  0  0  0  0
  187.2220  178.2530  147.2630 C   0  0  0  0  0  0  0  0  0  0  0  0
  189.7560  177.1320  147.2880 C   0  0  0  0  0  3  0  0  0  0  0  0
  187.7480  177.7200  146.1170 C   0  0  0  0  0  0  0  0  0  0  0  0
  185.9260  178.7770  147.0470 N   0  0  0  0  0  0  0  0  0  0  0  0
  189.2150  177.6840  148.4690 C   0  0  0  0  0  3  0  0  0  0  0  0
  189.0180  177.1470  146.0920 C   0  0  0  0  0  3  0  0  0  0  0  0
  185.6600  178.5710  145.7920 C   0  0  0  0  0  0  0  0  0  0  0  0
  2  5  1  0  0  0  0
  3  2  1  0  0  0  0
  3  6  1  0  0  0  0
  4  2  2  0  0  0  0
  5  7  2  0  0  0  0
  5 20  1  0  0  0  0
  6  1  2  0  0  0  0
  6  7  1  0  0  0  0
  8 10  1  0  0  0  0
 10 16  1  0  0  0  0
 11 19  1  0  0  0  0
 11 18  1  0  0  0  0
 12 11  2  0  0  0  0
 14 17  2  0  0  0  0
 15 10  2  0  0  0  0
 15 12  1  0  0  0  0
 16 19  2  0  0  0  0
 17  9  1  0  0  0  0
 18 17  1  0  0  0  0
 19 14  1  0  0  0  0
 20 18  1  0  0  0  0
 20 13  2  0  0  0  0
 21 22  1  0  0  0  0
 22 24  1  0  0  0  0
 23  7  1  6  0  0  0
 23 21  1  0  0  0  0
 23 22  1  0  0  0  0
 24 25  1  0  0  0  0
 25 26  1  0  0  0  0
 26 35  1  0  0  0  0
 27 33  1  0  0  0  0
 28 35  1  0  0  0  0
 28 31  1  0  0  0  0
 29 27  2  0  0  0  0
 30 33  2  0  0  0  0
 31 29  1  0  0  0  0
 32 29  1  0  0  0  0
 34 31  2  0  0  0  0
 34 30  1  0  0  0  0
 35 32  2  0  0  0  0
M  END
>  <MODEL>
4

>  <REMARK>
 VINA RESULT:      -7.8      3.490      8.884
  Name = 
  6 active torsions:
  status: ('A' for Active; 'I' for Inactive)
    1  A    between atoms: O_4  and  C_25
    2  A    between atoms: O_4  and  C_34
    3  A    between atoms: N_9  and  C_12
    4  A    between atoms: C_12  and  C_25
    5  A    between atoms: C_22  and  C_35
    6  A    between atoms: C_29  and  C_33
                            x       y       z     vdW  Elec       q    Type
                         _______ _______ _______ _____ _____    ______ ____

>  <TORSDO>
F 6

$$$$
=
 OpenBabel10222419153D

 35 40  0  0  1  0  0  0  0  0999 V2000
  179.3630  176.1890  140.4800 O   0  0  0  0  0  0  0  0  0  0  0  0
  180.5830  179.3700  140.6980 C   0  0  0  0  0  0  0  0  0  0  0  0
  179.5090  178.4980  140.7840 O   0  0  0  0  0  0  0  0  0  0  0  0
  180.5060  180.6020  140.9500 O   0  0  0  0  0  0  0  0  0  0  0  0
  181.8020  178.6470  140.3290 C   0  0  0  0  0  0  0  0  0  0  0  0
  180.0350  177.2540  140.4780 C   0  0  0  0  0  0  0  0  0  0  0  0
  181.4680  177.3600  140.1860 C   0  0  0  0  0  0  0  0  0  0  0  0
  184.4560  178.5940  146.6220 F   0  0  0  0  0  0  0  0  0  0  0  0
  186.0560  178.8070  139.8170 N   0  0  0  0  0  1  0  0  0  0  0  0
  184.3290  178.6880  145.2760 C   0  0  0  0  0  0  0  0  0  0  0  0
  184.0470  178.8610  142.5290 C   0  0  0  0  0  0  0  0  0  0  0  0
  182.9010  179.0010  143.3120 C   0  0  0  0  0  3  0  0  0  0  0  0
  183.4340  179.9600  139.2280 O   0  0  0  0  0  0  0  0  0  0  0  0
  186.2320  178.6060  142.1240 N   0  0  0  0  0  0  0  0  0  0  0  0
  183.0550  178.9070  144.7070 C   0  0  0  0  0  3  0  0  0  0  0  0
  185.4690  178.5630  144.4560 C   0  0  0  0  0  3  0  0  0  0  0  0
  185.5120  178.7890  140.9870 C   0  0  0  0  0  0  0  0  0  0  0  0
  184.1750  178.9360  141.1910 N   0  0  0  0  0  0  0  0  0  0  0  0
  185.2840  178.6610  143.0800 C   0  0  0  0  0  0  0  0  0  0  0  0
  183.1580  179.2220  140.2120 C   0  0  0  0  0  0  0  0  0  0  0  0
  181.7920  175.2160  138.9890 C   0  0  0  0  0  2  0  0  0  0  0  0
  182.7870  176.1270  138.4010 N   0  0  0  0  0  0  0  0  0  0  0  0
  182.4120  176.2260  139.8440 C   0  0  1  0  0  3  0  0  0  0  0  0
  182.0320  177.0110  137.5160 C   0  0  0  0  0  2  0  0  0  0  0  0
  182.9250  177.5070  136.3940 C   0  0  0  0  0  2  0  0  0  0  0  0
  183.9020  176.5240  136.0880 O   0  0  0  0  0  0  0  0  0  0  0  0
  188.1490  178.6490  136.8300 C   0  0  0  0  0  3  0  0  0  0  0  0
  186.1600  175.5840  136.8760 C   0  0  0  0  0  2  0  0  0  0  0  0
  187.1560  177.6740  136.7500 C   0  0  0  0  0  0  0  0  0  0  0  0
  189.6880  176.9000  137.5680 C   0  0  0  0  0  3  0  0  0  0  0  0
  187.4050  176.3650  137.0620 C   0  0  0  0  0  0  0  0  0  0  0  0
  185.8120  177.8680  136.3530 N   0  0  0  0  0  0  0  0  0  0  0  0
  189.4310  178.2490  137.2440 C   0  0  0  0  0  3  0  0  0  0  0  0
  188.6660  175.9390  137.4780 C   0  0  0  0  0  3  0  0  0  0  0  0
  185.2460  176.7000  136.4190 C   0  0  0  0  0  0  0  0  0  0  0  0
  2  3  1  0  0  0  0
  2  4  2  0  0  0  0
  5  2  1  0  0  0  0
  6  1  2  0  0  0  0
  6  3  1  0  0  0  0
  7  5  2  0  0  0  0
  7  6  1  0  0  0  0
  9 17  1  0  0  0  0
 10  8  1  0  0  0  0
 11 19  2  0  0  0  0
 11 12  1  0  0  0  0
 12 15  2  0  0  0  0
 13 20  2  0  0  0  0
 14 19  1  0  0  0  0
 15 10  1  0  0  0  0
 16 10  2  0  0  0  0
 17 18  1  0  0  0  0
 17 14  2  0  0  0  0
 18 11  1  0  0  0  0
 19 16  1  0  0  0  0
 20  5  1  0  0  0  0
 20 18  1  0  0  0  0
 21 23  1  0  0  0  0
 22 21  1  0  0  0  0
 22 23  1  0  0  0  0
 23  7  1  6  0  0  0
 24 22  1  0  0  0  0
 25 24  1  0  0  0  0
 26 25  1  0  0  0  0
 26 35  1  0  0  0  0
 27 33  1  0  0  0  0
 28 31  1  0  0  0  0
 29 27  2  0  0  0  0
 29 31  1  0  0  0  0
 31 34  2  0  0  0  0
 32 35  2  0  0  0  0
 32 29  1  0  0  0  0
 33 30  2  0  0  0  0
 34 30  1  0  0  0  0
 35 28  1  0  0  0  0
M  END
>  <MODEL>
5

>  <REMARK>
 VINA RESULT:      -7.6      2.982      4.719
  Name = 
  6 active torsions:
  status: ('A' for Active; 'I' for Inactive)
    1  A    between atoms: O_4  and  C_25
    2  A    between atoms: O_4  and  C_34
    3  A    between atoms: N_9  and  C_12
    4  A    between atoms: C_12  and  C_25
    5  A    between atoms: C_22  and  C_35
    6  A    between atoms: C_29  and  C_33
                            x       y       z     vdW  Elec       q    Type
                         _______ _______ _______ _____ _____    ______ ____

>  <TORSDO>
F 6

$$$$
=
 OpenBabel10222419153D

 35 40  0  0  1  0  0  0  0  0999 V2000
  187.6030  176.5880  134.7800 O   0  0  0  0  0  0  0  0  0  0  0  0
  189.0490  174.3710  136.9360 C   0  0  0  0  0  0  0  0  0  0  0  0
  188.1760  174.6150  135.8880 O   0  0  0  0  0  0  0  0  0  0  0  0
  189.2930  173.2210  137.3910 O   0  0  0  0  0  0  0  0  0  0  0  0
  189.6690  175.6190  137.3890 C   0  0  0  0  0  0  0  0  0  0  0  0
  188.2420  175.9840  135.6810 C   0  0  0  0  0  0  0  0  0  0  0  0
  189.1710  176.6020  136.6320 C   0  0  0  0  0  0  0  0  0  0  0  0
  195.1970  172.3690  135.0390 F   0  0  0  0  0  0  0  0  0  0  0  0
  192.9990  177.2420  139.5480 N   0  0  0  0  0  1  0  0  0  0  0  0
  194.3800  173.1520  135.7840 C   0  0  0  0  0  0  0  0  0  0  0  0
  192.6970  174.7570  137.2840 C   0  0  0  0  0  0  0  0  0  0  0  0
  192.1170  173.7690  136.4860 C   0  0  0  0  0  3  0  0  0  0  0  0
  190.3560  175.9930  139.6230 O   0  0  0  0  0  0  0  0  0  0  0  0
  194.3660  175.9120  138.2230 N   0  0  0  0  0  0  0  0  0  0  0  0
  192.9820  172.9630  135.7250 C   0  0  0  0  0  3  0  0  0  0  0  0
  194.9340  174.1510  136.6100 C   0  0  0  0  0  3  0  0  0  0  0  0
  193.1470  176.3030  138.6740 C   0  0  0  0  0  0  0  0  0  0  0  0
  192.1030  175.6320  138.1170 N   0  0  0  0  0  0  0  0  0  0  0  0
  194.0530  174.9340  137.3510 C   0  0  0  0  0  0  0  0  0  0  0  0
  190.7040  175.7510  138.4350 C   0  0  0  0  0  0  0  0  0  0  0  0
  188.4270  178.9540  136.4080 C   0  0  0  0  0  2  0  0  0  0  0  0
  188.8790  178.8350  137.8040 N   0  0  0  0  0  0  0  0  0  0  0  0
  189.5480  178.0670  136.7110 C   0  0  1  0  0  3  0  0  0  0  0  0
  187.8180  178.1060  138.4970 C   0  0  0  0  0  2  0  0  0  0  0  0
  187.9200  178.3400  139.9920 C   0  0  0  0  0  2  0  0  0  0  0  0
  186.6320  178.6150  140.5230 O   0  0  0  0  0  0  0  0  0  0  0  0
  187.0790  177.4100  145.1540 C   0  0  0  0  0  3  0  0  0  0  0  0
  185.1700  179.1460  142.5680 C   0  0  0  0  0  2  0  0  0  0  0  0
  186.5820  177.9650  143.9750 C   0  0  0  0  0  0  0  0  0  0  0  0
  185.1690  178.3910  146.3210 C   0  0  0  0  0  3  0  0  0  0  0  0
  185.4290  178.7020  143.9570 C   0  0  0  0  0  0  0  0  0  0  0  0
  187.1530  177.8580  142.6850 N   0  0  0  0  0  0  0  0  0  0  0  0
  186.3560  177.6290  146.3390 C   0  0  0  0  0  3  0  0  0  0  0  0
  184.6930  178.9390  145.1170 C   0  0  0  0  0  3  0  0  0  0  0  0
  186.3650  178.5160  141.8890 C   0  0  0  0  0  0  0  0  0  0  0  0
  1  6  2  0  0  0  0
  2  5  1  0  0  0  0
  2  4  2  0  0  0  0
  3  2  1  0  0  0  0
  5 20  1  0  0  0  0
  6  3  1  0  0  0  0
  6  7  1  0  0  0  0
  7  5  2  0  0  0  0
  8 10  1  0  0  0  0
 10 16  1  0  0  0  0
 11 19  1  0  0  0  0
 11 18  1  0  0  0  0
 12 11  2  0  0  0  0
 14 17  2  0  0  0  0
 15 10  2  0  0  0  0
 15 12  1  0  0  0  0
 16 19  2  0  0  0  0
 17  9  1  0  0  0  0
 18 20  1  0  0  0  0
 18 17  1  0  0  0  0
 19 14  1  0  0  0  0
 20 13  2  0  0  0  0
 21 23  1  0  0  0  0
 21 22  1  0  0  0  0
 22 24  1  0  0  0  0
 23  7  1  1  0  0  0
 23 22  1  0  0  0  0
 24 25  1  0  0  0  0
 25 26  1  0  0  0  0
 26 35  1  0  0  0  0
 27 33  1  0  0  0  0
 28 31  1  0  0  0  0
 29 27  2  0  0  0  0
 30 33  2  0  0  0  0
 31 29  1  0  0  0  0
 31 34  2  0  0  0  0
 32 29  1  0  0  0  0
 34 30  1  0  0  0  0
 35 28  1  0  0  0  0
 35 32  2  0  0  0  0
M  END
>  <MODEL>
6

>  <REMARK>
 VINA RESULT:      -7.6      7.332     10.607
  Name = 
  6 active torsions:
  status: ('A' for Active; 'I' for Inactive)
    1  A    between atoms: O_4  and  C_25
    2  A    between atoms: O_4  and  C_34
    3  A    between atoms: N_9  and  C_12
    4  A    between atoms: C_12  and  C_25
    5  A    between atoms: C_22  and  C_35
    6  A    between atoms: C_29  and  C_33
                            x       y       z     vdW  Elec       q    Type
                         _______ _______ _______ _____ _____    ______ ____

>  <TORSDO>
F 6

$$$$
=
 OpenBabel10222419153D

 35 40  0  0  1  0  0  0  0  0999 V2000
  191.2470  176.7740  139.7260 O   0  0  0  0  0  0  0  0  0  0  0  0
  190.1190  174.8550  137.1360 C   0  0  0  0  0  0  0  0  0  0  0  0
  190.8730  174.9690  138.2940 O   0  0  0  0  0  0  0  0  0  0  0  0
  189.9720  173.7780  136.5000 O   0  0  0  0  0  0  0  0  0  0  0  0
  189.4940  176.1380  136.8040 C   0  0  0  0  0  0  0  0  0  0  0  0
  190.7270  176.2900  138.6860 C   0  0  0  0  0  0  0  0  0  0  0  0
  189.8710  177.0140  137.7410 C   0  0  0  0  0  0  0  0  0  0  0  0
  184.0490  172.1630  137.9010 F   0  0  0  0  0  0  0  0  0  0  0  0
  186.2750  177.9100  134.5940 N   0  0  0  0  0  1  0  0  0  0  0  0
  184.8680  173.1210  137.4020 C   0  0  0  0  0  0  0  0  0  0  0  0
  186.5540  175.0780  136.4090 C   0  0  0  0  0  0  0  0  0  0  0  0
  187.1310  174.0010  137.0830 C   0  0  0  0  0  3  0  0  0  0  0  0
  189.0080  176.8680  134.6060 O   0  0  0  0  0  0  0  0  0  0  0  0
  184.8970  176.2740  135.5000 N   0  0  0  0  0  0  0  0  0  0  0  0
  186.2640  173.0150  137.5880 C   0  0  0  0  0  3  0  0  0  0  0  0
  184.3190  174.2160  136.7060 C   0  0  0  0  0  3  0  0  0  0  0  0
  186.1190  176.8200  135.2680 C   0  0  0  0  0  0  0  0  0  0  0  0
  187.1540  176.1260  135.8150 N   0  0  0  0  0  0  0  0  0  0  0  0
  185.2020  175.1760  136.2180 C   0  0  0  0  0  0  0  0  0  0  0  0
  188.5630  176.3920  135.6850 C   0  0  0  0  0  0  0  0  0  0  0  0
  187.9880  178.6220  137.7900 C   0  0  0  0  0  2  0  0  0  0  0  0
  188.6840  178.8220  139.0710 N   0  0  0  0  0  0  0  0  0  0  0  0
  189.4400  178.4630  137.8330 C   0  0  1  0  0  3  0  0  0  0  0  0
  188.3050  177.6810  139.9030 C   0  0  0  0  0  2  0  0  0  0  0  0
  188.0090  178.1460  141.3160 C   0  0  0  0  0  2  0  0  0  0  0  0
  188.3590  177.1260  142.2400 O   0  0  0  0  0  0  0  0  0  0  0  0
  189.5990  177.4810  146.8690 C   0  0  0  0  0  3  0  0  0  0  0  0
  186.9700  177.6460  144.3370 C   0  0  0  0  0  2  0  0  0  0  0  0
  188.8360  177.4770  145.7030 C   0  0  0  0  0  0  0  0  0  0  0  0
  187.5550  178.0030  148.1040 C   0  0  0  0  0  3  0  0  0  0  0  0
  187.4890  177.7230  145.7230 C   0  0  0  0  0  0  0  0  0  0  0  0
  189.3010  177.2280  144.3900 N   0  0  0  0  0  0  0  0  0  0  0  0
  188.9420  177.7470  148.0830 C   0  0  0  0  0  3  0  0  0  0  0  0
  186.8120  177.9920  146.9110 C   0  0  0  0  0  3  0  0  0  0  0  0
  188.2600  177.3190  143.6170 C   0  0  0  0  0  0  0  0  0  0  0  0
  2  3  1  0  0  0  0
  3  6  1  0  0  0  0
  4  2  2  0  0  0  0
  5  2  1  0  0  0  0
  5  7  2  0  0  0  0
  6  1  2  0  0  0  0
  7  6  1  0  0  0  0
  9 17  1  0  0  0  0
 10 15  1  0  0  0  0
 10  8  1  0  0  0  0
 11 12  1  0  0  0  0
 12 15  2  0  0  0  0
 13 20  2  0  0  0  0
 14 19  1  0  0  0  0
 16 10  2  0  0  0  0
 17 14  2  0  0  0  0
 17 18  1  0  0  0  0
 18 11  1  0  0  0  0
 19 11  2  0  0  0  0
 19 16  1  0  0  0  0
 20 18  1  0  0  0  0
 20  5  1  0  0  0  0
 21 23  1  0  0  0  0
 21 22  1  0  0  0  0
 22 24  1  0  0  0  0
 23  7  1  1  0  0  0
 23 22  1  0  0  0  0
 24 25  1  0  0  0  0
 25 26  1  0  0  0  0
 26 35  1  0  0  0  0
 27 33  1  0  0  0  0
 28 31  1  0  0  0  0
 29 31  1  0  0  0  0
 29 27  2  0  0  0  0
 31 34  2  0  0  0  0
 32 29  1  0  0  0  0
 33 30  2  0  0  0  0
 34 30  1  0  0  0  0
 35 28  1  0  0  0  0
 35 32  2  0  0  0  0
M  END
>  <MODEL>
7

>  <REMARK>
 VINA RESULT:      -7.6      6.588     10.453
  Name = 
  6 active torsions:
  status: ('A' for Active; 'I' for Inactive)
    1  A    between atoms: O_4  and  C_25
    2  A    between atoms: O_4  and  C_34
    3  A    between atoms: N_9  and  C_12
    4  A    between atoms: C_12  and  C_25
    5  A    between atoms: C_22  and  C_35
    6  A    between atoms: C_29  and  C_33
                            x       y       z     vdW  Elec       q    Type
                         _______ _______ _______ _____ _____    ______ ____

>  <TORSDO>
F 6

$$$$
=
 OpenBabel10222419153D

 35 40  0  0  1  0  0  0  0  0999 V2000
  189.3870  178.2530  135.5030 O   0  0  0  0  0  0  0  0  0  0  0  0
  186.1020  177.3380  135.3280 C   0  0  0  0  0  0  0  0  0  0  0  0
  187.1410  178.1360  134.8770 O   0  0  0  0  0  0  0  0  0  0  0  0
  184.9410  177.3580  134.8390 O   0  0  0  0  0  0  0  0  0  0  0  0
  186.5640  176.4510  136.3980 C   0  0  0  0  0  0  0  0  0  0  0  0
  188.2350  177.7630  135.6430 C   0  0  0  0  0  0  0  0  0  0  0  0
  187.8590  176.7160  136.5970 C   0  0  0  0  0  0  0  0  0  0  0  0
  181.9580  179.7530  140.2100 F   0  0  0  0  0  0  0  0  0  0  0  0
  183.3870  173.6560  137.0930 N   0  0  0  0  0  1  0  0  0  0  0  0
  182.6230  178.7740  139.5490 C   0  0  0  0  0  0  0  0  0  0  0  0
  183.9890  176.7950  138.1800 C   0  0  0  0  0  0  0  0  0  0  0  0
  184.6770  177.9700  138.4870 C   0  0  0  0  0  3  0  0  0  0  0  0
  186.2470  174.2540  137.2180 O   0  0  0  0  0  0  0  0  0  0  0  0
  182.2640  175.3720  138.1850 N   0  0  0  0  0  0  0  0  0  0  0  0
  183.9710  178.9710  139.1780 C   0  0  0  0  0  3  0  0  0  0  0  0
  181.9610  177.5700  139.2350 C   0  0  0  0  0  3  0  0  0  0  0  0
  183.3670  174.8480  137.5910 C   0  0  0  0  0  0  0  0  0  0  0  0
  184.4360  175.6880  137.5590 N   0  0  0  0  0  0  0  0  0  0  0  0
  182.6860  176.5980  138.5500 C   0  0  0  0  0  0  0  0  0  0  0  0
  185.7640  175.4100  137.0770 C   0  0  0  0  0  0  0  0  0  0  0  0
  189.9410  176.8210  137.9350 C   0  0  0  0  0  2  0  0  0  0  0  0
  188.8660  176.6650  138.9270 N   0  0  0  0  0  0  0  0  0  0  0  0
  188.7720  176.0180  137.5840 C   0  0  1  0  0  3  0  0  0  0  0  0
  188.2230  177.9750  139.0160 C   0  0  0  0  0  2  0  0  0  0  0  0
  187.9310  178.3120  140.4660 C   0  0  0  0  0  2  0  0  0  0  0  0
  188.6080  177.4000  141.3170 O   0  0  0  0  0  0  0  0  0  0  0  0
  189.6800  177.4470  146.0020 C   0  0  0  0  0  3  0  0  0  0  0  0
  187.1120  177.5030  143.4030 C   0  0  0  0  0  2  0  0  0  0  0  0
  188.9520  177.4570  144.8130 C   0  0  0  0  0  0  0  0  0  0  0  0
  187.5560  177.5500  147.2050 C   0  0  0  0  0  3  0  0  0  0  0  0
  187.5840  177.5090  144.8070 C   0  0  0  0  0  0  0  0  0  0  0  0
  189.4770  177.4110  143.5000 N   0  0  0  0  0  0  0  0  0  0  0  0
  188.9650  177.4940  147.2110 C   0  0  0  0  0  3  0  0  0  0  0  0
  186.8480  177.5580  145.9900 C   0  0  0  0  0  3  0  0  0  0  0  0
  188.4510  177.4350  142.7020 C   0  0  0  0  0  0  0  0  0  0  0  0
  1  6  2  0  0  0  0
  2  5  1  0  0  0  0
  3  2  1  0  0  0  0
  3  6  1  0  0  0  0
  4  2  2  0  0  0  0
  5  7  2  0  0  0  0
  5 20  1  0  0  0  0
  6  7  1  0  0  0  0
  9 17  1  0  0  0  0
 10  8  1  0  0  0  0
 11 12  2  0  0  0  0
 11 19  1  0  0  0  0
 12 15  1  0  0  0  0
 14 19  1  0  0  0  0
 15 10  2  0  0  0  0
 16 10  1  0  0  0  0
 17 14  2  0  0  0  0
 18 17  1  0  0  0  0
 18 11  1  0  0  0  0
 19 16  2  0  0  0  0
 20 13  2  0  0  0  0
 20 18  1  0  0  0  0
 21 22  1  0  0  0  0
 22 24  1  0  0  0  0
 23  7  1  6  0  0  0
 23 21  1  0  0  0  0
 23 22  1  0  0  0  0
 24 25  1  0  0  0  0
 25 26  1  0  0  0  0
 26 35  1  0  0  0  0
 27 33  1  0  0  0  0
 28 31  1  0  0  0  0
 29 27  2  0  0  0  0
 30 33  2  0  0  0  0
 31 29  1  0  0  0  0
 31 34  2  0  0  0  0
 32 29  1  0  0  0  0
 34 30  1  0  0  0  0
 35 28  1  0  0  0  0
 35 32  2  0  0  0  0
M  END
>  <MODEL>
8

>  <REMARK>
 VINA RESULT:      -7.4      4.824      9.222
  Name = 
  6 active torsions:
  status: ('A' for Active; 'I' for Inactive)
    1  A    between atoms: O_4  and  C_25
    2  A    between atoms: O_4  and  C_34
    3  A    between atoms: N_9  and  C_12
    4  A    between atoms: C_12  and  C_25
    5  A    between atoms: C_22  and  C_35
    6  A    between atoms: C_29  and  C_33
                            x       y       z     vdW  Elec       q    Type
                         _______ _______ _______ _____ _____    ______ ____

>  <TORSDO>
F 6

$$$$
=
 OpenBabel10222419153D

 35 40  0  0  1  0  0  0  0  0999 V2000
  181.0580  176.5850  136.5120 O   0  0  0  0  0  0  0  0  0  0  0  0
  181.5330  179.6560  137.9290 C   0  0  0  0  0  0  0  0  0  0  0  0
  180.8270  178.8440  137.0550 O   0  0  0  0  0  0  0  0  0  0  0  0
  181.2430  180.8610  138.1540 O   0  0  0  0  0  0  0  0  0  0  0  0
  182.6090  178.9000  138.5740 C   0  0  0  0  0  0  0  0  0  0  0  0
  181.4410  177.6050  137.1450 C   0  0  0  0  0  0  0  0  0  0  0  0
  182.5600  177.6550  138.0900 C   0  0  0  0  0  0  0  0  0  0  0  0
  179.1270  178.7110  144.4460 F   0  0  0  0  0  0  0  0  0  0  0  0
  185.5540  178.8380  141.6900 N   0  0  0  0  0  1  0  0  0  0  0  0
  180.1360  178.8110  143.5470 C   0  0  0  0  0  0  0  0  0  0  0  0
  182.1820  178.9970  141.6930 C   0  0  0  0  0  0  0  0  0  0  0  0
  180.8760  179.1980  141.2450 C   0  0  0  0  0  3  0  0  0  0  0  0
  184.5050  180.1260  139.2830 O   0  0  0  0  0  0  0  0  0  0  0  0
  183.7970  178.6290  143.1960 N   0  0  0  0  0  0  0  0  0  0  0  0
  179.8440  179.0960  142.1940 C   0  0  0  0  0  3  0  0  0  0  0  0
  181.4680  178.6260  143.9690 C   0  0  0  0  0  3  0  0  0  0  0  0
  184.2890  178.8480  141.9490 C   0  0  0  0  0  0  0  0  0  0  0  0
  183.3360  179.0650  141.0030 N   0  0  0  0  0  0  0  0  0  0  0  0
  182.4680  178.7330  143.0060 C   0  0  0  0  0  0  0  0  0  0  0  0
  183.5270  179.4040  139.6170 C   0  0  0  0  0  0  0  0  0  0  0  0
  183.7220  175.5810  137.3930 C   0  0  0  0  0  2  0  0  0  0  0  0
  184.7980  176.4840  137.8330 N   0  0  0  0  0  0  0  0  0  0  0  0
  183.4590  176.5040  138.4950 C   0  0  1  0  0  3  0  0  0  0  0  0
  184.9570  177.4570  136.7550 C   0  0  0  0  0  2  0  0  0  0  0  0
  186.4040  177.4960  136.3010 C   0  0  0  0  0  2  0  0  0  0  0  0
  187.1010  178.5120  137.0070 O   0  0  0  0  0  0  0  0  0  0  0  0
  188.9290  177.9120  141.4110 C   0  0  0  0  0  3  0  0  0  0  0  0
  189.4160  177.7220  137.7950 C   0  0  0  0  0  2  0  0  0  0  0  0
  188.8120  177.9410  140.0230 C   0  0  0  0  0  0  0  0  0  0  0  0
  191.2260  177.1310  141.1160 C   0  0  0  0  0  3  0  0  0  0  0  0
  189.8500  177.5840  139.2050 C   0  0  0  0  0  0  0  0  0  0  0  0
  187.6710  178.3250  139.2790 N   0  0  0  0  0  0  0  0  0  0  0  0
  190.1570  177.5010  141.9580 C   0  0  0  0  0  3  0  0  0  0  0  0
  191.0780  177.1700  139.7190 C   0  0  0  0  0  3  0  0  0  0  0  0
  188.0020  178.2070  138.0280 C   0  0  0  0  0  0  0  0  0  0  0  0
  1  6  2  0  0  0  0
  2  4  2  0  0  0  0
  2  5  1  0  0  0  0
  3  6  1  0  0  0  0
  3  2  1  0  0  0  0
  5 20  1  0  0  0  0
  6  7  1  0  0  0  0
  7  5  2  0  0  0  0
  9 17  1  0  0  0  0
 10 16  1  0  0  0  0
 10  8  1  0  0  0  0
 11 19  1  0  0  0  0
 12 11  2  0  0  0  0
 12 15  1  0  0  0  0
 13 20  2  0  0  0  0
 15 10  2  0  0  0  0
 17 14  2  0  0  0  0
 18 11  1  0  0  0  0
 18 17  1  0  0  0  0
 19 14  1  0  0  0  0
 19 16  2  0  0  0  0
 20 18  1  0  0  0  0
 21 22  1  0  0  0  0
 21 23  1  0  0  0  0
 22 23  1  0  0  0  0
 23  7  1  6  0  0  0
 24 22  1  0  0  0  0
 25 24  1  0  0  0  0
 25 26  1  0  0  0  0
 26 35  1  0  0  0  0
 27 33  1  0  0  0  0
 28 35  1  0  0  0  0
 28 31  1  0  0  0  0
 29 27  2  0  0  0  0
 30 33  2  0  0  0  0
 31 34  2  0  0  0  0
 31 29  1  0  0  0  0
 32 29  1  0  0  0  0
 34 30  1  0  0  0  0
 35 32  2  0  0  0  0
M  END
>  <MODEL>
9

>  <REMARK>
 VINA RESULT:      -7.4      3.272      6.381
  Name = 
  6 active torsions:
  status: ('A' for Active; 'I' for Inactive)
    1  A    between atoms: O_4  and  C_25
    2  A    between atoms: O_4  and  C_34
    3  A    between atoms: N_9  and  C_12
    4  A    between atoms: C_12  and  C_25
    5  A    between atoms: C_22  and  C_35
    6  A    between atoms: C_29  and  C_33
                            x       y       z     vdW  Elec       q    Type
                         _______ _______ _______ _____ _____    ______ ____

>  <TORSDO>
F 6

$$$$
