=
 OpenBabel10222416133D

 44 48  0  0  1  0  0  0  0  0999 V2000
  183.4880  179.9570  143.5750 C   0  0  0  0  0  2  0  0  0  0  0  0
  180.5040  179.0230  138.9680 C   0  0  0  0  0  3  0  0  0  0  0  0
  184.9670  179.5640  143.4850 C   0  0  2  0  0  3  0  0  0  0  0  0
  186.2530  179.1660  141.3660 C   0  0  0  0  0  2  0  0  0  0  0  0
  186.4230  178.2770  140.1330 C   0  0  1  0  0  3  0  0  0  0  0  0
  181.7220  178.8610  139.6380 C   0  0  0  0  0  0  0  0  0  0  0  0
  185.2250  178.5820  142.3340 C   0  0  1  0  0  3  0  0  0  0  0  0
  185.7710  177.4450  142.9930 O   0  0  0  0  0  0  0  0  0  0  0  0
  182.8390  178.4670  137.5230 C   0  0  0  0  0  3  0  0  0  0  0  0
  184.0760  178.4410  139.6350 O   0  0  0  0  0  0  0  0  0  0  0  0
  185.8470  177.5990  144.3540 N   0  0  0  0  0  0  0  0  0  0  0  0
  180.4530  178.8830  137.5780 C   0  0  0  0  0  3  0  0  0  0  0  0
  185.3770  179.2570  146.0070 N   0  0  0  0  0  2  0  0  0  0  0  0
  185.4030  178.7660  144.6660 C   0  0  0  0  0  0  0  0  0  0  0  0
  182.8890  178.5950  138.9170 C   0  0  0  0  0  0  0  0  0  0  0  0
  181.8480  179.1120  141.0380 N   0  0  0  0  0  2  0  0  0  0  0  0
  181.6190  178.6080  136.8560 C   0  0  0  0  0  3  0  0  0  0  0  0
  181.0030  178.7240  142.1250 C   0  0  0  0  0  0  0  0  0  0  0  0
  181.2710  179.1680  143.5210 C   0  0  1  0  0  3  0  0  0  0  0  0
  180.3020  178.2950  144.2570 C   0  0  0  0  0  3  0  0  0  0  0  0
  179.6510  177.5050  143.4640 N   0  0  0  0  0  0  0  0  0  0  0  0
  180.0980  177.7520  142.1420 C   0  0  0  0  0  0  0  0  0  0  0  0
  182.6340  178.8140  143.8920 N   0  0  0  0  0  2  0  0  0  0  0  0
  185.3680  178.5890  139.0760 C   0  0  0  0  0  2  0  0  0  0  0  0
  179.7200  176.9070  141.0410 C   0  0  0  0  0  0  0  0  0  0  0  0
  179.4170  176.2320  140.1520 N   0  0  0  0  0  0  0  0  0  0  0  0
  185.4640  178.3690  147.1560 C   0  0  0  0  0  2  0  0  0  0  0  0
  186.7920  178.4380  147.7510 N   0  0  0  0  0  2  0  0  0  0  0  0
  187.5590  177.3820  147.2300 N   0  0  0  0  0  2  0  0  0  0  0  0
  188.8170  177.9090  146.6990 C   0  0  2  0  0  3  0  0  0  0  0  0
  189.1540  177.3650  145.3020 C   0  0  0  0  0  2  0  0  0  0  0  0
  190.6280  177.5910  144.9910 C   0  0  0  0  0  2  0  0  0  0  0  0
  190.3900  175.4420  147.5720 F   0  0  0  0  0  0  0  0  0  0  0  0
  190.9630  176.6860  147.3820 C   0  0  2  0  0  3  0  0  0  0  0  0
  189.9600  177.7920  147.7230 C   0  0  0  0  0  2  0  0  0  0  0  0
  191.5190  176.7970  145.9530 C   0  0  0  0  0  2  0  0  0  0  0  0
  187.8040  178.5050  139.5400 C   0  0  0  0  0  2  0  0  0  0  0  0
  189.2650  177.1890  141.0540 C   0  0  0  0  0  3  0  0  0  0  0  0
  190.1060  176.2770  141.2700 O   0  0  0  0  0  0  0  0  0  0  0  0
  188.6640  177.3520  139.7660 N   0  0  0  0  0  0  0  0  0  0  0  0
  189.0740  176.5540  138.6140 C   0  0  0  0  0  2  0  0  0  0  0  0
  189.3760  177.4660  136.3310 C   0  0  0  0  0  1  0  0  0  0  0  0
  190.0120  177.3310  137.6980 C   0  0  2  0  0  3  0  0  0  0  0  0
  191.2820  176.6380  137.5680 N   0  0  0  0  0  1  0  0  0  0  0  0
  1 23  1  0  0  0  0
  2  6  1  0  0  0  0
  3  1  1  1  0  0  0
  3 14  1  0  0  0  0
  5 37  1  6  0  0  0
  5  4  1  0  0  0  0
  6 16  1  0  0  0  0
  7  4  1  6  0  0  0
  7  8  1  0  0  0  0
  7  3  1  0  0  0  0
  8 11  1  0  0  0  0
  9 15  1  0  0  0  0
 11 14  2  0  0  0  0
 12  2  2  0  0  0  0
 13 27  1  0  0  0  0
 14 13  1  0  0  0  0
 15 10  1  0  0  0  0
 15  6  2  0  0  0  0
 16 18  1  0  0  0  0
 17  9  2  0  0  0  0
 17 12  1  0  0  0  0
 18 22  2  0  0  0  0
 18 19  1  0  0  0  0
 19 23  1  0  0  0  0
 19 20  1  1  0  0  0
 21 20  2  0  0  0  0
 22 21  1  0  0  0  0
 24 10  1  0  0  0  0
 24  5  1  0  0  0  0
 25 22  1  0  0  0  0
 26 25  3  0  0  0  0
 27 28  1  0  0  0  0
 29 28  1  0  0  0  0
 30 29  1  1  0  0  0
 30 35  1  0  0  0  0
 31 30  1  0  0  0  0
 32 31  1  0  0  0  0
 32 36  1  0  0  0  0
 34 33  1  6  0  0  0
 34 35  1  0  0  0  0
 36 34  1  0  0  0  0
 37 40  1  0  0  0  0
 38 39  2  0  0  0  0
 40 38  1  0  0  0  0
 41 40  1  0  0  0  0
 43 42  1  6  0  0  0
 43 41  1  0  0  0  0
 44 43  1  0  0  0  0
M  END
>  <MODEL>
1

>  <REMARK>
 VINA RESULT:      -8.4      0.000      0.000
  Name = 
  9 active torsions:
  status: ('A' for Active; 'I' for Inactive)
    1  A    between atoms: C_2  and  N_44
    2  A    between atoms: C_8  and  C_38
    3  A    between atoms: C_13  and  C_41
    4  A    between atoms: C_15  and  C_23
    5  A    between atoms: N_18  and  C_34
    6  A    between atoms: N_18  and  N_44
    7  A    between atoms: C_23  and  N_25
    8  A    between atoms: N_25  and  C_38
    9  A    between atoms: N_26  and  C_34
                            x       y       z     vdW  Elec       q    Type
                         _______ _______ _______ _____ _____    ______ ____

>  <TORSDO>
F 9

$$$$
=
 OpenBabel10222416133D

 44 48  0  0  1  0  0  0  0  0999 V2000
  184.7140  179.3730  140.6160 C   0  0  0  0  0  2  0  0  0  0  0  0
  185.8000  177.2910  135.5680 C   0  0  0  0  0  3  0  0  0  0  0  0
  185.8290  179.1870  141.6510 C   0  0  2  0  0  3  0  0  0  0  0  0
  188.2260  178.6420  141.1450 C   0  0  0  0  0  2  0  0  0  0  0  0
  189.2020  177.6000  140.5960 C   0  0  1  0  0  3  0  0  0  0  0  0
  186.1980  177.4150  136.9030 C   0  0  0  0  0  0  0  0  0  0  0  0
  186.8080  178.0800  141.2400 C   0  0  1  0  0  3  0  0  0  0  0  0
  186.7250  177.1540  142.3170 O   0  0  0  0  0  0  0  0  0  0  0  0
  188.4730  176.8500  136.2830 C   0  0  0  0  0  3  0  0  0  0  0  0
  187.8760  177.3420  138.6050 O   0  0  0  0  0  0  0  0  0  0  0  0
  185.8270  177.5340  143.2830 N   0  0  0  0  0  0  0  0  0  0  0  0
  186.7360  176.9240  134.5950 C   0  0  0  0  0  3  0  0  0  0  0  0
  184.3520  179.3530  143.7530 N   0  0  0  0  0  2  0  0  0  0  0  0
  185.3050  178.6600  142.9450 C   0  0  0  0  0  0  0  0  0  0  0  0
  187.5340  177.2070  137.2600 C   0  0  0  0  0  0  0  0  0  0  0  0
  185.3110  177.9040  137.9100 N   0  0  0  0  0  2  0  0  0  0  0  0
  188.0700  176.7050  134.9520 C   0  0  0  0  0  3  0  0  0  0  0  0
  183.9420  177.5790  138.1700 C   0  0  0  0  0  0  0  0  0  0  0  0
  183.1610  178.2760  139.2290 C   0  0  1  0  0  3  0  0  0  0  0  0
  181.9450  177.4030  139.2650 C   0  0  0  0  0  3  0  0  0  0  0  0
  182.0270  176.4110  138.4370 N   0  0  0  0  0  0  0  0  0  0  0  0
  183.2740  176.5030  137.7710 C   0  0  0  0  0  0  0  0  0  0  0  0
  183.8700  178.1860  140.4970 N   0  0  0  0  0  2  0  0  0  0  0  0
  189.1920  177.5830  139.0700 C   0  0  0  0  0  2  0  0  0  0  0  0
  183.7670  175.4470  136.9280 C   0  0  0  0  0  0  0  0  0  0  0  0
  184.1580  174.5960  136.2480 N   0  0  0  0  0  0  0  0  0  0  0  0
  183.6000  178.6830  144.8040 C   0  0  0  0  0  2  0  0  0  0  0  0
  184.0370  179.1470  146.1140 N   0  0  0  0  0  2  0  0  0  0  0  0
  185.4260  179.3560  146.0620 N   0  0  0  0  0  2  0  0  0  0  0  0
  186.0960  178.3870  146.9290 C   0  0  2  0  0  3  0  0  0  0  0  0
  187.0710  179.0420  147.9210 C   0  0  0  0  0  2  0  0  0  0  0  0
  188.0330  178.0000  148.4790 C   0  0  0  0  0  2  0  0  0  0  0  0
  188.5940  178.3220  145.1740 F   0  0  0  0  0  0  0  0  0  0  0  0
  188.2190  177.2850  146.0090 C   0  0  2  0  0  3  0  0  0  0  0  0
  186.6930  177.2190  146.1230 C   0  0  0  0  0  2  0  0  0  0  0  0
  188.9200  177.4240  147.3700 C   0  0  0  0  0  2  0  0  0  0  0  0
  190.6050  177.9250  141.0810 C   0  0  0  0  0  2  0  0  0  0  0  0
  190.2570  175.8090  142.3290 C   0  0  0  0  0  3  0  0  0  0  0  0
  190.5010  175.0350  143.2920 O   0  0  0  0  0  0  0  0  0  0  0  0
  191.0200  177.0030  142.1280 N   0  0  0  0  0  0  0  0  0  0  0  0
  192.0320  177.4450  143.0850 C   0  0  0  0  0  2  0  0  0  0  0  0
  191.7780  179.5470  144.3680 C   0  0  0  0  0  1  0  0  0  0  0  0
  191.4000  178.0820  144.3160 C   0  0  2  0  0  3  0  0  0  0  0  0
  191.8680  177.4240  145.5230 N   0  0  0  0  0  1  0  0  0  0  0  0
  2  6  1  0  0  0  0
  3  1  1  6  0  0  0
  3 14  1  0  0  0  0
  5 37  1  6  0  0  0
  5  4  1  0  0  0  0
  6 15  2  0  0  0  0
  6 16  1  0  0  0  0
  7  4  1  1  0  0  0
  7  3  1  0  0  0  0
  7  8  1  0  0  0  0
  8 11  1  0  0  0  0
  9 15  1  0  0  0  0
 10 24  1  0  0  0  0
 12 17  1  0  0  0  0
 12  2  2  0  0  0  0
 13 27  1  0  0  0  0
 14 11  2  0  0  0  0
 14 13  1  0  0  0  0
 15 10  1  0  0  0  0
 16 18  1  0  0  0  0
 17  9  2  0  0  0  0
 18 19  1  0  0  0  0
 19 20  1  1  0  0  0
 19 23  1  0  0  0  0
 21 20  2  0  0  0  0
 22 18  2  0  0  0  0
 22 21  1  0  0  0  0
 23  1  1  0  0  0  0
 24  5  1  0  0  0  0
 25 22  1  0  0  0  0
 26 25  3  0  0  0  0
 27 28  1  0  0  0  0
 29 28  1  0  0  0  0
 30 29  1  6  0  0  0
 30 31  1  0  0  0  0
 31 32  1  0  0  0  0
 34 33  1  6  0  0  0
 34 35  1  0  0  0  0
 34 36  1  0  0  0  0
 35 30  1  0  0  0  0
 36 32  1  0  0  0  0
 37 40  1  0  0  0  0
 38 39  2  0  0  0  0
 40 38  1  0  0  0  0
 40 41  1  0  0  0  0
 41 43  1  0  0  0  0
 43 42  1  1  0  0  0
 43 44  1  0  0  0  0
M  END
>  <MODEL>
2

>  <REMARK>
 VINA RESULT:      -8.2      2.394      4.598
  Name = 
  9 active torsions:
  status: ('A' for Active; 'I' for Inactive)
    1  A    between atoms: C_2  and  N_44
    2  A    between atoms: C_8  and  C_38
    3  A    between atoms: C_13  and  C_41
    4  A    between atoms: C_15  and  C_23
    5  A    between atoms: N_18  and  C_34
    6  A    between atoms: N_18  and  N_44
    7  A    between atoms: C_23  and  N_25
    8  A    between atoms: N_25  and  C_38
    9  A    between atoms: N_26  and  C_34
                            x       y       z     vdW  Elec       q    Type
                         _______ _______ _______ _____ _____    ______ ____

>  <TORSDO>
F 9

$$$$
=
 OpenBabel10222416133D

 44 48  0  0  1  0  0  0  0  0999 V2000
  184.6460  179.3910  140.4090 C   0  0  0  0  0  2  0  0  0  0  0  0
  187.2770  177.0810  136.0790 C   0  0  0  0  0  3  0  0  0  0  0  0
  185.4000  179.3230  141.7410 C   0  0  2  0  0  3  0  0  0  0  0  0
  187.8540  178.8740  142.0180 C   0  0  0  0  0  2  0  0  0  0  0  0
  188.9830  177.8540  141.8620 C   0  0  1  0  0  3  0  0  0  0  0  0
  187.2470  177.3020  137.4610 C   0  0  0  0  0  0  0  0  0  0  0  0
  186.4930  178.2460  141.7220 C   0  0  1  0  0  3  0  0  0  0  0  0
  186.1160  177.3810  142.7860 O   0  0  0  0  0  0  0  0  0  0  0  0
  189.6190  176.8200  137.5940 C   0  0  0  0  0  3  0  0  0  0  0  0
  188.3310  177.4140  139.5890 O   0  0  0  0  0  0  0  0  0  0  0  0
  184.9560  177.7700  143.4090 N   0  0  0  0  0  0  0  0  0  0  0  0
  188.4740  176.7070  135.4610 C   0  0  0  0  0  3  0  0  0  0  0  0
  183.3510  179.5330  143.2850 N   0  0  0  0  0  2  0  0  0  0  0  0
  184.5250  178.8460  142.8510 C   0  0  0  0  0  0  0  0  0  0  0  0
  188.4170  177.1840  138.2150 C   0  0  0  0  0  0  0  0  0  0  0  0
  186.0820  177.8020  138.1170 N   0  0  0  0  0  2  0  0  0  0  0  0
  189.6440  176.5780  136.2170 C   0  0  0  0  0  3  0  0  0  0  0  0
  184.7090  177.4220  137.9760 C   0  0  0  0  0  0  0  0  0  0  0  0
  183.6220  178.1380  138.7000 C   0  0  1  0  0  3  0  0  0  0  0  0
  182.4800  177.2070  138.4300 C   0  0  0  0  0  3  0  0  0  0  0  0
  182.8410  176.1750  137.7380 N   0  0  0  0  0  0  0  0  0  0  0  0
  184.2280  176.2920  137.4720 C   0  0  0  0  0  0  0  0  0  0  0  0
  183.9160  178.1580  140.1250 N   0  0  0  0  0  2  0  0  0  0  0  0
  189.4360  177.7480  140.4090 C   0  0  0  0  0  2  0  0  0  0  0  0
  184.9860  175.2160  136.8930 C   0  0  0  0  0  0  0  0  0  0  0  0
  185.6000  174.3530  136.4270 N   0  0  0  0  0  0  0  0  0  0  0  0
  182.3380  178.8870  144.1060 C   0  0  0  0  0  2  0  0  0  0  0  0
  181.0920  178.7550  143.3620 N   0  0  0  0  0  2  0  0  0  0  0  0
  180.8680  179.9570  142.6680 N   0  0  0  0  0  2  0  0  0  0  0  0
  179.8010  179.7600  141.6860 C   0  0  2  0  0  3  0  0  0  0  0  0
  179.8990  178.4130  140.9540 C   0  0  0  0  0  2  0  0  0  0  0  0
  179.0590  178.4420  139.6830 C   0  0  0  0  0  2  0  0  0  0  0  0
  181.5680  180.6660  139.3660 F   0  0  0  0  0  0  0  0  0  0  0  0
  180.1870  180.7370  139.3480 C   0  0  2  0  0  3  0  0  0  0  0  0
  179.6480  180.9810  140.7610 C   0  0  0  0  0  2  0  0  0  0  0  0
  179.6040  179.4760  138.6900 C   0  0  0  0  0  2  0  0  0  0  0  0
  190.1620  178.2780  142.7220 C   0  0  0  0  0  2  0  0  0  0  0  0
  191.6640  176.7210  143.9370 C   0  0  0  0  0  3  0  0  0  0  0  0
  191.8710  175.8140  144.7860 O   0  0  0  0  0  0  0  0  0  0  0  0
  190.3780  177.3350  143.8100 N   0  0  0  0  0  0  0  0  0  0  0  0
  189.2190  176.8690  144.5680 C   0  0  0  0  0  2  0  0  0  0  0  0
  189.4870  177.1880  147.0090 C   0  0  0  0  0  1  0  0  0  0  0  0
  188.9100  177.7870  145.7430 C   0  0  2  0  0  3  0  0  0  0  0  0
  187.4760  177.9460  145.8990 N   0  0  0  0  0  1  0  0  0  0  0  0
  2  6  1  0  0  0  0
  3  1  1  6  0  0  0
  3 14  1  0  0  0  0
  5  4  1  0  0  0  0
  5 37  1  1  0  0  0
  6 16  1  0  0  0  0
  6 15  2  0  0  0  0
  7  3  1  0  0  0  0
  7  4  1  1  0  0  0
  7  8  1  0  0  0  0
  8 11  1  0  0  0  0
  9 15  1  0  0  0  0
 10 24  1  0  0  0  0
 12  2  2  0  0  0  0
 12 17  1  0  0  0  0
 13 27  1  0  0  0  0
 14 13  1  0  0  0  0
 14 11  2  0  0  0  0
 15 10  1  0  0  0  0
 17  9  2  0  0  0  0
 18 16  1  0  0  0  0
 18 19  1  0  0  0  0
 19 20  1  1  0  0  0
 19 23  1  0  0  0  0
 21 20  2  0  0  0  0
 22 21  1  0  0  0  0
 22 18  2  0  0  0  0
 23  1  1  0  0  0  0
 24  5  1  0  0  0  0
 25 22  1  0  0  0  0
 26 25  3  0  0  0  0
 28 27  1  0  0  0  0
 29 28  1  0  0  0  0
 30 29  1  6  0  0  0
 31 30  1  0  0  0  0
 32 31  1  0  0  0  0
 34 33  1  1  0  0  0
 34 35  1  0  0  0  0
 35 30  1  0  0  0  0
 36 34  1  0  0  0  0
 36 32  1  0  0  0  0
 37 40  1  0  0  0  0
 38 39  2  0  0  0  0
 40 38  1  0  0  0  0
 40 41  1  0  0  0  0
 41 43  1  0  0  0  0
 43 44  1  0  0  0  0
 43 42  1  1  0  0  0
M  END
>  <MODEL>
3

>  <REMARK>
 VINA RESULT:      -7.7      2.916      7.333
  Name = 
  9 active torsions:
  status: ('A' for Active; 'I' for Inactive)
    1  A    between atoms: C_2  and  N_44
    2  A    between atoms: C_8  and  C_38
    3  A    between atoms: C_13  and  C_41
    4  A    between atoms: C_15  and  C_23
    5  A    between atoms: N_18  and  C_34
    6  A    between atoms: N_18  and  N_44
    7  A    between atoms: C_23  and  N_25
    8  A    between atoms: N_25  and  C_38
    9  A    between atoms: N_26  and  C_34
                            x       y       z     vdW  Elec       q    Type
                         _______ _______ _______ _____ _____    ______ ____

>  <TORSDO>
F 9

$$$$
=
 OpenBabel10222416133D

 44 48  0  0  1  0  0  0  0  0999 V2000
  188.2470  179.1370  140.5990 C   0  0  0  0  0  2  0  0  0  0  0  0
  183.4110  178.5330  137.9080 C   0  0  0  0  0  3  0  0  0  0  0  0
  189.3930  178.2600  140.0850 C   0  0  2  0  0  3  0  0  0  0  0  0
  189.4770  177.1150  137.8520 C   0  0  0  0  0  2  0  0  0  0  0  0
  188.8700  176.0340  136.9570 C   0  0  1  0  0  3  0  0  0  0  0  0
  184.7210  178.0810  138.0950 C   0  0  0  0  0  0  0  0  0  0  0  0
  188.8760  177.0760  139.2570 C   0  0  1  0  0  3  0  0  0  0  0  0
  189.3680  175.9440  139.9640 O   0  0  0  0  0  0  0  0  0  0  0  0
  184.6620  176.9960  135.9270 C   0  0  0  0  0  3  0  0  0  0  0  0
  186.6570  176.8970  137.3410 O   0  0  0  0  0  0  0  0  0  0  0  0
  190.0710  176.2810  141.0930 N   0  0  0  0  0  0  0  0  0  0  0  0
  182.7200  178.1970  136.7400 C   0  0  0  0  0  3  0  0  0  0  0  0
  190.7880  178.2450  142.2480 N   0  0  0  0  0  2  0  0  0  0  0  0
  190.1030  177.5640  141.1970 C   0  0  0  0  0  0  0  0  0  0  0  0
  185.3510  177.3240  137.1030 C   0  0  0  0  0  0  0  0  0  0  0  0
  185.5080  178.4970  139.2110 N   0  0  0  0  0  2  0  0  0  0  0  0
  183.3440  177.4310  135.7500 C   0  0  0  0  0  3  0  0  0  0  0  0
  185.1640  178.5980  140.5960 C   0  0  0  0  0  0  0  0  0  0  0  0
  186.1170  179.1450  141.6010 C   0  0  1  0  0  3  0  0  0  0  0  0
  185.3960  178.7810  142.8620 C   0  0  0  0  0  3  0  0  0  0  0  0
  184.2950  178.1400  142.6310 N   0  0  0  0  0  0  0  0  0  0  0  0
  184.1580  178.0040  141.2270 C   0  0  0  0  0  0  0  0  0  0  0  0
  187.3760  178.4170  141.5260 N   0  0  0  0  0  2  0  0  0  0  0  0
  187.5640  176.5090  136.3250 C   0  0  0  0  0  2  0  0  0  0  0  0
  183.1440  177.1700  140.6390 C   0  0  0  0  0  0  0  0  0  0  0  0
  182.3310  176.4950  140.1680 N   0  0  0  0  0  0  0  0  0  0  0  0
  191.1590  177.5770  143.4870 C   0  0  0  0  0  2  0  0  0  0  0  0
  190.4840  178.1980  144.6190 N   0  0  0  0  0  2  0  0  0  0  0  0
  190.4830  177.2780  145.6830 N   0  0  0  0  0  2  0  0  0  0  0  0
  189.1030  176.9520  146.0420 C   0  0  2  0  0  3  0  0  0  0  0  0
  188.0770  177.9130  145.4210 C   0  0  0  0  0  2  0  0  0  0  0  0
  186.7430  177.8010  146.1500 C   0  0  0  0  0  2  0  0  0  0  0  0
  189.0420  179.0170  148.2890 F   0  0  0  0  0  0  0  0  0  0  0  0
  188.2280  177.9000  148.2560 C   0  0  2  0  0  3  0  0  0  0  0  0
  188.9440  176.7400  147.5580 C   0  0  0  0  0  2  0  0  0  0  0  0
  186.8780  178.2510  147.6090 C   0  0  0  0  0  2  0  0  0  0  0  0
  189.8570  175.6840  135.8560 C   0  0  0  0  0  2  0  0  0  0  0  0
  189.4040  173.3920  135.0200 C   0  0  0  0  0  3  0  0  0  0  0  0
  189.5480  172.1420  135.0740 O   0  0  0  0  0  0  0  0  0  0  0  0
  190.1640  174.2610  135.8660 N   0  0  0  0  0  0  0  0  0  0  0  0
  191.0510  173.7470  136.9070 C   0  0  0  0  0  2  0  0  0  0  0  0
  193.0200  172.4980  136.0740 C   0  0  0  0  0  1  0  0  0  0  0  0
  192.5150  173.8600  136.5030 C   0  0  2  0  0  3  0  0  0  0  0  0
  193.3130  174.3370  137.6180 N   0  0  0  0  0  1  0  0  0  0  0  0
  1 23  1  0  0  0  0
  2  6  1  0  0  0  0
  3  1  1  1  0  0  0
  3 14  1  0  0  0  0
  5 37  1  6  0  0  0
  5  4  1  0  0  0  0
  6 16  1  0  0  0  0
  7  4  1  6  0  0  0
  7  8  1  0  0  0  0
  7  3  1  0  0  0  0
  8 11  1  0  0  0  0
  9 15  1  0  0  0  0
 11 14  2  0  0  0  0
 12  2  2  0  0  0  0
 13 27  1  0  0  0  0
 14 13  1  0  0  0  0
 15 10  1  0  0  0  0
 15  6  2  0  0  0  0
 16 18  1  0  0  0  0
 17  9  2  0  0  0  0
 17 12  1  0  0  0  0
 18 22  2  0  0  0  0
 18 19  1  0  0  0  0
 19 20  1  1  0  0  0
 21 20  2  0  0  0  0
 22 21  1  0  0  0  0
 23 19  1  0  0  0  0
 24  5  1  0  0  0  0
 24 10  1  0  0  0  0
 25 22  1  0  0  0  0
 26 25  3  0  0  0  0
 27 28  1  0  0  0  0
 28 29  1  0  0  0  0
 30 29  1  1  0  0  0
 30 35  1  0  0  0  0
 31 30  1  0  0  0  0
 31 32  1  0  0  0  0
 32 36  1  0  0  0  0
 34 33  1  6  0  0  0
 35 34  1  0  0  0  0
 36 34  1  0  0  0  0
 37 40  1  0  0  0  0
 38 39  2  0  0  0  0
 38 40  1  0  0  0  0
 40 41  1  0  0  0  0
 43 42  1  1  0  0  0
 43 41  1  0  0  0  0
 43 44  1  0  0  0  0
M  END
>  <MODEL>
4

>  <REMARK>
 VINA RESULT:      -7.5      2.738      4.603
  Name = 
  9 active torsions:
  status: ('A' for Active; 'I' for Inactive)
    1  A    between atoms: C_2  and  N_44
    2  A    between atoms: C_8  and  C_38
    3  A    between atoms: C_13  and  C_41
    4  A    between atoms: C_15  and  C_23
    5  A    between atoms: N_18  and  C_34
    6  A    between atoms: N_18  and  N_44
    7  A    between atoms: C_23  and  N_25
    8  A    between atoms: N_25  and  C_38
    9  A    between atoms: N_26  and  C_34
                            x       y       z     vdW  Elec       q    Type
                         _______ _______ _______ _____ _____    ______ ____

>  <TORSDO>
F 9

$$$$
=
 OpenBabel10222416133D

 44 48  0  0  1  0  0  0  0  0999 V2000
  183.6620  179.3260  141.0890 C   0  0  0  0  0  2  0  0  0  0  0  0
  183.2290  177.2450  135.9430 C   0  0  0  0  0  3  0  0  0  0  0  0
  185.0670  179.2720  141.6980 C   0  0  2  0  0  3  0  0  0  0  0  0
  187.2070  178.9500  140.4250 C   0  0  0  0  0  2  0  0  0  0  0  0
  188.0450  177.9950  139.5740 C   0  0  1  0  0  3  0  0  0  0  0  0
  184.0290  177.4380  137.0740 C   0  0  0  0  0  0  0  0  0  0  0  0
  185.9620  178.2560  140.9750 C   0  0  1  0  0  3  0  0  0  0  0  0
  186.3280  177.3510  142.0090 O   0  0  0  0  0  0  0  0  0  0  0  0
  186.0180  177.0810  135.7340 C   0  0  0  0  0  3  0  0  0  0  0  0
  186.1720  177.5660  138.1280 O   0  0  0  0  0  0  0  0  0  0  0  0
  185.7650  177.6640  143.2210 N   0  0  0  0  0  0  0  0  0  0  0  0
  183.8240  176.9480  134.7130 C   0  0  0  0  0  3  0  0  0  0  0  0
  184.3540  179.3420  144.1700 N   0  0  0  0  0  2  0  0  0  0  0  0
  185.0520  178.7270  143.0860 C   0  0  0  0  0  0  0  0  0  0  0  0
  185.4210  177.3670  136.9690 C   0  0  0  0  0  0  0  0  0  0  0  0
  183.4780  177.8610  138.3210 N   0  0  0  0  0  2  0  0  0  0  0  0
  185.2160  176.8680  134.6080 C   0  0  0  0  0  3  0  0  0  0  0  0
  182.3100  177.4110  139.0140 C   0  0  0  0  0  0  0  0  0  0  0  0
  181.8550  178.0530  140.2790 C   0  0  1  0  0  3  0  0  0  0  0  0
  180.8110  177.0680  140.7040 C   0  0  0  0  0  3  0  0  0  0  0  0
  180.7140  176.0700  139.8850 N   0  0  0  0  0  0  0  0  0  0  0  0
  181.6580  176.2670  138.8460 C   0  0  0  0  0  0  0  0  0  0  0  0
  182.9470  178.0610  141.2420 N   0  0  0  0  0  2  0  0  0  0  0  0
  187.5370  177.9430  138.1370 C   0  0  0  0  0  2  0  0  0  0  0  0
  181.9470  175.2440  137.8770 C   0  0  0  0  0  0  0  0  0  0  0  0
  182.1830  174.4250  137.0950 N   0  0  0  0  0  0  0  0  0  0  0  0
  184.0590  178.6260  145.4020 C   0  0  0  0  0  2  0  0  0  0  0  0
  184.8290  179.1820  146.5080 N   0  0  0  0  0  2  0  0  0  0  0  0
  186.1890  179.1470  146.1530 N   0  0  0  0  0  2  0  0  0  0  0  0
  186.8190  177.9720  146.7530 C   0  0  2  0  0  3  0  0  0  0  0  0
  187.5630  178.2900  148.0600 C   0  0  0  0  0  2  0  0  0  0  0  0
  188.5330  177.1650  148.4000 C   0  0  0  0  0  2  0  0  0  0  0  0
  189.5430  178.6280  145.5400 F   0  0  0  0  0  0  0  0  0  0  0  0
  189.1560  177.3510  145.9050 C   0  0  2  0  0  3  0  0  0  0  0  0
  187.6450  177.1810  145.7240 C   0  0  0  0  0  2  0  0  0  0  0  0
  189.6290  177.0470  147.3360 C   0  0  0  0  0  2  0  0  0  0  0  0
  189.4910  178.4650  139.5740 C   0  0  0  0  0  2  0  0  0  0  0  0
  190.2530  176.3050  138.6180 C   0  0  0  0  0  3  0  0  0  0  0  0
  190.9390  175.2510  138.6660 O   0  0  0  0  0  0  0  0  0  0  0  0
  190.4060  177.3330  139.6020 N   0  0  0  0  0  0  0  0  0  0  0  0
  191.2710  177.1660  140.7670 C   0  0  0  0  0  2  0  0  0  0  0  0
  191.5310  177.8690  143.1270 C   0  0  0  0  0  1  0  0  0  0  0  0
  190.5310  177.4690  142.0640 C   0  0  2  0  0  3  0  0  0  0  0  0
  189.7970  176.2990  142.5130 N   0  0  0  0  0  1  0  0  0  0  0  0
  1 23  1  0  0  0  0
  2  6  1  0  0  0  0
  3  1  1  6  0  0  0
  3 14  1  0  0  0  0
  5 37  1  6  0  0  0
  5  4  1  0  0  0  0
  6 16  1  0  0  0  0
  7  4  1  1  0  0  0
  7  3  1  0  0  0  0
  7  8  1  0  0  0  0
  8 11  1  0  0  0  0
  9 15  1  0  0  0  0
 10 24  1  0  0  0  0
 12  2  2  0  0  0  0
 13 27  1  0  0  0  0
 14 11  2  0  0  0  0
 14 13  1  0  0  0  0
 15  6  2  0  0  0  0
 15 10  1  0  0  0  0
 16 18  1  0  0  0  0
 17 12  1  0  0  0  0
 17  9  2  0  0  0  0
 18 19  1  0  0  0  0
 19 20  1  1  0  0  0
 19 23  1  0  0  0  0
 21 20  2  0  0  0  0
 22 18  2  0  0  0  0
 22 21  1  0  0  0  0
 24  5  1  0  0  0  0
 25 22  1  0  0  0  0
 26 25  3  0  0  0  0
 27 28  1  0  0  0  0
 29 28  1  0  0  0  0
 30 29  1  6  0  0  0
 30 31  1  0  0  0  0
 31 32  1  0  0  0  0
 34 33  1  1  0  0  0
 34 36  1  0  0  0  0
 35 34  1  0  0  0  0
 35 30  1  0  0  0  0
 36 32  1  0  0  0  0
 37 40  1  0  0  0  0
 38 39  2  0  0  0  0
 38 40  1  0  0  0  0
 40 41  1  0  0  0  0
 41 43  1  0  0  0  0
 43 44  1  0  0  0  0
 43 42  1  1  0  0  0
M  END
>  <MODEL>
5

>  <REMARK>
 VINA RESULT:      -7.5      2.147      3.328
  Name = 
  9 active torsions:
  status: ('A' for Active; 'I' for Inactive)
    1  A    between atoms: C_2  and  N_44
    2  A    between atoms: C_8  and  C_38
    3  A    between atoms: C_13  and  C_41
    4  A    between atoms: C_15  and  C_23
    5  A    between atoms: N_18  and  C_34
    6  A    between atoms: N_18  and  N_44
    7  A    between atoms: C_23  and  N_25
    8  A    between atoms: N_25  and  C_38
    9  A    between atoms: N_26  and  C_34
                            x       y       z     vdW  Elec       q    Type
                         _______ _______ _______ _____ _____    ______ ____

>  <TORSDO>
F 9

$$$$
=
 OpenBabel10222416133D

 44 48  0  0  1  0  0  0  0  0999 V2000
  186.9790  178.4100  137.6030 C   0  0  0  0  0  2  0  0  0  0  0  0
  185.6240  179.4980  142.8930 C   0  0  0  0  0  3  0  0  0  0  0  0
  185.9300  177.6220  136.8110 C   0  0  2  0  0  3  0  0  0  0  0  0
  183.5150  177.3520  137.4380 C   0  0  0  0  0  2  0  0  0  0  0  0
  182.5220  176.7600  138.4400 C   0  0  1  0  0  3  0  0  0  0  0  0
  185.3040  178.8280  141.7070 C   0  0  0  0  0  0  0  0  0  0  0  0
  184.9430  176.8990  137.7360 C   0  0  1  0  0  3  0  0  0  0  0  0
  185.1030  175.5310  137.3780 O   0  0  0  0  0  0  0  0  0  0  0  0
  183.0040  178.6100  142.4440 C   0  0  0  0  0  3  0  0  0  0  0  0
  183.7310  177.7310  140.2790 O   0  0  0  0  0  0  0  0  0  0  0  0
  186.0510  175.3400  136.4040 N   0  0  0  0  0  0  0  0  0  0  0  0
  184.6380  179.7020  143.8630 C   0  0  0  0  0  3  0  0  0  0  0  0
  187.5270  176.6380  135.0480 N   0  0  0  0  0  2  0  0  0  0  0  0
  186.5370  176.4820  136.0660 C   0  0  0  0  0  0  0  0  0  0  0  0
  183.9950  178.3950  141.4770 C   0  0  0  0  0  0  0  0  0  0  0  0
  186.2420  178.7020  140.6390 N   0  0  0  0  0  2  0  0  0  0  0  0
  183.3300  179.2610  143.6390 C   0  0  0  0  0  3  0  0  0  0  0  0
  187.6290  178.3480  140.6650 C   0  0  0  0  0  0  0  0  0  0  0  0
  188.4620  178.3600  139.4310 C   0  0  1  0  0  3  0  0  0  0  0  0
  189.6900  177.6740  139.9450 C   0  0  0  0  0  3  0  0  0  0  0  0
  189.5730  177.3200  141.1850 N   0  0  0  0  0  0  0  0  0  0  0  0
  188.2870  177.7170  141.6300 C   0  0  0  0  0  0  0  0  0  0  0  0
  187.8300  177.5370  138.4090 N   0  0  0  0  0  2  0  0  0  0  0  0
  182.4420  177.6080  139.7060 C   0  0  0  0  0  2  0  0  0  0  0  0
  187.7600  177.3000  142.9020 C   0  0  0  0  0  0  0  0  0  0  0  0
  187.3400  176.9620  143.9250 N   0  0  0  0  0  0  0  0  0  0  0  0
  188.3480  175.5270  134.5940 C   0  0  0  0  0  2  0  0  0  0  0  0
  189.7580  175.8950  134.6180 N   0  0  0  0  0  2  0  0  0  0  0  0
  189.9840  176.6800  135.7620 N   0  0  0  0  0  2  0  0  0  0  0  0
  191.1790  176.1980  136.4550 C   0  0  2  0  0  3  0  0  0  0  0  0
  192.3290  175.8490  135.4960 C   0  0  0  0  0  2  0  0  0  0  0  0
  193.3550  174.9710  136.2030 C   0  0  0  0  0  2  0  0  0  0  0  0
  190.4580  173.2700  135.9740 F   0  0  0  0  0  0  0  0  0  0  0  0
  191.2640  173.6980  137.0130 C   0  0  2  0  0  3  0  0  0  0  0  0
  190.8410  175.0960  137.4740 C   0  0  0  0  0  2  0  0  0  0  0  0
  192.7420  173.6230  136.5970 C   0  0  0  0  0  2  0  0  0  0  0  0
  181.1460  176.6910  137.7980 C   0  0  0  0  0  2  0  0  0  0  0  0
  180.8220  174.2460  137.5280 C   0  0  0  0  0  3  0  0  0  0  0  0
  180.1810  173.1820  137.7340 O   0  0  0  0  0  0  0  0  0  0  0  0
  180.4560  175.4670  138.1790 N   0  0  0  0  0  0  0  0  0  0  0  0
  179.2630  175.5710  139.0150 C   0  0  0  0  0  2  0  0  0  0  0  0
  179.0660  174.1250  141.0160 C   0  0  0  0  0  1  0  0  0  0  0  0
  179.6020  175.4420  140.4950 C   0  0  2  0  0  3  0  0  0  0  0  0
  179.0080  176.5320  141.2470 N   0  0  0  0  0  1  0  0  0  0  0  0
  1 23  1  0  0  0  0
  2 12  1  0  0  0  0
  3  1  1  1  0  0  0
  3  7  1  0  0  0  0
  4  5  1  0  0  0  0
  5 37  1  6  0  0  0
  5 24  1  0  0  0  0
  6  2  2  0  0  0  0
  7  4  1  6  0  0  0
  8  7  1  0  0  0  0
  9 17  1  0  0  0  0
 10 15  1  0  0  0  0
 11  8  1  0  0  0  0
 13 14  1  0  0  0  0
 14 11  2  0  0  0  0
 14  3  1  0  0  0  0
 15  6  1  0  0  0  0
 15  9  2  0  0  0  0
 16 18  1  0  0  0  0
 16  6  1  0  0  0  0
 17 12  2  0  0  0  0
 18 22  2  0  0  0  0
 19 20  1  1  0  0  0
 19 18  1  0  0  0  0
 20 21  2  0  0  0  0
 21 22  1  0  0  0  0
 22 25  1  0  0  0  0
 23 19  1  0  0  0  0
 24 10  1  0  0  0  0
 25 26  3  0  0  0  0
 27 28  1  0  0  0  0
 27 13  1  0  0  0  0
 28 29  1  0  0  0  0
 30 29  1  6  0  0  0
 30 35  1  0  0  0  0
 31 32  1  0  0  0  0
 31 30  1  0  0  0  0
 32 36  1  0  0  0  0
 34 33  1  6  0  0  0
 34 35  1  0  0  0  0
 36 34  1  0  0  0  0
 37 40  1  0  0  0  0
 38 39  2  0  0  0  0
 38 40  1  0  0  0  0
 40 41  1  0  0  0  0
 41 43  1  0  0  0  0
 43 42  1  1  0  0  0
 43 44  1  0  0  0  0
M  END
>  <MODEL>
6

>  <REMARK>
 VINA RESULT:      -7.4      3.372      8.857
  Name = 
  9 active torsions:
  status: ('A' for Active; 'I' for Inactive)
    1  A    between atoms: C_2  and  N_44
    2  A    between atoms: C_8  and  C_38
    3  A    between atoms: C_13  and  C_41
    4  A    between atoms: C_15  and  C_23
    5  A    between atoms: N_18  and  C_34
    6  A    between atoms: N_18  and  N_44
    7  A    between atoms: C_23  and  N_25
    8  A    between atoms: N_25  and  C_38
    9  A    between atoms: N_26  and  C_34
                            x       y       z     vdW  Elec       q    Type
                         _______ _______ _______ _____ _____    ______ ____

>  <TORSDO>
F 9

$$$$
=
 OpenBabel10222416133D

 44 48  0  0  1  0  0  0  0  0999 V2000
  187.3000  178.4430  137.6600 C   0  0  0  0  0  2  0  0  0  0  0  0
  185.6750  179.3910  142.9010 C   0  0  0  0  0  3  0  0  0  0  0  0
  186.2740  177.7210  136.7800 C   0  0  2  0  0  3  0  0  0  0  0  0
  183.8180  177.5120  137.2580 C   0  0  0  0  0  2  0  0  0  0  0  0
  182.7510  176.9200  138.1790 C   0  0  1  0  0  3  0  0  0  0  0  0
  185.4040  178.7740  141.6740 C   0  0  0  0  0  0  0  0  0  0  0  0
  185.2120  177.0000  137.6200 C   0  0  1  0  0  3  0  0  0  0  0  0
  185.3480  175.6410  137.2210 O   0  0  0  0  0  0  0  0  0  0  0  0
  183.0590  178.6110  142.2700 C   0  0  0  0  0  3  0  0  0  0  0  0
  183.8820  177.7840  140.1190 O   0  0  0  0  0  0  0  0  0  0  0  0
  186.3440  175.4510  136.2970 N   0  0  0  0  0  0  0  0  0  0  0  0
  184.6420  179.5950  143.8200 C   0  0  0  0  0  3  0  0  0  0  0  0
  187.9370  176.7440  135.0760 N   0  0  0  0  0  2  0  0  0  0  0  0
  186.8860  176.5870  136.0290 C   0  0  0  0  0  0  0  0  0  0  0  0
  184.0970  178.3960  141.3540 C   0  0  0  0  0  0  0  0  0  0  0  0
  186.3980  178.6540  140.6570 N   0  0  0  0  0  2  0  0  0  0  0  0
  183.3350  179.2080  143.5050 C   0  0  0  0  0  3  0  0  0  0  0  0
  187.7680  178.2520  140.7490 C   0  0  0  0  0  0  0  0  0  0  0  0
  188.6720  178.2780  139.5650 C   0  0  1  0  0  3  0  0  0  0  0  0
  189.8450  177.5330  140.1230 C   0  0  0  0  0  3  0  0  0  0  0  0
  189.6440  177.1400  141.3410 N   0  0  0  0  0  0  0  0  0  0  0  0
  188.3480  177.5650  141.7260 C   0  0  0  0  0  0  0  0  0  0  0  0
  188.0740  177.5140  138.4790 N   0  0  0  0  0  2  0  0  0  0  0  0
  182.6250  177.7250  139.4690 C   0  0  0  0  0  2  0  0  0  0  0  0
  187.7340  177.1220  142.9500 C   0  0  0  0  0  0  0  0  0  0  0  0
  187.2430  176.7620  143.9320 N   0  0  0  0  0  0  0  0  0  0  0  0
  188.7480  175.6220  134.6280 C   0  0  0  0  0  2  0  0  0  0  0  0
  190.0320  175.6170  135.3170 N   0  0  0  0  0  2  0  0  0  0  0  0
  189.9140  174.7970  136.4530 N   0  0  0  0  0  2  0  0  0  0  0  0
  191.1050  174.9490  137.2890 C   0  0  2  0  0  3  0  0  0  0  0  0
  191.6740  176.3760  137.2700 C   0  0  0  0  0  2  0  0  0  0  0  0
  193.1080  176.3780  137.7830 C   0  0  0  0  0  2  0  0  0  0  0  0
  192.9950  174.6210  134.9130 F   0  0  0  0  0  0  0  0  0  0  0  0
  193.3540  174.3420  136.2190 C   0  0  2  0  0  3  0  0  0  0  0  0
  192.1400  173.8440  137.0100 C   0  0  0  0  0  2  0  0  0  0  0  0
  194.0230  175.5720  136.8540 C   0  0  0  0  0  2  0  0  0  0  0  0
  181.4130  176.9210  137.4580 C   0  0  0  0  0  2  0  0  0  0  0  0
  180.4730  174.9380  138.6170 C   0  0  0  0  0  3  0  0  0  0  0  0
  180.0940  173.7370  138.6320 O   0  0  0  0  0  0  0  0  0  0  0  0
  180.8550  175.5780  137.3950 N   0  0  0  0  0  0  0  0  0  0  0  0
  180.9390  174.8480  136.1330 C   0  0  0  0  0  2  0  0  0  0  0  0
  183.0170  174.7300  134.7900 C   0  0  0  0  0  1  0  0  0  0  0  0
  182.2830  174.1460  135.9790 C   0  0  2  0  0  3  0  0  0  0  0  0
  182.0890  172.7220  135.7700 N   0  0  0  0  0  1  0  0  0  0  0  0
  1 23  1  0  0  0  0
  2 12  1  0  0  0  0
  3  7  1  0  0  0  0
  3  1  1  1  0  0  0
  4  5  1  0  0  0  0
  5 37  1  6  0  0  0
  5 24  1  0  0  0  0
  6  2  2  0  0  0  0
  7  4  1  6  0  0  0
  8  7  1  0  0  0  0
  9 17  1  0  0  0  0
 10 15  1  0  0  0  0
 11  8  1  0  0  0  0
 13 14  1  0  0  0  0
 14 11  2  0  0  0  0
 14  3  1  0  0  0  0
 15  6  1  0  0  0  0
 15  9  2  0  0  0  0
 16 18  1  0  0  0  0
 16  6  1  0  0  0  0
 17 12  2  0  0  0  0
 18 22  2  0  0  0  0
 19 20  1  1  0  0  0
 19 18  1  0  0  0  0
 20 21  2  0  0  0  0
 21 22  1  0  0  0  0
 22 25  1  0  0  0  0
 23 19  1  0  0  0  0
 24 10  1  0  0  0  0
 25 26  3  0  0  0  0
 27 13  1  0  0  0  0
 27 28  1  0  0  0  0
 28 29  1  0  0  0  0
 30 29  1  6  0  0  0
 31 30  1  0  0  0  0
 31 32  1  0  0  0  0
 34 33  1  6  0  0  0
 34 36  1  0  0  0  0
 34 35  1  0  0  0  0
 35 30  1  0  0  0  0
 36 32  1  0  0  0  0
 38 39  2  0  0  0  0
 40 37  1  0  0  0  0
 40 38  1  0  0  0  0
 41 40  1  0  0  0  0
 43 42  1  6  0  0  0
 43 41  1  0  0  0  0
 44 43  1  0  0  0  0
M  END
>  <MODEL>
7

>  <REMARK>
 VINA RESULT:      -7.2      3.661      8.504
  Name = 
  9 active torsions:
  status: ('A' for Active; 'I' for Inactive)
    1  A    between atoms: C_2  and  N_44
    2  A    between atoms: C_8  and  C_38
    3  A    between atoms: C_13  and  C_41
    4  A    between atoms: C_15  and  C_23
    5  A    between atoms: N_18  and  C_34
    6  A    between atoms: N_18  and  N_44
    7  A    between atoms: C_23  and  N_25
    8  A    between atoms: N_25  and  C_38
    9  A    between atoms: N_26  and  C_34
                            x       y       z     vdW  Elec       q    Type
                         _______ _______ _______ _____ _____    ______ ____

>  <TORSDO>
F 9

$$$$
=
 OpenBabel10222416133D

 44 48  0  0  1  0  0  0  0  0999 V2000
  186.4670  179.1180  140.1480 C   0  0  0  0  0  2  0  0  0  0  0  0
  190.2440  176.7470  136.8130 C   0  0  0  0  0  3  0  0  0  0  0  0
  186.7820  179.0430  141.6460 C   0  0  2  0  0  3  0  0  0  0  0  0
  189.0300  178.5550  142.6510 C   0  0  0  0  0  2  0  0  0  0  0  0
  190.1360  177.5160  142.8420 C   0  0  1  0  0  3  0  0  0  0  0  0
  189.8010  176.9740  138.1210 C   0  0  0  0  0  0  0  0  0  0  0  0
  187.8110  177.9490  141.9570 C   0  0  1  0  0  3  0  0  0  0  0  0
  187.1160  177.0940  142.8570 O   0  0  0  0  0  0  0  0  0  0  0  0
  192.0140  176.4540  138.9650 C   0  0  0  0  0  3  0  0  0  0  0  0
  190.1940  177.0770  140.4780 O   0  0  0  0  0  0  0  0  0  0  0  0
  185.8290  177.5040  143.1000 N   0  0  0  0  0  0  0  0  0  0  0  0
  191.5650  176.3500  136.5860 C   0  0  0  0  0  3  0  0  0  0  0  0
  184.3670  179.2940  142.4980 N   0  0  0  0  0  2  0  0  0  0  0  0
  185.6050  178.5850  142.4390 C   0  0  0  0  0  0  0  0  0  0  0  0
  190.6870  176.8400  139.1940 C   0  0  0  0  0  0  0  0  0  0  0  0
  188.5010  177.4950  138.3950 N   0  0  0  0  0  2  0  0  0  0  0  0
  192.4500  176.2060  137.6590 C   0  0  0  0  0  3  0  0  0  0  0  0
  187.2290  177.1380  137.8460 C   0  0  0  0  0  0  0  0  0  0  0  0
  185.9860  177.8750  138.2080 C   0  0  1  0  0  3  0  0  0  0  0  0
  184.9640  176.9610  137.6060 C   0  0  0  0  0  3  0  0  0  0  0  0
  185.4990  175.9200  137.0530 N   0  0  0  0  0  0  0  0  0  0  0  0
  186.9030  176.0140  137.2190 C   0  0  0  0  0  0  0  0  0  0  0  0
  185.8360  177.8960  139.6560 N   0  0  0  0  0  2  0  0  0  0  0  0
  191.0050  177.3970  141.5940 C   0  0  0  0  0  2  0  0  0  0  0  0
  187.7830  174.9230  136.8950 C   0  0  0  0  0  0  0  0  0  0  0  0
  188.4910  174.0470  136.6290 N   0  0  0  0  0  0  0  0  0  0  0  0
  183.1420  178.6680  142.9740 C   0  0  0  0  0  2  0  0  0  0  0  0
  182.0560  178.8960  142.0290 N   0  0  0  0  0  2  0  0  0  0  0  0
  182.1960  177.9770  140.9750 N   0  0  0  0  0  2  0  0  0  0  0  0
  181.8130  178.6170  139.7170 C   0  0  2  0  0  3  0  0  0  0  0  0
  182.6480  179.8690  139.4010 C   0  0  0  0  0  2  0  0  0  0  0  0
  181.9470  180.7170  138.3470 C   0  0  0  0  0  2  0  0  0  0  0  0
  180.0490  180.6720  141.1280 F   0  0  0  0  0  0  0  0  0  0  0  0
  179.8700  180.2850  139.8120 C   0  0  2  0  0  3  0  0  0  0  0  0
  180.2910  178.8250  139.6240 C   0  0  0  0  0  2  0  0  0  0  0  0
  180.6110  181.2520  138.8740 C   0  0  0  0  0  2  0  0  0  0  0  0
  191.0070  177.9250  144.0180 C   0  0  0  0  0  2  0  0  0  0  0  0
  191.7650  176.4900  145.8960 C   0  0  0  0  0  3  0  0  0  0  0  0
  191.5400  175.7010  146.8510 O   0  0  0  0  0  0  0  0  0  0  0  0
  190.6930  177.1320  145.1980 N   0  0  0  0  0  0  0  0  0  0  0  0
  189.2930  176.8190  145.4750 C   0  0  0  0  0  2  0  0  0  0  0  0
  188.8180  177.4830  147.8130 C   0  0  0  0  0  1  0  0  0  0  0  0
  188.6460  177.8760  146.3610 C   0  0  2  0  0  3  0  0  0  0  0  0
  187.2300  177.9920  146.0600 N   0  0  0  0  0  1  0  0  0  0  0  0
  2  6  1  0  0  0  0
  3  1  1  6  0  0  0
  3  7  1  0  0  0  0
  3 14  1  0  0  0  0
  4  5  1  0  0  0  0
  5 37  1  1  0  0  0
  6 16  1  0  0  0  0
  6 15  2  0  0  0  0
  7  4  1  1  0  0  0
  7  8  1  0  0  0  0
  8 11  1  0  0  0  0
  9 15  1  0  0  0  0
 10 24  1  0  0  0  0
 12  2  2  0  0  0  0
 12 17  1  0  0  0  0
 13 27  1  0  0  0  0
 14 13  1  0  0  0  0
 14 11  2  0  0  0  0
 15 10  1  0  0  0  0
 17  9  2  0  0  0  0
 18 19  1  0  0  0  0
 18 16  1  0  0  0  0
 19 20  1  6  0  0  0
 19 23  1  0  0  0  0
 21 22  1  0  0  0  0
 21 20  2  0  0  0  0
 22 18  2  0  0  0  0
 23  1  1  0  0  0  0
 24  5  1  0  0  0  0
 25 22  1  0  0  0  0
 26 25  3  0  0  0  0
 28 27  1  0  0  0  0
 29 28  1  0  0  0  0
 30 29  1  1  0  0  0
 31 30  1  0  0  0  0
 32 36  1  0  0  0  0
 32 31  1  0  0  0  0
 34 33  1  1  0  0  0
 35 30  1  0  0  0  0
 35 34  1  0  0  0  0
 36 34  1  0  0  0  0
 37 40  1  0  0  0  0
 38 39  2  0  0  0  0
 40 41  1  0  0  0  0
 40 38  1  0  0  0  0
 41 43  1  0  0  0  0
 43 42  1  1  0  0  0
 44 43  1  0  0  0  0
M  END
>  <MODEL>
8

>  <REMARK>
 VINA RESULT:      -6.9      2.892      8.262
  Name = 
  9 active torsions:
  status: ('A' for Active; 'I' for Inactive)
    1  A    between atoms: C_2  and  N_44
    2  A    between atoms: C_8  and  C_38
    3  A    between atoms: C_13  and  C_41
    4  A    between atoms: C_15  and  C_23
    5  A    between atoms: N_18  and  C_34
    6  A    between atoms: N_18  and  N_44
    7  A    between atoms: C_23  and  N_25
    8  A    between atoms: N_25  and  C_38
    9  A    between atoms: N_26  and  C_34
                            x       y       z     vdW  Elec       q    Type
                         _______ _______ _______ _____ _____    ______ ____

>  <TORSDO>
F 9

$$$$
=
 OpenBabel10222416133D

 44 48  0  0  1  0  0  0  0  0999 V2000
  188.4490  179.0030  140.1960 C   0  0  0  0  0  2  0  0  0  0  0  0
  183.2170  178.8430  138.2990 C   0  0  0  0  0  3  0  0  0  0  0  0
  189.4410  178.1050  139.4480 C   0  0  2  0  0  3  0  0  0  0  0  0
  189.0950  177.1180  137.1660 C   0  0  0  0  0  2  0  0  0  0  0  0
  188.2850  176.1360  136.3180 C   0  0  1  0  0  3  0  0  0  0  0  0
  184.5090  178.3110  138.2420 C   0  0  0  0  0  0  0  0  0  0  0  0
  188.7250  177.0110  138.6450 C   0  0  1  0  0  3  0  0  0  0  0  0
  189.2510  175.8080  139.1910 O   0  0  0  0  0  0  0  0  0  0  0  0
  184.0360  177.3870  136.0510 C   0  0  0  0  0  3  0  0  0  0  0  0
  186.2210  177.0830  137.1110 O   0  0  0  0  0  0  0  0  0  0  0  0
  190.1450  176.0280  140.2090 N   0  0  0  0  0  0  0  0  0  0  0  0
  182.3280  178.6260  137.2420 C   0  0  0  0  0  3  0  0  0  0  0  0
  191.1600  177.8650  141.3490 N   0  0  0  0  0  2  0  0  0  0  0  0
  190.2740  177.2960  140.3840 C   0  0  0  0  0  0  0  0  0  0  0  0
  184.9230  177.5940  137.1160 C   0  0  0  0  0  0  0  0  0  0  0  0
  185.4890  178.6050  139.2380 N   0  0  0  0  0  2  0  0  0  0  0  0
  182.7370  177.9010  136.1190 C   0  0  0  0  0  3  0  0  0  0  0  0
  185.3770  178.6270  140.6640 C   0  0  0  0  0  0  0  0  0  0  0  0
  186.5110  179.0510  141.5310 C   0  0  1  0  0  3  0  0  0  0  0  0
  185.9800  178.6370  142.8680 C   0  0  0  0  0  3  0  0  0  0  0  0
  184.8180  178.0720  142.7820 N   0  0  0  0  0  0  0  0  0  0  0  0
  184.4490  178.0440  141.4140 C   0  0  0  0  0  0  0  0  0  0  0  0
  187.6930  178.2660  141.2060 N   0  0  0  0  0  2  0  0  0  0  0  0
  186.9280  176.7210  135.9380 C   0  0  0  0  0  2  0  0  0  0  0  0
  183.3040  177.3070  140.9490 C   0  0  0  0  0  0  0  0  0  0  0  0
  182.3800  176.7170  140.5800 N   0  0  0  0  0  0  0  0  0  0  0  0
  191.6810  177.0930  142.4670 C   0  0  0  0  0  2  0  0  0  0  0  0
  191.7260  177.9120  143.6710 N   0  0  0  0  0  2  0  0  0  0  0  0
  191.5960  177.0600  144.7820 N   0  0  0  0  0  2  0  0  0  0  0  0
  190.7060  177.6760  145.7660 C   0  0  2  0  0  3  0  0  0  0  0  0
  190.3620  176.7380  146.9340 C   0  0  0  0  0  2  0  0  0  0  0  0
  189.1320  177.2490  147.6740 C   0  0  0  0  0  2  0  0  0  0  0  0
  188.2240  176.3780  144.5510 F   0  0  0  0  0  0  0  0  0  0  0  0
  188.1910  177.5450  145.2920 C   0  0  2  0  0  3  0  0  0  0  0  0
  189.4880  178.3360  145.0960 C   0  0  0  0  0  2  0  0  0  0  0  0
  187.8970  177.2250  146.7660 C   0  0  0  0  0  2  0  0  0  0  0  0
  189.0600  175.8130  135.0510 C   0  0  0  0  0  2  0  0  0  0  0  0
  191.1500  174.6060  135.6300 C   0  0  0  0  0  3  0  0  0  0  0  0
  191.8600  173.5670  135.6590 O   0  0  0  0  0  0  0  0  0  0  0  0
  189.7880  174.5600  135.1920 N   0  0  0  0  0  0  0  0  0  0  0  0
  189.1910  173.3430  134.6490 C   0  0  0  0  0  2  0  0  0  0  0  0
  188.2880  172.5470  136.8130 C   0  0  0  0  0  1  0  0  0  0  0  0
  187.9240  172.9560  135.4010 C   0  0  2  0  0  3  0  0  0  0  0  0
  187.2600  171.8480  134.7380 N   0  0  0  0  0  1  0  0  0  0  0  0
  1 23  1  0  0  0  0
  3  1  1  1  0  0  0
  3 14  1  0  0  0  0
  5 37  1  6  0  0  0
  5  4  1  0  0  0  0
  6  2  1  0  0  0  0
  6 16  1  0  0  0  0
  7  4  1  6  0  0  0
  7  8  1  0  0  0  0
  7  3  1  0  0  0  0
  8 11  1  0  0  0  0
  9 17  2  0  0  0  0
  9 15  1  0  0  0  0
 10 15  1  0  0  0  0
 11 14  2  0  0  0  0
 12  2  2  0  0  0  0
 13 27  1  0  0  0  0
 14 13  1  0  0  0  0
 15  6  2  0  0  0  0
 16 18  1  0  0  0  0
 17 12  1  0  0  0  0
 18 22  2  0  0  0  0
 18 19  1  0  0  0  0
 19 20  1  1  0  0  0
 21 20  2  0  0  0  0
 22 21  1  0  0  0  0
 23 19  1  0  0  0  0
 24  5  1  0  0  0  0
 24 10  1  0  0  0  0
 25 22  1  0  0  0  0
 26 25  3  0  0  0  0
 27 28  1  0  0  0  0
 28 29  1  0  0  0  0
 30 29  1  6  0  0  0
 30 31  1  0  0  0  0
 31 32  1  0  0  0  0
 34 33  1  6  0  0  0
 34 36  1  0  0  0  0
 35 34  1  0  0  0  0
 35 30  1  0  0  0  0
 36 32  1  0  0  0  0
 37 40  1  0  0  0  0
 38 39  2  0  0  0  0
 40 38  1  0  0  0  0
 41 40  1  0  0  0  0
 41 43  1  0  0  0  0
 43 42  1  1  0  0  0
 44 43  1  0  0  0  0
M  END
>  <MODEL>
9

>  <REMARK>
 VINA RESULT:      -6.7      2.836      4.904
  Name = 
  9 active torsions:
  status: ('A' for Active; 'I' for Inactive)
    1  A    between atoms: C_2  and  N_44
    2  A    between atoms: C_8  and  C_38
    3  A    between atoms: C_13  and  C_41
    4  A    between atoms: C_15  and  C_23
    5  A    between atoms: N_18  and  C_34
    6  A    between atoms: N_18  and  N_44
    7  A    between atoms: C_23  and  N_25
    8  A    between atoms: N_25  and  C_38
    9  A    between atoms: N_26  and  C_34
                            x       y       z     vdW  Elec       q    Type
                         _______ _______ _______ _____ _____    ______ ____

>  <TORSDO>
F 9

$$$$
