=
 OpenBabel10222417303D

 59 64  0  0  1  0  0  0  0  0999 V2000
  185.1350  177.9100  144.1350 C   0  0  0  0  0  3  0  0  0  0  0  0
  185.2850  177.9050  142.8000 C   0  0  0  0  0  0  0  0  0  0  0  0
  190.4160  178.3540  143.0290 Cl  0  0  0  0  0  0  0  0  0  0  0  0
  187.7530  177.9460  142.6020 C   0  0  0  0  0  3  0  0  0  0  0  0
  187.2440  178.7030  139.6750 C   0  0  0  0  0  3  0  0  0  0  0  0
  188.4260  177.8160  139.5790 C   0  0  0  0  0  0  0  0  0  0  0  0
  189.0230  178.3050  141.9140 C   0  0  2  0  0  3  0  0  0  0  0  0
  186.4390  178.8660  140.7360 C   0  0  0  0  0  3  0  0  0  0  0  0
  186.5530  178.2090  142.0650 C   0  0  0  0  0  0  0  0  0  0  0  0
  189.1990  177.5130  140.6410 C   0  0  0  0  0  0  0  0  0  0  0  0
  189.1160  177.8250  137.1260 C   0  0  0  0  0  0  0  0  0  0  0  0
  188.6350  177.1800  138.3110 N   0  0  0  0  0  2  0  0  0  0  0  0
  189.1500  179.0810  137.0460 O   0  0  0  0  0  0  0  0  0  0  0  0
  189.5480  176.9990  135.9600 C   0  0  0  0  0  2  0  0  0  0  0  0
  187.3840  173.1180  135.4830 N   0  0  0  0  0  0  0  0  0  0  0  0
  186.3470  170.5220  134.9340 C   0  0  0  0  0  2  0  0  0  0  0  0
  190.0130  175.6460  136.4040 C   0  0  0  0  0  0  0  0  0  0  0  0
  191.3030  174.0210  137.1480 C   0  0  0  0  0  3  0  0  0  0  0  0
  190.0600  173.5190  136.8070 C   0  0  0  0  0  3  0  0  0  0  0  0
  185.5110  171.5510  135.6880 C   0  0  0  0  0  2  0  0  0  0  0  0
  191.2780  175.3820  136.8890 C   0  0  0  0  0  3  0  0  0  0  0  0
  185.9420  172.9620  135.2950 C   0  0  0  0  0  2  0  0  0  0  0  0
  188.2640  172.1280  134.8610 C   0  0  0  0  0  2  0  0  0  0  0  0
  187.8260  170.7180  135.2520 C   0  0  0  0  0  2  0  0  0  0  0  0
  189.2790  174.5150  136.3480 N   0  0  0  0  0  0  0  0  0  0  0  0
  187.9080  174.3800  135.9310 C   0  0  0  0  0  0  0  0  0  0  0  0
  187.1440  175.3850  135.9810 O   0  0  0  0  0  0  0  0  0  0  0  0
  191.4650  176.5930  140.1680 C   0  0  0  0  0  1  0  0  0  0  0  0
  190.1020  176.4430  140.5330 O   0  0  0  0  0  0  0  0  0  0  0  0
  187.7250  178.1820  147.5450 C   0  0  0  0  0  0  0  0  0  0  0  0
  188.6640  178.4070  148.6780 C   0  0  0  0  0  1  0  0  0  0  0  0
  187.1060  177.0660  145.3580 C   0  0  0  0  0  2  0  0  0  0  0  0
  185.5090  178.6110  146.4690 C   0  0  0  0  0  2  0  0  0  0  0  0
  188.2290  177.4530  146.3200 C   0  0  0  0  0  2  0  0  0  0  0  0
  186.5200  178.7760  147.5740 C   0  0  0  0  0  3  0  0  0  0  0  0
  186.1790  178.2570  145.1420 C   0  0  2  0  0  3  0  0  0  0  0  0
  184.0520  177.5890  142.0060 C   0  0  0  0  0  2  0  0  0  0  0  0
  183.4640  177.1480  139.1600 C   0  0  0  0  0  1  0  0  0  0  0  0
  183.4070  178.4950  139.7080 N   0  0  0  0  0  0  0  0  0  0  0  0
  183.5700  179.8960  141.5760 O   0  0  0  0  0  0  0  0  0  0  0  0
  183.6490  178.7260  141.1080 C   0  0  0  0  0  0  0  0  0  0  0  0
  184.0440  180.5940  138.8870 O   0  0  0  0  0  1  0  0  0  0  0  0
  183.0790  179.5870  138.7910 C   0  0  2  0  0  3  0  0  0  0  0  0
  181.1450  182.1780  137.6460 C   0  0  0  0  0  0  0  0  0  0  0  0
  181.6490  181.5920  138.8450 N   0  0  0  0  0  2  0  0  0  0  0  0
  181.2760  183.4120  137.4460 O   0  0  0  0  0  0  0  0  0  0  0  0
  181.6800  180.1490  139.0650 C   0  0  1  0  0  3  0  0  0  0  0  0
  179.9300  178.4590  138.7880 C   0  0  0  0  0  2  0  0  0  0  0  0
  180.6270  179.4500  138.2400 C   0  0  0  0  0  0  0  0  0  0  0  0
  180.4700  181.3690  136.6820 N   0  0  0  0  0  2  0  0  0  0  0  0
  180.2680  179.9300  136.8540 C   0  0  1  0  0  3  0  0  0  0  0  0
  182.0210  178.2010  136.2900 C   0  0  0  0  0  2  0  0  0  0  0  0
  179.2310  177.2410  135.3610 C   0  0  0  0  0  3  0  0  0  0  0  0
  179.9310  178.4300  134.7740 C   0  0  0  0  0  2  0  0  0  0  0  0
  180.9240  179.1170  135.7300 C   0  0  1  0  0  3  0  0  0  0  0  0
  179.8310  176.1250  135.7840 C   0  0  0  0  0  0  0  0  0  0  0  0
  182.2430  176.9570  135.4390 C   0  0  0  0  0  2  0  0  0  0  0  0
  178.9750  175.0330  136.3120 C   0  0  0  0  0  1  0  0  0  0  0  0
  181.2550  175.9430  135.7890 N   0  0  0  0  0  2  0  0  0  0  0  0
  2  1  2  0  0  0  0
  5  8  2  0  0  0  0
  6  5  1  0  0  0  0
  6 10  2  0  0  0  0
  7  4  1  0  0  0  0
  7  3  1  1  0  0  0
  8  9  1  0  0  0  0
  9  4  2  0  0  0  0
  9  2  1  0  0  0  0
 10  7  1  0  0  0  0
 11 12  1  0  0  0  0
 12  6  1  0  0  0  0
 13 11  2  0  0  0  0
 14 17  1  0  0  0  0
 14 11  1  0  0  0  0
 15 26  1  0  0  0  0
 16 24  1  0  0  0  0
 16 20  1  0  0  0  0
 17 21  2  0  0  0  0
 19 18  2  0  0  0  0
 21 18  1  0  0  0  0
 22 15  1  0  0  0  0
 22 20  1  0  0  0  0
 23 24  1  0  0  0  0
 23 15  1  0  0  0  0
 25 17  1  0  0  0  0
 25 19  1  0  0  0  0
 26 27  2  0  0  0  0
 26 25  1  0  0  0  0
 28 29  1  0  0  0  0
 29 10  1  0  0  0  0
 30 35  2  0  0  0  0
 30 31  1  0  0  0  0
 32 34  1  0  0  0  0
 33 35  1  0  0  0  0
 34 30  1  0  0  0  0
 36  1  1  6  0  0  0
 36 32  1  0  0  0  0
 36 33  1  0  0  0  0
 37  2  1  0  0  0  0
 38 39  1  0  0  0  0
 39 41  1  0  0  0  0
 41 40  2  0  0  0  0
 41 37  1  0  0  0  0
 43 42  1  1  0  0  0
 43 39  1  0  0  0  0
 44 45  1  0  0  0  0
 45 47  1  0  0  0  0
 46 44  2  0  0  0  0
 47 43  1  6  0  0  0
 49 48  2  0  0  0  0
 49 47  1  0  0  0  0
 50 44  1  0  0  0  0
 51 50  1  1  0  0  0
 51 49  1  0  0  0  0
 53 56  2  0  0  0  0
 54 53  1  0  0  0  0
 55 54  1  1  0  0  0
 55 52  1  0  0  0  0
 55 51  1  0  0  0  0
 56 59  1  0  0  0  0
 56 58  1  0  0  0  0
 57 59  1  0  0  0  0
 57 52  1  0  0  0  0
M  END
>  <MODEL>
1

>  <REMARK>
 VINA RESULT:      -8.3      0.000      0.000
  Name = 
  11 active torsions:
  status: ('A' for Active; 'I' for Inactive)
    1  A    between atoms: O_6  and  C_55
    2  A    between atoms: C_12  and  C_40
    3  A    between atoms: N_18  and  C_48
    4  A    between atoms: N_19  and  C_28
    5  A    between atoms: C_20  and  C_40
    6  A    between atoms: C_24  and  C_48
    7  A    between atoms: C_30  and  C_59
    8  A    between atoms: C_32  and  C_57
    9  A    between atoms: C_34  and  C_43
   10  A    between atoms: C_43  and  C_58
   11  A    between atoms: C_51  and  C_58
                            x       y       z     vdW  Elec       q    Type
                         _______ _______ _______ _____ _____    ______ ____

>  <TORSDO>
F 11

$$$$
=
 OpenBabel10222417303D

 59 64  0  0  1  0  0  0  0  0999 V2000
  185.1670  177.8940  144.0260 C   0  0  0  0  0  3  0  0  0  0  0  0
  185.3220  177.8710  142.6910 C   0  0  0  0  0  0  0  0  0  0  0  0
  190.4620  178.2100  142.9190 Cl  0  0  0  0  0  0  0  0  0  0  0  0
  187.7900  177.8610  142.4910 C   0  0  0  0  0  3  0  0  0  0  0  0
  187.2960  178.6490  139.5700 C   0  0  0  0  0  3  0  0  0  0  0  0
  188.4590  177.7380  139.4670 C   0  0  0  0  0  0  0  0  0  0  0  0
  189.0670  178.1980  141.8050 C   0  0  2  0  0  3  0  0  0  0  0  0
  186.4950  178.8220  140.6330 C   0  0  0  0  0  3  0  0  0  0  0  0
  186.5960  178.1540  141.9580 C   0  0  0  0  0  0  0  0  0  0  0  0
  189.2260  177.4110  140.5260 C   0  0  0  0  0  0  0  0  0  0  0  0
  189.1440  177.7500  137.0120 C   0  0  0  0  0  0  0  0  0  0  0  0
  188.6530  177.1070  138.1940 N   0  0  0  0  0  2  0  0  0  0  0  0
  189.2010  179.0060  136.9410 O   0  0  0  0  0  0  0  0  0  0  0  0
  189.5580  176.9240  135.8400 C   0  0  0  0  0  2  0  0  0  0  0  0
  193.5340  174.9430  136.3280 N   0  0  0  0  0  0  0  0  0  0  0  0
  195.9530  173.6280  137.0590 C   0  0  0  0  0  2  0  0  0  0  0  0
  189.8150  175.5060  136.2480 C   0  0  0  0  0  0  0  0  0  0  0  0
  189.4970  173.4570  136.9960 C   0  0  0  0  0  3  0  0  0  0  0  0
  190.8380  173.6570  136.7200 C   0  0  0  0  0  3  0  0  0  0  0  0
  195.7760  174.2140  135.6610 C   0  0  0  0  0  2  0  0  0  0  0  0
  188.8390  174.6400  136.6970 C   0  0  0  0  0  3  0  0  0  0  0  0
  194.7850  175.3740  135.7040 C   0  0  0  0  0  2  0  0  0  0  0  0
  193.6130  174.2960  137.6370 C   0  0  0  0  0  2  0  0  0  0  0  0
  194.6100  173.1400  137.5920 C   0  0  0  0  0  2  0  0  0  0  0  0
  191.0260  174.9110  136.2700 N   0  0  0  0  0  0  0  0  0  0  0  0
  192.2840  175.4710  135.8490 C   0  0  0  0  0  0  0  0  0  0  0  0
  192.2920  176.4290  135.0260 O   0  0  0  0  0  0  0  0  0  0  0  0
  191.3790  176.3990  139.7890 C   0  0  0  0  0  1  0  0  0  0  0  0
  190.1060  176.3230  140.4100 O   0  0  0  0  0  0  0  0  0  0  0  0
  187.7510  178.1800  147.4380 C   0  0  0  0  0  0  0  0  0  0  0  0
  188.6890  178.4090  148.5720 C   0  0  0  0  0  1  0  0  0  0  0  0
  187.1320  177.0510  145.2580 C   0  0  0  0  0  2  0  0  0  0  0  0
  185.5390  178.6110  146.3550 C   0  0  0  0  0  2  0  0  0  0  0  0
  188.2550  177.4400  146.2200 C   0  0  0  0  0  2  0  0  0  0  0  0
  186.5490  178.7800  147.4610 C   0  0  0  0  0  3  0  0  0  0  0  0
  186.2110  178.2440  145.0310 C   0  0  2  0  0  3  0  0  0  0  0  0
  184.0890  177.5570  141.8960 C   0  0  0  0  0  2  0  0  0  0  0  0
  183.5090  177.2030  139.0360 C   0  0  0  0  0  1  0  0  0  0  0  0
  183.4190  178.5270  139.6320 N   0  0  0  0  0  0  0  0  0  0  0  0
  183.5490  179.8650  141.5480 O   0  0  0  0  0  0  0  0  0  0  0  0
  183.6570  178.7140  141.0390 C   0  0  0  0  0  0  0  0  0  0  0  0
  184.0080  180.6650  138.8770 O   0  0  0  0  0  1  0  0  0  0  0  0
  183.0620  179.6430  138.7550 C   0  0  2  0  0  3  0  0  0  0  0  0
  181.0500  182.2030  137.6760 C   0  0  0  0  0  0  0  0  0  0  0  0
  181.5870  181.6120  138.8590 N   0  0  0  0  0  2  0  0  0  0  0  0
  181.1490  183.4430  137.4930 O   0  0  0  0  0  0  0  0  0  0  0  0
  181.6540  180.1680  139.0580 C   0  0  1  0  0  3  0  0  0  0  0  0
  179.9400  178.4410  138.7820 C   0  0  0  0  0  2  0  0  0  0  0  0
  180.6050  179.4550  138.2380 C   0  0  0  0  0  0  0  0  0  0  0  0
  180.3800  181.3920  136.7110 N   0  0  0  0  0  2  0  0  0  0  0  0
  180.2140  179.9460  136.8650 C   0  0  1  0  0  3  0  0  0  0  0  0
  182.0440  178.3220  136.2390 C   0  0  0  0  0  2  0  0  0  0  0  0
  179.2820  177.1880  135.4320 C   0  0  0  0  0  3  0  0  0  0  0  0
  179.8840  178.4120  134.8090 C   0  0  0  0  0  2  0  0  0  0  0  0
  180.8720  179.1650  135.7200 C   0  0  1  0  0  3  0  0  0  0  0  0
  179.9650  176.1130  135.8360 C   0  0  0  0  0  0  0  0  0  0  0  0
  182.3060  177.0860  135.3870 C   0  0  0  0  0  2  0  0  0  0  0  0
  179.1990  174.9760  136.4050 C   0  0  0  0  0  1  0  0  0  0  0  0
  181.3960  176.0170  135.7830 N   0  0  0  0  0  2  0  0  0  0  0  0
  2  1  2  0  0  0  0
  5  8  2  0  0  0  0
  6  5  1  0  0  0  0
  6 10  2  0  0  0  0
  7  4  1  0  0  0  0
  7  3  1  1  0  0  0
  8  9  1  0  0  0  0
  9  4  2  0  0  0  0
  9  2  1  0  0  0  0
 10  7  1  0  0  0  0
 11 12  1  0  0  0  0
 12  6  1  0  0  0  0
 13 11  2  0  0  0  0
 14 17  1  0  0  0  0
 14 11  1  0  0  0  0
 15 23  1  0  0  0  0
 16 24  1  0  0  0  0
 17 25  1  0  0  0  0
 17 21  2  0  0  0  0
 19 18  2  0  0  0  0
 20 22  1  0  0  0  0
 20 16  1  0  0  0  0
 21 18  1  0  0  0  0
 22 15  1  0  0  0  0
 24 23  1  0  0  0  0
 25 19  1  0  0  0  0
 26 25  1  0  0  0  0
 26 15  1  0  0  0  0
 27 26  2  0  0  0  0
 28 29  1  0  0  0  0
 29 10  1  0  0  0  0
 30 35  2  0  0  0  0
 30 31  1  0  0  0  0
 32 34  1  0  0  0  0
 33 35  1  0  0  0  0
 34 30  1  0  0  0  0
 36  1  1  6  0  0  0
 36 32  1  0  0  0  0
 36 33  1  0  0  0  0
 37  2  1  0  0  0  0
 38 39  1  0  0  0  0
 39 41  1  0  0  0  0
 41 40  2  0  0  0  0
 41 37  1  0  0  0  0
 43 42  1  1  0  0  0
 43 39  1  0  0  0  0
 44 45  1  0  0  0  0
 45 47  1  0  0  0  0
 46 44  2  0  0  0  0
 47 43  1  6  0  0  0
 49 48  2  0  0  0  0
 49 47  1  0  0  0  0
 50 44  1  0  0  0  0
 51 50  1  1  0  0  0
 51 49  1  0  0  0  0
 53 56  2  0  0  0  0
 54 53  1  0  0  0  0
 55 54  1  1  0  0  0
 55 52  1  0  0  0  0
 55 51  1  0  0  0  0
 56 58  1  0  0  0  0
 57 59  1  0  0  0  0
 57 52  1  0  0  0  0
 59 56  1  0  0  0  0
M  END
>  <MODEL>
2

>  <REMARK>
 VINA RESULT:      -8.1      1.445      2.932
  Name = 
  11 active torsions:
  status: ('A' for Active; 'I' for Inactive)
    1  A    between atoms: O_6  and  C_55
    2  A    between atoms: C_12  and  C_40
    3  A    between atoms: N_18  and  C_48
    4  A    between atoms: N_19  and  C_28
    5  A    between atoms: C_20  and  C_40
    6  A    between atoms: C_24  and  C_48
    7  A    between atoms: C_30  and  C_59
    8  A    between atoms: C_32  and  C_57
    9  A    between atoms: C_34  and  C_43
   10  A    between atoms: C_43  and  C_58
   11  A    between atoms: C_51  and  C_58
                            x       y       z     vdW  Elec       q    Type
                         _______ _______ _______ _____ _____    ______ ____

>  <TORSDO>
F 11

$$$$
=
 OpenBabel10222417303D

 59 64  0  0  1  0  0  0  0  0999 V2000
  184.2900  178.5270  143.3430 C   0  0  0  0  0  3  0  0  0  0  0  0
  184.2590  178.6690  142.0070 C   0  0  0  0  0  0  0  0  0  0  0  0
  189.3820  179.1380  141.6830 Cl  0  0  0  0  0  0  0  0  0  0  0  0
  186.7000  178.6520  141.5940 C   0  0  0  0  0  3  0  0  0  0  0  0
  185.9340  178.7040  138.6260 C   0  0  0  0  0  3  0  0  0  0  0  0
  187.1170  177.8130  138.6390 C   0  0  0  0  0  0  0  0  0  0  0  0
  187.9010  178.8340  140.7350 C   0  0  2  0  0  3  0  0  0  0  0  0
  185.2180  179.1150  139.6840 C   0  0  0  0  0  3  0  0  0  0  0  0
  185.4550  178.7870  141.1160 C   0  0  0  0  0  0  0  0  0  0  0  0
  187.9820  177.7650  139.6720 C   0  0  0  0  0  0  0  0  0  0  0  0
  186.1470  176.1600  136.9600 C   0  0  0  0  0  0  0  0  0  0  0  0
  187.2280  176.8980  137.5420 N   0  0  0  0  0  2  0  0  0  0  0  0
  185.0390  176.0710  137.5510 O   0  0  0  0  0  0  0  0  0  0  0  0
  186.3480  175.4590  135.6580 C   0  0  0  0  0  2  0  0  0  0  0  0
  190.7810  174.8950  135.5950 N   0  0  0  0  0  0  0  0  0  0  0  0
  193.5620  174.4020  135.9710 C   0  0  0  0  0  2  0  0  0  0  0  0
  187.0970  174.1760  135.8490 C   0  0  0  0  0  0  0  0  0  0  0  0
  187.5480  172.0730  136.3300 C   0  0  0  0  0  3  0  0  0  0  0  0
  188.7130  172.7410  135.9920 C   0  0  0  0  0  3  0  0  0  0  0  0
  193.0510  175.0390  134.6820 C   0  0  0  0  0  2  0  0  0  0  0  0
  186.5130  172.9890  136.2420 C   0  0  0  0  0  3  0  0  0  0  0  0
  191.7460  175.7850  134.9510 C   0  0  0  0  0  2  0  0  0  0  0  0
  191.2110  174.1770  136.7950 C   0  0  0  0  0  2  0  0  0  0  0  0
  192.5180  173.4360  136.5240 C   0  0  0  0  0  2  0  0  0  0  0  0
  188.4310  174.0260  135.7060 N   0  0  0  0  0  0  0  0  0  0  0  0
  189.3830  175.0180  135.2800 C   0  0  0  0  0  0  0  0  0  0  0  0
  188.9870  176.0040  134.5970 O   0  0  0  0  0  0  0  0  0  0  0  0
  190.2410  176.7780  139.3170 C   0  0  0  0  0  1  0  0  0  0  0  0
  188.8900  176.6960  139.7400 O   0  0  0  0  0  0  0  0  0  0  0  0
  187.2970  177.7750  146.3100 C   0  0  0  0  0  0  0  0  0  0  0  0
  188.4020  177.6380  147.2970 C   0  0  0  0  0  1  0  0  0  0  0  0
  186.1520  177.1220  144.1470 C   0  0  0  0  0  2  0  0  0  0  0  0
  185.1210  178.8130  145.6470 C   0  0  0  0  0  2  0  0  0  0  0  0
  187.4510  177.1240  144.9540 C   0  0  0  0  0  2  0  0  0  0  0  0
  186.2790  178.6070  146.5890 C   0  0  0  0  0  3  0  0  0  0  0  0
  185.5100  178.5030  144.2010 C   0  0  2  0  0  3  0  0  0  0  0  0
  182.8930  178.7370  141.3910 C   0  0  0  0  0  2  0  0  0  0  0  0
  181.6250  179.5510  138.8670 C   0  0  0  0  0  1  0  0  0  0  0  0
  182.0740  178.1780  139.0390 N   0  0  0  0  0  0  0  0  0  0  0  0
  183.1450  176.5820  140.3750 O   0  0  0  0  0  0  0  0  0  0  0  0
  182.7360  177.7700  140.2500 C   0  0  0  0  0  0  0  0  0  0  0  0
  182.2230  177.8390  136.7260 O   0  0  0  0  0  1  0  0  0  0  0  0
  181.8450  177.2460  137.9340 C   0  0  2  0  0  3  0  0  0  0  0  0
  179.4200  176.8670  135.5370 C   0  0  0  0  0  0  0  0  0  0  0  0
  179.6670  177.4720  136.8060 N   0  0  0  0  0  2  0  0  0  0  0  0
  178.9310  177.5490  134.6010 O   0  0  0  0  0  0  0  0  0  0  0  0
  180.3820  176.7890  137.8790 C   0  0  1  0  0  3  0  0  0  0  0  0
  180.0730  174.5530  138.8280 C   0  0  0  0  0  2  0  0  0  0  0  0
  180.2720  175.2900  137.7390 C   0  0  0  0  0  0  0  0  0  0  0  0
  179.7060  175.4830  135.3350 N   0  0  0  0  0  2  0  0  0  0  0  0
  180.2630  174.6260  136.3830 C   0  0  1  0  0  3  0  0  0  0  0  0
  182.2230  173.2250  137.1390 C   0  0  0  0  0  2  0  0  0  0  0  0
  180.9190  171.9750  134.6280 C   0  0  0  0  0  3  0  0  0  0  0  0
  181.6160  173.3030  134.6210 C   0  0  0  0  0  2  0  0  0  0  0  0
  181.6160  174.0260  135.9810 C   0  0  1  0  0  3  0  0  0  0  0  0
  181.2800  170.9190  135.3620 C   0  0  0  0  0  0  0  0  0  0  0  0
  183.1520  172.1130  136.6660 C   0  0  0  0  0  2  0  0  0  0  0  0
  180.4890  169.6710  135.2220 C   0  0  0  0  0  1  0  0  0  0  0  0
  182.3650  170.9400  136.3030 N   0  0  0  0  0  2  0  0  0  0  0  0
  2  1  2  0  0  0  0
  5  6  1  0  0  0  0
  5  8  2  0  0  0  0
  6 10  2  0  0  0  0
  7  4  1  0  0  0  0
  7  3  1  1  0  0  0
  8  9  1  0  0  0  0
  9  4  2  0  0  0  0
  9  2  1  0  0  0  0
 10 29  1  0  0  0  0
 10  7  1  0  0  0  0
 11 12  1  0  0  0  0
 11 13  2  0  0  0  0
 12  6  1  0  0  0  0
 14 17  1  0  0  0  0
 14 11  1  0  0  0  0
 15 23  1  0  0  0  0
 16 24  1  0  0  0  0
 17 21  2  0  0  0  0
 19 18  2  0  0  0  0
 20 22  1  0  0  0  0
 20 16  1  0  0  0  0
 21 18  1  0  0  0  0
 22 15  1  0  0  0  0
 24 23  1  0  0  0  0
 25 17  1  0  0  0  0
 25 19  1  0  0  0  0
 26 15  1  0  0  0  0
 26 25  1  0  0  0  0
 27 26  2  0  0  0  0
 28 29  1  0  0  0  0
 30 35  2  0  0  0  0
 30 31  1  0  0  0  0
 32 36  1  0  0  0  0
 32 34  1  0  0  0  0
 33 35  1  0  0  0  0
 34 30  1  0  0  0  0
 36  1  1  6  0  0  0
 36 33  1  0  0  0  0
 37  2  1  0  0  0  0
 38 39  1  0  0  0  0
 39 41  1  0  0  0  0
 41 40  2  0  0  0  0
 41 37  1  0  0  0  0
 43 42  1  6  0  0  0
 43 39  1  0  0  0  0
 44 45  1  0  0  0  0
 45 47  1  0  0  0  0
 46 44  2  0  0  0  0
 47 43  1  6  0  0  0
 49 47  1  0  0  0  0
 49 48  2  0  0  0  0
 50 44  1  0  0  0  0
 51 50  1  6  0  0  0
 51 49  1  0  0  0  0
 53 56  2  0  0  0  0
 54 53  1  0  0  0  0
 55 54  1  6  0  0  0
 55 51  1  0  0  0  0
 55 52  1  0  0  0  0
 56 59  1  0  0  0  0
 57 52  1  0  0  0  0
 58 56  1  0  0  0  0
 59 57  1  0  0  0  0
M  END
>  <MODEL>
3

>  <REMARK>
 VINA RESULT:      -8.0      2.368      3.929
  Name = 
  11 active torsions:
  status: ('A' for Active; 'I' for Inactive)
    1  A    between atoms: O_6  and  C_55
    2  A    between atoms: C_12  and  C_40
    3  A    between atoms: N_18  and  C_48
    4  A    between atoms: N_19  and  C_28
    5  A    between atoms: C_20  and  C_40
    6  A    between atoms: C_24  and  C_48
    7  A    between atoms: C_30  and  C_59
    8  A    between atoms: C_32  and  C_57
    9  A    between atoms: C_34  and  C_43
   10  A    between atoms: C_43  and  C_58
   11  A    between atoms: C_51  and  C_58
                            x       y       z     vdW  Elec       q    Type
                         _______ _______ _______ _____ _____    ______ ____

>  <TORSDO>
F 11

$$$$
=
 OpenBabel10222417303D

 59 64  0  0  1  0  0  0  0  0999 V2000
  186.0240  177.8210  144.6610 C   0  0  0  0  0  3  0  0  0  0  0  0
  186.1050  177.8010  143.3190 C   0  0  0  0  0  0  0  0  0  0  0  0
  191.2260  178.3880  143.2530 Cl  0  0  0  0  0  0  0  0  0  0  0  0
  188.5540  177.9100  142.9790 C   0  0  0  0  0  3  0  0  0  0  0  0
  187.8560  178.6730  140.0930 C   0  0  0  0  0  3  0  0  0  0  0  0
  189.0530  177.8190  139.9200 C   0  0  0  0  0  0  0  0  0  0  0  0
  189.7720  178.3080  142.2210 C   0  0  2  0  0  3  0  0  0  0  0  0
  187.1100  178.8080  141.2000 C   0  0  0  0  0  3  0  0  0  0  0  0
  187.3190  178.1450  142.5150 C   0  0  0  0  0  0  0  0  0  0  0  0
  189.8950  177.5300  140.9340 C   0  0  0  0  0  0  0  0  0  0  0  0
  189.3210  177.8870  137.3870 C   0  0  0  0  0  0  0  0  0  0  0  0
  189.2040  177.1980  138.6370 N   0  0  0  0  0  2  0  0  0  0  0  0
  189.0380  179.1110  137.3000 O   0  0  0  0  0  0  0  0  0  0  0  0
  189.7480  177.1390  136.1690 C   0  0  0  0  0  2  0  0  0  0  0  0
  186.7490  173.8820  135.5570 N   0  0  0  0  0  0  0  0  0  0  0  0
  185.1300  171.6360  134.8870 C   0  0  0  0  0  2  0  0  0  0  0  0
  189.9240  175.6820  136.4690 C   0  0  0  0  0  0  0  0  0  0  0  0
  190.8610  173.7540  136.9830 C   0  0  0  0  0  3  0  0  0  0  0  0
  189.5190  173.5670  136.7000 C   0  0  0  0  0  3  0  0  0  0  0  0
  184.5890  172.7470  135.7820 C   0  0  0  0  0  2  0  0  0  0  0  0
  191.1240  175.1060  136.8330 C   0  0  0  0  0  3  0  0  0  0  0  0
  185.3000  174.0610  135.4680 C   0  0  0  0  0  2  0  0  0  0  0  0
  187.3490  172.7870  134.7940 C   0  0  0  0  0  2  0  0  0  0  0  0
  186.6310  171.4760  135.1060 C   0  0  0  0  0  2  0  0  0  0  0  0
  188.9550  174.7470  136.3810 N   0  0  0  0  0  0  0  0  0  0  0  0
  187.5670  174.9530  136.0610 C   0  0  0  0  0  0  0  0  0  0  0  0
  187.0490  176.0900  136.2470 O   0  0  0  0  0  0  0  0  0  0  0  0
  192.0810  176.6410  140.1370 C   0  0  0  0  0  1  0  0  0  0  0  0
  190.8180  176.4860  140.7640 O   0  0  0  0  0  0  0  0  0  0  0  0
  188.8370  178.1940  147.8790 C   0  0  0  0  0  0  0  0  0  0  0  0
  189.8350  178.4600  148.9510 C   0  0  0  0  0  1  0  0  0  0  0  0
  188.1630  177.1330  145.6810 C   0  0  0  0  0  2  0  0  0  0  0  0
  186.5100  178.4370  146.9980 C   0  0  0  0  0  2  0  0  0  0  0  0
  189.3140  177.5880  146.5780 C   0  0  0  0  0  2  0  0  0  0  0  0
  187.5830  178.6530  148.0330 C   0  0  0  0  0  3  0  0  0  0  0  0
  187.1040  178.2260  145.6060 C   0  0  2  0  0  3  0  0  0  0  0  0
  184.8460  177.4230  142.5970 C   0  0  0  0  0  2  0  0  0  0  0  0
  182.5940  177.1600  140.7250 C   0  0  0  0  0  1  0  0  0  0  0  0
  183.0080  178.4810  141.1740 N   0  0  0  0  0  0  0  0  0  0  0  0
  184.4110  179.7780  142.5260 O   0  0  0  0  0  0  0  0  0  0  0  0
  184.0800  178.6280  142.1240 C   0  0  0  0  0  0  0  0  0  0  0  0
  180.9360  179.3130  140.4680 O   0  0  0  0  0  1  0  0  0  0  0  0
  182.2850  179.6360  140.6410 C   0  0  2  0  0  3  0  0  0  0  0  0
  184.4320  178.4100  138.2630 C   0  0  0  0  0  0  0  0  0  0  0  0
  184.2170  179.5330  139.1170 N   0  0  0  0  0  2  0  0  0  0  0  0
  185.5570  177.8500  138.2340 O   0  0  0  0  0  0  0  0  0  0  0  0
  182.8990  180.1250  139.3240 C   0  0  1  0  0  3  0  0  0  0  0  0
  181.1960  180.8250  137.7110 C   0  0  0  0  0  2  0  0  0  0  0  0
  181.9890  179.8530  138.1510 C   0  0  0  0  0  0  0  0  0  0  0  0
  183.3780  177.9350  137.4250 N   0  0  0  0  0  2  0  0  0  0  0  0
  182.0490  178.5470  137.3960 C   0  0  1  0  0  3  0  0  0  0  0  0
  179.7320  177.6910  136.8680 C   0  0  0  0  0  2  0  0  0  0  0  0
  181.7820  175.3770  136.7510 C   0  0  0  0  0  2  0  0  0  0  0  0
  181.4380  176.1110  138.0130 C   0  0  0  0  0  2  0  0  0  0  0  0
  180.9480  177.5540  137.7930 C   0  0  1  0  0  3  0  0  0  0  0  0
  180.9260  175.0990  135.7640 C   0  0  0  0  0  0  0  0  0  0  0  0
  178.9330  176.3990  136.7480 C   0  0  0  0  0  2  0  0  0  0  0  0
  181.4340  174.3360  134.5970 C   0  0  0  0  0  1  0  0  0  0  0  0
  179.5560  175.5300  135.7560 N   0  0  0  0  0  0  0  0  0  0  0  0
  2  1  2  0  0  0  0
  5  8  2  0  0  0  0
  6  5  1  0  0  0  0
  6 10  2  0  0  0  0
  7  4  1  0  0  0  0
  7  3  1  1  0  0  0
  8  9  1  0  0  0  0
  9  4  2  0  0  0  0
  9  2  1  0  0  0  0
 10  7  1  0  0  0  0
 11 12  1  0  0  0  0
 12  6  1  0  0  0  0
 13 11  2  0  0  0  0
 14 17  1  0  0  0  0
 14 11  1  0  0  0  0
 15 26  1  0  0  0  0
 16 24  1  0  0  0  0
 16 20  1  0  0  0  0
 17 21  2  0  0  0  0
 19 18  2  0  0  0  0
 21 18  1  0  0  0  0
 22 15  1  0  0  0  0
 22 20  1  0  0  0  0
 23 24  1  0  0  0  0
 23 15  1  0  0  0  0
 25 17  1  0  0  0  0
 25 19  1  0  0  0  0
 26 27  2  0  0  0  0
 26 25  1  0  0  0  0
 28 29  1  0  0  0  0
 29 10  1  0  0  0  0
 30 35  2  0  0  0  0
 30 31  1  0  0  0  0
 32 34  1  0  0  0  0
 33 35  1  0  0  0  0
 34 30  1  0  0  0  0
 36  1  1  6  0  0  0
 36 32  1  0  0  0  0
 36 33  1  0  0  0  0
 37  2  1  0  0  0  0
 38 39  1  0  0  0  0
 39 41  1  0  0  0  0
 41 40  2  0  0  0  0
 41 37  1  0  0  0  0
 43 42  1  6  0  0  0
 43 39  1  0  0  0  0
 44 45  1  0  0  0  0
 45 47  1  0  0  0  0
 46 44  2  0  0  0  0
 47 43  1  1  0  0  0
 48 49  2  0  0  0  0
 49 47  1  0  0  0  0
 50 44  1  0  0  0  0
 51 50  1  1  0  0  0
 51 55  1  0  0  0  0
 51 49  1  0  0  0  0
 53 54  1  0  0  0  0
 55 52  1  6  0  0  0
 55 54  1  0  0  0  0
 56 53  1  0  0  0  0
 57 52  1  0  0  0  0
 58 56  1  0  0  0  0
 59 56  2  0  0  0  0
 59 57  1  0  0  0  0
M  END
>  <MODEL>
4

>  <REMARK>
 VINA RESULT:      -7.4      1.515      2.070
  Name = 
  11 active torsions:
  status: ('A' for Active; 'I' for Inactive)
    1  A    between atoms: O_6  and  C_55
    2  A    between atoms: C_12  and  C_40
    3  A    between atoms: N_18  and  C_48
    4  A    between atoms: N_19  and  C_28
    5  A    between atoms: C_20  and  C_40
    6  A    between atoms: C_24  and  C_48
    7  A    between atoms: C_30  and  C_59
    8  A    between atoms: C_32  and  C_57
    9  A    between atoms: C_34  and  C_43
   10  A    between atoms: C_43  and  C_58
   11  A    between atoms: C_51  and  C_58
                            x       y       z     vdW  Elec       q    Type
                         _______ _______ _______ _____ _____    ______ ____

>  <TORSDO>
F 11

$$$$
=
 OpenBabel10222417303D

 59 64  0  0  1  0  0  0  0  0999 V2000
  188.2610  178.0540  139.4040 C   0  0  0  0  0  3  0  0  0  0  0  0
  189.4120  177.3950  139.1850 C   0  0  0  0  0  0  0  0  0  0  0  0
  192.4800  173.8830  136.9870 Cl  0  0  0  0  0  0  0  0  0  0  0  0
  190.5900  175.5750  137.9890 C   0  0  0  0  0  3  0  0  0  0  0  0
  188.7870  176.3180  135.6230 C   0  0  0  0  0  3  0  0  0  0  0  0
  188.8640  174.8420  135.5200 C   0  0  0  0  0  0  0  0  0  0  0  0
  190.9880  174.8350  136.7600 C   0  0  2  0  0  3  0  0  0  0  0  0
  189.1590  177.0770  136.6650 C   0  0  0  0  0  3  0  0  0  0  0  0
  189.7490  176.6180  137.9510 C   0  0  0  0  0  0  0  0  0  0  0  0
  189.8100  174.1160  136.1490 C   0  0  0  0  0  0  0  0  0  0  0  0
  186.6870  173.5210  135.4240 C   0  0  0  0  0  0  0  0  0  0  0  0
  187.7900  174.2030  134.8170 N   0  0  0  0  0  2  0  0  0  0  0  0
  186.7170  173.2080  136.6430 O   0  0  0  0  0  0  0  0  0  0  0  0
  185.5050  173.1440  134.5940 C   0  0  0  0  0  2  0  0  0  0  0  0
  181.5800  173.2610  136.7280 N   0  0  0  0  0  0  0  0  0  0  0  0
  178.9350  173.0720  137.7670 C   0  0  0  0  0  2  0  0  0  0  0  0
  184.7720  171.9860  135.1980 C   0  0  0  0  0  0  0  0  0  0  0  0
  184.1900  169.9250  135.7180 C   0  0  0  0  0  3  0  0  0  0  0  0
  183.2890  170.8230  136.2640 C   0  0  0  0  0  3  0  0  0  0  0  0
  179.9580  174.0060  138.4060 C   0  0  0  0  0  2  0  0  0  0  0  0
  185.1390  170.6660  135.0330 C   0  0  0  0  0  3  0  0  0  0  0  0
  180.9910  174.4360  137.3670 C   0  0  0  0  0  2  0  0  0  0  0  0
  180.6710  172.2670  136.1560 C   0  0  0  0  0  2  0  0  0  0  0  0
  179.6360  171.8430  137.1960 C   0  0  0  0  0  2  0  0  0  0  0  0
  183.6470  172.0780  135.9370 N   0  0  0  0  0  0  0  0  0  0  0  0
  182.9690  173.2790  136.3530 C   0  0  0  0  0  0  0  0  0  0  0  0
  183.6120  174.3640  136.4140 O   0  0  0  0  0  0  0  0  0  0  0  0
  189.4330  171.8730  135.1320 C   0  0  0  0  0  1  0  0  0  0  0  0
  189.6350  172.7250  136.2480 O   0  0  0  0  0  0  0  0  0  0  0  0
  184.4490  177.6670  137.4740 C   0  0  0  0  0  0  0  0  0  0  0  0
  183.1920  177.5760  136.6820 C   0  0  0  0  0  1  0  0  0  0  0  0
  185.9270  178.8210  139.1760 C   0  0  0  0  0  2  0  0  0  0  0  0
  186.6500  176.6830  138.1370 C   0  0  0  0  0  2  0  0  0  0  0  0
  184.7530  178.9550  138.2060 C   0  0  0  0  0  2  0  0  0  0  0  0
  185.3490  176.6730  137.3780 C   0  0  0  0  0  3  0  0  0  0  0  0
  187.0850  178.1060  138.4890 C   0  0  2  0  0  3  0  0  0  0  0  0
  190.4120  177.4410  140.3020 C   0  0  0  0  0  2  0  0  0  0  0  0
  191.6700  176.9750  142.9180 C   0  0  0  0  0  1  0  0  0  0  0  0
  190.4370  177.7430  142.8370 N   0  0  0  0  0  0  0  0  0  0  0  0
  188.7740  178.7100  141.5040 O   0  0  0  0  0  0  0  0  0  0  0  0
  189.8290  178.0190  141.5620 C   0  0  0  0  0  0  0  0  0  0  0  0
  190.8500  178.8510  144.8580 O   0  0  0  0  0  1  0  0  0  0  0  0
  189.8600  178.2340  144.0890 C   0  0  2  0  0  3  0  0  0  0  0  0
  188.0520  177.9250  146.9880 C   0  0  0  0  0  0  0  0  0  0  0  0
  189.1900  177.3980  146.3070 N   0  0  0  0  0  2  0  0  0  0  0  0
  188.1530  178.2980  148.1850 O   0  0  0  0  0  0  0  0  0  0  0  0
  189.1860  177.1040  144.8780 C   0  0  1  0  0  3  0  0  0  0  0  0
  187.5890  175.8460  143.5140 C   0  0  0  0  0  2  0  0  0  0  0  0
  187.7870  176.8350  144.3790 C   0  0  0  0  0  0  0  0  0  0  0  0
  186.7930  178.0110  146.3200 N   0  0  0  0  0  2  0  0  0  0  0  0
  186.5980  177.5840  144.9340 C   0  0  1  0  0  3  0  0  0  0  0  0
  185.6630  178.2050  142.6720 C   0  0  0  0  0  2  0  0  0  0  0  0
  183.7610  179.1600  144.9160 C   0  0  0  0  0  2  0  0  0  0  0  0
  185.1420  179.7100  144.7160 C   0  0  0  0  0  2  0  0  0  0  0  0
  186.1210  178.7330  144.0370 C   0  0  1  0  0  3  0  0  0  0  0  0
  182.9370  178.7740  143.9390 C   0  0  0  0  0  0  0  0  0  0  0  0
  184.6160  179.0950  142.0140 C   0  0  0  0  0  2  0  0  0  0  0  0
  181.5900  178.2800  144.3200 C   0  0  0  0  0  1  0  0  0  0  0  0
  183.2970  178.7770  142.5490 N   0  0  0  0  0  0  0  0  0  0  0  0
  2  1  2  0  0  0  0
  2 37  1  0  0  0  0
  5  8  2  0  0  0  0
  6  5  1  0  0  0  0
  6 10  2  0  0  0  0
  7  3  1  1  0  0  0
  7  4  1  0  0  0  0
  8  9  1  0  0  0  0
  9  4  2  0  0  0  0
  9  2  1  0  0  0  0
 10 29  1  0  0  0  0
 10  7  1  0  0  0  0
 11 13  2  0  0  0  0
 12 11  1  0  0  0  0
 12  6  1  0  0  0  0
 14 17  1  0  0  0  0
 14 11  1  0  0  0  0
 15 22  1  0  0  0  0
 16 20  1  0  0  0  0
 17 25  1  0  0  0  0
 18 19  2  0  0  0  0
 21 17  2  0  0  0  0
 21 18  1  0  0  0  0
 22 20  1  0  0  0  0
 23 15  1  0  0  0  0
 23 24  1  0  0  0  0
 24 16  1  0  0  0  0
 25 19  1  0  0  0  0
 25 26  1  0  0  0  0
 26 27  2  0  0  0  0
 26 15  1  0  0  0  0
 28 29  1  0  0  0  0
 30 34  1  0  0  0  0
 31 30  1  0  0  0  0
 33 36  1  0  0  0  0
 34 32  1  0  0  0  0
 35 30  2  0  0  0  0
 35 33  1  0  0  0  0
 36 32  1  0  0  0  0
 36  1  1  1  0  0  0
 37 41  1  0  0  0  0
 39 38  1  0  0  0  0
 39 43  1  0  0  0  0
 40 41  2  0  0  0  0
 41 39  1  0  0  0  0
 43 42  1  1  0  0  0
 44 46  2  0  0  0  0
 45 44  1  0  0  0  0
 47 43  1  6  0  0  0
 47 45  1  0  0  0  0
 48 49  2  0  0  0  0
 49 47  1  0  0  0  0
 50 44  1  0  0  0  0
 51 49  1  6  0  0  0
 51 50  1  0  0  0  0
 54 53  1  0  0  0  0
 55 52  1  6  0  0  0
 55 54  1  0  0  0  0
 55 51  1  0  0  0  0
 56 58  1  0  0  0  0
 56 53  1  0  0  0  0
 57 59  1  0  0  0  0
 57 52  1  0  0  0  0
 59 56  2  0  0  0  0
M  END
>  <MODEL>
5

>  <REMARK>
 VINA RESULT:      -7.4      3.059      8.125
  Name = 
  11 active torsions:
  status: ('A' for Active; 'I' for Inactive)
    1  A    between atoms: O_6  and  C_55
    2  A    between atoms: C_12  and  C_40
    3  A    between atoms: N_18  and  C_48
    4  A    between atoms: N_19  and  C_28
    5  A    between atoms: C_20  and  C_40
    6  A    between atoms: C_24  and  C_48
    7  A    between atoms: C_30  and  C_59
    8  A    between atoms: C_32  and  C_57
    9  A    between atoms: C_34  and  C_43
   10  A    between atoms: C_43  and  C_58
   11  A    between atoms: C_51  and  C_58
                            x       y       z     vdW  Elec       q    Type
                         _______ _______ _______ _____ _____    ______ ____

>  <TORSDO>
F 11

$$$$
=
 OpenBabel10222417303D

 59 64  0  0  1  0  0  0  0  0999 V2000
  185.0950  177.7920  144.4620 C   0  0  0  0  0  3  0  0  0  0  0  0
  185.1170  177.8010  143.1180 C   0  0  0  0  0  0  0  0  0  0  0  0
  190.2030  178.5840  142.7980 Cl  0  0  0  0  0  0  0  0  0  0  0  0
  187.5370  178.0240  142.6460 C   0  0  0  0  0  3  0  0  0  0  0  0
  186.6440  178.9340  139.8590 C   0  0  0  0  0  3  0  0  0  0  0  0
  187.8570  178.1380  139.5650 C   0  0  0  0  0  0  0  0  0  0  0  0
  188.6940  178.5130  141.8470 C   0  0  2  0  0  3  0  0  0  0  0  0
  185.9600  178.9720  141.0130 C   0  0  0  0  0  3  0  0  0  0  0  0
  186.2700  178.2390  142.2700 C   0  0  0  0  0  0  0  0  0  0  0  0
  188.7670  177.8200  140.5080 C   0  0  0  0  0  0  0  0  0  0  0  0
  188.8370  178.0710  137.2130 C   0  0  0  0  0  0  0  0  0  0  0  0
  187.9530  177.6020  138.2380 N   0  0  0  0  0  2  0  0  0  0  0  0
  189.4260  179.1780  137.3300 O   0  0  0  0  0  0  0  0  0  0  0  0
  189.0320  177.2560  135.9780 C   0  0  0  0  0  2  0  0  0  0  0  0
  186.9280  173.3320  135.5880 N   0  0  0  0  0  0  0  0  0  0  0  0
  185.9030  170.7290  135.0520 C   0  0  0  0  0  2  0  0  0  0  0  0
  189.5800  175.9020  136.3100 C   0  0  0  0  0  0  0  0  0  0  0  0
  190.9880  174.2900  136.8360 C   0  0  0  0  0  3  0  0  0  0  0  0
  189.7270  173.7630  136.6170 C   0  0  0  0  0  3  0  0  0  0  0  0
  185.1320  171.7030  135.9380 C   0  0  0  0  0  2  0  0  0  0  0  0
  190.8980  175.6580  136.6380 C   0  0  0  0  0  3  0  0  0  0  0  0
  185.4790  173.1400  135.5580 C   0  0  0  0  0  2  0  0  0  0  0  0
  187.7570  172.3940  134.8300 C   0  0  0  0  0  2  0  0  0  0  0  0
  187.4030  170.9580  135.2090 C   0  0  0  0  0  2  0  0  0  0  0  0
  188.8740  174.7520  136.2910 N   0  0  0  0  0  0  0  0  0  0  0  0
  187.4680  174.5920  136.0260 C   0  0  0  0  0  0  0  0  0  0  0  0
  186.6880  175.5700  136.2040 O   0  0  0  0  0  0  0  0  0  0  0  0
  191.0840  177.0860  139.9640 C   0  0  0  0  0  1  0  0  0  0  0  0
  189.7140  176.8230  140.2210 O   0  0  0  0  0  0  0  0  0  0  0  0
  188.0050  178.3070  147.5730 C   0  0  0  0  0  0  0  0  0  0  0  0
  189.0270  178.6230  148.6080 C   0  0  0  0  0  1  0  0  0  0  0  0
  187.3050  177.2160  145.3980 C   0  0  0  0  0  2  0  0  0  0  0  0
  185.6360  178.4280  146.7820 C   0  0  0  0  0  2  0  0  0  0  0  0
  188.4630  177.7300  146.2530 C   0  0  0  0  0  2  0  0  0  0  0  0
  186.7350  178.6980  147.7770 C   0  0  0  0  0  3  0  0  0  0  0  0
  186.1870  178.2520  145.3680 C   0  0  2  0  0  3  0  0  0  0  0  0
  183.8550  177.3530  142.4430 C   0  0  0  0  0  2  0  0  0  0  0  0
  182.8620  176.9980  139.6990 C   0  0  0  0  0  1  0  0  0  0  0  0
  182.7350  178.2930  140.3500 N   0  0  0  0  0  0  0  0  0  0  0  0
  183.0350  179.5970  142.2710 O   0  0  0  0  0  0  0  0  0  0  0  0
  183.1760  178.4750  141.7080 C   0  0  0  0  0  0  0  0  0  0  0  0
  182.5140  180.6130  140.1220 O   0  0  0  0  0  1  0  0  0  0  0  0
  182.1310  179.3820  139.5820 C   0  0  2  0  0  3  0  0  0  0  0  0
  179.4320  181.3280  140.4160 C   0  0  0  0  0  0  0  0  0  0  0  0
  179.9930  180.0320  140.6190 N   0  0  0  0  0  2  0  0  0  0  0  0
  179.0530  182.0100  141.4030 O   0  0  0  0  0  0  0  0  0  0  0  0
  180.6030  179.2600  139.5410 C   0  0  1  0  0  3  0  0  0  0  0  0
  179.7750  178.7260  137.3000 C   0  0  0  0  0  2  0  0  0  0  0  0
  180.0480  179.6670  138.1970 C   0  0  0  0  0  0  0  0  0  0  0  0
  179.2800  181.8450  139.0940 N   0  0  0  0  0  2  0  0  0  0  0  0
  179.6850  181.1030  137.9000 C   0  0  1  0  0  3  0  0  0  0  0  0
  180.2960  182.0340  135.6330 C   0  0  0  0  0  2  0  0  0  0  0  0
  180.3320  184.2800  137.7610 C   0  0  0  0  0  2  0  0  0  0  0  0
  181.2900  183.1260  137.7640 C   0  0  0  0  0  2  0  0  0  0  0  0
  180.7490  181.8520  137.0880 C   0  0  1  0  0  3  0  0  0  0  0  0
  179.8520  184.8800  136.6680 C   0  0  0  0  0  0  0  0  0  0  0  0
  180.9140  183.2600  134.9710 C   0  0  0  0  0  2  0  0  0  0  0  0
  178.9330  186.0310  136.8530 C   0  0  0  0  0  1  0  0  0  0  0  0
  180.1480  184.4480  135.3310 N   0  0  0  0  0  0  0  0  0  0  0  0
  2  1  2  0  0  0  0
  5  8  2  0  0  0  0
  6  5  1  0  0  0  0
  6 10  2  0  0  0  0
  7  4  1  0  0  0  0
  7  3  1  1  0  0  0
  8  9  1  0  0  0  0
  9  4  2  0  0  0  0
  9  2  1  0  0  0  0
 10  7  1  0  0  0  0
 11 13  2  0  0  0  0
 11 12  1  0  0  0  0
 12  6  1  0  0  0  0
 14 17  1  0  0  0  0
 14 11  1  0  0  0  0
 15 26  1  0  0  0  0
 16 24  1  0  0  0  0
 16 20  1  0  0  0  0
 17 21  2  0  0  0  0
 19 18  2  0  0  0  0
 21 18  1  0  0  0  0
 22 15  1  0  0  0  0
 22 20  1  0  0  0  0
 23 24  1  0  0  0  0
 23 15  1  0  0  0  0
 25 17  1  0  0  0  0
 25 19  1  0  0  0  0
 26 27  2  0  0  0  0
 26 25  1  0  0  0  0
 28 29  1  0  0  0  0
 29 10  1  0  0  0  0
 30 35  2  0  0  0  0
 30 31  1  0  0  0  0
 32 34  1  0  0  0  0
 33 35  1  0  0  0  0
 34 30  1  0  0  0  0
 36  1  1  6  0  0  0
 36 32  1  0  0  0  0
 36 33  1  0  0  0  0
 37  2  1  0  0  0  0
 38 39  1  0  0  0  0
 39 41  1  0  0  0  0
 41 40  2  0  0  0  0
 41 37  1  0  0  0  0
 43 42  1  1  0  0  0
 43 39  1  0  0  0  0
 44 45  1  0  0  0  0
 44 46  2  0  0  0  0
 47 43  1  6  0  0  0
 47 45  1  0  0  0  0
 48 49  2  0  0  0  0
 49 47  1  0  0  0  0
 50 44  1  0  0  0  0
 51 49  1  1  0  0  0
 51 50  1  0  0  0  0
 53 54  1  0  0  0  0
 55 52  1  6  0  0  0
 55 54  1  0  0  0  0
 55 51  1  0  0  0  0
 56 58  1  0  0  0  0
 56 53  1  0  0  0  0
 57 59  1  0  0  0  0
 57 52  1  0  0  0  0
 59 56  2  0  0  0  0
M  END
>  <MODEL>
6

>  <REMARK>
 VINA RESULT:      -7.3      1.547      2.928
  Name = 
  11 active torsions:
  status: ('A' for Active; 'I' for Inactive)
    1  A    between atoms: O_6  and  C_55
    2  A    between atoms: C_12  and  C_40
    3  A    between atoms: N_18  and  C_48
    4  A    between atoms: N_19  and  C_28
    5  A    between atoms: C_20  and  C_40
    6  A    between atoms: C_24  and  C_48
    7  A    between atoms: C_30  and  C_59
    8  A    between atoms: C_32  and  C_57
    9  A    between atoms: C_34  and  C_43
   10  A    between atoms: C_43  and  C_58
   11  A    between atoms: C_51  and  C_58
                            x       y       z     vdW  Elec       q    Type
                         _______ _______ _______ _____ _____    ______ ____

>  <TORSDO>
F 11

$$$$
=
 OpenBabel10222417303D

 59 64  0  0  1  0  0  0  0  0999 V2000
  191.1440  177.1820  143.8970 C   0  0  0  0  0  3  0  0  0  0  0  0
  190.0460  177.5630  143.2230 C   0  0  0  0  0  0  0  0  0  0  0  0
  186.6710  178.5630  146.9890 Cl  0  0  0  0  0  0  0  0  0  0  0  0
  188.2020  178.1330  144.7730 C   0  0  0  0  0  3  0  0  0  0  0  0
  186.4250  176.5860  142.8110 C   0  0  0  0  0  3  0  0  0  0  0  0
  185.5480  177.7050  143.2270 C   0  0  0  0  0  0  0  0  0  0  0  0
  186.8240  177.9700  145.3130 C   0  0  2  0  0  3  0  0  0  0  0  0
  187.7460  176.4750  143.0120 C   0  0  0  0  0  3  0  0  0  0  0  0
  188.6370  177.4390  143.7120 C   0  0  0  0  0  0  0  0  0  0  0  0
  185.7880  178.4490  144.3260 C   0  0  0  0  0  0  0  0  0  0  0  0
  184.6070  178.9410  141.2070 C   0  0  0  0  0  0  0  0  0  0  0  0
  184.4920  178.0480  142.3210 N   0  0  0  0  0  2  0  0  0  0  0  0
  185.6040  179.7030  141.0950 O   0  0  0  0  0  0  0  0  0  0  0  0
  183.5160  178.9960  140.1900 C   0  0  0  0  0  2  0  0  0  0  0  0
  186.4820  177.4910  137.2040 N   0  0  0  0  0  0  0  0  0  0  0  0
  188.4250  176.1930  135.5750 C   0  0  0  0  0  2  0  0  0  0  0  0
  183.4440  177.7180  139.4120 C   0  0  0  0  0  0  0  0  0  0  0  0
  182.8120  175.7180  138.7350 C   0  0  0  0  0  3  0  0  0  0  0  0
  183.9150  176.1350  138.0110 C   0  0  0  0  0  3  0  0  0  0  0  0
  187.9010  177.5770  135.2080 C   0  0  0  0  0  2  0  0  0  0  0  0
  182.5100  176.7270  139.6350 C   0  0  0  0  0  3  0  0  0  0  0  0
  187.4410  178.3110  136.4660 C   0  0  0  0  0  2  0  0  0  0  0  0
  186.8680  176.1180  137.5320 C   0  0  0  0  0  2  0  0  0  0  0  0
  187.3320  175.3890  136.2730 C   0  0  0  0  0  2  0  0  0  0  0  0
  184.2990  177.3540  138.4330 N   0  0  0  0  0  0  0  0  0  0  0  0
  185.3880  178.1250  137.8920 C   0  0  0  0  0  0  0  0  0  0  0  0
  185.3720  179.3830  138.0010 O   0  0  0  0  0  0  0  0  0  0  0  0
  183.7010  179.7520  144.7180 C   0  0  0  0  0  1  0  0  0  0  0  0
  185.0970  179.6620  144.4810 O   0  0  0  0  0  0  0  0  0  0  0  0
  192.1800  175.5790  147.7400 C   0  0  0  0  0  0  0  0  0  0  0  0
  192.4170  174.9450  149.0660 C   0  0  0  0  0  1  0  0  0  0  0  0
  191.5170  177.5590  146.3080 C   0  0  0  0  0  2  0  0  0  0  0  0
  192.2450  175.4350  145.2440 C   0  0  0  0  0  2  0  0  0  0  0  0
  191.4600  176.9080  147.6890 C   0  0  0  0  0  2  0  0  0  0  0  0
  192.4590  174.8770  146.6270 C   0  0  0  0  0  3  0  0  0  0  0  0
  191.1770  176.5290  145.2370 C   0  0  2  0  0  3  0  0  0  0  0  0
  190.2850  178.1310  141.8550 C   0  0  0  0  0  2  0  0  0  0  0  0
  190.1950  177.4710  138.9920 C   0  0  0  0  0  1  0  0  0  0  0  0
  191.3730  177.1290  139.7750 N   0  0  0  0  0  0  0  0  0  0  0  0
  192.4930  177.2030  141.8280 O   0  0  0  0  0  0  0  0  0  0  0  0
  191.4540  177.4830  141.1680 C   0  0  0  0  0  0  0  0  0  0  0  0
  193.6650  177.1240  139.2930 O   0  0  0  0  0  1  0  0  0  0  0  0
  192.4650  176.4360  139.0890 C   0  0  2  0  0  3  0  0  0  0  0  0
  194.2430  176.6000  136.1610 C   0  0  0  0  0  0  0  0  0  0  0  0
  193.0770  177.1150  136.8020 N   0  0  0  0  0  2  0  0  0  0  0  0
  195.0600  177.3860  135.6180 O   0  0  0  0  0  0  0  0  0  0  0  0
  192.1780  176.2790  137.5920 C   0  0  1  0  0  3  0  0  0  0  0  0
  191.1340  174.1270  137.0690 C   0  0  0  0  0  2  0  0  0  0  0  0
  192.2550  174.8350  137.1590 C   0  0  0  0  0  0  0  0  0  0  0  0
  194.4730  175.1920  136.1150 N   0  0  0  0  0  2  0  0  0  0  0  0
  193.5590  174.2170  136.7120 C   0  0  1  0  0  3  0  0  0  0  0  0
  194.6800  172.0140  137.2290 C   0  0  0  0  0  2  0  0  0  0  0  0
  196.5960  174.3630  137.8480 C   0  0  0  0  0  2  0  0  0  0  0  0
  195.3230  174.1170  138.6010 C   0  0  0  0  0  2  0  0  0  0  0  0
  194.2430  173.3720  137.7940 C   0  0  1  0  0  3  0  0  0  0  0  0
  197.3990  173.4130  137.3610 C   0  0  0  0  0  0  0  0  0  0  0  0
  195.8780  171.4260  137.9650 C   0  0  0  0  0  2  0  0  0  0  0  0
  198.6390  173.8390  136.6640 C   0  0  0  0  0  1  0  0  0  0  0  0
  197.1080  172.0090  137.4430 N   0  0  0  0  0  0  0  0  0  0  0  0
  2  9  1  0  0  0  0
  2  1  2  0  0  0  0
  4  7  1  0  0  0  0
  5  8  2  0  0  0  0
  5  6  1  0  0  0  0
  6 10  2  0  0  0  0
  7  3  1  1  0  0  0
  8  9  1  0  0  0  0
  9  4  2  0  0  0  0
 10 29  1  0  0  0  0
 10  7  1  0  0  0  0
 11 12  1  0  0  0  0
 12  6  1  0  0  0  0
 13 11  2  0  0  0  0
 14 11  1  0  0  0  0
 15 23  1  0  0  0  0
 15 26  1  0  0  0  0
 16 24  1  0  0  0  0
 17 21  2  0  0  0  0
 17 14  1  0  0  0  0
 18 21  1  0  0  0  0
 19 25  1  0  0  0  0
 19 18  2  0  0  0  0
 20 16  1  0  0  0  0
 20 22  1  0  0  0  0
 22 15  1  0  0  0  0
 24 23  1  0  0  0  0
 25 17  1  0  0  0  0
 26 27  2  0  0  0  0
 26 25  1  0  0  0  0
 29 28  1  0  0  0  0
 30 31  1  0  0  0  0
 32 34  1  0  0  0  0
 33 35  1  0  0  0  0
 34 30  1  0  0  0  0
 35 30  2  0  0  0  0
 36  1  1  6  0  0  0
 36 33  1  0  0  0  0
 36 32  1  0  0  0  0
 37  2  1  0  0  0  0
 38 39  1  0  0  0  0
 39 41  1  0  0  0  0
 41 40  2  0  0  0  0
 41 37  1  0  0  0  0
 43 42  1  6  0  0  0
 43 39  1  0  0  0  0
 44 45  1  0  0  0  0
 45 47  1  0  0  0  0
 46 44  2  0  0  0  0
 47 43  1  1  0  0  0
 48 49  2  0  0  0  0
 49 47  1  0  0  0  0
 50 44  1  0  0  0  0
 51 50  1  1  0  0  0
 51 49  1  0  0  0  0
 51 55  1  0  0  0  0
 52 57  1  0  0  0  0
 53 54  1  0  0  0  0
 55 52  1  6  0  0  0
 55 54  1  0  0  0  0
 56 59  2  0  0  0  0
 56 53  1  0  0  0  0
 58 56  1  0  0  0  0
 59 57  1  0  0  0  0
M  END
>  <MODEL>
7

>  <REMARK>
 VINA RESULT:      -7.2      3.360      9.583
  Name = 
  11 active torsions:
  status: ('A' for Active; 'I' for Inactive)
    1  A    between atoms: O_6  and  C_55
    2  A    between atoms: C_12  and  C_40
    3  A    between atoms: N_18  and  C_48
    4  A    between atoms: N_19  and  C_28
    5  A    between atoms: C_20  and  C_40
    6  A    between atoms: C_24  and  C_48
    7  A    between atoms: C_30  and  C_59
    8  A    between atoms: C_32  and  C_57
    9  A    between atoms: C_34  and  C_43
   10  A    between atoms: C_43  and  C_58
   11  A    between atoms: C_51  and  C_58
                            x       y       z     vdW  Elec       q    Type
                         _______ _______ _______ _____ _____    ______ ____

>  <TORSDO>
F 11

$$$$
=
 OpenBabel10222417303D

 59 64  0  0  1  0  0  0  0  0999 V2000
  190.4990  176.5380  136.9280 C   0  0  0  0  0  3  0  0  0  0  0  0
  189.2800  177.0340  137.2020 C   0  0  0  0  0  0  0  0  0  0  0  0
  186.1270  172.9560  137.3070 Cl  0  0  0  0  0  0  0  0  0  0  0  0
  187.5060  175.3100  137.3030 C   0  0  0  0  0  3  0  0  0  0  0  0
  185.9220  177.2090  135.4900 C   0  0  0  0  0  3  0  0  0  0  0  0
  184.8720  176.6600  136.3780 C   0  0  0  0  0  0  0  0  0  0  0  0
  186.2480  174.6710  136.8270 C   0  0  2  0  0  3  0  0  0  0  0  0
  187.2510  177.1220  135.6560 C   0  0  0  0  0  3  0  0  0  0  0  0
  187.9790  176.4410  136.7600 C   0  0  0  0  0  0  0  0  0  0  0  0
  185.0490  175.5430  137.1120 C   0  0  0  0  0  0  0  0  0  0  0  0
  182.5100  177.3510  135.7170 C   0  0  0  0  0  0  0  0  0  0  0  0
  183.6890  177.4570  136.5230 N   0  0  0  0  0  2  0  0  0  0  0  0
  182.5270  176.7060  134.6350 O   0  0  0  0  0  0  0  0  0  0  0  0
  181.2590  178.0420  136.1450 C   0  0  0  0  0  2  0  0  0  0  0  0
  180.1850  182.3760  136.3410 N   0  0  0  0  0  0  0  0  0  0  0  0
  179.2530  185.0270  136.8100 C   0  0  0  0  0  2  0  0  0  0  0  0
  181.5290  178.9880  137.2750 C   0  0  0  0  0  0  0  0  0  0  0  0
  182.0860  179.7650  139.2610 C   0  0  0  0  0  3  0  0  0  0  0  0
  181.6390  180.7990  138.4570 C   0  0  0  0  0  3  0  0  0  0  0  0
  180.1130  184.7080  135.5910 C   0  0  0  0  0  2  0  0  0  0  0  0
  182.0140  178.6040  138.5090 C   0  0  0  0  0  3  0  0  0  0  0  0
  179.9310  183.2450  135.1920 C   0  0  0  0  0  2  0  0  0  0  0  0
  179.4630  182.6560  137.5820 C   0  0  0  0  0  2  0  0  0  0  0  0
  179.6430  184.1210  137.9740 C   0  0  0  0  0  2  0  0  0  0  0  0
  181.2950  180.3170  137.2480 N   0  0  0  0  0  0  0  0  0  0  0  0
  180.8190  181.1000  136.1380 C   0  0  0  0  0  0  0  0  0  0  0  0
  180.9810  180.6700  134.9610 O   0  0  0  0  0  0  0  0  0  0  0  0
  182.8120  174.8040  137.9210 C   0  0  0  0  0  1  0  0  0  0  0  0
  184.1360  175.2630  138.1420 O   0  0  0  0  0  0  0  0  0  0  0  0
  191.9660  172.8540  135.2890 C   0  0  0  0  0  0  0  0  0  0  0  0
  192.4210  171.6190  134.5940 C   0  0  0  0  0  1  0  0  0  0  0  0
  190.3970  174.0730  136.8590 C   0  0  0  0  0  2  0  0  0  0  0  0
  192.2960  175.2790  135.8040 C   0  0  0  0  0  2  0  0  0  0  0  0
  190.6190  172.8460  135.9760 C   0  0  0  0  0  2  0  0  0  0  0  0
  192.6840  173.9820  135.1430 C   0  0  0  0  0  3  0  0  0  0  0  0
  190.7980  175.3340  136.1010 C   0  0  2  0  0  3  0  0  0  0  0  0
  189.2580  178.3050  137.9980 C   0  0  0  0  0  2  0  0  0  0  0  0
  191.2120  177.3880  139.9940 C   0  0  0  0  0  1  0  0  0  0  0  0
  189.8220  177.5820  140.3800 N   0  0  0  0  0  0  0  0  0  0  0  0
  187.6630  178.2610  139.7850 O   0  0  0  0  0  0  0  0  0  0  0  0
  188.8600  178.0720  139.4290 C   0  0  0  0  0  0  0  0  0  0  0  0
  188.4450  176.3140  141.7870 O   0  0  0  0  0  1  0  0  0  0  0  0
  189.4550  177.2800  141.7640 C   0  0  2  0  0  3  0  0  0  0  0  0
  186.9220  178.1800  143.8950 C   0  0  0  0  0  0  0  0  0  0  0  0
  187.5660  178.5670  142.6820 N   0  0  0  0  0  2  0  0  0  0  0  0
  185.6690  178.0800  143.9370 O   0  0  0  0  0  0  0  0  0  0  0  0
  189.0160  178.5410  142.5170 C   0  0  1  0  0  3  0  0  0  0  0  0
  190.7960  179.4420  143.9360 C   0  0  0  0  0  2  0  0  0  0  0  0
  189.7190  178.6690  143.8470 C   0  0  0  0  0  0  0  0  0  0  0  0
  187.6950  177.9270  145.0680 N   0  0  0  0  0  2  0  0  0  0  0  0
  189.1540  178.0380  145.0970 C   0  0  1  0  0  3  0  0  0  0  0  0
  191.3190  176.7360  145.1200 C   0  0  0  0  0  2  0  0  0  0  0  0
  190.1880  176.9850  147.9880 C   0  0  0  0  0  2  0  0  0  0  0  0
  189.5060  176.2150  146.8970 C   0  0  0  0  0  2  0  0  0  0  0  0
  189.8270  176.7110  145.4750 C   0  0  1  0  0  3  0  0  0  0  0  0
  191.5100  177.0800  148.1550 C   0  0  0  0  0  0  0  0  0  0  0  0
  192.1520  175.8170  146.0050 C   0  0  0  0  0  2  0  0  0  0  0  0
  192.0120  177.8640  149.3110 C   0  0  0  0  0  1  0  0  0  0  0  0
  192.4660  176.4960  147.2560 N   0  0  0  0  0  0  0  0  0  0  0  0
  1  2  2  0  0  0  0
  2 37  1  0  0  0  0
  5  8  2  0  0  0  0
  5  6  1  0  0  0  0
  6 12  1  0  0  0  0
  6 10  2  0  0  0  0
  7 10  1  0  0  0  0
  7  4  1  0  0  0  0
  7  3  1  1  0  0  0
  8  9  1  0  0  0  0
  9  2  1  0  0  0  0
  9  4  2  0  0  0  0
 10 29  1  0  0  0  0
 11 14  1  0  0  0  0
 11 12  1  0  0  0  0
 13 11  2  0  0  0  0
 14 17  1  0  0  0  0
 15 23  1  0  0  0  0
 16 24  1  0  0  0  0
 17 21  2  0  0  0  0
 19 18  2  0  0  0  0
 20 16  1  0  0  0  0
 21 18  1  0  0  0  0
 22 20  1  0  0  0  0
 22 15  1  0  0  0  0
 23 24  1  0  0  0  0
 25 17  1  0  0  0  0
 25 19  1  0  0  0  0
 26 15  1  0  0  0  0
 26 25  1  0  0  0  0
 27 26  2  0  0  0  0
 28 29  1  0  0  0  0
 30 34  1  0  0  0  0
 31 30  1  0  0  0  0
 33 36  1  0  0  0  0
 34 32  1  0  0  0  0
 35 30  2  0  0  0  0
 35 33  1  0  0  0  0
 36 32  1  0  0  0  0
 36  1  1  1  0  0  0
 37 41  1  0  0  0  0
 38 39  1  0  0  0  0
 39 43  1  0  0  0  0
 41 40  2  0  0  0  0
 41 39  1  0  0  0  0
 43 42  1  6  0  0  0
 44 46  2  0  0  0  0
 44 50  1  0  0  0  0
 45 44  1  0  0  0  0
 47 43  1  1  0  0  0
 47 45  1  0  0  0  0
 47 49  1  0  0  0  0
 49 48  2  0  0  0  0
 50 51  1  0  0  0  0
 51 49  1  6  0  0  0
 51 55  1  0  0  0  0
 52 57  1  0  0  0  0
 53 56  1  0  0  0  0
 54 53  1  0  0  0  0
 55 52  1  1  0  0  0
 55 54  1  0  0  0  0
 56 58  1  0  0  0  0
 57 59  1  0  0  0  0
 59 56  2  0  0  0  0
M  END
>  <MODEL>
8

>  <REMARK>
 VINA RESULT:      -7.2      3.085     10.857
  Name = 
  11 active torsions:
  status: ('A' for Active; 'I' for Inactive)
    1  A    between atoms: O_6  and  C_55
    2  A    between atoms: C_12  and  C_40
    3  A    between atoms: N_18  and  C_48
    4  A    between atoms: N_19  and  C_28
    5  A    between atoms: C_20  and  C_40
    6  A    between atoms: C_24  and  C_48
    7  A    between atoms: C_30  and  C_59
    8  A    between atoms: C_32  and  C_57
    9  A    between atoms: C_34  and  C_43
   10  A    between atoms: C_43  and  C_58
   11  A    between atoms: C_51  and  C_58
                            x       y       z     vdW  Elec       q    Type
                         _______ _______ _______ _____ _____    ______ ____

>  <TORSDO>
F 11

$$$$
=
 OpenBabel10222417303D

 59 64  0  0  1  0  0  0  0  0999 V2000
  187.7900  176.0510  135.4230 C   0  0  0  0  0  3  0  0  0  0  0  0
  186.8230  176.8170  135.9560 C   0  0  0  0  0  0  0  0  0  0  0  0
  184.4720  179.8530  139.3960 Cl  0  0  0  0  0  0  0  0  0  0  0  0
  185.8760  178.0950  137.8530 C   0  0  0  0  0  3  0  0  0  0  0  0
  188.7550  178.1680  138.9020 C   0  0  0  0  0  3  0  0  0  0  0  0
  187.9630  178.0070  140.1430 C   0  0  0  0  0  0  0  0  0  0  0  0
  185.9880  178.9790  139.0460 C   0  0  2  0  0  3  0  0  0  0  0  0
  188.3260  178.0080  137.6410 C   0  0  0  0  0  3  0  0  0  0  0  0
  186.9530  177.6480  137.1940 C   0  0  0  0  0  0  0  0  0  0  0  0
  186.6400  178.2580  140.2010 C   0  0  0  0  0  0  0  0  0  0  0  0
  189.7800  176.5540  141.1840 C   0  0  0  0  0  0  0  0  0  0  0  0
  188.6550  177.4380  141.2620 N   0  0  0  0  0  2  0  0  0  0  0  0
  190.0890  176.0020  140.0950 O   0  0  0  0  0  0  0  0  0  0  0  0
  190.5710  176.2570  142.4140 C   0  0  0  0  0  2  0  0  0  0  0  0
  188.4980  177.4170  146.2000 N   0  0  0  0  0  0  0  0  0  0  0  0
  187.5750  178.1390  148.7960 C   0  0  0  0  0  2  0  0  0  0  0  0
  190.7950  177.4990  143.2210 C   0  0  0  0  0  0  0  0  0  0  0  0
  191.6820  179.3740  143.9670 C   0  0  0  0  0  3  0  0  0  0  0  0
  190.5990  179.0190  144.7520 C   0  0  0  0  0  3  0  0  0  0  0  0
  186.5880  177.8910  147.6600 C   0  0  0  0  0  2  0  0  0  0  0  0
  191.8120  178.4020  142.9880 C   0  0  0  0  0  3  0  0  0  0  0  0
  187.1940  176.9250  146.6440 C   0  0  0  0  0  2  0  0  0  0  0  0
  189.4840  177.7580  147.2250 C   0  0  0  0  0  2  0  0  0  0  0  0
  188.8720  178.7190  148.2420 C   0  0  0  0  0  2  0  0  0  0  0  0
  190.0660  177.8710  144.2950 N   0  0  0  0  0  0  0  0  0  0  0  0
  188.9060  177.2110  144.8350 C   0  0  0  0  0  0  0  0  0  0  0  0
  188.2190  176.4550  144.0920 O   0  0  0  0  0  0  0  0  0  0  0  0
  185.6860  178.5690  142.4820 C   0  0  0  0  0  1  0  0  0  0  0  0
  185.9160  177.7980  141.3130 O   0  0  0  0  0  0  0  0  0  0  0  0
  191.6880  174.6190  136.5040 C   0  0  0  0  0  0  0  0  0  0  0  0
  193.0390  174.2210  136.9860 C   0  0  0  0  0  1  0  0  0  0  0  0
  190.1720  175.7750  134.8370 C   0  0  0  0  0  2  0  0  0  0  0  0
  189.2020  174.5330  136.7580 C   0  0  0  0  0  2  0  0  0  0  0  0
  191.5850  175.6550  135.4080 C   0  0  0  0  0  2  0  0  0  0  0  0
  190.6060  174.1760  137.1690 C   0  0  0  0  0  3  0  0  0  0  0  0
  189.1600  175.8460  135.9750 C   0  0  2  0  0  3  0  0  0  0  0  0
  185.5050  176.7930  135.2410 C   0  0  0  0  0  2  0  0  0  0  0  0
  185.0520  173.9150  134.8520 C   0  0  0  0  0  1  0  0  0  0  0  0
  184.2160  174.6580  135.7830 N   0  0  0  0  0  0  0  0  0  0  0  0
  183.7340  176.6840  136.8500 O   0  0  0  0  0  0  0  0  0  0  0  0
  184.4500  176.0580  136.0190 C   0  0  0  0  0  0  0  0  0  0  0  0
  183.5980  172.6410  136.8020 O   0  0  0  0  0  1  0  0  0  0  0  0
  183.1530  173.9250  136.4740 C   0  0  2  0  0  3  0  0  0  0  0  0
  180.3610  171.9410  136.2970 C   0  0  0  0  0  0  0  0  0  0  0  0
  181.4150  172.4780  135.4990 N   0  0  0  0  0  2  0  0  0  0  0  0
  180.1020  170.7120  136.2500 O   0  0  0  0  0  0  0  0  0  0  0  0
  181.8770  173.8570  135.6280 C   0  0  1  0  0  3  0  0  0  0  0  0
  180.6230  175.9590  135.6690 C   0  0  0  0  0  2  0  0  0  0  0  0
  180.7910  174.7460  136.1850 C   0  0  0  0  0  0  0  0  0  0  0  0
  179.5850  172.8000  137.1320 N   0  0  0  0  0  2  0  0  0  0  0  0
  179.8210  174.2420  137.2260 C   0  0  1  0  0  3  0  0  0  0  0  0
  181.5870  175.2590  138.7170 C   0  0  0  0  0  2  0  0  0  0  0  0
  178.9910  176.9360  138.8340 C   0  0  0  0  0  3  0  0  0  0  0  0
  179.0880  175.5300  139.3460 C   0  0  0  0  0  2  0  0  0  0  0  0
  180.1690  174.6780  138.6550 C   0  0  1  0  0  3  0  0  0  0  0  0
  179.9650  177.8480  138.8970 C   0  0  0  0  0  0  0  0  0  0  0  0
  181.7640  176.2680  139.8450 C   0  0  0  0  0  2  0  0  0  0  0  0
  179.6830  179.2050  138.3650 C   0  0  0  0  0  1  0  0  0  0  0  0
  181.2760  177.5730  139.4150 N   0  0  0  0  0  2  0  0  0  0  0  0
  1  2  2  0  0  0  0
  2  9  1  0  0  0  0
  4  7  1  0  0  0  0
  5  6  1  0  0  0  0
  6 10  2  0  0  0  0
  6 12  1  0  0  0  0
  7  3  1  1  0  0  0
  7 10  1  0  0  0  0
  8  5  2  0  0  0  0
  9  8  1  0  0  0  0
  9  4  2  0  0  0  0
 10 29  1  0  0  0  0
 11 12  1  0  0  0  0
 11 14  1  0  0  0  0
 13 11  2  0  0  0  0
 14 17  1  0  0  0  0
 15 22  1  0  0  0  0
 15 23  1  0  0  0  0
 17 25  1  0  0  0  0
 18 19  2  0  0  0  0
 20 16  1  0  0  0  0
 21 17  2  0  0  0  0
 21 18  1  0  0  0  0
 22 20  1  0  0  0  0
 23 24  1  0  0  0  0
 24 16  1  0  0  0  0
 25 19  1  0  0  0  0
 25 26  1  0  0  0  0
 26 15  1  0  0  0  0
 27 26  2  0  0  0  0
 29 28  1  0  0  0  0
 30 31  1  0  0  0  0
 30 35  2  0  0  0  0
 32 34  1  0  0  0  0
 32 36  1  0  0  0  0
 33 35  1  0  0  0  0
 34 30  1  0  0  0  0
 36  1  1  6  0  0  0
 36 33  1  0  0  0  0
 37  2  1  0  0  0  0
 37 41  1  0  0  0  0
 38 39  1  0  0  0  0
 39 41  1  0  0  0  0
 39 43  1  0  0  0  0
 41 40  2  0  0  0  0
 43 42  1  6  0  0  0
 44 50  1  0  0  0  0
 45 47  1  0  0  0  0
 45 44  1  0  0  0  0
 46 44  2  0  0  0  0
 47 49  1  0  0  0  0
 47 43  1  1  0  0  0
 48 49  2  0  0  0  0
 50 51  1  0  0  0  0
 51 49  1  6  0  0  0
 51 55  1  0  0  0  0
 52 57  1  0  0  0  0
 53 56  2  0  0  0  0
 53 54  1  0  0  0  0
 55 52  1  6  0  0  0
 55 54  1  0  0  0  0
 56 59  1  0  0  0  0
 58 56  1  0  0  0  0
 59 57  1  0  0  0  0
M  END
>  <MODEL>
9

>  <REMARK>
 VINA RESULT:      -7.1      2.956      8.257
  Name = 
  11 active torsions:
  status: ('A' for Active; 'I' for Inactive)
    1  A    between atoms: O_6  and  C_55
    2  A    between atoms: C_12  and  C_40
    3  A    between atoms: N_18  and  C_48
    4  A    between atoms: N_19  and  C_28
    5  A    between atoms: C_20  and  C_40
    6  A    between atoms: C_24  and  C_48
    7  A    between atoms: C_30  and  C_59
    8  A    between atoms: C_32  and  C_57
    9  A    between atoms: C_34  and  C_43
   10  A    between atoms: C_43  and  C_58
   11  A    between atoms: C_51  and  C_58
                            x       y       z     vdW  Elec       q    Type
                         _______ _______ _______ _____ _____    ______ ____

>  <TORSDO>
F 11

$$$$
