=
 OpenBabel10222420193D

 27 28  0  0  1  0  0  0  0  0999 V2000
  190.6530  177.2370  145.0460 C   0  0  0  0  0  2  0  0  0  0  0  0
  187.8620  177.8410  146.3090 C   0  0  0  0  0  0  0  0  0  0  0  0
  189.5640  176.7530  144.0850 C   0  0  1  0  0  3  0  0  0  0  0  0
  186.9830  178.0850  147.2710 C   0  0  0  0  0  2  0  0  0  0  0  0
  189.0920  177.4960  147.0030 C   0  0  0  0  0  0  0  0  0  0  0  0
  187.6290  177.9700  148.5430 N   0  0  0  0  0  0  0  0  0  0  0  0
  188.5340  177.8070  143.9500 N   0  0  0  0  0  0  0  0  0  0  0  0
  187.4740  177.5110  144.9050 C   0  0  0  0  0  2  0  0  0  0  0  0
  188.8400  177.6130  148.3920 N   0  0  0  0  0  0  0  0  0  0  0  0
  190.2840  177.1810  146.4970 C   0  0  0  0  0  2  0  0  0  0  0  0
  190.2080  176.3030  142.7550 C   0  0  2  0  0  3  0  0  0  0  0  0
  190.5320  174.9460  142.8160 O   0  0  0  0  0  1  0  0  0  0  0  0
  191.4420  177.1250  142.3910 C   0  0  0  0  0  2  0  0  0  0  0  0
  191.4900  177.3740  140.9230 C   0  0  0  0  0  0  0  0  0  0  0  0
  192.7120  177.4160  140.2660 O   0  0  0  0  0  0  0  0  0  0  0  0
  190.4220  177.5140  140.2720 O   0  0  0  0  0  1  0  0  0  0  0  0
  187.8700  177.7690  142.6500 C   0  0  0  0  0  2  0  0  0  0  0  0
  186.3750  177.9230  142.8430 C   0  0  0  0  0  2  0  0  0  0  0  0
  185.8570  179.0150  141.9280 C   0  0  0  0  0  2  0  0  0  0  0  0
  184.4300  179.1910  142.1360 N   0  0  0  0  0  0  0  0  0  0  0  0
  183.7730  178.8130  140.8930 C   0  0  0  0  0  2  0  0  0  0  0  0
  184.3370  180.2770  139.0950 O   0  0  0  0  0  1  0  0  0  0  0  0
  184.6920  179.0780  139.7140 C   0  0  0  0  0  2  0  0  0  0  0  0
  184.0340  178.2150  143.1380 C   0  0  0  0  0  2  0  0  0  0  0  0
  183.6740  179.2790  145.3640 O   0  0  0  0  0  1  0  0  0  0  0  0
  183.1490  178.8570  144.1500 C   0  0  0  0  0  0  0  0  0  0  0  0
  181.9190  178.9830  143.9190 O   0  0  0  0  0  0  0  0  0  0  0  0
  1 10  1  0  0  0  0
  2  5  2  0  0  0  0
  2  4  1  0  0  0  0
  3 11  1  6  0  0  0
  3  1  1  0  0  0  0
  4  6  1  0  0  0  0
  5  9  1  0  0  0  0
  7  3  1  0  0  0  0
  7  8  1  0  0  0  0
  8  2  1  0  0  0  0
  9  6  2  0  0  0  0
 10  5  1  0  0  0  0
 11 12  1  1  0  0  0
 13 11  1  0  0  0  0
 14 13  1  0  0  0  0
 15 14  2  0  0  0  0
 16 14  1  0  0  0  0
 17 18  1  0  0  0  0
 17  7  1  0  0  0  0
 19 20  1  0  0  0  0
 19 18  1  0  0  0  0
 20 24  1  0  0  0  0
 21 20  1  0  0  0  0
 22 23  1  0  0  0  0
 23 21  1  0  0  0  0
 24 26  1  0  0  0  0
 26 25  1  0  0  0  0
 27 26  2  0  0  0  0
M  END
>  <MODEL>
1

>  <REMARK>
 VINA RESULT:      -7.2      0.000      0.000
  Name = 
  11 active torsions:
  status: ('A' for Active; 'I' for Inactive)
    1  A    between atoms: C_1  and  C_4
    2  A    between atoms: C_1  and  C_22
    3  A    between atoms: C_6  and  C_15
    4  A    between atoms: C_6  and  N_20
    5  A    between atoms: C_7  and  C_14
    6  A    between atoms: C_7  and  C_27
    7  A    between atoms: C_9  and  C_22
    8  A    between atoms: C_14  and  N_20
    9  A    between atoms: N_17  and  C_27
   10  A    between atoms: C_18  and  C_19
   11  A    between atoms: C_19  and  N_20
                            x       y       z     vdW  Elec       q    Type
                         _______ _______ _______ _____ _____    ______ ____

>  <TORSDO>
F 11

$$$$
=
 OpenBabel10222420193D

 27 28  0  0  1  0  0  0  0  0999 V2000
  186.8630  178.4620  147.2310 C   0  0  0  0  0  2  0  0  0  0  0  0
  185.4450  178.2760  144.4560 C   0  0  0  0  0  0  0  0  0  0  0  0
  187.4690  177.2960  146.4480 C   0  0  1  0  0  3  0  0  0  0  0  0
  184.4820  178.4490  143.5610 C   0  0  0  0  0  3  0  0  0  0  0  0
  184.8660  178.7040  145.7190 C   0  0  0  0  0  0  0  0  0  0  0  0
  183.3410  179.0290  144.2010 N   0  0  0  0  0  0  0  0  0  0  0  0
  187.7590  177.7380  145.0670 N   0  0  0  0  0  0  0  0  0  0  0  0
  186.6160  177.3750  144.2390 C   0  0  0  0  0  2  0  0  0  0  0  0
  183.5530  179.1610  145.4470 N   0  0  0  0  0  0  0  0  0  0  0  0
  185.4220  178.7450  146.9280 C   0  0  0  0  0  3  0  0  0  0  0  0
  188.6840  176.7310  147.2160 C   0  0  2  0  0  3  0  0  0  0  0  0
  188.2970  176.3340  148.4980 O   0  0  0  0  0  1  0  0  0  0  0  0
  189.8420  177.7230  147.2980 C   0  0  0  0  0  2  0  0  0  0  0  0
  191.1470  177.0050  147.2960 C   0  0  0  0  0  0  0  0  0  0  0  0
  192.0270  177.1630  148.3570 O   0  0  0  0  0  1  0  0  0  0  0  0
  191.4390  176.2300  146.3480 O   0  0  0  0  0  0  0  0  0  0  0  0
  188.8790  177.0110  144.4750 C   0  0  0  0  0  2  0  0  0  0  0  0
  188.4260  176.3430  143.1930 C   0  0  0  0  0  2  0  0  0  0  0  0
  189.6230  176.1220  142.2890 C   0  0  0  0  0  2  0  0  0  0  0  0
  189.9800  177.3710  141.6380 N   0  0  0  0  0  0  0  0  0  0  0  0
  191.4330  177.4560  141.6600 C   0  0  0  0  0  2  0  0  0  0  0  0
  191.5810  178.8960  143.5580 O   0  0  0  0  0  1  0  0  0  0  0  0
  191.9260  177.6290  143.0850 C   0  0  0  0  0  2  0  0  0  0  0  0
  189.5840  177.2410  140.2450 C   0  0  0  0  0  2  0  0  0  0  0  0
  188.8360  179.0720  138.7290 O   0  0  0  0  0  0  0  0  0  0  0  0
  188.6340  178.3290  139.8840 C   0  0  0  0  0  0  0  0  0  0  0  0
  187.6700  178.6000  140.6460 O   0  0  0  0  0  1  0  0  0  0  0  0
  2  5  1  0  0  0  0
  3 11  1  1  0  0  0
  3  1  1  0  0  0  0
  4  6  1  0  0  0  0
  4  2  2  0  0  0  0
  5 10  2  0  0  0  0
  6  9  2  0  0  0  0
  7  3  1  0  0  0  0
  8  2  1  0  0  0  0
  8  7  1  0  0  0  0
  9  5  1  0  0  0  0
 10  1  1  0  0  0  0
 11 13  1  0  0  0  0
 11 12  1  1  0  0  0
 14 13  1  0  0  0  0
 14 15  1  0  0  0  0
 16 14  2  0  0  0  0
 17  7  1  0  0  0  0
 18 17  1  0  0  0  0
 19 18  1  0  0  0  0
 20 21  1  0  0  0  0
 20 19  1  0  0  0  0
 21 23  1  0  0  0  0
 23 22  1  0  0  0  0
 24 20  1  0  0  0  0
 25 26  2  0  0  0  0
 26 24  1  0  0  0  0
 26 27  1  0  0  0  0
M  END
>  <MODEL>
2

>  <REMARK>
 VINA RESULT:      -7.0      2.805      5.763
  Name = 
  11 active torsions:
  status: ('A' for Active; 'I' for Inactive)
    1  A    between atoms: C_1  and  C_4
    2  A    between atoms: C_1  and  C_22
    3  A    between atoms: C_6  and  C_15
    4  A    between atoms: C_6  and  N_20
    5  A    between atoms: C_7  and  C_14
    6  A    between atoms: C_7  and  C_27
    7  A    between atoms: C_9  and  C_22
    8  A    between atoms: C_14  and  N_20
    9  A    between atoms: N_17  and  C_27
   10  A    between atoms: C_18  and  C_19
   11  A    between atoms: C_19  and  N_20
                            x       y       z     vdW  Elec       q    Type
                         _______ _______ _______ _____ _____    ______ ____

>  <TORSDO>
F 11

$$$$
=
 OpenBabel10222420193D

 27 28  0  0  1  0  0  0  0  0999 V2000
  185.0930  178.3120  146.0810 C   0  0  0  0  0  2  0  0  0  0  0  0
  188.1260  177.7300  146.5430 C   0  0  0  0  0  0  0  0  0  0  0  0
  185.8430  178.5420  144.7670 C   0  0  1  0  0  3  0  0  0  0  0  0
  189.2540  177.5910  147.2260 C   0  0  0  0  0  3  0  0  0  0  0  0
  187.1740  178.2780  147.4960 C   0  0  0  0  0  0  0  0  0  0  0  0
  189.0320  177.9700  148.5880 N   0  0  0  0  0  0  0  0  0  0  0  0
  186.7630  177.4080  144.5280 N   0  0  0  0  0  0  0  0  0  0  0  0
  188.0700  177.7850  145.0510 C   0  0  0  0  0  2  0  0  0  0  0  0
  187.8390  178.3830  148.7420 N   0  0  0  0  0  0  0  0  0  0  0  0
  185.8910  178.5890  147.3190 C   0  0  0  0  0  3  0  0  0  0  0  0
  184.8300  178.8030  143.6300 C   0  0  2  0  0  3  0  0  0  0  0  0
  185.1430  179.9960  142.9760 O   0  0  0  0  0  1  0  0  0  0  0  0
  183.3860  178.8350  144.1250 C   0  0  0  0  0  2  0  0  0  0  0  0
  182.4420  178.9420  142.9770 C   0  0  0  0  0  0  0  0  0  0  0  0
  181.2000  179.5350  143.1540 O   0  0  0  0  0  1  0  0  0  0  0  0
  182.7820  178.5240  141.8400 O   0  0  0  0  0  0  0  0  0  0  0  0
  186.9970  177.1730  143.1070 C   0  0  0  0  0  2  0  0  0  0  0  0
  188.3480  176.5140  142.9190 C   0  0  0  0  0  2  0  0  0  0  0  0
  189.0740  177.1690  141.7610 C   0  0  0  0  0  2  0  0  0  0  0  0
  190.4850  176.8290  141.8140 N   0  0  0  0  0  0  0  0  0  0  0  0
  191.0410  177.1360  140.5040 C   0  0  0  0  0  2  0  0  0  0  0  0
  190.7470  175.5620  138.7340 O   0  0  0  0  0  1  0  0  0  0  0  0
  190.1260  176.6120  139.4120 C   0  0  0  0  0  2  0  0  0  0  0  0
  191.0980  177.7480  142.7590 C   0  0  0  0  0  2  0  0  0  0  0  0
  191.8160  175.6300  143.8610 O   0  0  0  0  0  0  0  0  0  0  0  0
  191.5940  176.9980  143.9470 C   0  0  0  0  0  0  0  0  0  0  0  0
  191.7760  177.5970  145.0380 O   0  0  0  0  0  1  0  0  0  0  0  0
  1 10  1  0  0  0  0
  2  4  2  0  0  0  0
  2  5  1  0  0  0  0
  3 11  1  6  0  0  0
  3  1  1  0  0  0  0
  4  6  1  0  0  0  0
  5  9  1  0  0  0  0
  6  9  2  0  0  0  0
  7  3  1  0  0  0  0
  7  8  1  0  0  0  0
  8  2  1  0  0  0  0
 10  5  2  0  0  0  0
 11 12  1  1  0  0  0
 11 13  1  0  0  0  0
 14 15  1  0  0  0  0
 14 13  1  0  0  0  0
 16 14  2  0  0  0  0
 17  7  1  0  0  0  0
 18 17  1  0  0  0  0
 19 20  1  0  0  0  0
 19 18  1  0  0  0  0
 20 24  1  0  0  0  0
 21 20  1  0  0  0  0
 22 23  1  0  0  0  0
 23 21  1  0  0  0  0
 24 26  1  0  0  0  0
 25 26  2  0  0  0  0
 26 27  1  0  0  0  0
M  END
>  <MODEL>
3

>  <REMARK>
 VINA RESULT:      -6.9      1.935      6.304
  Name = 
  11 active torsions:
  status: ('A' for Active; 'I' for Inactive)
    1  A    between atoms: C_1  and  C_4
    2  A    between atoms: C_1  and  C_22
    3  A    between atoms: C_6  and  C_15
    4  A    between atoms: C_6  and  N_20
    5  A    between atoms: C_7  and  C_14
    6  A    between atoms: C_7  and  C_27
    7  A    between atoms: C_9  and  C_22
    8  A    between atoms: C_14  and  N_20
    9  A    between atoms: N_17  and  C_27
   10  A    between atoms: C_18  and  C_19
   11  A    between atoms: C_19  and  N_20
                            x       y       z     vdW  Elec       q    Type
                         _______ _______ _______ _____ _____    ______ ____

>  <TORSDO>
F 11

$$$$
=
 OpenBabel10222420193D

 27 28  0  0  1  0  0  0  0  0999 V2000
  187.0140  178.4470  146.9730 C   0  0  0  0  0  2  0  0  0  0  0  0
  185.4140  178.3650  144.2930 C   0  0  0  0  0  0  0  0  0  0  0  0
  187.5980  177.3450  146.0860 C   0  0  1  0  0  3  0  0  0  0  0  0
  184.3870  178.5550  143.4770 C   0  0  0  0  0  3  0  0  0  0  0  0
  184.9120  178.7050  145.6140 C   0  0  0  0  0  0  0  0  0  0  0  0
  183.2770  179.0620  144.2230 N   0  0  0  0  0  0  0  0  0  0  0  0
  187.7800  177.8710  144.7150 N   0  0  0  0  0  0  0  0  0  0  0  0
  186.5930  177.5150  143.9470 C   0  0  0  0  0  2  0  0  0  0  0  0
  183.5700  179.1330  145.4570 N   0  0  0  0  0  0  0  0  0  0  0  0
  185.5490  178.6990  146.7840 C   0  0  0  0  0  3  0  0  0  0  0  0
  188.8790  176.7790  146.7380 C   0  0  2  0  0  3  0  0  0  0  0  0
  188.6620  176.5500  148.0980 O   0  0  0  0  0  1  0  0  0  0  0  0
  190.0900  177.6880  146.5420 C   0  0  0  0  0  2  0  0  0  0  0  0
  191.3540  176.9180  146.7070 C   0  0  0  0  0  0  0  0  0  0  0  0
  191.9780  176.8640  147.9460 O   0  0  0  0  0  1  0  0  0  0  0  0
  191.8410  176.2900  145.7310 O   0  0  0  0  0  0  0  0  0  0  0  0
  188.8760  177.2130  144.0100 C   0  0  0  0  0  2  0  0  0  0  0  0
  188.5880  177.2060  142.5230 C   0  0  0  0  0  2  0  0  0  0  0  0
  189.7810  176.6400  141.7800 C   0  0  0  0  0  2  0  0  0  0  0  0
  189.6450  176.9100  140.3590 N   0  0  0  0  0  0  0  0  0  0  0  0
  188.7640  178.0620  140.2320 C   0  0  0  0  0  2  0  0  0  0  0  0
  188.4100  179.0560  138.0920 O   0  0  0  0  0  1  0  0  0  0  0  0
  188.0120  178.0020  138.9150 C   0  0  0  0  0  2  0  0  0  0  0  0
  190.9560  177.3270  139.8880 C   0  0  0  0  0  2  0  0  0  0  0  0
  190.6800  175.2860  138.4840 O   0  0  0  0  0  1  0  0  0  0  0  0
  191.4160  176.4200  138.8000 C   0  0  0  0  0  0  0  0  0  0  0  0
  192.4920  176.6600  138.1940 O   0  0  0  0  0  0  0  0  0  0  0  0
  2  5  1  0  0  0  0
  3 11  1  1  0  0  0
  3  1  1  0  0  0  0
  4  6  1  0  0  0  0
  4  2  2  0  0  0  0
  5 10  2  0  0  0  0
  6  9  2  0  0  0  0
  7  3  1  0  0  0  0
  8  2  1  0  0  0  0
  8  7  1  0  0  0  0
  9  5  1  0  0  0  0
 10  1  1  0  0  0  0
 11 12  1  1  0  0  0
 13 14  1  0  0  0  0
 13 11  1  0  0  0  0
 14 15  1  0  0  0  0
 16 14  2  0  0  0  0
 17  7  1  0  0  0  0
 18 17  1  0  0  0  0
 19 18  1  0  0  0  0
 20 19  1  0  0  0  0
 21 20  1  0  0  0  0
 22 23  1  0  0  0  0
 23 21  1  0  0  0  0
 24 20  1  0  0  0  0
 25 26  1  0  0  0  0
 26 24  1  0  0  0  0
 27 26  2  0  0  0  0
M  END
>  <MODEL>
4

>  <REMARK>
 VINA RESULT:      -6.8      2.925      5.869
  Name = 
  11 active torsions:
  status: ('A' for Active; 'I' for Inactive)
    1  A    between atoms: C_1  and  C_4
    2  A    between atoms: C_1  and  C_22
    3  A    between atoms: C_6  and  C_15
    4  A    between atoms: C_6  and  N_20
    5  A    between atoms: C_7  and  C_14
    6  A    between atoms: C_7  and  C_27
    7  A    between atoms: C_9  and  C_22
    8  A    between atoms: C_14  and  N_20
    9  A    between atoms: N_17  and  C_27
   10  A    between atoms: C_18  and  C_19
   11  A    between atoms: C_19  and  N_20
                            x       y       z     vdW  Elec       q    Type
                         _______ _______ _______ _____ _____    ______ ____

>  <TORSDO>
F 11

$$$$
=
 OpenBabel10222420193D

 27 28  0  0  1  0  0  0  0  0999 V2000
  185.2110  178.3380  146.2000 C   0  0  0  0  0  2  0  0  0  0  0  0
  188.2400  177.6380  146.4890 C   0  0  0  0  0  0  0  0  0  0  0  0
  185.8880  178.5170  144.8400 C   0  0  1  0  0  3  0  0  0  0  0  0
  189.4000  177.4620  147.1060 C   0  0  0  0  0  3  0  0  0  0  0  0
  187.3710  178.2390  147.4880 C   0  0  0  0  0  0  0  0  0  0  0  0
  189.2770  177.8700  148.4710 N   0  0  0  0  0  0  0  0  0  0  0  0
  186.7450  177.3430  144.5660 N   0  0  0  0  0  0  0  0  0  0  0  0
  188.0960  177.6730  145.0030 C   0  0  0  0  0  2  0  0  0  0  0  0
  188.1140  178.3340  148.6900 N   0  0  0  0  0  0  0  0  0  0  0  0
  186.0930  178.6000  147.3840 C   0  0  0  0  0  3  0  0  0  0  0  0
  184.8190  178.8040  143.7620 C   0  0  2  0  0  3  0  0  0  0  0  0
  185.1500  179.9630  143.0570 O   0  0  0  0  0  1  0  0  0  0  0  0
  183.4130  178.9230  144.3440 C   0  0  0  0  0  2  0  0  0  0  0  0
  182.3920  178.8670  143.2620 C   0  0  0  0  0  0  0  0  0  0  0  0
  181.0580  179.1210  143.5520 O   0  0  0  0  0  1  0  0  0  0  0  0
  182.7410  178.6210  142.0780 O   0  0  0  0  0  0  0  0  0  0  0  0
  186.8820  177.0780  143.1370 C   0  0  0  0  0  2  0  0  0  0  0  0
  188.2500  177.5300  142.6690 C   0  0  0  0  0  2  0  0  0  0  0  0
  188.0940  178.5040  141.5180 C   0  0  0  0  0  2  0  0  0  0  0  0
  189.1100  178.2410  140.5140 N   0  0  0  0  0  0  0  0  0  0  0  0
  189.8600  177.0800  140.9680 C   0  0  0  0  0  2  0  0  0  0  0  0
  191.8970  177.2730  142.1970 O   0  0  0  0  0  1  0  0  0  0  0  0
  191.3500  177.3670  140.9170 C   0  0  0  0  0  2  0  0  0  0  0  0
  188.4050  177.8430  139.3060 C   0  0  0  0  0  2  0  0  0  0  0  0
  190.0120  177.5760  137.4200 O   0  0  0  0  0  0  0  0  0  0  0  0
  189.1110  178.3760  138.1080 C   0  0  0  0  0  0  0  0  0  0  0  0
  188.9180  179.5650  137.7410 O   0  0  0  0  0  1  0  0  0  0  0  0
  1 10  1  0  0  0  0
  2  4  2  0  0  0  0
  2  5  1  0  0  0  0
  3 11  1  6  0  0  0
  3  1  1  0  0  0  0
  4  6  1  0  0  0  0
  5  9  1  0  0  0  0
  6  9  2  0  0  0  0
  7  3  1  0  0  0  0
  7  8  1  0  0  0  0
  8  2  1  0  0  0  0
 10  5  2  0  0  0  0
 11 12  1  1  0  0  0
 11 13  1  0  0  0  0
 14 15  1  0  0  0  0
 14 13  1  0  0  0  0
 16 14  2  0  0  0  0
 17  7  1  0  0  0  0
 18 17  1  0  0  0  0
 19 18  1  0  0  0  0
 20 21  1  0  0  0  0
 20 19  1  0  0  0  0
 23 21  1  0  0  0  0
 23 22  1  0  0  0  0
 24 20  1  0  0  0  0
 25 26  2  0  0  0  0
 26 24  1  0  0  0  0
 27 26  1  0  0  0  0
M  END
>  <MODEL>
5

>  <REMARK>
 VINA RESULT:      -6.8      2.001      6.249
  Name = 
  11 active torsions:
  status: ('A' for Active; 'I' for Inactive)
    1  A    between atoms: C_1  and  C_4
    2  A    between atoms: C_1  and  C_22
    3  A    between atoms: C_6  and  C_15
    4  A    between atoms: C_6  and  N_20
    5  A    between atoms: C_7  and  C_14
    6  A    between atoms: C_7  and  C_27
    7  A    between atoms: C_9  and  C_22
    8  A    between atoms: C_14  and  N_20
    9  A    between atoms: N_17  and  C_27
   10  A    between atoms: C_18  and  C_19
   11  A    between atoms: C_19  and  N_20
                            x       y       z     vdW  Elec       q    Type
                         _______ _______ _______ _____ _____    ______ ____

>  <TORSDO>
F 11

$$$$
=
 OpenBabel10222420193D

 27 28  0  0  1  0  0  0  0  0999 V2000
  191.8610  177.2740  142.3330 C   0  0  0  0  0  2  0  0  0  0  0  0
  189.8500  176.8880  139.9770 C   0  0  0  0  0  0  0  0  0  0  0  0
  190.4940  177.8130  142.7610 C   0  0  1  0  0  3  0  0  0  0  0  0
  189.4540  176.7240  138.7220 C   0  0  0  0  0  3  0  0  0  0  0  0
  191.2750  177.1610  139.8880 C   0  0  0  0  0  0  0  0  0  0  0  0
  190.5860  176.8190  137.8520 N   0  0  0  0  0  0  0  0  0  0  0  0
  189.4500  176.8310  142.3960 N   0  0  0  0  0  0  0  0  0  0  0  0
  188.9180  177.2180  141.0960 C   0  0  0  0  0  2  0  0  0  0  0  0
  191.6340  177.0880  138.5200 N   0  0  0  0  0  0  0  0  0  0  0  0
  192.1520  177.3840  140.8670 C   0  0  0  0  0  3  0  0  0  0  0  0
  190.5320  178.1920  144.2580 C   0  0  2  0  0  3  0  0  0  0  0  0
  190.9240  179.5250  144.4040 O   0  0  0  0  0  1  0  0  0  0  0  0
  191.4450  177.2810  145.0740 C   0  0  0  0  0  2  0  0  0  0  0  0
  190.8980  177.0820  146.4440 C   0  0  0  0  0  0  0  0  0  0  0  0
  189.5370  176.8700  146.6240 O   0  0  0  0  0  0  0  0  0  0  0  0
  191.6710  177.0760  147.4380 O   0  0  0  0  0  1  0  0  0  0  0  0
  188.2980  176.8890  143.2910 C   0  0  0  0  0  2  0  0  0  0  0  0
  187.2490  177.8110  142.7030 C   0  0  0  0  0  2  0  0  0  0  0  0
  186.0560  177.8790  143.6360 C   0  0  0  0  0  2  0  0  0  0  0  0
  184.9260  178.4730  142.9420 N   0  0  0  0  0  0  0  0  0  0  0  0
  184.4300  179.5480  143.7880 C   0  0  0  0  0  2  0  0  0  0  0  0
  183.9970  178.9910  146.0680 O   0  0  0  0  0  1  0  0  0  0  0  0
  183.4310  179.0040  144.7930 C   0  0  0  0  0  2  0  0  0  0  0  0
  185.4580  179.0930  141.7390 C   0  0  0  0  0  2  0  0  0  0  0  0
  183.4450  178.0550  140.6980 O   0  0  0  0  0  1  0  0  0  0  0  0
  184.4600  179.0000  140.6370 C   0  0  0  0  0  0  0  0  0  0  0  0
  184.5600  179.7530  139.6340 O   0  0  0  0  0  0  0  0  0  0  0  0
  1  3  1  0  0  0  0
  2  8  1  0  0  0  0
  3 11  1  1  0  0  0
  4  2  2  0  0  0  0
  5  2  1  0  0  0  0
  5 10  2  0  0  0  0
  6  9  2  0  0  0  0
  6  4  1  0  0  0  0
  7  3  1  0  0  0  0
  7 17  1  0  0  0  0
  8  7  1  0  0  0  0
  9  5  1  0  0  0  0
 10  1  1  0  0  0  0
 11 12  1  6  0  0  0
 11 13  1  0  0  0  0
 13 14  1  0  0  0  0
 14 15  2  0  0  0  0
 14 16  1  0  0  0  0
 18 17  1  0  0  0  0
 18 19  1  0  0  0  0
 20 19  1  0  0  0  0
 20 21  1  0  0  0  0
 21 23  1  0  0  0  0
 23 22  1  0  0  0  0
 24 20  1  0  0  0  0
 26 25  1  0  0  0  0
 26 24  1  0  0  0  0
 27 26  2  0  0  0  0
M  END
>  <MODEL>
6

>  <REMARK>
 VINA RESULT:      -6.6      2.724      5.493
  Name = 
  11 active torsions:
  status: ('A' for Active; 'I' for Inactive)
    1  A    between atoms: C_1  and  C_4
    2  A    between atoms: C_1  and  C_22
    3  A    between atoms: C_6  and  C_15
    4  A    between atoms: C_6  and  N_20
    5  A    between atoms: C_7  and  C_14
    6  A    between atoms: C_7  and  C_27
    7  A    between atoms: C_9  and  C_22
    8  A    between atoms: C_14  and  N_20
    9  A    between atoms: N_17  and  C_27
   10  A    between atoms: C_18  and  C_19
   11  A    between atoms: C_19  and  N_20
                            x       y       z     vdW  Elec       q    Type
                         _______ _______ _______ _____ _____    ______ ____

>  <TORSDO>
F 11

$$$$
=
 OpenBabel10222420193D

 27 28  0  0  1  0  0  0  0  0999 V2000
  190.2090  177.7110  144.6150 C   0  0  0  0  0  2  0  0  0  0  0  0
  187.6810  177.8960  146.4380 C   0  0  0  0  0  0  0  0  0  0  0  0
  189.0750  176.9150  143.9650 C   0  0  1  0  0  3  0  0  0  0  0  0
  186.9900  178.0710  147.5560 C   0  0  0  0  0  2  0  0  0  0  0  0
  189.0740  177.8830  146.8540 C   0  0  0  0  0  0  0  0  0  0  0  0
  187.8960  178.2340  148.6510 N   0  0  0  0  0  0  0  0  0  0  0  0
  187.8360  177.7220  143.9960 N   0  0  0  0  0  0  0  0  0  0  0  0
  187.0890  177.3350  145.1860 C   0  0  0  0  0  2  0  0  0  0  0  0
  189.0970  178.1090  148.2520 N   0  0  0  0  0  0  0  0  0  0  0  0
  190.1720  177.7520  146.1130 C   0  0  0  0  0  2  0  0  0  0  0  0
  189.5100  176.4490  142.5570 C   0  0  2  0  0  3  0  0  0  0  0  0
  190.2260  175.2540  142.6490 O   0  0  0  0  0  1  0  0  0  0  0  0
  190.3320  177.5010  141.8170 C   0  0  0  0  0  2  0  0  0  0  0  0
  190.3190  177.2390  140.3510 C   0  0  0  0  0  0  0  0  0  0  0  0
  189.1110  177.1520  139.6720 O   0  0  0  0  0  0  0  0  0  0  0  0
  191.4020  177.1260  139.7200 O   0  0  0  0  0  1  0  0  0  0  0  0
  186.9390  177.4030  142.8880 C   0  0  0  0  0  2  0  0  0  0  0  0
  186.7120  178.6440  142.0490 C   0  0  0  0  0  2  0  0  0  0  0  0
  185.4350  179.3280  142.4940 C   0  0  0  0  0  2  0  0  0  0  0  0
  184.3140  178.4170  142.3390 N   0  0  0  0  0  0  0  0  0  0  0  0
  183.4590  178.5990  143.5030 C   0  0  0  0  0  2  0  0  0  0  0  0
  183.7040  179.0010  145.8430 O   0  0  0  0  0  1  0  0  0  0  0  0
  184.2080  179.3500  144.5890 C   0  0  0  0  0  2  0  0  0  0  0  0
  183.5610  178.8790  141.1840 C   0  0  0  0  0  2  0  0  0  0  0  0
  184.6810  178.2520  139.0470 O   0  0  0  0  0  0  0  0  0  0  0  0
  183.7610  177.9450  140.0410 C   0  0  0  0  0  0  0  0  0  0  0  0
  183.0690  176.8980  139.9560 O   0  0  0  0  0  1  0  0  0  0  0  0
  1 10  1  0  0  0  0
  2  5  2  0  0  0  0
  2  4  1  0  0  0  0
  3 11  1  6  0  0  0
  3  7  1  0  0  0  0
  3  1  1  0  0  0  0
  4  6  1  0  0  0  0
  5  9  1  0  0  0  0
  7  8  1  0  0  0  0
  8  2  1  0  0  0  0
  9  6  2  0  0  0  0
 10  5  1  0  0  0  0
 11 12  1  1  0  0  0
 13 11  1  0  0  0  0
 14 13  1  0  0  0  0
 15 14  2  0  0  0  0
 16 14  1  0  0  0  0
 17  7  1  0  0  0  0
 18 19  1  0  0  0  0
 18 17  1  0  0  0  0
 20 19  1  0  0  0  0
 20 21  1  0  0  0  0
 21 23  1  0  0  0  0
 23 22  1  0  0  0  0
 24 20  1  0  0  0  0
 25 26  2  0  0  0  0
 26 24  1  0  0  0  0
 27 26  1  0  0  0  0
M  END
>  <MODEL>
7

>  <REMARK>
 VINA RESULT:      -6.6      1.147      2.653
  Name = 
  11 active torsions:
  status: ('A' for Active; 'I' for Inactive)
    1  A    between atoms: C_1  and  C_4
    2  A    between atoms: C_1  and  C_22
    3  A    between atoms: C_6  and  C_15
    4  A    between atoms: C_6  and  N_20
    5  A    between atoms: C_7  and  C_14
    6  A    between atoms: C_7  and  C_27
    7  A    between atoms: C_9  and  C_22
    8  A    between atoms: C_14  and  N_20
    9  A    between atoms: N_17  and  C_27
   10  A    between atoms: C_18  and  C_19
   11  A    between atoms: C_19  and  N_20
                            x       y       z     vdW  Elec       q    Type
                         _______ _______ _______ _____ _____    ______ ____

>  <TORSDO>
F 11

$$$$
=
 OpenBabel10222420193D

 27 28  0  0  1  0  0  0  0  0999 V2000
  187.5110  177.5080  147.0840 C   0  0  0  0  0  2  0  0  0  0  0  0
  190.2160  176.9340  145.6350 C   0  0  0  0  0  0  0  0  0  0  0  0
  187.5200  178.2530  145.7480 C   0  0  1  0  0  3  0  0  0  0  0  0
  191.4940  176.5980  145.5200 C   0  0  0  0  0  3  0  0  0  0  0  0
  189.9830  177.0360  147.0670 C   0  0  0  0  0  0  0  0  0  0  0  0
  192.0560  176.4210  146.8230 N   0  0  0  0  0  0  0  0  0  0  0  0
  187.9910  177.3380  144.6850 N   0  0  0  0  0  0  0  0  0  0  0  0
  189.4240  177.5480  144.5280 C   0  0  0  0  0  2  0  0  0  0  0  0
  191.1930  176.6900  147.7170 N   0  0  0  0  0  0  0  0  0  0  0  0
  188.8580  177.3310  147.7170 C   0  0  0  0  0  3  0  0  0  0  0  0
  186.1300  178.8790  145.4940 C   0  0  2  0  0  3  0  0  0  0  0  0
  185.6110  179.3890  146.6860 O   0  0  0  0  0  1  0  0  0  0  0  0
  185.1460  177.8940  144.8670 C   0  0  0  0  0  2  0  0  0  0  0  0
  184.0810  178.6210  144.1220 C   0  0  0  0  0  0  0  0  0  0  0  0
  184.2380  178.8840  142.7680 O   0  0  0  0  0  0  0  0  0  0  0  0
  183.0250  178.9700  144.7110 O   0  0  0  0  0  1  0  0  0  0  0  0
  187.4310  177.6700  143.3790 C   0  0  0  0  0  2  0  0  0  0  0  0
  188.5220  178.2360  142.4910 C   0  0  0  0  0  2  0  0  0  0  0  0
  188.0310  178.2870  141.0580 C   0  0  0  0  0  2  0  0  0  0  0  0
  189.1500  178.0930  140.1520 N   0  0  0  0  0  0  0  0  0  0  0  0
  190.0020  177.0750  140.7470 C   0  0  0  0  0  2  0  0  0  0  0  0
  192.0410  177.5000  141.9130 O   0  0  0  0  0  1  0  0  0  0  0  0
  191.4590  177.4870  140.6450 C   0  0  0  0  0  2  0  0  0  0  0  0
  188.6000  177.5240  138.9320 C   0  0  0  0  0  2  0  0  0  0  0  0
  188.9800  179.5910  137.5910 O   0  0  0  0  0  1  0  0  0  0  0  0
  189.1670  178.2240  137.7460 C   0  0  0  0  0  0  0  0  0  0  0  0
  189.7820  177.5700  136.8640 O   0  0  0  0  0  0  0  0  0  0  0  0
  1 10  1  0  0  0  0
  2  5  1  0  0  0  0
  3 11  1  6  0  0  0
  3  1  1  0  0  0  0
  4  2  2  0  0  0  0
  4  6  1  0  0  0  0
  5 10  2  0  0  0  0
  5  9  1  0  0  0  0
  6  9  2  0  0  0  0
  7  3  1  0  0  0  0
  8  7  1  0  0  0  0
  8  2  1  0  0  0  0
 11 12  1  1  0  0  0
 13 11  1  0  0  0  0
 14 16  1  0  0  0  0
 14 13  1  0  0  0  0
 15 14  2  0  0  0  0
 17  7  1  0  0  0  0
 18 17  1  0  0  0  0
 19 18  1  0  0  0  0
 20 21  1  0  0  0  0
 20 19  1  0  0  0  0
 23 21  1  0  0  0  0
 23 22  1  0  0  0  0
 24 20  1  0  0  0  0
 25 26  1  0  0  0  0
 26 24  1  0  0  0  0
 27 26  2  0  0  0  0
M  END
>  <MODEL>
8

>  <REMARK>
 VINA RESULT:      -6.5      2.187      6.026
  Name = 
  11 active torsions:
  status: ('A' for Active; 'I' for Inactive)
    1  A    between atoms: C_1  and  C_4
    2  A    between atoms: C_1  and  C_22
    3  A    between atoms: C_6  and  C_15
    4  A    between atoms: C_6  and  N_20
    5  A    between atoms: C_7  and  C_14
    6  A    between atoms: C_7  and  C_27
    7  A    between atoms: C_9  and  C_22
    8  A    between atoms: C_14  and  N_20
    9  A    between atoms: N_17  and  C_27
   10  A    between atoms: C_18  and  C_19
   11  A    between atoms: C_19  and  N_20
                            x       y       z     vdW  Elec       q    Type
                         _______ _______ _______ _____ _____    ______ ____

>  <TORSDO>
F 11

$$$$
=
 OpenBabel10222420193D

 27 28  0  0  1  0  0  0  0  0999 V2000
  186.9070  178.5570  145.9910 C   0  0  0  0  0  2  0  0  0  0  0  0
  184.8410  178.5050  143.6510 C   0  0  0  0  0  0  0  0  0  0  0  0
  187.3860  177.5590  144.9350 C   0  0  1  0  0  3  0  0  0  0  0  0
  183.6690  178.6600  143.0520 C   0  0  0  0  0  3  0  0  0  0  0  0
  184.5740  178.7260  145.0630 C   0  0  0  0  0  0  0  0  0  0  0  0
  182.6860  179.0320  144.0230 N   0  0  0  0  0  0  0  0  0  0  0  0
  187.2720  178.1770  143.5960 N   0  0  0  0  0  0  0  0  0  0  0  0
  185.9890  177.7740  143.0350 C   0  0  0  0  0  2  0  0  0  0  0  0
  183.2010  179.0540  145.1850 N   0  0  0  0  0  0  0  0  0  0  0  0
  185.4180  178.7020  146.0930 C   0  0  0  0  0  3  0  0  0  0  0  0
  188.8020  177.0590  145.2990 C   0  0  2  0  0  3  0  0  0  0  0  0
  188.8070  176.5370  146.5940 O   0  0  0  0  0  1  0  0  0  0  0  0
  189.8630  178.1490  145.1650 C   0  0  0  0  0  2  0  0  0  0  0  0
  191.2170  177.5460  145.0190 C   0  0  0  0  0  0  0  0  0  0  0  0
  191.7950  177.4350  143.7610 O   0  0  0  0  0  0  0  0  0  0  0  0
  191.8510  177.1650  146.0370 O   0  0  0  0  0  1  0  0  0  0  0  0
  188.2580  177.6510  142.6570 C   0  0  0  0  0  2  0  0  0  0  0  0
  188.3790  178.5900  141.4740 C   0  0  0  0  0  2  0  0  0  0  0  0
  188.5210  177.7810  140.2000 C   0  0  0  0  0  2  0  0  0  0  0  0
  188.0430  178.5610  139.0710 N   0  0  0  0  0  0  0  0  0  0  0  0
  189.1860  178.7820  138.1980 C   0  0  0  0  0  2  0  0  0  0  0  0
  190.7440  177.0510  137.6730 O   0  0  0  0  0  1  0  0  0  0  0  0
  189.4680  177.5340  137.3800 C   0  0  0  0  0  2  0  0  0  0  0  0
  187.1140  177.7110  138.3440 C   0  0  0  0  0  2  0  0  0  0  0  0
  184.7490  177.8550  137.5700 O   0  0  0  0  0  0  0  0  0  0  0  0
  185.7300  178.2480  138.4700 C   0  0  0  0  0  0  0  0  0  0  0  0
  185.4610  179.0870  139.3680 O   0  0  0  0  0  1  0  0  0  0  0  0
  1 10  1  0  0  0  0
  2  5  1  0  0  0  0
  3 11  1  1  0  0  0
  3  1  1  0  0  0  0
  4  2  2  0  0  0  0
  4  6  1  0  0  0  0
  5  9  1  0  0  0  0
  5 10  2  0  0  0  0
  6  9  2  0  0  0  0
  7  3  1  0  0  0  0
  8  7  1  0  0  0  0
  8  2  1  0  0  0  0
 11 12  1  1  0  0  0
 13 11  1  0  0  0  0
 14 13  1  0  0  0  0
 14 16  1  0  0  0  0
 15 14  2  0  0  0  0
 17  7  1  0  0  0  0
 18 17  1  0  0  0  0
 19 18  1  0  0  0  0
 20 19  1  0  0  0  0
 21 20  1  0  0  0  0
 23 22  1  0  0  0  0
 23 21  1  0  0  0  0
 24 26  1  0  0  0  0
 24 20  1  0  0  0  0
 25 26  2  0  0  0  0
 26 27  1  0  0  0  0
M  END
>  <MODEL>
9

>  <REMARK>
 VINA RESULT:      -6.4      2.749      4.923
  Name = 
  11 active torsions:
  status: ('A' for Active; 'I' for Inactive)
    1  A    between atoms: C_1  and  C_4
    2  A    between atoms: C_1  and  C_22
    3  A    between atoms: C_6  and  C_15
    4  A    between atoms: C_6  and  N_20
    5  A    between atoms: C_7  and  C_14
    6  A    between atoms: C_7  and  C_27
    7  A    between atoms: C_9  and  C_22
    8  A    between atoms: C_14  and  N_20
    9  A    between atoms: N_17  and  C_27
   10  A    between atoms: C_18  and  C_19
   11  A    between atoms: C_19  and  N_20
                            x       y       z     vdW  Elec       q    Type
                         _______ _______ _______ _____ _____    ______ ____

>  <TORSDO>
F 11

$$$$
