=
 OpenBabel10222420213D

 27 30  0  0  1  0  0  0  0  0999 V2000
  185.3160  178.6510  145.5110 C   0  0  1  0  0  3  0  0  0  0  0  0
  183.9330  179.6170  143.6390 C   0  0  0  0  0  2  0  0  0  0  0  0
  183.6160  176.7310  138.3470 C   0  0  0  0  0  3  0  0  0  0  0  0
  184.0210  177.7060  139.2690 C   0  0  0  0  0  0  0  0  0  0  0  0
  187.6760  178.1860  140.9970 C   0  0  0  0  0  0  0  0  0  0  0  0
  182.1370  176.4810  140.3490 S   0  0  0  0  0  0  0  0  0  0  0  0
  185.6710  178.2930  142.3960 C   0  0  0  0  0  0  0  0  0  0  0  0
  188.3500  177.5160  142.0140 C   0  0  0  0  0  3  0  0  0  0  0  0
  182.5610  175.9380  138.8050 C   0  0  0  0  0  3  0  0  0  0  0  0
  184.1870  178.5070  142.6420 C   0  0  2  0  0  3  0  0  0  0  0  0
  183.3750  178.6850  141.4500 N   0  0  0  0  0  2  0  0  0  0  0  0
  185.8530  177.5250  144.7520 N   0  0  0  0  0  2  0  0  0  0  0  0
  186.3390  178.5950  141.1740 C   0  0  0  0  0  0  0  0  0  0  0  0
  186.4070  177.6880  143.4420 C   0  0  0  0  0  0  0  0  0  0  0  0
  185.3680  179.0300  137.8450 O   0  0  0  0  0  0  0  0  0  0  0  0
  183.9150  179.0250  145.0390 C   0  0  0  0  0  2  0  0  0  0  0  0
  183.3010  177.6780  140.4430 C   0  0  0  0  0  0  0  0  0  0  0  0
  185.7140  179.3480  140.1240 N   0  0  0  0  0  2  0  0  0  0  0  0
  187.7230  177.2780  143.2310 C   0  0  0  0  0  3  0  0  0  0  0  0
  185.0680  178.7030  139.0230 C   0  0  0  0  0  0  0  0  0  0  0  0
  188.4070  178.4600  139.7260 C   0  0  0  0  0  1  0  0  0  0  0  0
  185.2790  178.2800  146.9830 C   0  0  0  0  0  2  0  0  0  0  0  0
  186.5890  178.6460  147.6540 C   0  0  0  0  0  2  0  0  0  0  0  0
  189.9690  176.8210  147.2020 C   0  0  0  0  0  1  0  0  0  0  0  0
  189.1580  178.3490  148.8320 O   0  0  0  0  0  0  0  0  0  0  0  0
  188.9200  177.7000  147.7800 C   0  0  0  0  0  0  0  0  0  0  0  0
  187.6510  177.8010  147.1340 N   0  0  0  0  0  2  0  0  0  0  0  0
  1 22  1  1  0  0  0
  2 16  1  0  0  0  0
  3  9  2  0  0  0  0
  3  4  1  0  0  0  0
  4 17  2  0  0  0  0
  5 13  2  0  0  0  0
  5  8  1  0  0  0  0
  6 17  1  0  0  0  0
  7 10  1  0  0  0  0
  7 14  2  0  0  0  0
  8 19  2  0  0  0  0
  9  6  1  0  0  0  0
 10  2  1  1  0  0  0
 11 10  1  0  0  0  0
 12  1  1  0  0  0  0
 13  7  1  0  0  0  0
 14 12  1  0  0  0  0
 15 20  2  0  0  0  0
 16  1  1  0  0  0  0
 17 11  1  0  0  0  0
 18 13  1  0  0  0  0
 19 14  1  0  0  0  0
 20  4  1  0  0  0  0
 20 18  1  0  0  0  0
 21  5  1  0  0  0  0
 22 23  1  0  0  0  0
 24 26  1  0  0  0  0
 26 25  2  0  0  0  0
 27 23  1  0  0  0  0
 27 26  1  0  0  0  0
M  END
>  <MODEL>
1

>  <REMARK>
 VINA RESULT:      -8.3      0.000      0.000
  Name = 
  3 active torsions:
  status: ('A' for Active; 'I' for Inactive)
    1  A    between atoms: C_1  and  C_22
    2  A    between atoms: C_2  and  N_8
    3  A    between atoms: C_2  and  C_22
                            x       y       z     vdW  Elec       q    Type
                         _______ _______ _______ _____ _____    ______ ____

>  <TORSDO>
F 3

$$$$
=
 OpenBabel10222420213D

 27 30  0  0  1  0  0  0  0  0999 V2000
  185.9200  178.4710  144.4880 C   0  0  1  0  0  3  0  0  0  0  0  0
  185.7270  179.7930  142.3500 C   0  0  0  0  0  2  0  0  0  0  0  0
  186.6620  177.0680  137.0460 C   0  0  0  0  0  3  0  0  0  0  0  0
  186.9440  177.8820  138.1520 C   0  0  0  0  0  0  0  0  0  0  0  0
  189.6010  177.2200  141.1640 C   0  0  0  0  0  0  0  0  0  0  0  0
  184.5190  177.3260  138.3080 S   0  0  0  0  0  0  0  0  0  0  0  0
  187.3380  177.9710  141.7130 C   0  0  0  0  0  0  0  0  0  0  0  0
  189.5960  176.3880  142.2810 C   0  0  0  0  0  3  0  0  0  0  0  0
  185.3300  176.6540  136.9870 C   0  0  0  0  0  3  0  0  0  0  0  0
  186.0100  178.6430  141.4070 C   0  0  2  0  0  3  0  0  0  0  0  0
  185.8190  179.0480  140.0250 N   0  0  0  0  0  2  0  0  0  0  0  0
  186.3530  177.2220  143.8670 N   0  0  0  0  0  2  0  0  0  0  0  0
  188.4870  178.0300  140.8710 C   0  0  0  0  0  0  0  0  0  0  0  0
  187.3950  177.1830  142.8860 C   0  0  0  0  0  0  0  0  0  0  0  0
  189.0650  178.6950  137.4890 O   0  0  0  0  0  0  0  0  0  0  0  0
  184.9910  179.2590  143.5680 C   0  0  0  0  0  2  0  0  0  0  0  0
  185.8500  178.1000  138.9610 C   0  0  0  0  0  0  0  0  0  0  0  0
  188.5720  178.9240  139.7510 N   0  0  0  0  0  2  0  0  0  0  0  0
  188.5050  176.3780  143.1410 C   0  0  0  0  0  3  0  0  0  0  0  0
  188.2470  178.4970  138.4260 C   0  0  0  0  0  0  0  0  0  0  0  0
  190.8150  177.2310  140.2980 C   0  0  0  0  0  1  0  0  0  0  0  0
  185.2050  178.1540  145.7880 C   0  0  0  0  0  2  0  0  0  0  0  0
  186.1020  178.4590  146.9730 C   0  0  0  0  0  2  0  0  0  0  0  0
  189.6900  177.1250  147.5250 C   0  0  0  0  0  1  0  0  0  0  0  0
  188.0990  178.1400  148.9700 O   0  0  0  0  0  0  0  0  0  0  0  0
  188.3660  177.7380  147.8060 C   0  0  0  0  0  0  0  0  0  0  0  0
  187.4100  177.8670  146.7540 N   0  0  0  0  0  2  0  0  0  0  0  0
  1 22  1  1  0  0  0
  2 16  1  0  0  0  0
  3  4  1  0  0  0  0
  4 20  1  0  0  0  0
  4 17  2  0  0  0  0
  5  8  1  0  0  0  0
  6 17  1  0  0  0  0
  7 14  2  0  0  0  0
  8 19  2  0  0  0  0
  9  3  2  0  0  0  0
  9  6  1  0  0  0  0
 10  7  1  0  0  0  0
 10  2  1  1  0  0  0
 11 10  1  0  0  0  0
 12  1  1  0  0  0  0
 13  5  2  0  0  0  0
 13  7  1  0  0  0  0
 14 19  1  0  0  0  0
 14 12  1  0  0  0  0
 15 20  2  0  0  0  0
 16  1  1  0  0  0  0
 17 11  1  0  0  0  0
 18 13  1  0  0  0  0
 20 18  1  0  0  0  0
 21  5  1  0  0  0  0
 22 23  1  0  0  0  0
 24 26  1  0  0  0  0
 26 25  2  0  0  0  0
 27 23  1  0  0  0  0
 27 26  1  0  0  0  0
M  END
>  <MODEL>
2

>  <REMARK>
 VINA RESULT:      -8.2      1.724      2.271
  Name = 
  3 active torsions:
  status: ('A' for Active; 'I' for Inactive)
    1  A    between atoms: C_1  and  C_22
    2  A    between atoms: C_2  and  N_8
    3  A    between atoms: C_2  and  C_22
                            x       y       z     vdW  Elec       q    Type
                         _______ _______ _______ _____ _____    ______ ____

>  <TORSDO>
F 3

$$$$
=
 OpenBabel10222420213D

 27 30  0  0  1  0  0  0  0  0999 V2000
  186.6450  178.2830  140.2560 C   0  0  1  0  0  3  0  0  0  0  0  0
  184.5430  177.8330  138.9390 C   0  0  0  0  0  2  0  0  0  0  0  0
  179.6800  181.3090  139.7750 C   0  0  0  0  0  3  0  0  0  0  0  0
  180.4950  180.1740  139.8830 C   0  0  0  0  0  0  0  0  0  0  0  0
  182.4650  178.7800  143.1610 C   0  0  0  0  0  0  0  0  0  0  0  0
  181.5560  181.6190  138.1500 S   0  0  0  0  0  0  0  0  0  0  0  0
  183.6510  178.9160  141.0250 C   0  0  0  0  0  0  0  0  0  0  0  0
  183.6190  179.1810  143.8280 C   0  0  0  0  0  3  0  0  0  0  0  0
  180.1430  182.2390  138.8420 C   0  0  0  0  0  3  0  0  0  0  0  0
  183.7310  178.9770  139.5090 C   0  0  2  0  0  3  0  0  0  0  0  0
  182.4580  179.1020  138.8200 N   0  0  0  0  0  2  0  0  0  0  0  0
  186.0950  179.3580  141.0770 N   0  0  0  0  0  2  0  0  0  0  0  0
  182.4640  178.6280  141.7600 C   0  0  0  0  0  0  0  0  0  0  0  0
  184.8300  179.2390  141.7360 C   0  0  0  0  0  0  0  0  0  0  0  0
  179.0330  178.7790  141.1130 O   0  0  0  0  0  0  0  0  0  0  0  0
  186.0020  178.2530  138.8720 C   0  0  0  0  0  2  0  0  0  0  0  0
  181.5930  180.2110  139.0510 C   0  0  0  0  0  0  0  0  0  0  0  0
  181.2710  178.1400  141.1300 N   0  0  0  0  0  2  0  0  0  0  0  0
  184.7960  179.3990  143.1210 C   0  0  0  0  0  3  0  0  0  0  0  0
  180.2130  179.0220  140.7460 C   0  0  0  0  0  0  0  0  0  0  0  0
  181.2400  178.5120  143.9690 C   0  0  0  0  0  1  0  0  0  0  0  0
  188.1440  178.4840  140.1200 C   0  0  0  0  0  2  0  0  0  0  0  0
  188.8900  177.5020  141.0030 C   0  0  0  0  0  2  0  0  0  0  0  0
  188.3640  177.6950  144.8300 C   0  0  0  0  0  1  0  0  0  0  0  0
  187.9300  176.0030  143.2180 O   0  0  0  0  0  0  0  0  0  0  0  0
  188.3670  177.1620  143.4430 C   0  0  0  0  0  0  0  0  0  0  0  0
  188.8650  177.9720  142.3780 N   0  0  0  0  0  2  0  0  0  0  0  0
  1 22  1  6  0  0  0
  1 12  1  0  0  0  0
  3  4  1  0  0  0  0
  4 20  1  0  0  0  0
  5  8  1  0  0  0  0
  5 21  1  0  0  0  0
  6  9  1  0  0  0  0
  6 17  1  0  0  0  0
  7 14  2  0  0  0  0
  7 13  1  0  0  0  0
  9  3  2  0  0  0  0
 10  2  1  6  0  0  0
 10  7  1  0  0  0  0
 11 17  1  0  0  0  0
 11 10  1  0  0  0  0
 12 14  1  0  0  0  0
 13  5  2  0  0  0  0
 14 19  1  0  0  0  0
 16  2  1  0  0  0  0
 16  1  1  0  0  0  0
 17  4  2  0  0  0  0
 18 13  1  0  0  0  0
 19  8  2  0  0  0  0
 20 15  2  0  0  0  0
 20 18  1  0  0  0  0
 22 23  1  0  0  0  0
 23 27  1  0  0  0  0
 25 26  2  0  0  0  0
 26 24  1  0  0  0  0
 27 26  1  0  0  0  0
M  END
>  <MODEL>
3

>  <REMARK>
 VINA RESULT:      -7.3      3.200      5.265
  Name = 
  3 active torsions:
  status: ('A' for Active; 'I' for Inactive)
    1  A    between atoms: C_1  and  C_22
    2  A    between atoms: C_2  and  N_8
    3  A    between atoms: C_2  and  C_22
                            x       y       z     vdW  Elec       q    Type
                         _______ _______ _______ _____ _____    ______ ____

>  <TORSDO>
F 3

$$$$
=
 OpenBabel10222420213D

 27 30  0  0  1  0  0  0  0  0999 V2000
  192.7100  175.1020  137.0800 C   0  0  1  0  0  3  0  0  0  0  0  0
  192.4670  177.0360  138.6790 C   0  0  0  0  0  2  0  0  0  0  0  0
  187.9370  177.0770  142.6680 C   0  0  0  0  0  3  0  0  0  0  0  0
  188.6490  177.4260  141.5120 C   0  0  0  0  0  0  0  0  0  0  0  0
  187.8140  176.4720  137.6440 C   0  0  0  0  0  0  0  0  0  0  0  0
  190.2400  176.1400  142.9360 S   0  0  0  0  0  0  0  0  0  0  0  0
  190.1020  176.2080  138.4710 C   0  0  0  0  0  0  0  0  0  0  0  0
  187.9510  175.3070  136.8940 C   0  0  0  0  0  3  0  0  0  0  0  0
  188.6900  176.3330  143.5790 C   0  0  0  0  0  3  0  0  0  0  0  0
  191.2560  176.5040  139.4150 C   0  0  2  0  0  3  0  0  0  0  0  0
  190.9310  177.3450  140.5540 N   0  0  0  0  0  2  0  0  0  0  0  0
  191.4950  174.4020  137.4870 N   0  0  0  0  0  2  0  0  0  0  0  0
  188.8830  176.9470  138.4290 C   0  0  0  0  0  0  0  0  0  0  0  0
  190.2420  175.0780  137.6330 C   0  0  0  0  0  0  0  0  0  0  0  0
  187.1630  179.0440  140.6320 O   0  0  0  0  0  0  0  0  0  0  0  0
  193.3330  175.8640  138.2460 C   0  0  0  0  0  2  0  0  0  0  0  0
  189.9450  176.9580  141.5070 C   0  0  0  0  0  0  0  0  0  0  0  0
  188.7160  178.1910  139.1240 N   0  0  0  0  0  2  0  0  0  0  0  0
  189.1600  174.6210  136.8800 C   0  0  0  0  0  3  0  0  0  0  0  0
  188.1170  178.2500  140.4210 C   0  0  0  0  0  0  0  0  0  0  0  0
  186.5130  177.1990  137.5880 C   0  0  0  0  0  1  0  0  0  0  0  0
  193.7040  174.0910  136.5390 C   0  0  0  0  0  2  0  0  0  0  0  0
  195.0970  174.3880  137.0610 C   0  0  0  0  0  2  0  0  0  0  0  0
  198.2230  175.1440  134.9120 C   0  0  0  0  0  1  0  0  0  0  0  0
  197.7120  175.4930  137.2070 O   0  0  0  0  0  0  0  0  0  0  0  0
  197.3210  175.0610  136.0900 C   0  0  0  0  0  0  0  0  0  0  0  0
  196.0200  174.4940  135.9440 N   0  0  0  0  0  2  0  0  0  0  0  0
  1 22  1  1  0  0  0
  1 12  1  0  0  0  0
  1 16  1  0  0  0  0
  3  9  2  0  0  0  0
  4  3  1  0  0  0  0
  5 13  1  0  0  0  0
  6  9  1  0  0  0  0
  7 10  1  0  0  0  0
  8  5  2  0  0  0  0
 10  2  1  6  0  0  0
 10 11  1  0  0  0  0
 11 17  1  0  0  0  0
 12 14  1  0  0  0  0
 13  7  2  0  0  0  0
 13 18  1  0  0  0  0
 14  7  1  0  0  0  0
 16  2  1  0  0  0  0
 17  4  2  0  0  0  0
 17  6  1  0  0  0  0
 18 20  1  0  0  0  0
 19  8  1  0  0  0  0
 19 14  2  0  0  0  0
 20 15  2  0  0  0  0
 20  4  1  0  0  0  0
 21  5  1  0  0  0  0
 22 23  1  0  0  0  0
 24 26  1  0  0  0  0
 26 25  2  0  0  0  0
 27 26  1  0  0  0  0
 27 23  1  0  0  0  0
M  END
>  <MODEL>
4

>  <REMARK>
 VINA RESULT:      -7.3      6.271      9.344
  Name = 
  3 active torsions:
  status: ('A' for Active; 'I' for Inactive)
    1  A    between atoms: C_1  and  C_22
    2  A    between atoms: C_2  and  N_8
    3  A    between atoms: C_2  and  C_22
                            x       y       z     vdW  Elec       q    Type
                         _______ _______ _______ _____ _____    ______ ____

>  <TORSDO>
F 3

$$$$
=
 OpenBabel10222420213D

 27 30  0  0  1  0  0  0  0  0999 V2000
  186.3530  177.7520  138.8480 C   0  0  1  0  0  3  0  0  0  0  0  0
  183.9400  177.3880  138.2180 C   0  0  0  0  0  2  0  0  0  0  0  0
  179.7400  181.3220  140.0390 C   0  0  0  0  0  3  0  0  0  0  0  0
  180.4810  180.1320  140.0240 C   0  0  0  0  0  0  0  0  0  0  0  0
  183.2120  178.8190  142.7410 C   0  0  0  0  0  0  0  0  0  0  0  0
  181.0910  181.3480  137.9350 S   0  0  0  0  0  0  0  0  0  0  0  0
  183.7470  178.6950  140.3560 C   0  0  0  0  0  0  0  0  0  0  0  0
  184.5310  179.1680  143.0190 C   0  0  0  0  0  3  0  0  0  0  0  0
  179.9750  182.1370  138.9290 C   0  0  0  0  0  3  0  0  0  0  0  0
  183.3960  178.6360  138.8790 C   0  0  2  0  0  3  0  0  0  0  0  0
  181.9900  178.8190  138.5630 N   0  0  0  0  0  2  0  0  0  0  0  0
  186.1270  178.9280  139.6830 N   0  0  0  0  0  2  0  0  0  0  0  0
  182.8030  178.5650  141.4170 C   0  0  0  0  0  0  0  0  0  0  0  0
  185.0980  178.9660  140.6770 C   0  0  0  0  0  0  0  0  0  0  0  0
  179.3460  178.9620  141.7390 O   0  0  0  0  0  0  0  0  0  0  0  0
  185.3430  177.6740  137.7070 C   0  0  0  0  0  2  0  0  0  0  0  0
  181.2960  180.0120  138.9190 C   0  0  0  0  0  0  0  0  0  0  0  0
  181.4520  178.1370  141.1930 N   0  0  0  0  0  2  0  0  0  0  0  0
  185.4690  179.2310  141.9950 C   0  0  0  0  0  3  0  0  0  0  0  0
  180.3850  179.0760  141.0370 C   0  0  0  0  0  0  0  0  0  0  0  0
  182.2540  178.7190  143.8790 C   0  0  0  0  0  1  0  0  0  0  0  0
  187.7610  177.8120  138.2820 C   0  0  0  0  0  2  0  0  0  0  0  0
  188.7090  178.4320  139.2900 C   0  0  0  0  0  2  0  0  0  0  0  0
  190.0340  176.3190  142.2460 C   0  0  0  0  0  1  0  0  0  0  0  0
  188.8540  178.3790  142.1280 O   0  0  0  0  0  0  0  0  0  0  0  0
  189.3750  177.4210  141.4980 C   0  0  0  0  0  0  0  0  0  0  0  0
  189.3390  177.3830  140.0710 N   0  0  0  0  0  2  0  0  0  0  0  0
  1 22  1  6  0  0  0
  1 12  1  0  0  0  0
  4  3  1  0  0  0  0
  4 20  1  0  0  0  0
  5  8  1  0  0  0  0
  5 21  1  0  0  0  0
  6 17  1  0  0  0  0
  6  9  1  0  0  0  0
  7 14  2  0  0  0  0
  7 13  1  0  0  0  0
  9  3  2  0  0  0  0
 10  2  1  1  0  0  0
 10  7  1  0  0  0  0
 11 10  1  0  0  0  0
 11 17  1  0  0  0  0
 12 14  1  0  0  0  0
 13  5  2  0  0  0  0
 14 19  1  0  0  0  0
 16  2  1  0  0  0  0
 16  1  1  0  0  0  0
 17  4  2  0  0  0  0
 18 13  1  0  0  0  0
 19  8  2  0  0  0  0
 20 18  1  0  0  0  0
 20 15  2  0  0  0  0
 22 23  1  0  0  0  0
 23 27  1  0  0  0  0
 26 25  2  0  0  0  0
 26 24  1  0  0  0  0
 27 26  1  0  0  0  0
M  END
>  <MODEL>
5

>  <REMARK>
 VINA RESULT:      -7.2      3.526      5.750
  Name = 
  3 active torsions:
  status: ('A' for Active; 'I' for Inactive)
    1  A    between atoms: C_1  and  C_22
    2  A    between atoms: C_2  and  N_8
    3  A    between atoms: C_2  and  C_22
                            x       y       z     vdW  Elec       q    Type
                         _______ _______ _______ _____ _____    ______ ____

>  <TORSDO>
F 3

$$$$
=
 OpenBabel10222420213D

 27 30  0  0  1  0  0  0  0  0999 V2000
  188.3820  177.4770  135.8980 C   0  0  1  0  0  3  0  0  0  0  0  0
  188.7960  179.0100  137.8560 C   0  0  0  0  0  2  0  0  0  0  0  0
  186.6580  177.5520  143.3090 C   0  0  0  0  0  3  0  0  0  0  0  0
  186.7260  178.2250  142.0810 C   0  0  0  0  0  0  0  0  0  0  0  0
  184.2420  177.8860  138.8740 C   0  0  0  0  0  0  0  0  0  0  0  0
  188.8720  176.9760  142.2990 S   0  0  0  0  0  0  0  0  0  0  0  0
  186.6630  177.8560  138.5170 C   0  0  0  0  0  0  0  0  0  0  0  0
  184.0830  176.9210  137.8830 C   0  0  0  0  0  3  0  0  0  0  0  0
  187.7930  176.7860  143.5850 C   0  0  0  0  0  3  0  0  0  0  0  0
  188.1030  178.1560  138.8960 C   0  0  2  0  0  3  0  0  0  0  0  0
  188.2970  178.7030  140.2280 N   0  0  0  0  0  2  0  0  0  0  0  0
  187.5430  176.5210  136.6150 N   0  0  0  0  0  2  0  0  0  0  0  0
  185.5230  178.3770  139.1960 C   0  0  0  0  0  0  0  0  0  0  0  0
  186.4630  176.9410  137.4570 C   0  0  0  0  0  0  0  0  0  0  0  0
  184.9060  179.7100  142.3670 O   0  0  0  0  0  0  0  0  0  0  0  0
  189.4290  178.0990  136.8170 C   0  0  0  0  0  2  0  0  0  0  0  0
  187.8960  177.9870  141.3930 C   0  0  0  0  0  0  0  0  0  0  0  0
  185.6240  179.4240  140.1730 N   0  0  0  0  0  2  0  0  0  0  0  0
  185.1850  176.4600  137.1720 C   0  0  0  0  0  3  0  0  0  0  0  0
  185.6970  179.1380  141.5720 C   0  0  0  0  0  0  0  0  0  0  0  0
  183.0240  178.3850  139.5750 C   0  0  0  0  0  1  0  0  0  0  0  0
  189.0680  176.7640  134.7470 C   0  0  0  0  0  2  0  0  0  0  0  0
  189.2690  175.2970  135.0780 C   0  0  0  0  0  2  0  0  0  0  0  0
  192.3740  174.3700  137.1880 C   0  0  0  0  0  1  0  0  0  0  0  0
  190.0390  174.2880  137.6210 O   0  0  0  0  0  0  0  0  0  0  0  0
  190.9530  174.5700  136.8020 C   0  0  0  0  0  0  0  0  0  0  0  0
  190.6390  175.0810  135.5070 N   0  0  0  0  0  2  0  0  0  0  0  0
  1 22  1  6  0  0  0
  1 12  1  0  0  0  0
  1 16  1  0  0  0  0
  3  9  2  0  0  0  0
  4  3  1  0  0  0  0
  5 13  1  0  0  0  0
  5 21  1  0  0  0  0
  6  9  1  0  0  0  0
  7 10  1  0  0  0  0
  7 13  2  0  0  0  0
  8  5  2  0  0  0  0
 10  2  1  6  0  0  0
 10 11  1  0  0  0  0
 11 17  1  0  0  0  0
 12 14  1  0  0  0  0
 13 18  1  0  0  0  0
 14  7  1  0  0  0  0
 16  2  1  0  0  0  0
 17  4  2  0  0  0  0
 17  6  1  0  0  0  0
 18 20  1  0  0  0  0
 19 14  2  0  0  0  0
 19  8  1  0  0  0  0
 20  4  1  0  0  0  0
 20 15  2  0  0  0  0
 22 23  1  0  0  0  0
 23 27  1  0  0  0  0
 26 24  1  0  0  0  0
 26 25  2  0  0  0  0
 27 26  1  0  0  0  0
M  END
>  <MODEL>
6

>  <REMARK>
 VINA RESULT:      -7.1      3.796      7.821
  Name = 
  3 active torsions:
  status: ('A' for Active; 'I' for Inactive)
    1  A    between atoms: C_1  and  C_22
    2  A    between atoms: C_2  and  N_8
    3  A    between atoms: C_2  and  C_22
                            x       y       z     vdW  Elec       q    Type
                         _______ _______ _______ _____ _____    ______ ____

>  <TORSDO>
F 3

$$$$
=
 OpenBabel10222420213D

 27 30  0  0  1  0  0  0  0  0999 V2000
  185.5600  178.6920  142.8140 C   0  0  1  0  0  3  0  0  0  0  0  0
  186.9740  179.4210  140.8590 C   0  0  0  0  0  2  0  0  0  0  0  0
  190.7940  175.5100  138.2990 C   0  0  0  0  0  3  0  0  0  0  0  0
  190.3840  176.5900  139.0930 C   0  0  0  0  0  0  0  0  0  0  0  0
  190.3240  176.8620  143.1550 C   0  0  0  0  0  0  0  0  0  0  0  0
  188.4000  175.9510  137.7260 S   0  0  0  0  0  0  0  0  0  0  0  0
  188.3670  177.5950  141.8800 C   0  0  0  0  0  0  0  0  0  0  0  0
  189.4880  176.3390  144.1370 C   0  0  0  0  0  3  0  0  0  0  0  0
  189.7840  175.0170  137.4700 C   0  0  0  0  0  3  0  0  0  0  0  0
  187.6580  178.0890  140.6310 C   0  0  2  0  0  3  0  0  0  0  0  0
  188.4660  178.1220  139.4250 N   0  0  0  0  0  2  0  0  0  0  0  0
  186.1320  177.3550  142.9380 N   0  0  0  0  0  2  0  0  0  0  0  0
  189.7830  177.5070  142.0240 C   0  0  0  0  0  0  0  0  0  0  0  0
  187.5460  177.1310  142.9350 C   0  0  0  0  0  0  0  0  0  0  0  0
  192.5030  177.3320  139.8380 O   0  0  0  0  0  0  0  0  0  0  0  0
  185.5630  179.1680  141.3640 C   0  0  0  0  0  2  0  0  0  0  0  0
  189.0650  176.9400  138.8980 C   0  0  0  0  0  0  0  0  0  0  0  0
  190.6880  178.0940  141.0780 N   0  0  0  0  0  2  0  0  0  0  0  0
  188.1090  176.4810  144.0330 C   0  0  0  0  0  3  0  0  0  0  0  0
  191.2560  177.3290  140.0120 C   0  0  0  0  0  0  0  0  0  0  0  0
  191.7980  176.7260  143.3350 C   0  0  0  0  0  1  0  0  0  0  0  0
  184.1370  178.6710  143.3430 C   0  0  0  0  0  2  0  0  0  0  0  0
  184.0620  179.3690  144.6870 C   0  0  0  0  0  2  0  0  0  0  0  0
  186.7940  178.5260  147.2920 C   0  0  0  0  0  1  0  0  0  0  0  0
  184.4490  178.1490  147.2250 O   0  0  0  0  0  0  0  0  0  0  0  0
  185.4610  178.6210  146.6430 C   0  0  0  0  0  0  0  0  0  0  0  0
  185.3400  179.2480  145.3670 N   0  0  0  0  0  2  0  0  0  0  0  0
  1 12  1  0  0  0  0
  1 22  1  6  0  0  0
  2 16  1  0  0  0  0
  3  4  1  0  0  0  0
  4 20  1  0  0  0  0
  5 21  1  0  0  0  0
  5  8  1  0  0  0  0
  6 17  1  0  0  0  0
  7 13  1  0  0  0  0
  7 14  2  0  0  0  0
  9  6  1  0  0  0  0
  9  3  2  0  0  0  0
 10  2  1  1  0  0  0
 10  7  1  0  0  0  0
 11 10  1  0  0  0  0
 13  5  2  0  0  0  0
 14 12  1  0  0  0  0
 14 19  1  0  0  0  0
 15 20  2  0  0  0  0
 16  1  1  0  0  0  0
 17  4  2  0  0  0  0
 17 11  1  0  0  0  0
 18 13  1  0  0  0  0
 19  8  2  0  0  0  0
 20 18  1  0  0  0  0
 22 23  1  0  0  0  0
 23 27  1  0  0  0  0
 26 25  2  0  0  0  0
 26 24  1  0  0  0  0
 27 26  1  0  0  0  0
M  END
>  <MODEL>
7

>  <REMARK>
 VINA RESULT:      -7.0      3.109      4.772
  Name = 
  3 active torsions:
  status: ('A' for Active; 'I' for Inactive)
    1  A    between atoms: C_1  and  C_22
    2  A    between atoms: C_2  and  N_8
    3  A    between atoms: C_2  and  C_22
                            x       y       z     vdW  Elec       q    Type
                         _______ _______ _______ _____ _____    ______ ____

>  <TORSDO>
F 3

$$$$
=
 OpenBabel10222420213D

 27 30  0  0  1  0  0  0  0  0999 V2000
  187.1370  178.6700  141.9970 C   0  0  1  0  0  3  0  0  0  0  0  0
  189.5670  178.9260  142.6170 C   0  0  0  0  0  2  0  0  0  0  0  0
  192.1320  174.9690  146.3850 C   0  0  0  0  0  3  0  0  0  0  0  0
  191.5570  176.1790  145.9700 C   0  0  0  0  0  0  0  0  0  0  0  0
  187.9210  177.7180  146.9610 C   0  0  0  0  0  0  0  0  0  0  0  0
  191.9790  174.8710  143.8900 S   0  0  0  0  0  0  0  0  0  0  0  0
  188.6240  177.7300  144.6160 C   0  0  0  0  0  0  0  0  0  0  0  0
  186.6180  177.4250  146.5690 C   0  0  0  0  0  3  0  0  0  0  0  0
  192.4250  174.1040  145.3290 C   0  0  0  0  0  3  0  0  0  0  0  0
  189.6530  177.6990  143.4990 C   0  0  2  0  0  3  0  0  0  0  0  0
  191.0230  177.4570  143.9180 N   0  0  0  0  0  2  0  0  0  0  0  0
  186.8650  177.5340  142.8730 N   0  0  0  0  0  2  0  0  0  0  0  0
  188.9360  177.8890  145.9990 C   0  0  0  0  0  0  0  0  0  0  0  0
  187.2760  177.5180  144.2440 C   0  0  0  0  0  0  0  0  0  0  0  0
  191.7720  177.4040  147.9830 O   0  0  0  0  0  0  0  0  0  0  0  0
  188.5780  178.6550  141.4950 C   0  0  0  0  0  2  0  0  0  0  0  0
  191.3910  176.2640  144.6050 C   0  0  0  0  0  0  0  0  0  0  0  0
  190.2460  178.2630  146.4510 N   0  0  0  0  0  2  0  0  0  0  0  0
  186.2960  177.3360  145.2200 C   0  0  0  0  0  3  0  0  0  0  0  0
  191.2020  177.2850  146.8660 C   0  0  0  0  0  0  0  0  0  0  0  0
  188.2070  177.8510  148.4180 C   0  0  0  0  0  1  0  0  0  0  0  0
  186.1830  178.6230  140.8170 C   0  0  0  0  0  2  0  0  0  0  0  0
  184.7710  178.9460  141.2660 C   0  0  0  0  0  2  0  0  0  0  0  0
  182.5740  178.9320  138.0830 C   0  0  0  0  0  1  0  0  0  0  0  0
  184.1040  180.5100  138.9880 O   0  0  0  0  0  0  0  0  0  0  0  0
  183.5450  179.3880  139.1110 C   0  0  0  0  0  0  0  0  0  0  0  0
  183.8320  178.5500  140.2310 N   0  0  0  0  0  2  0  0  0  0  0  0
  1 22  1  6  0  0  0
  1 12  1  0  0  0  0
  4  3  1  0  0  0  0
  4 20  1  0  0  0  0
  5 21  1  0  0  0  0
  6 17  1  0  0  0  0
  6  9  1  0  0  0  0
  7 13  1  0  0  0  0
  8  5  1  0  0  0  0
  9  3  2  0  0  0  0
 10  2  1  1  0  0  0
 10 11  1  0  0  0  0
 10  7  1  0  0  0  0
 11 17  1  0  0  0  0
 12 14  1  0  0  0  0
 13 18  1  0  0  0  0
 13  5  2  0  0  0  0
 14  7  2  0  0  0  0
 14 19  1  0  0  0  0
 16  1  1  0  0  0  0
 16  2  1  0  0  0  0
 17  4  2  0  0  0  0
 18 20  1  0  0  0  0
 19  8  2  0  0  0  0
 20 15  2  0  0  0  0
 22 23  1  0  0  0  0
 24 26  1  0  0  0  0
 25 26  2  0  0  0  0
 26 27  1  0  0  0  0
 27 23  1  0  0  0  0
M  END
>  <MODEL>
8

>  <REMARK>
 VINA RESULT:      -6.9      2.971      8.139
  Name = 
  3 active torsions:
  status: ('A' for Active; 'I' for Inactive)
    1  A    between atoms: C_1  and  C_22
    2  A    between atoms: C_2  and  N_8
    3  A    between atoms: C_2  and  C_22
                            x       y       z     vdW  Elec       q    Type
                         _______ _______ _______ _____ _____    ______ ____

>  <TORSDO>
F 3

$$$$
=
 OpenBabel10222420213D

 27 30  0  0  1  0  0  0  0  0999 V2000
  189.9880  175.9920  136.6090 C   0  0  1  0  0  3  0  0  0  0  0  0
  189.5330  178.1810  137.7720 C   0  0  0  0  0  2  0  0  0  0  0  0
  185.2700  178.4830  142.0340 C   0  0  0  0  0  3  0  0  0  0  0  0
  185.8560  178.6600  140.7730 C   0  0  0  0  0  0  0  0  0  0  0  0
  184.9760  176.7550  137.2850 C   0  0  0  0  0  0  0  0  0  0  0  0
  187.7010  177.9610  142.2970 S   0  0  0  0  0  0  0  0  0  0  0  0
  187.3180  177.0070  137.9490 C   0  0  0  0  0  0  0  0  0  0  0  0
  185.2520  175.4830  136.7920 C   0  0  0  0  0  3  0  0  0  0  0  0
  186.1750  178.0750  143.0150 C   0  0  0  0  0  3  0  0  0  0  0  0
  188.4600  177.6640  138.7060 C   0  0  2  0  0  3  0  0  0  0  0  0
  188.0700  178.6850  139.6620 N   0  0  0  0  0  2  0  0  0  0  0  0
  188.9200  175.2380  137.2590 N   0  0  0  0  0  2  0  0  0  0  0  0
  185.9990  177.5390  137.8550 C   0  0  0  0  0  0  0  0  0  0  0  0
  187.5870  175.7480  137.3630 C   0  0  0  0  0  0  0  0  0  0  0  0
  184.0930  179.8150  139.6990 O   0  0  0  0  0  0  0  0  0  0  0  0
  190.5460  177.0750  137.5270 C   0  0  0  0  0  2  0  0  0  0  0  0
  187.2070  178.3880  140.7580 C   0  0  0  0  0  0  0  0  0  0  0  0
  185.6770  178.8720  138.2800 N   0  0  0  0  0  2  0  0  0  0  0  0
  186.5500  174.9870  136.8220 C   0  0  0  0  0  3  0  0  0  0  0  0
  185.1460  179.1350  139.5810 C   0  0  0  0  0  0  0  0  0  0  0  0
  183.5770  177.2620  137.1870 C   0  0  0  0  0  1  0  0  0  0  0  0
  191.0980  175.0340  136.2130 C   0  0  0  0  0  2  0  0  0  0  0  0
  192.4300  175.5170  136.7530 C   0  0  0  0  0  2  0  0  0  0  0  0
  195.0720  173.2770  138.4740 C   0  0  0  0  0  1  0  0  0  0  0  0
  195.2240  175.2930  137.2240 O   0  0  0  0  0  0  0  0  0  0  0  0
  194.4770  174.3970  137.7000 C   0  0  0  0  0  0  0  0  0  0  0  0
  193.0640  174.4460  137.5020 N   0  0  0  0  0  2  0  0  0  0  0  0
  1 22  1  1  0  0  0
  1 12  1  0  0  0  0
  1 16  1  0  0  0  0
  3  9  2  0  0  0  0
  4  3  1  0  0  0  0
  5 13  1  0  0  0  0
  6  9  1  0  0  0  0
  7 10  1  0  0  0  0
  8 19  1  0  0  0  0
  8  5  2  0  0  0  0
 10  2  1  6  0  0  0
 10 11  1  0  0  0  0
 11 17  1  0  0  0  0
 12 14  1  0  0  0  0
 13  7  2  0  0  0  0
 13 18  1  0  0  0  0
 14  7  1  0  0  0  0
 16  2  1  0  0  0  0
 17  4  2  0  0  0  0
 17  6  1  0  0  0  0
 18 20  1  0  0  0  0
 19 14  2  0  0  0  0
 20 15  2  0  0  0  0
 20  4  1  0  0  0  0
 21  5  1  0  0  0  0
 22 23  1  0  0  0  0
 23 27  1  0  0  0  0
 25 26  2  0  0  0  0
 26 24  1  0  0  0  0
 27 26  1  0  0  0  0
M  END
>  <MODEL>
9

>  <REMARK>
 VINA RESULT:      -6.8      4.582      7.821
  Name = 
  3 active torsions:
  status: ('A' for Active; 'I' for Inactive)
    1  A    between atoms: C_1  and  C_22
    2  A    between atoms: C_2  and  N_8
    3  A    between atoms: C_2  and  C_22
                            x       y       z     vdW  Elec       q    Type
                         _______ _______ _______ _____ _____    ______ ____

>  <TORSDO>
F 3

$$$$
