=
 OpenBabel10222417373D

 49 56  0  0  0  0  0  0  0  0999 V2000
  188.3200  177.3940  147.9060 S   0  0  0  0  0  0  0  0  0  0  0  0
  187.7860  178.1420  141.6740 N   0  0  0  0  0  0  0  0  0  0  0  0
  191.0520  177.2730  145.1740 C   0  0  0  0  0  1  0  0  0  0  0  0
  182.0810  179.0670  141.5230 C   0  0  0  0  0  0  0  0  0  0  0  0
  181.0650  179.3600  140.4950 C   0  0  0  0  0  3  0  0  0  0  0  0
  187.7880  178.3140  140.2370 C   0  0  0  0  0  0  0  0  0  0  0  0
  188.1340  177.8360  144.1390 C   0  0  0  0  0  0  0  0  0  0  0  0
  189.8170  177.3750  145.9980 C   0  0  0  0  0  0  0  0  0  0  0  0
  186.6260  178.5700  139.6060 C   0  0  0  0  0  3  0  0  0  0  0  0
  187.5420  177.6710  146.4630 C   0  0  0  0  0  0  0  0  0  0  0  0
  183.3930  178.8830  141.3100 C   0  0  0  0  0  0  0  0  0  0  0  0
  182.3860  179.3840  138.3400 C   0  0  0  0  0  3  0  0  0  0  0  0
  185.4350  178.5030  141.7920 C   0  0  0  0  0  0  0  0  0  0  0  0
  185.4070  178.6640  140.4350 C   0  0  0  0  0  0  0  0  0  0  0  0
  186.7870  178.0680  143.8520 C   0  0  0  0  0  0  0  0  0  0  0  0
  183.6310  179.1350  138.7280 C   0  0  0  0  0  3  0  0  0  0  0  0
  184.9870  177.9500  147.4690 Cl  0  0  0  0  0  0  0  0  0  0  0  0
  184.2360  178.6350  142.3010 O   0  0  0  0  0  0  0  0  0  0  0  0
  181.1860  179.4920  139.1760 C   0  0  0  0  0  3  0  0  0  0  0  0
  188.5220  177.6300  145.4740 C   0  0  0  0  0  0  0  0  0  0  0  0
  185.8070  178.1070  144.8580 C   0  0  0  0  0  3  0  0  0  0  0  0
  184.0940  178.9100  140.0980 C   0  0  0  0  0  0  0  0  0  0  0  0
  186.1890  177.9050  146.1930 C   0  0  0  0  0  0  0  0  0  0  0  0
  189.2120  177.8380  142.6850 S   0  0  0  0  0  0  0  0  0  0  0  0
  186.5780  178.2500  142.4300 C   0  0  0  0  0  0  0  0  0  0  0  0
  189.8800  177.2160  147.3490 N   0  0  0  0  0  0  0  0  0  0  0  0
  180.2340  178.2670  142.9620 C   0  0  0  0  0  1  0  0  0  0  0  0
  181.5650  178.9960  142.9250 C   0  0  0  0  0  2  0  0  0  0  0  0
  189.0540  178.2000  139.4510 C   0  0  0  0  0  2  0  0  0  0  0  0
  189.3830  176.7440  139.1500 C   0  0  0  0  0  2  0  0  0  0  0  0
  189.4200  176.4800  137.6520 C   0  0  0  0  0  2  0  0  0  0  0  0
  188.2710  174.3350  136.8420 N   0  0  0  0  0  2  0  0  0  0  0  0
  190.4650  174.3490  137.5980 O   0  0  0  0  0  0  0  0  0  0  0  0
  186.7330  176.0970  136.9210 O   0  0  0  0  0  0  0  0  0  0  0  0
  186.9760  174.9040  136.5980 C   0  0  0  0  0  0  0  0  0  0  0  0
  189.4170  175.0100  137.3770 C   0  0  0  0  0  0  0  0  0  0  0  0
  186.1110  173.5990  134.8370 O   0  0  0  0  0  0  0  0  0  0  0  0
  185.9040  174.0970  135.9770 C   0  0  0  0  0  0  0  0  0  0  0  0
  184.4360  172.8410  137.3760 O   0  0  0  0  0  0  0  0  0  0  0  0
  184.6020  173.8510  136.6410 C   0  0  0  0  0  0  0  0  0  0  0  0
  183.7020  175.9050  135.4310 C   0  0  0  0  0  2  0  0  0  0  0  0
  183.4420  174.7730  136.4080 C   0  0  0  0  0  0  0  0  0  0  0  0
  182.8230  174.7310  135.0240 C   0  0  0  0  0  2  0  0  0  0  0  0
  183.0370  175.6230  138.7380 C   0  0  0  0  0  3  0  0  0  0  0  0
  181.1480  174.8470  137.4350 C   0  0  0  0  0  3  0  0  0  0  0  0
  180.2950  175.1250  138.5070 C   0  0  0  0  0  3  0  0  0  0  0  0
  182.5220  175.1050  137.5420 C   0  0  0  0  0  0  0  0  0  0  0  0
  180.8120  175.6540  139.6930 C   0  0  0  0  0  3  0  0  0  0  0  0
  182.1830  175.9000  139.8090 C   0  0  0  0  0  3  0  0  0  0  0  0
  2 25  1  0  0  0  0
  2 24  1  0  0  0  0
  3  8  1  0  0  0  0
  4 28  1  0  0  0  0
  5  4  1  0  0  0  0
  6  2  1  0  0  0  0
  7 20  1  0  0  0  0
  8 26  2  0  0  0  0
  9  6  2  0  0  0  0
  9 14  1  0  0  0  0
 10  1  1  0  0  0  0
 11  4  2  0  0  0  0
 11 18  1  0  0  0  0
 12 16  2  0  0  0  0
 12 19  1  0  0  0  0
 13 18  1  0  0  0  0
 13 25  2  0  0  0  0
 14 13  1  0  0  0  0
 15  7  2  0  0  0  0
 15 21  1  0  0  0  0
 16 22  1  0  0  0  0
 19  5  2  0  0  0  0
 20  8  1  0  0  0  0
 20 10  2  0  0  0  0
 21 23  2  0  0  0  0
 22 14  2  0  0  0  0
 22 11  1  0  0  0  0
 23 10  1  0  0  0  0
 23 17  1  0  0  0  0
 24  7  1  0  0  0  0
 25 15  1  0  0  0  0
 26  1  1  0  0  0  0
 28 27  1  0  0  0  0
 29  6  1  0  0  0  0
 30 29  1  0  0  0  0
 31 30  1  0  0  0  0
 32 36  1  0  0  0  0
 35 32  1  0  0  0  0
 35 34  2  0  0  0  0
 36 33  2  0  0  0  0
 36 31  1  0  0  0  0
 37 38  2  0  0  0  0
 38 35  1  0  0  0  0
 38 40  1  0  0  0  0
 40 39  2  0  0  0  0
 41 42  1  0  0  0  0
 42 40  1  0  0  0  0
 42 47  1  0  0  0  0
 43 41  1  0  0  0  0
 43 42  1  0  0  0  0
 44 49  1  0  0  0  0
 45 47  1  0  0  0  0
 45 46  2  0  0  0  0
 46 48  1  0  0  0  0
 47 44  2  0  0  0  0
 48 49  2  0  0  0  0
M  END
>  <MODEL>
1

>  <REMARK>
 VINA RESULT:      -9.2      0.000      0.000
  Name = 
  9 active torsions:
  status: ('A' for Active; 'I' for Inactive)
    1  A    between atoms: C_2  and  C_29
    2  A    between atoms: C_2  and  C_48
    3  A    between atoms: C_6  and  C_32
    4  A    between atoms: C_9  and  C_48
    5  A    between atoms: C_25  and  C_44
    6  A    between atoms: C_26  and  C_38
    7  A    between atoms: C_26  and  C_45
    8  A    between atoms: C_29  and  C_41
    9  A    between atoms: C_44  and  C_45
                            x       y       z     vdW  Elec       q    Type
                         _______ _______ _______ _____ _____    ______ ____

>  <TORSDO>
F 9

$$$$
=
 OpenBabel10222417373D

 49 56  0  0  0  0  0  0  0  0999 V2000
  180.7190  179.3290  141.7530 S   0  0  0  0  0  0  0  0  0  0  0  0
  186.6900  178.3420  140.0040 N   0  0  0  0  0  0  0  0  0  0  0  0
  182.2680  179.2950  138.2120 C   0  0  0  0  0  1  0  0  0  0  0  0
  188.8840  177.5080  145.2890 C   0  0  0  0  0  0  0  0  0  0  0  0
  190.2010  177.1920  145.8690 C   0  0  0  0  0  3  0  0  0  0  0  0
  188.0210  178.1130  139.4850 C   0  0  0  0  0  0  0  0  0  0  0  0
  184.2790  178.7400  140.5680 C   0  0  0  0  0  0  0  0  0  0  0  0
  181.9490  179.2470  139.6650 C   0  0  0  0  0  0  0  0  0  0  0  0
  189.0250  177.8510  140.3450 C   0  0  0  0  0  3  0  0  0  0  0  0
  182.3370  179.0080  141.9600 C   0  0  0  0  0  0  0  0  0  0  0  0
  188.6090  177.6610  143.9840 C   0  0  0  0  0  0  0  0  0  0  0  0
  191.7240  177.0590  143.8560 C   0  0  0  0  0  3  0  0  0  0  0  0
  187.4270  178.0250  142.2470 C   0  0  0  0  0  0  0  0  0  0  0  0
  188.6950  177.8110  141.7840 C   0  0  0  0  0  0  0  0  0  0  0  0
  185.0310  178.5190  141.7250 C   0  0  0  0  0  0  0  0  0  0  0  0
  190.9170  177.3020  142.8310 C   0  0  0  0  0  3  0  0  0  0  0  0
  182.3250  178.8120  144.7140 Cl  0  0  0  0  0  0  0  0  0  0  0  0
  187.3870  177.9340  143.5520 O   0  0  0  0  0  0  0  0  0  0  0  0
  191.3810  177.0050  145.2800 C   0  0  0  0  0  3  0  0  0  0  0  0
  182.9020  178.9930  140.6870 C   0  0  0  0  0  0  0  0  0  0  0  0
  184.4500  178.5370  143.0040 C   0  0  0  0  0  3  0  0  0  0  0  0
  189.4800  177.5740  142.8910 C   0  0  0  0  0  0  0  0  0  0  0  0
  183.0750  178.7850  143.1290 C   0  0  0  0  0  0  0  0  0  0  0  0
  185.2390  178.6620  139.0360 S   0  0  0  0  0  0  0  0  0  0  0  0
  186.4240  178.2850  141.4080 C   0  0  0  0  0  0  0  0  0  0  0  0
  180.6740  179.4580  140.0920 N   0  0  0  0  0  0  0  0  0  0  0  0
  188.3250  177.8130  147.6790 C   0  0  0  0  0  1  0  0  0  0  0  0
  187.7690  177.6430  146.2770 C   0  0  0  0  0  2  0  0  0  0  0  0
  188.2940  178.1740  138.0170 C   0  0  0  0  0  2  0  0  0  0  0  0
  189.7500  177.8390  137.7160 C   0  0  0  0  0  2  0  0  0  0  0  0
  189.8640  176.6660  136.7530 C   0  0  0  0  0  2  0  0  0  0  0  0
  187.9110  176.1460  135.1740 N   0  0  0  0  0  2  0  0  0  0  0  0
  189.4040  177.8740  134.7610 O   0  0  0  0  0  0  0  0  0  0  0  0
  188.0570  174.5150  136.8460 O   0  0  0  0  0  0  0  0  0  0  0  0
  187.4210  174.9890  135.8670 C   0  0  0  0  0  0  0  0  0  0  0  0
  189.0660  176.9240  135.5150 C   0  0  0  0  0  0  0  0  0  0  0  0
  186.2510  173.3880  134.5940 O   0  0  0  0  0  0  0  0  0  0  0  0
  186.1730  174.3250  135.4350 C   0  0  0  0  0  0  0  0  0  0  0  0
  184.2830  175.7750  135.5560 O   0  0  0  0  0  0  0  0  0  0  0  0
  184.8390  174.7160  135.9500 C   0  0  0  0  0  0  0  0  0  0  0  0
  184.2080  172.3840  136.7610 C   0  0  0  0  0  2  0  0  0  0  0  0
  184.1500  173.8830  136.9900 C   0  0  0  0  0  0  0  0  0  0  0  0
  185.0470  173.0210  137.8580 C   0  0  0  0  0  2  0  0  0  0  0  0
  181.6430  173.9850  137.1250 C   0  0  0  0  0  3  0  0  0  0  0  0
  182.9490  175.3020  138.6830 C   0  0  0  0  0  3  0  0  0  0  0  0
  181.7720  175.7970  139.2510 C   0  0  0  0  0  3  0  0  0  0  0  0
  182.8900  174.3850  137.6250 C   0  0  0  0  0  0  0  0  0  0  0  0
  180.5300  175.3840  138.7590 C   0  0  0  0  0  3  0  0  0  0  0  0
  180.4670  174.4800  137.6950 C   0  0  0  0  0  3  0  0  0  0  0  0
  1 10  1  0  0  0  0
  2 25  1  0  0  0  0
  3  8  1  0  0  0  0
  4  5  1  0  0  0  0
  4 28  1  0  0  0  0
  6  2  1  0  0  0  0
  6  9  2  0  0  0  0
  7 20  2  0  0  0  0
  7 15  1  0  0  0  0
  8 26  2  0  0  0  0
  8 20  1  0  0  0  0
  9 14  1  0  0  0  0
 10 23  2  0  0  0  0
 11  4  2  0  0  0  0
 12 19  1  0  0  0  0
 13 18  1  0  0  0  0
 14 13  1  0  0  0  0
 14 22  2  0  0  0  0
 15 21  2  0  0  0  0
 16 22  1  0  0  0  0
 16 12  2  0  0  0  0
 18 11  1  0  0  0  0
 19  5  2  0  0  0  0
 20 10  1  0  0  0  0
 21 23  1  0  0  0  0
 22 11  1  0  0  0  0
 23 17  1  0  0  0  0
 24  2  1  0  0  0  0
 24  7  1  0  0  0  0
 25 15  1  0  0  0  0
 25 13  2  0  0  0  0
 26  1  1  0  0  0  0
 28 27  1  0  0  0  0
 29  6  1  0  0  0  0
 30 29  1  0  0  0  0
 31 30  1  0  0  0  0
 32 36  1  0  0  0  0
 32 35  1  0  0  0  0
 33 36  2  0  0  0  0
 35 34  2  0  0  0  0
 36 31  1  0  0  0  0
 37 38  2  0  0  0  0
 38 35  1  0  0  0  0
 38 40  1  0  0  0  0
 39 40  2  0  0  0  0
 40 42  1  0  0  0  0
 41 42  1  0  0  0  0
 41 43  1  0  0  0  0
 42 47  1  0  0  0  0
 42 43  1  0  0  0  0
 44 47  2  0  0  0  0
 44 49  1  0  0  0  0
 45 46  2  0  0  0  0
 47 45  1  0  0  0  0
 48 46  1  0  0  0  0
 49 48  2  0  0  0  0
M  END
>  <MODEL>
2

>  <REMARK>
 VINA RESULT:      -9.0      2.463      5.694
  Name = 
  9 active torsions:
  status: ('A' for Active; 'I' for Inactive)
    1  A    between atoms: C_2  and  C_29
    2  A    between atoms: C_2  and  C_48
    3  A    between atoms: C_6  and  C_32
    4  A    between atoms: C_9  and  C_48
    5  A    between atoms: C_25  and  C_44
    6  A    between atoms: C_26  and  C_38
    7  A    between atoms: C_26  and  C_45
    8  A    between atoms: C_29  and  C_41
    9  A    between atoms: C_44  and  C_45
                            x       y       z     vdW  Elec       q    Type
                         _______ _______ _______ _____ _____    ______ ____

>  <TORSDO>
F 9

$$$$
=
 OpenBabel10222417373D

 49 56  0  0  0  0  0  0  0  0999 V2000
  189.0810  177.3040  147.4260 S   0  0  0  0  0  0  0  0  0  0  0  0
  185.8810  178.4930  142.1320 N   0  0  0  0  0  0  0  0  0  0  0  0
  185.4280  178.4860  146.9760 C   0  0  0  0  0  1  0  0  0  0  0  0
  190.1110  177.2100  138.4040 C   0  0  0  0  0  0  0  0  0  0  0  0
  190.2800  177.1720  136.9400 C   0  0  0  0  0  3  0  0  0  0  0  0
  185.0440  178.7770  140.9870 C   0  0  0  0  0  0  0  0  0  0  0  0
  187.0400  178.0430  144.3100 C   0  0  0  0  0  0  0  0  0  0  0  0
  186.8410  178.0350  146.8520 C   0  0  0  0  0  0  0  0  0  0  0  0
  185.5580  178.6380  139.7480 C   0  0  0  0  0  3  0  0  0  0  0  0
  188.8350  177.4290  145.7870 C   0  0  0  0  0  0  0  0  0  0  0  0
  188.9940  177.5550  139.0640 C   0  0  0  0  0  0  0  0  0  0  0  0
  188.0330  177.9250  136.0600 C   0  0  0  0  0  3  0  0  0  0  0  0
  187.7280  177.9270  140.7390 C   0  0  0  0  0  0  0  0  0  0  0  0
  186.9620  178.1950  139.6390 C   0  0  0  0  0  0  0  0  0  0  0  0
  187.8970  177.8050  143.2320 C   0  0  0  0  0  0  0  0  0  0  0  0
  187.3170  178.1390  137.1570 C   0  0  0  0  0  3  0  0  0  0  0  0
  191.3550  176.6480  144.9750 Cl  0  0  0  0  0  0  0  0  0  0  0  0
  188.9310  177.5480  140.3870 O   0  0  0  0  0  0  0  0  0  0  0  0
  189.4220  177.4670  135.9640 C   0  0  0  0  0  3  0  0  0  0  0  0
  187.5190  177.8540  145.6170 C   0  0  0  0  0  0  0  0  0  0  0  0
  189.2230  177.3780  143.4150 C   0  0  0  0  0  3  0  0  0  0  0  0
  187.7610  177.9620  138.5410 C   0  0  0  0  0  0  0  0  0  0  0  0
  189.7050  177.1830  144.7190 C   0  0  0  0  0  0  0  0  0  0  0  0
  185.3790  178.5790  143.8310 S   0  0  0  0  0  0  0  0  0  0  0  0
  187.2340  178.0590  141.9700 C   0  0  0  0  0  0  0  0  0  0  0  0
  187.5750  177.7700  147.9680 N   0  0  0  0  0  0  0  0  0  0  0  0
  192.4570  176.4390  138.2650 C   0  0  0  0  0  1  0  0  0  0  0  0
  191.3130  176.8000  139.1940 C   0  0  0  0  0  2  0  0  0  0  0  0
  183.6300  179.2300  141.1610 C   0  0  0  0  0  2  0  0  0  0  0  0
  182.6820  178.0410  141.2500 C   0  0  0  0  0  2  0  0  0  0  0  0
  181.7120  178.0150  140.0770 C   0  0  0  0  0  2  0  0  0  0  0  0
  180.3500  175.8910  139.6180 N   0  0  0  0  0  2  0  0  0  0  0  0
  179.7850  177.3770  141.3080 O   0  0  0  0  0  0  0  0  0  0  0  0
  181.9910  176.1720  137.9740 O   0  0  0  0  0  0  0  0  0  0  0  0
  181.0870  175.4480  138.4690 C   0  0  0  0  0  0  0  0  0  0  0  0
  180.5670  177.0960  140.3630 C   0  0  0  0  0  0  0  0  0  0  0  0
  180.0030  173.3560  138.4350 O   0  0  0  0  0  0  0  0  0  0  0  0
  180.7900  174.1430  137.8410 C   0  0  0  0  0  0  0  0  0  0  0  0
  180.8550  174.0870  135.4580 O   0  0  0  0  0  0  0  0  0  0  0  0
  181.3780  173.7260  136.5460 C   0  0  0  0  0  0  0  0  0  0  0  0
  182.3660  171.4460  137.1060 C   0  0  0  0  0  2  0  0  0  0  0  0
  182.5760  172.8240  136.5080 C   0  0  0  0  0  0  0  0  0  0  0  0
  182.4730  171.6160  135.5980 C   0  0  0  0  0  2  0  0  0  0  0  0
  184.2740  174.6320  136.1100 C   0  0  0  0  0  3  0  0  0  0  0  0
  184.9180  172.6950  137.4140 C   0  0  0  0  0  3  0  0  0  0  0  0
  186.2050  173.2200  137.5600 C   0  0  0  0  0  3  0  0  0  0  0  0
  183.9440  173.4030  136.6970 C   0  0  0  0  0  0  0  0  0  0  0  0
  186.5260  174.4530  136.9840 C   0  0  0  0  0  3  0  0  0  0  0  0
  185.5620  175.1570  136.2580 C   0  0  0  0  0  3  0  0  0  0  0  0
  1 26  1  0  0  0  0
  2 24  1  0  0  0  0
  4 11  2  0  0  0  0
  4 28  1  0  0  0  0
  5  4  1  0  0  0  0
  6 29  1  0  0  0  0
  6  2  1  0  0  0  0
  7 20  2  0  0  0  0
  8  3  1  0  0  0  0
  8 26  2  0  0  0  0
  9  6  2  0  0  0  0
 10  1  1  0  0  0  0
 11 18  1  0  0  0  0
 12 16  2  0  0  0  0
 13 25  2  0  0  0  0
 14  9  1  0  0  0  0
 14 13  1  0  0  0  0
 15 21  2  0  0  0  0
 15  7  1  0  0  0  0
 16 22  1  0  0  0  0
 18 13  1  0  0  0  0
 19 12  1  0  0  0  0
 19  5  2  0  0  0  0
 20 10  1  0  0  0  0
 20  8  1  0  0  0  0
 21 23  1  0  0  0  0
 22 11  1  0  0  0  0
 22 14  2  0  0  0  0
 23 17  1  0  0  0  0
 23 10  2  0  0  0  0
 24  7  1  0  0  0  0
 25  2  1  0  0  0  0
 25 15  1  0  0  0  0
 27 28  1  0  0  0  0
 29 30  1  0  0  0  0
 31 36  1  0  0  0  0
 31 30  1  0  0  0  0
 32 36  1  0  0  0  0
 34 35  2  0  0  0  0
 35 32  1  0  0  0  0
 36 33  2  0  0  0  0
 38 37  2  0  0  0  0
 38 35  1  0  0  0  0
 39 40  2  0  0  0  0
 40 38  1  0  0  0  0
 42 40  1  0  0  0  0
 42 47  1  0  0  0  0
 42 41  1  0  0  0  0
 43 42  1  0  0  0  0
 43 41  1  0  0  0  0
 44 49  2  0  0  0  0
 44 47  1  0  0  0  0
 45 46  1  0  0  0  0
 47 45  2  0  0  0  0
 48 46  2  0  0  0  0
 49 48  1  0  0  0  0
M  END
>  <MODEL>
3

>  <REMARK>
 VINA RESULT:      -8.6      2.593      5.837
  Name = 
  9 active torsions:
  status: ('A' for Active; 'I' for Inactive)
    1  A    between atoms: C_2  and  C_29
    2  A    between atoms: C_2  and  C_48
    3  A    between atoms: C_6  and  C_32
    4  A    between atoms: C_9  and  C_48
    5  A    between atoms: C_25  and  C_44
    6  A    between atoms: C_26  and  C_38
    7  A    between atoms: C_26  and  C_45
    8  A    between atoms: C_29  and  C_41
    9  A    between atoms: C_44  and  C_45
                            x       y       z     vdW  Elec       q    Type
                         _______ _______ _______ _____ _____    ______ ____

>  <TORSDO>
F 9

$$$$
=
 OpenBabel10222417373D

 49 56  0  0  0  0  0  0  0  0999 V2000
  190.0500  174.8300  135.1790 S   0  0  0  0  0  0  0  0  0  0  0  0
  184.8270  177.0930  137.8780 N   0  0  0  0  0  0  0  0  0  0  0  0
  189.4600  178.2300  136.9210 C   0  0  0  0  0  1  0  0  0  0  0  0
  181.4430  172.5060  136.9120 C   0  0  0  0  0  0  0  0  0  0  0  0
  180.0540  172.1120  137.2070 C   0  0  0  0  0  3  0  0  0  0  0  0
  183.6970  177.7080  138.5400 C   0  0  0  0  0  0  0  0  0  0  0  0
  186.9720  176.3040  136.8460 C   0  0  0  0  0  0  0  0  0  0  0  0
  189.4030  176.8700  136.3210 C   0  0  0  0  0  0  0  0  0  0  0  0
  182.5340  177.0320  138.6160 C   0  0  0  0  0  3  0  0  0  0  0  0
  188.4660  174.8210  135.6850 C   0  0  0  0  0  0  0  0  0  0  0  0
  182.0270  173.6670  137.2470 C   0  0  0  0  0  0  0  0  0  0  0  0
  179.1090  174.1210  138.4180 C   0  0  0  0  0  3  0  0  0  0  0  0
  183.5750  175.1250  137.3980 C   0  0  0  0  0  0  0  0  0  0  0  0
  182.4890  175.6840  138.0120 C   0  0  0  0  0  0  0  0  0  0  0  0
  185.9730  175.3360  136.7190 C   0  0  0  0  0  0  0  0  0  0  0  0
  180.1270  174.9720  138.4620 C   0  0  0  0  0  3  0  0  0  0  0  0
  187.7950  172.3110  134.7530 Cl  0  0  0  0  0  0  0  0  0  0  0  0
  183.2900  173.9290  136.9490 O   0  0  0  0  0  0  0  0  0  0  0  0
  179.0830  172.7770  137.8310 C   0  0  0  0  0  3  0  0  0  0  0  0
  188.2470  176.0440  136.3150 C   0  0  0  0  0  0  0  0  0  0  0  0
  186.2050  174.1060  136.0810 C   0  0  0  0  0  3  0  0  0  0  0  0
  181.4720  174.7590  137.9260 C   0  0  0  0  0  0  0  0  0  0  0  0
  187.4780  173.8390  135.5520 C   0  0  0  0  0  0  0  0  0  0  0  0
  186.4440  177.8040  137.7100 S   0  0  0  0  0  0  0  0  0  0  0  0
  184.7320  175.7820  137.3160 C   0  0  0  0  0  0  0  0  0  0  0  0
  190.5040  176.3390  135.7220 N   0  0  0  0  0  0  0  0  0  0  0  0
  181.5460  171.0510  134.9130 C   0  0  0  0  0  1  0  0  0  0  0  0
  182.2550  171.4800  136.1850 C   0  0  0  0  0  2  0  0  0  0  0  0
  183.8010  179.0790  139.1260 C   0  0  0  0  0  2  0  0  0  0  0  0
  183.8760  179.0200  140.6460 C   0  0  0  0  0  2  0  0  0  0  0  0
  185.2910  179.2830  141.1440 C   0  0  0  0  0  2  0  0  0  0  0  0
  187.0120  177.7830  142.3120 N   0  0  0  0  0  2  0  0  0  0  0  0
  184.7990  177.8910  143.0030 O   0  0  0  0  0  0  0  0  0  0  0  0
  187.9490  178.7530  140.3990 O   0  0  0  0  0  0  0  0  0  0  0  0
  188.1150  178.0580  141.4370 C   0  0  0  0  0  0  0  0  0  0  0  0
  185.6740  178.2840  142.1880 C   0  0  0  0  0  0  0  0  0  0  0  0
  190.3540  177.6210  140.8450 O   0  0  0  0  0  0  0  0  0  0  0  0
  189.4610  177.5200  141.7300 C   0  0  0  0  0  0  0  0  0  0  0  0
  189.7560  175.6160  143.1370 O   0  0  0  0  0  0  0  0  0  0  0  0
  189.7990  176.8700  143.0190 C   0  0  0  0  0  0  0  0  0  0  0  0
  191.6340  177.8560  144.4850 C   0  0  0  0  0  2  0  0  0  0  0  0
  190.1490  177.6970  144.2200 C   0  0  0  0  0  0  0  0  0  0  0  0
  190.8250  179.0250  143.9430 C   0  0  0  0  0  2  0  0  0  0  0  0
  187.8920  177.7300  145.3240 C   0  0  0  0  0  3  0  0  0  0  0  0
  189.8650  177.5230  146.7130 C   0  0  0  0  0  3  0  0  0  0  0  0
  189.0590  177.4950  147.8540 C   0  0  0  0  0  3  0  0  0  0  0  0
  189.2850  177.6290  145.4420 C   0  0  0  0  0  0  0  0  0  0  0  0
  187.6690  177.5820  147.7310 C   0  0  0  0  0  3  0  0  0  0  0  0
  187.0870  177.7020  146.4660 C   0  0  0  0  0  3  0  0  0  0  0  0
  1 10  1  0  0  0  0
  1 26  1  0  0  0  0
  2  6  1  0  0  0  0
  4  5  1  0  0  0  0
  4 11  2  0  0  0  0
  5 19  2  0  0  0  0
  6  9  2  0  0  0  0
  6 29  1  0  0  0  0
  7 24  1  0  0  0  0
  8  3  1  0  0  0  0
 10 20  1  0  0  0  0
 11 22  1  0  0  0  0
 12 16  2  0  0  0  0
 13 14  1  0  0  0  0
 14  9  1  0  0  0  0
 15  7  1  0  0  0  0
 15 25  1  0  0  0  0
 17 23  1  0  0  0  0
 18 11  1  0  0  0  0
 18 13  1  0  0  0  0
 19 12  1  0  0  0  0
 20  8  1  0  0  0  0
 20  7  2  0  0  0  0
 21 15  2  0  0  0  0
 22 14  2  0  0  0  0
 22 16  1  0  0  0  0
 23 10  2  0  0  0  0
 23 21  1  0  0  0  0
 24  2  1  0  0  0  0
 25 13  2  0  0  0  0
 25  2  1  0  0  0  0
 26  8  2  0  0  0  0
 27 28  1  0  0  0  0
 28  4  1  0  0  0  0
 29 30  1  0  0  0  0
 30 31  1  0  0  0  0
 31 36  1  0  0  0  0
 34 35  2  0  0  0  0
 35 38  1  0  0  0  0
 35 32  1  0  0  0  0
 36 32  1  0  0  0  0
 36 33  2  0  0  0  0
 37 38  2  0  0  0  0
 38 40  1  0  0  0  0
 40 39  2  0  0  0  0
 40 42  1  0  0  0  0
 42 41  1  0  0  0  0
 42 47  1  0  0  0  0
 43 42  1  0  0  0  0
 43 41  1  0  0  0  0
 44 47  2  0  0  0  0
 44 49  1  0  0  0  0
 45 46  2  0  0  0  0
 47 45  1  0  0  0  0
 48 46  1  0  0  0  0
 49 48  2  0  0  0  0
M  END
>  <MODEL>
4

>  <REMARK>
 VINA RESULT:      -8.4      3.367      8.745
  Name = 
  9 active torsions:
  status: ('A' for Active; 'I' for Inactive)
    1  A    between atoms: C_2  and  C_29
    2  A    between atoms: C_2  and  C_48
    3  A    between atoms: C_6  and  C_32
    4  A    between atoms: C_9  and  C_48
    5  A    between atoms: C_25  and  C_44
    6  A    between atoms: C_26  and  C_38
    7  A    between atoms: C_26  and  C_45
    8  A    between atoms: C_29  and  C_41
    9  A    between atoms: C_44  and  C_45
                            x       y       z     vdW  Elec       q    Type
                         _______ _______ _______ _____ _____    ______ ____

>  <TORSDO>
F 9

$$$$
=
 OpenBabel10222417373D

 49 56  0  0  0  0  0  0  0  0999 V2000
  186.8610  170.1560  134.9870 S   0  0  0  0  0  0  0  0  0  0  0  0
  187.2030  176.1410  136.9200 N   0  0  0  0  0  0  0  0  0  0  0  0
  189.9300  172.4960  135.2050 C   0  0  0  0  0  1  0  0  0  0  0  0
  181.6110  176.8230  138.2200 C   0  0  0  0  0  0  0  0  0  0  0  0
  180.7550  177.8920  138.7640 C   0  0  0  0  0  3  0  0  0  0  0  0
  187.4060  177.5060  137.3570 C   0  0  0  0  0  0  0  0  0  0  0  0
  187.2030  173.7590  136.1370 C   0  0  0  0  0  0  0  0  0  0  0  0
  188.6000  171.8290  135.2290 C   0  0  0  0  0  0  0  0  0  0  0  0
  186.3500  178.2160  137.8010 C   0  0  0  0  0  3  0  0  0  0  0  0
  186.2970  171.6040  135.5780 C   0  0  0  0  0  0  0  0  0  0  0  0
  182.9320  176.9010  137.9960 C   0  0  0  0  0  0  0  0  0  0  0  0
  182.3550  179.8200  139.1060 C   0  0  0  0  0  3  0  0  0  0  0  0
  184.8740  176.2510  137.4020 C   0  0  0  0  0  0  0  0  0  0  0  0
  185.0350  177.5440  137.8160 C   0  0  0  0  0  0  0  0  0  0  0  0
  185.9170  174.1620  136.5040 C   0  0  0  0  0  0  0  0  0  0  0  0
  183.5250  179.3350  138.7110 C   0  0  0  0  0  3  0  0  0  0  0  0
  183.6420  170.8900  135.8270 Cl  0  0  0  0  0  0  0  0  0  0  0  0
  183.6230  175.8800  137.5140 O   0  0  0  0  0  0  0  0  0  0  0  0
  181.0580  179.1360  139.1330 C   0  0  0  0  0  3  0  0  0  0  0  0
  187.3990  172.4520  135.6600 C   0  0  0  0  0  0  0  0  0  0  0  0
  184.8130  173.2980  136.4160 C   0  0  0  0  0  3  0  0  0  0  0  0
  183.7900  177.9880  138.2040 C   0  0  0  0  0  0  0  0  0  0  0  0
  185.0030  171.9900  135.9450 C   0  0  0  0  0  0  0  0  0  0  0  0
  188.4660  175.0390  136.3420 S   0  0  0  0  0  0  0  0  0  0  0  0
  185.9090  175.5360  136.9620 C   0  0  0  0  0  0  0  0  0  0  0  0
  188.4750  170.5370  134.8160 N   0  0  0  0  0  0  0  0  0  0  0  0
  180.4120  174.8960  139.2050 C   0  0  0  0  0  1  0  0  0  0  0  0
  180.9080  175.5360  137.9210 C   0  0  0  0  0  2  0  0  0  0  0  0
  188.7610  178.1350  137.3120 C   0  0  0  0  0  2  0  0  0  0  0  0
  189.1110  178.7760  138.6480 C   0  0  0  0  0  2  0  0  0  0  0  0
  189.3250  177.7270  139.7300 C   0  0  0  0  0  2  0  0  0  0  0  0
  189.3510  178.1260  142.2630 N   0  0  0  0  0  2  0  0  0  0  0  0
  187.4740  178.5520  140.9660 O   0  0  0  0  0  0  0  0  0  0  0  0
  191.3330  177.0830  141.5890 O   0  0  0  0  0  0  0  0  0  0  0  0
  190.6730  177.6290  142.5130 C   0  0  0  0  0  0  0  0  0  0  0  0
  188.6640  178.1450  141.0050 C   0  0  0  0  0  0  0  0  0  0  0  0
  191.7330  178.8550  144.2230 O   0  0  0  0  0  0  0  0  0  0  0  0
  191.2770  177.7370  143.8570 C   0  0  0  0  0  0  0  0  0  0  0  0
  191.8720  175.4950  144.4140 O   0  0  0  0  0  0  0  0  0  0  0  0
  191.3670  176.5870  144.7880 C   0  0  0  0  0  0  0  0  0  0  0  0
  191.2390  175.5820  147.1260 C   0  0  0  0  0  2  0  0  0  0  0  0
  190.8110  176.6860  146.1780 C   0  0  0  0  0  0  0  0  0  0  0  0
  191.8120  176.9830  147.2770 C   0  0  0  0  0  2  0  0  0  0  0  0
  189.0490  177.7510  147.6190 C   0  0  0  0  0  3  0  0  0  0  0  0
  188.4670  177.0900  145.3630 C   0  0  0  0  0  3  0  0  0  0  0  0
  187.1600  177.5400  145.5670 C   0  0  0  0  0  3  0  0  0  0  0  0
  189.4210  177.2030  146.3830 C   0  0  0  0  0  0  0  0  0  0  0  0
  186.7980  178.0990  146.7970 C   0  0  0  0  0  3  0  0  0  0  0  0
  187.7420  178.2020  147.8220 C   0  0  0  0  0  3  0  0  0  0  0  0
  1 10  1  0  0  0  0
  2 25  1  0  0  0  0
  2  6  1  0  0  0  0
  3  8  1  0  0  0  0
  4  5  1  0  0  0  0
  5 19  2  0  0  0  0
  6  9  2  0  0  0  0
  7 24  1  0  0  0  0
  7 15  1  0  0  0  0
  8 20  1  0  0  0  0
  9 14  1  0  0  0  0
 10 20  1  0  0  0  0
 10 23  2  0  0  0  0
 11 22  1  0  0  0  0
 11  4  2  0  0  0  0
 12 19  1  0  0  0  0
 13 18  1  0  0  0  0
 13 14  1  0  0  0  0
 14 22  2  0  0  0  0
 15 25  1  0  0  0  0
 16 12  2  0  0  0  0
 17 23  1  0  0  0  0
 18 11  1  0  0  0  0
 20  7  2  0  0  0  0
 21 15  2  0  0  0  0
 22 16  1  0  0  0  0
 23 21  1  0  0  0  0
 24  2  1  0  0  0  0
 25 13  2  0  0  0  0
 26  1  1  0  0  0  0
 26  8  2  0  0  0  0
 28  4  1  0  0  0  0
 28 27  1  0  0  0  0
 29  6  1  0  0  0  0
 29 30  1  0  0  0  0
 30 31  1  0  0  0  0
 31 36  1  0  0  0  0
 32 35  1  0  0  0  0
 33 36  2  0  0  0  0
 34 35  2  0  0  0  0
 35 38  1  0  0  0  0
 36 32  1  0  0  0  0
 38 37  2  0  0  0  0
 38 40  1  0  0  0  0
 39 40  2  0  0  0  0
 40 42  1  0  0  0  0
 41 43  1  0  0  0  0
 42 47  1  0  0  0  0
 42 41  1  0  0  0  0
 42 43  1  0  0  0  0
 44 49  1  0  0  0  0
 45 46  2  0  0  0  0
 45 47  1  0  0  0  0
 46 48  1  0  0  0  0
 47 44  2  0  0  0  0
 48 49  2  0  0  0  0
M  END
>  <MODEL>
5

>  <REMARK>
 VINA RESULT:      -8.3      3.654      8.809
  Name = 
  9 active torsions:
  status: ('A' for Active; 'I' for Inactive)
    1  A    between atoms: C_2  and  C_29
    2  A    between atoms: C_2  and  C_48
    3  A    between atoms: C_6  and  C_32
    4  A    between atoms: C_9  and  C_48
    5  A    between atoms: C_25  and  C_44
    6  A    between atoms: C_26  and  C_38
    7  A    between atoms: C_26  and  C_45
    8  A    between atoms: C_29  and  C_41
    9  A    between atoms: C_44  and  C_45
                            x       y       z     vdW  Elec       q    Type
                         _______ _______ _______ _____ _____    ______ ____

>  <TORSDO>
F 9

$$$$
=
 OpenBabel10222417373D

 49 56  0  0  0  0  0  0  0  0999 V2000
  181.2130  179.1800  141.5470 S   0  0  0  0  0  0  0  0  0  0  0  0
  187.4110  178.2610  140.9000 N   0  0  0  0  0  0  0  0  0  0  0  0
  183.3790  179.1960  138.3450 C   0  0  0  0  0  1  0  0  0  0  0  0
  188.6200  177.3890  146.4870 C   0  0  0  0  0  0  0  0  0  0  0  0
  189.8140  177.0780  147.2940 C   0  0  0  0  0  3  0  0  0  0  0  0
  188.8170  178.0480  140.6280 C   0  0  0  0  0  0  0  0  0  0  0  0
  184.9340  178.6330  141.0220 C   0  0  0  0  0  0  0  0  0  0  0  0
  182.8020  179.1300  139.7150 C   0  0  0  0  0  0  0  0  0  0  0  0
  189.6510  177.7860  141.6540 C   0  0  0  0  0  3  0  0  0  0  0  0
  182.7710  178.8700  142.0410 C   0  0  0  0  0  0  0  0  0  0  0  0
  188.5850  177.5540  145.1550 C   0  0  0  0  0  0  0  0  0  0  0  0
  191.6780  176.9800  145.5890 C   0  0  0  0  0  3  0  0  0  0  0  0
  187.7330  177.9270  143.2360 C   0  0  0  0  0  0  0  0  0  0  0  0
  189.0670  177.7280  143.0090 C   0  0  0  0  0  0  0  0  0  0  0  0
  185.4660  178.4060  142.2930 C   0  0  0  0  0  0  0  0  0  0  0  0
  191.0670  177.2260  144.4360 C   0  0  0  0  0  3  0  0  0  0  0  0
  182.2610  178.6450  144.7440 Cl  0  0  0  0  0  0  0  0  0  0  0  0
  187.4580  177.8210  144.5120 O   0  0  0  0  0  0  0  0  0  0  0  0
  191.0830  176.9070  146.9270 C   0  0  0  0  0  3  0  0  0  0  0  0
  183.5560  178.8730  140.8910 C   0  0  0  0  0  0  0  0  0  0  0  0
  184.6640  178.4060  143.4460 C   0  0  0  0  0  3  0  0  0  0  0  0
  189.6400  177.4860  144.2380 C   0  0  0  0  0  0  0  0  0  0  0  0
  183.2860  178.6420  143.3210 C   0  0  0  0  0  0  0  0  0  0  0  0
  186.1570  178.5790  139.6880 S   0  0  0  0  0  0  0  0  0  0  0  0
  186.8960  178.1870  142.2310 C   0  0  0  0  0  0  0  0  0  0  0  0
  181.4680  179.3270  139.9060 N   0  0  0  0  0  0  0  0  0  0  0  0
  187.6280  177.9180  148.6910 C   0  0  0  0  0  1  0  0  0  0  0  0
  187.3430  177.5060  147.2580 C   0  0  0  0  0  2  0  0  0  0  0  0
  189.3510  178.1270  139.2350 C   0  0  0  0  0  2  0  0  0  0  0  0
  189.6180  176.7360  138.6720 C   0  0  0  0  0  2  0  0  0  0  0  0
  190.7880  176.7460  137.6980 C   0  0  0  0  0  2  0  0  0  0  0  0
  192.1210  174.7860  136.7190 N   0  0  0  0  0  2  0  0  0  0  0  0
  189.8080  174.8960  136.5790 O   0  0  0  0  0  0  0  0  0  0  0  0
  193.5750  176.4490  137.4920 O   0  0  0  0  0  0  0  0  0  0  0  0
  193.4310  175.2900  137.0190 C   0  0  0  0  0  0  0  0  0  0  0  0
  190.8720  175.4440  136.9660 C   0  0  0  0  0  0  0  0  0  0  0  0
  194.8440  174.0600  135.5900 O   0  0  0  0  0  0  0  0  0  0  0  0
  194.6310  174.4650  136.7660 C   0  0  0  0  0  0  0  0  0  0  0  0
  195.2340  174.0910  139.0430 O   0  0  0  0  0  0  0  0  0  0  0  0
  195.5900  174.0990  137.8340 C   0  0  0  0  0  0  0  0  0  0  0  0
  197.7730  174.8800  136.7780 C   0  0  0  0  0  2  0  0  0  0  0  0
  197.0180  173.7810  137.5010 C   0  0  0  0  0  0  0  0  0  0  0  0
  198.0710  174.5840  138.2400 C   0  0  0  0  0  2  0  0  0  0  0  0
  198.4520  172.1630  136.2220 C   0  0  0  0  0  3  0  0  0  0  0  0
  196.6540  171.2950  137.5930 C   0  0  0  0  0  3  0  0  0  0  0  0
  196.9840  169.9940  137.2030 C   0  0  0  0  0  3  0  0  0  0  0  0
  197.3930  172.3850  137.1130 C   0  0  0  0  0  0  0  0  0  0  0  0
  198.0500  169.7770  136.3240 C   0  0  0  0  0  3  0  0  0  0  0  0
  198.7820  170.8610  135.8320 C   0  0  0  0  0  3  0  0  0  0  0  0
  1 10  1  0  0  0  0
  2 25  1  0  0  0  0
  3  8  1  0  0  0  0
  4 28  1  0  0  0  0
  4  5  1  0  0  0  0
  6  2  1  0  0  0  0
  6  9  2  0  0  0  0
  7 15  1  0  0  0  0
  8 26  2  0  0  0  0
  8 20  1  0  0  0  0
  9 14  1  0  0  0  0
 10 23  2  0  0  0  0
 11  4  2  0  0  0  0
 12 19  1  0  0  0  0
 13 18  1  0  0  0  0
 14 13  1  0  0  0  0
 14 22  2  0  0  0  0
 15 21  2  0  0  0  0
 16 12  2  0  0  0  0
 18 11  1  0  0  0  0
 19  5  2  0  0  0  0
 20  7  2  0  0  0  0
 20 10  1  0  0  0  0
 22 16  1  0  0  0  0
 22 11  1  0  0  0  0
 23 21  1  0  0  0  0
 23 17  1  0  0  0  0
 24  2  1  0  0  0  0
 24  7  1  0  0  0  0
 25 15  1  0  0  0  0
 25 13  2  0  0  0  0
 26  1  1  0  0  0  0
 28 27  1  0  0  0  0
 29  6  1  0  0  0  0
 30 29  1  0  0  0  0
 31 30  1  0  0  0  0
 32 36  1  0  0  0  0
 32 35  1  0  0  0  0
 33 36  2  0  0  0  0
 35 34  2  0  0  0  0
 36 31  1  0  0  0  0
 37 38  2  0  0  0  0
 38 35  1  0  0  0  0
 38 40  1  0  0  0  0
 40 39  2  0  0  0  0
 41 42  1  0  0  0  0
 41 43  1  0  0  0  0
 42 40  1  0  0  0  0
 42 43  1  0  0  0  0
 44 47  1  0  0  0  0
 46 45  1  0  0  0  0
 47 42  1  0  0  0  0
 47 45  2  0  0  0  0
 48 46  2  0  0  0  0
 49 44  2  0  0  0  0
 49 48  1  0  0  0  0
M  END
>  <MODEL>
6

>  <REMARK>
 VINA RESULT:      -8.2      4.718      9.405
  Name = 
  9 active torsions:
  status: ('A' for Active; 'I' for Inactive)
    1  A    between atoms: C_2  and  C_29
    2  A    between atoms: C_2  and  C_48
    3  A    between atoms: C_6  and  C_32
    4  A    between atoms: C_9  and  C_48
    5  A    between atoms: C_25  and  C_44
    6  A    between atoms: C_26  and  C_38
    7  A    between atoms: C_26  and  C_45
    8  A    between atoms: C_29  and  C_41
    9  A    between atoms: C_44  and  C_45
                            x       y       z     vdW  Elec       q    Type
                         _______ _______ _______ _____ _____    ______ ____

>  <TORSDO>
F 9

$$$$
=
 OpenBabel10222417373D

 49 56  0  0  0  0  0  0  0  0999 V2000
  189.8460  177.2590  146.4160 S   0  0  0  0  0  0  0  0  0  0  0  0
  187.5400  178.1430  140.6210 N   0  0  0  0  0  0  0  0  0  0  0  0
  191.6730  177.2070  143.0100 C   0  0  0  0  0  1  0  0  0  0  0  0
  182.0360  179.0550  142.1420 C   0  0  0  0  0  0  0  0  0  0  0  0
  180.7680  179.3670  141.4590 C   0  0  0  0  0  3  0  0  0  0  0  0
  187.1270  178.3460  139.2490 C   0  0  0  0  0  0  0  0  0  0  0  0
  188.5830  177.7840  142.8740 C   0  0  0  0  0  0  0  0  0  0  0  0
  190.7290  177.2860  144.1580 C   0  0  0  0  0  0  0  0  0  0  0  0
  185.8330  178.6130  138.9850 C   0  0  0  0  0  3  0  0  0  0  0  0
  188.6850  177.5660  145.2650 C   0  0  0  0  0  0  0  0  0  0  0  0
  183.2310  178.8790  141.5560 C   0  0  0  0  0  0  0  0  0  0  0  0
  181.4110  179.4420  139.0150 C   0  0  0  0  0  3  0  0  0  0  0  0
  185.3240  178.4950  141.4200 C   0  0  0  0  0  0  0  0  0  0  0  0
  184.9050  178.6850  140.1330 C   0  0  0  0  0  0  0  0  0  0  0  0
  187.2100  178.0180  142.9920 C   0  0  0  0  0  0  0  0  0  0  0  0
  182.7140  179.1890  139.0210 C   0  0  0  0  0  3  0  0  0  0  0  0
  186.5300  177.8160  146.9710 Cl  0  0  0  0  0  0  0  0  0  0  0  0
  184.3230  178.6120  142.2560 O   0  0  0  0  0  0  0  0  0  0  0  0
  180.5040  179.5290  140.1630 C   0  0  0  0  0  3  0  0  0  0  0  0
  189.3380  177.5490  144.0350 C   0  0  0  0  0  0  0  0  0  0  0  0
  186.5630  178.0320  144.2390 C   0  0  0  0  0  3  0  0  0  0  0  0
  183.5520  178.9340  140.1950 C   0  0  0  0  0  0  0  0  0  0  0  0
  187.3130  177.8020  145.4020 C   0  0  0  0  0  0  0  0  0  0  0  0
  189.1950  177.8210  141.1710 S   0  0  0  0  0  0  0  0  0  0  0  0
  186.6010  178.2310  141.6960 C   0  0  0  0  0  0  0  0  0  0  0  0
  191.1780  177.0980  145.4290 N   0  0  0  0  0  0  0  0  0  0  0  0
  180.5580  178.5030  144.0470 C   0  0  0  0  0  1  0  0  0  0  0  0
  181.9470  178.9510  143.6320 C   0  0  0  0  0  2  0  0  0  0  0  0
  188.1130  178.2540  138.1290 C   0  0  0  0  0  2  0  0  0  0  0  0
  188.0490  176.8890  137.4550 C   0  0  0  0  0  2  0  0  0  0  0  0
  189.2540  176.0330  137.8190 C   0  0  0  0  0  2  0  0  0  0  0  0
  191.4040  175.6370  136.4780 N   0  0  0  0  0  2  0  0  0  0  0  0
  189.3060  175.1330  135.6230 O   0  0  0  0  0  0  0  0  0  0  0  0
  191.8900  176.7610  138.4720 O   0  0  0  0  0  0  0  0  0  0  0  0
  192.3190  176.1880  137.4350 C   0  0  0  0  0  0  0  0  0  0  0  0
  189.9750  175.5890  136.5870 C   0  0  0  0  0  0  0  0  0  0  0  0
  194.3240  176.9740  136.4780 O   0  0  0  0  0  0  0  0  0  0  0  0
  193.7790  176.1070  137.2150 C   0  0  0  0  0  0  0  0  0  0  0  0
  195.0240  175.1560  139.0130 O   0  0  0  0  0  0  0  0  0  0  0  0
  194.6220  175.0510  137.8240 C   0  0  0  0  0  0  0  0  0  0  0  0
  194.0200  172.7620  136.8810 C   0  0  0  0  0  2  0  0  0  0  0  0
  195.0550  173.8620  137.0180 C   0  0  0  0  0  0  0  0  0  0  0  0
  194.3430  173.6570  135.6950 C   0  0  0  0  0  2  0  0  0  0  0  0
  197.5250  174.3270  137.0100 C   0  0  0  0  0  3  0  0  0  0  0  0
  196.7710  172.0310  137.1800 C   0  0  0  0  0  3  0  0  0  0  0  0
  198.0990  171.5970  137.2130 C   0  0  0  0  0  3  0  0  0  0  0  0
  196.4770  173.3990  137.0900 C   0  0  0  0  0  0  0  0  0  0  0  0
  199.1400  172.5280  137.1460 C   0  0  0  0  0  3  0  0  0  0  0  0
  198.8530  173.8920  137.0430 C   0  0  0  0  0  3  0  0  0  0  0  0
  2 24  1  0  0  0  0
  2 25  1  0  0  0  0
  3  8  1  0  0  0  0
  4 28  1  0  0  0  0
  5  4  1  0  0  0  0
  6  2  1  0  0  0  0
  7 15  2  0  0  0  0
  7 20  1  0  0  0  0
  8 26  2  0  0  0  0
  9  6  2  0  0  0  0
  9 14  1  0  0  0  0
 10 23  1  0  0  0  0
 10  1  1  0  0  0  0
 11  4  2  0  0  0  0
 11 18  1  0  0  0  0
 12 16  2  0  0  0  0
 12 19  1  0  0  0  0
 13 25  2  0  0  0  0
 13 18  1  0  0  0  0
 14 22  2  0  0  0  0
 14 13  1  0  0  0  0
 15 21  1  0  0  0  0
 16 22  1  0  0  0  0
 19  5  2  0  0  0  0
 20  8  1  0  0  0  0
 20 10  2  0  0  0  0
 21 23  2  0  0  0  0
 22 11  1  0  0  0  0
 23 17  1  0  0  0  0
 24  7  1  0  0  0  0
 25 15  1  0  0  0  0
 26  1  1  0  0  0  0
 28 27  1  0  0  0  0
 29  6  1  0  0  0  0
 30 31  1  0  0  0  0
 30 29  1  0  0  0  0
 32 36  1  0  0  0  0
 32 35  1  0  0  0  0
 33 36  2  0  0  0  0
 35 34  2  0  0  0  0
 36 31  1  0  0  0  0
 37 38  2  0  0  0  0
 38 35  1  0  0  0  0
 38 40  1  0  0  0  0
 40 39  2  0  0  0  0
 41 42  1  0  0  0  0
 42 47  1  0  0  0  0
 42 40  1  0  0  0  0
 43 41  1  0  0  0  0
 43 42  1  0  0  0  0
 44 49  2  0  0  0  0
 44 47  1  0  0  0  0
 45 46  1  0  0  0  0
 47 45  2  0  0  0  0
 48 46  2  0  0  0  0
 49 48  1  0  0  0  0
M  END
>  <MODEL>
7

>  <REMARK>
 VINA RESULT:      -7.8      3.828      7.190
  Name = 
  9 active torsions:
  status: ('A' for Active; 'I' for Inactive)
    1  A    between atoms: C_2  and  C_29
    2  A    between atoms: C_2  and  C_48
    3  A    between atoms: C_6  and  C_32
    4  A    between atoms: C_9  and  C_48
    5  A    between atoms: C_25  and  C_44
    6  A    between atoms: C_26  and  C_38
    7  A    between atoms: C_26  and  C_45
    8  A    between atoms: C_29  and  C_41
    9  A    between atoms: C_44  and  C_45
                            x       y       z     vdW  Elec       q    Type
                         _______ _______ _______ _____ _____    ______ ____

>  <TORSDO>
F 9

$$$$
=
 OpenBabel10222417373D

 49 56  0  0  0  0  0  0  0  0999 V2000
  184.2670  171.6170  135.5970 S   0  0  0  0  0  0  0  0  0  0  0  0
  188.6290  175.9280  137.0370 N   0  0  0  0  0  0  0  0  0  0  0  0
  183.8180  175.3030  136.6720 C   0  0  0  0  0  1  0  0  0  0  0  0
  193.2760  172.5970  136.1780 C   0  0  0  0  0  0  0  0  0  0  0  0
  194.7410  172.7530  136.2490 C   0  0  0  0  0  3  0  0  0  0  0  0
  189.5390  177.0020  137.3710 C   0  0  0  0  0  0  0  0  0  0  0  0
  186.7970  174.3090  136.4780 C   0  0  0  0  0  0  0  0  0  0  0  0
  184.2810  173.9440  136.2840 C   0  0  0  0  0  0  0  0  0  0  0  0
  190.8660  176.7710  137.3390 C   0  0  0  0  0  3  0  0  0  0  0  0
  185.7990  172.2210  135.8280 C   0  0  0  0  0  0  0  0  0  0  0  0
  192.3640  173.5480  136.4340 C   0  0  0  0  0  0  0  0  0  0  0  0
  195.0490  175.1540  136.9790 C   0  0  0  0  0  3  0  0  0  0  0  0
  190.4300  174.4210  136.6400 C   0  0  0  0  0  0  0  0  0  0  0  0
  191.3130  175.4160  136.9560 C   0  0  0  0  0  0  0  0  0  0  0  0
  188.0510  173.7060  136.3490 C   0  0  0  0  0  0  0  0  0  0  0  0
  193.8090  175.6150  137.0880 C   0  0  0  0  0  3  0  0  0  0  0  0
  187.1970  169.9260  135.2000 Cl  0  0  0  0  0  0  0  0  0  0  0  0
  191.0640  173.3180  136.3310 O   0  0  0  0  0  0  0  0  0  0  0  0
  195.4800  173.8100  136.5810 C   0  0  0  0  0  3  0  0  0  0  0  0
  185.6440  173.5500  136.2150 C   0  0  0  0  0  0  0  0  0  0  0  0
  188.1940  172.3640  135.9590 C   0  0  0  0  0  3  0  0  0  0  0  0
  192.5730  174.8740  136.8320 C   0  0  0  0  0  0  0  0  0  0  0  0
  187.0460  171.6020  135.6910 C   0  0  0  0  0  0  0  0  0  0  0  0
  186.8600  176.0450  136.9850 S   0  0  0  0  0  0  0  0  0  0  0  0
  189.1140  174.6360  136.6660 C   0  0  0  0  0  0  0  0  0  0  0  0
  183.3760  172.9760  135.9680 N   0  0  0  0  0  0  0  0  0  0  0  0
  193.9620  170.4130  135.2390 C   0  0  0  0  0  1  0  0  0  0  0  0
  192.8010  171.2420  135.7580 C   0  0  0  0  0  2  0  0  0  0  0  0
  189.0270  178.3520  137.7580 C   0  0  0  0  0  2  0  0  0  0  0  0
  188.2830  178.2950  139.0860 C   0  0  0  0  0  2  0  0  0  0  0  0
  189.0350  177.4560  140.1100 C   0  0  0  0  0  2  0  0  0  0  0  0
  189.4390  177.4770  142.6420 N   0  0  0  0  0  2  0  0  0  0  0  0
  187.6620  178.6070  141.6670 O   0  0  0  0  0  0  0  0  0  0  0  0
  190.9270  176.0040  141.5970 O   0  0  0  0  0  0  0  0  0  0  0  0
  190.5640  176.5860  142.6540 C   0  0  0  0  0  0  0  0  0  0  0  0
  188.6670  177.8690  141.4990 C   0  0  0  0  0  0  0  0  0  0  0  0
  191.9230  175.2330  144.0220 O   0  0  0  0  0  0  0  0  0  0  0  0
  191.3050  176.3270  143.9060 C   0  0  0  0  0  0  0  0  0  0  0  0
  191.9170  178.4150  144.8830 O   0  0  0  0  0  0  0  0  0  0  0  0
  191.3520  177.2980  145.0240 C   0  0  0  0  0  0  0  0  0  0  0  0
  191.1860  175.5970  146.9140 C   0  0  0  0  0  2  0  0  0  0  0  0
  190.7710  176.9480  146.3630 C   0  0  0  0  0  0  0  0  0  0  0  0
  191.7510  176.8740  147.5170 C   0  0  0  0  0  2  0  0  0  0  0  0
  188.4160  177.5000  145.6830 C   0  0  0  0  0  3  0  0  0  0  0  0
  189.0350  177.7050  148.0160 C   0  0  0  0  0  3  0  0  0  0  0  0
  187.7410  178.1370  148.3220 C   0  0  0  0  0  3  0  0  0  0  0  0
  189.3750  177.3740  146.6980 C   0  0  0  0  0  0  0  0  0  0  0  0
  186.7840  178.2480  147.3090 C   0  0  0  0  0  3  0  0  0  0  0  0
  187.1220  177.9320  145.9900 C   0  0  0  0  0  3  0  0  0  0  0  0
  1 10  1  0  0  0  0
  1 26  1  0  0  0  0
  2  6  1  0  0  0  0
  4  5  1  0  0  0  0
  4 11  2  0  0  0  0
  5 19  2  0  0  0  0
  6 29  1  0  0  0  0
  7 24  1  0  0  0  0
  8  3  1  0  0  0  0
  9  6  2  0  0  0  0
 10 20  1  0  0  0  0
 11 22  1  0  0  0  0
 12 16  2  0  0  0  0
 13 25  2  0  0  0  0
 13 14  1  0  0  0  0
 14  9  1  0  0  0  0
 15  7  1  0  0  0  0
 15 25  1  0  0  0  0
 17 23  1  0  0  0  0
 18 11  1  0  0  0  0
 18 13  1  0  0  0  0
 19 12  1  0  0  0  0
 20  8  1  0  0  0  0
 20  7  2  0  0  0  0
 21 15  2  0  0  0  0
 22 14  2  0  0  0  0
 22 16  1  0  0  0  0
 23 10  2  0  0  0  0
 23 21  1  0  0  0  0
 24  2  1  0  0  0  0
 25  2  1  0  0  0  0
 26  8  2  0  0  0  0
 27 28  1  0  0  0  0
 28  4  1  0  0  0  0
 29 30  1  0  0  0  0
 30 31  1  0  0  0  0
 31 36  1  0  0  0  0
 32 35  1  0  0  0  0
 34 35  2  0  0  0  0
 35 38  1  0  0  0  0
 36 33  2  0  0  0  0
 36 32  1  0  0  0  0
 38 37  2  0  0  0  0
 38 40  1  0  0  0  0
 39 40  2  0  0  0  0
 40 42  1  0  0  0  0
 41 43  1  0  0  0  0
 42 47  1  0  0  0  0
 42 41  1  0  0  0  0
 42 43  1  0  0  0  0
 44 49  2  0  0  0  0
 44 47  1  0  0  0  0
 45 46  1  0  0  0  0
 47 45  2  0  0  0  0
 48 46  2  0  0  0  0
 49 48  1  0  0  0  0
M  END
>  <MODEL>
8

>  <REMARK>
 VINA RESULT:      -7.6      4.382     10.817
  Name = 
  9 active torsions:
  status: ('A' for Active; 'I' for Inactive)
    1  A    between atoms: C_2  and  C_29
    2  A    between atoms: C_2  and  C_48
    3  A    between atoms: C_6  and  C_32
    4  A    between atoms: C_9  and  C_48
    5  A    between atoms: C_25  and  C_44
    6  A    between atoms: C_26  and  C_38
    7  A    between atoms: C_26  and  C_45
    8  A    between atoms: C_29  and  C_41
    9  A    between atoms: C_44  and  C_45
                            x       y       z     vdW  Elec       q    Type
                         _______ _______ _______ _____ _____    ______ ____

>  <TORSDO>
F 9

$$$$
=
 OpenBabel10222417373D

 49 56  0  0  0  0  0  0  0  0999 V2000
  190.7960  171.0070  134.5960 S   0  0  0  0  0  0  0  0  0  0  0  0
  188.4150  176.3570  136.9170 N   0  0  0  0  0  0  0  0  0  0  0  0
  192.6230  174.2140  135.7460 C   0  0  0  0  0  1  0  0  0  0  0  0
  182.8430  174.8200  136.7610 C   0  0  0  0  0  0  0  0  0  0  0  0
  181.5500  175.4230  137.1300 C   0  0  0  0  0  3  0  0  0  0  0  0
  187.9850  177.6220  137.4750 C   0  0  0  0  0  0  0  0  0  0  0  0
  189.4880  174.2780  136.0150 C   0  0  0  0  0  0  0  0  0  0  0  0
  191.6740  173.1260  135.3830 C   0  0  0  0  0  0  0  0  0  0  0  0
  186.6700  177.8380  137.6720 C   0  0  0  0  0  3  0  0  0  0  0  0
  189.6110  172.0550  135.1080 C   0  0  0  0  0  0  0  0  0  0  0  0
  184.0510  175.3920  136.8930 C   0  0  0  0  0  0  0  0  0  0  0  0
  182.1840  177.7130  137.9930 C   0  0  0  0  0  3  0  0  0  0  0  0
  186.1730  175.5650  136.7840 C   0  0  0  0  0  0  0  0  0  0  0  0
  185.7380  176.7520  137.3040 C   0  0  0  0  0  0  0  0  0  0  0  0
  188.0980  174.1410  136.0610 C   0  0  0  0  0  0  0  0  0  0  0  0
  183.5070  177.7380  137.8860 C   0  0  0  0  0  3  0  0  0  0  0  0
  187.4390  170.4240  134.6160 Cl  0  0  0  0  0  0  0  0  0  0  0  0
  185.1640  174.7660  136.5440 O   0  0  0  0  0  0  0  0  0  0  0  0
  181.2710  176.6210  137.6410 C   0  0  0  0  0  3  0  0  0  0  0  0
  190.2630  173.2130  135.5260 C   0  0  0  0  0  0  0  0  0  0  0  0
  187.4520  172.9680  135.6360 C   0  0  0  0  0  3  0  0  0  0  0  0
  184.3660  176.6650  137.3830 C   0  0  0  0  0  0  0  0  0  0  0  0
  188.2210  171.9000  135.1500 C   0  0  0  0  0  0  0  0  0  0  0  0
  190.0950  175.8720  136.6190 S   0  0  0  0  0  0  0  0  0  0  0  0
  187.4710  175.3370  136.5840 C   0  0  0  0  0  0  0  0  0  0  0  0
  192.1400  171.9530  134.8740 N   0  0  0  0  0  0  0  0  0  0  0  0
  181.5240  173.2750  135.3500 C   0  0  0  0  0  1  0  0  0  0  0  0
  182.7640  173.4310  136.2120 C   0  0  0  0  0  2  0  0  0  0  0  0
  188.9760  178.6860  137.8210 C   0  0  0  0  0  2  0  0  0  0  0  0
  189.1600  178.7920  139.3300 C   0  0  0  0  0  2  0  0  0  0  0  0
  189.4190  177.4290  139.9560 C   0  0  0  0  0  2  0  0  0  0  0  0
  191.3560  177.4340  141.6370 N   0  0  0  0  0  2  0  0  0  0  0  0
  191.6780  176.9700  139.3860 O   0  0  0  0  0  0  0  0  0  0  0  0
  189.3910  178.1850  142.6630 O   0  0  0  0  0  0  0  0  0  0  0  0
  190.6000  177.8500  142.7840 C   0  0  0  0  0  0  0  0  0  0  0  0
  190.8660  177.2750  140.2990 C   0  0  0  0  0  0  0  0  0  0  0  0
  191.6740  179.0120  144.5290 O   0  0  0  0  0  0  0  0  0  0  0  0
  191.2280  177.9050  144.1200 C   0  0  0  0  0  0  0  0  0  0  0  0
  191.8320  175.6380  144.5500 O   0  0  0  0  0  0  0  0  0  0  0  0
  191.3530  176.7150  144.9950 C   0  0  0  0  0  0  0  0  0  0  0  0
  191.2970  175.5900  147.2800 C   0  0  0  0  0  2  0  0  0  0  0  0
  190.8640  176.7560  146.4120 C   0  0  0  0  0  0  0  0  0  0  0  0
  191.9220  176.9630  147.4780 C   0  0  0  0  0  2  0  0  0  0  0  0
  189.2150  177.8240  147.9780 C   0  0  0  0  0  3  0  0  0  0  0  0
  188.4910  177.2460  145.7400 C   0  0  0  0  0  3  0  0  0  0  0  0
  187.2110  177.7260  146.0300 C   0  0  0  0  0  3  0  0  0  0  0  0
  189.5020  177.3030  146.7090 C   0  0  0  0  0  0  0  0  0  0  0  0
  186.9330  178.2570  147.2930 C   0  0  0  0  0  3  0  0  0  0  0  0
  187.9340  178.3040  148.2670 C   0  0  0  0  0  3  0  0  0  0  0  0
  1 26  1  0  0  0  0
  1 10  1  0  0  0  0
  2  6  1  0  0  0  0
  4 11  2  0  0  0  0
  4  5  1  0  0  0  0
  5 19  2  0  0  0  0
  6  9  2  0  0  0  0
  6 29  1  0  0  0  0
  7 15  1  0  0  0  0
  7 24  1  0  0  0  0
  8 20  1  0  0  0  0
  8  3  1  0  0  0  0
 10 23  2  0  0  0  0
 10 20  1  0  0  0  0
 11 22  1  0  0  0  0
 13 14  1  0  0  0  0
 14 22  2  0  0  0  0
 14  9  1  0  0  0  0
 15 25  1  0  0  0  0
 16 12  2  0  0  0  0
 17 23  1  0  0  0  0
 18 13  1  0  0  0  0
 18 11  1  0  0  0  0
 19 12  1  0  0  0  0
 20  7  2  0  0  0  0
 21 15  2  0  0  0  0
 22 16  1  0  0  0  0
 23 21  1  0  0  0  0
 24  2  1  0  0  0  0
 25 13  2  0  0  0  0
 25  2  1  0  0  0  0
 26  8  2  0  0  0  0
 27 28  1  0  0  0  0
 28  4  1  0  0  0  0
 29 30  1  0  0  0  0
 30 31  1  0  0  0  0
 31 36  1  0  0  0  0
 32 35  1  0  0  0  0
 33 36  2  0  0  0  0
 34 35  2  0  0  0  0
 35 38  1  0  0  0  0
 36 32  1  0  0  0  0
 38 37  2  0  0  0  0
 38 40  1  0  0  0  0
 39 40  2  0  0  0  0
 40 42  1  0  0  0  0
 41 43  1  0  0  0  0
 42 47  1  0  0  0  0
 42 41  1  0  0  0  0
 42 43  1  0  0  0  0
 44 49  1  0  0  0  0
 45 46  2  0  0  0  0
 45 47  1  0  0  0  0
 46 48  1  0  0  0  0
 47 44  2  0  0  0  0
 48 49  2  0  0  0  0
M  END
>  <MODEL>
9

>  <REMARK>
 VINA RESULT:      -7.6      3.849      9.163
  Name = 
  9 active torsions:
  status: ('A' for Active; 'I' for Inactive)
    1  A    between atoms: C_2  and  C_29
    2  A    between atoms: C_2  and  C_48
    3  A    between atoms: C_6  and  C_32
    4  A    between atoms: C_9  and  C_48
    5  A    between atoms: C_25  and  C_44
    6  A    between atoms: C_26  and  C_38
    7  A    between atoms: C_26  and  C_45
    8  A    between atoms: C_29  and  C_41
    9  A    between atoms: C_44  and  C_45
                            x       y       z     vdW  Elec       q    Type
                         _______ _______ _______ _____ _____    ______ ____

>  <TORSDO>
F 9

$$$$
