=
 OpenBabel10222420173D

 27 28  0  0  1  0  0  0  0  0999 V2000
  186.3020  177.7580  142.2520 N   0  0  0  0  0  2  0  0  0  0  0  0
  182.8090  179.0220  142.8010 C   0  0  0  0  0  0  0  0  0  0  0  0
  182.8050  179.1650  144.1900 C   0  0  0  0  0  3  0  0  0  0  0  0
  181.6860  179.3590  142.1170 F   0  0  0  0  0  0  0  0  0  0  0  0
  185.0920  178.4070  144.2870 C   0  0  0  0  0  3  0  0  0  0  0  0
  185.1210  178.2620  142.8920 C   0  0  0  0  0  0  0  0  0  0  0  0
  183.9670  178.5730  142.1290 C   0  0  0  0  0  0  0  0  0  0  0  0
  183.9420  178.8590  144.9320 C   0  0  0  0  0  3  0  0  0  0  0  0
  183.4230  177.3840  140.1110 N   0  0  0  0  0  2  0  0  0  0  0  0
  183.9590  178.4320  140.6510 C   0  0  0  0  0  0  0  0  0  0  0  0
  184.1080  180.2550  139.0380 N   0  0  0  0  0  0  0  0  0  0  0  0
  184.6400  179.4140  139.8440 N   0  0  0  0  0  0  0  0  0  0  0  0
  182.7300  180.3910  138.8090 C   0  0  0  0  0  0  0  0  0  0  0  0
  181.5430  180.5090  138.6210 C   0  0  0  0  0  3  0  0  0  0  0  0
  187.6550  177.9900  142.7440 C   0  0  2  0  0  3  0  0  0  0  0  0
  189.8590  178.0520  141.8090 O   0  0  0  0  0  0  0  0  0  0  0  0
  188.9930  178.5850  139.1570 C   0  0  0  0  0  1  0  0  0  0  0  0
  188.6170  178.1440  141.6080 C   0  0  0  0  0  0  0  0  0  0  0  0
  188.1130  178.4190  140.3010 N   0  0  0  0  0  2  0  0  0  0  0  0
  188.0790  176.8780  143.6520 C   0  0  0  0  0  0  0  0  0  0  0  0
  188.0120  175.6830  143.2540 O   0  0  0  0  0  0  0  0  0  0  0  0
  188.9650  178.1880  148.7490 C   0  0  0  0  0  1  0  0  0  0  0  0
  187.6760  177.7070  146.3050 S   0  0  0  0  0  0  0  0  0  0  0  0
  190.1440  177.3950  146.6940 N   0  0  0  0  0  0  0  0  0  0  0  0
  188.5930  177.1740  144.9960 C   0  0  0  0  0  0  0  0  0  0  0  0
  189.9210  177.0600  145.3950 C   0  0  0  0  0  3  0  0  0  0  0  0
  189.0100  177.7700  147.3240 C   0  0  0  0  0  0  0  0  0  0  0  0
  1 15  1  0  0  0  0
  1  6  1  0  0  0  0
  2  3  1  0  0  0  0
  3  8  2  0  0  0  0
  4  2  1  0  0  0  0
  5  8  1  0  0  0  0
  6  5  2  0  0  0  0
  7  2  2  0  0  0  0
  7  6  1  0  0  0  0
  9 10  2  0  0  0  0
 10  7  1  0  0  0  0
 11 12  2  0  0  0  0
 12 10  1  0  0  0  0
 13 11  1  0  0  0  0
 14 13  3  0  0  0  0
 15 18  1  6  0  0  0
 15 20  1  0  0  0  0
 17 19  1  0  0  0  0
 18 16  2  0  0  0  0
 19 18  1  0  0  0  0
 20 25  1  0  0  0  0
 21 20  2  0  0  0  0
 23 27  1  0  0  0  0
 24 27  2  0  0  0  0
 25 26  2  0  0  0  0
 25 23  1  0  0  0  0
 26 24  1  0  0  0  0
 27 22  1  0  0  0  0
M  END
>  <MODEL>
1

>  <REMARK>
 VINA RESULT:      -7.9      0.000      0.000
  Name = 
  8 active torsions:
  status: ('A' for Active; 'I' for Inactive)
    1  A    between atoms: C_2  and  N_6
    2  A    between atoms: C_2  and  C_8
    3  A    between atoms: C_2  and  C_22
    4  A    between atoms: N_6  and  C_19
    5  A    between atoms: C_8  and  C_13
    6  A    between atoms: C_10  and  N_16
    7  A    between atoms: C_20  and  C_27
    8  A    between atoms: N_24  and  C_27
                            x       y       z     vdW  Elec       q    Type
                         _______ _______ _______ _____ _____    ______ ____

>  <TORSDO>
F 8

$$$$
=
 OpenBabel10222420173D

 27 28  0  0  1  0  0  0  0  0999 V2000
  189.0780  178.2780  141.3010 N   0  0  0  0  0  2  0  0  0  0  0  0
  188.2470  177.5780  144.8950 C   0  0  0  0  0  0  0  0  0  0  0  0
  186.8520  177.5480  144.8330 C   0  0  0  0  0  3  0  0  0  0  0  0
  188.8420  177.3530  146.0950 F   0  0  0  0  0  0  0  0  0  0  0  0
  186.9360  177.9740  142.4610 C   0  0  0  0  0  3  0  0  0  0  0  0
  188.3390  178.0020  142.4990 C   0  0  0  0  0  0  0  0  0  0  0  0
  189.0120  177.8010  143.7300 C   0  0  0  0  0  0  0  0  0  0  0  0
  186.1970  177.7450  143.6210 C   0  0  0  0  0  3  0  0  0  0  0  0
  191.1080  178.9460  144.0100 N   0  0  0  0  0  2  0  0  0  0  0  0
  190.4950  177.8230  143.8100 C   0  0  0  0  0  0  0  0  0  0  0  0
  191.8150  175.8670  144.4250 N   0  0  0  0  0  0  0  0  0  0  0  0
  191.2350  176.6100  143.5600 N   0  0  0  0  0  0  0  0  0  0  0  0
  191.8140  176.0920  145.8110 C   0  0  0  0  0  0  0  0  0  0  0  0
  191.8190  176.2790  147.0030 C   0  0  0  0  0  3  0  0  0  0  0  0
  189.0650  177.4200  140.1220 C   0  0  2  0  0  3  0  0  0  0  0  0
  190.5870  175.8350  139.1690 O   0  0  0  0  0  0  0  0  0  0  0  0
  192.9310  177.1770  140.0470 C   0  0  0  0  0  1  0  0  0  0  0  0
  190.4380  176.9040  139.8210 C   0  0  0  0  0  0  0  0  0  0  0  0
  191.5730  177.6260  140.2990 N   0  0  0  0  0  2  0  0  0  0  0  0
  188.5060  178.1580  138.9460 C   0  0  0  0  0  0  0  0  0  0  0  0
  189.0370  179.2390  138.5720 O   0  0  0  0  0  0  0  0  0  0  0  0
  183.8000  176.9610  136.7300 C   0  0  0  0  0  1  0  0  0  0  0  0
  185.7860  178.2310  138.2500 S   0  0  0  0  0  0  0  0  0  0  0  0
  186.1800  176.2060  136.8080 N   0  0  0  0  0  0  0  0  0  0  0  0
  187.3540  177.6170  138.2120 C   0  0  0  0  0  0  0  0  0  0  0  0
  187.3810  176.5090  137.3700 C   0  0  0  0  0  3  0  0  0  0  0  0
  185.2090  177.0600  137.1930 C   0  0  0  0  0  0  0  0  0  0  0  0
  1  6  1  0  0  0  0
  2  4  1  0  0  0  0
  3  2  1  0  0  0  0
  5  6  2  0  0  0  0
  5  8  1  0  0  0  0
  6  7  1  0  0  0  0
  7 10  1  0  0  0  0
  7  2  2  0  0  0  0
  8  3  2  0  0  0  0
 10  9  2  0  0  0  0
 11 13  1  0  0  0  0
 12 10  1  0  0  0  0
 12 11  2  0  0  0  0
 13 14  3  0  0  0  0
 15 20  1  6  0  0  0
 15  1  1  0  0  0  0
 16 18  2  0  0  0  0
 17 19  1  0  0  0  0
 18 15  1  0  0  0  0
 18 19  1  0  0  0  0
 21 20  2  0  0  0  0
 22 27  1  0  0  0  0
 24 27  2  0  0  0  0
 24 26  1  0  0  0  0
 25 23  1  0  0  0  0
 25 20  1  0  0  0  0
 26 25  2  0  0  0  0
 27 23  1  0  0  0  0
M  END
>  <MODEL>
2

>  <REMARK>
 VINA RESULT:      -7.7      3.806      7.574
  Name = 
  8 active torsions:
  status: ('A' for Active; 'I' for Inactive)
    1  A    between atoms: C_2  and  N_6
    2  A    between atoms: C_2  and  C_8
    3  A    between atoms: C_2  and  C_22
    4  A    between atoms: N_6  and  C_19
    5  A    between atoms: C_8  and  C_13
    6  A    between atoms: C_10  and  N_16
    7  A    between atoms: C_20  and  C_27
    8  A    between atoms: N_24  and  C_27
                            x       y       z     vdW  Elec       q    Type
                         _______ _______ _______ _____ _____    ______ ____

>  <TORSDO>
F 8

$$$$
=
 OpenBabel10222420173D

 27 28  0  0  1  0  0  0  0  0999 V2000
  188.3340  178.5670  140.7460 N   0  0  0  0  0  2  0  0  0  0  0  0
  186.3110  177.7480  143.8010 C   0  0  0  0  0  0  0  0  0  0  0  0
  185.0730  178.2820  143.4380 C   0  0  0  0  0  3  0  0  0  0  0  0
  186.4170  177.1360  145.0080 F   0  0  0  0  0  0  0  0  0  0  0  0
  185.9810  178.9740  141.3140 C   0  0  0  0  0  3  0  0  0  0  0  0
  187.2320  178.4390  141.6550 C   0  0  0  0  0  0  0  0  0  0  0  0
  187.4080  177.8130  142.9150 C   0  0  0  0  0  0  0  0  0  0  0  0
  184.9060  178.8940  142.1990 C   0  0  0  0  0  3  0  0  0  0  0  0
  188.8880  175.9520  143.2700 N   0  0  0  0  0  2  0  0  0  0  0  0
  188.7170  177.2340  143.3120 C   0  0  0  0  0  0  0  0  0  0  0  0
  190.0530  178.2760  145.0650 N   0  0  0  0  0  0  0  0  0  0  0  0
  189.7430  178.1010  143.8360 N   0  0  0  0  0  0  0  0  0  0  0  0
  189.4510  177.6180  146.1500 C   0  0  0  0  0  0  0  0  0  0  0  0
  188.9270  177.0560  147.0810 C   0  0  0  0  0  3  0  0  0  0  0  0
  188.6010  177.6370  139.6550 C   0  0  2  0  0  3  0  0  0  0  0  0
  190.8160  177.5690  140.5630 O   0  0  0  0  0  0  0  0  0  0  0  0
  191.9660  176.2570  138.3220 C   0  0  0  0  0  1  0  0  0  0  0  0
  190.0530  177.2790  139.6010 C   0  0  0  0  0  0  0  0  0  0  0  0
  190.5660  176.6260  138.4400 N   0  0  0  0  0  2  0  0  0  0  0  0
  188.1480  178.2180  138.3520 C   0  0  0  0  0  0  0  0  0  0  0  0
  188.7060  179.2540  137.8980 O   0  0  0  0  0  0  0  0  0  0  0  0
  184.9960  175.3070  135.1770 C   0  0  0  0  0  1  0  0  0  0  0  0
  187.2650  176.3210  136.4780 S   0  0  0  0  0  0  0  0  0  0  0  0
  184.9200  177.1580  136.8530 N   0  0  0  0  0  0  0  0  0  0  0  0
  187.0710  177.5730  137.5880 C   0  0  0  0  0  0  0  0  0  0  0  0
  185.7210  177.9010  137.6640 C   0  0  0  0  0  3  0  0  0  0  0  0
  185.6210  176.2500  136.1410 C   0  0  0  0  0  0  0  0  0  0  0  0
  1  6  1  0  0  0  0
  2  4  1  0  0  0  0
  3  2  1  0  0  0  0
  5  6  2  0  0  0  0
  5  8  1  0  0  0  0
  6  7  1  0  0  0  0
  7 10  1  0  0  0  0
  7  2  2  0  0  0  0
  8  3  2  0  0  0  0
  9 10  2  0  0  0  0
 10 12  1  0  0  0  0
 11 13  1  0  0  0  0
 12 11  2  0  0  0  0
 13 14  3  0  0  0  0
 15 20  1  6  0  0  0
 15  1  1  0  0  0  0
 17 19  1  0  0  0  0
 18 15  1  0  0  0  0
 18 16  2  0  0  0  0
 19 18  1  0  0  0  0
 21 20  2  0  0  0  0
 22 27  1  0  0  0  0
 23 25  1  0  0  0  0
 24 26  1  0  0  0  0
 25 26  2  0  0  0  0
 25 20  1  0  0  0  0
 27 23  1  0  0  0  0
 27 24  2  0  0  0  0
M  END
>  <MODEL>
3

>  <REMARK>
 VINA RESULT:      -7.3      3.455      7.107
  Name = 
  8 active torsions:
  status: ('A' for Active; 'I' for Inactive)
    1  A    between atoms: C_2  and  N_6
    2  A    between atoms: C_2  and  C_8
    3  A    between atoms: C_2  and  C_22
    4  A    between atoms: N_6  and  C_19
    5  A    between atoms: C_8  and  C_13
    6  A    between atoms: C_10  and  N_16
    7  A    between atoms: C_20  and  C_27
    8  A    between atoms: N_24  and  C_27
                            x       y       z     vdW  Elec       q    Type
                         _______ _______ _______ _____ _____    ______ ____

>  <TORSDO>
F 8

$$$$
=
 OpenBabel10222420173D

 27 28  0  0  1  0  0  0  0  0999 V2000
  186.2760  179.0050  141.4740 N   0  0  0  0  0  2  0  0  0  0  0  0
  186.2220  177.8260  145.0390 C   0  0  0  0  0  0  0  0  0  0  0  0
  185.0380  178.4170  145.4850 C   0  0  0  0  0  3  0  0  0  0  0  0
  186.9290  177.0650  145.9120 F   0  0  0  0  0  0  0  0  0  0  0  0
  184.6720  179.3630  143.2980 C   0  0  0  0  0  3  0  0  0  0  0  0
  185.8540  178.7740  142.8260 C   0  0  0  0  0  0  0  0  0  0  0  0
  186.6470  177.9910  143.7030 C   0  0  0  0  0  0  0  0  0  0  0  0
  184.2640  179.1840  144.6180 C   0  0  0  0  0  3  0  0  0  0  0  0
  187.9530  176.0650  143.0980 N   0  0  0  0  0  2  0  0  0  0  0  0
  187.9050  177.3510  143.2400 C   0  0  0  0  0  0  0  0  0  0  0  0
  190.0340  178.3450  143.8930 N   0  0  0  0  0  0  0  0  0  0  0  0
  189.0830  178.1610  143.0550 N   0  0  0  0  0  0  0  0  0  0  0  0
  190.1130  177.7530  145.1640 C   0  0  0  0  0  0  0  0  0  0  0  0
  190.1730  177.2470  146.2580 C   0  0  0  0  0  3  0  0  0  0  0  0
  185.7300  178.2980  140.3200 C   0  0  2  0  0  3  0  0  0  0  0  0
  186.3770  177.8630  138.0570 O   0  0  0  0  0  0  0  0  0  0  0  0
  189.1030  178.5650  138.4340 C   0  0  0  0  0  1  0  0  0  0  0  0
  186.7280  178.2420  139.2070 C   0  0  0  0  0  0  0  0  0  0  0  0
  188.0840  178.6020  139.4690 N   0  0  0  0  0  2  0  0  0  0  0  0
  184.4600  178.9470  139.8640 C   0  0  0  0  0  0  0  0  0  0  0  0
  184.4910  180.1030  139.3610 O   0  0  0  0  0  0  0  0  0  0  0  0
  179.5010  177.2030  140.7870 C   0  0  0  0  0  1  0  0  0  0  0  0
  181.7920  178.8200  140.7330 S   0  0  0  0  0  0  0  0  0  0  0  0
  181.6550  176.5190  139.7230 N   0  0  0  0  0  0  0  0  0  0  0  0
  183.1810  178.2340  139.9800 C   0  0  0  0  0  0  0  0  0  0  0  0
  182.9200  176.9610  139.4850 C   0  0  0  0  0  3  0  0  0  0  0  0
  180.9180  177.4260  140.3960 C   0  0  0  0  0  0  0  0  0  0  0  0
  1  6  1  0  0  0  0
  2  3  1  0  0  0  0
  2  4  1  0  0  0  0
  5  8  1  0  0  0  0
  6  5  2  0  0  0  0
  6  7  1  0  0  0  0
  7  2  2  0  0  0  0
  8  3  2  0  0  0  0
  9 10  2  0  0  0  0
 10  7  1  0  0  0  0
 11 13  1  0  0  0  0
 12 10  1  0  0  0  0
 12 11  2  0  0  0  0
 13 14  3  0  0  0  0
 15 18  1  6  0  0  0
 15  1  1  0  0  0  0
 16 18  2  0  0  0  0
 17 19  1  0  0  0  0
 18 19  1  0  0  0  0
 20 25  1  0  0  0  0
 20 15  1  0  0  0  0
 21 20  2  0  0  0  0
 24 27  2  0  0  0  0
 25 23  1  0  0  0  0
 26 24  1  0  0  0  0
 26 25  2  0  0  0  0
 27 23  1  0  0  0  0
 27 22  1  0  0  0  0
M  END
>  <MODEL>
4

>  <REMARK>
 VINA RESULT:      -7.2      3.130      6.673
  Name = 
  8 active torsions:
  status: ('A' for Active; 'I' for Inactive)
    1  A    between atoms: C_2  and  N_6
    2  A    between atoms: C_2  and  C_8
    3  A    between atoms: C_2  and  C_22
    4  A    between atoms: N_6  and  C_19
    5  A    between atoms: C_8  and  C_13
    6  A    between atoms: C_10  and  N_16
    7  A    between atoms: C_20  and  C_27
    8  A    between atoms: N_24  and  C_27
                            x       y       z     vdW  Elec       q    Type
                         _______ _______ _______ _____ _____    ______ ____

>  <TORSDO>
F 8

$$$$
=
 OpenBabel10222420173D

 27 28  0  0  1  0  0  0  0  0999 V2000
  186.6600  177.7050  142.4780 N   0  0  0  0  0  2  0  0  0  0  0  0
  183.3080  178.9840  143.5840 C   0  0  0  0  0  0  0  0  0  0  0  0
  183.4970  179.0310  144.9670 C   0  0  0  0  0  3  0  0  0  0  0  0
  182.1110  179.3850  143.0850 F   0  0  0  0  0  0  0  0  0  0  0  0
  185.7560  178.2310  144.6980 C   0  0  0  0  0  3  0  0  0  0  0  0
  185.5910  178.1820  143.3050 C   0  0  0  0  0  0  0  0  0  0  0  0
  184.3520  178.5640  142.7310 C   0  0  0  0  0  0  0  0  0  0  0  0
  184.7160  178.6560  145.5240 C   0  0  0  0  0  3  0  0  0  0  0  0
  184.5700  179.5020  140.5280 N   0  0  0  0  0  2  0  0  0  0  0  0
  184.1390  178.5260  141.2620 C   0  0  0  0  0  0  0  0  0  0  0  0
  182.1760  177.5200  140.2220 N   0  0  0  0  0  0  0  0  0  0  0  0
  183.3670  177.4520  140.6870 N   0  0  0  0  0  0  0  0  0  0  0  0
  181.4000  178.6890  140.1620 C   0  0  0  0  0  0  0  0  0  0  0  0
  180.7390  179.6980  140.1120 C   0  0  0  0  0  3  0  0  0  0  0  0
  188.0720  177.8240  142.8240 C   0  0  2  0  0  3  0  0  0  0  0  0
  190.1600  177.8910  141.6540 O   0  0  0  0  0  0  0  0  0  0  0  0
  189.0250  178.6200  139.1540 C   0  0  0  0  0  1  0  0  0  0  0  0
  188.9080  178.0280  141.6000 C   0  0  0  0  0  0  0  0  0  0  0  0
  188.2720  178.4010  140.3770 N   0  0  0  0  0  2  0  0  0  0  0  0
  188.5270  176.6150  143.5820 C   0  0  0  0  0  0  0  0  0  0  0  0
  188.3050  175.4630  143.1190 O   0  0  0  0  0  0  0  0  0  0  0  0
  191.9500  176.7630  147.6740 C   0  0  0  0  0  1  0  0  0  0  0  0
  190.8610  176.3540  145.1220 S   0  0  0  0  0  0  0  0  0  0  0  0
  189.5880  177.3090  147.0720 N   0  0  0  0  0  0  0  0  0  0  0  0
  189.2510  176.7660  144.8520 C   0  0  0  0  0  0  0  0  0  0  0  0
  188.7130  177.2730  146.0310 C   0  0  0  0  0  3  0  0  0  0  0  0
  190.8060  176.8380  146.7290 C   0  0  0  0  0  0  0  0  0  0  0  0
  1 15  1  0  0  0  0
  1  6  1  0  0  0  0
  2  3  1  0  0  0  0
  3  8  2  0  0  0  0
  4  2  1  0  0  0  0
  5  8  1  0  0  0  0
  6  5  2  0  0  0  0
  7  6  1  0  0  0  0
  7  2  2  0  0  0  0
  9 10  2  0  0  0  0
 10  7  1  0  0  0  0
 11 12  2  0  0  0  0
 12 10  1  0  0  0  0
 13 11  1  0  0  0  0
 14 13  3  0  0  0  0
 15 18  1  6  0  0  0
 15 20  1  0  0  0  0
 17 19  1  0  0  0  0
 18 16  2  0  0  0  0
 19 18  1  0  0  0  0
 20 25  1  0  0  0  0
 21 20  2  0  0  0  0
 23 27  1  0  0  0  0
 25 23  1  0  0  0  0
 25 26  2  0  0  0  0
 26 24  1  0  0  0  0
 27 24  2  0  0  0  0
 27 22  1  0  0  0  0
M  END
>  <MODEL>
5

>  <REMARK>
 VINA RESULT:      -7.2      1.294      1.665
  Name = 
  8 active torsions:
  status: ('A' for Active; 'I' for Inactive)
    1  A    between atoms: C_2  and  N_6
    2  A    between atoms: C_2  and  C_8
    3  A    between atoms: C_2  and  C_22
    4  A    between atoms: N_6  and  C_19
    5  A    between atoms: C_8  and  C_13
    6  A    between atoms: C_10  and  N_16
    7  A    between atoms: C_20  and  C_27
    8  A    between atoms: N_24  and  C_27
                            x       y       z     vdW  Elec       q    Type
                         _______ _______ _______ _____ _____    ______ ____

>  <TORSDO>
F 8

$$$$
=
 OpenBabel10222420173D

 27 28  0  0  1  0  0  0  0  0999 V2000
  187.8230  177.5020  142.4340 N   0  0  0  0  0  2  0  0  0  0  0  0
  188.6510  177.8030  146.0840 C   0  0  0  0  0  0  0  0  0  0  0  0
  187.3780  177.6880  146.6450 C   0  0  0  0  0  3  0  0  0  0  0  0
  189.7100  177.9540  146.9200 F   0  0  0  0  0  0  0  0  0  0  0  0
  186.4200  177.4310  144.4470 C   0  0  0  0  0  3  0  0  0  0  0  0
  187.6910  177.5380  143.8620 C   0  0  0  0  0  0  0  0  0  0  0  0
  188.8290  177.7260  144.6860 C   0  0  0  0  0  0  0  0  0  0  0  0
  186.2640  177.5030  145.8300 C   0  0  0  0  0  3  0  0  0  0  0  0
  190.7280  179.0130  143.9640 N   0  0  0  0  0  2  0  0  0  0  0  0
  190.1910  177.8430  144.1040 C   0  0  0  0  0  0  0  0  0  0  0  0
  191.5700  175.8400  144.2770 N   0  0  0  0  0  0  0  0  0  0  0  0
  190.8510  176.6610  143.6080 N   0  0  0  0  0  0  0  0  0  0  0  0
  191.8280  175.9310  145.6540 C   0  0  0  0  0  0  0  0  0  0  0  0
  192.0550  176.0030  146.8380 C   0  0  0  0  0  3  0  0  0  0  0  0
  187.4700  178.6130  141.5570 C   0  0  2  0  0  3  0  0  0  0  0  0
  185.7320  180.1280  142.2040 O   0  0  0  0  0  0  0  0  0  0  0  0
  183.6030  178.3710  141.5360 C   0  0  0  0  0  1  0  0  0  0  0  0
  186.0350  178.9980  141.7340 C   0  0  0  0  0  0  0  0  0  0  0  0
  185.0150  178.0620  141.3840 N   0  0  0  0  0  2  0  0  0  0  0  0
  187.7530  178.2600  140.1300 C   0  0  0  0  0  0  0  0  0  0  0  0
  186.9010  178.5200  139.2370 O   0  0  0  0  0  0  0  0  0  0  0  0
  191.8400  175.5330  138.0450 C   0  0  0  0  0  1  0  0  0  0  0  0
  189.2680  176.5630  138.4820 S   0  0  0  0  0  0  0  0  0  0  0  0
  191.2810  177.1280  139.8840 N   0  0  0  0  0  0  0  0  0  0  0  0
  189.0300  177.6320  139.7620 C   0  0  0  0  0  0  0  0  0  0  0  0
  190.2420  177.8250  140.4180 C   0  0  0  0  0  3  0  0  0  0  0  0
  190.9050  176.3910  138.8180 C   0  0  0  0  0  0  0  0  0  0  0  0
  1  6  1  0  0  0  0
  2  3  1  0  0  0  0
  2  4  1  0  0  0  0
  5  8  1  0  0  0  0
  6  5  2  0  0  0  0
  6  7  1  0  0  0  0
  7  2  2  0  0  0  0
  8  3  2  0  0  0  0
  9 10  2  0  0  0  0
 10  7  1  0  0  0  0
 11 13  1  0  0  0  0
 12 10  1  0  0  0  0
 12 11  2  0  0  0  0
 13 14  3  0  0  0  0
 15 20  1  6  0  0  0
 15 18  1  0  0  0  0
 15  1  1  0  0  0  0
 18 16  2  0  0  0  0
 19 17  1  0  0  0  0
 19 18  1  0  0  0  0
 21 20  2  0  0  0  0
 22 27  1  0  0  0  0
 23 27  1  0  0  0  0
 23 25  1  0  0  0  0
 24 26  1  0  0  0  0
 25 20  1  0  0  0  0
 25 26  2  0  0  0  0
 27 24  2  0  0  0  0
M  END
>  <MODEL>
6

>  <REMARK>
 VINA RESULT:      -7.1      3.374      7.044
  Name = 
  8 active torsions:
  status: ('A' for Active; 'I' for Inactive)
    1  A    between atoms: C_2  and  N_6
    2  A    between atoms: C_2  and  C_8
    3  A    between atoms: C_2  and  C_22
    4  A    between atoms: N_6  and  C_19
    5  A    between atoms: C_8  and  C_13
    6  A    between atoms: C_10  and  N_16
    7  A    between atoms: C_20  and  C_27
    8  A    between atoms: N_24  and  C_27
                            x       y       z     vdW  Elec       q    Type
                         _______ _______ _______ _____ _____    ______ ____

>  <TORSDO>
F 8

$$$$
=
 OpenBabel10222420173D

 27 28  0  0  1  0  0  0  0  0999 V2000
  188.0480  177.1580  142.2750 N   0  0  0  0  0  2  0  0  0  0  0  0
  185.2480  178.5330  144.3640 C   0  0  0  0  0  0  0  0  0  0  0  0
  185.7070  178.2180  145.6450 C   0  0  0  0  0  3  0  0  0  0  0  0
  184.0650  179.1890  144.2490 F   0  0  0  0  0  0  0  0  0  0  0  0
  187.6970  177.2350  144.7030 C   0  0  0  0  0  3  0  0  0  0  0  0
  187.2590  177.5480  143.4070 C   0  0  0  0  0  0  0  0  0  0  0  0
  186.0170  178.2080  143.2260 C   0  0  0  0  0  0  0  0  0  0  0  0
  186.9280  177.5710  145.8150 C   0  0  0  0  0  3  0  0  0  0  0  0
  185.6770  179.7590  141.4210 N   0  0  0  0  0  2  0  0  0  0  0  0
  185.5200  178.5550  141.8700 C   0  0  0  0  0  0  0  0  0  0  0  0
  183.5070  177.5000  140.9860 N   0  0  0  0  0  0  0  0  0  0  0  0
  184.7780  177.5740  141.1170 N   0  0  0  0  0  0  0  0  0  0  0  0
  182.5850  178.4000  141.5460 C   0  0  0  0  0  0  0  0  0  0  0  0
  181.7910  179.1750  142.0200 C   0  0  0  0  0  3  0  0  0  0  0  0
  188.9890  178.0420  141.5960 C   0  0  2  0  0  3  0  0  0  0  0  0
  188.7050  179.2300  139.5360 O   0  0  0  0  0  0  0  0  0  0  0  0
  188.0610  176.9270  138.0040 C   0  0  0  0  0  1  0  0  0  0  0  0
  188.6900  178.1180  140.1320 C   0  0  0  0  0  0  0  0  0  0  0  0
  188.3670  176.9220  139.4240 N   0  0  0  0  0  2  0  0  0  0  0  0
  190.3950  177.5840  141.8280 C   0  0  0  0  0  0  0  0  0  0  0  0
  191.1670  177.4030  140.8470 O   0  0  0  0  0  0  0  0  0  0  0  0
  192.0670  175.7900  146.5680 C   0  0  0  0  0  1  0  0  0  0  0  0
  191.1150  175.8670  143.9310 S   0  0  0  0  0  0  0  0  0  0  0  0
  191.6630  177.9050  145.3030 N   0  0  0  0  0  0  0  0  0  0  0  0
  190.8870  177.3650  143.1950 C   0  0  0  0  0  0  0  0  0  0  0  0
  191.2380  178.3660  144.0950 C   0  0  0  0  0  3  0  0  0  0  0  0
  191.6520  176.5570  145.3650 C   0  0  0  0  0  0  0  0  0  0  0  0
  1  6  1  0  0  0  0
  2  3  1  0  0  0  0
  3  8  2  0  0  0  0
  4  2  1  0  0  0  0
  5  8  1  0  0  0  0
  6  5  2  0  0  0  0
  7  6  1  0  0  0  0
  7  2  2  0  0  0  0
  9 10  2  0  0  0  0
 10  7  1  0  0  0  0
 11 12  2  0  0  0  0
 11 13  1  0  0  0  0
 12 10  1  0  0  0  0
 13 14  3  0  0  0  0
 15 18  1  6  0  0  0
 15 20  1  0  0  0  0
 15  1  1  0  0  0  0
 16 18  2  0  0  0  0
 17 19  1  0  0  0  0
 19 18  1  0  0  0  0
 20 25  1  0  0  0  0
 21 20  2  0  0  0  0
 23 27  1  0  0  0  0
 24 27  2  0  0  0  0
 25 23  1  0  0  0  0
 25 26  2  0  0  0  0
 26 24  1  0  0  0  0
 27 22  1  0  0  0  0
M  END
>  <MODEL>
7

>  <REMARK>
 VINA RESULT:      -6.9      2.312      2.999
  Name = 
  8 active torsions:
  status: ('A' for Active; 'I' for Inactive)
    1  A    between atoms: C_2  and  N_6
    2  A    between atoms: C_2  and  C_8
    3  A    between atoms: C_2  and  C_22
    4  A    between atoms: N_6  and  C_19
    5  A    between atoms: C_8  and  C_13
    6  A    between atoms: C_10  and  N_16
    7  A    between atoms: C_20  and  C_27
    8  A    between atoms: N_24  and  C_27
                            x       y       z     vdW  Elec       q    Type
                         _______ _______ _______ _____ _____    ______ ____

>  <TORSDO>
F 8

$$$$
=
 OpenBabel10222420173D

 27 28  0  0  1  0  0  0  0  0999 V2000
  184.4950  178.0550  141.4910 N   0  0  0  0  0  2  0  0  0  0  0  0
  185.8100  178.5700  144.9710 C   0  0  0  0  0  0  0  0  0  0  0  0
  184.6380  178.9370  145.6350 C   0  0  0  0  0  3  0  0  0  0  0  0
  186.9590  178.4920  145.6900 F   0  0  0  0  0  0  0  0  0  0  0  0
  183.3890  178.7000  143.5860 C   0  0  0  0  0  3  0  0  0  0  0  0
  184.5530  178.3230  142.8990 C   0  0  0  0  0  0  0  0  0  0  0  0
  185.7860  178.2520  143.5950 C   0  0  0  0  0  0  0  0  0  0  0  0
  183.4300  179.0030  144.9450 C   0  0  0  0  0  3  0  0  0  0  0  0
  187.5230  178.6160  141.9730 N   0  0  0  0  0  2  0  0  0  0  0  0
  187.0400  177.8570  142.9030 C   0  0  0  0  0  0  0  0  0  0  0  0
  188.7610  176.3780  143.7950 N   0  0  0  0  0  0  0  0  0  0  0  0
  187.6430  176.5830  143.2080 N   0  0  0  0  0  0  0  0  0  0  0  0
  189.6110  177.3830  144.2840 C   0  0  0  0  0  0  0  0  0  0  0  0
  190.3480  178.2420  144.7030 C   0  0  0  0  0  3  0  0  0  0  0  0
  183.5530  178.6950  140.5800 C   0  0  2  0  0  3  0  0  0  0  0  0
  182.6750  176.4960  140.2190 O   0  0  0  0  0  0  0  0  0  0  0  0
  180.1460  177.3860  139.2810 C   0  0  0  0  0  1  0  0  0  0  0  0
  182.4760  177.7410  140.1690 C   0  0  0  0  0  0  0  0  0  0  0  0
  181.2300  178.2570  139.7010 N   0  0  0  0  0  2  0  0  0  0  0  0
  184.2710  179.2340  139.3820 C   0  0  0  0  0  0  0  0  0  0  0  0
  184.1800  180.4580  139.0930 O   0  0  0  0  0  0  0  0  0  0  0  0
  186.3780  175.7120  135.9700 C   0  0  0  0  0  1  0  0  0  0  0  0
  184.5290  177.2770  137.3830 S   0  0  0  0  0  0  0  0  0  0  0  0
  187.0200  177.3540  137.7400 N   0  0  0  0  0  0  0  0  0  0  0  0
  185.0990  178.3470  138.5530 C   0  0  0  0  0  0  0  0  0  0  0  0
  186.4860  178.2530  138.6100 C   0  0  0  0  0  3  0  0  0  0  0  0
  186.0730  176.7410  136.9990 C   0  0  0  0  0  0  0  0  0  0  0  0
  1  6  1  0  0  0  0
  2  3  1  0  0  0  0
  2  4  1  0  0  0  0
  5  8  1  0  0  0  0
  6  5  2  0  0  0  0
  6  7  1  0  0  0  0
  7  2  2  0  0  0  0
  8  3  2  0  0  0  0
  9 10  2  0  0  0  0
 10 12  1  0  0  0  0
 10  7  1  0  0  0  0
 11 13  1  0  0  0  0
 12 11  2  0  0  0  0
 13 14  3  0  0  0  0
 15 20  1  6  0  0  0
 15  1  1  0  0  0  0
 17 19  1  0  0  0  0
 18 16  2  0  0  0  0
 18 15  1  0  0  0  0
 19 18  1  0  0  0  0
 21 20  2  0  0  0  0
 22 27  1  0  0  0  0
 23 25  1  0  0  0  0
 24 26  1  0  0  0  0
 25 26  2  0  0  0  0
 25 20  1  0  0  0  0
 27 23  1  0  0  0  0
 27 24  2  0  0  0  0
M  END
>  <MODEL>
8

>  <REMARK>
 VINA RESULT:      -6.8      3.495      7.019
  Name = 
  8 active torsions:
  status: ('A' for Active; 'I' for Inactive)
    1  A    between atoms: C_2  and  N_6
    2  A    between atoms: C_2  and  C_8
    3  A    between atoms: C_2  and  C_22
    4  A    between atoms: N_6  and  C_19
    5  A    between atoms: C_8  and  C_13
    6  A    between atoms: C_10  and  N_16
    7  A    between atoms: C_20  and  C_27
    8  A    between atoms: N_24  and  C_27
                            x       y       z     vdW  Elec       q    Type
                         _______ _______ _______ _____ _____    ______ ____

>  <TORSDO>
F 8

$$$$
=
 OpenBabel10222420173D

 27 28  0  0  1  0  0  0  0  0999 V2000
  189.4990  176.8230  140.5340 N   0  0  0  0  0  2  0  0  0  0  0  0
  189.6050  177.4260  136.8300 C   0  0  0  0  0  0  0  0  0  0  0  0
  188.4960  178.2610  136.6760 C   0  0  0  0  0  3  0  0  0  0  0  0
  190.3360  177.1180  135.7280 F   0  0  0  0  0  0  0  0  0  0  0  0
  188.0750  178.1600  139.0480 C   0  0  0  0  0  3  0  0  0  0  0  0
  189.1880  177.3250  139.2270 C   0  0  0  0  0  0  0  0  0  0  0  0
  189.9720  176.9490  138.1070 C   0  0  0  0  0  0  0  0  0  0  0  0
  187.7320  178.6270  137.7800 C   0  0  0  0  0  3  0  0  0  0  0  0
  191.0250  174.7870  138.1080 N   0  0  0  0  0  2  0  0  0  0  0  0
  191.1570  176.0670  138.2570 C   0  0  0  0  0  0  0  0  0  0  0  0
  193.4790  176.7530  137.9630 N   0  0  0  0  0  0  0  0  0  0  0  0
  192.4160  176.6390  138.6670 N   0  0  0  0  0  0  0  0  0  0  0  0
  193.6040  176.3540  136.6220 C   0  0  0  0  0  0  0  0  0  0  0  0
  193.7130  176.0030  135.4730 C   0  0  0  0  0  3  0  0  0  0  0  0
  189.2780  177.5720  141.7670 C   0  0  2  0  0  3  0  0  0  0  0  0
  191.6660  177.5030  141.9350 O   0  0  0  0  0  0  0  0  0  0  0  0
  191.7920  179.0040  144.3430 C   0  0  0  0  0  1  0  0  0  0  0  0
  190.5770  177.9020  142.4320 C   0  0  0  0  0  0  0  0  0  0  0  0
  190.5670  178.6540  143.6440 N   0  0  0  0  0  2  0  0  0  0  0  0
  188.3880  176.8020  142.6920 C   0  0  0  0  0  0  0  0  0  0  0  0
  188.6490  175.5960  142.9560 O   0  0  0  0  0  0  0  0  0  0  0  0
  183.9030  179.3950  143.9720 C   0  0  0  0  0  1  0  0  0  0  0  0
  185.9920  178.2530  142.4900 S   0  0  0  0  0  0  0  0  0  0  0  0
  185.8200  178.1670  145.0000 N   0  0  0  0  0  0  0  0  0  0  0  0
  187.2250  177.4510  143.3110 C   0  0  0  0  0  0  0  0  0  0  0  0
  186.9640  177.5040  144.6770 C   0  0  0  0  0  3  0  0  0  0  0  0
  185.1780  178.6340  143.9090 C   0  0  0  0  0  0  0  0  0  0  0  0
  2  7  1  0  0  0  0
  3  2  2  0  0  0  0
  3  8  1  0  0  0  0
  4  2  1  0  0  0  0
  5  6  1  0  0  0  0
  6  1  1  0  0  0  0
  7 10  1  0  0  0  0
  7  6  2  0  0  0  0
  8  5  2  0  0  0  0
  9 10  2  0  0  0  0
 10 12  1  0  0  0  0
 11 12  2  0  0  0  0
 13 11  1  0  0  0  0
 14 13  3  0  0  0  0
 15  1  1  6  0  0  0
 15 18  1  0  0  0  0
 15 20  1  0  0  0  0
 16 18  2  0  0  0  0
 18 19  1  0  0  0  0
 19 17  1  0  0  0  0
 20 21  2  0  0  0  0
 20 25  1  0  0  0  0
 23 25  1  0  0  0  0
 23 27  1  0  0  0  0
 25 26  2  0  0  0  0
 26 24  1  0  0  0  0
 27 22  1  0  0  0  0
 27 24  2  0  0  0  0
M  END
>  <MODEL>
9

>  <REMARK>
 VINA RESULT:      -6.7      3.863      6.974
  Name = 
  8 active torsions:
  status: ('A' for Active; 'I' for Inactive)
    1  A    between atoms: C_2  and  N_6
    2  A    between atoms: C_2  and  C_8
    3  A    between atoms: C_2  and  C_22
    4  A    between atoms: N_6  and  C_19
    5  A    between atoms: C_8  and  C_13
    6  A    between atoms: C_10  and  N_16
    7  A    between atoms: C_20  and  C_27
    8  A    between atoms: N_24  and  C_27
                            x       y       z     vdW  Elec       q    Type
                         _______ _______ _______ _____ _____    ______ ____

>  <TORSDO>
F 8

$$$$
