=
 OpenBabel10222418283D

 28 32  0  0  1  0  0  0  0  0999 V2000
  190.1630  176.4780  143.7660 C   0  0  0  0  0  0  0  0  0  0  0  0
  185.3090  177.8940  143.2110 C   0  0  0  0  0  3  0  0  0  0  0  0
  188.8840  178.0690  148.2590 N   0  0  0  0  0  1  0  0  0  0  0  0
  184.5730  178.2890  145.6350 C   0  0  2  0  0  3  0  0  0  0  0  0
  186.9220  177.7650  145.0590 C   0  0  0  0  0  0  0  0  0  0  0  0
  183.2180  179.0780  143.7190 C   0  0  0  0  0  0  0  0  0  0  0  0
  185.6760  178.0060  144.6340 C   0  0  1  0  0  3  0  0  0  0  0  0
  186.2760  178.7230  147.3110 C   0  0  0  0  0  3  0  0  0  0  0  0
  183.4470  179.0880  145.0380 C   0  0  0  0  0  3  0  0  0  0  0  0
  189.5310  177.2190  145.9860 C   0  0  0  0  0  0  0  0  0  0  0  0
  187.9030  177.2870  144.1830 O   0  0  0  0  0  0  0  0  0  0  0  0
  185.0560  178.8800  146.8880 N   0  0  0  0  0  0  0  0  0  0  0  0
  191.7370  176.4290  145.5960 C   0  0  0  0  0  3  0  0  0  0  0  0
  188.5190  177.7800  146.9090 C   0  0  0  0  0  0  0  0  0  0  0  0
  190.7870  176.9350  146.4270 N   0  0  0  0  0  0  0  0  0  0  0  0
  182.1530  179.7540  143.2210 F   0  0  0  0  0  0  0  0  0  0  0  0
  184.1430  178.3910  142.7880 C   0  0  0  0  0  3  0  0  0  0  0  0
  187.2760  178.0390  146.4700 C   0  0  0  0  0  0  0  0  0  0  0  0
  191.4410  176.1910  144.2520 C   0  0  0  0  0  3  0  0  0  0  0  0
  189.1930  176.9930  144.6380 C   0  0  1  0  0  3  0  0  0  0  0  0
  189.8440  176.2240  142.3130 C   0  0  0  0  0  2  0  0  0  0  0  0
  190.1070  177.3690  141.4240 N   0  0  0  0  0  0  0  0  0  0  0  0
  190.1010  177.4290  139.0060 C   0  0  1  0  0  3  0  0  0  0  0  0
  188.8520  177.9660  140.9770 C   0  0  0  0  0  2  0  0  0  0  0  0
  192.2390  177.5500  140.2620 C   0  0  0  0  0  1  0  0  0  0  0  0
  190.8480  176.9460  140.2350 C   0  0  1  0  0  3  0  0  0  0  0  0
  189.4890  176.2930  138.3390 N   0  0  0  0  0  1  0  0  0  0  0  0
  189.0240  178.3480  139.5270 C   0  0  0  0  0  2  0  0  0  0  0  0
  1 19  2  0  0  0  0
  4  9  1  6  0  0  0
  4 12  1  0  0  0  0
  5 18  2  0  0  0  0
  6  9  2  0  0  0  0
  7  2  1  1  0  0  0
  7  5  1  0  0  0  0
  7  4  1  0  0  0  0
 10 15  1  0  0  0  0
 10 14  2  0  0  0  0
 11 20  1  0  0  0  0
 11  5  1  0  0  0  0
 12  8  2  0  0  0  0
 13 15  2  0  0  0  0
 14  3  1  0  0  0  0
 16  6  1  0  0  0  0
 17  2  2  0  0  0  0
 17  6  1  0  0  0  0
 18 14  1  0  0  0  0
 18  8  1  0  0  0  0
 19 13  1  0  0  0  0
 20  1  1  6  0  0  0
 20 10  1  0  0  0  0
 21  1  1  0  0  0  0
 22 21  1  0  0  0  0
 23 27  1  1  0  0  0
 23 28  1  0  0  0  0
 23 26  1  0  0  0  0
 24 22  1  0  0  0  0
 26 25  1  1  0  0  0
 26 22  1  0  0  0  0
 28 24  1  0  0  0  0
M  END
>  <MODEL>
1

>  <REMARK>
 VINA RESULT:     -11.1      0.000      0.000
  Name = 
  2 active torsions:
  status: ('A' for Active; 'I' for Inactive)
    1  A    between atoms: C_1  and  C_2
    2  A    between atoms: C_2  and  N_3
                            x       y       z     vdW  Elec       q    Type
                         _______ _______ _______ _____ _____    ______ ____

>  <TORSDO>
F 2

$$$$
=
 OpenBabel10222418283D

 28 32  0  0  1  0  0  0  0  0999 V2000
  189.9330  177.5290  140.7060 C   0  0  0  0  0  0  0  0  0  0  0  0
  185.6030  178.1430  143.3020 C   0  0  0  0  0  3  0  0  0  0  0  0
  191.3530  177.3010  145.4270 N   0  0  0  0  0  1  0  0  0  0  0  0
  186.3160  177.5820  145.7000 C   0  0  2  0  0  3  0  0  0  0  0  0
  187.9570  177.7120  143.8520 C   0  0  0  0  0  0  0  0  0  0  0  0
  184.1600  178.6960  145.2120 C   0  0  0  0  0  0  0  0  0  0  0  0
  186.6880  177.8480  144.2540 C   0  0  1  0  0  3  0  0  0  0  0  0
  188.6690  177.7450  146.2800 C   0  0  0  0  0  3  0  0  0  0  0  0
  185.0710  178.3140  146.1160 C   0  0  0  0  0  3  0  0  0  0  0  0
  190.6330  177.3750  143.0220 C   0  0  0  0  0  0  0  0  0  0  0  0
  188.2890  177.7330  142.4920 O   0  0  0  0  0  0  0  0  0  0  0  0
  187.4200  177.8070  146.6390 N   0  0  0  0  0  0  0  0  0  0  0  0
  192.2480  177.1700  141.2910 C   0  0  0  0  0  3  0  0  0  0  0  0
  190.3040  177.4090  144.4650 C   0  0  0  0  0  0  0  0  0  0  0  0
  191.9180  177.1940  142.6100 N   0  0  0  0  0  0  0  0  0  0  0  0
  183.0150  179.2920  145.6280 F   0  0  0  0  0  0  0  0  0  0  0  0
  184.4080  178.5320  143.7610 C   0  0  0  0  0  3  0  0  0  0  0  0
  189.0300  177.5670  144.8610 C   0  0  0  0  0  0  0  0  0  0  0  0
  191.2610  177.3360  140.3170 C   0  0  0  0  0  3  0  0  0  0  0  0
  189.6100  177.5450  142.0710 C   0  0  1  0  0  3  0  0  0  0  0  0
  188.8680  177.7130  139.6530 C   0  0  0  0  0  2  0  0  0  0  0  0
  189.3390  177.5250  138.2710 N   0  0  0  0  0  0  0  0  0  0  0  0
  188.1320  176.6270  136.3770 C   0  0  1  0  0  3  0  0  0  0  0  0
  188.9040  178.6340  137.4280 C   0  0  0  0  0  2  0  0  0  0  0  0
  189.9240  175.3010  137.4700 C   0  0  0  0  0  1  0  0  0  0  0  0
  188.7990  176.2910  137.6980 C   0  0  1  0  0  3  0  0  0  0  0  0
  186.6900  176.5240  136.5270 N   0  0  0  0  0  1  0  0  0  0  0  0
  188.5090  178.0590  136.0900 C   0  0  0  0  0  2  0  0  0  0  0  0
  2 17  2  0  0  0  0
  4  9  1  1  0  0  0
  4 12  1  0  0  0  0
  5  7  1  0  0  0  0
  5 18  2  0  0  0  0
  6 16  1  0  0  0  0
  6  9  2  0  0  0  0
  7  2  1  6  0  0  0
  7  4  1  0  0  0  0
  8 12  2  0  0  0  0
 10 14  2  0  0  0  0
 11  5  1  0  0  0  0
 13 15  2  0  0  0  0
 14 18  1  0  0  0  0
 14  3  1  0  0  0  0
 15 10  1  0  0  0  0
 17  6  1  0  0  0  0
 18  8  1  0  0  0  0
 19  1  2  0  0  0  0
 19 13  1  0  0  0  0
 20  1  1  1  0  0  0
 20 11  1  0  0  0  0
 20 10  1  0  0  0  0
 21  1  1  0  0  0  0
 22 21  1  0  0  0  0
 23 27  1  1  0  0  0
 23 26  1  0  0  0  0
 24 22  1  0  0  0  0
 26 25  1  6  0  0  0
 26 22  1  0  0  0  0
 28 23  1  0  0  0  0
 28 24  1  0  0  0  0
M  END
>  <MODEL>
2

>  <REMARK>
 VINA RESULT:      -9.8      1.772      2.977
  Name = 
  2 active torsions:
  status: ('A' for Active; 'I' for Inactive)
    1  A    between atoms: C_1  and  C_2
    2  A    between atoms: C_2  and  N_3
                            x       y       z     vdW  Elec       q    Type
                         _______ _______ _______ _____ _____    ______ ____

>  <TORSDO>
F 2

$$$$
=
 OpenBabel10222418283D

 28 32  0  0  1  0  0  0  0  0999 V2000
  184.1730  178.4560  142.5390 C   0  0  0  0  0  0  0  0  0  0  0  0
  189.0380  176.9880  142.7580 C   0  0  0  0  0  3  0  0  0  0  0  0
  185.2470  178.6660  147.3520 N   0  0  0  0  0  1  0  0  0  0  0  0
  189.6670  177.5320  145.1830 C   0  0  2  0  0  3  0  0  0  0  0  0
  187.3480  177.7780  144.3550 C   0  0  0  0  0  0  0  0  0  0  0  0
  191.0980  176.1010  143.7580 C   0  0  0  0  0  0  0  0  0  0  0  0
  188.6090  177.4100  144.1030 C   0  0  1  0  0  3  0  0  0  0  0  0
  187.8900  177.7340  146.8270 C   0  0  0  0  0  3  0  0  0  0  0  0
  190.8120  176.5810  144.9750 C   0  0  0  0  0  3  0  0  0  0  0  0
  184.7040  178.6010  144.9000 C   0  0  0  0  0  0  0  0  0  0  0  0
  186.4080  177.8850  143.3230 O   0  0  0  0  0  0  0  0  0  0  0  0
  189.1260  177.4450  146.5440 N   0  0  0  0  0  0  0  0  0  0  0  0
  182.5210  179.1650  144.1510 C   0  0  0  0  0  3  0  0  0  0  0  0
  185.6720  178.4360  146.0080 C   0  0  0  0  0  0  0  0  0  0  0  0
  183.4310  179.0150  145.1500 N   0  0  0  0  0  0  0  0  0  0  0  0
  192.1810  175.3010  143.5940 F   0  0  0  0  0  0  0  0  0  0  0  0
  190.2190  176.3820  142.6000 C   0  0  0  0  0  3  0  0  0  0  0  0
  186.9310  178.0460  145.7500 C   0  0  0  0  0  0  0  0  0  0  0  0
  182.8760  178.8890  142.8300 C   0  0  0  0  0  3  0  0  0  0  0  0
  185.1010  178.3130  143.5810 C   0  0  1  0  0  3  0  0  0  0  0  0
  184.5550  178.1530  141.1120 C   0  0  0  0  0  2  0  0  0  0  0  0
  183.4240  178.1330  140.1690 N   0  0  0  0  0  0  0  0  0  0  0  0
  183.4700  177.8720  137.7650 C   0  0  1  0  0  3  0  0  0  0  0  0
  183.0550  176.7580  139.8440 C   0  0  0  0  0  2  0  0  0  0  0  0
  182.9530  180.0770  138.7820 C   0  0  0  0  0  1  0  0  0  0  0  0
  183.7720  178.8090  138.9200 C   0  0  1  0  0  3  0  0  0  0  0  0
  184.7180  177.3910  137.1980 N   0  0  0  0  0  1  0  0  0  0  0  0
  182.7140  176.7170  138.3740 C   0  0  0  0  0  2  0  0  0  0  0  0
  1 19  2  0  0  0  0
  4  9  1  6  0  0  0
  4 12  1  0  0  0  0
  5 18  2  0  0  0  0
  6  9  2  0  0  0  0
  7  2  1  6  0  0  0
  7  5  1  0  0  0  0
  7  4  1  0  0  0  0
 10 15  1  0  0  0  0
 10 14  2  0  0  0  0
 11 20  1  0  0  0  0
 11  5  1  0  0  0  0
 12  8  2  0  0  0  0
 13 15  2  0  0  0  0
 14  3  1  0  0  0  0
 16  6  1  0  0  0  0
 17  2  2  0  0  0  0
 17  6  1  0  0  0  0
 18 14  1  0  0  0  0
 18  8  1  0  0  0  0
 19 13  1  0  0  0  0
 20  1  1  1  0  0  0
 20 10  1  0  0  0  0
 21  1  1  0  0  0  0
 22 21  1  0  0  0  0
 23 27  1  1  0  0  0
 23 28  1  0  0  0  0
 23 26  1  0  0  0  0
 24 22  1  0  0  0  0
 26 25  1  6  0  0  0
 26 22  1  0  0  0  0
 28 24  1  0  0  0  0
M  END
>  <MODEL>
3

>  <REMARK>
 VINA RESULT:      -9.6      3.346      6.269
  Name = 
  2 active torsions:
  status: ('A' for Active; 'I' for Inactive)
    1  A    between atoms: C_1  and  C_2
    2  A    between atoms: C_2  and  N_3
                            x       y       z     vdW  Elec       q    Type
                         _______ _______ _______ _____ _____    ______ ____

>  <TORSDO>
F 2

$$$$
=
 OpenBabel10222418283D

 28 32  0  0  1  0  0  0  0  0999 V2000
  188.5090  176.9730  143.8270 C   0  0  0  0  0  0  0  0  0  0  0  0
  184.4150  177.9080  140.9590 C   0  0  0  0  0  3  0  0  0  0  0  0
  185.3310  179.0720  146.9670 N   0  0  0  0  0  1  0  0  0  0  0  0
  182.6620  178.5790  142.7050 C   0  0  2  0  0  3  0  0  0  0  0  0
  185.0230  178.1680  143.3240 C   0  0  0  0  0  0  0  0  0  0  0  0
  182.3100  178.9820  140.2880 C   0  0  0  0  0  0  0  0  0  0  0  0
  184.1000  178.2470  142.3570 C   0  0  1  0  0  3  0  0  0  0  0  0
  183.4240  179.3770  144.8690 C   0  0  0  0  0  3  0  0  0  0  0  0
  181.9200  179.1950  141.5520 C   0  0  0  0  0  3  0  0  0  0  0  0
  186.9390  177.9650  145.3850 C   0  0  0  0  0  0  0  0  0  0  0  0
  186.2970  177.6510  143.0630 O   0  0  0  0  0  0  0  0  0  0  0  0
  182.5240  179.3760  143.9290 N   0  0  0  0  0  0  0  0  0  0  0  0
  189.0910  177.3060  146.1470 C   0  0  0  0  0  3  0  0  0  0  0  0
  185.6150  178.5680  145.6610 C   0  0  0  0  0  0  0  0  0  0  0  0
  187.8640  177.8460  146.3770 N   0  0  0  0  0  0  0  0  0  0  0  0
  181.5770  179.4950  139.2690 F   0  0  0  0  0  0  0  0  0  0  0  0
  183.5600  178.2470  139.9880 C   0  0  0  0  0  3  0  0  0  0  0  0
  184.7010  178.6640  144.6810 C   0  0  0  0  0  0  0  0  0  0  0  0
  189.4330  176.8600  144.8700 C   0  0  0  0  0  3  0  0  0  0  0  0
  187.2460  177.5270  144.0840 C   0  0  1  0  0  3  0  0  0  0  0  0
  188.8810  176.4950  142.4460 C   0  0  0  0  0  2  0  0  0  0  0  0
  189.5700  177.4990  141.6190 N   0  0  0  0  0  0  0  0  0  0  0  0
  190.5820  177.2190  139.4400 C   0  0  1  0  0  3  0  0  0  0  0  0
  188.6630  178.0400  140.6120 C   0  0  0  0  0  2  0  0  0  0  0  0
  192.0000  177.4940  141.4590 C   0  0  0  0  0  1  0  0  0  0  0  0
  190.7110  176.9070  140.9190 C   0  0  1  0  0  3  0  0  0  0  0  0
  190.2290  176.0060  138.7220 N   0  0  0  0  0  1  0  0  0  0  0  0
  189.4520  178.2120  139.3370 C   0  0  0  0  0  2  0  0  0  0  0  0
  1 20  1  0  0  0  0
  1 19  2  0  0  0  0
  4  9  1  6  0  0  0
  4 12  1  0  0  0  0
  5 18  2  0  0  0  0
  6  9  2  0  0  0  0
  7  2  1  1  0  0  0
  7  4  1  0  0  0  0
  7  5  1  0  0  0  0
 10 14  2  0  0  0  0
 10 15  1  0  0  0  0
 11  5  1  0  0  0  0
 12  8  2  0  0  0  0
 13 15  2  0  0  0  0
 14  3  1  0  0  0  0
 16  6  1  0  0  0  0
 17  6  1  0  0  0  0
 17  2  2  0  0  0  0
 18  8  1  0  0  0  0
 18 14  1  0  0  0  0
 19 13  1  0  0  0  0
 20 11  1  6  0  0  0
 20 10  1  0  0  0  0
 21  1  1  0  0  0  0
 22 21  1  0  0  0  0
 23 27  1  6  0  0  0
 23 26  1  0  0  0  0
 24 22  1  0  0  0  0
 26 25  1  1  0  0  0
 26 22  1  0  0  0  0
 28 23  1  0  0  0  0
 28 24  1  0  0  0  0
M  END
>  <MODEL>
4

>  <REMARK>
 VINA RESULT:      -9.4      1.694      2.648
  Name = 
  2 active torsions:
  status: ('A' for Active; 'I' for Inactive)
    1  A    between atoms: C_1  and  C_2
    2  A    between atoms: C_2  and  N_3
                            x       y       z     vdW  Elec       q    Type
                         _______ _______ _______ _____ _____    ______ ____

>  <TORSDO>
F 2

$$$$
=
 OpenBabel10222418283D

 28 32  0  0  1  0  0  0  0  0999 V2000
  186.7390  178.6230  141.4940 C   0  0  0  0  0  0  0  0  0  0  0  0
  190.5900  177.3080  144.5450 C   0  0  0  0  0  3  0  0  0  0  0  0
  184.6370  178.2530  145.9450 N   0  0  0  0  0  1  0  0  0  0  0  0
  189.5540  177.5590  146.8760 C   0  0  2  0  0  3  0  0  0  0  0  0
  188.2060  177.8280  144.8190 C   0  0  0  0  0  0  0  0  0  0  0  0
  191.6980  176.3720  146.5270 C   0  0  0  0  0  0  0  0  0  0  0  0
  189.3910  177.5390  145.3690 C   0  0  1  0  0  3  0  0  0  0  0  0
  187.1350  177.4880  147.0870 C   0  0  0  0  0  3  0  0  0  0  0  0
  190.6830  176.6820  147.3440 C   0  0  0  0  0  3  0  0  0  0  0  0
  185.7070  178.4840  143.6840 C   0  0  0  0  0  0  0  0  0  0  0  0
  188.0820  178.0340  143.4400 O   0  0  0  0  0  0  0  0  0  0  0  0
  188.3110  177.2800  147.6040 N   0  0  0  0  0  0  0  0  0  0  0  0
  184.3840  179.0630  141.7970 C   0  0  0  0  0  3  0  0  0  0  0  0
  185.8130  178.2110  145.1350 C   0  0  0  0  0  0  0  0  0  0  0  0
  184.5090  178.8180  143.1290 N   0  0  0  0  0  0  0  0  0  0  0  0
  192.7350  175.6370  147.0010 F   0  0  0  0  0  0  0  0  0  0  0  0
  191.6800  176.7680  145.1000 C   0  0  0  0  0  3  0  0  0  0  0  0
  187.0020  177.9010  145.6770 C   0  0  0  0  0  0  0  0  0  0  0  0
  185.4960  178.9700  140.9580 C   0  0  0  0  0  3  0  0  0  0  0  0
  186.8510  178.3800  142.8710 C   0  0  1  0  0  3  0  0  0  0  0  0
  187.9390  178.5180  140.5870 C   0  0  0  0  0  2  0  0  0  0  0  0
  187.8090  177.5140  139.5180 N   0  0  0  0  0  0  0  0  0  0  0  0
  188.5150  177.6710  137.2100 C   0  0  1  0  0  3  0  0  0  0  0  0
  189.0560  176.7710  139.3610 C   0  0  0  0  0  2  0  0  0  0  0  0
  186.1050  177.7730  137.7980 C   0  0  0  0  0  1  0  0  0  0  0  0
  187.5060  178.1520  138.2360 C   0  0  1  0  0  3  0  0  0  0  0  0
  189.4300  178.7540  136.8930 N   0  0  0  0  0  1  0  0  0  0  0  0
  189.2700  176.5530  137.8830 C   0  0  0  0  0  2  0  0  0  0  0  0
  2 17  2  0  0  0  0
  4  9  1  6  0  0  0
  4 12  1  0  0  0  0
  5  7  1  0  0  0  0
  5 18  2  0  0  0  0
  6 16  1  0  0  0  0
  6  9  2  0  0  0  0
  7  2  1  6  0  0  0
  7  4  1  0  0  0  0
  8 12  2  0  0  0  0
 10 14  2  0  0  0  0
 11  5  1  0  0  0  0
 13 15  2  0  0  0  0
 14 18  1  0  0  0  0
 14  3  1  0  0  0  0
 15 10  1  0  0  0  0
 17  6  1  0  0  0  0
 18  8  1  0  0  0  0
 19  1  2  0  0  0  0
 19 13  1  0  0  0  0
 20  1  1  6  0  0  0
 20 11  1  0  0  0  0
 20 10  1  0  0  0  0
 21  1  1  0  0  0  0
 22 21  1  0  0  0  0
 23 27  1  1  0  0  0
 23 28  1  0  0  0  0
 23 26  1  0  0  0  0
 24 22  1  0  0  0  0
 26 25  1  6  0  0  0
 26 22  1  0  0  0  0
 28 24  1  0  0  0  0
M  END
>  <MODEL>
5

>  <REMARK>
 VINA RESULT:      -9.3      2.861      5.430
  Name = 
  2 active torsions:
  status: ('A' for Active; 'I' for Inactive)
    1  A    between atoms: C_1  and  C_2
    2  A    between atoms: C_2  and  N_3
                            x       y       z     vdW  Elec       q    Type
                         _______ _______ _______ _____ _____    ______ ____

>  <TORSDO>
F 2

$$$$
=
 OpenBabel10222418283D

 28 32  0  0  1  0  0  0  0  0999 V2000
  186.3800  177.7370  142.7270 C   0  0  0  0  0  0  0  0  0  0  0  0
  190.6330  176.6390  145.2910 C   0  0  0  0  0  3  0  0  0  0  0  0
  185.3360  179.0760  147.3610 N   0  0  0  0  0  1  0  0  0  0  0  0
  190.2050  177.7460  147.5630 C   0  0  2  0  0  3  0  0  0  0  0  0
  188.4630  177.6660  145.8080 C   0  0  0  0  0  0  0  0  0  0  0  0
  192.0410  176.1180  147.2340 C   0  0  0  0  0  0  0  0  0  0  0  0
  189.6960  177.3240  146.1990 C   0  0  1  0  0  3  0  0  0  0  0  0
  187.9120  178.2060  148.2180 C   0  0  0  0  0  3  0  0  0  0  0  0
  191.2900  176.8400  148.0760 C   0  0  0  0  0  3  0  0  0  0  0  0
  185.8740  178.4360  144.9930 C   0  0  0  0  0  0  0  0  0  0  0  0
  188.0500  177.4860  144.4830 O   0  0  0  0  0  0  0  0  0  0  0  0
  189.1390  177.9330  148.5540 N   0  0  0  0  0  0  0  0  0  0  0  0
  184.2350  178.6910  143.2920 C   0  0  0  0  0  3  0  0  0  0  0  0
  186.2770  178.5780  146.4100 C   0  0  0  0  0  0  0  0  0  0  0  0
  184.6330  178.8210  144.5860 N   0  0  0  0  0  0  0  0  0  0  0  0
  193.0570  175.3650  147.7250 F   0  0  0  0  0  0  0  0  0  0  0  0
  191.7440  176.0820  145.7840 C   0  0  0  0  0  3  0  0  0  0  0  0
  187.5100  178.2130  146.7990 C   0  0  0  0  0  0  0  0  0  0  0  0
  185.1010  178.1490  142.3410 C   0  0  0  0  0  3  0  0  0  0  0  0
  186.7760  177.8840  144.0650 C   0  0  1  0  0  3  0  0  0  0  0  0
  187.3140  177.1470  141.7010 C   0  0  0  0  0  2  0  0  0  0  0  0
  188.3210  178.0880  141.1810 N   0  0  0  0  0  0  0  0  0  0  0  0
  190.3430  177.6000  139.9460 C   0  0  1  0  0  3  0  0  0  0  0  0
  188.0800  178.3620  139.7670 C   0  0  0  0  0  2  0  0  0  0  0  0
  190.4610  178.3380  142.3140 C   0  0  0  0  0  1  0  0  0  0  0  0
  189.6690  177.5320  141.3040 C   0  0  1  0  0  3  0  0  0  0  0  0
  190.4480  176.2600  139.3950 N   0  0  0  0  0  1  0  0  0  0  0  0
  189.4240  178.4290  139.0840 C   0  0  0  0  0  2  0  0  0  0  0  0
  2 17  2  0  0  0  0
  4  9  1  1  0  0  0
  4 12  1  0  0  0  0
  5  7  1  0  0  0  0
  5 18  2  0  0  0  0
  6 16  1  0  0  0  0
  6  9  2  0  0  0  0
  7  2  1  6  0  0  0
  7  4  1  0  0  0  0
  8 12  2  0  0  0  0
 10 14  2  0  0  0  0
 11  5  1  0  0  0  0
 13 15  2  0  0  0  0
 14 18  1  0  0  0  0
 14  3  1  0  0  0  0
 15 10  1  0  0  0  0
 17  6  1  0  0  0  0
 18  8  1  0  0  0  0
 19  1  2  0  0  0  0
 19 13  1  0  0  0  0
 20  1  1  1  0  0  0
 20 11  1  0  0  0  0
 20 10  1  0  0  0  0
 21  1  1  0  0  0  0
 22 26  1  0  0  0  0
 22 21  1  0  0  0  0
 23 27  1  6  0  0  0
 23 26  1  0  0  0  0
 24 22  1  0  0  0  0
 26 25  1  1  0  0  0
 28 24  1  0  0  0  0
 28 23  1  0  0  0  0
M  END
>  <MODEL>
6

>  <REMARK>
 VINA RESULT:      -9.1      2.701      5.240
  Name = 
  2 active torsions:
  status: ('A' for Active; 'I' for Inactive)
    1  A    between atoms: C_1  and  C_2
    2  A    between atoms: C_2  and  N_3
                            x       y       z     vdW  Elec       q    Type
                         _______ _______ _______ _____ _____    ______ ____

>  <TORSDO>
F 2

$$$$
=
 OpenBabel10222418283D

 28 32  0  0  1  0  0  0  0  0999 V2000
  184.9010  178.7830  144.1660 C   0  0  0  0  0  0  0  0  0  0  0  0
  188.1870  178.0930  140.3470 C   0  0  0  0  0  3  0  0  0  0  0  0
  188.8880  176.8900  146.3760 N   0  0  0  0  0  1  0  0  0  0  0  0
  190.3600  177.5350  141.5860 C   0  0  2  0  0  3  0  0  0  0  0  0
  188.2120  177.8020  142.7850 C   0  0  0  0  0  0  0  0  0  0  0  0
  190.1150  177.1480  139.1530 C   0  0  0  0  0  0  0  0  0  0  0  0
  188.8640  177.7770  141.6170 C   0  0  1  0  0  3  0  0  0  0  0  0
  190.2180  176.6970  143.8620 C   0  0  0  0  0  3  0  0  0  0  0  0
  190.8230  176.9630  140.2750 C   0  0  0  0  0  3  0  0  0  0  0  0
  186.8700  177.8920  145.2650 C   0  0  0  0  0  0  0  0  0  0  0  0
  186.8850  178.2390  142.8610 O   0  0  0  0  0  0  0  0  0  0  0  0
  190.8500  176.7510  142.7260 N   0  0  0  0  0  0  0  0  0  0  0  0
  184.9440  178.4200  146.5540 C   0  0  0  0  0  3  0  0  0  0  0  0
  188.2540  177.3720  145.1910 C   0  0  0  0  0  0  0  0  0  0  0  0
  186.2190  177.9560  146.4600 N   0  0  0  0  0  0  0  0  0  0  0  0
  190.5960  176.6790  137.9760 F   0  0  0  0  0  0  0  0  0  0  0  0
  188.7880  177.8050  139.1870 C   0  0  0  0  0  3  0  0  0  0  0  0
  188.8950  177.3300  144.0110 C   0  0  0  0  0  0  0  0  0  0  0  0
  184.2640  178.8420  145.4100 C   0  0  0  0  0  3  0  0  0  0  0  0
  186.2180  178.3080  144.0890 C   0  0  1  0  0  3  0  0  0  0  0  0
  184.1640  179.2340  142.9300 C   0  0  0  0  0  2  0  0  0  0  0  0
  183.0900  178.3250  142.4950 N   0  0  0  0  0  0  0  0  0  0  0  0
  181.2250  178.7920  141.0270 C   0  0  1  0  0  3  0  0  0  0  0  0
  183.3890  177.7770  141.1760 C   0  0  0  0  0  2  0  0  0  0  0  0
  180.8650  178.5100  143.4670 C   0  0  0  0  0  1  0  0  0  0  0  0
  181.8120  179.0330  142.4050 C   0  0  1  0  0  3  0  0  0  0  0  0
  181.3160  180.0130  140.2460 N   0  0  0  0  0  1  0  0  0  0  0  0
  182.0940  177.7280  140.4020 C   0  0  0  0  0  2  0  0  0  0  0  0
  1 19  2  0  0  0  0
  4  9  1  6  0  0  0
  4  7  1  0  0  0  0
  4 12  1  0  0  0  0
  5 11  1  0  0  0  0
  5 18  2  0  0  0  0
  6 17  1  0  0  0  0
  6  9  2  0  0  0  0
  7  2  1  1  0  0  0
  7  5  1  0  0  0  0
  8 18  1  0  0  0  0
 10 15  1  0  0  0  0
 12  8  2  0  0  0  0
 14 10  2  0  0  0  0
 14  3  1  0  0  0  0
 15 13  2  0  0  0  0
 16  6  1  0  0  0  0
 17  2  2  0  0  0  0
 18 14  1  0  0  0  0
 19 13  1  0  0  0  0
 20 11  1  6  0  0  0
 20  1  1  0  0  0  0
 20 10  1  0  0  0  0
 21  1  1  0  0  0  0
 22 21  1  0  0  0  0
 23 27  1  6  0  0  0
 23 26  1  0  0  0  0
 24 22  1  0  0  0  0
 26 22  1  0  0  0  0
 26 25  1  1  0  0  0
 28 23  1  0  0  0  0
 28 24  1  0  0  0  0
M  END
>  <MODEL>
7

>  <REMARK>
 VINA RESULT:      -9.0      3.003      6.696
  Name = 
  2 active torsions:
  status: ('A' for Active; 'I' for Inactive)
    1  A    between atoms: C_1  and  C_2
    2  A    between atoms: C_2  and  N_3
                            x       y       z     vdW  Elec       q    Type
                         _______ _______ _______ _____ _____    ______ ____

>  <TORSDO>
F 2

$$$$
=
 OpenBabel10222418283D

 28 32  0  0  1  0  0  0  0  0999 V2000
  190.5090  176.1420  144.5570 C   0  0  0  0  0  0  0  0  0  0  0  0
  185.8000  177.7310  143.4800 C   0  0  0  0  0  3  0  0  0  0  0  0
  188.9330  178.1030  148.8030 N   0  0  0  0  0  1  0  0  0  0  0  0
  184.8790  178.3290  145.7960 C   0  0  2  0  0  3  0  0  0  0  0  0
  187.2390  177.6620  145.4680 C   0  0  0  0  0  0  0  0  0  0  0  0
  183.7360  179.0410  143.7190 C   0  0  0  0  0  0  0  0  0  0  0  0
  186.0490  177.9280  144.9190 C   0  0  1  0  0  3  0  0  0  0  0  0
  186.4520  178.8050  147.5850 C   0  0  0  0  0  3  0  0  0  0  0  0
  183.8510  179.1340  145.0500 C   0  0  0  0  0  3  0  0  0  0  0  0
  189.7280  177.0660  146.6580 C   0  0  0  0  0  0  0  0  0  0  0  0
  188.2660  177.0790  144.7170 O   0  0  0  0  0  0  0  0  0  0  0  0
  185.2830  178.9850  147.0450 N   0  0  0  0  0  0  0  0  0  0  0  0
  191.9170  176.1520  146.5190 C   0  0  0  0  0  3  0  0  0  0  0  0
  188.6710  177.7360  147.4480 C   0  0  0  0  0  0  0  0  0  0  0  0
  190.9260  176.7580  147.2270 N   0  0  0  0  0  0  0  0  0  0  0  0
  182.7530  179.7270  143.0850 F   0  0  0  0  0  0  0  0  0  0  0  0
  184.7010  178.2490  142.9220 C   0  0  0  0  0  3  0  0  0  0  0  0
  187.4850  178.0180  146.8840 C   0  0  0  0  0  0  0  0  0  0  0  0
  191.7250  175.8330  145.1740 C   0  0  0  0  0  3  0  0  0  0  0  0
  189.4960  176.7610  145.3040 C   0  0  1  0  0  3  0  0  0  0  0  0
  190.3050  175.8010  143.1020 C   0  0  0  0  0  2  0  0  0  0  0  0
  190.2530  176.9670  142.2050 N   0  0  0  0  0  0  0  0  0  0  0  0
  192.0120  177.8790  140.8170 C   0  0  1  0  0  3  0  0  0  0  0  0
  190.0260  176.5410  140.8270 C   0  0  0  0  0  2  0  0  0  0  0  0
  191.2860  179.0690  142.8710 C   0  0  0  0  0  1  0  0  0  0  0  0
  191.5140  177.7100  142.2400 C   0  0  1  0  0  3  0  0  0  0  0  0
  193.1700  177.0260  140.6090 N   0  0  0  0  0  1  0  0  0  0  0  0
  190.8790  177.4130  139.9370 C   0  0  0  0  0  2  0  0  0  0  0  0
  1 19  2  0  0  0  0
  4  9  1  6  0  0  0
  4 12  1  0  0  0  0
  5 18  2  0  0  0  0
  6  9  2  0  0  0  0
  7  2  1  1  0  0  0
  7  5  1  0  0  0  0
  7  4  1  0  0  0  0
 10 15  1  0  0  0  0
 10 14  2  0  0  0  0
 11 20  1  0  0  0  0
 11  5  1  0  0  0  0
 12  8  2  0  0  0  0
 13 15  2  0  0  0  0
 14  3  1  0  0  0  0
 16  6  1  0  0  0  0
 17  2  2  0  0  0  0
 17  6  1  0  0  0  0
 18 14  1  0  0  0  0
 18  8  1  0  0  0  0
 19 13  1  0  0  0  0
 20  1  1  6  0  0  0
 20 10  1  0  0  0  0
 21  1  1  0  0  0  0
 22 26  1  0  0  0  0
 22 21  1  0  0  0  0
 23 27  1  1  0  0  0
 23 26  1  0  0  0  0
 24 22  1  0  0  0  0
 26 25  1  6  0  0  0
 28 23  1  0  0  0  0
 28 24  1  0  0  0  0
M  END
>  <MODEL>
8

>  <REMARK>
 VINA RESULT:      -9.0      1.130      1.457
  Name = 
  2 active torsions:
  status: ('A' for Active; 'I' for Inactive)
    1  A    between atoms: C_1  and  C_2
    2  A    between atoms: C_2  and  N_3
                            x       y       z     vdW  Elec       q    Type
                         _______ _______ _______ _____ _____    ______ ____

>  <TORSDO>
F 2

$$$$
=
 OpenBabel10222418283D

 28 32  0  0  1  0  0  0  0  0999 V2000
  186.7740  178.2540  140.2920 C   0  0  0  0  0  0  0  0  0  0  0  0
  186.9620  177.8570  145.3590 C   0  0  0  0  0  3  0  0  0  0  0  0
  191.5340  177.3420  141.2220 N   0  0  0  0  0  1  0  0  0  0  0  0
  189.3310  176.9590  145.7520 C   0  0  2  0  0  3  0  0  0  0  0  0
  188.5480  177.6200  143.4990 C   0  0  0  0  0  0  0  0  0  0  0  0
  187.9640  177.8750  147.6020 C   0  0  0  0  0  0  0  0  0  0  0  0
  188.2880  177.5270  144.8090 C   0  0  1  0  0  3  0  0  0  0  0  0
  191.0030  177.2950  144.0230 C   0  0  0  0  0  3  0  0  0  0  0  0
  189.1550  177.4470  147.1630 C   0  0  0  0  0  3  0  0  0  0  0  0
  189.1070  177.7650  140.7370 C   0  0  0  0  0  0  0  0  0  0  0  0
  187.5360  177.9290  142.5830 O   0  0  0  0  0  0  0  0  0  0  0  0
  190.7080  177.1400  145.2800 N   0  0  0  0  0  0  0  0  0  0  0  0
  188.3790  178.0760  138.4970 C   0  0  0  0  0  3  0  0  0  0  0  0
  190.1980  177.4960  141.7000 C   0  0  0  0  0  0  0  0  0  0  0  0
  189.3620  177.8200  139.4010 N   0  0  0  0  0  2  0  0  0  0  0  0
  187.8240  178.2420  148.9000 F   0  0  0  0  0  0  0  0  0  0  0  0
  186.8130  178.0090  146.6800 C   0  0  0  0  0  3  0  0  0  0  0  0
  189.9340  177.4240  143.0150 C   0  0  0  0  0  0  0  0  0  0  0  0
  187.0690  178.2960  138.9270 C   0  0  0  0  0  3  0  0  0  0  0  0
  187.7990  177.9820  141.2100 C   0  0  0  0  0  0  0  0  0  0  0  0
  185.3600  178.4970  140.7570 C   0  0  0  0  0  2  0  0  0  0  0  0
  184.3460  178.4130  139.6910 N   0  0  0  0  0  0  0  0  0  0  0  0
  181.9390  178.5340  139.8900 C   0  0  1  0  0  3  0  0  0  0  0  0
  183.9130  179.7490  139.2930 C   0  0  0  0  0  2  0  0  0  0  0  0
  183.0530  176.3720  139.3920 C   0  0  0  0  0  1  0  0  0  0  0  0
  183.1660  177.6800  140.1500 C   0  0  1  0  0  3  0  0  0  0  0  0
  181.4250  179.0340  141.1540 N   0  0  0  0  0  1  0  0  0  0  0  0
  182.4250  179.6890  139.0510 C   0  0  0  0  0  2  0  0  0  0  0  0
  1 21  1  0  0  0  0
  1 20  2  0  0  0  0
  2 17  2  0  0  0  0
  3 14  1  0  0  0  0
  4  9  1  1  0  0  0
  5  7  1  0  0  0  0
  6 16  1  0  0  0  0
  7  2  1  6  0  0  0
  7  4  1  0  0  0  0
  8 12  2  0  0  0  0
  9  6  2  0  0  0  0
 10 20  1  0  0  0  0
 10 14  2  0  0  0  0
 11  5  1  0  0  0  0
 12  4  1  0  0  0  0
 13 19  2  0  0  0  0
 13 15  1  0  0  0  0
 14 18  1  0  0  0  0
 15 10  1  0  0  0  0
 17  6  1  0  0  0  0
 18  5  2  0  0  0  0
 18  8  1  0  0  0  0
 19  1  1  0  0  0  0
 20 11  1  0  0  0  0
 22 26  1  0  0  0  0
 22 21  1  0  0  0  0
 23 26  1  0  0  0  0
 23 27  1  1  0  0  0
 24 22  1  0  0  0  0
 26 25  1  6  0  0  0
 28 24  1  0  0  0  0
 28 23  1  0  0  0  0
M  END
>  <MODEL>
9

>  <REMARK>
 VINA RESULT:      -8.8      3.015      6.177
  Name = 
  2 active torsions:
  status: ('A' for Active; 'I' for Inactive)
    1  A    between atoms: C_1  and  C_2
    2  A    between atoms: C_2  and  N_3
                            x       y       z     vdW  Elec       q    Type
                         _______ _______ _______ _____ _____    ______ ____

>  <TORSDO>
F 2

$$$$
