=
 OpenBabel10222418443D

 41 46  0  0  1  0  0  0  0  0999 V2000
  188.6600  176.9930  140.5790 C   0  0  2  0  0  3  0  0  0  0  0  0
  186.0940  179.0650  142.3640 C   0  0  0  0  0  3  0  0  0  0  0  0
  187.9140  177.4520  141.7930 C   0  0  0  0  0  0  0  0  0  0  0  0
  184.7390  178.5630  146.1250 C   0  0  0  0  0  3  0  0  0  0  0  0
  185.9130  177.9990  145.8500 C   0  0  0  0  0  3  0  0  0  0  0  0
  187.4620  177.0880  144.2540 C   0  0  0  0  0  3  0  0  0  0  0  0
  186.3250  177.7520  144.4600 C   0  0  0  0  0  0  0  0  0  0  0  0
  184.1150  178.7570  143.7660 C   0  0  0  0  0  3  0  0  0  0  0  0
  185.4140  178.1390  143.3160 C   0  0  1  0  0  3  0  0  0  0  0  0
  188.0560  176.7670  142.9410 C   0  0  0  0  0  3  0  0  0  0  0  0
  183.8100  178.9520  145.0520 C   0  0  0  0  0  3  0  0  0  0  0  0
  187.1810  178.7290  141.6730 C   0  0  0  0  0  3  0  0  0  0  0  0
  189.9390  176.4980  140.9540 O   0  0  0  0  0  0  0  0  0  0  0  0
  191.1270  177.0500  140.4710 C   0  0  0  0  0  0  0  0  0  0  0  0
  191.5420  176.7810  139.3120 O   0  0  0  0  0  0  0  0  0  0  0  0
  191.9370  177.9340  141.3550 C   0  0  0  0  0  2  0  0  0  0  0  0
  191.5900  177.6950  142.7850 C   0  0  0  0  0  0  0  0  0  0  0  0
  190.6710  178.5060  144.9520 C   0  0  0  0  0  2  0  0  0  0  0  0
  191.7770  176.3570  143.3640 C   0  0  0  0  0  3  0  0  0  0  0  0
  191.5450  176.1440  144.6570 C   0  0  0  0  0  3  0  0  0  0  0  0
  191.0970  177.2160  145.5050 N   0  0  0  0  0  0  0  0  0  0  0  0
  191.1010  178.6960  143.5220 C   0  0  0  0  0  3  0  0  0  0  0  0
  189.4700  176.7840  147.2900 C   0  0  0  0  0  1  0  0  0  0  0  0
  190.9300  177.0060  146.9390 C   0  0  0  0  0  3  0  0  0  0  0  0
  191.7700  175.8350  147.4130 C   0  0  0  0  0  1  0  0  0  0  0  0
  188.8360  178.3340  139.3470 S   0  0  0  0  0  0  0  0  0  0  0  0
  188.7220  175.7240  136.2090 C   0  0  0  0  0  3  0  0  0  0  0  0
  182.4040  178.1580  137.2720 C   0  0  0  0  0  0  0  0  0  0  0  0
  182.1040  177.4710  135.9840 C   0  0  0  0  0  3  0  0  0  0  0  0
  183.4690  176.9030  135.5290 C   0  0  0  0  0  3  0  0  0  0  0  0
  184.4590  178.4620  138.6350 C   0  0  0  0  0  3  0  0  0  0  0  0
  185.9060  178.1880  138.7250 C   0  0  0  0  0  3  0  0  0  0  0  0
  183.8030  178.0290  137.5670 C   0  0  0  0  0  0  0  0  0  0  0  0
  188.0700  177.3790  138.0220 C   0  0  0  0  0  0  0  0  0  0  0  0
  184.4420  177.3040  136.5450 N   0  0  0  0  0  0  0  0  0  0  0  0
  188.9280  176.6190  137.3440 C   0  0  0  0  0  3  0  0  0  0  0  0
  186.5990  177.4830  137.8020 C   0  0  0  0  0  0  0  0  0  0  0  0
  181.5560  178.7470  137.9930 O   0  0  0  0  0  0  0  0  0  0  0  0
  186.2980  176.1140  135.6930 C   0  0  0  0  0  3  0  0  0  0  0  0
  185.8310  176.9400  136.6300 C   0  0  0  0  0  0  0  0  0  0  0  0
  187.6170  175.5150  135.5130 C   0  0  0  0  0  3  0  0  0  0  0  0
  1 26  1  6  0  0  0
  1 13  1  0  0  0  0
  1  3  1  0  0  0  0
  3 10  2  0  0  0  0
  5  4  2  0  0  0  0
  6  7  2  0  0  0  0
  7  5  1  0  0  0  0
  8 11  2  0  0  0  0
  9  2  1  6  0  0  0
  9  8  1  0  0  0  0
  9  7  1  0  0  0  0
 10  6  1  0  0  0  0
 11  4  1  0  0  0  0
 12  3  1  0  0  0  0
 12  2  2  0  0  0  0
 14 13  1  0  0  0  0
 14 16  1  0  0  0  0
 15 14  2  0  0  0  0
 16 17  1  0  0  0  0
 17 19  1  0  0  0  0
 17 22  2  0  0  0  0
 18 21  1  0  0  0  0
 19 20  2  0  0  0  0
 20 21  1  0  0  0  0
 21 24  1  0  0  0  0
 22 18  1  0  0  0  0
 24 23  1  0  0  0  0
 24 25  1  0  0  0  0
 27 36  1  0  0  0  0
 28 33  1  0  0  0  0
 28 38  2  0  0  0  0
 29 28  1  0  0  0  0
 30 29  2  0  0  0  0
 30 35  1  0  0  0  0
 31 32  1  0  0  0  0
 33 31  2  0  0  0  0
 34 26  1  0  0  0  0
 35 40  1  0  0  0  0
 35 33  1  0  0  0  0
 36 34  2  0  0  0  0
 37 34  1  0  0  0  0
 37 32  2  0  0  0  0
 39 40  2  0  0  0  0
 40 37  1  0  0  0  0
 41 39  1  0  0  0  0
 41 27  2  0  0  0  0
M  END
>  <MODEL>
1

>  <REMARK>
 VINA RESULT:      -9.9      0.000      0.000
  Name = 
  8 active torsions:
  status: ('A' for Active; 'I' for Inactive)
    1  A    between atoms: C_1  and  C_9
    2  A    between atoms: C_1  and  O_18
    3  A    between atoms: C_3  and  C_9
    4  A    between atoms: C_4  and  C_19
    5  A    between atoms: O_18  and  C_19
    6  A    between atoms: C_19  and  S_33
    7  A    between atoms: C_21  and  S_33
    8  A    between atoms: C_22  and  N_38
                            x       y       z     vdW  Elec       q    Type
                         _______ _______ _______ _____ _____    ______ ____

>  <TORSDO>
F 8

$$$$
=
 OpenBabel10222418443D

 41 46  0  0  1  0  0  0  0  0999 V2000
  188.8460  177.5020  140.8790 C   0  0  2  0  0  3  0  0  0  0  0  0
  186.8980  177.0230  144.0480 C   0  0  0  0  0  3  0  0  0  0  0  0
  187.6450  177.6780  141.7560 C   0  0  0  0  0  0  0  0  0  0  0  0
  183.5450  178.9570  145.1670 C   0  0  0  0  0  3  0  0  0  0  0  0
  183.8210  178.9770  143.8640 C   0  0  0  0  0  2  0  0  0  0  0  0
  185.4130  178.8230  142.0710 C   0  0  0  0  0  3  0  0  0  0  0  0
  185.1760  178.6820  143.3750 C   0  0  0  0  0  0  0  0  0  0  0  0
  185.8390  178.3700  145.7910 C   0  0  0  0  0  3  0  0  0  0  0  0
  186.2820  178.3480  144.3510 C   0  0  0  0  0  0  0  0  0  0  0  0
  186.6930  178.5500  141.3860 C   0  0  0  0  0  3  0  0  0  0  0  0
  184.5850  178.6470  146.1610 C   0  0  0  0  0  3  0  0  0  0  0  0
  187.5280  176.7580  142.9050 C   0  0  0  0  0  3  0  0  0  0  0  0
  190.0190  177.9010  141.5780 O   0  0  0  0  0  0  0  0  0  0  0  0
  190.9200  176.9810  142.1150 C   0  0  0  0  0  0  0  0  0  0  0  0
  190.9020  175.7720  141.7580 O   0  0  0  0  0  0  0  0  0  0  0  0
  191.8870  177.4250  143.1580 C   0  0  0  0  0  2  0  0  0  0  0  0
  191.2310  177.4440  144.4970 C   0  0  0  0  0  0  0  0  0  0  0  0
  191.0410  176.5830  146.8250 C   0  0  0  0  0  2  0  0  0  0  0  0
  190.1750  178.4280  144.7740 C   0  0  0  0  0  3  0  0  0  0  0  0
  189.5250  178.4100  145.9350 C   0  0  0  0  0  3  0  0  0  0  0  0
  189.8540  177.4360  146.9410 N   0  0  0  0  0  0  0  0  0  0  0  0
  191.6180  176.5750  145.4340 C   0  0  0  0  0  3  0  0  0  0  0  0
  188.4480  178.6960  148.5090 C   0  0  0  0  0  1  0  0  0  0  0  0
  189.0830  177.3570  148.1770 C   0  0  0  0  0  3  0  0  0  0  0  0
  188.0180  176.2810  148.0790 C   0  0  0  0  0  1  0  0  0  0  0  0
  188.6860  178.4420  139.3190 S   0  0  0  0  0  0  0  0  0  0  0  0
  187.1940  175.4210  137.0120 C   0  0  0  0  0  3  0  0  0  0  0  0
  193.9920  174.6790  137.4760 C   0  0  0  0  0  0  0  0  0  0  0  0
  193.7240  173.3650  136.8240 C   0  0  0  0  0  3  0  0  0  0  0  0
  192.1830  173.3090  136.7000 C   0  0  0  0  0  3  0  0  0  0  0  0
  192.5550  176.5510  138.2520 C   0  0  0  0  0  3  0  0  0  0  0  0
  191.1690  177.0390  138.3940 C   0  0  0  0  0  3  0  0  0  0  0  0
  192.7480  175.3490  137.7280 C   0  0  0  0  0  0  0  0  0  0  0  0
  188.7580  176.9670  138.2830 C   0  0  0  0  0  0  0  0  0  0  0  0
  191.6770  174.5500  137.2870 N   0  0  0  0  0  0  0  0  0  0  0  0
  187.5690  176.5590  137.8470 C   0  0  0  0  0  3  0  0  0  0  0  0
  190.0820  176.3500  137.9810 C   0  0  0  0  0  0  0  0  0  0  0  0
  195.1340  175.1320  137.7480 O   0  0  0  0  0  0  0  0  0  0  0  0
  189.3970  174.2540  136.7350 C   0  0  0  0  0  3  0  0  0  0  0  0
  190.3170  175.0170  137.3270 C   0  0  0  0  0  0  0  0  0  0  0  0
  187.9630  174.4500  136.5490 C   0  0  0  0  0  3  0  0  0  0  0  0
  1 26  1  6  0  0  0
  1 13  1  0  0  0  0
  1  3  1  0  0  0  0
  2  9  1  0  0  0  0
  3 12  1  0  0  0  0
  4 11  2  0  0  0  0
  5  4  1  0  0  0  0
  6  7  2  0  0  0  0
  7  5  1  0  0  0  0
  7  9  1  0  0  0  0
  8 11  1  0  0  0  0
  9  8  2  0  0  0  0
 10  3  2  0  0  0  0
 10  6  1  0  0  0  0
 12  2  2  0  0  0  0
 13 14  1  0  0  0  0
 14 16  1  0  0  0  0
 15 14  2  0  0  0  0
 16 17  1  0  0  0  0
 17 19  1  0  0  0  0
 17 22  2  0  0  0  0
 18 21  1  0  0  0  0
 19 20  2  0  0  0  0
 20 21  1  0  0  0  0
 21 24  1  0  0  0  0
 22 18  1  0  0  0  0
 24 23  1  0  0  0  0
 25 24  1  0  0  0  0
 27 36  1  0  0  0  0
 28 33  1  0  0  0  0
 28 38  2  0  0  0  0
 29 28  1  0  0  0  0
 30 29  2  0  0  0  0
 30 35  1  0  0  0  0
 31 32  1  0  0  0  0
 33 31  2  0  0  0  0
 34 26  1  0  0  0  0
 35 40  1  0  0  0  0
 35 33  1  0  0  0  0
 36 34  2  0  0  0  0
 37 34  1  0  0  0  0
 37 32  2  0  0  0  0
 39 40  2  0  0  0  0
 40 37  1  0  0  0  0
 41 39  1  0  0  0  0
 41 27  2  0  0  0  0
M  END
>  <MODEL>
2

>  <REMARK>
 VINA RESULT:      -9.8      2.727      5.028
  Name = 
  8 active torsions:
  status: ('A' for Active; 'I' for Inactive)
    1  A    between atoms: C_1  and  C_9
    2  A    between atoms: C_1  and  O_18
    3  A    between atoms: C_3  and  C_9
    4  A    between atoms: C_4  and  C_19
    5  A    between atoms: O_18  and  C_19
    6  A    between atoms: C_19  and  S_33
    7  A    between atoms: C_21  and  S_33
    8  A    between atoms: C_22  and  N_38
                            x       y       z     vdW  Elec       q    Type
                         _______ _______ _______ _____ _____    ______ ____

>  <TORSDO>
F 8

$$$$
=
 OpenBabel10222418443D

 41 46  0  0  1  0  0  0  0  0999 V2000
  188.3790  177.7620  139.8710 C   0  0  2  0  0  3  0  0  0  0  0  0
  185.6120  179.3320  141.8590 C   0  0  0  0  0  3  0  0  0  0  0  0
  187.6390  178.0620  141.1380 C   0  0  0  0  0  0  0  0  0  0  0  0
  184.5860  178.5270  145.6710 C   0  0  0  0  0  3  0  0  0  0  0  0
  185.8200  178.1750  145.3140 C   0  0  0  0  0  3  0  0  0  0  0  0
  187.4010  177.5730  143.6080 C   0  0  0  0  0  3  0  0  0  0  0  0
  186.1830  178.0320  143.8960 C   0  0  0  0  0  0  0  0  0  0  0  0
  183.7990  178.6640  143.3560 C   0  0  0  0  0  3  0  0  0  0  0  0
  185.1540  178.2840  142.8170 C   0  0  1  0  0  3  0  0  0  0  0  0
  187.9610  177.3860  142.2540 C   0  0  0  0  0  3  0  0  0  0  0  0
  183.5440  178.7760  144.6620 C   0  0  0  0  0  3  0  0  0  0  0  0
  186.6980  179.1990  141.0990 C   0  0  0  0  0  3  0  0  0  0  0  0
  189.7570  178.0740  140.0280 O   0  0  0  0  0  0  0  0  0  0  0  0
  190.7250  177.0940  140.2530 C   0  0  0  0  0  0  0  0  0  0  0  0
  190.5810  175.9250  139.8040 O   0  0  0  0  0  0  0  0  0  0  0  0
  191.9250  177.4240  141.0730 C   0  0  0  0  0  2  0  0  0  0  0  0
  191.5990  177.3390  142.5240 C   0  0  0  0  0  0  0  0  0  0  0  0
  190.8620  178.4180  144.6430 C   0  0  0  0  0  2  0  0  0  0  0  0
  191.6380  176.0340  143.2020 C   0  0  0  0  0  3  0  0  0  0  0  0
  191.4260  175.9500  144.5130 C   0  0  0  0  0  3  0  0  0  0  0  0
  191.1430  177.1300  145.2850 N   0  0  0  0  0  0  0  0  0  0  0  0
  191.2630  178.4450  143.1920 C   0  0  0  0  0  3  0  0  0  0  0  0
  189.5430  176.8900  147.1300 C   0  0  0  0  0  1  0  0  0  0  0  0
  191.0000  177.0510  146.7350 C   0  0  0  0  0  3  0  0  0  0  0  0
  191.8270  175.9100  147.2960 C   0  0  0  0  0  1  0  0  0  0  0  0
  187.6790  178.6760  138.4490 S   0  0  0  0  0  0  0  0  0  0  0  0
  184.1610  176.6720  137.9200 C   0  0  0  0  0  3  0  0  0  0  0  0
  189.2990  172.7070  135.7190 C   0  0  0  0  0  0  0  0  0  0  0  0
  188.2370  171.6650  135.6350 C   0  0  0  0  0  3  0  0  0  0  0  0
  186.9710  172.3680  136.1800 C   0  0  0  0  0  3  0  0  0  0  0  0
  189.3450  175.0780  136.4580 C   0  0  0  0  0  3  0  0  0  0  0  0
  188.5520  176.1910  137.0170 C   0  0  0  0  0  3  0  0  0  0  0  0
  188.7430  173.9130  136.2630 C   0  0  0  0  0  0  0  0  0  0  0  0
  186.6200  177.3080  137.9380 C   0  0  0  0  0  0  0  0  0  0  0  0
  187.3790  173.7240  136.5490 N   0  0  0  0  0  0  0  0  0  0  0  0
  185.3250  177.5180  138.1670 C   0  0  0  0  0  3  0  0  0  0  0  0
  187.2330  176.1070  137.3020 C   0  0  0  0  0  0  0  0  0  0  0  0
  190.4950  172.5530  135.3540 O   0  0  0  0  0  0  0  0  0  0  0  0
  185.2370  174.5610  137.0970 C   0  0  0  0  0  3  0  0  0  0  0  0
  186.5460  174.8010  137.0150 C   0  0  0  0  0  0  0  0  0  0  0  0
  184.1250  175.4280  137.4740 C   0  0  0  0  0  3  0  0  0  0  0  0
  1 26  1  6  0  0  0
  1 13  1  0  0  0  0
  1  3  1  0  0  0  0
  3 10  2  0  0  0  0
  5  4  2  0  0  0  0
  6  7  2  0  0  0  0
  7  5  1  0  0  0  0
  8 11  2  0  0  0  0
  9  2  1  6  0  0  0
  9  8  1  0  0  0  0
  9  7  1  0  0  0  0
 10  6  1  0  0  0  0
 11  4  1  0  0  0  0
 12  3  1  0  0  0  0
 12  2  2  0  0  0  0
 13 14  1  0  0  0  0
 14 16  1  0  0  0  0
 15 14  2  0  0  0  0
 16 17  1  0  0  0  0
 17 22  2  0  0  0  0
 17 19  1  0  0  0  0
 18 21  1  0  0  0  0
 19 20  2  0  0  0  0
 20 21  1  0  0  0  0
 21 24  1  0  0  0  0
 22 18  1  0  0  0  0
 24 23  1  0  0  0  0
 24 25  1  0  0  0  0
 27 36  1  0  0  0  0
 28 33  1  0  0  0  0
 29 28  1  0  0  0  0
 29 30  2  0  0  0  0
 30 35  1  0  0  0  0
 31 32  1  0  0  0  0
 32 37  2  0  0  0  0
 33 31  2  0  0  0  0
 33 35  1  0  0  0  0
 34 36  2  0  0  0  0
 34 26  1  0  0  0  0
 35 40  1  0  0  0  0
 37 34  1  0  0  0  0
 38 28  2  0  0  0  0
 39 41  1  0  0  0  0
 40 39  2  0  0  0  0
 40 37  1  0  0  0  0
 41 27  2  0  0  0  0
M  END
>  <MODEL>
3

>  <REMARK>
 VINA RESULT:      -9.3      1.885      3.542
  Name = 
  8 active torsions:
  status: ('A' for Active; 'I' for Inactive)
    1  A    between atoms: C_1  and  C_9
    2  A    between atoms: C_1  and  O_18
    3  A    between atoms: C_3  and  C_9
    4  A    between atoms: C_4  and  C_19
    5  A    between atoms: O_18  and  C_19
    6  A    between atoms: C_19  and  S_33
    7  A    between atoms: C_21  and  S_33
    8  A    between atoms: C_22  and  N_38
                            x       y       z     vdW  Elec       q    Type
                         _______ _______ _______ _____ _____    ______ ____

>  <TORSDO>
F 8

$$$$
=
 OpenBabel10222418443D

 41 46  0  0  1  0  0  0  0  0999 V2000
  183.4440  178.2830  140.9450 C   0  0  2  0  0  3  0  0  0  0  0  0
  181.9620  175.5940  138.7910 C   0  0  0  0  0  3  0  0  0  0  0  0
  183.3190  177.4950  139.6780 C   0  0  0  0  0  0  0  0  0  0  0  0
  182.4040  175.1330  134.8130 C   0  0  0  0  0  3  0  0  0  0  0  0
  183.3270  175.8790  135.4180 C   0  0  0  0  0  3  0  0  0  0  0  0
  183.9970  177.2810  137.2510 C   0  0  0  0  0  3  0  0  0  0  0  0
  183.0770  176.4580  136.7470 C   0  0  0  0  0  0  0  0  0  0  0  0
  180.8030  175.3650  136.6510 C   0  0  0  0  0  3  0  0  0  0  0  0
  181.7600  176.2130  137.4490 C   0  0  0  0  0  0  0  0  0  0  0  0
  183.9430  177.9370  138.5730 C   0  0  0  0  0  3  0  0  0  0  0  0
  181.1020  174.8710  135.4460 C   0  0  0  0  0  3  0  0  0  0  0  0
  182.6270  176.1940  139.7770 C   0  0  0  0  0  2  0  0  0  0  0  0
  182.4850  179.3330  140.9600 O   0  0  0  0  0  0  0  0  0  0  0  0
  181.1290  179.1040  141.1980 C   0  0  0  0  0  0  0  0  0  0  0  0
  180.6720  179.0850  142.3730 O   0  0  0  0  0  0  0  0  0  0  0  0
  180.2180  178.8360  140.0510 C   0  0  0  0  0  2  0  0  0  0  0  0
  180.2140  179.9940  139.1120 C   0  0  0  0  0  0  0  0  0  0  0  0
  180.7050  180.9630  136.8720 C   0  0  0  0  0  2  0  0  0  0  0  0
  179.6270  181.2730  139.5380 C   0  0  0  0  0  3  0  0  0  0  0  0
  179.6850  182.3380  138.7420 C   0  0  0  0  0  3  0  0  0  0  0  0
  180.3110  182.2530  137.4500 N   0  0  0  0  0  0  0  0  0  0  0  0
  180.7340  179.8540  137.8890 C   0  0  0  0  0  3  0  0  0  0  0  0
  181.5280  184.3640  137.1630 C   0  0  0  0  0  1  0  0  0  0  0  0
  180.4550  183.4400  136.6160 C   0  0  0  0  0  3  0  0  0  0  0  0
  180.7720  183.0560  135.1830 C   0  0  0  0  0  1  0  0  0  0  0  0
  185.1300  178.9600  141.1550 S   0  0  0  0  0  0  0  0  0  0  0  0
  183.6120  178.8680  144.9440 C   0  0  0  0  0  3  0  0  0  0  0  0
  190.1630  176.8620  145.1520 C   0  0  0  0  0  0  0  0  0  0  0  0
  189.9710  176.9610  146.6260 C   0  0  0  0  0  3  0  0  0  0  0  0
  188.5260  177.4910  146.7880 C   0  0  0  0  0  3  0  0  0  0  0  0
  188.7150  177.3150  143.1840 C   0  0  0  0  0  3  0  0  0  0  0  0
  187.3890  177.7830  142.7340 C   0  0  0  0  0  3  0  0  0  0  0  0
  188.9660  177.2910  144.4850 C   0  0  0  0  0  0  0  0  0  0  0  0
  185.1540  178.6730  142.9350 C   0  0  0  0  0  0  0  0  0  0  0  0
  188.0010  177.6740  145.4350 N   0  0  0  0  0  0  0  0  0  0  0  0
  184.0000  178.9490  143.5390 C   0  0  0  0  0  3  0  0  0  0  0  0
  186.3960  178.1500  143.5740 C   0  0  0  0  0  0  0  0  0  0  0  0
  191.2080  176.4520  144.5830 O   0  0  0  0  0  0  0  0  0  0  0  0
  185.7840  178.2400  146.0300 C   0  0  0  0  0  3  0  0  0  0  0  0
  186.6690  178.0560  145.0490 C   0  0  0  0  0  0  0  0  0  0  0  0
  184.3640  178.5740  145.9920 C   0  0  0  0  0  3  0  0  0  0  0  0
  1 13  1  6  0  0  0
  1 26  1  0  0  0  0
  2 12  1  0  0  0  0
  3 12  1  0  0  0  0
  3  1  1  0  0  0  0
  4  5  2  0  0  0  0
  4 11  1  0  0  0  0
  5  7  1  0  0  0  0
  6 10  1  0  0  0  0
  7  6  2  0  0  0  0
  7  9  1  0  0  0  0
  8  9  1  0  0  0  0
  9  2  2  0  0  0  0
 10  3  2  0  0  0  0
 11  8  2  0  0  0  0
 13 14  1  0  0  0  0
 14 15  2  0  0  0  0
 16 14  1  0  0  0  0
 17 19  1  0  0  0  0
 17 16  1  0  0  0  0
 18 21  1  0  0  0  0
 18 22  1  0  0  0  0
 20 19  2  0  0  0  0
 21 20  1  0  0  0  0
 22 17  2  0  0  0  0
 24 23  1  0  0  0  0
 24 21  1  0  0  0  0
 25 24  1  0  0  0  0
 26 34  1  0  0  0  0
 27 41  2  0  0  0  0
 28 29  1  0  0  0  0
 29 30  2  0  0  0  0
 31 33  2  0  0  0  0
 32 31  1  0  0  0  0
 32 37  2  0  0  0  0
 33 28  1  0  0  0  0
 33 35  1  0  0  0  0
 34 36  2  0  0  0  0
 34 37  1  0  0  0  0
 35 30  1  0  0  0  0
 36 27  1  0  0  0  0
 37 40  1  0  0  0  0
 38 28  2  0  0  0  0
 40 35  1  0  0  0  0
 40 39  2  0  0  0  0
 41 39  1  0  0  0  0
M  END
>  <MODEL>
4

>  <REMARK>
 VINA RESULT:      -8.8      3.089     10.493
  Name = 
  8 active torsions:
  status: ('A' for Active; 'I' for Inactive)
    1  A    between atoms: C_1  and  C_9
    2  A    between atoms: C_1  and  O_18
    3  A    between atoms: C_3  and  C_9
    4  A    between atoms: C_4  and  C_19
    5  A    between atoms: O_18  and  C_19
    6  A    between atoms: C_19  and  S_33
    7  A    between atoms: C_21  and  S_33
    8  A    between atoms: C_22  and  N_38
                            x       y       z     vdW  Elec       q    Type
                         _______ _______ _______ _____ _____    ______ ____

>  <TORSDO>
F 8

$$$$
=
 OpenBabel10222418443D

 41 46  0  0  1  0  0  0  0  0999 V2000
  188.0630  177.5820  139.1540 C   0  0  2  0  0  3  0  0  0  0  0  0
  191.3350  176.5960  137.6090 C   0  0  0  0  0  3  0  0  0  0  0  0
  188.9420  176.7040  138.3190 C   0  0  0  0  0  0  0  0  0  0  0  0
  192.2490  173.0820  135.8610 C   0  0  0  0  0  3  0  0  0  0  0  0
  190.9500  173.3640  135.9580 C   0  0  0  0  0  3  0  0  0  0  0  0
  189.1490  174.5360  137.0340 C   0  0  0  0  0  3  0  0  0  0  0  0
  190.4670  174.3780  136.9080 C   0  0  0  0  0  0  0  0  0  0  0  0
  192.8760  174.6990  137.5900 C   0  0  0  0  0  3  0  0  0  0  0  0
  191.4440  175.1200  137.7930 C   0  0  0  0  0  0  0  0  0  0  0  0
  188.4710  175.5140  137.9080 C   0  0  0  0  0  3  0  0  0  0  0  0
  193.2410  173.7680  136.7040 C   0  0  0  0  0  3  0  0  0  0  0  0
  190.2280  177.2840  137.8810 C   0  0  0  0  0  2  0  0  0  0  0  0
  187.3760  178.5100  138.3240 O   0  0  0  0  0  0  0  0  0  0  0  0
  186.6090  178.1100  137.2280 C   0  0  0  0  0  0  0  0  0  0  0  0
  186.8080  178.6010  136.0840 O   0  0  0  0  0  0  0  0  0  0  0  0
  185.5110  177.1210  137.4230 C   0  0  0  0  0  2  0  0  0  0  0  0
  184.3900  177.7380  138.1870 C   0  0  0  0  0  0  0  0  0  0  0  0
  183.1870  179.7550  139.0120 C   0  0  0  0  0  2  0  0  0  0  0  0
  183.3590  176.8770  138.7850 C   0  0  0  0  0  3  0  0  0  0  0  0
  182.3940  177.4040  139.5350 C   0  0  0  0  0  3  0  0  0  0  0  0
  182.3360  178.8230  139.7610 N   0  0  0  0  0  0  0  0  0  0  0  0
  184.3260  179.0660  138.3090 C   0  0  0  0  0  3  0  0  0  0  0  0
  179.9350  179.2090  140.0920 C   0  0  0  0  0  1  0  0  0  0  0  0
  181.3340  179.3910  140.6550 C   0  0  0  0  0  3  0  0  0  0  0  0
  181.4290  178.7700  142.0360 C   0  0  0  0  0  1  0  0  0  0  0  0
  189.0170  178.4660  140.4400 S   0  0  0  0  0  0  0  0  0  0  0  0
  185.2060  178.4930  141.9070 C   0  0  0  0  0  3  0  0  0  0  0  0
  189.5150  176.9580  147.0110 C   0  0  0  0  0  0  0  0  0  0  0  0
  188.3030  177.1310  147.8610 C   0  0  0  0  0  3  0  0  0  0  0  0
  187.2000  177.5680  146.8680 C   0  0  0  0  0  3  0  0  0  0  0  0
  189.9720  177.1930  144.5800 C   0  0  0  0  0  3  0  0  0  0  0  0
  189.3990  177.5420  143.2660 C   0  0  0  0  0  3  0  0  0  0  0  0
  189.1880  177.2640  145.6470 C   0  0  0  0  0  0  0  0  0  0  0  0
  187.7280  178.2860  141.6900 C   0  0  0  0  0  0  0  0  0  0  0  0
  187.8350  177.6350  145.5520 N   0  0  0  0  0  0  0  0  0  0  0  0
  186.5000  178.5170  141.2310 C   0  0  0  0  0  3  0  0  0  0  0  0
  188.1060  177.8880  143.0760 C   0  0  0  0  0  0  0  0  0  0  0  0
  190.6440  176.5880  147.4270 O   0  0  0  0  0  0  0  0  0  0  0  0
  185.8890  178.0810  144.2850 C   0  0  0  0  0  3  0  0  0  0  0  0
  187.2100  177.9010  144.2830 C   0  0  0  0  0  0  0  0  0  0  0  0
  184.9500  178.3140  143.1920 C   0  0  0  0  0  3  0  0  0  0  0  0
  1 13  1  6  0  0  0
  1 26  1  0  0  0  0
  2  9  2  0  0  0  0
  2 12  1  0  0  0  0
  3  1  1  0  0  0  0
  4  5  2  0  0  0  0
  4 11  1  0  0  0  0
  5  7  1  0  0  0  0
  6 10  1  0  0  0  0
  7  6  2  0  0  0  0
  7  9  1  0  0  0  0
  8  9  1  0  0  0  0
 10  3  2  0  0  0  0
 11  8  2  0  0  0  0
 12  3  1  0  0  0  0
 14 16  1  0  0  0  0
 14 13  1  0  0  0  0
 15 14  2  0  0  0  0
 16 17  1  0  0  0  0
 17 22  2  0  0  0  0
 17 19  1  0  0  0  0
 18 21  1  0  0  0  0
 19 20  2  0  0  0  0
 20 21  1  0  0  0  0
 21 24  1  0  0  0  0
 22 18  1  0  0  0  0
 23 24  1  0  0  0  0
 24 25  1  0  0  0  0
 26 34  1  0  0  0  0
 27 41  2  0  0  0  0
 28 38  2  0  0  0  0
 28 29  1  0  0  0  0
 30 29  2  0  0  0  0
 31 33  2  0  0  0  0
 32 31  1  0  0  0  0
 33 28  1  0  0  0  0
 34 37  1  0  0  0  0
 35 33  1  0  0  0  0
 35 30  1  0  0  0  0
 36 34  2  0  0  0  0
 36 27  1  0  0  0  0
 37 32  2  0  0  0  0
 37 40  1  0  0  0  0
 40 39  2  0  0  0  0
 40 35  1  0  0  0  0
 41 39  1  0  0  0  0
M  END
>  <MODEL>
5

>  <REMARK>
 VINA RESULT:      -8.3      2.672      9.107
  Name = 
  8 active torsions:
  status: ('A' for Active; 'I' for Inactive)
    1  A    between atoms: C_1  and  C_9
    2  A    between atoms: C_1  and  O_18
    3  A    between atoms: C_3  and  C_9
    4  A    between atoms: C_4  and  C_19
    5  A    between atoms: O_18  and  C_19
    6  A    between atoms: C_19  and  S_33
    7  A    between atoms: C_21  and  S_33
    8  A    between atoms: C_22  and  N_38
                            x       y       z     vdW  Elec       q    Type
                         _______ _______ _______ _____ _____    ______ ____

>  <TORSDO>
F 8

$$$$
=
 OpenBabel10222418443D

 41 46  0  0  1  0  0  0  0  0999 V2000
  185.8770  177.8800  138.3380 C   0  0  2  0  0  3  0  0  0  0  0  0
  182.4080  178.8160  139.4140 C   0  0  0  0  0  3  0  0  0  0  0  0
  184.8470  178.2810  139.3490 C   0  0  0  0  0  0  0  0  0  0  0  0
  180.9970  179.0330  143.1820 C   0  0  0  0  0  3  0  0  0  0  0  0
  182.3210  179.0940  143.0520 C   0  0  0  0  0  3  0  0  0  0  0  0
  184.3140  178.6150  141.7980 C   0  0  0  0  0  3  0  0  0  0  0  0
  182.9810  178.6280  141.8230 C   0  0  0  0  0  0  0  0  0  0  0  0
  180.6800  178.0480  140.9620 C   0  0  0  0  0  3  0  0  0  0  0  0
  182.1600  178.0700  140.6820 C   0  0  1  0  0  3  0  0  0  0  0  0
  185.1570  178.2120  140.6540 C   0  0  0  0  0  3  0  0  0  0  0  0
  180.1510  178.4910  142.1060 C   0  0  0  0  0  3  0  0  0  0  0  0
  183.6000  178.8680  138.8210 C   0  0  0  0  0  3  0  0  0  0  0  0
  186.8690  178.8930  138.2290 O   0  0  0  0  0  0  0  0  0  0  0  0
  188.2340  178.6020  138.1910 C   0  0  0  0  0  0  0  0  0  0  0  0
  189.0550  179.4090  137.6760 O   0  0  0  0  0  0  0  0  0  0  0  0
  188.7220  177.3010  138.7280 C   0  0  0  0  0  2  0  0  0  0  0  0
  189.3600  177.4980  140.0600 C   0  0  0  0  0  0  0  0  0  0  0  0
  191.3800  177.4790  141.5150 C   0  0  0  0  0  2  0  0  0  0  0  0
  188.5520  177.9850  141.1880 C   0  0  0  0  0  3  0  0  0  0  0  0
  189.0850  178.0920  142.4020 C   0  0  0  0  0  3  0  0  0  0  0  0
  190.4630  177.7460  142.6290 N   0  0  0  0  0  0  0  0  0  0  0  0
  190.6620  177.2410  140.2140 C   0  0  0  0  0  3  0  0  0  0  0  0
  189.9840  178.2200  144.9880 C   0  0  0  0  0  1  0  0  0  0  0  0
  191.0240  177.7770  143.9750 C   0  0  0  0  0  3  0  0  0  0  0  0
  191.5850  176.4200  144.3550 C   0  0  0  0  0  1  0  0  0  0  0  0
  185.1260  177.5500  136.7040 S   0  0  0  0  0  0  0  0  0  0  0  0
  186.8680  173.8650  136.9540 C   0  0  0  0  0  3  0  0  0  0  0  0
  180.0810  173.1330  137.5680 C   0  0  0  0  0  0  0  0  0  0  0  0
  180.3970  171.6810  137.4520 C   0  0  0  0  0  3  0  0  0  0  0  0
  181.9260  171.6400  137.2230 C   0  0  0  0  0  3  0  0  0  0  0  0
  181.4420  175.2100  137.5000 C   0  0  0  0  0  3  0  0  0  0  0  0
  182.7980  175.7680  137.3310 C   0  0  0  0  0  3  0  0  0  0  0  0
  181.2880  173.8960  137.4200 C   0  0  0  0  0  0  0  0  0  0  0  0
  185.1750  175.7580  136.9090 C   0  0  0  0  0  0  0  0  0  0  0  0
  182.3770  173.0320  137.2050 N   0  0  0  0  0  0  0  0  0  0  0  0
  186.4020  175.2450  136.8510 C   0  0  0  0  0  3  0  0  0  0  0  0
  183.9040  175.0140  137.1420 C   0  0  0  0  0  0  0  0  0  0  0  0
  178.9360  173.6100  137.7790 O   0  0  0  0  0  0  0  0  0  0  0  0
  184.7000  172.6100  137.0810 C   0  0  0  0  0  3  0  0  0  0  0  0
  183.7270  173.5220  137.1190 C   0  0  0  0  0  0  0  0  0  0  0  0
  186.1520  172.7580  137.0460 C   0  0  0  0  0  3  0  0  0  0  0  0
  1 26  1  6  0  0  0
  1  3  1  0  0  0  0
  3 10  2  0  0  0  0
  5  4  2  0  0  0  0
  6  7  2  0  0  0  0
  7  5  1  0  0  0  0
  8 11  2  0  0  0  0
  9  2  1  6  0  0  0
  9  8  1  0  0  0  0
  9  7  1  0  0  0  0
 10  6  1  0  0  0  0
 11  4  1  0  0  0  0
 12  3  1  0  0  0  0
 12  2  2  0  0  0  0
 13  1  1  0  0  0  0
 14 13  1  0  0  0  0
 14 16  1  0  0  0  0
 15 14  2  0  0  0  0
 16 17  1  0  0  0  0
 17 22  2  0  0  0  0
 17 19  1  0  0  0  0
 18 21  1  0  0  0  0
 19 20  2  0  0  0  0
 20 21  1  0  0  0  0
 21 24  1  0  0  0  0
 22 18  1  0  0  0  0
 24 25  1  0  0  0  0
 24 23  1  0  0  0  0
 26 34  1  0  0  0  0
 27 41  2  0  0  0  0
 28 38  2  0  0  0  0
 29 28  1  0  0  0  0
 30 29  2  0  0  0  0
 32 31  1  0  0  0  0
 33 31  2  0  0  0  0
 33 28  1  0  0  0  0
 34 37  1  0  0  0  0
 35 30  1  0  0  0  0
 35 33  1  0  0  0  0
 36 34  2  0  0  0  0
 36 27  1  0  0  0  0
 37 32  2  0  0  0  0
 39 40  2  0  0  0  0
 40 37  1  0  0  0  0
 40 35  1  0  0  0  0
 41 39  1  0  0  0  0
M  END
>  <MODEL>
6

>  <REMARK>
 VINA RESULT:      -8.1      3.111      4.246
  Name = 
  8 active torsions:
  status: ('A' for Active; 'I' for Inactive)
    1  A    between atoms: C_1  and  C_9
    2  A    between atoms: C_1  and  O_18
    3  A    between atoms: C_3  and  C_9
    4  A    between atoms: C_4  and  C_19
    5  A    between atoms: O_18  and  C_19
    6  A    between atoms: C_19  and  S_33
    7  A    between atoms: C_21  and  S_33
    8  A    between atoms: C_22  and  N_38
                            x       y       z     vdW  Elec       q    Type
                         _______ _______ _______ _____ _____    ______ ____

>  <TORSDO>
F 8

$$$$
=
 OpenBabel10222418443D

 41 46  0  0  1  0  0  0  0  0999 V2000
  189.5470  177.7040  140.9320 C   0  0  2  0  0  3  0  0  0  0  0  0
  190.0370  178.5540  144.5510 C   0  0  0  0  0  3  0  0  0  0  0  0
  190.1360  177.4930  142.2920 C   0  0  0  0  0  0  0  0  0  0  0  0
  191.7410  176.2570  147.3890 C   0  0  0  0  0  3  0  0  0  0  0  0
  192.0430  175.9460  146.1290 C   0  0  0  0  0  3  0  0  0  0  0  0
  191.4980  175.9780  143.7890 C   0  0  0  0  0  3  0  0  0  0  0  0
  191.2040  176.4120  145.0150 C   0  0  0  0  0  0  0  0  0  0  0  0
  189.7470  177.5270  146.7500 C   0  0  0  0  0  3  0  0  0  0  0  0
  189.9790  177.2570  145.2860 C   0  0  1  0  0  3  0  0  0  0  0  0
  190.7960  176.3510  142.5440 C   0  0  0  0  0  3  0  0  0  0  0  0
  190.5570  177.0690  147.7090 C   0  0  0  0  0  3  0  0  0  0  0  0
  190.0710  178.6380  143.2230 C   0  0  0  0  0  3  0  0  0  0  0  0
  188.1560  177.4110  140.9550 O   0  0  0  0  0  0  0  0  0  0  0  0
  187.2170  178.2790  141.5150 C   0  0  0  0  0  0  0  0  0  0  0  0
  186.9380  179.3770  140.9610 O   0  0  0  0  0  0  0  0  0  0  0  0
  186.5690  177.9230  142.8080 C   0  0  0  0  0  2  0  0  0  0  0  0
  185.1100  178.2250  142.7560 C   0  0  0  0  0  0  0  0  0  0  0  0
  183.0220  179.0030  143.8650 C   0  0  0  0  0  2  0  0  0  0  0  0
  184.3870  178.0940  141.4830 C   0  0  0  0  0  3  0  0  0  0  0  0
  183.0710  178.2850  141.4340 C   0  0  0  0  0  3  0  0  0  0  0  0
  182.3370  178.6320  142.6220 N   0  0  0  0  0  0  0  0  0  0  0  0
  184.4780  178.6230  143.8630 C   0  0  0  0  0  3  0  0  0  0  0  0
  180.2930  178.6040  143.9780 C   0  0  0  0  0  1  0  0  0  0  0  0
  180.8840  178.7530  142.5880 C   0  0  0  0  0  3  0  0  0  0  0  0
  180.4680  180.0780  141.9780 C   0  0  0  0  0  1  0  0  0  0  0  0
  190.3890  176.6860  139.6660 S   0  0  0  0  0  0  0  0  0  0  0  0
  188.4470  179.3670  137.2750 C   0  0  0  0  0  3  0  0  0  0  0  0
  186.5910  173.0310  135.4330 C   0  0  0  0  0  0  0  0  0  0  0  0
  185.5860  173.7490  134.5990 C   0  0  0  0  0  3  0  0  0  0  0  0
  185.8010  175.2420  134.9450 C   0  0  0  0  0  3  0  0  0  0  0  0
  188.3420  173.7550  137.0400 C   0  0  0  0  0  3  0  0  0  0  0  0
  188.9680  174.9090  137.7140 C   0  0  0  0  0  3  0  0  0  0  0  0
  187.3350  173.9830  136.2080 C   0  0  0  0  0  0  0  0  0  0  0  0
  189.2940  177.2200  138.3350 C   0  0  0  0  0  0  0  0  0  0  0  0
  186.8730  175.2840  135.9400 N   0  0  0  0  0  0  0  0  0  0  0  0
  189.2170  178.5420  138.2020 C   0  0  0  0  0  3  0  0  0  0  0  0
  188.6040  176.1940  137.5020 C   0  0  0  0  0  0  0  0  0  0  0  0
  186.7680  171.7840  135.4410 O   0  0  0  0  0  0  0  0  0  0  0  0
  187.0990  177.6340  136.0610 C   0  0  0  0  0  3  0  0  0  0  0  0
  187.5050  176.4450  136.5070 C   0  0  0  0  0  0  0  0  0  0  0  0
  187.5540  178.9840  136.3780 C   0  0  0  0  0  3  0  0  0  0  0  0
  1 26  1  6  0  0  0
  1 13  1  0  0  0  0
  1  3  1  0  0  0  0
  3 10  2  0  0  0  0
  3 12  1  0  0  0  0
  4 11  1  0  0  0  0
  5  4  2  0  0  0  0
  6  7  2  0  0  0  0
  7  9  1  0  0  0  0
  7  5  1  0  0  0  0
  8 11  2  0  0  0  0
  9  2  1  6  0  0  0
  9  8  1  0  0  0  0
 10  6  1  0  0  0  0
 12  2  2  0  0  0  0
 13 14  1  0  0  0  0
 14 16  1  0  0  0  0
 15 14  2  0  0  0  0
 17 16  1  0  0  0  0
 17 22  2  0  0  0  0
 19 17  1  0  0  0  0
 20 19  2  0  0  0  0
 20 21  1  0  0  0  0
 21 18  1  0  0  0  0
 22 18  1  0  0  0  0
 24 21  1  0  0  0  0
 24 23  1  0  0  0  0
 25 24  1  0  0  0  0
 27 36  1  0  0  0  0
 28 38  2  0  0  0  0
 28 33  1  0  0  0  0
 29 30  2  0  0  0  0
 29 28  1  0  0  0  0
 30 35  1  0  0  0  0
 31 32  1  0  0  0  0
 33 31  2  0  0  0  0
 34 26  1  0  0  0  0
 35 33  1  0  0  0  0
 35 40  1  0  0  0  0
 36 34  2  0  0  0  0
 37 32  2  0  0  0  0
 37 34  1  0  0  0  0
 39 41  1  0  0  0  0
 39 40  2  0  0  0  0
 40 37  1  0  0  0  0
 41 27  2  0  0  0  0
M  END
>  <MODEL>
7

>  <REMARK>
 VINA RESULT:      -8.1      2.667      6.030
  Name = 
  8 active torsions:
  status: ('A' for Active; 'I' for Inactive)
    1  A    between atoms: C_1  and  C_9
    2  A    between atoms: C_1  and  O_18
    3  A    between atoms: C_3  and  C_9
    4  A    between atoms: C_4  and  C_19
    5  A    between atoms: O_18  and  C_19
    6  A    between atoms: C_19  and  S_33
    7  A    between atoms: C_21  and  S_33
    8  A    between atoms: C_22  and  N_38
                            x       y       z     vdW  Elec       q    Type
                         _______ _______ _______ _____ _____    ______ ____

>  <TORSDO>
F 8

$$$$
=
 OpenBabel10222418443D

 41 46  0  0  1  0  0  0  0  0999 V2000
  189.6040  177.1730  139.6000 C   0  0  2  0  0  3  0  0  0  0  0  0
  187.5620  178.3060  142.5350 C   0  0  0  0  0  3  0  0  0  0  0  0
  189.3600  177.3920  141.0610 C   0  0  0  0  0  0  0  0  0  0  0  0
  188.2270  177.5030  146.4270 C   0  0  0  0  0  3  0  0  0  0  0  0
  189.2750  177.3630  145.6160 C   0  0  0  0  0  3  0  0  0  0  0  0
  190.1720  176.9800  143.4200 C   0  0  0  0  0  3  0  0  0  0  0  0
  189.0930  177.2240  144.1630 C   0  0  0  0  0  0  0  0  0  0  0  0
  186.6100  177.3900  144.5910 C   0  0  0  0  0  3  0  0  0  0  0  0
  187.7030  177.2370  143.5660 C   0  0  1  0  0  3  0  0  0  0  0  0
  190.2000  176.8360  141.9500 C   0  0  0  0  0  3  0  0  0  0  0  0
  186.8540  177.5130  145.8990 C   0  0  0  0  0  3  0  0  0  0  0  0
  188.2810  178.3370  141.4150 C   0  0  0  0  0  3  0  0  0  0  0  0
  190.9900  176.9550  139.3670 O   0  0  0  0  0  0  0  0  0  0  0  0
  191.4550  176.0280  138.4330 C   0  0  0  0  0  0  0  0  0  0  0  0
  190.9390  174.8810  138.3470 O   0  0  0  0  0  0  0  0  0  0  0  0
  192.6070  176.3840  137.5580 C   0  0  0  0  0  2  0  0  0  0  0  0
  193.4880  175.1990  137.3550 C   0  0  0  0  0  0  0  0  0  0  0  0
  194.2480  173.2810  135.9620 C   0  0  0  0  0  2  0  0  0  0  0  0
  194.5090  174.8740  138.3620 C   0  0  0  0  0  3  0  0  0  0  0  0
  195.2520  173.7770  138.2370 C   0  0  0  0  0  3  0  0  0  0  0  0
  195.0770  172.9000  137.1110 N   0  0  0  0  0  0  0  0  0  0  0  0
  193.3500  174.4520  136.2570 C   0  0  0  0  0  3  0  0  0  0  0  0
  195.2620  170.6060  137.9640 C   0  0  0  0  0  1  0  0  0  0  0  0
  195.8270  171.6520  137.0190 C   0  0  0  0  0  3  0  0  0  0  0  0
  195.8280  171.1280  135.5950 C   0  0  0  0  0  1  0  0  0  0  0  0
  189.0060  178.5800  138.5970 S   0  0  0  0  0  0  0  0  0  0  0  0
  187.6860  175.7480  135.9680 C   0  0  0  0  0  3  0  0  0  0  0  0
  182.2520  178.7590  138.8650 C   0  0  0  0  0  0  0  0  0  0  0  0
  181.4920  177.9980  137.8340 C   0  0  0  0  0  3  0  0  0  0  0  0
  182.5860  177.2880  137.0010 C   0  0  0  0  0  3  0  0  0  0  0  0
  184.6650  179.0030  139.4080 C   0  0  0  0  0  3  0  0  0  0  0  0
  186.0390  178.6220  139.0270 C   0  0  0  0  0  3  0  0  0  0  0  0
  183.6590  178.5420  138.6780 C   0  0  0  0  0  0  0  0  0  0  0  0
  187.7830  177.5890  137.7160 C   0  0  0  0  0  0  0  0  0  0  0  0
  183.8690  177.6890  137.5790 N   0  0  0  0  0  0  0  0  0  0  0  0
  188.3150  176.7110  136.8680 C   0  0  0  0  0  3  0  0  0  0  0  0
  186.3340  177.7930  138.0010 C   0  0  0  0  0  0  0  0  0  0  0  0
  181.7370  179.4690  139.7680 O   0  0  0  0  0  0  0  0  0  0  0  0
  185.2550  176.2900  136.2710 C   0  0  0  0  0  3  0  0  0  0  0  0
  185.1820  177.2220  137.2220 C   0  0  0  0  0  0  0  0  0  0  0  0
  186.3990  175.5750  135.7150 C   0  0  0  0  0  3  0  0  0  0  0  0
  1 26  1  6  0  0  0
  1  3  1  0  0  0  0
  3 12  1  0  0  0  0
  3 10  2  0  0  0  0
  5  4  2  0  0  0  0
  6  7  2  0  0  0  0
  7  5  1  0  0  0  0
  8 11  2  0  0  0  0
  9  2  1  6  0  0  0
  9  7  1  0  0  0  0
  9  8  1  0  0  0  0
 10  6  1  0  0  0  0
 11  4  1  0  0  0  0
 12  2  2  0  0  0  0
 13  1  1  0  0  0  0
 14 13  1  0  0  0  0
 15 14  2  0  0  0  0
 16 14  1  0  0  0  0
 17 16  1  0  0  0  0
 17 19  1  0  0  0  0
 18 22  1  0  0  0  0
 18 21  1  0  0  0  0
 20 19  2  0  0  0  0
 21 20  1  0  0  0  0
 22 17  2  0  0  0  0
 24 21  1  0  0  0  0
 24 23  1  0  0  0  0
 25 24  1  0  0  0  0
 27 36  1  0  0  0  0
 28 38  2  0  0  0  0
 29 28  1  0  0  0  0
 30 35  1  0  0  0  0
 30 29  2  0  0  0  0
 32 31  1  0  0  0  0
 33 28  1  0  0  0  0
 33 31  2  0  0  0  0
 34 37  1  0  0  0  0
 34 26  1  0  0  0  0
 35 33  1  0  0  0  0
 36 34  2  0  0  0  0
 37 32  2  0  0  0  0
 39 40  2  0  0  0  0
 40 35  1  0  0  0  0
 40 37  1  0  0  0  0
 41 27  2  0  0  0  0
 41 39  1  0  0  0  0
M  END
>  <MODEL>
8

>  <REMARK>
 VINA RESULT:      -8.0      3.478      5.091
  Name = 
  8 active torsions:
  status: ('A' for Active; 'I' for Inactive)
    1  A    between atoms: C_1  and  C_9
    2  A    between atoms: C_1  and  O_18
    3  A    between atoms: C_3  and  C_9
    4  A    between atoms: C_4  and  C_19
    5  A    between atoms: O_18  and  C_19
    6  A    between atoms: C_19  and  S_33
    7  A    between atoms: C_21  and  S_33
    8  A    between atoms: C_22  and  N_38
                            x       y       z     vdW  Elec       q    Type
                         _______ _______ _______ _____ _____    ______ ____

>  <TORSDO>
F 8

$$$$
=
 OpenBabel10222418443D

 41 46  0  0  1  0  0  0  0  0999 V2000
  185.5900  178.4730  140.1250 C   0  0  2  0  0  3  0  0  0  0  0  0
  181.9050  179.1680  140.2190 C   0  0  0  0  0  3  0  0  0  0  0  0
  184.2870  178.7170  140.8220 C   0  0  0  0  0  0  0  0  0  0  0  0
  179.4480  178.8840  143.3990 C   0  0  0  0  0  3  0  0  0  0  0  0
  180.7460  179.0000  143.6750 C   0  0  0  0  0  3  0  0  0  0  0  0
  183.0440  178.7370  143.0240 C   0  0  0  0  0  3  0  0  0  0  0  0
  181.7640  178.7070  142.6550 C   0  0  0  0  0  0  0  0  0  0  0  0
  179.8540  178.1670  141.0940 C   0  0  0  0  0  3  0  0  0  0  0  0
  181.3480  178.2660  141.2690 C   0  0  1  0  0  3  0  0  0  0  0  0
  184.2080  178.5000  142.1460 C   0  0  0  0  0  3  0  0  0  0  0  0
  178.9880  178.4520  142.0700 C   0  0  0  0  0  3  0  0  0  0  0  0
  183.2120  179.3270  140.0140 C   0  0  0  0  0  3  0  0  0  0  0  0
  186.6390  179.1490  140.8070 O   0  0  0  0  0  0  0  0  0  0  0  0
  187.7780  178.4890  141.2700 C   0  0  0  0  0  0  0  0  0  0  0  0
  188.9230  179.0020  141.1390 O   0  0  0  0  0  0  0  0  0  0  0  0
  187.6440  177.1400  141.8890 C   0  0  0  0  0  2  0  0  0  0  0  0
  188.1760  177.1550  143.2810 C   0  0  0  0  0  0  0  0  0  0  0  0
  190.0310  176.7560  144.8910 C   0  0  0  0  0  2  0  0  0  0  0  0
  187.3370  177.6710  144.3740 C   0  0  0  0  0  3  0  0  0  0  0  0
  187.7660  177.6200  145.6320 C   0  0  0  0  0  3  0  0  0  0  0  0
  189.0580  177.0710  145.9430 N   0  0  0  0  0  0  0  0  0  0  0  0
  189.4120  176.7100  143.5200 C   0  0  0  0  0  3  0  0  0  0  0  0
  190.9970  176.7540  147.4140 C   0  0  0  0  0  1  0  0  0  0  0  0
  189.4910  176.9310  147.3290 C   0  0  0  0  0  3  0  0  0  0  0  0
  189.0560  178.1290  148.1520 C   0  0  0  0  0  1  0  0  0  0  0  0
  185.5280  178.9990  138.3750 S   0  0  0  0  0  0  0  0  0  0  0  0
  184.4860  175.3030  136.9850 C   0  0  0  0  0  3  0  0  0  0  0  0
  191.3230  175.7060  137.2440 C   0  0  0  0  0  0  0  0  0  0  0  0
  191.2520  174.2450  136.9580 C   0  0  0  0  0  3  0  0  0  0  0  0
  189.7360  173.9340  136.9370 C   0  0  0  0  0  3  0  0  0  0  0  0
  189.6250  177.4840  137.6040 C   0  0  0  0  0  3  0  0  0  0  0  0
  188.1830  177.7840  137.6960 C   0  0  0  0  0  3  0  0  0  0  0  0
  189.9940  176.2290  137.3880 C   0  0  0  0  0  0  0  0  0  0  0  0
  185.8110  177.3340  137.7390 C   0  0  0  0  0  0  0  0  0  0  0  0
  189.0530  175.1960  137.2220 N   0  0  0  0  0  0  0  0  0  0  0  0
  184.6920  176.6600  137.4860 C   0  0  0  0  0  3  0  0  0  0  0  0
  187.2100  176.8610  137.5290 C   0  0  0  0  0  0  0  0  0  0  0  0
  192.3850  176.3760  137.3300 O   0  0  0  0  0  0  0  0  0  0  0  0
  186.8380  174.4390  136.8880 C   0  0  0  0  0  3  0  0  0  0  0  0
  187.6380  175.4540  137.2180 C   0  0  0  0  0  0  0  0  0  0  0  0
  185.3880  174.3690  136.7390 C   0  0  0  0  0  3  0  0  0  0  0  0
  1 26  1  6  0  0  0
  1 13  1  0  0  0  0
  1  3  1  0  0  0  0
  3 10  2  0  0  0  0
  4  5  2  0  0  0  0
  7  6  2  0  0  0  0
  7  5  1  0  0  0  0
  8  9  1  0  0  0  0
  8 11  2  0  0  0  0
  9  2  1  6  0  0  0
  9  7  1  0  0  0  0
 10  6  1  0  0  0  0
 11  4  1  0  0  0  0
 12  2  2  0  0  0  0
 12  3  1  0  0  0  0
 13 14  1  0  0  0  0
 14 16  1  0  0  0  0
 15 14  2  0  0  0  0
 16 17  1  0  0  0  0
 17 22  2  0  0  0  0
 17 19  1  0  0  0  0
 18 21  1  0  0  0  0
 19 20  2  0  0  0  0
 20 21  1  0  0  0  0
 21 24  1  0  0  0  0
 22 18  1  0  0  0  0
 24 23  1  0  0  0  0
 24 25  1  0  0  0  0
 27 36  1  0  0  0  0
 28 38  2  0  0  0  0
 28 33  1  0  0  0  0
 29 28  1  0  0  0  0
 30 29  2  0  0  0  0
 30 35  1  0  0  0  0
 31 32  1  0  0  0  0
 33 31  2  0  0  0  0
 34 26  1  0  0  0  0
 35 33  1  0  0  0  0
 36 34  2  0  0  0  0
 37 32  2  0  0  0  0
 37 34  1  0  0  0  0
 39 40  2  0  0  0  0
 40 35  1  0  0  0  0
 40 37  1  0  0  0  0
 41 39  1  0  0  0  0
 41 27  2  0  0  0  0
M  END
>  <MODEL>
9

>  <REMARK>
 VINA RESULT:      -8.0      2.501      4.847
  Name = 
  8 active torsions:
  status: ('A' for Active; 'I' for Inactive)
    1  A    between atoms: C_1  and  C_9
    2  A    between atoms: C_1  and  O_18
    3  A    between atoms: C_3  and  C_9
    4  A    between atoms: C_4  and  C_19
    5  A    between atoms: O_18  and  C_19
    6  A    between atoms: C_19  and  S_33
    7  A    between atoms: C_21  and  S_33
    8  A    between atoms: C_22  and  N_38
                            x       y       z     vdW  Elec       q    Type
                         _______ _______ _______ _____ _____    ______ ____

>  <TORSDO>
F 8

$$$$
