=
 OpenBabel10222418013D

 35 37  0  0  1  0  0  0  0  0999 V2000
  191.2780  176.6730  145.2860 C   0  0  0  0  0  0  0  0  0  0  0  0
  189.4820  177.1590  146.6080 C   0  0  0  0  0  0  0  0  0  0  0  0
  190.4290  176.8370  147.4260 N   0  0  0  0  0  0  0  0  0  0  0  0
  189.8540  177.0830  145.1640 C   0  0  1  0  0  3  0  0  0  0  0  0
  191.9060  176.0910  144.3320 N   0  0  0  0  0  2  0  0  0  0  0  0
  191.6420  176.4690  146.7160 C   0  0  0  0  0  2  0  0  0  0  0  0
  188.1820  177.5150  147.0830 N   0  0  0  0  0  2  0  0  0  0  0  0
  186.2070  178.0510  145.4660 C   0  0  0  0  0  0  0  0  0  0  0  0
  187.1230  177.8060  146.2110 C   0  0  0  0  0  0  0  0  0  0  0  0
  182.9780  178.8900  142.8700 C   0  0  0  0  0  3  0  0  0  0  0  0
  183.9740  178.9840  145.0730 C   0  0  0  0  0  3  0  0  0  0  0  0
  185.1120  178.3340  144.5850 C   0  0  0  0  0  0  0  0  0  0  0  0
  184.1160  178.2390  142.3730 C   0  0  0  0  0  0  0  0  0  0  0  0
  182.9070  179.2620  144.2160 C   0  0  0  0  0  3  0  0  0  0  0  0
  185.1810  177.9640  143.2390 C   0  0  0  0  0  3  0  0  0  0  0  0
  184.6910  178.0860  138.5340 C   0  0  0  0  0  1  0  0  0  0  0  0
  184.2250  177.8440  140.9980 N   0  0  0  0  0  2  0  0  0  0  0  0
  184.6190  178.6730  139.8980 C   0  0  0  0  0  0  0  0  0  0  0  0
  184.9050  179.8880  140.0610 O   0  0  0  0  0  0  0  0  0  0  0  0
  189.7830  178.4040  144.5630 N   0  0  0  0  0  2  0  0  0  0  0  0
  190.1110  178.2500  143.2090 N   0  0  0  0  0  2  0  0  0  0  0  0
  189.2180  177.2380  142.6660 C   0  0  2  0  0  3  0  0  0  0  0  0
  188.1480  178.7690  140.9640 C   0  0  0  0  0  2  0  0  0  0  0  0
  188.7970  177.9640  139.8400 C   0  0  2  0  0  3  0  0  0  0  0  0
  189.9030  176.4790  141.5270 C   0  0  0  0  0  2  0  0  0  0  0  0
  187.9110  177.8760  142.1820 C   0  0  0  0  0  2  0  0  0  0  0  0
  190.1240  177.3820  140.3140 C   0  0  0  0  0  2  0  0  0  0  0  0
  189.0300  178.8240  138.6920 N   0  0  0  0  0  2  0  0  0  0  0  0
  189.4480  177.9770  137.5830 C   0  0  0  0  0  2  0  0  0  0  0  0
  187.7540  177.6920  135.9490 O   0  0  0  0  0  1  0  0  0  0  0  0
  188.2890  177.1130  137.1010 C   0  0  1  0  0  3  0  0  0  0  0  0
  188.7510  175.6860  136.8010 C   0  0  1  0  0  3  0  0  0  0  0  0
  188.5770  175.3950  135.4460 O   0  0  0  0  0  1  0  0  0  0  0  0
  190.1960  175.5200  137.1520 C   0  0  0  0  0  3  0  0  0  0  0  0
  190.5450  174.6380  137.9200 O   0  0  0  0  0  0  0  0  0  0  0  0
  1  6  1  0  0  0  0
  2  7  1  0  0  0  0
  2  3  2  0  0  0  0
  4 20  1  1  0  0  0
  4  1  1  0  0  0  0
  4  2  1  0  0  0  0
  5  1  2  0  0  0  0
  6  3  1  0  0  0  0
  8  9  3  0  0  0  0
  9  7  1  0  0  0  0
 10 14  1  0  0  0  0
 12 11  1  0  0  0  0
 12  8  1  0  0  0  0
 13 10  2  0  0  0  0
 13 15  1  0  0  0  0
 14 11  2  0  0  0  0
 15 12  2  0  0  0  0
 16 18  1  0  0  0  0
 17 13  1  0  0  0  0
 18 19  2  0  0  0  0
 18 17  1  0  0  0  0
 21 20  1  0  0  0  0
 22 21  1  6  0  0  0
 23 26  1  0  0  0  0
 24 28  1  6  0  0  0
 24 27  1  0  0  0  0
 24 23  1  0  0  0  0
 25 22  1  0  0  0  0
 26 22  1  0  0  0  0
 27 25  1  0  0  0  0
 29 28  1  0  0  0  0
 31 30  1  6  0  0  0
 31 29  1  0  0  0  0
 32 33  1  6  0  0  0
 32 31  1  0  0  0  0
 32 34  1  0  0  0  0
 34 35  2  0  0  0  0
M  END
>  <MODEL>
1

>  <REMARK>
 VINA RESULT:      -8.7      0.000      0.000
  Name = 
  11 active torsions:
  status: ('A' for Active; 'I' for Inactive)
    1  A    between atoms: C_3  and  C_9
    2  A    between atoms: C_3  and  C_35
    3  A    between atoms: C_7  and  N_16
    4  A    between atoms: C_8  and  C_20
    5  A    between atoms: C_12  and  N_21
    6  A    between atoms: C_13  and  N_17
    7  A    between atoms: N_16  and  N_22
    8  A    between atoms: N_17  and  C_34
    9  A    between atoms: C_18  and  N_22
   10  A    between atoms: N_31  and  C_32
   11  A    between atoms: C_34  and  C_35
                            x       y       z     vdW  Elec       q    Type
                         _______ _______ _______ _____ _____    ______ ____

>  <TORSDO>
F 11

$$$$
=
 OpenBabel10222418013D

 35 37  0  0  1  0  0  0  0  0999 V2000
  191.6150  176.0980  145.4260 C   0  0  0  0  0  0  0  0  0  0  0  0
  190.0480  176.9110  146.8720 C   0  0  0  0  0  0  0  0  0  0  0  0
  191.0660  176.6110  147.6090 N   0  0  0  0  0  0  0  0  0  0  0  0
  190.2220  176.6170  145.4190 C   0  0  1  0  0  3  0  0  0  0  0  0
  192.0690  175.3430  144.4960 N   0  0  0  0  0  2  0  0  0  0  0  0
  192.1450  176.0460  146.8180 C   0  0  0  0  0  2  0  0  0  0  0  0
  188.8510  177.4430  147.4440 N   0  0  0  0  0  2  0  0  0  0  0  0
  186.7320  177.9570  146.0130 C   0  0  0  0  0  0  0  0  0  0  0  0
  187.7120  177.7150  146.6720 C   0  0  0  0  0  0  0  0  0  0  0  0
  183.2880  178.8330  143.7220 C   0  0  0  0  0  3  0  0  0  0  0  0
  184.4410  178.8140  145.8500 C   0  0  0  0  0  3  0  0  0  0  0  0
  185.5640  178.2530  145.2350 C   0  0  0  0  0  0  0  0  0  0  0  0
  184.4120  178.2720  143.0970 C   0  0  0  0  0  0  0  0  0  0  0  0
  183.3020  179.1040  145.0940 C   0  0  0  0  0  3  0  0  0  0  0  0
  185.5480  177.9850  143.8630 C   0  0  0  0  0  3  0  0  0  0  0  0
  184.9780  178.3100  139.2550 C   0  0  0  0  0  1  0  0  0  0  0  0
  184.4350  177.9830  141.6930 N   0  0  0  0  0  2  0  0  0  0  0  0
  185.0400  178.7770  140.6650 C   0  0  0  0  0  0  0  0  0  0  0  0
  185.6220  179.8600  140.9300 O   0  0  0  0  0  0  0  0  0  0  0  0
  190.1720  177.8510  144.6530 N   0  0  0  0  0  2  0  0  0  0  0  0
  189.4100  177.5840  143.5070 N   0  0  0  0  0  2  0  0  0  0  0  0
  189.7770  178.5780  142.5100 C   0  0  2  0  0  3  0  0  0  0  0  0
  191.3020  177.0410  141.2080 C   0  0  0  0  0  2  0  0  0  0  0  0
  190.3250  177.0740  140.0350 C   0  0  2  0  0  3  0  0  0  0  0  0
  188.7860  178.5530  141.3450 C   0  0  0  0  0  2  0  0  0  0  0  0
  191.2060  178.3380  142.0100 C   0  0  0  0  0  2  0  0  0  0  0  0
  188.9000  177.2550  140.5470 C   0  0  0  0  0  2  0  0  0  0  0  0
  190.4150  175.8310  139.2860 N   0  0  0  0  0  2  0  0  0  0  0  0
  191.1590  176.1050  138.0640 C   0  0  0  0  0  2  0  0  0  0  0  0
  191.7900  174.0180  137.1340 O   0  0  0  0  0  1  0  0  0  0  0  0
  192.2810  175.0900  137.8800 C   0  0  1  0  0  3  0  0  0  0  0  0
  193.4800  175.7160  137.1650 C   0  0  1  0  0  3  0  0  0  0  0  0
  193.7080  177.0090  137.6420 O   0  0  0  0  0  1  0  0  0  0  0  0
  194.7090  174.8920  137.3860 C   0  0  0  0  0  3  0  0  0  0  0  0
  195.7670  175.2150  136.8740 O   0  0  0  0  0  0  0  0  0  0  0  0
  1  6  1  0  0  0  0
  2  7  1  0  0  0  0
  2  3  2  0  0  0  0
  4 20  1  6  0  0  0
  4  1  1  0  0  0  0
  4  2  1  0  0  0  0
  5  1  2  0  0  0  0
  6  3  1  0  0  0  0
  8  9  3  0  0  0  0
  9  7  1  0  0  0  0
 10 14  1  0  0  0  0
 12 11  1  0  0  0  0
 12  8  1  0  0  0  0
 13 10  2  0  0  0  0
 13 15  1  0  0  0  0
 14 11  2  0  0  0  0
 15 12  2  0  0  0  0
 16 18  1  0  0  0  0
 17 13  1  0  0  0  0
 18 19  2  0  0  0  0
 18 17  1  0  0  0  0
 21 20  1  0  0  0  0
 22 21  1  1  0  0  0
 23 26  1  0  0  0  0
 24 28  1  1  0  0  0
 24 27  1  0  0  0  0
 24 23  1  0  0  0  0
 25 22  1  0  0  0  0
 26 22  1  0  0  0  0
 27 25  1  0  0  0  0
 29 28  1  0  0  0  0
 31 30  1  6  0  0  0
 31 29  1  0  0  0  0
 32 34  1  0  0  0  0
 32 33  1  1  0  0  0
 32 31  1  0  0  0  0
 35 34  2  0  0  0  0
M  END
>  <MODEL>
2

>  <REMARK>
 VINA RESULT:      -8.3      1.857      2.540
  Name = 
  11 active torsions:
  status: ('A' for Active; 'I' for Inactive)
    1  A    between atoms: C_3  and  C_9
    2  A    between atoms: C_3  and  C_35
    3  A    between atoms: C_7  and  N_16
    4  A    between atoms: C_8  and  C_20
    5  A    between atoms: C_12  and  N_21
    6  A    between atoms: C_13  and  N_17
    7  A    between atoms: N_16  and  N_22
    8  A    between atoms: N_17  and  C_34
    9  A    between atoms: C_18  and  N_22
   10  A    between atoms: N_31  and  C_32
   11  A    between atoms: C_34  and  C_35
                            x       y       z     vdW  Elec       q    Type
                         _______ _______ _______ _____ _____    ______ ____

>  <TORSDO>
F 11

$$$$
=
 OpenBabel10222418013D

 35 37  0  0  1  0  0  0  0  0999 V2000
  191.0910  176.3830  144.4850 C   0  0  0  0  0  0  0  0  0  0  0  0
  189.4960  177.2790  145.8510 C   0  0  0  0  0  0  0  0  0  0  0  0
  190.5150  177.0620  146.6160 N   0  0  0  0  0  0  0  0  0  0  0  0
  189.6870  176.8710  144.4280 C   0  0  1  0  0  3  0  0  0  0  0  0
  191.5670  175.5640  143.6220 N   0  0  0  0  0  2  0  0  0  0  0  0
  191.6110  176.4570  145.8790 C   0  0  0  0  0  2  0  0  0  0  0  0
  188.2850  177.8310  146.3710 N   0  0  0  0  0  2  0  0  0  0  0  0
  186.1640  178.1770  144.8930 C   0  0  0  0  0  0  0  0  0  0  0  0
  187.1460  178.0150  145.5720 C   0  0  0  0  0  0  0  0  0  0  0  0
  182.7000  178.7570  142.5390 C   0  0  0  0  0  3  0  0  0  0  0  0
  183.8320  178.9030  144.6730 C   0  0  0  0  0  3  0  0  0  0  0  0
  184.9890  178.3720  144.0940 C   0  0  0  0  0  0  0  0  0  0  0  0
  183.8580  178.2250  141.9500 C   0  0  0  0  0  0  0  0  0  0  0  0
  182.6870  179.0950  143.8950 C   0  0  0  0  0  3  0  0  0  0  0  0
  185.0000  178.0360  142.7370 C   0  0  0  0  0  3  0  0  0  0  0  0
  184.4490  178.1070  138.1130 C   0  0  0  0  0  1  0  0  0  0  0  0
  183.9090  177.8690  140.5630 N   0  0  0  0  0  2  0  0  0  0  0  0
  184.4720  178.6460  139.4990 C   0  0  0  0  0  0  0  0  0  0  0  0
  184.9850  179.7750  139.7120 O   0  0  0  0  0  0  0  0  0  0  0  0
  189.6180  178.0360  143.5630 N   0  0  0  0  0  2  0  0  0  0  0  0
  189.0580  177.6070  142.3510 N   0  0  0  0  0  2  0  0  0  0  0  0
  189.6030  178.4580  141.3040 C   0  0  2  0  0  3  0  0  0  0  0  0
  190.8970  176.6130  140.1630 C   0  0  0  0  0  2  0  0  0  0  0  0
  189.9680  176.7160  138.9550 C   0  0  2  0  0  3  0  0  0  0  0  0
  188.6500  178.5070  140.1080 C   0  0  0  0  0  2  0  0  0  0  0  0
  190.9880  177.9630  140.8740 C   0  0  0  0  0  2  0  0  0  0  0  0
  188.5770  177.1530  139.4020 C   0  0  0  0  0  2  0  0  0  0  0  0
  189.8790  175.4240  138.2940 N   0  0  0  0  0  2  0  0  0  0  0  0
  190.1110  175.6400  136.8720 C   0  0  0  0  0  2  0  0  0  0  0  0
  191.4210  174.9720  135.0120 O   0  0  0  0  0  1  0  0  0  0  0  0
  191.3170  174.8390  136.3970 C   0  0  1  0  0  3  0  0  0  0  0  0
  192.6030  175.3290  137.0660 C   0  0  1  0  0  3  0  0  0  0  0  0
  193.2350  174.2770  137.7330 O   0  0  0  0  0  1  0  0  0  0  0  0
  193.5410  175.8910  136.0450 C   0  0  0  0  0  3  0  0  0  0  0  0
  194.5060  176.5510  136.3930 O   0  0  0  0  0  0  0  0  0  0  0  0
  1  6  1  0  0  0  0
  2  7  1  0  0  0  0
  2  3  2  0  0  0  0
  4 20  1  6  0  0  0
  4  1  1  0  0  0  0
  4  2  1  0  0  0  0
  5  1  2  0  0  0  0
  6  3  1  0  0  0  0
  8  9  3  0  0  0  0
  9  7  1  0  0  0  0
 10 14  1  0  0  0  0
 12 11  1  0  0  0  0
 12  8  1  0  0  0  0
 13 10  2  0  0  0  0
 13 15  1  0  0  0  0
 14 11  2  0  0  0  0
 15 12  2  0  0  0  0
 16 18  1  0  0  0  0
 17 13  1  0  0  0  0
 18 19  2  0  0  0  0
 18 17  1  0  0  0  0
 21 20  1  0  0  0  0
 22 21  1  1  0  0  0
 23 26  1  0  0  0  0
 24 28  1  1  0  0  0
 24 27  1  0  0  0  0
 24 23  1  0  0  0  0
 25 22  1  0  0  0  0
 26 22  1  0  0  0  0
 27 25  1  0  0  0  0
 29 28  1  0  0  0  0
 31 30  1  6  0  0  0
 31 29  1  0  0  0  0
 31 32  1  0  0  0  0
 32 33  1  6  0  0  0
 34 35  2  0  0  0  0
 34 32  1  0  0  0  0
M  END
>  <MODEL>
3

>  <REMARK>
 VINA RESULT:      -7.7      1.601      2.308
  Name = 
  11 active torsions:
  status: ('A' for Active; 'I' for Inactive)
    1  A    between atoms: C_3  and  C_9
    2  A    between atoms: C_3  and  C_35
    3  A    between atoms: C_7  and  N_16
    4  A    between atoms: C_8  and  C_20
    5  A    between atoms: C_12  and  N_21
    6  A    between atoms: C_13  and  N_17
    7  A    between atoms: N_16  and  N_22
    8  A    between atoms: N_17  and  C_34
    9  A    between atoms: C_18  and  N_22
   10  A    between atoms: N_31  and  C_32
   11  A    between atoms: C_34  and  C_35
                            x       y       z     vdW  Elec       q    Type
                         _______ _______ _______ _____ _____    ______ ____

>  <TORSDO>
F 11

$$$$
=
 OpenBabel10222418013D

 35 37  0  0  1  0  0  0  0  0999 V2000
  186.7370  178.2910  147.1440 C   0  0  0  0  0  0  0  0  0  0  0  0
  188.7120  177.4750  146.3440 C   0  0  0  0  0  0  0  0  0  0  0  0
  188.7940  177.3630  147.6290 N   0  0  0  0  0  0  0  0  0  0  0  0
  187.4430  178.0860  145.8520 C   0  0  1  0  0  3  0  0  0  0  0  0
  185.7940  179.1480  147.2810 N   0  0  0  0  0  2  0  0  0  0  0  0
  187.6040  177.8780  148.2830 C   0  0  0  0  0  2  0  0  0  0  0  0
  189.7890  177.0710  145.4950 N   0  0  0  0  0  2  0  0  0  0  0  0
  189.7070  177.3810  142.9070 C   0  0  0  0  0  0  0  0  0  0  0  0
  189.7470  177.2430  144.1040 C   0  0  0  0  0  0  0  0  0  0  0  0
  189.5630  177.8390  138.7070 C   0  0  0  0  0  3  0  0  0  0  0  0
  188.6110  178.2490  140.8930 C   0  0  0  0  0  3  0  0  0  0  0  0
  189.6580  177.5350  141.4820 C   0  0  0  0  0  0  0  0  0  0  0  0
  190.6190  177.1220  139.2900 C   0  0  0  0  0  0  0  0  0  0  0  0
  188.5630  178.4010  139.5050 C   0  0  0  0  0  3  0  0  0  0  0  0
  190.6590  176.9750  140.6820 C   0  0  0  0  0  3  0  0  0  0  0  0
  192.8140  174.8090  137.0720 C   0  0  0  0  0  1  0  0  0  0  0  0
  191.6640  176.5340  138.5040 N   0  0  0  0  0  2  0  0  0  0  0  0
  191.6370  175.2520  137.8650 C   0  0  0  0  0  0  0  0  0  0  0  0
  190.6380  174.4920  137.9620 O   0  0  0  0  0  0  0  0  0  0  0  0
  186.7070  177.1240  145.0480 N   0  0  0  0  0  2  0  0  0  0  0  0
  185.4500  177.6900  144.7920 N   0  0  0  0  0  2  0  0  0  0  0  0
  185.6630  178.8160  143.8960 C   0  0  2  0  0  3  0  0  0  0  0  0
  184.2350  177.8940  142.0270 C   0  0  0  0  0  2  0  0  0  0  0  0
  183.2240  179.0160  142.2530 C   0  0  2  0  0  3  0  0  0  0  0  0
  184.6110  179.8990  144.1430 C   0  0  0  0  0  2  0  0  0  0  0  0
  185.6340  178.3550  142.4340 C   0  0  0  0  0  2  0  0  0  0  0  0
  183.2200  179.4260  143.7220 C   0  0  0  0  0  2  0  0  0  0  0  0
  181.8950  178.5620  141.8750 N   0  0  0  0  0  2  0  0  0  0  0  0
  182.0180  177.8370  140.6170 C   0  0  0  0  0  2  0  0  0  0  0  0
  180.7380  179.7430  140.0260 O   0  0  0  0  0  1  0  0  0  0  0  0
  181.3360  178.6020  139.4890 C   0  0  1  0  0  3  0  0  0  0  0  0
  182.3410  179.0010  138.4060 C   0  0  1  0  0  3  0  0  0  0  0  0
  181.6830  179.2250  137.1940 O   0  0  0  0  0  1  0  0  0  0  0  0
  183.0690  180.2460  138.8020 C   0  0  0  0  0  3  0  0  0  0  0  0
  184.2490  180.1970  139.1090 O   0  0  0  0  0  0  0  0  0  0  0  0
  1  5  2  0  0  0  0
  1  6  1  0  0  0  0
  2  3  2  0  0  0  0
  3  6  1  0  0  0  0
  4 20  1  6  0  0  0
  4  2  1  0  0  0  0
  4  1  1  0  0  0  0
  7  2  1  0  0  0  0
  8  9  3  0  0  0  0
  9  7  1  0  0  0  0
 10 13  2  0  0  0  0
 10 14  1  0  0  0  0
 11 12  1  0  0  0  0
 12  8  1  0  0  0  0
 13 15  1  0  0  0  0
 14 11  2  0  0  0  0
 15 12  2  0  0  0  0
 16 18  1  0  0  0  0
 17 13  1  0  0  0  0
 18 19  2  0  0  0  0
 18 17  1  0  0  0  0
 21 20  1  0  0  0  0
 22 25  1  0  0  0  0
 22 21  1  1  0  0  0
 23 24  1  0  0  0  0
 23 26  1  0  0  0  0
 24 28  1  1  0  0  0
 24 27  1  0  0  0  0
 26 22  1  0  0  0  0
 27 25  1  0  0  0  0
 29 28  1  0  0  0  0
 31 30  1  1  0  0  0
 31 29  1  0  0  0  0
 32 33  1  6  0  0  0
 32 34  1  0  0  0  0
 32 31  1  0  0  0  0
 34 35  2  0  0  0  0
M  END
>  <MODEL>
4

>  <REMARK>
 VINA RESULT:      -7.5      2.050      6.424
  Name = 
  11 active torsions:
  status: ('A' for Active; 'I' for Inactive)
    1  A    between atoms: C_3  and  C_9
    2  A    between atoms: C_3  and  C_35
    3  A    between atoms: C_7  and  N_16
    4  A    between atoms: C_8  and  C_20
    5  A    between atoms: C_12  and  N_21
    6  A    between atoms: C_13  and  N_17
    7  A    between atoms: N_16  and  N_22
    8  A    between atoms: N_17  and  C_34
    9  A    between atoms: C_18  and  N_22
   10  A    between atoms: N_31  and  C_32
   11  A    between atoms: C_34  and  C_35
                            x       y       z     vdW  Elec       q    Type
                         _______ _______ _______ _____ _____    ______ ____

>  <TORSDO>
F 11

$$$$
=
 OpenBabel10222418013D

 35 37  0  0  1  0  0  0  0  0999 V2000
  190.6200  176.2590  143.8130 C   0  0  0  0  0  0  0  0  0  0  0  0
  189.2200  177.2960  145.2870 C   0  0  0  0  0  0  0  0  0  0  0  0
  190.3150  177.0950  145.9430 N   0  0  0  0  0  0  0  0  0  0  0  0
  189.2340  176.7900  143.8820 C   0  0  1  0  0  3  0  0  0  0  0  0
  190.9710  175.3700  142.9590 N   0  0  0  0  0  2  0  0  0  0  0  0
  191.3010  176.4050  145.1300 C   0  0  0  0  0  2  0  0  0  0  0  0
  188.0920  177.9230  145.9020 N   0  0  0  0  0  2  0  0  0  0  0  0
  185.8320  178.2390  144.6390 C   0  0  0  0  0  0  0  0  0  0  0  0
  186.8740  178.0940  145.2270 C   0  0  0  0  0  0  0  0  0  0  0  0
  182.1920  178.7510  142.5510 C   0  0  0  0  0  3  0  0  0  0  0  0
  183.4610  178.8630  144.6080 C   0  0  0  0  0  3  0  0  0  0  0  0
  184.5970  178.4110  143.9300 C   0  0  0  0  0  0  0  0  0  0  0  0
  183.3280  178.2980  141.8630 C   0  0  0  0  0  0  0  0  0  0  0  0
  182.2580  179.0330  143.9180 C   0  0  0  0  0  3  0  0  0  0  0  0
  184.5290  178.1310  142.5620 C   0  0  0  0  0  3  0  0  0  0  0  0
  183.8000  178.2820  138.0080 C   0  0  0  0  0  1  0  0  0  0  0  0
  183.2990  178.0010  140.4610 N   0  0  0  0  0  2  0  0  0  0  0  0
  183.9250  178.7510  139.4130 C   0  0  0  0  0  0  0  0  0  0  0  0
  184.5790  179.7990  139.6570 O   0  0  0  0  0  0  0  0  0  0  0  0
  189.0960  177.8990  142.9530 N   0  0  0  0  0  2  0  0  0  0  0  0
  188.8910  177.3400  141.6840 N   0  0  0  0  0  2  0  0  0  0  0  0
  189.5310  178.2210  140.7200 C   0  0  2  0  0  3  0  0  0  0  0  0
  190.5420  176.3580  139.3450 C   0  0  0  0  0  2  0  0  0  0  0  0
  189.6170  176.7210  138.1850 C   0  0  2  0  0  3  0  0  0  0  0  0
  188.5760  178.5320  139.5660 C   0  0  0  0  0  2  0  0  0  0  0  0
  190.8280  177.5950  140.1960 C   0  0  0  0  0  2  0  0  0  0  0  0
  188.3070  177.2880  138.7190 C   0  0  0  0  0  2  0  0  0  0  0  0
  189.3410  175.5350  137.3900 N   0  0  0  0  0  2  0  0  0  0  0  0
  187.8980  175.4520  137.2090 C   0  0  0  0  0  2  0  0  0  0  0  0
  187.3100  173.7900  135.6240 O   0  0  0  0  0  1  0  0  0  0  0  0
  187.5560  175.1580  135.7530 C   0  0  1  0  0  3  0  0  0  0  0  0
  186.3290  175.9530  135.3020 C   0  0  1  0  0  3  0  0  0  0  0  0
  185.2370  175.6670  136.1240 O   0  0  0  0  0  1  0  0  0  0  0  0
  186.6090  177.4210  135.3580 C   0  0  0  0  0  3  0  0  0  0  0  0
  187.5820  177.8840  134.7860 O   0  0  0  0  0  0  0  0  0  0  0  0
  1  4  1  0  0  0  0
  1  6  1  0  0  0  0
  2  7  1  0  0  0  0
  2  3  2  0  0  0  0
  4 20  1  6  0  0  0
  4  2  1  0  0  0  0
  5  1  2  0  0  0  0
  6  3  1  0  0  0  0
  8  9  3  0  0  0  0
  9  7  1  0  0  0  0
 10 14  1  0  0  0  0
 12 11  1  0  0  0  0
 12  8  1  0  0  0  0
 13 10  2  0  0  0  0
 13 15  1  0  0  0  0
 14 11  2  0  0  0  0
 15 12  2  0  0  0  0
 16 18  1  0  0  0  0
 17 13  1  0  0  0  0
 18 19  2  0  0  0  0
 18 17  1  0  0  0  0
 21 20  1  0  0  0  0
 22 21  1  1  0  0  0
 23 26  1  0  0  0  0
 24 28  1  1  0  0  0
 24 27  1  0  0  0  0
 24 23  1  0  0  0  0
 25 22  1  0  0  0  0
 26 22  1  0  0  0  0
 27 25  1  0  0  0  0
 29 28  1  0  0  0  0
 31 30  1  1  0  0  0
 31 29  1  0  0  0  0
 32 34  1  0  0  0  0
 32 31  1  0  0  0  0
 32 33  1  1  0  0  0
 35 34  2  0  0  0  0
M  END
>  <MODEL>
5

>  <REMARK>
 VINA RESULT:      -7.4      1.520      2.379
  Name = 
  11 active torsions:
  status: ('A' for Active; 'I' for Inactive)
    1  A    between atoms: C_3  and  C_9
    2  A    between atoms: C_3  and  C_35
    3  A    between atoms: C_7  and  N_16
    4  A    between atoms: C_8  and  C_20
    5  A    between atoms: C_12  and  N_21
    6  A    between atoms: C_13  and  N_17
    7  A    between atoms: N_16  and  N_22
    8  A    between atoms: N_17  and  C_34
    9  A    between atoms: C_18  and  N_22
   10  A    between atoms: N_31  and  C_32
   11  A    between atoms: C_34  and  C_35
                            x       y       z     vdW  Elec       q    Type
                         _______ _______ _______ _____ _____    ______ ____

>  <TORSDO>
F 11

$$$$
=
 OpenBabel10222418013D

 35 37  0  0  1  0  0  0  0  0999 V2000
  185.7460  178.0820  144.2640 C   0  0  0  0  0  0  0  0  0  0  0  0
  185.0820  179.0910  142.3270 C   0  0  0  0  0  0  0  0  0  0  0  0
  184.4200  179.6860  143.2640 N   0  0  0  0  0  0  0  0  0  0  0  0
  185.9810  177.9960  142.7990 C   0  0  1  0  0  3  0  0  0  0  0  0
  185.9730  177.0980  145.0530 N   0  0  0  0  0  2  0  0  0  0  0  0
  184.7220  179.1210  144.5680 C   0  0  0  0  0  2  0  0  0  0  0  0
  184.9110  179.4530  140.9550 N   0  0  0  0  0  2  0  0  0  0  0  0
  186.1470  178.1960  139.0330 C   0  0  0  0  0  0  0  0  0  0  0  0
  185.5720  178.7780  139.9180 C   0  0  0  0  0  0  0  0  0  0  0  0
  188.1880  176.1540  135.9440 C   0  0  0  0  0  3  0  0  0  0  0  0
  186.1170  176.8160  137.0060 C   0  0  0  0  0  3  0  0  0  0  0  0
  186.8400  177.5020  137.9860 C   0  0  0  0  0  0  0  0  0  0  0  0
  188.9210  176.8420  136.9230 C   0  0  0  0  0  0  0  0  0  0  0  0
  186.7900  176.1420  135.9850 C   0  0  0  0  0  3  0  0  0  0  0  0
  188.2380  177.5150  137.9420 C   0  0  0  0  0  3  0  0  0  0  0  0
  192.7050  176.3330  137.6350 C   0  0  0  0  0  1  0  0  0  0  0  0
  190.3540  176.8780  136.9120 N   0  0  0  0  0  2  0  0  0  0  0  0
  191.2360  176.1880  137.8070 C   0  0  0  0  0  0  0  0  0  0  0  0
  190.7920  175.4640  138.7350 O   0  0  0  0  0  0  0  0  0  0  0  0
  187.3660  178.3320  142.5120 N   0  0  0  0  0  2  0  0  0  0  0  0
  188.1080  177.1530  142.6690 N   0  0  0  0  0  2  0  0  0  0  0  0
  189.3410  177.3230  141.9160 C   0  0  2  0  0  3  0  0  0  0  0  0
  190.4940  178.7180  143.6780 C   0  0  0  0  0  2  0  0  0  0  0  0
  191.4840  177.5820  143.9230 C   0  0  2  0  0  3  0  0  0  0  0  0
  190.3090  176.1760  142.2150 C   0  0  0  0  0  2  0  0  0  0  0  0
  189.9870  178.6750  142.2370 C   0  0  0  0  0  2  0  0  0  0  0  0
  190.8140  176.2390  143.6570 C   0  0  0  0  0  2  0  0  0  0  0  0
  191.9500  177.6250  145.2990 N   0  0  0  0  0  2  0  0  0  0  0  0
  191.5860  176.3610  145.9270 C   0  0  0  0  0  2  0  0  0  0  0  0
  191.9150  177.1420  148.1420 O   0  0  0  0  0  1  0  0  0  0  0  0
  190.9480  176.6040  147.2900 C   0  0  1  0  0  3  0  0  0  0  0  0
  189.7590  177.5600  147.1820 C   0  0  1  0  0  3  0  0  0  0  0  0
  188.6840  176.9260  146.5540 O   0  0  0  0  0  1  0  0  0  0  0  0
  189.3290  178.0150  148.5400 C   0  0  0  0  0  3  0  0  0  0  0  0
  188.1450  178.0460  148.8330 O   0  0  0  0  0  0  0  0  0  0  0  0
  1  6  1  0  0  0  0
  1  5  2  0  0  0  0
  2  4  1  0  0  0  0
  2  3  2  0  0  0  0
  3  6  1  0  0  0  0
  4 20  1  1  0  0  0
  4  1  1  0  0  0  0
  7  2  1  0  0  0  0
  8  9  3  0  0  0  0
  9  7  1  0  0  0  0
 10 14  2  0  0  0  0
 10 13  1  0  0  0  0
 11 12  2  0  0  0  0
 12  8  1  0  0  0  0
 13 15  2  0  0  0  0
 14 11  1  0  0  0  0
 15 12  1  0  0  0  0
 16 18  1  0  0  0  0
 17 13  1  0  0  0  0
 17 18  1  0  0  0  0
 18 19  2  0  0  0  0
 20 21  1  0  0  0  0
 22 25  1  0  0  0  0
 22 26  1  0  0  0  0
 22 21  1  1  0  0  0
 23 24  1  0  0  0  0
 24 28  1  1  0  0  0
 25 27  1  0  0  0  0
 26 23  1  0  0  0  0
 27 24  1  0  0  0  0
 28 29  1  0  0  0  0
 29 31  1  0  0  0  0
 31 30  1  1  0  0  0
 32 33  1  1  0  0  0
 32 31  1  0  0  0  0
 32 34  1  0  0  0  0
 34 35  2  0  0  0  0
M  END
>  <MODEL>
6

>  <REMARK>
 VINA RESULT:      -7.3      3.246      7.567
  Name = 
  11 active torsions:
  status: ('A' for Active; 'I' for Inactive)
    1  A    between atoms: C_3  and  C_9
    2  A    between atoms: C_3  and  C_35
    3  A    between atoms: C_7  and  N_16
    4  A    between atoms: C_8  and  C_20
    5  A    between atoms: C_12  and  N_21
    6  A    between atoms: C_13  and  N_17
    7  A    between atoms: N_16  and  N_22
    8  A    between atoms: N_17  and  C_34
    9  A    between atoms: C_18  and  N_22
   10  A    between atoms: N_31  and  C_32
   11  A    between atoms: C_34  and  C_35
                            x       y       z     vdW  Elec       q    Type
                         _______ _______ _______ _____ _____    ______ ____

>  <TORSDO>
F 11

$$$$
=
 OpenBabel10222418013D

 35 37  0  0  1  0  0  0  0  0999 V2000
  191.2880  176.3390  138.4320 C   0  0  0  0  0  0  0  0  0  0  0  0
  191.9390  177.2030  140.4420 C   0  0  0  0  0  0  0  0  0  0  0  0
  193.0160  177.1550  139.7280 N   0  0  0  0  0  0  0  0  0  0  0  0
  190.7160  176.6850  139.7600 C   0  0  1  0  0  3  0  0  0  0  0  0
  190.7320  175.4930  137.6470 N   0  0  0  0  0  2  0  0  0  0  0  0
  192.7560  176.5910  138.4150 C   0  0  0  0  0  2  0  0  0  0  0  0
  191.9640  177.6830  141.7880 N   0  0  0  0  0  2  0  0  0  0  0  0
  189.8370  177.6760  143.2970 C   0  0  0  0  0  0  0  0  0  0  0  0
  190.8210  177.6850  142.6000 C   0  0  0  0  0  0  0  0  0  0  0  0
  186.3830  177.6190  145.7350 C   0  0  0  0  0  3  0  0  0  0  0  0
  188.7820  177.4090  145.4940 C   0  0  0  0  0  3  0  0  0  0  0  0
  188.6650  177.6560  144.1230 C   0  0  0  0  0  0  0  0  0  0  0  0
  186.2580  177.8690  144.3590 C   0  0  0  0  0  0  0  0  0  0  0  0
  187.6410  177.3900  146.3010 C   0  0  0  0  0  3  0  0  0  0  0  0
  187.4060  177.8860  143.5600 C   0  0  0  0  0  3  0  0  0  0  0  0
  182.6280  178.9740  143.5260 C   0  0  0  0  0  1  0  0  0  0  0  0
  184.9850  178.1100  143.7450 N   0  0  0  0  0  2  0  0  0  0  0  0
  183.8720  178.8050  144.3220 C   0  0  0  0  0  0  0  0  0  0  0  0
  183.9260  179.2740  145.4880 O   0  0  0  0  0  0  0  0  0  0  0  0
  189.7440  177.7540  139.6030 N   0  0  0  0  0  2  0  0  0  0  0  0
  188.6100  177.1840  139.0090 N   0  0  0  0  0  2  0  0  0  0  0  0
  187.9100  178.2540  138.3140 C   0  0  2  0  0  3  0  0  0  0  0  0
  188.6240  177.5290  136.0020 C   0  0  0  0  0  2  0  0  0  0  0  0
  187.1780  177.1610  135.6760 C   0  0  2  0  0  3  0  0  0  0  0  0
  186.4770  177.8270  137.9870 C   0  0  0  0  0  2  0  0  0  0  0  0
  188.6610  178.6510  137.0390 C   0  0  0  0  0  2  0  0  0  0  0  0
  186.4560  176.7120  136.9420 C   0  0  0  0  0  2  0  0  0  0  0  0
  187.1540  176.0850  134.6990 N   0  0  0  0  0  2  0  0  0  0  0  0
  186.4510  174.9590  135.3000 C   0  0  0  0  0  2  0  0  0  0  0  0
  188.6120  173.9850  135.2410 O   0  0  0  0  0  1  0  0  0  0  0  0
  187.2550  173.6750  135.1340 C   0  0  1  0  0  3  0  0  0  0  0  0
  186.8720  172.6420  136.1960 C   0  0  1  0  0  3  0  0  0  0  0  0
  187.9180  172.4700  137.1050 O   0  0  0  0  0  1  0  0  0  0  0  0
  185.6500  173.0830  136.9360 C   0  0  0  0  0  3  0  0  0  0  0  0
  185.5790  172.9420  138.1460 O   0  0  0  0  0  0  0  0  0  0  0  0
  1  4  1  0  0  0  0
  2  7  1  0  0  0  0
  3  2  2  0  0  0  0
  4 20  1  6  0  0  0
  4  2  1  0  0  0  0
  5  1  2  0  0  0  0
  6  1  1  0  0  0  0
  6  3  1  0  0  0  0
  7  9  1  0  0  0  0
  8 12  1  0  0  0  0
  9  8  3  0  0  0  0
 10 14  1  0  0  0  0
 11 14  2  0  0  0  0
 12 11  1  0  0  0  0
 13 10  2  0  0  0  0
 15 12  2  0  0  0  0
 15 13  1  0  0  0  0
 16 18  1  0  0  0  0
 17 18  1  0  0  0  0
 17 13  1  0  0  0  0
 18 19  2  0  0  0  0
 21 20  1  0  0  0  0
 22 21  1  6  0  0  0
 23 26  1  0  0  0  0
 24 28  1  6  0  0  0
 24 23  1  0  0  0  0
 24 27  1  0  0  0  0
 25 22  1  0  0  0  0
 26 22  1  0  0  0  0
 27 25  1  0  0  0  0
 28 29  1  0  0  0  0
 31 30  1  1  0  0  0
 31 29  1  0  0  0  0
 31 32  1  0  0  0  0
 32 34  1  0  0  0  0
 32 33  1  1  0  0  0
 34 35  2  0  0  0  0
M  END
>  <MODEL>
7

>  <REMARK>
 VINA RESULT:      -7.2      2.625      5.181
  Name = 
  11 active torsions:
  status: ('A' for Active; 'I' for Inactive)
    1  A    between atoms: C_3  and  C_9
    2  A    between atoms: C_3  and  C_35
    3  A    between atoms: C_7  and  N_16
    4  A    between atoms: C_8  and  C_20
    5  A    between atoms: C_12  and  N_21
    6  A    between atoms: C_13  and  N_17
    7  A    between atoms: N_16  and  N_22
    8  A    between atoms: N_17  and  C_34
    9  A    between atoms: C_18  and  N_22
   10  A    between atoms: N_31  and  C_32
   11  A    between atoms: C_34  and  C_35
                            x       y       z     vdW  Elec       q    Type
                         _______ _______ _______ _____ _____    ______ ____

>  <TORSDO>
F 11

$$$$
=
 OpenBabel10222418013D

 35 37  0  0  1  0  0  0  0  0999 V2000
  188.3140  177.5580  146.0480 C   0  0  0  0  0  0  0  0  0  0  0  0
  189.8470  177.2010  144.3950 C   0  0  0  0  0  0  0  0  0  0  0  0
  190.4760  176.9640  145.4990 N   0  0  0  0  0  0  0  0  0  0  0  0
  188.4260  177.6260  144.5670 C   0  0  1  0  0  3  0  0  0  0  0  0
  187.4250  178.2130  146.6980 N   0  0  0  0  0  2  0  0  0  0  0  0
  189.6230  177.1830  146.6540 C   0  0  0  0  0  2  0  0  0  0  0  0
  190.5030  177.0920  143.1300 N   0  0  0  0  0  2  0  0  0  0  0  0
  189.3070  177.6820  140.8890 C   0  0  0  0  0  0  0  0  0  0  0  0
  189.8570  177.4050  141.9260 C   0  0  0  0  0  0  0  0  0  0  0  0
  187.3960  178.6790  137.2520 C   0  0  0  0  0  3  0  0  0  0  0  0
  189.4150  178.4680  138.5690 C   0  0  0  0  0  3  0  0  0  0  0  0
  188.6580  178.0210  139.6560 C   0  0  0  0  0  0  0  0  0  0  0  0
  186.6290  178.2300  138.3380 C   0  0  0  0  0  0  0  0  0  0  0  0
  188.7840  178.7980  137.3670 C   0  0  0  0  0  3  0  0  0  0  0  0
  187.2700  177.9020  139.5380 C   0  0  0  0  0  3  0  0  0  0  0  0
  182.7820  178.7360  138.5210 C   0  0  0  0  0  1  0  0  0  0  0  0
  185.2040  178.0930  138.2570 N   0  0  0  0  0  2  0  0  0  0  0  0
  184.2260  179.0410  138.7020 C   0  0  0  0  0  0  0  0  0  0  0  0
  184.5630  180.1270  139.2420 O   0  0  0  0  0  0  0  0  0  0  0  0
  187.5370  176.6430  143.9710 N   0  0  0  0  0  2  0  0  0  0  0  0
  186.2310  177.1220  144.1440 N   0  0  0  0  0  2  0  0  0  0  0  0
  186.1800  178.4480  143.5470 C   0  0  2  0  0  3  0  0  0  0  0  0
  184.0490  178.0330  142.2550 C   0  0  0  0  0  2  0  0  0  0  0  0
  183.3220  179.0430  143.1420 C   0  0  2  0  0  3  0  0  0  0  0  0
  185.4200  179.4130  144.4590 C   0  0  0  0  0  2  0  0  0  0  0  0
  185.5320  178.3890  142.1600 C   0  0  0  0  0  2  0  0  0  0  0  0
  183.9370  179.0500  144.5370 C   0  0  0  0  0  2  0  0  0  0  0  0
  181.9160  178.6880  143.2370 N   0  0  0  0  0  2  0  0  0  0  0  0
  181.3430  178.7940  141.9010 C   0  0  0  0  0  2  0  0  0  0  0  0
  179.5010  177.9740  143.1480 O   0  0  0  0  0  1  0  0  0  0  0  0
  179.8310  178.6090  141.9490 C   0  0  1  0  0  3  0  0  0  0  0  0
  179.1060  179.9530  141.8540 C   0  0  1  0  0  3  0  0  0  0  0  0
  179.6880  180.8800  142.7210 O   0  0  0  0  0  1  0  0  0  0  0  0
  179.1730  180.4840  140.4570 C   0  0  0  0  0  3  0  0  0  0  0  0
  179.8220  181.4870  140.2110 O   0  0  0  0  0  0  0  0  0  0  0  0
  1  6  1  0  0  0  0
  1  5  2  0  0  0  0
  2  4  1  0  0  0  0
  2  3  2  0  0  0  0
  3  6  1  0  0  0  0
  4 20  1  6  0  0  0
  4  1  1  0  0  0  0
  7  2  1  0  0  0  0
  8  9  3  0  0  0  0
  9  7  1  0  0  0  0
 10 14  2  0  0  0  0
 10 13  1  0  0  0  0
 11 12  2  0  0  0  0
 12  8  1  0  0  0  0
 13 15  2  0  0  0  0
 14 11  1  0  0  0  0
 15 12  1  0  0  0  0
 16 18  1  0  0  0  0
 17 13  1  0  0  0  0
 17 18  1  0  0  0  0
 18 19  2  0  0  0  0
 20 21  1  0  0  0  0
 22 21  1  1  0  0  0
 22 25  1  0  0  0  0
 23 24  1  0  0  0  0
 24 28  1  1  0  0  0
 24 27  1  0  0  0  0
 25 27  1  0  0  0  0
 26 23  1  0  0  0  0
 26 22  1  0  0  0  0
 29 31  1  0  0  0  0
 29 28  1  0  0  0  0
 31 30  1  1  0  0  0
 32 31  1  0  0  0  0
 32 33  1  1  0  0  0
 34 32  1  0  0  0  0
 35 34  2  0  0  0  0
M  END
>  <MODEL>
8

>  <REMARK>
 VINA RESULT:      -7.2      2.629      6.822
  Name = 
  11 active torsions:
  status: ('A' for Active; 'I' for Inactive)
    1  A    between atoms: C_3  and  C_9
    2  A    between atoms: C_3  and  C_35
    3  A    between atoms: C_7  and  N_16
    4  A    between atoms: C_8  and  C_20
    5  A    between atoms: C_12  and  N_21
    6  A    between atoms: C_13  and  N_17
    7  A    between atoms: N_16  and  N_22
    8  A    between atoms: N_17  and  C_34
    9  A    between atoms: C_18  and  N_22
   10  A    between atoms: N_31  and  C_32
   11  A    between atoms: C_34  and  C_35
                            x       y       z     vdW  Elec       q    Type
                         _______ _______ _______ _____ _____    ______ ____

>  <TORSDO>
F 11

$$$$
=
 OpenBabel10222418013D

 35 37  0  0  1  0  0  0  0  0999 V2000
  187.9160  177.0450  136.9730 C   0  0  0  0  0  0  0  0  0  0  0  0
  189.5560  177.3550  138.5300 C   0  0  0  0  0  0  0  0  0  0  0  0
  190.1760  177.2440  137.4010 N   0  0  0  0  0  0  0  0  0  0  0  0
  188.0710  177.2250  138.4400 C   0  0  1  0  0  3  0  0  0  0  0  0
  186.8810  176.4930  136.4570 N   0  0  0  0  0  2  0  0  0  0  0  0
  189.2480  177.0100  136.3080 C   0  0  0  0  0  2  0  0  0  0  0  0
  190.2710  177.5470  139.7520 N   0  0  0  0  0  2  0  0  0  0  0  0
  189.0710  177.6500  142.0650 C   0  0  0  0  0  0  0  0  0  0  0  0
  189.6230  177.6070  140.9940 C   0  0  0  0  0  0  0  0  0  0  0  0
  187.1500  177.7790  145.8290 C   0  0  0  0  0  3  0  0  0  0  0  0
  189.1780  177.6560  144.5140 C   0  0  0  0  0  3  0  0  0  0  0  0
  188.4180  177.6930  143.3410 C   0  0  0  0  0  0  0  0  0  0  0  0
  186.3810  177.8180  144.6560 C   0  0  0  0  0  0  0  0  0  0  0  0
  188.5440  177.6990  145.7590 C   0  0  0  0  0  3  0  0  0  0  0  0
  187.0240  177.7750  143.4140 C   0  0  0  0  0  3  0  0  0  0  0  0
  182.6690  178.9350  144.4120 C   0  0  0  0  0  1  0  0  0  0  0  0
  184.9500  177.9020  144.6890 N   0  0  0  0  0  2  0  0  0  0  0  0
  184.1490  179.0350  144.3290 C   0  0  0  0  0  0  0  0  0  0  0  0
  184.6740  180.1120  143.9440 O   0  0  0  0  0  0  0  0  0  0  0  0
  187.4380  178.4700  138.8430 N   0  0  0  0  0  2  0  0  0  0  0  0
  186.4300  178.1330  139.7570 N   0  0  0  0  0  2  0  0  0  0  0  0
  185.3080  179.0240  139.5030 C   0  0  2  0  0  3  0  0  0  0  0  0
  183.8660  177.2640  138.4050 C   0  0  0  0  0  2  0  0  0  0  0  0
  182.8970  177.3300  139.5840 C   0  0  2  0  0  3  0  0  0  0  0  0
  184.3550  179.0340  140.7000 C   0  0  0  0  0  2  0  0  0  0  0  0
  184.5700  178.6090  138.2260 C   0  0  0  0  0  2  0  0  0  0  0  0
  183.6520  177.6860  140.8600 C   0  0  0  0  0  2  0  0  0  0  0  0
  182.2430  176.0430  139.7540 N   0  0  0  0  0  2  0  0  0  0  0  0
  181.1750  175.9580  138.7660 C   0  0  0  0  0  2  0  0  0  0  0  0
  180.3030  174.5780  140.4850 O   0  0  0  0  0  1  0  0  0  0  0  0
  179.9230  175.3430  139.3810 C   0  0  1  0  0  3  0  0  0  0  0  0
  178.9310  176.4250  139.8130 C   0  0  1  0  0  3  0  0  0  0  0  0
  178.9830  176.6060  141.1970 O   0  0  0  0  0  1  0  0  0  0  0  0
  179.2480  177.7220  139.1390 C   0  0  0  0  0  3  0  0  0  0  0  0
  179.3280  178.7500  139.7920 O   0  0  0  0  0  0  0  0  0  0  0  0
  1  4  1  0  0  0  0
  2  7  1  0  0  0  0
  3  2  2  0  0  0  0
  4  2  1  0  0  0  0
  4 20  1  6  0  0  0
  5  1  2  0  0  0  0
  6  1  1  0  0  0  0
  6  3  1  0  0  0  0
  7  9  1  0  0  0  0
  8 12  1  0  0  0  0
  9  8  3  0  0  0  0
 11 14  2  0  0  0  0
 12 15  2  0  0  0  0
 12 11  1  0  0  0  0
 13 17  1  0  0  0  0
 13 10  2  0  0  0  0
 14 10  1  0  0  0  0
 15 13  1  0  0  0  0
 18 16  1  0  0  0  0
 18 17  1  0  0  0  0
 19 18  2  0  0  0  0
 20 21  1  0  0  0  0
 22 21  1  1  0  0  0
 22 25  1  0  0  0  0
 23 24  1  0  0  0  0
 24 28  1  1  0  0  0
 24 27  1  0  0  0  0
 25 27  1  0  0  0  0
 26 23  1  0  0  0  0
 26 22  1  0  0  0  0
 29 31  1  0  0  0  0
 29 28  1  0  0  0  0
 31 32  1  0  0  0  0
 31 30  1  1  0  0  0
 32 33  1  1  0  0  0
 34 35  2  0  0  0  0
 34 32  1  0  0  0  0
M  END
>  <MODEL>
9

>  <REMARK>
 VINA RESULT:      -7.1      3.653      7.328
  Name = 
  11 active torsions:
  status: ('A' for Active; 'I' for Inactive)
    1  A    between atoms: C_3  and  C_9
    2  A    between atoms: C_3  and  C_35
    3  A    between atoms: C_7  and  N_16
    4  A    between atoms: C_8  and  C_20
    5  A    between atoms: C_12  and  N_21
    6  A    between atoms: C_13  and  N_17
    7  A    between atoms: N_16  and  N_22
    8  A    between atoms: N_17  and  C_34
    9  A    between atoms: C_18  and  N_22
   10  A    between atoms: N_31  and  C_32
   11  A    between atoms: C_34  and  C_35
                            x       y       z     vdW  Elec       q    Type
                         _______ _______ _______ _____ _____    ______ ____

>  <TORSDO>
F 11

$$$$
