=
 OpenBabel10222415483D

 31 34  0  0  1  0  0  0  0  0999 V2000
  187.6310  177.3050  148.8090 O   0  0  0  0  0  0  0  0  0  0  0  0
  190.8810  177.1280  144.3370 C   0  0  0  0  0  2  0  0  0  0  0  0
  190.7730  176.8070  145.7130 O   0  0  0  0  0  0  0  0  0  0  0  0
  189.5200  177.4190  143.8560 C   0  0  0  0  0  0  0  0  0  0  0  0
  189.1190  177.8940  142.4910 C   0  0  2  0  0  3  0  0  0  0  0  0
  189.2220  177.9600  147.1740 C   0  0  1  0  0  3  0  0  0  0  0  0
  188.6800  177.3250  144.8380 C   0  0  0  0  0  0  0  0  0  0  0  0
  186.8070  178.0280  143.4710 C   0  0  0  0  0  0  0  0  0  0  0  0
  189.4040  176.9190  146.0660 C   0  0  1  0  0  3  0  0  0  0  0  0
  187.8340  177.8790  147.7500 C   0  0  0  0  0  0  0  0  0  0  0  0
  186.6770  178.4220  146.9770 C   0  0  0  0  0  2  0  0  0  0  0  0
  186.3090  177.4740  145.8450 C   0  0  0  0  0  2  0  0  0  0  0  0
  190.1780  177.7770  148.1790 O   0  0  0  0  0  1  0  0  0  0  0  0
  187.2450  177.6270  144.6800 C   0  0  0  0  0  0  0  0  0  0  0  0
  187.7030  178.1480  142.3920 O   0  0  0  0  0  0  0  0  0  0  0  0
  189.6020  176.9910  141.4350 N   0  0  0  0  0  0  0  0  0  0  0  0
  190.5900  176.1390  142.0870 C   0  0  0  0  0  1  0  0  0  0  0  0
  188.2750  177.3710  138.7580 C   0  0  0  0  0  2  0  0  0  0  0  0
  189.2510  178.3790  139.3630 C   0  0  0  0  0  2  0  0  0  0  0  0
  191.2510  176.8270  139.5480 C   0  0  0  0  0  2  0  0  0  0  0  0
  188.7930  176.7370  137.4650 C   0  0  0  0  0  2  0  0  0  0  0  0
  190.5720  175.7330  138.8630 N   0  0  0  0  0  2  0  0  0  0  0  0
  190.2580  177.7130  140.3210 C   0  0  2  0  0  3  0  0  0  0  0  0
  190.2340  176.2230  137.5340 C   0  0  0  0  0  2  0  0  0  0  0  0
  185.3620  178.3150  143.2260 C   0  0  0  0  0  2  0  0  0  0  0  0
  185.2320  179.1610  142.0500 N   0  0  0  0  0  2  0  0  0  0  0  0
  184.3890  178.8130  140.9530 C   0  0  0  0  0  0  0  0  0  0  0  0
  184.2660  179.7180  139.8540 N   0  0  0  0  0  2  0  0  0  0  0  0
  183.7710  177.7140  140.9470 O   0  0  0  0  0  0  0  0  0  0  0  0
  183.4890  179.4080  138.6620 C   0  0  0  0  0  2  0  0  0  0  0  0
  182.1880  180.1860  138.6770 C   0  0  0  0  0  1  0  0  0  0  0  0
  2  3  1  0  0  0  0
  3  9  1  0  0  0  0
  4  2  1  0  0  0  0
  4  7  2  0  0  0  0
  5 16  1  6  0  0  0
  5  4  1  0  0  0  0
  6 10  1  0  0  0  0
  6 13  1  1  0  0  0
  8 14  2  0  0  0  0
  9  7  1  6  0  0  0
  9  6  1  0  0  0  0
 10  1  2  0  0  0  0
 11 10  1  0  0  0  0
 12 11  1  0  0  0  0
 14  7  1  0  0  0  0
 14 12  1  0  0  0  0
 15  5  1  0  0  0  0
 15  8  1  0  0  0  0
 16 17  1  0  0  0  0
 18 19  1  0  0  0  0
 19 23  1  0  0  0  0
 20 23  1  0  0  0  0
 21 24  1  0  0  0  0
 21 18  1  0  0  0  0
 22 20  1  0  0  0  0
 23 16  1  1  0  0  0
 24 22  1  0  0  0  0
 25  8  1  0  0  0  0
 26 25  1  0  0  0  0
 27 26  1  0  0  0  0
 28 27  1  0  0  0  0
 29 27  2  0  0  0  0
 30 31  1  0  0  0  0
 30 28  1  0  0  0  0
M  END
>  <MODEL>
1

>  <REMARK>
 VINA RESULT:      -9.3      0.000      0.000
  Name = 
  5 active torsions:
  status: ('A' for Active; 'I' for Inactive)
    1  A    between atoms: C_1  and  N_19
    2  A    between atoms: N_2  and  C_7
    3  A    between atoms: C_7  and  C_18
    4  A    between atoms: C_14  and  N_22
    5  A    between atoms: N_22  and  C_24
                            x       y       z     vdW  Elec       q    Type
                         _______ _______ _______ _____ _____    ______ ____

>  <TORSDO>
F 5

$$$$
=
 OpenBabel10222415483D

 31 34  0  0  1  0  0  0  0  0999 V2000
  184.2130  178.2470  146.5860 O   0  0  0  0  0  0  0  0  0  0  0  0
  189.0260  177.2440  144.0510 C   0  0  0  0  0  2  0  0  0  0  0  0
  188.2600  177.0320  145.2250 O   0  0  0  0  0  0  0  0  0  0  0  0
  188.1000  177.7310  143.0160 C   0  0  0  0  0  0  0  0  0  0  0  0
  188.4420  178.1820  141.6270 C   0  0  2  0  0  3  0  0  0  0  0  0
  186.4540  178.5200  145.8560 C   0  0  1  0  0  3  0  0  0  0  0  0
  186.9080  177.8430  143.5120 C   0  0  0  0  0  0  0  0  0  0  0  0
  186.0010  178.7670  141.4650 C   0  0  0  0  0  0  0  0  0  0  0  0
  186.9220  177.3970  144.9270 C   0  0  1  0  0  3  0  0  0  0  0  0
  184.9660  178.7110  145.7440 C   0  0  0  0  0  0  0  0  0  0  0  0
  184.3940  179.3940  144.5450 C   0  0  0  0  0  2  0  0  0  0  0  0
  184.4060  178.4540  143.3480 C   0  0  0  0  0  2  0  0  0  0  0  0
  186.8120  178.2390  147.1790 O   0  0  0  0  0  1  0  0  0  0  0  0
  185.7740  178.3740  142.7330 C   0  0  0  0  0  0  0  0  0  0  0  0
  187.2900  178.6660  140.9070 O   0  0  0  0  0  0  0  0  0  0  0  0
  189.1740  177.1470  140.8820 N   0  0  0  0  0  0  0  0  0  0  0  0
  190.1790  176.6480  141.8140 C   0  0  0  0  0  1  0  0  0  0  0  0
  188.1500  176.6730  138.0900 C   0  0  0  0  0  2  0  0  0  0  0  0
  188.9020  177.9360  138.5060 C   0  0  0  0  0  2  0  0  0  0  0  0
  191.0510  176.8090  139.2480 C   0  0  0  0  0  2  0  0  0  0  0  0
  188.9040  175.8440  137.0470 C   0  0  0  0  0  2  0  0  0  0  0  0
  190.6130  175.4920  138.8020 N   0  0  0  0  0  2  0  0  0  0  0  0
  189.8610  177.6830  139.6840 C   0  0  2  0  0  3  0  0  0  0  0  0
  190.3810  175.5950  137.3680 C   0  0  0  0  0  2  0  0  0  0  0  0
  184.8950  179.2800  140.6020 C   0  0  0  0  0  2  0  0  0  0  0  0
  185.1620  178.9270  139.2170 N   0  0  0  0  0  2  0  0  0  0  0  0
  184.4530  177.8860  138.5470 C   0  0  0  0  0  0  0  0  0  0  0  0
  184.7270  177.6300  137.1680 N   0  0  0  0  0  2  0  0  0  0  0  0
  183.6030  177.1920  139.1680 O   0  0  0  0  0  0  0  0  0  0  0  0
  184.1060  176.5400  136.4310 C   0  0  0  0  0  2  0  0  0  0  0  0
  184.9870  175.3070  136.4940 C   0  0  0  0  0  1  0  0  0  0  0  0
  2  3  1  0  0  0  0
  4  7  2  0  0  0  0
  4  2  1  0  0  0  0
  5 16  1  6  0  0  0
  5  4  1  0  0  0  0
  6 13  1  1  0  0  0
  8 14  2  0  0  0  0
  9  7  1  6  0  0  0
  9  3  1  0  0  0  0
  9  6  1  0  0  0  0
 10  6  1  0  0  0  0
 10  1  2  0  0  0  0
 11 10  1  0  0  0  0
 12 11  1  0  0  0  0
 14 12  1  0  0  0  0
 14  7  1  0  0  0  0
 15  8  1  0  0  0  0
 15  5  1  0  0  0  0
 16 17  1  0  0  0  0
 18 19  1  0  0  0  0
 19 23  1  0  0  0  0
 20 23  1  0  0  0  0
 21 24  1  0  0  0  0
 21 18  1  0  0  0  0
 22 20  1  0  0  0  0
 23 16  1  1  0  0  0
 24 22  1  0  0  0  0
 25  8  1  0  0  0  0
 26 25  1  0  0  0  0
 27 29  2  0  0  0  0
 27 26  1  0  0  0  0
 28 27  1  0  0  0  0
 30 31  1  0  0  0  0
 30 28  1  0  0  0  0
M  END
>  <MODEL>
2

>  <REMARK>
 VINA RESULT:      -9.2      1.827      2.604
  Name = 
  5 active torsions:
  status: ('A' for Active; 'I' for Inactive)
    1  A    between atoms: C_1  and  N_19
    2  A    between atoms: N_2  and  C_7
    3  A    between atoms: C_7  and  C_18
    4  A    between atoms: C_14  and  N_22
    5  A    between atoms: N_22  and  C_24
                            x       y       z     vdW  Elec       q    Type
                         _______ _______ _______ _____ _____    ______ ____

>  <TORSDO>
F 5

$$$$
=
 OpenBabel10222415483D

 31 34  0  0  1  0  0  0  0  0999 V2000
  188.2620  176.7200  147.2170 O   0  0  0  0  0  0  0  0  0  0  0  0
  190.6040  177.0780  142.2190 C   0  0  0  0  0  2  0  0  0  0  0  0
  190.7160  176.5310  143.5220 O   0  0  0  0  0  0  0  0  0  0  0  0
  189.2180  177.5500  142.0680 C   0  0  0  0  0  0  0  0  0  0  0  0
  188.6280  178.2840  140.9010 C   0  0  2  0  0  3  0  0  0  0  0  0
  189.5890  177.5270  145.4230 C   0  0  1  0  0  3  0  0  0  0  0  0
  188.5650  177.3510  143.1690 C   0  0  0  0  0  0  0  0  0  0  0  0
  186.5610  178.4190  142.3270 C   0  0  0  0  0  0  0  0  0  0  0  0
  189.4540  176.6840  144.1520 C   0  0  1  0  0  3  0  0  0  0  0  0
  188.3290  177.4520  146.2410 C   0  0  0  0  0  0  0  0  0  0  0  0
  187.1150  178.2070  145.8070 C   0  0  0  0  0  2  0  0  0  0  0  0
  186.4480  177.5010  144.6360 C   0  0  0  0  0  2  0  0  0  0  0  0
  190.6870  177.1000  146.1770 O   0  0  0  0  0  1  0  0  0  0  0  0
  187.1670  177.7830  143.3480 C   0  0  0  0  0  0  0  0  0  0  0  0
  187.2530  178.6580  141.1240 O   0  0  0  0  0  0  0  0  0  0  0  0
  188.8100  177.5440  139.6420 N   0  0  0  0  0  0  0  0  0  0  0  0
  190.2490  177.5470  139.4060 C   0  0  0  0  0  1  0  0  0  0  0  0
  187.4630  175.9680  137.4580 C   0  0  0  0  0  2  0  0  0  0  0  0
  186.9910  177.3490  137.9120 C   0  0  0  0  0  2  0  0  0  0  0  0
  189.1290  178.6130  137.3920 C   0  0  0  0  0  2  0  0  0  0  0  0
  187.9540  175.9500  136.0090 C   0  0  0  0  0  2  0  0  0  0  0  0
  189.7640  177.4550  136.7750 N   0  0  0  0  0  2  0  0  0  0  0  0
  188.1390  178.1960  138.4940 C   0  0  2  0  0  3  0  0  0  0  0  0
  188.9270  177.0760  135.6450 C   0  0  0  0  0  2  0  0  0  0  0  0
  185.1350  178.8530  142.4200 C   0  0  0  0  0  2  0  0  0  0  0  0
  184.3440  178.1190  141.4460 N   0  0  0  0  0  2  0  0  0  0  0  0
  184.0880  178.6250  140.1370 C   0  0  0  0  0  0  0  0  0  0  0  0
  183.3490  177.8260  139.2120 N   0  0  0  0  0  2  0  0  0  0  0  0
  184.4980  179.7710  139.8050 O   0  0  0  0  0  0  0  0  0  0  0  0
  182.9780  178.2970  137.8850 C   0  0  0  0  0  2  0  0  0  0  0  0
  183.4270  177.2950  136.8390 C   0  0  0  0  0  1  0  0  0  0  0  0
  2  3  1  0  0  0  0
  3  9  1  0  0  0  0
  4  2  1  0  0  0  0
  4  7  2  0  0  0  0
  5 16  1  6  0  0  0
  5 15  1  0  0  0  0
  5  4  1  0  0  0  0
  6 13  1  1  0  0  0
  6 10  1  0  0  0  0
  7 14  1  0  0  0  0
  8 25  1  0  0  0  0
  8 14  2  0  0  0  0
  9  7  1  6  0  0  0
  9  6  1  0  0  0  0
 10  1  2  0  0  0  0
 11 10  1  0  0  0  0
 12 11  1  0  0  0  0
 14 12  1  0  0  0  0
 15  8  1  0  0  0  0
 17 16  1  0  0  0  0
 18 19  1  0  0  0  0
 19 23  1  0  0  0  0
 20 23  1  0  0  0  0
 21 18  1  0  0  0  0
 22 20  1  0  0  0  0
 23 16  1  1  0  0  0
 24 21  1  0  0  0  0
 24 22  1  0  0  0  0
 26 25  1  0  0  0  0
 27 26  1  0  0  0  0
 28 27  1  0  0  0  0
 29 27  2  0  0  0  0
 30 28  1  0  0  0  0
 31 30  1  0  0  0  0
M  END
>  <MODEL>
3

>  <REMARK>
 VINA RESULT:      -8.8      1.565      2.117
  Name = 
  5 active torsions:
  status: ('A' for Active; 'I' for Inactive)
    1  A    between atoms: C_1  and  N_19
    2  A    between atoms: N_2  and  C_7
    3  A    between atoms: C_7  and  C_18
    4  A    between atoms: C_14  and  N_22
    5  A    between atoms: N_22  and  C_24
                            x       y       z     vdW  Elec       q    Type
                         _______ _______ _______ _____ _____    ______ ____

>  <TORSDO>
F 5

$$$$
=
 OpenBabel10222415483D

 31 34  0  0  1  0  0  0  0  0999 V2000
  183.3800  178.6590  145.6220 O   0  0  0  0  0  0  0  0  0  0  0  0
  188.4570  178.0240  143.5230 C   0  0  0  0  0  2  0  0  0  0  0  0
  187.6520  177.9020  144.6830 O   0  0  0  0  0  0  0  0  0  0  0  0
  187.5440  178.1580  142.3770 C   0  0  0  0  0  0  0  0  0  0  0  0
  187.9100  178.4030  140.9430 C   0  0  2  0  0  3  0  0  0  0  0  0
  185.5990  179.1620  144.9470 C   0  0  1  0  0  3  0  0  0  0  0  0
  186.3160  178.1590  142.7930 C   0  0  0  0  0  0  0  0  0  0  0  0
  185.4260  178.5400  140.5720 C   0  0  0  0  0  0  0  0  0  0  0  0
  186.2990  177.9820  144.2660 C   0  0  1  0  0  3  0  0  0  0  0  0
  184.1110  179.0820  144.7390 C   0  0  0  0  0  0  0  0  0  0  0  0
  183.5270  179.4360  143.4100 C   0  0  0  0  0  2  0  0  0  0  0  0
  183.7690  178.3110  142.4140 C   0  0  0  0  0  2  0  0  0  0  0  0
  185.9000  179.1850  146.3130 O   0  0  0  0  0  1  0  0  0  0  0  0
  185.1730  178.3480  141.8810 C   0  0  0  0  0  0  0  0  0  0  0  0
  186.7520  178.5540  140.0980 O   0  0  0  0  0  0  0  0  0  0  0  0
  188.8450  177.3850  140.4370 N   0  0  0  0  0  0  0  0  0  0  0  0
  189.8070  177.1850  141.5150 C   0  0  0  0  0  1  0  0  0  0  0  0
  188.1600  176.3730  137.6850 C   0  0  0  0  0  2  0  0  0  0  0  0
  188.7060  177.7740  137.9530 C   0  0  0  0  0  2  0  0  0  0  0  0
  190.8970  177.0720  139.0250 C   0  0  0  0  0  2  0  0  0  0  0  0
  189.1060  175.5110  136.8470 C   0  0  0  0  0  2  0  0  0  0  0  0
  190.6700  175.6560  138.7600 N   0  0  0  0  0  2  0  0  0  0  0  0
  189.5720  177.8290  139.2260 C   0  0  2  0  0  3  0  0  0  0  0  0
  190.5650  175.5160  137.3140 C   0  0  0  0  0  2  0  0  0  0  0  0
  184.3190  178.7010  139.5830 C   0  0  0  0  0  2  0  0  0  0  0  0
  184.0580  180.1160  139.3790 N   0  0  0  0  0  2  0  0  0  0  0  0
  182.8570  180.5870  138.7680 C   0  0  0  0  0  0  0  0  0  0  0  0
  182.6410  181.9940  138.6490 N   0  0  0  0  0  2  0  0  0  0  0  0
  182.0040  179.7700  138.3270 O   0  0  0  0  0  0  0  0  0  0  0  0
  181.4820  182.5580  137.9720 C   0  0  0  0  0  2  0  0  0  0  0  0
  181.8230  183.9280  137.4200 C   0  0  0  0  0  1  0  0  0  0  0  0
  2  3  1  0  0  0  0
  4  7  2  0  0  0  0
  4  2  1  0  0  0  0
  5 16  1  6  0  0  0
  5  4  1  0  0  0  0
  6 13  1  1  0  0  0
  8 14  2  0  0  0  0
  9  7  1  6  0  0  0
  9  3  1  0  0  0  0
  9  6  1  0  0  0  0
 10  6  1  0  0  0  0
 10  1  2  0  0  0  0
 11 10  1  0  0  0  0
 12 11  1  0  0  0  0
 14 12  1  0  0  0  0
 14  7  1  0  0  0  0
 15  8  1  0  0  0  0
 15  5  1  0  0  0  0
 16 17  1  0  0  0  0
 18 19  1  0  0  0  0
 19 23  1  0  0  0  0
 20 23  1  0  0  0  0
 21 24  1  0  0  0  0
 21 18  1  0  0  0  0
 22 20  1  0  0  0  0
 23 16  1  1  0  0  0
 24 22  1  0  0  0  0
 25  8  1  0  0  0  0
 26 25  1  0  0  0  0
 27 26  1  0  0  0  0
 28 27  1  0  0  0  0
 29 27  2  0  0  0  0
 30 28  1  0  0  0  0
 31 30  1  0  0  0  0
M  END
>  <MODEL>
4

>  <REMARK>
 VINA RESULT:      -8.0      2.144      3.241
  Name = 
  5 active torsions:
  status: ('A' for Active; 'I' for Inactive)
    1  A    between atoms: C_1  and  N_19
    2  A    between atoms: N_2  and  C_7
    3  A    between atoms: C_7  and  C_18
    4  A    between atoms: C_14  and  N_22
    5  A    between atoms: N_22  and  C_24
                            x       y       z     vdW  Elec       q    Type
                         _______ _______ _______ _____ _____    ______ ____

>  <TORSDO>
F 5

$$$$
=
 OpenBabel10222415483D

 31 34  0  0  1  0  0  0  0  0999 V2000
  189.0210  177.5350  134.5940 O   0  0  0  0  0  0  0  0  0  0  0  0
  191.2380  176.3280  139.5150 C   0  0  0  0  0  2  0  0  0  0  0  0
  191.4920  176.4890  138.1300 O   0  0  0  0  0  0  0  0  0  0  0  0
  189.9240  176.9340  139.7840 C   0  0  0  0  0  0  0  0  0  0  0  0
  189.1730  176.9420  141.0820 C   0  0  2  0  0  3  0  0  0  0  0  0
  189.7310  176.2800  136.4780 C   0  0  1  0  0  3  0  0  0  0  0  0
  189.4130  177.3800  138.6800 C   0  0  0  0  0  0  0  0  0  0  0  0
  187.3480  178.0520  139.7540 C   0  0  0  0  0  0  0  0  0  0  0  0
  190.3670  177.1460  137.5690 C   0  0  1  0  0  3  0  0  0  0  0  0
  188.7290  177.0790  135.6890 C   0  0  0  0  0  0  0  0  0  0  0  0
  187.3980  177.3970  136.2860 C   0  0  0  0  0  2  0  0  0  0  0  0
  187.5350  178.5080  137.3160 C   0  0  0  0  0  2  0  0  0  0  0  0
  190.7160  175.7590  135.6320 O   0  0  0  0  0  1  0  0  0  0  0  0
  188.0680  177.9810  138.6180 C   0  0  0  0  0  0  0  0  0  0  0  0
  187.8780  177.5640  140.9640 O   0  0  0  0  0  0  0  0  0  0  0  0
  189.9750  177.5170  142.1740 N   0  0  0  0  0  0  0  0  0  0  0  0
  191.3140  177.6710  141.6190 C   0  0  0  0  0  1  0  0  0  0  0  0
  187.7720  177.3780  144.2220 C   0  0  0  0  0  2  0  0  0  0  0  0
  188.6620  176.1890  143.8630 C   0  0  0  0  0  2  0  0  0  0  0  0
  190.8830  177.2400  144.4980 C   0  0  0  0  0  2  0  0  0  0  0  0
  187.9420  177.8370  145.6720 C   0  0  0  0  0  2  0  0  0  0  0  0
  190.2570  178.4410  145.0370 N   0  0  0  0  0  2  0  0  0  0  0  0
  190.0480  176.6300  143.3570 C   0  0  2  0  0  3  0  0  0  0  0  0
  189.3950  178.0050  146.1270 C   0  0  0  0  0  2  0  0  0  0  0  0
  185.9940  178.6810  139.7780 C   0  0  0  0  0  2  0  0  0  0  0  0
  185.7720  179.2980  141.0750 N   0  0  0  0  0  2  0  0  0  0  0  0
  184.7790  178.8220  141.9830 C   0  0  0  0  0  0  0  0  0  0  0  0
  184.6530  179.4400  143.2650 N   0  0  0  0  0  2  0  0  0  0  0  0
  184.0150  177.8750  141.6530 O   0  0  0  0  0  0  0  0  0  0  0  0
  183.6190  179.0680  144.2200 C   0  0  0  0  0  2  0  0  0  0  0  0
  184.2350  178.8460  145.5870 C   0  0  0  0  0  1  0  0  0  0  0  0
  1 10  2  0  0  0  0
  2  4  1  0  0  0  0
  3  2  1  0  0  0  0
  4  5  1  0  0  0  0
  5 16  1  1  0  0  0
  6 13  1  6  0  0  0
  6  9  1  0  0  0  0
  7  4  2  0  0  0  0
  8 25  1  0  0  0  0
  8 15  1  0  0  0  0
  9  3  1  1  0  0  0
  9  7  1  0  0  0  0
 10 11  1  0  0  0  0
 10  6  1  0  0  0  0
 11 12  1  0  0  0  0
 12 14  1  0  0  0  0
 14  7  1  0  0  0  0
 14  8  2  0  0  0  0
 15  5  1  0  0  0  0
 17 16  1  0  0  0  0
 18 21  1  0  0  0  0
 19 18  1  0  0  0  0
 20 22  1  0  0  0  0
 21 24  1  0  0  0  0
 22 24  1  0  0  0  0
 23 16  1  6  0  0  0
 23 19  1  0  0  0  0
 23 20  1  0  0  0  0
 25 26  1  0  0  0  0
 26 27  1  0  0  0  0
 27 28  1  0  0  0  0
 28 30  1  0  0  0  0
 29 27  2  0  0  0  0
 30 31  1  0  0  0  0
M  END
>  <MODEL>
5

>  <REMARK>
 VINA RESULT:      -7.9      2.740      6.930
  Name = 
  5 active torsions:
  status: ('A' for Active; 'I' for Inactive)
    1  A    between atoms: C_1  and  N_19
    2  A    between atoms: N_2  and  C_7
    3  A    between atoms: C_7  and  C_18
    4  A    between atoms: C_14  and  N_22
    5  A    between atoms: N_22  and  C_24
                            x       y       z     vdW  Elec       q    Type
                         _______ _______ _______ _____ _____    ______ ____

>  <TORSDO>
F 5

$$$$
=
 OpenBabel10222415483D

 31 34  0  0  1  0  0  0  0  0999 V2000
  191.8560  176.6820  143.0540 O   0  0  0  0  0  0  0  0  0  0  0  0
  190.6310  177.1300  137.6790 C   0  0  0  0  0  2  0  0  0  0  0  0
  191.5280  176.5780  138.6290 O   0  0  0  0  0  0  0  0  0  0  0  0
  189.4360  177.5670  138.4200 C   0  0  0  0  0  0  0  0  0  0  0  0
  188.2420  178.2920  137.8750 C   0  0  2  0  0  3  0  0  0  0  0  0
  191.7890  177.5340  140.8410 C   0  0  1  0  0  3  0  0  0  0  0  0
  189.6000  177.3450  139.6860 C   0  0  0  0  0  0  0  0  0  0  0  0
  187.4840  178.3670  140.2720 C   0  0  0  0  0  0  0  0  0  0  0  0
  190.9160  176.6950  139.9030 C   0  0  1  0  0  3  0  0  0  0  0  0
  191.2970  177.4220  142.2580 C   0  0  0  0  0  0  0  0  0  0  0  0
  190.0600  178.1480  142.6750 C   0  0  0  0  0  2  0  0  0  0  0  0
  188.8270  177.4320  142.1460 C   0  0  0  0  0  2  0  0  0  0  0  0
  193.1250  177.1300  140.7540 O   0  0  0  0  0  1  0  0  0  0  0  0
  188.5990  177.7400  140.6940 C   0  0  0  0  0  0  0  0  0  0  0  0
  187.2880  178.6290  138.9030 O   0  0  0  0  0  0  0  0  0  0  0  0
  187.6260  177.5650  136.7540 N   0  0  0  0  0  0  0  0  0  0  0  0
  186.7760  178.5450  136.0880 C   0  0  0  0  0  1  0  0  0  0  0  0
  188.1170  174.7360  135.8470 C   0  0  0  0  0  2  0  0  0  0  0  0
  187.5430  175.0910  137.2170 C   0  0  0  0  0  2  0  0  0  0  0  0
  185.4770  176.3170  136.3980 C   0  0  0  0  0  2  0  0  0  0  0  0
  187.1370  173.9520  134.9720 C   0  0  0  0  0  2  0  0  0  0  0  0
  185.7340  175.9900  135.0010 N   0  0  0  0  0  2  0  0  0  0  0  0
  186.7840  176.4320  137.2020 C   0  0  2  0  0  3  0  0  0  0  0  0
  185.7230  174.5370  134.9060 C   0  0  0  0  0  2  0  0  0  0  0  0
  186.4080  178.7630  141.2290 C   0  0  0  0  0  2  0  0  0  0  0  0
  185.3110  179.3740  140.4950 N   0  0  0  0  0  2  0  0  0  0  0  0
  184.0160  178.7790  140.4300 C   0  0  0  0  0  0  0  0  0  0  0  0
  182.9690  179.4610  139.7370 N   0  0  0  0  0  2  0  0  0  0  0  0
  183.8020  177.6580  140.9660 O   0  0  0  0  0  0  0  0  0  0  0  0
  181.6420  178.8910  139.5580 C   0  0  0  0  0  2  0  0  0  0  0  0
  180.6090  179.7640  140.2420 C   0  0  0  0  0  1  0  0  0  0  0  0
  2  4  1  0  0  0  0
  2  3  1  0  0  0  0
  4  7  2  0  0  0  0
  5 16  1  6  0  0  0
  5  4  1  0  0  0  0
  5 15  1  0  0  0  0
  6 13  1  1  0  0  0
  6 10  1  0  0  0  0
  7  9  1  0  0  0  0
  7 14  1  0  0  0  0
  8 14  2  0  0  0  0
  8 25  1  0  0  0  0
  9  3  1  6  0  0  0
  9  6  1  0  0  0  0
 10 11  1  0  0  0  0
 10  1  2  0  0  0  0
 12 11  1  0  0  0  0
 14 12  1  0  0  0  0
 15  8  1  0  0  0  0
 17 16  1  0  0  0  0
 18 19  1  0  0  0  0
 20 23  1  0  0  0  0
 21 18  1  0  0  0  0
 22 20  1  0  0  0  0
 23 16  1  6  0  0  0
 23 19  1  0  0  0  0
 24 21  1  0  0  0  0
 24 22  1  0  0  0  0
 26 25  1  0  0  0  0
 27 26  1  0  0  0  0
 27 29  2  0  0  0  0
 28 27  1  0  0  0  0
 30 28  1  0  0  0  0
 30 31  1  0  0  0  0
M  END
>  <MODEL>
6

>  <REMARK>
 VINA RESULT:      -7.8      3.176      5.076
  Name = 
  5 active torsions:
  status: ('A' for Active; 'I' for Inactive)
    1  A    between atoms: C_1  and  N_19
    2  A    between atoms: N_2  and  C_7
    3  A    between atoms: C_7  and  C_18
    4  A    between atoms: C_14  and  N_22
    5  A    between atoms: N_22  and  C_24
                            x       y       z     vdW  Elec       q    Type
                         _______ _______ _______ _____ _____    ______ ____

>  <TORSDO>
F 5

$$$$
=
 OpenBabel10222415483D

 31 34  0  0  1  0  0  0  0  0999 V2000
  189.7320  178.2360  147.9390 O   0  0  0  0  0  0  0  0  0  0  0  0
  184.6200  178.5660  145.8550 C   0  0  0  0  0  2  0  0  0  0  0  0
  185.4460  178.8620  146.9670 O   0  0  0  0  0  0  0  0  0  0  0  0
  185.5130  178.2500  144.7280 C   0  0  0  0  0  0  0  0  0  0  0  0
  185.1200  177.7880  143.3560 C   0  0  2  0  0  3  0  0  0  0  0  0
  187.5000  177.6470  147.3880 C   0  0  1  0  0  3  0  0  0  0  0  0
  186.7470  178.3070  145.1180 C   0  0  0  0  0  0  0  0  0  0  0  0
  187.5970  177.5820  142.9680 C   0  0  0  0  0  0  0  0  0  0  0  0
  186.7910  178.7100  146.5450 C   0  0  1  0  0  3  0  0  0  0  0  0
  188.9850  177.6850  147.1450 C   0  0  0  0  0  0  0  0  0  0  0  0
  189.5440  177.1270  145.8770 C   0  0  0  0  0  2  0  0  0  0  0  0
  189.2870  178.0840  144.7230 C   0  0  0  0  0  2  0  0  0  0  0  0
  187.2230  177.8370  148.7460 O   0  0  0  0  0  1  0  0  0  0  0  0
  187.8740  177.9730  144.2270 C   0  0  0  0  0  0  0  0  0  0  0  0
  186.2630  177.5010  142.5250 O   0  0  0  0  0  0  0  0  0  0  0  0
  184.1790  178.7200  142.7140 N   0  0  0  0  0  0  0  0  0  0  0  0
  183.3930  179.2770  143.8080 C   0  0  0  0  0  1  0  0  0  0  0  0
  184.1810  179.3290  139.7650 C   0  0  0  0  0  2  0  0  0  0  0  0
  183.8400  177.9550  140.3390 C   0  0  0  0  0  2  0  0  0  0  0  0
  181.8600  178.6750  141.7540 C   0  0  0  0  0  2  0  0  0  0  0  0
  183.0030  179.9850  139.0410 C   0  0  0  0  0  2  0  0  0  0  0  0
  181.8890  180.0420  141.2510 N   0  0  0  0  0  2  0  0  0  0  0  0
  183.2640  178.0450  141.7650 C   0  0  2  0  0  3  0  0  0  0  0  0
  181.6800  179.9600  139.8120 C   0  0  0  0  0  2  0  0  0  0  0  0
  188.6850  177.2640  141.9970 C   0  0  0  0  0  2  0  0  0  0  0  0
  188.7190  178.2820  140.9600 N   0  0  0  0  0  2  0  0  0  0  0  0
  188.8640  177.9560  139.5790 C   0  0  0  0  0  0  0  0  0  0  0  0
  188.8320  179.0030  138.6070 N   0  0  0  0  0  2  0  0  0  0  0  0
  189.0300  176.7580  139.2210 O   0  0  0  0  0  0  0  0  0  0  0  0
  189.0490  178.7660  137.1870 C   0  0  0  0  0  2  0  0  0  0  0  0
  187.7150  178.6270  136.4790 C   0  0  0  0  0  1  0  0  0  0  0  0
  2  3  1  0  0  0  0
  4  7  2  0  0  0  0
  4  2  1  0  0  0  0
  5 16  1  6  0  0  0
  5  4  1  0  0  0  0
  6 13  1  1  0  0  0
  8 14  2  0  0  0  0
  9  7  1  6  0  0  0
  9  3  1  0  0  0  0
  9  6  1  0  0  0  0
 10  6  1  0  0  0  0
 10  1  2  0  0  0  0
 11 10  1  0  0  0  0
 12 11  1  0  0  0  0
 14 12  1  0  0  0  0
 14  7  1  0  0  0  0
 15  8  1  0  0  0  0
 15  5  1  0  0  0  0
 16 17  1  0  0  0  0
 18 19  1  0  0  0  0
 19 23  1  0  0  0  0
 20 23  1  0  0  0  0
 21 18  1  0  0  0  0
 21 24  1  0  0  0  0
 22 20  1  0  0  0  0
 23 16  1  1  0  0  0
 24 22  1  0  0  0  0
 25  8  1  0  0  0  0
 26 25  1  0  0  0  0
 27 26  1  0  0  0  0
 28 27  1  0  0  0  0
 29 27  2  0  0  0  0
 30 28  1  0  0  0  0
 31 30  1  0  0  0  0
M  END
>  <MODEL>
7

>  <REMARK>
 VINA RESULT:      -7.7      1.751      5.346
  Name = 
  5 active torsions:
  status: ('A' for Active; 'I' for Inactive)
    1  A    between atoms: C_1  and  N_19
    2  A    between atoms: N_2  and  C_7
    3  A    between atoms: C_7  and  C_18
    4  A    between atoms: C_14  and  N_22
    5  A    between atoms: N_22  and  C_24
                            x       y       z     vdW  Elec       q    Type
                         _______ _______ _______ _____ _____    ______ ____

>  <TORSDO>
F 5

$$$$
=
 OpenBabel10222415483D

 31 34  0  0  1  0  0  0  0  0999 V2000
  179.5650  177.5900  141.9980 O   0  0  0  0  0  0  0  0  0  0  0  0
  184.3520  179.4070  144.0880 C   0  0  0  0  0  2  0  0  0  0  0  0
  183.0500  178.9370  144.3940 O   0  0  0  0  0  0  0  0  0  0  0  0
  184.6100  179.0710  142.6780 C   0  0  0  0  0  0  0  0  0  0  0  0
  185.8140  179.4360  141.8610 C   0  0  2  0  0  3  0  0  0  0  0  0
  181.2370  179.0750  142.7920 C   0  0  1  0  0  3  0  0  0  0  0  0
  183.5670  178.4970  142.1670 C   0  0  0  0  0  0  0  0  0  0  0  0
  184.5580  178.3700  139.9600 C   0  0  0  0  0  0  0  0  0  0  0  0
  182.5230  178.3580  143.2110 C   0  0  1  0  0  3  0  0  0  0  0  0
  180.5240  178.2950  141.7210 C   0  0  0  0  0  0  0  0  0  0  0  0
  181.0470  178.3050  140.3220 C   0  0  0  0  0  2  0  0  0  0  0  0
  182.2750  177.4140  140.2140 C   0  0  0  0  0  2  0  0  0  0  0  0
  180.4000  179.2630  143.8980 O   0  0  0  0  0  1  0  0  0  0  0  0
  183.4980  178.1040  140.7470 C   0  0  0  0  0  0  0  0  0  0  0  0
  185.6980  179.0040  140.4900 O   0  0  0  0  0  0  0  0  0  0  0  0
  187.0610  178.9760  142.4910 N   0  0  0  0  0  0  0  0  0  0  0  0
  188.0890  179.1550  141.4710 C   0  0  0  0  0  1  0  0  0  0  0  0
  187.6850  178.0350  145.2830 C   0  0  0  0  0  2  0  0  0  0  0  0
  186.6850  177.3350  144.3640 C   0  0  0  0  0  2  0  0  0  0  0  0
  188.2960  176.7900  142.4810 C   0  0  0  0  0  2  0  0  0  0  0  0
  188.8950  177.1630  145.6250 C   0  0  0  0  0  2  0  0  0  0  0  0
  189.4550  177.2790  143.2170 N   0  0  0  0  0  2  0  0  0  0  0  0
  187.0150  177.5460  142.8740 C   0  0  2  0  0  3  0  0  0  0  0  0
  189.5500  176.4720  144.4250 C   0  0  0  0  0  2  0  0  0  0  0  0
  184.5770  177.9680  138.5220 C   0  0  0  0  0  2  0  0  0  0  0  0
  185.7710  178.5020  137.8880 N   0  0  0  0  0  2  0  0  0  0  0  0
  186.7720  177.6580  137.3210 C   0  0  0  0  0  0  0  0  0  0  0  0
  187.8940  178.2510  136.6640 N   0  0  0  0  0  2  0  0  0  0  0  0
  186.6740  176.4040  137.4100 O   0  0  0  0  0  0  0  0  0  0  0  0
  188.9970  177.4660  136.1270 C   0  0  0  0  0  2  0  0  0  0  0  0
  190.0410  177.2410  137.2020 C   0  0  0  0  0  1  0  0  0  0  0  0
  2  3  1  0  0  0  0
  4  2  1  0  0  0  0
  5 16  1  1  0  0  0
  5  4  1  0  0  0  0
  6  9  1  0  0  0  0
  6 13  1  1  0  0  0
  7  4  2  0  0  0  0
  8 15  1  0  0  0  0
  8 14  2  0  0  0  0
  9  7  1  6  0  0  0
  9  3  1  0  0  0  0
 10  1  2  0  0  0  0
 10  6  1  0  0  0  0
 11 10  1  0  0  0  0
 12 11  1  0  0  0  0
 12 14  1  0  0  0  0
 14  7  1  0  0  0  0
 15  5  1  0  0  0  0
 17 16  1  0  0  0  0
 18 21  1  0  0  0  0
 19 18  1  0  0  0  0
 20 23  1  0  0  0  0
 20 22  1  0  0  0  0
 22 24  1  0  0  0  0
 23 16  1  1  0  0  0
 23 19  1  0  0  0  0
 24 21  1  0  0  0  0
 25  8  1  0  0  0  0
 26 25  1  0  0  0  0
 27 29  2  0  0  0  0
 27 26  1  0  0  0  0
 28 27  1  0  0  0  0
 30 28  1  0  0  0  0
 30 31  1  0  0  0  0
M  END
>  <MODEL>
8

>  <REMARK>
 VINA RESULT:      -7.6      3.037      6.542
  Name = 
  5 active torsions:
  status: ('A' for Active; 'I' for Inactive)
    1  A    between atoms: C_1  and  N_19
    2  A    between atoms: N_2  and  C_7
    3  A    between atoms: C_7  and  C_18
    4  A    between atoms: C_14  and  N_22
    5  A    between atoms: N_22  and  C_24
                            x       y       z     vdW  Elec       q    Type
                         _______ _______ _______ _____ _____    ______ ____

>  <TORSDO>
F 5

$$$$
=
 OpenBabel10222415483D

 31 34  0  0  1  0  0  0  0  0999 V2000
  186.8220  179.3630  136.8480 O   0  0  0  0  0  0  0  0  0  0  0  0
  190.0870  175.2500  135.1120 C   0  0  0  0  0  2  0  0  0  0  0  0
  189.1560  176.2440  134.7200 O   0  0  0  0  0  0  0  0  0  0  0  0
  190.5240  175.5840  136.4770 C   0  0  0  0  0  0  0  0  0  0  0  0
  191.4360  174.7880  137.3630 C   0  0  2  0  0  3  0  0  0  0  0  0
  187.5550  177.1780  136.2800 C   0  0  1  0  0  3  0  0  0  0  0  0
  189.9000  176.6430  136.8890 C   0  0  0  0  0  0  0  0  0  0  0  0
  190.9090  176.5390  139.0890 C   0  0  0  0  0  0  0  0  0  0  0  0
  189.0120  177.1390  135.8100 C   0  0  1  0  0  3  0  0  0  0  0  0
  187.3390  178.3240  137.2310 C   0  0  0  0  0  0  0  0  0  0  0  0
  187.8430  178.2300  138.6340 C   0  0  0  0  0  2  0  0  0  0  0  0
  189.3510  178.4320  138.6650 C   0  0  0  0  0  2  0  0  0  0  0  0
  186.6920  177.2840  135.1840 O   0  0  0  0  0  1  0  0  0  0  0  0
  190.0770  177.1850  138.2490 C   0  0  0  0  0  0  0  0  0  0  0  0
  191.5890  175.3810  138.6680 O   0  0  0  0  0  0  0  0  0  0  0  0
  192.7290  174.5190  136.7130 N   0  0  0  0  0  0  0  0  0  0  0  0
  192.9570  173.0910  136.9000 C   0  0  0  0  0  1  0  0  0  0  0  0
  194.2490  176.6640  135.2450 C   0  0  0  0  0  2  0  0  0  0  0  0
  194.0180  176.6820  136.7550 C   0  0  0  0  0  2  0  0  0  0  0  0
  195.1730  174.4850  137.2880 C   0  0  0  0  0  2  0  0  0  0  0  0
  195.7260  176.5380  134.8660 C   0  0  0  0  0  2  0  0  0  0  0  0
  195.6360  174.2990  135.9180 N   0  0  0  0  0  2  0  0  0  0  0  0
  193.8470  175.2650  137.3350 C   0  0  2  0  0  3  0  0  0  0  0  0
  196.4900  175.4390  135.6110 C   0  0  0  0  0  2  0  0  0  0  0  0
  191.1680  177.0490  140.4690 C   0  0  0  0  0  2  0  0  0  0  0  0
  190.2820  176.3760  141.4050 N   0  0  0  0  0  2  0  0  0  0  0  0
  189.3460  177.0890  142.2120 C   0  0  0  0  0  0  0  0  0  0  0  0
  188.4670  176.3590  143.0700 N   0  0  0  0  0  2  0  0  0  0  0  0
  189.3030  178.3480  142.1760 O   0  0  0  0  0  0  0  0  0  0  0  0
  187.5360  177.0090  143.9810 C   0  0  0  0  0  2  0  0  0  0  0  0
  188.2600  177.4280  145.2460 C   0  0  0  0  0  1  0  0  0  0  0  0
  1 10  2  0  0  0  0
  2  4  1  0  0  0  0
  3  2  1  0  0  0  0
  4  7  2  0  0  0  0
  4  5  1  0  0  0  0
  5 16  1  6  0  0  0
  5 15  1  0  0  0  0
  6 13  1  6  0  0  0
  6 10  1  0  0  0  0
  7 14  1  0  0  0  0
  8 25  1  0  0  0  0
  9  3  1  6  0  0  0
  9  6  1  0  0  0  0
  9  7  1  0  0  0  0
 10 11  1  0  0  0  0
 11 12  1  0  0  0  0
 14 12  1  0  0  0  0
 14  8  2  0  0  0  0
 15  8  1  0  0  0  0
 16 17  1  0  0  0  0
 18 19  1  0  0  0  0
 19 23  1  0  0  0  0
 20 23  1  0  0  0  0
 21 18  1  0  0  0  0
 21 24  1  0  0  0  0
 22 20  1  0  0  0  0
 23 16  1  6  0  0  0
 24 22  1  0  0  0  0
 25 26  1  0  0  0  0
 26 27  1  0  0  0  0
 27 28  1  0  0  0  0
 28 30  1  0  0  0  0
 29 27  2  0  0  0  0
 30 31  1  0  0  0  0
M  END
>  <MODEL>
9

>  <REMARK>
 VINA RESULT:      -7.6      3.730      7.968
  Name = 
  5 active torsions:
  status: ('A' for Active; 'I' for Inactive)
    1  A    between atoms: C_1  and  N_19
    2  A    between atoms: N_2  and  C_7
    3  A    between atoms: C_7  and  C_18
    4  A    between atoms: C_14  and  N_22
    5  A    between atoms: N_22  and  C_24
                            x       y       z     vdW  Elec       q    Type
                         _______ _______ _______ _____ _____    ______ ____

>  <TORSDO>
F 5

$$$$
