=
 OpenBabel10222420513D

 48 53  0  0  1  0  0  0  0  0999 V2000
  183.9020  178.6690  141.5050 N   0  0  0  0  0  2  0  0  0  0  0  0
  187.8030  177.5300  140.4400 N   0  0  0  0  0  0  0  0  0  0  0  0
  189.0240  177.2880  140.9900 C   0  0  0  0  0  0  0  0  0  0  0  0
  186.3910  178.3280  138.6310 N   0  0  0  0  0  2  0  0  0  0  0  0
  186.7000  177.7690  144.5950 C   0  0  0  0  0  0  0  0  0  0  0  0
  185.7450  177.9700  143.5880 O   0  0  0  0  0  0  0  0  0  0  0  0
  185.5560  179.3050  146.1820 N   0  0  0  0  0  1  0  0  0  0  0  0
  190.0500  178.2460  139.0530 N   0  0  0  0  0  0  0  0  0  0  0  0
  188.7540  176.7010  145.2920 N   0  0  0  0  0  0  0  0  0  0  0  0
  185.9850  179.6580  141.1510 O   0  0  0  0  0  0  0  0  0  0  0  0
  183.7750  179.1750  142.8640 C   0  0  2  0  0  3  0  0  0  0  0  0
  187.7950  178.6980  148.3620 S   0  0  0  0  0  0  0  0  0  0  0  0
  189.1430  176.6620  142.2430 C   0  0  0  0  0  0  0  0  0  0  0  0
  191.5620  176.7750  142.0590 C   0  0  0  0  0  3  0  0  0  0  0  0
  191.4560  177.4140  140.8210 C   0  0  0  0  0  0  0  0  0  0  0  0
  187.6020  178.1310  146.7970 C   0  0  0  0  0  0  0  0  0  0  0  0
  184.3660  178.1880  143.8560 C   0  0  0  0  0  2  0  0  0  0  0  0
  184.1100  177.9350  138.7870 O   0  0  0  0  0  0  0  0  0  0  0  0
  189.2340  177.8350  148.6090 C   0  0  0  0  0  3  0  0  0  0  0  0
  189.5620  177.1220  147.5000 N   0  0  0  0  0  0  0  0  0  0  0  0
  187.8100  176.9280  144.3280 C   0  0  0  0  0  0  0  0  0  0  0  0
  186.6050  178.3950  145.8640 C   0  0  0  0  0  0  0  0  0  0  0  0
  188.8260  178.4770  138.5110 C   0  0  0  0  0  3  0  0  0  0  0  0
  190.4180  176.3940  142.7590 C   0  0  0  0  0  3  0  0  0  0  0  0
  185.0620  178.9200  140.7080 C   0  0  0  0  0  0  0  0  0  0  0  0
  187.9290  176.2240  143.0100 C   0  0  0  0  0  2  0  0  0  0  0  0
  185.1540  178.3560  139.3520 C   0  0  0  0  0  0  0  0  0  0  0  0
  188.6560  177.2940  146.5050 C   0  0  0  0  0  0  0  0  0  0  0  0
  190.1840  177.6590  140.2730 C   0  0  0  0  0  0  0  0  0  0  0  0
  187.6780  178.1240  139.2210 C   0  0  0  0  0  0  0  0  0  0  0  0
  182.3110  179.3800  143.1990 C   0  0  0  0  0  2  0  0  0  0  0  0
  181.2590  178.6060  141.9350 S   0  0  0  0  0  0  0  0  0  0  0  0
  178.9340  179.7390  142.3190 F   0  0  0  0  0  0  0  0  0  0  0  0
  180.1840  180.0640  141.8270 C   0  0  2  0  0  3  0  0  0  0  0  0
  180.0620  180.5010  140.3780 C   0  0  0  0  0  2  0  0  0  0  0  0
  180.9600  179.6690  139.4710 C   0  0  0  0  0  2  0  0  0  0  0  0
  181.7860  179.8010  137.2340 F   0  0  0  0  0  0  0  0  0  0  0  0
  180.9610  181.6590  138.1920 F   0  0  0  0  0  0  0  0  0  0  0  0
  182.9490  180.8470  138.8660 F   0  0  0  0  0  0  0  0  0  0  0  0
  181.6850  180.5040  138.4210 C   0  0  0  0  0  0  0  0  0  0  0  0
  192.7080  177.8590  140.1320 C   0  0  0  0  0  2  0  0  0  0  0  0
  193.4200  176.6920  139.4560 C   0  0  0  0  0  2  0  0  0  0  0  0
  193.3960  176.8420  138.0050 N   0  0  0  0  0  2  0  0  0  0  0  0
  192.7860  175.8930  137.1210 C   0  0  0  0  0  0  0  0  0  0  0  0
  193.0090  175.9380  135.8100 C   0  0  0  0  0  2  0  0  0  0  0  0
  190.5240  174.9930  137.5970 C   0  0  0  0  0  2  0  0  0  0  0  0
  192.0200  174.7380  137.6860 C   0  0  0  0  0  3  0  0  0  0  0  0
  191.1930  174.0840  136.5920 C   0  0  0  0  0  2  0  0  0  0  0  0
  1 11  1  0  0  0  0
  2  3  1  0  0  0  0
  3 13  1  0  0  0  0
  4 30  1  0  0  0  0
  4 27  1  0  0  0  0
  5 22  1  0  0  0  0
  6 17  1  0  0  0  0
  6  5  1  0  0  0  0
  8 29  1  0  0  0  0
  9 28  2  0  0  0  0
 11 31  1  1  0  0  0
 11 17  1  0  0  0  0
 12 19  1  0  0  0  0
 13 24  2  0  0  0  0
 13 26  1  0  0  0  0
 14 24  1  0  0  0  0
 15 14  2  0  0  0  0
 16 12  1  0  0  0  0
 18 27  2  0  0  0  0
 20 19  2  0  0  0  0
 21  5  2  0  0  0  0
 21  9  1  0  0  0  0
 22  7  1  0  0  0  0
 22 16  2  0  0  0  0
 23  8  2  0  0  0  0
 23 30  1  0  0  0  0
 25 10  2  0  0  0  0
 25  1  1  0  0  0  0
 26 21  1  0  0  0  0
 27 25  1  0  0  0  0
 28 16  1  0  0  0  0
 28 20  1  0  0  0  0
 29 15  1  0  0  0  0
 29  3  2  0  0  0  0
 30  2  2  0  0  0  0
 32 31  1  0  0  0  0
 34 32  1  0  0  0  0
 34 33  1  6  0  0  0
 35 34  1  0  0  0  0
 36 35  1  0  0  0  0
 37 40  1  0  0  0  0
 38 40  1  0  0  0  0
 40 39  1  0  0  0  0
 40 36  1  0  0  0  0
 41 15  1  0  0  0  0
 42 41  1  0  0  0  0
 43 42  1  0  0  0  0
 44 47  1  0  0  0  0
 44 43  1  0  0  0  0
 45 44  2  0  0  0  0
 46 47  1  0  0  0  0
 48 46  1  0  0  0  0
 48 47  1  0  0  0  0
M  END
>  <MODEL>
1

>  <REMARK>
 VINA RESULT:      -8.3      0.000      0.000
  Name = 
  11 active torsions:
  status: ('A' for Active; 'I' for Inactive)
    1  A    between atoms: C_3  and  C_16
    2  A    between atoms: C_3  and  S_39
    3  A    between atoms: N_4  and  C_14
    4  A    between atoms: N_4  and  C_41
    5  A    between atoms: C_14  and  C_29
    6  A    between atoms: C_18  and  C_24
    7  A    between atoms: C_18  and  C_38
    8  A    between atoms: C_22  and  C_24
    9  A    between atoms: C_22  and  S_39
   10  A    between atoms: C_23  and  C_32
   11  A    between atoms: C_32  and  C_41
                            x       y       z     vdW  Elec       q    Type
                         _______ _______ _______ _____ _____    ______ ____

>  <TORSDO>
F 11

$$$$
=
 OpenBabel10222420513D

 48 53  0  0  1  0  0  0  0  0999 V2000
  180.2670  179.4540  139.3790 N   0  0  0  0  0  2  0  0  0  0  0  0
  183.2710  179.2900  142.3110 N   0  0  0  0  0  0  0  0  0  0  0  0
  184.5480  178.8560  142.4980 C   0  0  0  0  0  0  0  0  0  0  0  0
  181.0180  179.7180  143.1130 N   0  0  0  0  0  2  0  0  0  0  0  0
  184.1760  178.1730  138.2520 C   0  0  0  0  0  0  0  0  0  0  0  0
  182.9150  178.6870  138.5900 O   0  0  0  0  0  0  0  0  0  0  0  0
  183.2670  176.7720  136.4090 N   0  0  0  0  0  1  0  0  0  0  0  0
  183.9800  178.2540  144.7420 N   0  0  0  0  0  0  0  0  0  0  0  0
  186.5470  178.0900  138.7110 N   0  0  0  0  0  0  0  0  0  0  0  0
  181.1780  177.9130  140.8750 O   0  0  0  0  0  0  0  0  0  0  0  0
  180.5260  178.6280  138.2080 C   0  0  2  0  0  3  0  0  0  0  0  0
  186.2090  175.7430  135.7600 S   0  0  0  0  0  0  0  0  0  0  0  0
  185.5030  178.9510  141.4700 C   0  0  0  0  0  0  0  0  0  0  0  0
  187.1730  177.9880  142.9470 C   0  0  0  0  0  3  0  0  0  0  0  0
  186.2280  177.8710  143.9690 C   0  0  0  0  0  0  0  0  0  0  0  0
  185.6500  176.8100  136.9260 C   0  0  0  0  0  0  0  0  0  0  0  0
  181.8960  178.9390  137.6310 C   0  0  0  0  0  2  0  0  0  0  0  0
  179.5770  180.8800  141.7150 O   0  0  0  0  0  0  0  0  0  0  0  0
  187.8200  175.8620  136.2760 C   0  0  0  0  0  3  0  0  0  0  0  0
  187.9250  176.7090  137.3320 N   0  0  0  0  0  0  0  0  0  0  0  0
  185.3020  178.5630  139.0200 C   0  0  0  0  0  0  0  0  0  0  0  0
  184.3590  177.2610  137.1820 C   0  0  0  0  0  0  0  0  0  0  0  0
  182.7110  178.6950  144.5460 C   0  0  0  0  0  3  0  0  0  0  0  0
  186.8170  178.5310  141.7130 C   0  0  0  0  0  3  0  0  0  0  0  0
  180.6550  179.0470  140.6940 C   0  0  0  0  0  0  0  0  0  0  0  0
  185.1530  179.5500  140.1390 C   0  0  0  0  0  2  0  0  0  0  0  0
  180.4000  179.9350  141.8390 C   0  0  0  0  0  0  0  0  0  0  0  0
  186.7200  177.2250  137.6840 C   0  0  0  0  0  0  0  0  0  0  0  0
  184.9130  178.3200  143.7530 C   0  0  0  0  0  0  0  0  0  0  0  0
  182.3420  179.2130  143.3040 C   0  0  0  0  0  0  0  0  0  0  0  0
  179.4800  178.9030  137.1460 C   0  0  0  0  0  2  0  0  0  0  0  0
  180.2170  178.7930  135.4890 S   0  0  0  0  0  0  0  0  0  0  0  0
  181.0460  181.1830  134.8260 F   0  0  0  0  0  0  0  0  0  0  0  0
  179.8630  180.5370  135.1310 C   0  0  2  0  0  3  0  0  0  0  0  0
  179.2280  181.1870  136.3480 C   0  0  0  0  0  2  0  0  0  0  0  0
  179.5170  182.6840  136.3910 C   0  0  0  0  0  2  0  0  0  0  0  0
  181.4060  182.1320  137.7440 F   0  0  0  0  0  0  0  0  0  0  0  0
  181.0230  184.2910  137.2530 F   0  0  0  0  0  0  0  0  0  0  0  0
  179.6800  183.2260  138.7120 F   0  0  0  0  0  0  0  0  0  0  0  0
  180.4200  183.0830  137.5520 C   0  0  0  0  0  0  0  0  0  0  0  0
  186.6370  177.2270  145.2560 C   0  0  0  0  0  2  0  0  0  0  0  0
  187.7570  178.0050  145.9410 C   0  0  0  0  0  2  0  0  0  0  0  0
  188.8500  177.1150  146.3170 N   0  0  0  0  0  2  0  0  0  0  0  0
  190.1420  177.1420  145.6960 C   0  0  0  0  0  0  0  0  0  0  0  0
  191.2340  176.8010  146.3750 C   0  0  0  0  0  2  0  0  0  0  0  0
  190.6370  178.8410  143.9590 C   0  0  0  0  0  2  0  0  0  0  0  0
  190.2540  177.3950  144.2250 C   0  0  0  0  0  3  0  0  0  0  0  0
  191.6860  177.7570  143.8720 C   0  0  0  0  0  2  0  0  0  0  0  0
  1 25  1  0  0  0  0
  2  3  1  0  0  0  0
  2 30  2  0  0  0  0
  3 29  1  0  0  0  0
  4 30  1  0  0  0  0
  5  6  1  0  0  0  0
  5 21  2  0  0  0  0
  7 22  1  0  0  0  0
  9 21  1  0  0  0  0
 11 31  1  6  0  0  0
 11  1  1  0  0  0  0
 12 19  1  0  0  0  0
 12 16  1  0  0  0  0
 13 24  1  0  0  0  0
 13  3  2  0  0  0  0
 14 15  1  0  0  0  0
 15 41  1  0  0  0  0
 16 22  2  0  0  0  0
 16 28  1  0  0  0  0
 17 11  1  0  0  0  0
 17  6  1  0  0  0  0
 18 27  2  0  0  0  0
 19 20  2  0  0  0  0
 20 28  1  0  0  0  0
 21 26  1  0  0  0  0
 22  5  1  0  0  0  0
 23  8  2  0  0  0  0
 24 14  2  0  0  0  0
 25 10  2  0  0  0  0
 25 27  1  0  0  0  0
 26 13  1  0  0  0  0
 27  4  1  0  0  0  0
 28  9  2  0  0  0  0
 29 15  2  0  0  0  0
 29  8  1  0  0  0  0
 30 23  1  0  0  0  0
 32 31  1  0  0  0  0
 34 33  1  1  0  0  0
 34 32  1  0  0  0  0
 34 35  1  0  0  0  0
 35 36  1  0  0  0  0
 36 40  1  0  0  0  0
 38 40  1  0  0  0  0
 40 37  1  0  0  0  0
 40 39  1  0  0  0  0
 41 42  1  0  0  0  0
 42 43  1  0  0  0  0
 44 43  1  0  0  0  0
 44 45  2  0  0  0  0
 46 47  1  0  0  0  0
 47 44  1  0  0  0  0
 48 46  1  0  0  0  0
 48 47  1  0  0  0  0
M  END
>  <MODEL>
2

>  <REMARK>
 VINA RESULT:      -8.1      3.457      7.241
  Name = 
  11 active torsions:
  status: ('A' for Active; 'I' for Inactive)
    1  A    between atoms: C_3  and  C_16
    2  A    between atoms: C_3  and  S_39
    3  A    between atoms: N_4  and  C_14
    4  A    between atoms: N_4  and  C_41
    5  A    between atoms: C_14  and  C_29
    6  A    between atoms: C_18  and  C_24
    7  A    between atoms: C_18  and  C_38
    8  A    between atoms: C_22  and  C_24
    9  A    between atoms: C_22  and  S_39
   10  A    between atoms: C_23  and  C_32
   11  A    between atoms: C_32  and  C_41
                            x       y       z     vdW  Elec       q    Type
                         _______ _______ _______ _____ _____    ______ ____

>  <TORSDO>
F 11

$$$$
=
 OpenBabel10222420513D

 48 53  0  0  1  0  0  0  0  0999 V2000
  182.6240  179.0510  140.6120 N   0  0  0  0  0  2  0  0  0  0  0  0
  186.3840  178.2460  142.3040 N   0  0  0  0  0  0  0  0  0  0  0  0
  187.6110  177.7570  141.9780 C   0  0  0  0  0  0  0  0  0  0  0  0
  184.5520  178.5560  143.8700 N   0  0  0  0  0  2  0  0  0  0  0  0
  185.8410  177.9330  138.0450 C   0  0  0  0  0  0  0  0  0  0  0  0
  184.8040  178.3970  138.8670 O   0  0  0  0  0  0  0  0  0  0  0  0
  184.2740  176.9430  136.3870 N   0  0  0  0  0  1  0  0  0  0  0  0
  187.7440  176.7360  144.1370 N   0  0  0  0  0  0  0  0  0  0  0  0
  188.2190  177.7090  137.6710 N   0  0  0  0  0  0  0  0  0  0  0  0
  183.8310  177.2250  141.4210 O   0  0  0  0  0  0  0  0  0  0  0  0
  182.4230  178.4660  139.2930 C   0  0  2  0  0  3  0  0  0  0  0  0
  186.7540  175.9980  134.6270 S   0  0  0  0  0  0  0  0  0  0  0  0
  188.1910  178.0320  140.7270 C   0  0  0  0  0  0  0  0  0  0  0  0
  190.1580  176.7590  141.3690 C   0  0  0  0  0  3  0  0  0  0  0  0
  189.5830  176.4640  142.6080 C   0  0  0  0  0  0  0  0  0  0  0  0
  186.6900  176.8260  136.0840 C   0  0  0  0  0  0  0  0  0  0  0  0
  183.5570  178.8560  138.3610 C   0  0  0  0  0  2  0  0  0  0  0  0
  182.8440  180.0030  143.2600 O   0  0  0  0  0  0  0  0  0  0  0  0
  188.4480  175.9780  134.5940 C   0  0  0  0  0  3  0  0  0  0  0  0
  188.9580  176.5980  135.6890 N   0  0  0  0  0  0  0  0  0  0  0  0
  187.1830  178.1390  138.4540 C   0  0  0  0  0  0  0  0  0  0  0  0
  185.5930  177.2460  136.8300 C   0  0  0  0  0  0  0  0  0  0  0  0
  186.5210  177.2340  144.4550 C   0  0  0  0  0  3  0  0  0  0  0  0
  189.4730  177.5430  140.4420 C   0  0  0  0  0  3  0  0  0  0  0  0
  183.3770  178.3840  141.6290 C   0  0  0  0  0  0  0  0  0  0  0  0
  187.4860  178.8890  139.7170 C   0  0  0  0  0  2  0  0  0  0  0  0
  183.5790  179.0340  142.9330 C   0  0  0  0  0  0  0  0  0  0  0  0
  187.9790  177.0600  136.5060 C   0  0  0  0  0  0  0  0  0  0  0  0
  188.3120  176.9750  142.9240 C   0  0  0  0  0  0  0  0  0  0  0  0
  185.8190  177.9950  143.5180 C   0  0  0  0  0  0  0  0  0  0  0  0
  181.1190  178.9680  138.7050 C   0  0  0  0  0  2  0  0  0  0  0  0
  181.1200  180.7840  138.6230 S   0  0  0  0  0  0  0  0  0  0  0  0
  181.2830  180.3090  136.0570 F   0  0  0  0  0  0  0  0  0  0  0  0
  180.3650  180.7870  136.9730 C   0  0  2  0  0  3  0  0  0  0  0  0
  179.9650  182.2030  136.5990 C   0  0  0  0  0  2  0  0  0  0  0  0
  180.4760  183.2130  137.6210 C   0  0  0  0  0  2  0  0  0  0  0  0
  180.4810  185.5490  137.1280 F   0  0  0  0  0  0  0  0  0  0  0  0
  182.4300  184.5450  137.6190 F   0  0  0  0  0  0  0  0  0  0  0  0
  181.4370  184.1410  135.6400 F   0  0  0  0  0  0  0  0  0  0  0  0
  181.2130  184.3850  136.9840 C   0  0  0  0  0  0  0  0  0  0  0  0
  190.3270  175.5700  143.5500 C   0  0  0  0  0  2  0  0  0  0  0  0
  191.6540  176.1880  143.9790 C   0  0  0  0  0  2  0  0  0  0  0  0
  191.4900  176.9700  145.1990 N   0  0  0  0  0  2  0  0  0  0  0  0
  191.2580  176.3870  146.4880 C   0  0  0  0  0  0  0  0  0  0  0  0
  192.2450  175.8010  147.1610 C   0  0  0  0  0  2  0  0  0  0  0  0
  189.9700  177.7900  148.0760 C   0  0  0  0  0  2  0  0  0  0  0  0
  189.9360  176.5770  147.1620 C   0  0  0  0  0  3  0  0  0  0  0  0
  189.3140  177.8900  146.7190 C   0  0  0  0  0  2  0  0  0  0  0  0
  1 25  1  0  0  0  0
  2 30  2  0  0  0  0
  3  2  1  0  0  0  0
  3 29  1  0  0  0  0
  5 21  2  0  0  0  0
  5  6  1  0  0  0  0
  7 22  1  0  0  0  0
  8 23  2  0  0  0  0
  9 21  1  0  0  0  0
 10 25  2  0  0  0  0
 11 31  1  6  0  0  0
 11  1  1  0  0  0  0
 12 16  1  0  0  0  0
 13  3  2  0  0  0  0
 14 15  1  0  0  0  0
 15 29  2  0  0  0  0
 15 41  1  0  0  0  0
 16 28  1  0  0  0  0
 16 22  2  0  0  0  0
 17  6  1  0  0  0  0
 17 11  1  0  0  0  0
 19 12  1  0  0  0  0
 19 20  2  0  0  0  0
 20 28  1  0  0  0  0
 21 26  1  0  0  0  0
 22  5  1  0  0  0  0
 24 13  1  0  0  0  0
 24 14  2  0  0  0  0
 25 27  1  0  0  0  0
 26 13  1  0  0  0  0
 27 18  2  0  0  0  0
 27  4  1  0  0  0  0
 28  9  2  0  0  0  0
 29  8  1  0  0  0  0
 30  4  1  0  0  0  0
 30 23  1  0  0  0  0
 32 31  1  0  0  0  0
 34 33  1  6  0  0  0
 34 32  1  0  0  0  0
 35 34  1  0  0  0  0
 35 36  1  0  0  0  0
 39 40  1  0  0  0  0
 40 37  1  0  0  0  0
 40 38  1  0  0  0  0
 40 36  1  0  0  0  0
 41 42  1  0  0  0  0
 42 43  1  0  0  0  0
 43 44  1  0  0  0  0
 44 45  2  0  0  0  0
 44 47  1  0  0  0  0
 47 46  1  0  0  0  0
 48 47  1  0  0  0  0
 48 46  1  0  0  0  0
M  END
>  <MODEL>
3

>  <REMARK>
 VINA RESULT:      -7.9      3.151      6.898
  Name = 
  11 active torsions:
  status: ('A' for Active; 'I' for Inactive)
    1  A    between atoms: C_3  and  C_16
    2  A    between atoms: C_3  and  S_39
    3  A    between atoms: N_4  and  C_14
    4  A    between atoms: N_4  and  C_41
    5  A    between atoms: C_14  and  C_29
    6  A    between atoms: C_18  and  C_24
    7  A    between atoms: C_18  and  C_38
    8  A    between atoms: C_22  and  C_24
    9  A    between atoms: C_22  and  S_39
   10  A    between atoms: C_23  and  C_32
   11  A    between atoms: C_32  and  C_41
                            x       y       z     vdW  Elec       q    Type
                         _______ _______ _______ _____ _____    ______ ____

>  <TORSDO>
F 11

$$$$
=
 OpenBabel10222420513D

 48 53  0  0  1  0  0  0  0  0999 V2000
  183.8480  178.6560  141.4780 N   0  0  0  0  0  2  0  0  0  0  0  0
  187.7490  177.4750  140.4600 N   0  0  0  0  0  0  0  0  0  0  0  0
  188.9650  177.2340  141.0220 C   0  0  0  0  0  0  0  0  0  0  0  0
  186.3560  178.2520  138.6270 N   0  0  0  0  0  2  0  0  0  0  0  0
  186.6190  177.7900  144.6020 C   0  0  0  0  0  0  0  0  0  0  0  0
  185.6720  177.9800  143.5850 O   0  0  0  0  0  0  0  0  0  0  0  0
  185.4730  179.3580  146.1550 N   0  0  0  0  0  1  0  0  0  0  0  0
  190.0110  178.1540  139.0770 N   0  0  0  0  0  0  0  0  0  0  0  0
  188.6600  176.7200  145.3310 N   0  0  0  0  0  0  0  0  0  0  0  0
  185.9400  179.6260  141.1230 O   0  0  0  0  0  0  0  0  0  0  0  0
  183.7150  179.1860  142.8280 C   0  0  2  0  0  3  0  0  0  0  0  0
  187.6930  178.7730  148.3620 S   0  0  0  0  0  0  0  0  0  0  0  0
  189.0710  176.6290  142.2870 C   0  0  0  0  0  0  0  0  0  0  0  0
  191.4920  176.7230  142.1180 C   0  0  0  0  0  3  0  0  0  0  0  0
  191.3990  177.3420  140.8690 C   0  0  0  0  0  0  0  0  0  0  0  0
  187.5070  178.1810  146.8040 C   0  0  0  0  0  0  0  0  0  0  0  0
  184.2930  178.2110  143.8400 C   0  0  0  0  0  2  0  0  0  0  0  0
  184.0710  177.8770  138.7740 O   0  0  0  0  0  0  0  0  0  0  0  0
  189.1240  177.9050  148.6320 C   0  0  0  0  0  3  0  0  0  0  0  0
  189.4560  177.1720  147.5380 N   0  0  0  0  0  0  0  0  0  0  0  0
  187.7250  176.9370  144.3570 C   0  0  0  0  0  0  0  0  0  0  0  0
  186.5180  178.4370  145.8600 C   0  0  0  0  0  0  0  0  0  0  0  0
  188.7920  178.3840  138.5230 C   0  0  0  0  0  3  0  0  0  0  0  0
  190.3410  176.3610  142.8150 C   0  0  0  0  0  3  0  0  0  0  0  0
  185.0150  178.8870  140.6850 C   0  0  0  0  0  0  0  0  0  0  0  0
  187.8490  176.2100  143.0510 C   0  0  0  0  0  2  0  0  0  0  0  0
  185.1140  178.3000  139.3390 C   0  0  0  0  0  0  0  0  0  0  0  0
  188.5570  177.3340  146.5340 C   0  0  0  0  0  0  0  0  0  0  0  0
  190.1330  177.5870  140.3080 C   0  0  0  0  0  0  0  0  0  0  0  0
  187.6370  178.0500  139.2300 C   0  0  0  0  0  0  0  0  0  0  0  0
  182.2500  179.4050  143.1490 C   0  0  0  0  0  2  0  0  0  0  0  0
  181.2590  179.3820  141.6250 S   0  0  0  0  0  0  0  0  0  0  0  0
  180.4370  177.8640  143.5890 F   0  0  0  0  0  0  0  0  0  0  0  0
  179.9660  178.3630  142.3900 C   0  0  2  0  0  3  0  0  0  0  0  0
  179.6100  177.2130  141.4650 C   0  0  0  0  0  2  0  0  0  0  0  0
  180.5000  177.2010  140.2270 C   0  0  0  0  0  2  0  0  0  0  0  0
  180.5750  175.6060  138.4520 F   0  0  0  0  0  0  0  0  0  0  0  0
  182.2520  175.6360  139.9480 F   0  0  0  0  0  0  0  0  0  0  0  0
  180.2320  174.8490  140.5540 F   0  0  0  0  0  0  0  0  0  0  0  0
  180.8880  175.7940  139.7860 C   0  0  0  0  0  0  0  0  0  0  0  0
  192.6580  177.7680  140.1820 C   0  0  0  0  0  2  0  0  0  0  0  0
  192.9060  176.9580  138.9140 C   0  0  0  0  0  2  0  0  0  0  0  0
  194.1350  176.1800  139.0280 N   0  0  0  0  0  2  0  0  0  0  0  0
  194.4650  175.0890  138.1580 C   0  0  0  0  0  0  0  0  0  0  0  0
  194.0660  175.0820  136.8890 C   0  0  0  0  0  2  0  0  0  0  0  0
  196.8330  174.3590  138.2420 C   0  0  0  0  0  2  0  0  0  0  0  0
  195.4030  174.0220  138.6280 C   0  0  0  0  0  3  0  0  0  0  0  0
  196.3610  174.5950  139.6580 C   0  0  0  0  0  2  0  0  0  0  0  0
  1 11  1  0  0  0  0
  2  3  1  0  0  0  0
  3 13  1  0  0  0  0
  4 30  1  0  0  0  0
  4 27  1  0  0  0  0
  5 22  1  0  0  0  0
  6 17  1  0  0  0  0
  6  5  1  0  0  0  0
  8 29  1  0  0  0  0
  9 28  2  0  0  0  0
 11 31  1  1  0  0  0
 11 17  1  0  0  0  0
 12 19  1  0  0  0  0
 13 24  2  0  0  0  0
 13 26  1  0  0  0  0
 14 24  1  0  0  0  0
 15 14  2  0  0  0  0
 16 12  1  0  0  0  0
 18 27  2  0  0  0  0
 20 19  2  0  0  0  0
 21  5  2  0  0  0  0
 21  9  1  0  0  0  0
 22  7  1  0  0  0  0
 22 16  2  0  0  0  0
 23  8  2  0  0  0  0
 23 30  1  0  0  0  0
 25 10  2  0  0  0  0
 25  1  1  0  0  0  0
 26 21  1  0  0  0  0
 27 25  1  0  0  0  0
 28 16  1  0  0  0  0
 28 20  1  0  0  0  0
 29 15  1  0  0  0  0
 29  3  2  0  0  0  0
 30  2  2  0  0  0  0
 32 34  1  0  0  0  0
 32 31  1  0  0  0  0
 34 33  1  1  0  0  0
 35 34  1  0  0  0  0
 36 35  1  0  0  0  0
 37 40  1  0  0  0  0
 40 38  1  0  0  0  0
 40 36  1  0  0  0  0
 40 39  1  0  0  0  0
 41 15  1  0  0  0  0
 42 43  1  0  0  0  0
 42 41  1  0  0  0  0
 44 47  1  0  0  0  0
 44 43  1  0  0  0  0
 45 44  2  0  0  0  0
 46 47  1  0  0  0  0
 46 48  1  0  0  0  0
 47 48  1  0  0  0  0
M  END
>  <MODEL>
4

>  <REMARK>
 VINA RESULT:      -7.8      1.878      2.342
  Name = 
  11 active torsions:
  status: ('A' for Active; 'I' for Inactive)
    1  A    between atoms: C_3  and  C_16
    2  A    between atoms: C_3  and  S_39
    3  A    between atoms: N_4  and  C_14
    4  A    between atoms: N_4  and  C_41
    5  A    between atoms: C_14  and  C_29
    6  A    between atoms: C_18  and  C_24
    7  A    between atoms: C_18  and  C_38
    8  A    between atoms: C_22  and  C_24
    9  A    between atoms: C_22  and  S_39
   10  A    between atoms: C_23  and  C_32
   11  A    between atoms: C_32  and  C_41
                            x       y       z     vdW  Elec       q    Type
                         _______ _______ _______ _____ _____    ______ ____

>  <TORSDO>
F 11

$$$$
=
 OpenBabel10222420513D

 48 53  0  0  1  0  0  0  0  0999 V2000
  189.7400  177.2870  138.6570 N   0  0  0  0  0  2  0  0  0  0  0  0
  185.9080  177.3520  136.9370 N   0  0  0  0  0  0  0  0  0  0  0  0
  184.5970  177.4930  137.2730 C   0  0  0  0  0  0  0  0  0  0  0  0
  187.6760  176.3940  135.5720 N   0  0  0  0  0  2  0  0  0  0  0  0
  186.4140  178.4110  141.0790 C   0  0  0  0  0  0  0  0  0  0  0  0
  187.5260  178.1400  140.2680 O   0  0  0  0  0  0  0  0  0  0  0  0
  187.5370  177.5840  143.1380 N   0  0  0  0  0  1  0  0  0  0  0  0
  184.0260  175.8900  135.5920 N   0  0  0  0  0  0  0  0  0  0  0  0
  184.1400  179.2150  141.2410 N   0  0  0  0  0  0  0  0  0  0  0  0
  187.9090  175.8650  138.3920 O   0  0  0  0  0  0  0  0  0  0  0  0
  189.7430  177.1830  140.1100 C   0  0  2  0  0  3  0  0  0  0  0  0
  184.9360  178.3010  144.8280 S   0  0  0  0  0  0  0  0  0  0  0  0
  184.2000  178.3880  138.2820 C   0  0  0  0  0  0  0  0  0  0  0  0
  181.8810  177.7770  137.9000 C   0  0  0  0  0  3  0  0  0  0  0  0
  182.2650  176.8700  136.9080 C   0  0  0  0  0  0  0  0  0  0  0  0
  185.2660  178.4690  143.1930 C   0  0  0  0  0  0  0  0  0  0  0  0
  188.8670  178.2640  140.7210 C   0  0  0  0  0  2  0  0  0  0  0  0
  189.8210  177.2380  135.8360 O   0  0  0  0  0  0  0  0  0  0  0  0
  183.3610  178.9110  144.6790 C   0  0  0  0  0  3  0  0  0  0  0  0
  183.0920  179.2370  143.3880 N   0  0  0  0  0  0  0  0  0  0  0  0
  185.2390  178.9290  140.4780 C   0  0  0  0  0  0  0  0  0  0  0  0
  186.4180  178.1650  142.4750 C   0  0  0  0  0  0  0  0  0  0  0  0
  185.3370  175.7610  135.2600 C   0  0  0  0  0  3  0  0  0  0  0  0
  182.8370  178.5340  138.5730 C   0  0  0  0  0  3  0  0  0  0  0  0
  188.7620  176.6220  137.8530 C   0  0  0  0  0  0  0  0  0  0  0  0
  185.2060  179.2320  139.0100 C   0  0  0  0  0  2  0  0  0  0  0  0
  188.7830  176.7880  136.3910 C   0  0  0  0  0  0  0  0  0  0  0  0
  184.1500  178.9860  142.5760 C   0  0  0  0  0  0  0  0  0  0  0  0
  183.6250  176.7360  136.5790 C   0  0  0  0  0  0  0  0  0  0  0  0
  186.3010  176.4970  135.9520 C   0  0  0  0  0  0  0  0  0  0  0  0
  191.1560  177.3530  140.6320 C   0  0  0  0  0  2  0  0  0  0  0  0
  191.1290  177.8520  142.3790 S   0  0  0  0  0  0  0  0  0  0  0  0
  190.0750  175.4860  142.7360 F   0  0  0  0  0  0  0  0  0  0  0  0
  191.2760  176.1350  142.9510 C   0  0  2  0  0  3  0  0  0  0  0  0
  191.6050  176.1180  144.4330 C   0  0  0  0  0  2  0  0  0  0  0  0
  191.2080  177.4290  145.1040 C   0  0  0  0  0  2  0  0  0  0  0  0
  190.4850  176.7540  147.2780 F   0  0  0  0  0  0  0  0  0  0  0  0
  189.4850  178.5150  146.3060 F   0  0  0  0  0  0  0  0  0  0  0  0
  189.0760  176.4400  145.5380 F   0  0  0  0  0  0  0  0  0  0  0  0
  190.0420  177.2720  146.0750 C   0  0  0  0  0  0  0  0  0  0  0  0
  181.2120  176.0330  136.2520 C   0  0  0  0  0  2  0  0  0  0  0  0
  180.5320  175.1040  137.2530 C   0  0  0  0  0  2  0  0  0  0  0  0
  181.4740  174.1140  137.7630 N   0  0  0  0  0  2  0  0  0  0  0  0
  181.6350  172.8080  137.1930 C   0  0  0  0  0  0  0  0  0  0  0  0
  180.6720  171.8960  137.2920 C   0  0  0  0  0  2  0  0  0  0  0  0
  184.0900  172.4550  137.1800 C   0  0  0  0  0  2  0  0  0  0  0  0
  182.8260  172.5130  136.3370 C   0  0  0  0  0  3  0  0  0  0  0  0
  183.4260  171.1740  136.7320 C   0  0  0  0  0  2  0  0  0  0  0  0
  1 11  1  0  0  0  0
  2  3  1  0  0  0  0
  3 13  1  0  0  0  0
  4 30  1  0  0  0  0
  4 27  1  0  0  0  0
  5 22  1  0  0  0  0
  6 17  1  0  0  0  0
  6  5  1  0  0  0  0
  8 29  1  0  0  0  0
  9 28  2  0  0  0  0
 11 31  1  1  0  0  0
 11 17  1  0  0  0  0
 13 24  2  0  0  0  0
 13 26  1  0  0  0  0
 14 24  1  0  0  0  0
 15 14  2  0  0  0  0
 16 12  1  0  0  0  0
 18 27  2  0  0  0  0
 19 12  1  0  0  0  0
 20 19  2  0  0  0  0
 21  5  2  0  0  0  0
 21  9  1  0  0  0  0
 22  7  1  0  0  0  0
 22 16  2  0  0  0  0
 23  8  2  0  0  0  0
 23 30  1  0  0  0  0
 25 10  2  0  0  0  0
 25  1  1  0  0  0  0
 26 21  1  0  0  0  0
 27 25  1  0  0  0  0
 28 16  1  0  0  0  0
 28 20  1  0  0  0  0
 29 15  1  0  0  0  0
 29  3  2  0  0  0  0
 30  2  2  0  0  0  0
 31 32  1  0  0  0  0
 32 34  1  0  0  0  0
 34 33  1  1  0  0  0
 34 35  1  0  0  0  0
 35 36  1  0  0  0  0
 36 40  1  0  0  0  0
 39 40  1  0  0  0  0
 40 38  1  0  0  0  0
 40 37  1  0  0  0  0
 41 15  1  0  0  0  0
 41 42  1  0  0  0  0
 42 43  1  0  0  0  0
 44 45  2  0  0  0  0
 44 43  1  0  0  0  0
 47 48  1  0  0  0  0
 47 46  1  0  0  0  0
 47 44  1  0  0  0  0
 48 46  1  0  0  0  0
M  END
>  <MODEL>
5

>  <REMARK>
 VINA RESULT:      -7.7      4.811      8.522
  Name = 
  11 active torsions:
  status: ('A' for Active; 'I' for Inactive)
    1  A    between atoms: C_3  and  C_16
    2  A    between atoms: C_3  and  S_39
    3  A    between atoms: N_4  and  C_14
    4  A    between atoms: N_4  and  C_41
    5  A    between atoms: C_14  and  C_29
    6  A    between atoms: C_18  and  C_24
    7  A    between atoms: C_18  and  C_38
    8  A    between atoms: C_22  and  C_24
    9  A    between atoms: C_22  and  S_39
   10  A    between atoms: C_23  and  C_32
   11  A    between atoms: C_32  and  C_41
                            x       y       z     vdW  Elec       q    Type
                         _______ _______ _______ _____ _____    ______ ____

>  <TORSDO>
F 11

$$$$
=
 OpenBabel10222420513D

 48 53  0  0  1  0  0  0  0  0999 V2000
  190.8740  177.0910  140.3180 N   0  0  0  0  0  2  0  0  0  0  0  0
  187.6870  177.1040  137.5820 N   0  0  0  0  0  0  0  0  0  0  0  0
  186.3350  177.2500  137.5290 C   0  0  0  0  0  0  0  0  0  0  0  0
  189.7630  176.1140  136.7990 N   0  0  0  0  0  2  0  0  0  0  0  0
  187.0050  178.2700  141.6690 C   0  0  0  0  0  0  0  0  0  0  0  0
  188.2990  177.9810  141.2130 O   0  0  0  0  0  0  0  0  0  0  0  0
  187.4950  177.5000  143.9820 N   0  0  0  0  0  1  0  0  0  0  0  0
  186.2550  175.6030  135.7970 N   0  0  0  0  0  0  0  0  0  0  0  0
  184.7820  179.0740  141.1610 N   0  0  0  0  0  0  0  0  0  0  0  0
  189.1860  175.6590  139.5820 O   0  0  0  0  0  0  0  0  0  0  0  0
  190.4650  177.0250  141.7140 C   0  0  2  0  0  3  0  0  0  0  0  0
  184.5250  178.2550  144.8480 S   0  0  0  0  0  0  0  0  0  0  0  0
  185.6730  178.1700  138.3620 C   0  0  0  0  0  0  0  0  0  0  0  0
  183.5540  177.5440  137.3540 C   0  0  0  0  0  3  0  0  0  0  0  0
  184.1980  176.6130  136.5350 C   0  0  0  0  0  0  0  0  0  0  0  0
  185.3050  178.3810  143.3700 C   0  0  0  0  0  0  0  0  0  0  0  0
  189.4580  178.1190  142.0250 C   0  0  0  0  0  2  0  0  0  0  0  0
  191.7500  176.9690  137.6370 O   0  0  0  0  0  0  0  0  0  0  0  0
  183.0600  178.8570  144.2440 C   0  0  0  0  0  3  0  0  0  0  0  0
  183.1690  179.1480  142.9220 N   0  0  0  0  0  0  0  0  0  0  0  0
  186.0500  178.7700  140.7480 C   0  0  0  0  0  0  0  0  0  0  0  0
  186.6120  178.0610  143.0160 C   0  0  0  0  0  0  0  0  0  0  0  0
  187.6050  175.4690  135.8540 C   0  0  0  0  0  3  0  0  0  0  0  0
  184.2850  178.3210  138.2510 C   0  0  0  0  0  3  0  0  0  0  0  0
  190.1610  176.4040  139.2870 C   0  0  0  0  0  0  0  0  0  0  0  0
  186.4360  179.0350  139.3230 C   0  0  0  0  0  2  0  0  0  0  0  0
  190.5960  176.5320  137.8870 C   0  0  0  0  0  0  0  0  0  0  0  0
  184.4130  178.8800  142.4490 C   0  0  0  0  0  0  0  0  0  0  0  0
  185.5950  176.4740  136.6080 C   0  0  0  0  0  0  0  0  0  0  0  0
  188.3370  176.2240  136.7710 C   0  0  0  0  0  0  0  0  0  0  0  0
  191.6740  177.2120  142.6100 C   0  0  0  0  0  2  0  0  0  0  0  0
  191.3320  178.4680  143.8790 S   0  0  0  0  0  0  0  0  0  0  0  0
  191.7270  176.0140  144.6900 F   0  0  0  0  0  0  0  0  0  0  0  0
  191.3530  177.2370  145.2130 C   0  0  2  0  0  3  0  0  0  0  0  0
  189.9680  177.1260  145.8250 C   0  0  0  0  0  2  0  0  0  0  0  0
  190.0220  177.2400  147.3440 C   0  0  0  0  0  2  0  0  0  0  0  0
  187.8960  178.2980  147.0900 F   0  0  0  0  0  0  0  0  0  0  0  0
  188.0120  176.3700  148.2390 F   0  0  0  0  0  0  0  0  0  0  0  0
  188.8320  178.2590  149.1480 F   0  0  0  0  0  0  0  0  0  0  0  0
  188.6670  177.5570  147.9680 C   0  0  0  0  0  0  0  0  0  0  0  0
  183.3690  175.7570  135.6290 C   0  0  0  0  0  2  0  0  0  0  0  0
  182.4870  174.7960  136.4200 C   0  0  0  0  0  2  0  0  0  0  0  0
  183.2680  174.0900  137.4300 N   0  0  0  0  0  2  0  0  0  0  0  0
  183.8730  172.8090  137.2100 C   0  0  0  0  0  0  0  0  0  0  0  0
  185.1800  172.6320  137.3860 C   0  0  0  0  0  2  0  0  0  0  0  0
  182.8520  171.4020  135.4410 C   0  0  0  0  0  2  0  0  0  0  0  0
  183.0110  171.6170  136.9370 C   0  0  0  0  0  3  0  0  0  0  0  0
  183.8210  170.5480  136.2230 C   0  0  0  0  0  2  0  0  0  0  0  0
  1 11  1  0  0  0  0
  3  2  1  0  0  0  0
  3 13  1  0  0  0  0
  4 27  1  0  0  0  0
  5 22  1  0  0  0  0
  6  5  1  0  0  0  0
  6 17  1  0  0  0  0
  8 23  2  0  0  0  0
  8 29  1  0  0  0  0
  9 28  2  0  0  0  0
 11 17  1  0  0  0  0
 11 31  1  1  0  0  0
 13 26  1  0  0  0  0
 14 24  1  0  0  0  0
 15 29  1  0  0  0  0
 15 14  2  0  0  0  0
 16 12  1  0  0  0  0
 18 27  2  0  0  0  0
 19 12  1  0  0  0  0
 20 19  2  0  0  0  0
 21  9  1  0  0  0  0
 21  5  2  0  0  0  0
 22 16  2  0  0  0  0
 22  7  1  0  0  0  0
 23 30  1  0  0  0  0
 24 13  2  0  0  0  0
 25 10  2  0  0  0  0
 25  1  1  0  0  0  0
 26 21  1  0  0  0  0
 27 25  1  0  0  0  0
 28 20  1  0  0  0  0
 28 16  1  0  0  0  0
 29  3  2  0  0  0  0
 30  4  1  0  0  0  0
 30  2  2  0  0  0  0
 31 32  1  0  0  0  0
 32 34  1  0  0  0  0
 34 33  1  6  0  0  0
 34 35  1  0  0  0  0
 35 36  1  0  0  0  0
 36 40  1  0  0  0  0
 37 40  1  0  0  0  0
 40 38  1  0  0  0  0
 40 39  1  0  0  0  0
 41 42  1  0  0  0  0
 41 15  1  0  0  0  0
 42 43  1  0  0  0  0
 44 45  2  0  0  0  0
 44 43  1  0  0  0  0
 46 48  1  0  0  0  0
 46 47  1  0  0  0  0
 47 44  1  0  0  0  0
 48 47  1  0  0  0  0
M  END
>  <MODEL>
6

>  <REMARK>
 VINA RESULT:      -7.6      4.851      8.148
  Name = 
  11 active torsions:
  status: ('A' for Active; 'I' for Inactive)
    1  A    between atoms: C_3  and  C_16
    2  A    between atoms: C_3  and  S_39
    3  A    between atoms: N_4  and  C_14
    4  A    between atoms: N_4  and  C_41
    5  A    between atoms: C_14  and  C_29
    6  A    between atoms: C_18  and  C_24
    7  A    between atoms: C_18  and  C_38
    8  A    between atoms: C_22  and  C_24
    9  A    between atoms: C_22  and  S_39
   10  A    between atoms: C_23  and  C_32
   11  A    between atoms: C_32  and  C_41
                            x       y       z     vdW  Elec       q    Type
                         _______ _______ _______ _____ _____    ______ ____

>  <TORSDO>
F 11

$$$$
=
 OpenBabel10222420513D

 48 53  0  0  1  0  0  0  0  0999 V2000
  182.9330  177.6030  136.7690 N   0  0  0  0  0  2  0  0  0  0  0  0
  186.1020  178.6230  139.3310 N   0  0  0  0  0  0  0  0  0  0  0  0
  187.3760  178.2570  139.6390 C   0  0  0  0  0  0  0  0  0  0  0  0
  183.9120  179.4740  139.9500 N   0  0  0  0  0  2  0  0  0  0  0  0
  186.7350  175.7650  136.1740 C   0  0  0  0  0  0  0  0  0  0  0  0
  185.5100  176.4360  136.2970 O   0  0  0  0  0  0  0  0  0  0  0  0
  185.6840  173.7330  135.1980 N   0  0  0  0  0  1  0  0  0  0  0  0
  186.9290  178.7510  141.9360 N   0  0  0  0  0  0  0  0  0  0  0  0
  189.1270  175.7800  136.5210 N   0  0  0  0  0  0  0  0  0  0  0  0
  183.8930  176.8530  138.7580 O   0  0  0  0  0  0  0  0  0  0  0  0
  183.1010  176.3290  136.0840 C   0  0  2  0  0  3  0  0  0  0  0  0
  188.5560  172.3800  134.9570 S   0  0  0  0  0  0  0  0  0  0  0  0
  188.2700  177.8350  138.6390 C   0  0  0  0  0  0  0  0  0  0  0  0
  190.0020  177.5540  140.3190 C   0  0  0  0  0  3  0  0  0  0  0  0
  189.1170  177.9540  141.3240 C   0  0  0  0  0  0  0  0  0  0  0  0
  188.0930  173.8820  135.5410 C   0  0  0  0  0  0  0  0  0  0  0  0
  184.4420  176.2820  135.3710 C   0  0  0  0  0  2  0  0  0  0  0  0
  182.4190  179.9560  138.2410 O   0  0  0  0  0  0  0  0  0  0  0  0
  190.1970  172.6380  135.2950 C   0  0  0  0  0  3  0  0  0  0  0  0
  190.3850  173.8630  135.8530 N   0  0  0  0  0  0  0  0  0  0  0  0
  187.9140  176.4020  136.6360 C   0  0  0  0  0  0  0  0  0  0  0  0
  186.8310  174.4630  135.6220 C   0  0  0  0  0  0  0  0  0  0  0  0
  185.6610  179.1200  141.6170 C   0  0  0  0  0  3  0  0  0  0  0  0
  189.5860  177.5050  138.9900 C   0  0  0  0  0  3  0  0  0  0  0  0
  183.3890  177.8100  138.1080 C   0  0  0  0  0  0  0  0  0  0  0  0
  187.8570  177.7920  137.1970 C   0  0  0  0  0  2  0  0  0  0  0  0
  183.2250  179.1280  138.7410 C   0  0  0  0  0  0  0  0  0  0  0  0
  189.2170  174.5400  135.9860 C   0  0  0  0  0  0  0  0  0  0  0  0
  187.8020  178.3220  140.9850 C   0  0  0  0  0  0  0  0  0  0  0  0
  185.2320  179.0440  140.2910 C   0  0  0  0  0  0  0  0  0  0  0  0
  182.0010  176.1510  135.0570 C   0  0  0  0  0  2  0  0  0  0  0  0
  181.4390  174.4220  135.0260 S   0  0  0  0  0  0  0  0  0  0  0  0
  182.1180  173.0360  137.1370 F   0  0  0  0  0  0  0  0  0  0  0  0
  181.5690  174.2660  136.8300 C   0  0  2  0  0  3  0  0  0  0  0  0
  180.1870  174.3760  137.4510 C   0  0  0  0  0  2  0  0  0  0  0  0
  180.0950  175.5730  138.3900 C   0  0  0  0  0  2  0  0  0  0  0  0
  179.5250  176.0410  140.6610 F   0  0  0  0  0  0  0  0  0  0  0  0
  179.8140  173.9010  140.0400 F   0  0  0  0  0  0  0  0  0  0  0  0
  181.5990  175.2600  140.2200 F   0  0  0  0  0  0  0  0  0  0  0  0
  180.2660  175.1950  139.8570 C   0  0  0  0  0  0  0  0  0  0  0  0
  189.5860  177.9350  142.7450 C   0  0  0  0  0  2  0  0  0  0  0  0
  188.7530  176.9810  143.5970 C   0  0  0  0  0  2  0  0  0  0  0  0
  189.1650  177.0420  144.9940 N   0  0  0  0  0  0  0  0  0  0  0  0
  188.2700  177.3510  146.0710 C   0  0  0  0  0  0  0  0  0  0  0  0
  187.0430  177.8050  145.8300 C   0  0  0  0  0  1  0  0  0  0  0  0
  189.3420  178.1880  148.1450 C   0  0  0  0  0  2  0  0  0  0  0  0
  188.6530  177.0100  147.4770 C   0  0  0  0  0  3  0  0  0  0  0  0
  187.8910  177.8960  148.4480 C   0  0  0  0  0  2  0  0  0  0  0  0
  1 25  1  0  0  0  0
  2  3  1  0  0  0  0
  2 30  2  0  0  0  0
  3 29  1  0  0  0  0
  4 30  1  0  0  0  0
  5  6  1  0  0  0  0
  5 21  2  0  0  0  0
  7 22  1  0  0  0  0
  9 21  1  0  0  0  0
 11 31  1  6  0  0  0
 11  1  1  0  0  0  0
 12 19  1  0  0  0  0
 12 16  1  0  0  0  0
 13 24  1  0  0  0  0
 13  3  2  0  0  0  0
 14 15  1  0  0  0  0
 15 41  1  0  0  0  0
 16 22  2  0  0  0  0
 16 28  1  0  0  0  0
 17 11  1  0  0  0  0
 17  6  1  0  0  0  0
 18 27  2  0  0  0  0
 19 20  2  0  0  0  0
 20 28  1  0  0  0  0
 21 26  1  0  0  0  0
 22  5  1  0  0  0  0
 23  8  2  0  0  0  0
 24 14  2  0  0  0  0
 25 27  1  0  0  0  0
 25 10  2  0  0  0  0
 26 13  1  0  0  0  0
 27  4  1  0  0  0  0
 28  9  2  0  0  0  0
 29 15  2  0  0  0  0
 29  8  1  0  0  0  0
 30 23  1  0  0  0  0
 32 31  1  0  0  0  0
 32 34  1  0  0  0  0
 34 33  1  6  0  0  0
 34 35  1  0  0  0  0
 35 36  1  0  0  0  0
 36 40  1  0  0  0  0
 40 38  1  0  0  0  0
 40 39  1  0  0  0  0
 40 37  1  0  0  0  0
 41 42  1  0  0  0  0
 42 43  1  0  0  0  0
 43 44  2  0  0  0  0
 44 47  1  0  0  0  0
 45 44  1  0  0  0  0
 46 48  1  0  0  0  0
 47 46  1  0  0  0  0
 47 48  1  0  0  0  0
M  END
>  <MODEL>
7

>  <REMARK>
 VINA RESULT:      -7.5      3.869      7.908
  Name = 
  11 active torsions:
  status: ('A' for Active; 'I' for Inactive)
    1  A    between atoms: C_3  and  C_16
    2  A    between atoms: C_3  and  S_39
    3  A    between atoms: N_4  and  C_14
    4  A    between atoms: N_4  and  C_41
    5  A    between atoms: C_14  and  C_29
    6  A    between atoms: C_18  and  C_24
    7  A    between atoms: C_18  and  C_38
    8  A    between atoms: C_22  and  C_24
    9  A    between atoms: C_22  and  S_39
   10  A    between atoms: C_23  and  C_32
   11  A    between atoms: C_32  and  C_41
                            x       y       z     vdW  Elec       q    Type
                         _______ _______ _______ _____ _____    ______ ____

>  <TORSDO>
F 11

$$$$
=
 OpenBabel10222420513D

 48 53  0  0  1  0  0  0  0  0999 V2000
  183.3700  179.4180  140.9440 N   0  0  0  0  0  2  0  0  0  0  0  0
  187.0710  178.1580  142.4810 N   0  0  0  0  0  0  0  0  0  0  0  0
  188.2380  177.5760  142.0920 C   0  0  0  0  0  0  0  0  0  0  0  0
  185.3120  178.5430  144.1120 N   0  0  0  0  0  2  0  0  0  0  0  0
  186.4080  178.1620  138.2270 C   0  0  0  0  0  0  0  0  0  0  0  0
  185.4380  178.6710  139.1030 O   0  0  0  0  0  0  0  0  0  0  0  0
  184.7170  177.4290  136.5570 N   0  0  0  0  0  1  0  0  0  0  0  0
  188.3190  176.4150  144.1820 N   0  0  0  0  0  0  0  0  0  0  0  0
  188.7440  177.7390  137.7740 N   0  0  0  0  0  0  0  0  0  0  0  0
  184.4140  177.4400  141.6090 O   0  0  0  0  0  0  0  0  0  0  0  0
  183.0850  178.9380  139.5990 C   0  0  2  0  0  3  0  0  0  0  0  0
  187.0560  176.3660  134.6760 S   0  0  0  0  0  0  0  0  0  0  0  0
  188.8150  177.8720  140.8440 C   0  0  0  0  0  0  0  0  0  0  0  0
  190.6640  176.3830  141.3550 C   0  0  0  0  0  3  0  0  0  0  0  0
  190.0910  176.0660  142.5890 C   0  0  0  0  0  0  0  0  0  0  0  0
  187.1040  177.1040  136.1810 C   0  0  0  0  0  0  0  0  0  0  0  0
  184.2310  179.2760  138.6610 C   0  0  0  0  0  2  0  0  0  0  0  0
  183.7380  180.1790  143.6370 O   0  0  0  0  0  0  0  0  0  0  0  0
  188.7400  176.1870  134.5940 C   0  0  0  0  0  3  0  0  0  0  0  0
  189.3310  176.6870  135.7110 N   0  0  0  0  0  0  0  0  0  0  0  0
  187.7720  178.2150  138.6100 C   0  0  0  0  0  0  0  0  0  0  0  0
  186.0690  177.5780  136.9800 C   0  0  0  0  0  0  0  0  0  0  0  0
  187.1570  177.0070  144.5620 C   0  0  0  0  0  3  0  0  0  0  0  0
  190.0370  177.2830  140.4950 C   0  0  0  0  0  3  0  0  0  0  0  0
  184.0770  178.6220  141.8980 C   0  0  0  0  0  0  0  0  0  0  0  0
  188.1730  178.8530  139.9060 C   0  0  0  0  0  2  0  0  0  0  0  0
  184.3700  179.1680  143.2330 C   0  0  0  0  0  0  0  0  0  0  0  0
  188.4180  177.1880  136.5810 C   0  0  0  0  0  0  0  0  0  0  0  0
  188.8820  176.6750  142.9700 C   0  0  0  0  0  0  0  0  0  0  0  0
  186.5120  177.8870  143.6930 C   0  0  0  0  0  0  0  0  0  0  0  0
  181.8230  179.5960  139.0780 C   0  0  0  0  0  2  0  0  0  0  0  0
  180.3530  178.7310  139.7050 S   0  0  0  0  0  0  0  0  0  0  0  0
  180.4610  181.3140  140.0960 F   0  0  0  0  0  0  0  0  0  0  0  0
  179.7280  180.2240  140.5260 C   0  0  2  0  0  3  0  0  0  0  0  0
  179.8720  180.0760  142.0300 C   0  0  0  0  0  2  0  0  0  0  0  0
  180.2360  178.6470  142.4150 C   0  0  0  0  0  2  0  0  0  0  0  0
  181.4260  178.5410  144.4830 F   0  0  0  0  0  0  0  0  0  0  0  0
  179.3210  179.3280  144.4870 F   0  0  0  0  0  0  0  0  0  0  0  0
  179.6870  177.1290  144.1770 F   0  0  0  0  0  0  0  0  0  0  0  0
  180.1710  178.3990  143.9180 C   0  0  0  0  0  0  0  0  0  0  0  0
  190.7650  175.0490  143.4550 C   0  0  0  0  0  2  0  0  0  0  0  0
  191.8640  175.6790  144.3060 C   0  0  0  0  0  2  0  0  0  0  0  0
  191.4120  175.8650  145.6800 N   0  0  0  0  0  2  0  0  0  0  0  0
  191.1030  177.1470  146.2440 C   0  0  0  0  0  0  0  0  0  0  0  0
  191.1540  178.2500  145.5020 C   0  0  0  0  0  2  0  0  0  0  0  0
  189.2850  178.0630  147.6610 C   0  0  0  0  0  2  0  0  0  0  0  0
  190.5590  177.2350  147.6350 C   0  0  0  0  0  3  0  0  0  0  0  0
  189.2020  176.5550  147.7030 C   0  0  0  0  0  2  0  0  0  0  0  0
  1 25  1  0  0  0  0
  2 30  2  0  0  0  0
  3  2  1  0  0  0  0
  3 29  1  0  0  0  0
  5 21  2  0  0  0  0
  5  6  1  0  0  0  0
  7 22  1  0  0  0  0
  8 23  2  0  0  0  0
  9 21  1  0  0  0  0
 10 25  2  0  0  0  0
 11 31  1  6  0  0  0
 11  1  1  0  0  0  0
 12 16  1  0  0  0  0
 13  3  2  0  0  0  0
 14 15  1  0  0  0  0
 15 29  2  0  0  0  0
 15 41  1  0  0  0  0
 16 28  1  0  0  0  0
 16 22  2  0  0  0  0
 17  6  1  0  0  0  0
 17 11  1  0  0  0  0
 19 12  1  0  0  0  0
 19 20  2  0  0  0  0
 20 28  1  0  0  0  0
 21 26  1  0  0  0  0
 22  5  1  0  0  0  0
 24 13  1  0  0  0  0
 24 14  2  0  0  0  0
 25 27  1  0  0  0  0
 26 13  1  0  0  0  0
 27 18  2  0  0  0  0
 27  4  1  0  0  0  0
 28  9  2  0  0  0  0
 29  8  1  0  0  0  0
 30  4  1  0  0  0  0
 30 23  1  0  0  0  0
 31 32  1  0  0  0  0
 32 34  1  0  0  0  0
 34 33  1  6  0  0  0
 34 35  1  0  0  0  0
 35 36  1  0  0  0  0
 36 40  1  0  0  0  0
 40 39  1  0  0  0  0
 40 37  1  0  0  0  0
 40 38  1  0  0  0  0
 41 42  1  0  0  0  0
 42 43  1  0  0  0  0
 43 44  1  0  0  0  0
 44 47  1  0  0  0  0
 45 44  2  0  0  0  0
 46 48  1  0  0  0  0
 47 46  1  0  0  0  0
 47 48  1  0  0  0  0
M  END
>  <MODEL>
8

>  <REMARK>
 VINA RESULT:      -7.3      2.766      6.839
  Name = 
  11 active torsions:
  status: ('A' for Active; 'I' for Inactive)
    1  A    between atoms: C_3  and  C_16
    2  A    between atoms: C_3  and  S_39
    3  A    between atoms: N_4  and  C_14
    4  A    between atoms: N_4  and  C_41
    5  A    between atoms: C_14  and  C_29
    6  A    between atoms: C_18  and  C_24
    7  A    between atoms: C_18  and  C_38
    8  A    between atoms: C_22  and  C_24
    9  A    between atoms: C_22  and  S_39
   10  A    between atoms: C_23  and  C_32
   11  A    between atoms: C_32  and  C_41
                            x       y       z     vdW  Elec       q    Type
                         _______ _______ _______ _____ _____    ______ ____

>  <TORSDO>
F 11

$$$$
=
 OpenBabel10222420513D

 48 53  0  0  1  0  0  0  0  0999 V2000
  188.0680  177.8720  137.4710 N   0  0  0  0  0  2  0  0  0  0  0  0
  183.8680  177.7900  137.5370 N   0  0  0  0  0  0  0  0  0  0  0  0
  182.8210  177.7910  138.4070 C   0  0  0  0  0  0  0  0  0  0  0  0
  184.9170  177.1130  135.4530 N   0  0  0  0  0  2  0  0  0  0  0  0
  186.0550  178.4860  141.1800 C   0  0  0  0  0  0  0  0  0  0  0  0
  186.7230  178.3850  139.9510 O   0  0  0  0  0  0  0  0  0  0  0  0
  187.9750  177.5600  142.4610 N   0  0  0  0  0  1  0  0  0  0  0  0
  181.6420  176.3140  136.9400 N   0  0  0  0  0  0  0  0  0  0  0  0
  184.0410  179.0830  142.3770 N   0  0  0  0  0  0  0  0  0  0  0  0
  186.3470  176.3380  137.8280 O   0  0  0  0  0  0  0  0  0  0  0  0
  188.6930  177.6310  138.7640 C   0  0  2  0  0  3  0  0  0  0  0  0
  186.3190  177.8990  145.1600 S   0  0  0  0  0  0  0  0  0  0  0  0
  182.8630  178.5500  139.5890 C   0  0  0  0  0  0  0  0  0  0  0  0
  180.6230  177.7920  140.1440 C   0  0  0  0  0  3  0  0  0  0  0  0
  180.5780  177.0190  138.9810 C   0  0  0  0  0  0  0  0  0  0  0  0
  185.9150  178.2480  143.5710 C   0  0  0  0  0  0  0  0  0  0  0  0
  188.1250  178.5730  139.8110 C   0  0  0  0  0  2  0  0  0  0  0  0
  186.9410  178.0990  134.8930 O   0  0  0  0  0  0  0  0  0  0  0  0
  184.8120  178.3900  145.7600 C   0  0  0  0  0  3  0  0  0  0  0  0
  184.0080  178.8150  144.7510 N   0  0  0  0  0  0  0  0  0  0  0  0
  184.7190  178.9620  141.1950 C   0  0  0  0  0  0  0  0  0  0  0  0
  186.6620  178.1090  142.4050 C   0  0  0  0  0  0  0  0  0  0  0  0
  182.6910  176.3250  136.0760 C   0  0  0  0  0  3  0  0  0  0  0  0
  181.7500  178.5570  140.4410 C   0  0  0  0  0  3  0  0  0  0  0  0
  186.8630  177.2110  137.0760 C   0  0  0  0  0  0  0  0  0  0  0  0
  184.0540  179.4000  139.9250 C   0  0  0  0  0  2  0  0  0  0  0  0
  186.2540  177.5160  135.7720 C   0  0  0  0  0  0  0  0  0  0  0  0
  184.6270  178.7300  143.5460 C   0  0  0  0  0  0  0  0  0  0  0  0
  181.6720  177.0280  138.0990 C   0  0  0  0  0  0  0  0  0  0  0  0
  183.8320  177.0670  136.3830 C   0  0  0  0  0  0  0  0  0  0  0  0
  190.1870  177.8640  138.6610 C   0  0  0  0  0  2  0  0  0  0  0  0
  191.0960  176.4680  139.3860 S   0  0  0  0  0  0  0  0  0  0  0  0
  193.2010  177.4750  140.5660 F   0  0  0  0  0  0  0  0  0  0  0  0
  191.8250  177.5140  140.6780 C   0  0  2  0  0  3  0  0  0  0  0  0
  191.4120  176.9960  142.0450 C   0  0  0  0  0  2  0  0  0  0  0  0
  191.5090  178.0890  143.1040 C   0  0  0  0  0  2  0  0  0  0  0  0
  190.0390  178.6250  144.9080 F   0  0  0  0  0  0  0  0  0  0  0  0
  190.2480  176.4750  144.2880 F   0  0  0  0  0  0  0  0  0  0  0  0
  191.9360  177.4900  145.3780 F   0  0  0  0  0  0  0  0  0  0  0  0
  190.9260  177.6690  144.4490 C   0  0  0  0  0  0  0  0  0  0  0  0
  179.3740  176.1650  138.7320 C   0  0  0  0  0  2  0  0  0  0  0  0
  179.2840  175.0180  139.7330 C   0  0  0  0  0  2  0  0  0  0  0  0
  179.1700  173.7370  139.0440 N   0  0  0  0  0  2  0  0  0  0  0  0
  179.6710  173.5040  137.7210 C   0  0  0  0  0  0  0  0  0  0  0  0
  178.9320  173.7870  136.6510 C   0  0  0  0  0  2  0  0  0  0  0  0
  181.1770  171.6380  137.0890 C   0  0  0  0  0  2  0  0  0  0  0  0
  181.0960  173.0900  137.5280 C   0  0  0  0  0  3  0  0  0  0  0  0
  181.3390  172.7410  136.0700 C   0  0  0  0  0  2  0  0  0  0  0  0
  1 11  1  0  0  0  0
  2  3  1  0  0  0  0
  3 13  1  0  0  0  0
  4 27  1  0  0  0  0
  4 30  1  0  0  0  0
  5 21  2  0  0  0  0
  5 22  1  0  0  0  0
  6  5  1  0  0  0  0
  8 29  1  0  0  0  0
  9 28  2  0  0  0  0
 11 31  1  6  0  0  0
 11 17  1  0  0  0  0
 12 19  1  0  0  0  0
 13 26  1  0  0  0  0
 13 24  2  0  0  0  0
 14 24  1  0  0  0  0
 15 14  2  0  0  0  0
 16 12  1  0  0  0  0
 17  6  1  0  0  0  0
 18 27  2  0  0  0  0
 20 19  2  0  0  0  0
 21  9  1  0  0  0  0
 22  7  1  0  0  0  0
 22 16  2  0  0  0  0
 23 30  1  0  0  0  0
 23  8  2  0  0  0  0
 25  1  1  0  0  0  0
 25 10  2  0  0  0  0
 26 21  1  0  0  0  0
 27 25  1  0  0  0  0
 28 16  1  0  0  0  0
 28 20  1  0  0  0  0
 29  3  2  0  0  0  0
 29 15  1  0  0  0  0
 30  2  2  0  0  0  0
 31 32  1  0  0  0  0
 32 34  1  0  0  0  0
 34 33  1  1  0  0  0
 34 35  1  0  0  0  0
 35 36  1  0  0  0  0
 36 40  1  0  0  0  0
 38 40  1  0  0  0  0
 40 37  1  0  0  0  0
 40 39  1  0  0  0  0
 41 15  1  0  0  0  0
 41 42  1  0  0  0  0
 43 42  1  0  0  0  0
 44 43  1  0  0  0  0
 45 44  2  0  0  0  0
 46 47  1  0  0  0  0
 47 44  1  0  0  0  0
 48 46  1  0  0  0  0
 48 47  1  0  0  0  0
M  END
>  <MODEL>
9

>  <REMARK>
 VINA RESULT:      -7.1      4.838      8.923
  Name = 
  11 active torsions:
  status: ('A' for Active; 'I' for Inactive)
    1  A    between atoms: C_3  and  C_16
    2  A    between atoms: C_3  and  S_39
    3  A    between atoms: N_4  and  C_14
    4  A    between atoms: N_4  and  C_41
    5  A    between atoms: C_14  and  C_29
    6  A    between atoms: C_18  and  C_24
    7  A    between atoms: C_18  and  C_38
    8  A    between atoms: C_22  and  C_24
    9  A    between atoms: C_22  and  S_39
   10  A    between atoms: C_23  and  C_32
   11  A    between atoms: C_32  and  C_41
                            x       y       z     vdW  Elec       q    Type
                         _______ _______ _______ _____ _____    ______ ____

>  <TORSDO>
F 11

$$$$
