=
 OpenBabel10222416463D

 45 51  0  0  1  0  0  0  0  0999 V2000
  180.3120  177.5170  142.5830 O   0  0  0  0  0  0  0  0  0  0  0  0
  181.2750  178.9990  140.9350 C   0  0  2  0  0  3  0  0  0  0  0  0
  180.9210  179.1900  139.6270 C   0  0  2  0  0  3  0  0  0  0  0  0
  185.8940  178.2510  142.4950 O   0  0  0  0  0  0  0  0  0  0  0  0
  184.3600  178.5180  144.2710 C   0  0  0  0  0  3  0  0  0  0  0  0
  182.0410  179.2610  143.9230 C   0  0  0  0  0  1  0  0  0  0  0  0
  183.0400  179.0450  139.6340 C   0  0  0  0  0  0  0  0  0  0  0  0
  182.6560  178.9270  140.9580 C   0  0  2  0  0  3  0  0  0  0  0  0
  184.3600  178.8670  139.2350 C   0  0  0  0  0  3  0  0  0  0  0  0
  179.5690  178.6340  139.3130 C   0  0  0  0  0  3  0  0  0  0  0  0
  185.3220  178.5770  140.2150 C   0  0  0  0  0  0  0  0  0  0  0  0
  185.6460  178.2310  143.8020 C   0  0  0  0  0  0  0  0  0  0  0  0
  181.9870  179.1760  138.7980 N   0  0  0  0  0  2  0  0  0  0  0  0
  179.1930  177.9480  140.5530 N   0  0  0  0  0  0  0  0  0  0  0  0
  180.2470  178.1380  141.4910 C   0  0  0  0  0  0  0  0  0  0  0  0
  183.3330  178.7740  143.3650 C   0  0  0  0  0  0  0  0  0  0  0  0
  183.6050  178.7100  141.9810 C   0  0  0  0  0  0  0  0  0  0  0  0
  184.9570  178.5000  141.5810 C   0  0  0  0  0  0  0  0  0  0  0  0
  188.7760  177.3640  146.5610 C   0  0  0  0  0  0  0  0  0  0  0  0
  186.4930  177.8810  146.0770 N   0  0  0  0  0  0  0  0  0  0  0  0
  189.0660  177.4150  145.1840 C   0  0  0  0  0  0  0  0  0  0  0  0
  189.8340  177.0560  147.5850 C   0  0  0  0  0  2  0  0  0  0  0  0
  186.7460  177.9350  144.7380 C   0  0  0  0  0  0  0  0  0  0  0  0
  191.1840  176.7660  146.9840 C   0  0  0  0  0  0  0  0  0  0  0  0
  190.4290  177.1690  144.6950 C   0  0  0  0  0  3  0  0  0  0  0  0
  187.4680  177.6060  146.9840 C   0  0  0  0  0  3  0  0  0  0  0  0
  191.4180  176.8630  145.5340 C   0  0  0  0  0  3  0  0  0  0  0  0
  188.0490  177.7040  144.2730 C   0  0  0  0  0  3  0  0  0  0  0  0
  192.1350  176.4340  147.7390 O   0  0  0  0  0  0  0  0  0  0  0  0
  186.7410  178.4030  139.7920 C   0  0  0  0  0  2  0  0  0  0  0  0
  186.8120  178.3350  138.3410 N   0  0  0  0  0  2  0  0  0  0  0  0
  188.1830  177.9930  137.9940 C   0  0  2  0  0  3  0  0  0  0  0  0
  188.6020  178.7510  136.7430 C   0  0  0  0  0  1  0  0  0  0  0  0
  188.3260  176.4690  137.8550 C   0  0  2  0  0  3  0  0  0  0  0  0
  190.7380  176.7540  138.4400 C   0  0  0  0  0  3  0  0  0  0  0  0
  189.7470  175.9880  137.8180 C   0  0  0  0  0  0  0  0  0  0  0  0
  191.4310  174.3650  137.1660 C   0  0  0  0  0  3  0  0  0  0  0  0
  190.1000  174.7890  137.1790 C   0  0  0  0  0  3  0  0  0  0  0  0
  192.0680  176.3280  138.4290 C   0  0  0  0  0  3  0  0  0  0  0  0
  192.4270  175.1280  137.7940 C   0  0  0  0  0  0  0  0  0  0  0  0
  193.7920  174.6790  137.7830 N   0  0  0  0  0  0  0  0  0  0  0  0
  194.7140  175.2860  138.5690 O   0  0  0  0  0  1  0  0  0  0  0  0
  194.2300  173.6030  136.9040 C   0  0  0  0  0  1  0  0  0  0  0  0
  186.6000  174.8410  137.3780 O   0  0  0  0  0  1  0  0  0  0  0  0
  187.4200  175.8150  136.8060 C   0  0  0  0  0  2  0  0  0  0  0  0
  2  8  1  0  0  0  0
  2 15  1  6  0  0  0
  3 10  1  6  0  0  0
  3  2  1  0  0  0  0
  4 12  1  0  0  0  0
  8  7  1  6  0  0  0
  8 17  1  0  0  0  0
  9  7  2  0  0  0  0
  9 11  1  0  0  0  0
 10 14  2  0  0  0  0
 11 18  2  0  0  0  0
 12  5  2  0  0  0  0
 12 23  1  0  0  0  0
 13  3  1  0  0  0  0
 13  7  1  0  0  0  0
 14 15  1  0  0  0  0
 15  1  2  0  0  0  0
 16  6  1  0  0  0  0
 16  5  1  0  0  0  0
 17 16  2  0  0  0  0
 18 17  1  0  0  0  0
 18  4  1  0  0  0  0
 19 26  1  0  0  0  0
 19 22  1  0  0  0  0
 20 26  2  0  0  0  0
 21 19  2  0  0  0  0
 23 20  1  0  0  0  0
 24 22  1  0  0  0  0
 24 29  2  0  0  0  0
 25 21  1  0  0  0  0
 25 27  2  0  0  0  0
 27 24  1  0  0  0  0
 28 23  2  0  0  0  0
 28 21  1  0  0  0  0
 30 11  1  0  0  0  0
 31 30  1  0  0  0  0
 32 33  1  6  0  0  0
 32 31  1  0  0  0  0
 34 45  1  6  0  0  0
 34 32  1  0  0  0  0
 36 34  1  0  0  0  0
 36 35  2  0  0  0  0
 37 38  2  0  0  0  0
 37 40  1  0  0  0  0
 38 36  1  0  0  0  0
 39 35  1  0  0  0  0
 40 39  2  0  0  0  0
 41 40  1  0  0  0  0
 41 42  1  0  0  0  0
 43 41  1  0  0  0  0
 45 44  1  0  0  0  0
M  END
>  <MODEL>
1

>  <REMARK>
 VINA RESULT:     -10.6      0.000      0.000
  Name = 
  8 active torsions:
  status: ('A' for Active; 'I' for Inactive)
    1  A    between atoms: C_1  and  C_12
    2  A    between atoms: C_1  and  N_30
    3  A    between atoms: C_9  and  C_12
    4  A    between atoms: C_12  and  C_31
    5  A    between atoms: N_16  and  C_43
    6  A    between atoms: C_17  and  C_28
    7  A    between atoms: C_24  and  C_33
    8  A    between atoms: N_30  and  C_33
                            x       y       z     vdW  Elec       q    Type
                         _______ _______ _______ _____ _____    ______ ____

>  <TORSDO>
F 8

$$$$
=
 OpenBabel10222416463D

 45 51  0  0  1  0  0  0  0  0999 V2000
  186.8690  179.0740  147.4280 O   0  0  0  0  0  0  0  0  0  0  0  0
  188.2460  177.3750  146.4000 C   0  0  2  0  0  3  0  0  0  0  0  0
  189.5360  177.0170  146.6790 C   0  0  2  0  0  3  0  0  0  0  0  0
  186.5180  178.2660  141.8670 O   0  0  0  0  0  0  0  0  0  0  0  0
  184.8190  178.2570  143.5080 C   0  0  0  0  0  3  0  0  0  0  0  0
  185.2080  177.5020  145.8180 C   0  0  0  0  0  1  0  0  0  0  0  0
  189.4180  177.1350  144.5630 C   0  0  0  0  0  0  0  0  0  0  0  0
  188.1470  177.4330  145.0210 C   0  0  0  0  0  0  0  0  0  0  0  0
  189.7560  177.2430  143.2180 C   0  0  0  0  0  3  0  0  0  0  0  0
  190.0030  177.5420  147.9990 C   0  0  0  0  0  3  0  0  0  0  0  0
  188.7660  177.6480  142.3100 C   0  0  0  0  0  0  0  0  0  0  0  0
  185.2430  178.4640  142.1910 C   0  0  0  0  0  0  0  0  0  0  0  0
  190.2930  176.9070  145.5670 N   0  0  0  0  0  2  0  0  0  0  0  0
  188.8890  178.3910  148.4350 N   0  0  0  0  0  0  0  0  0  0  0  0
  187.8720  178.3140  147.4410 C   0  0  0  0  0  0  0  0  0  0  0  0
  185.7450  177.8950  144.4850 C   0  0  0  0  0  0  0  0  0  0  0  0
  187.1060  177.7720  144.1300 C   0  0  0  0  0  0  0  0  0  0  0  0
  187.4460  177.9100  142.7540 C   0  0  2  0  0  3  0  0  0  0  0  0
  182.5390  179.6420  139.1150 C   0  0  0  0  0  0  0  0  0  0  0  0
  184.7400  179.5350  140.0440 N   0  0  0  0  0  0  0  0  0  0  0  0
  182.0450  178.9540  140.2390 C   0  0  0  0  0  0  0  0  0  0  0  0
  181.6390  180.0790  137.9920 C   0  0  0  0  0  2  0  0  0  0  0  0
  184.2880  178.8670  141.1430 C   0  0  0  0  0  0  0  0  0  0  0  0
  180.2040  179.6630  138.1770 C   0  0  0  0  0  0  0  0  0  0  0  0
  180.6160  178.6370  140.3570 C   0  0  0  0  0  3  0  0  0  0  0  0
  183.9040  179.9250  139.0430 C   0  0  0  0  0  3  0  0  0  0  0  0
  179.7560  178.9660  139.3940 C   0  0  0  0  0  3  0  0  0  0  0  0
  182.9220  178.5690  141.2550 C   0  0  0  0  0  3  0  0  0  0  0  0
  179.3670  179.9180  137.2720 O   0  0  0  0  0  0  0  0  0  0  0  0
  189.1200  177.7470  140.8650 C   0  0  0  0  0  2  0  0  0  0  0  0
  189.4410  176.4240  140.3510 N   0  0  0  0  0  2  0  0  0  0  0  0
  189.7790  176.5810  138.9450 C   0  0  2  0  0  3  0  0  0  0  0  0
  191.2130  177.0750  138.8110 C   0  0  0  0  0  1  0  0  0  0  0  0
  188.7570  177.4980  138.2560 C   0  0  2  0  0  3  0  0  0  0  0  0
  186.3120  177.4730  137.7450 C   0  0  0  0  0  3  0  0  0  0  0  0
  187.5310  176.7880  137.7610 C   0  0  0  0  0  0  0  0  0  0  0  0
  186.4240  174.8260  136.8550 C   0  0  0  0  0  3  0  0  0  0  0  0
  187.5820  175.4590  137.3150 C   0  0  0  0  0  3  0  0  0  0  0  0
  185.1550  176.8420  137.2830 C   0  0  0  0  0  3  0  0  0  0  0  0
  185.2010  175.5130  136.8310 C   0  0  0  0  0  0  0  0  0  0  0  0
  184.0170  174.8570  136.3490 N   0  0  0  0  0  0  0  0  0  0  0  0
  183.0920  175.5540  135.6450 O   0  0  0  0  0  1  0  0  0  0  0  0
  183.7550  173.4530  136.6370 C   0  0  0  0  0  1  0  0  0  0  0  0
  188.9620  179.8090  137.5640 O   0  0  0  0  0  1  0  0  0  0  0  0
  189.3410  178.5010  137.2550 C   0  0  0  0  0  2  0  0  0  0  0  0
  1 15  2  0  0  0  0
  2  8  1  6  0  0  0
  2  3  1  0  0  0  0
  2 15  1  0  0  0  0
  3 10  1  1  0  0  0
  4 12  1  0  0  0  0
  5 16  1  0  0  0  0
  7  8  2  0  0  0  0
  7 13  1  0  0  0  0
  9  7  1  0  0  0  0
 10 14  2  0  0  0  0
 11 18  1  0  0  0  0
 11  9  2  0  0  0  0
 12  5  2  0  0  0  0
 13  3  1  0  0  0  0
 15 14  1  0  0  0  0
 16  6  1  0  0  0  0
 17 16  2  0  0  0  0
 17  8  1  0  0  0  0
 18  4  1  6  0  0  0
 18 17  1  0  0  0  0
 19 21  1  0  0  0  0
 20 23  2  0  0  0  0
 21 25  1  0  0  0  0
 21 28  2  0  0  0  0
 22 24  1  0  0  0  0
 22 19  1  0  0  0  0
 23 28  1  0  0  0  0
 23 12  1  0  0  0  0
 24 27  1  0  0  0  0
 26 19  2  0  0  0  0
 26 20  1  0  0  0  0
 27 25  2  0  0  0  0
 29 24  2  0  0  0  0
 30 11  1  0  0  0  0
 31 30  1  0  0  0  0
 32 33  1  1  0  0  0
 32 31  1  0  0  0  0
 34 45  1  6  0  0  0
 34 32  1  0  0  0  0
 35 36  1  0  0  0  0
 36 34  1  0  0  0  0
 37 38  1  0  0  0  0
 38 36  2  0  0  0  0
 39 35  2  0  0  0  0
 40 37  2  0  0  0  0
 40 39  1  0  0  0  0
 41 43  1  0  0  0  0
 41 40  1  0  0  0  0
 42 41  1  0  0  0  0
 45 44  1  0  0  0  0
M  END
>  <MODEL>
2

>  <REMARK>
 VINA RESULT:     -10.3      2.690      8.134
  Name = 
  8 active torsions:
  status: ('A' for Active; 'I' for Inactive)
    1  A    between atoms: C_1  and  C_12
    2  A    between atoms: C_1  and  N_30
    3  A    between atoms: C_9  and  C_12
    4  A    between atoms: C_12  and  C_31
    5  A    between atoms: N_16  and  C_43
    6  A    between atoms: C_17  and  C_28
    7  A    between atoms: C_24  and  C_33
    8  A    between atoms: N_30  and  C_33
                            x       y       z     vdW  Elec       q    Type
                         _______ _______ _______ _____ _____    ______ ____

>  <TORSDO>
F 8

$$$$
=
 OpenBabel10222416463D

 45 51  0  0  1  0  0  0  0  0999 V2000
  180.1340  177.3520  142.7360 O   0  0  0  0  0  0  0  0  0  0  0  0
  180.9850  178.9330  141.1190 C   0  0  2  0  0  3  0  0  0  0  0  0
  180.5820  179.1590  139.8320 C   0  0  2  0  0  3  0  0  0  0  0  0
  185.6770  178.3090  142.5050 O   0  0  0  0  0  0  0  0  0  0  0  0
  184.1930  178.4460  144.3370 C   0  0  0  0  0  3  0  0  0  0  0  0
  181.8370  179.1100  144.0910 C   0  0  0  0  0  1  0  0  0  0  0  0
  182.7040  179.0980  139.7680 C   0  0  0  0  0  0  0  0  0  0  0  0
  182.3680  178.9140  141.0970 C   0  0  2  0  0  3  0  0  0  0  0  0
  184.0160  178.9880  139.3220 C   0  0  0  0  0  3  0  0  0  0  0  0
  179.2430  178.5630  139.5380 C   0  0  0  0  0  3  0  0  0  0  0  0
  185.0200  178.6990  140.2590 C   0  0  0  0  0  0  0  0  0  0  0  0
  185.4740  178.2280  143.8170 C   0  0  0  0  0  0  0  0  0  0  0  0
  181.6200  179.2200  138.9710 N   0  0  0  0  0  2  0  0  0  0  0  0
  178.9330  177.8160  140.7610 N   0  0  0  0  0  0  0  0  0  0  0  0
  180.0100  178.0110  141.6720 C   0  0  0  0  0  0  0  0  0  0  0  0
  183.1280  178.6960  143.4740 C   0  0  0  0  0  0  0  0  0  0  0  0
  183.3570  178.6960  142.0810 C   0  0  0  0  0  0  0  0  0  0  0  0
  184.7020  178.5560  141.6320 C   0  0  0  0  0  0  0  0  0  0  0  0
  188.7220  177.3900  146.4440 C   0  0  0  0  0  0  0  0  0  0  0  0
  186.4370  177.9770  146.0580 N   0  0  0  0  0  0  0  0  0  0  0  0
  188.9330  177.3480  145.0530 C   0  0  0  0  0  0  0  0  0  0  0  0
  189.8260  177.0980  147.4240 C   0  0  0  0  0  2  0  0  0  0  0  0
  186.6140  177.9410  144.7070 C   0  0  0  0  0  0  0  0  0  0  0  0
  191.1250  176.7140  146.7680 C   0  0  0  0  0  0  0  0  0  0  0  0
  190.2540  177.0140  144.5040 C   0  0  0  0  0  3  0  0  0  0  0  0
  187.4520  177.7140  146.9250 C   0  0  0  0  0  3  0  0  0  0  0  0
  191.2780  176.7160  145.3030 C   0  0  0  0  0  3  0  0  0  0  0  0
  187.8770  177.6260  144.1840 C   0  0  0  0  0  3  0  0  0  0  0  0
  192.1040  176.3860  147.4860 O   0  0  0  0  0  0  0  0  0  0  0  0
  186.4300  178.5980  139.7860 C   0  0  0  0  0  2  0  0  0  0  0  0
  186.4570  178.6000  138.3320 N   0  0  0  0  0  2  0  0  0  0  0  0
  187.1870  177.4120  137.9140 C   0  0  2  0  0  3  0  0  0  0  0  0
  188.6570  177.7530  137.7160 C   0  0  0  0  0  1  0  0  0  0  0  0
  186.5330  176.8050  136.6630 C   0  0  2  0  0  3  0  0  0  0  0  0
  184.5580  175.8080  137.8230 C   0  0  0  0  0  3  0  0  0  0  0  0
  185.0510  176.6020  136.7830 C   0  0  0  0  0  0  0  0  0  0  0  0
  182.7780  176.9870  136.0200 C   0  0  0  0  0  3  0  0  0  0  0  0
  184.1530  177.1910  135.8790 C   0  0  0  0  0  3  0  0  0  0  0  0
  183.1830  175.6060  137.9650 C   0  0  0  0  0  3  0  0  0  0  0  0
  182.2800  176.1970  137.0660 C   0  0  0  0  0  0  0  0  0  0  0  0
  180.8640  176.0000  137.2070 N   0  0  0  0  0  0  0  0  0  0  0  0
  179.9960  176.8580  136.6190 O   0  0  0  0  0  1  0  0  0  0  0  0
  180.3260  174.9130  138.0150 C   0  0  0  0  0  1  0  0  0  0  0  0
  187.4060  174.5650  136.9540 O   0  0  0  0  0  1  0  0  0  0  0  0
  187.2750  175.6160  136.0430 C   0  0  0  0  0  2  0  0  0  0  0  0
  2 15  1  6  0  0  0
  3 10  1  6  0  0  0
  3  2  1  0  0  0  0
  4 12  1  0  0  0  0
  8  7  1  6  0  0  0
  8  2  1  0  0  0  0
  8 17  1  0  0  0  0
  9  7  2  0  0  0  0
  9 11  1  0  0  0  0
 10 14  2  0  0  0  0
 11 18  2  0  0  0  0
 12  5  2  0  0  0  0
 12 23  1  0  0  0  0
 13  7  1  0  0  0  0
 13  3  1  0  0  0  0
 14 15  1  0  0  0  0
 15  1  2  0  0  0  0
 16  6  1  0  0  0  0
 16  5  1  0  0  0  0
 17 16  2  0  0  0  0
 18 17  1  0  0  0  0
 18  4  1  0  0  0  0
 19 26  1  0  0  0  0
 19 22  1  0  0  0  0
 20 26  2  0  0  0  0
 21 19  2  0  0  0  0
 23 20  1  0  0  0  0
 24 22  1  0  0  0  0
 24 29  2  0  0  0  0
 25 21  1  0  0  0  0
 25 27  2  0  0  0  0
 27 24  1  0  0  0  0
 28 23  2  0  0  0  0
 28 21  1  0  0  0  0
 30 11  1  0  0  0  0
 31 30  1  0  0  0  0
 32 33  1  6  0  0  0
 32 31  1  0  0  0  0
 34 45  1  1  0  0  0
 34 36  1  0  0  0  0
 34 32  1  0  0  0  0
 35 39  1  0  0  0  0
 36 35  2  0  0  0  0
 37 40  1  0  0  0  0
 38 37  2  0  0  0  0
 38 36  1  0  0  0  0
 40 41  1  0  0  0  0
 40 39  2  0  0  0  0
 41 43  1  0  0  0  0
 42 41  1  0  0  0  0
 45 44  1  0  0  0  0
M  END
>  <MODEL>
3

>  <REMARK>
 VINA RESULT:     -10.2      2.395      4.652
  Name = 
  8 active torsions:
  status: ('A' for Active; 'I' for Inactive)
    1  A    between atoms: C_1  and  C_12
    2  A    between atoms: C_1  and  N_30
    3  A    between atoms: C_9  and  C_12
    4  A    between atoms: C_12  and  C_31
    5  A    between atoms: N_16  and  C_43
    6  A    between atoms: C_17  and  C_28
    7  A    between atoms: C_24  and  C_33
    8  A    between atoms: N_30  and  C_33
                            x       y       z     vdW  Elec       q    Type
                         _______ _______ _______ _____ _____    ______ ____

>  <TORSDO>
F 8

$$$$
=
 OpenBabel10222416463D

 45 51  0  0  1  0  0  0  0  0999 V2000
  190.7020  174.7000  134.5970 O   0  0  0  0  0  0  0  0  0  0  0  0
  192.0700  176.0480  136.0630 C   0  0  2  0  0  3  0  0  0  0  0  0
  193.3200  175.7980  136.5570 C   0  0  2  0  0  3  0  0  0  0  0  0
  188.2390  177.5350  138.7920 O   0  0  0  0  0  0  0  0  0  0  0  0
  187.7740  177.5510  136.4760 C   0  0  0  0  0  3  0  0  0  0  0  0
  189.5150  177.2270  134.7690 C   0  0  0  0  0  1  0  0  0  0  0  0
  192.1820  176.5040  138.2050 C   0  0  0  0  0  0  0  0  0  0  0  0
  191.3220  176.5330  137.1220 C   0  0  2  0  0  3  0  0  0  0  0  0
  191.7450  176.7790  139.4960 C   0  0  0  0  0  3  0  0  0  0  0  0
  194.0180  174.7010  135.8180 C   0  0  0  0  0  3  0  0  0  0  0  0
  190.3950  177.1100  139.6880 C   0  0  0  0  0  0  0  0  0  0  0  0
  187.3620  177.7000  137.8050 C   0  0  0  0  0  0  0  0  0  0  0  0
  193.4050  176.0270  137.8840 N   0  0  0  0  0  2  0  0  0  0  0  0
  192.9870  174.2070  134.9000 N   0  0  0  0  0  0  0  0  0  0  0  0
  191.8170  174.9940  135.0980 C   0  0  0  0  0  0  0  0  0  0  0  0
  189.0870  177.1810  136.1960 C   0  0  0  0  0  0  0  0  0  0  0  0
  189.9750  176.9330  137.2640 C   0  0  0  0  0  0  0  0  0  0  0  0
  189.5100  177.1910  138.5860 C   0  0  0  0  0  0  0  0  0  0  0  0
  183.3720  178.8270  138.7890 C   0  0  0  0  0  0  0  0  0  0  0  0
  185.7310  178.9230  139.1670 N   0  0  0  0  0  0  0  0  0  0  0  0
  183.5930  177.9440  137.7150 C   0  0  0  0  0  0  0  0  0  0  0  0
  181.9890  179.2690  139.1830 C   0  0  0  0  0  2  0  0  0  0  0  0
  185.9730  178.0710  138.1310 C   0  0  0  0  0  0  0  0  0  0  0  0
  180.9070  178.7190  138.2910 C   0  0  0  0  0  0  0  0  0  0  0  0
  182.4670  177.4170  136.9340 C   0  0  0  0  0  3  0  0  0  0  0  0
  184.4700  179.3050  139.5080 C   0  0  0  0  0  3  0  0  0  0  0  0
  181.2130  177.7790  137.2000 C   0  0  0  0  0  3  0  0  0  0  0  0
  184.8960  177.5650  137.3890 C   0  0  0  0  0  3  0  0  0  0  0  0
  179.7140  179.0690  138.4840 O   0  0  0  0  0  0  0  0  0  0  0  0
  189.9260  177.4230  141.0690 C   0  0  0  0  0  2  0  0  0  0  0  0
  191.0740  177.6570  141.9310 N   0  0  0  0  0  2  0  0  0  0  0  0
  190.5750  178.2610  143.1560 C   0  0  2  0  0  3  0  0  0  0  0  0
  191.7040  178.9950  143.8660 C   0  0  0  0  0  1  0  0  0  0  0  0
  189.9000  177.1950  144.0330 C   0  0  2  0  0  3  0  0  0  0  0  0
  188.2420  177.8610  145.7780 C   0  0  0  0  0  3  0  0  0  0  0  0
  188.4970  177.5340  144.4420 C   0  0  0  0  0  0  0  0  0  0  0  0
  186.1470  177.8600  143.9280 C   0  0  0  0  0  3  0  0  0  0  0  0
  187.4420  177.5340  143.5170 C   0  0  0  0  0  3  0  0  0  0  0  0
  186.9470  178.1880  146.1880 C   0  0  0  0  0  3  0  0  0  0  0  0
  185.8880  178.1940  145.2650 C   0  0  0  0  0  0  0  0  0  0  0  0
  184.5540  178.5350  145.6770 N   0  0  0  0  0  0  0  0  0  0  0  0
  184.1810  178.3830  146.9710 O   0  0  0  0  0  1  0  0  0  0  0  0
  183.5610  179.0050  144.7200 C   0  0  0  0  0  1  0  0  0  0  0  0
  191.6880  175.7040  144.7000 O   0  0  0  0  0  1  0  0  0  0  0  0
  190.7620  176.6370  145.1720 C   0  0  0  0  0  2  0  0  0  0  0  0
  1 15  2  0  0  0  0
  2 15  1  1  0  0  0
  2  3  1  0  0  0  0
  2  8  1  0  0  0  0
  3 10  1  1  0  0  0
  3 13  1  0  0  0  0
  5 12  2  0  0  0  0
  6 16  1  0  0  0  0
  7  9  2  0  0  0  0
  8 17  1  1  0  0  0
  8  7  1  0  0  0  0
  9 11  1  0  0  0  0
 11 30  1  0  0  0  0
 12 23  1  0  0  0  0
 12  4  1  0  0  0  0
 13  7  1  0  0  0  0
 14 15  1  0  0  0  0
 14 10  2  0  0  0  0
 16  5  1  0  0  0  0
 16 17  2  0  0  0  0
 17 18  1  0  0  0  0
 18  4  1  0  0  0  0
 18 11  2  0  0  0  0
 19 22  1  0  0  0  0
 19 26  1  0  0  0  0
 20 26  2  0  0  0  0
 21 19  2  0  0  0  0
 23 20  1  0  0  0  0
 24 29  2  0  0  0  0
 24 22  1  0  0  0  0
 25 27  2  0  0  0  0
 25 21  1  0  0  0  0
 27 24  1  0  0  0  0
 28 21  1  0  0  0  0
 28 23  2  0  0  0  0
 30 31  1  0  0  0  0
 31 32  1  0  0  0  0
 32 33  1  1  0  0  0
 32 34  1  0  0  0  0
 34 36  1  0  0  0  0
 34 45  1  1  0  0  0
 35 39  1  0  0  0  0
 36 35  2  0  0  0  0
 37 40  1  0  0  0  0
 38 37  2  0  0  0  0
 38 36  1  0  0  0  0
 40 41  1  0  0  0  0
 40 39  2  0  0  0  0
 41 42  1  0  0  0  0
 43 41  1  0  0  0  0
 44 45  1  0  0  0  0
M  END
>  <MODEL>
4

>  <REMARK>
 VINA RESULT:     -10.0      2.353     10.161
  Name = 
  8 active torsions:
  status: ('A' for Active; 'I' for Inactive)
    1  A    between atoms: C_1  and  C_12
    2  A    between atoms: C_1  and  N_30
    3  A    between atoms: C_9  and  C_12
    4  A    between atoms: C_12  and  C_31
    5  A    between atoms: N_16  and  C_43
    6  A    between atoms: C_17  and  C_28
    7  A    between atoms: C_24  and  C_33
    8  A    between atoms: N_30  and  C_33
                            x       y       z     vdW  Elec       q    Type
                         _______ _______ _______ _____ _____    ______ ____

>  <TORSDO>
F 8

$$$$
=
 OpenBabel10222416463D

 45 51  0  0  1  0  0  0  0  0999 V2000
  187.8800  178.5560  147.4440 O   0  0  0  0  0  0  0  0  0  0  0  0
  189.2590  177.0490  146.1540 C   0  0  2  0  0  3  0  0  0  0  0  0
  190.5860  176.7510  146.2960 C   0  0  2  0  0  3  0  0  0  0  0  0
  187.1090  178.2350  141.8760 O   0  0  0  0  0  0  0  0  0  0  0  0
  185.5570  177.9670  143.6370 C   0  0  0  0  0  3  0  0  0  0  0  0
  186.1810  177.0330  145.8260 C   0  0  0  0  0  1  0  0  0  0  0  0
  190.2850  177.0540  144.2160 C   0  0  0  0  0  0  0  0  0  0  0  0
  189.0420  177.2260  144.7990 C   0  0  0  0  0  0  0  0  0  0  0  0
  190.5010  177.3040  142.8650 C   0  0  0  0  0  3  0  0  0  0  0  0
  191.1320  177.1840  147.6190 C   0  0  0  0  0  3  0  0  0  0  0  0
  189.4170  177.7250  142.0810 C   0  0  0  0  0  0  0  0  0  0  0  0
  185.8560  178.3190  142.3160 C   0  0  0  0  0  0  0  0  0  0  0  0
  191.2520  176.7920  145.1220 N   0  0  0  0  0  2  0  0  0  0  0  0
  190.0130  177.9170  148.2190 N   0  0  0  0  0  0  0  0  0  0  0  0
  188.9210  177.8650  147.3060 C   0  0  0  0  0  0  0  0  0  0  0  0
  186.5810  177.5790  144.4990 C   0  0  0  0  0  0  0  0  0  0  0  0
  187.9120  177.5760  144.0290 C   0  0  0  0  0  0  0  0  0  0  0  0
  188.1270  177.8600  142.6490 C   0  0  2  0  0  3  0  0  0  0  0  0
  182.8400  179.5800  139.5830 C   0  0  0  0  0  0  0  0  0  0  0  0
  185.1350  179.3300  140.2020 N   0  0  0  0  0  0  0  0  0  0  0  0
  182.4600  178.9890  140.8030 C   0  0  0  0  0  0  0  0  0  0  0  0
  181.8240  180.0400  138.5730 C   0  0  0  0  0  2  0  0  0  0  0  0
  184.7950  178.7530  141.3890 C   0  0  0  0  0  0  0  0  0  0  0  0
  180.4030  179.7550  138.9790 C   0  0  0  0  0  0  0  0  0  0  0  0
  181.0420  178.7990  141.1360 C   0  0  0  0  0  3  0  0  0  0  0  0
  184.1980  179.7430  139.3060 C   0  0  0  0  0  3  0  0  0  0  0  0
  180.0810  179.1550  140.2840 C   0  0  0  0  0  3  0  0  0  0  0  0
  183.4410  178.5770  141.7070 C   0  0  0  0  0  3  0  0  0  0  0  0
  179.4680  180.0380  138.1860 O   0  0  0  0  0  0  0  0  0  0  0  0
  189.6430  177.9770  140.6280 C   0  0  0  0  0  2  0  0  0  0  0  0
  189.3520  176.7680  139.8740 N   0  0  0  0  0  2  0  0  0  0  0  0
  189.1440  177.1650  138.4900 C   0  0  2  0  0  3  0  0  0  0  0  0
  187.7360  177.7150  138.3170 C   0  0  0  0  0  1  0  0  0  0  0  0
  189.4530  175.9880  137.5520 C   0  0  2  0  0  3  0  0  0  0  0  0
  191.8770  176.5150  137.8440 C   0  0  0  0  0  3  0  0  0  0  0  0
  190.8930  175.5660  137.5490 C   0  0  0  0  0  0  0  0  0  0  0  0
  192.6210  173.8830  137.2710 C   0  0  0  0  0  3  0  0  0  0  0  0
  191.2720  174.2460  137.2610 C   0  0  0  0  0  3  0  0  0  0  0  0
  193.2260  176.1520  137.8570 C   0  0  0  0  0  3  0  0  0  0  0  0
  193.6100  174.8310  137.5730 C   0  0  0  0  0  0  0  0  0  0  0  0
  194.9940  174.4470  137.5900 N   0  0  0  0  0  0  0  0  0  0  0  0
  195.9310  175.2540  137.0350 O   0  0  0  0  0  1  0  0  0  0  0  0
  195.4220  173.1740  138.1550 C   0  0  0  0  0  1  0  0  0  0  0  0
  187.7400  175.2130  136.0260 O   0  0  0  0  0  1  0  0  0  0  0  0
  188.8290  176.0770  136.1540 C   0  0  0  0  0  2  0  0  0  0  0  0
  2  8  1  6  0  0  0
  2  3  1  0  0  0  0
  2 15  1  0  0  0  0
  3 10  1  1  0  0  0
  4 12  1  0  0  0  0
  5 16  1  0  0  0  0
  7  8  2  0  0  0  0
  7 13  1  0  0  0  0
  9  7  1  0  0  0  0
 10 14  2  0  0  0  0
 11 18  1  0  0  0  0
 11  9  2  0  0  0  0
 12  5  2  0  0  0  0
 13  3  1  0  0  0  0
 15  1  2  0  0  0  0
 15 14  1  0  0  0  0
 16  6  1  0  0  0  0
 17 16  2  0  0  0  0
 17  8  1  0  0  0  0
 18  4  1  6  0  0  0
 18 17  1  0  0  0  0
 19 21  1  0  0  0  0
 20 23  2  0  0  0  0
 21 25  1  0  0  0  0
 21 28  2  0  0  0  0
 22 24  1  0  0  0  0
 22 19  1  0  0  0  0
 23 28  1  0  0  0  0
 23 12  1  0  0  0  0
 24 27  1  0  0  0  0
 26 19  2  0  0  0  0
 26 20  1  0  0  0  0
 27 25  2  0  0  0  0
 29 24  2  0  0  0  0
 30 11  1  0  0  0  0
 31 30  1  0  0  0  0
 32 33  1  1  0  0  0
 32 31  1  0  0  0  0
 34 45  1  6  0  0  0
 34 32  1  0  0  0  0
 35 39  1  0  0  0  0
 36 34  1  0  0  0  0
 36 35  2  0  0  0  0
 37 40  1  0  0  0  0
 38 37  2  0  0  0  0
 38 36  1  0  0  0  0
 40 41  1  0  0  0  0
 40 39  2  0  0  0  0
 41 43  1  0  0  0  0
 42 41  1  0  0  0  0
 44 45  1  0  0  0  0
M  END
>  <MODEL>
5

>  <REMARK>
 VINA RESULT:      -9.9      1.996      7.408
  Name = 
  8 active torsions:
  status: ('A' for Active; 'I' for Inactive)
    1  A    between atoms: C_1  and  C_12
    2  A    between atoms: C_1  and  N_30
    3  A    between atoms: C_9  and  C_12
    4  A    between atoms: C_12  and  C_31
    5  A    between atoms: N_16  and  C_43
    6  A    between atoms: C_17  and  C_28
    7  A    between atoms: C_24  and  C_33
    8  A    between atoms: N_30  and  C_33
                            x       y       z     vdW  Elec       q    Type
                         _______ _______ _______ _____ _____    ______ ____

>  <TORSDO>
F 8

$$$$
=
 OpenBabel10222416463D

 45 51  0  0  1  0  0  0  0  0999 V2000
  179.1980  176.8450  138.0690 O   0  0  0  0  0  0  0  0  0  0  0  0
  180.8770  177.8160  136.6280 C   0  0  2  0  0  3  0  0  0  0  0  0
  181.1410  177.5640  135.3100 C   0  0  2  0  0  3  0  0  0  0  0  0
  184.2990  177.9590  140.1780 O   0  0  0  0  0  0  0  0  0  0  0  0
  182.1670  178.6390  140.9340 C   0  0  0  0  0  3  0  0  0  0  0  0
  180.2840  179.0510  139.4040 C   0  0  0  0  0  1  0  0  0  0  0  0
  183.0310  177.5980  136.2770 C   0  0  0  0  0  0  0  0  0  0  0  0
  182.1030  177.8650  137.2680 C   0  0  2  0  0  3  0  0  0  0  0  0
  184.3780  177.4110  136.5660 C   0  0  0  0  0  3  0  0  0  0  0  0
  180.0260  176.8320  134.6340 C   0  0  0  0  0  3  0  0  0  0  0  0
  184.7970  177.5170  137.9010 C   0  0  0  0  0  0  0  0  0  0  0  0
  183.5070  178.3240  141.1830 C   0  0  0  0  0  0  0  0  0  0  0  0
  182.4570  177.3790  135.0730 N   0  0  0  0  0  2  0  0  0  0  0  0
  179.1030  176.5360  135.7340 N   0  0  0  0  0  0  0  0  0  0  0  0
  179.6560  177.0910  136.9230 C   0  0  0  0  0  0  0  0  0  0  0  0
  181.6550  178.5190  139.6440 C   0  0  0  0  0  0  0  0  0  0  0  0
  182.4960  178.0520  138.6110 C   0  0  0  0  0  0  0  0  0  0  0  0
  183.8700  177.8370  138.9230 C   0  0  0  0  0  0  0  0  0  0  0  0
  185.0620  178.6240  145.1390 C   0  0  0  0  0  0  0  0  0  0  0  0
  183.3420  179.0230  143.5280 N   0  0  0  0  0  0  0  0  0  0  0  0
  185.8350  178.0000  144.1410 C   0  0  0  0  0  0  0  0  0  0  0  0
  185.5520  178.7560  146.5550 C   0  0  0  0  0  2  0  0  0  0  0  0
  184.0680  178.4220  142.5430 C   0  0  0  0  0  0  0  0  0  0  0  0
  186.8950  178.1170  146.7880 C   0  0  0  0  0  0  0  0  0  0  0  0
  187.1610  177.4510  144.4520 C   0  0  0  0  0  3  0  0  0  0  0  0
  183.8080  179.1340  144.8010 C   0  0  0  0  0  3  0  0  0  0  0  0
  187.6560  177.5030  145.6880 C   0  0  0  0  0  3  0  0  0  0  0  0
  185.3360  177.9020  142.8410 C   0  0  0  0  0  3  0  0  0  0  0  0
  187.3790  178.1080  147.9490 O   0  0  0  0  0  0  0  0  0  0  0  0
  186.2440  177.3340  138.2110 C   0  0  0  0  0  2  0  0  0  0  0  0
  186.9100  178.6280  138.2070 N   0  0  0  0  0  2  0  0  0  0  0  0
  188.3070  178.3910  137.8780 C   0  0  2  0  0  3  0  0  0  0  0  0
  188.4760  178.3270  136.3670 C   0  0  0  0  0  1  0  0  0  0  0  0
  188.8110  177.1300  138.5970 C   0  0  2  0  0  3  0  0  0  0  0  0
  190.7210  176.9980  140.2010 C   0  0  0  0  0  3  0  0  0  0  0  0
  189.4020  177.3910  139.9510 C   0  0  0  0  0  0  0  0  0  0  0  0
  189.2460  178.2550  142.2150 C   0  0  0  0  0  3  0  0  0  0  0  0
  188.6650  178.0210  140.9660 C   0  0  0  0  0  3  0  0  0  0  0  0
  191.3020  177.2340  141.4500 C   0  0  0  0  0  3  0  0  0  0  0  0
  190.5700  177.8670  142.4670 C   0  0  0  0  0  0  0  0  0  0  0  0
  191.1610  178.1190  143.7520 N   0  0  0  0  0  0  0  0  0  0  0  0
  191.6780  179.3400  144.0360 O   0  0  0  0  0  1  0  0  0  0  0  0
  191.2640  177.0720  144.7590 C   0  0  0  0  0  1  0  0  0  0  0  0
  188.8590  175.0870  137.2990 O   0  0  0  0  0  1  0  0  0  0  0  0
  189.6330  176.1640  137.7350 C   0  0  0  0  0  2  0  0  0  0  0  0
  2 15  1  1  0  0  0
  2  8  1  0  0  0  0
  3 10  1  1  0  0  0
  3  2  1  0  0  0  0
  4 12  1  0  0  0  0
  5 12  2  0  0  0  0
  6 16  1  0  0  0  0
  7  9  2  0  0  0  0
  8  7  1  1  0  0  0
  8 17  1  0  0  0  0
  9 11  1  0  0  0  0
 10 14  2  0  0  0  0
 11 30  1  0  0  0  0
 11 18  2  0  0  0  0
 12 23  1  0  0  0  0
 13  3  1  0  0  0  0
 13  7  1  0  0  0  0
 14 15  1  0  0  0  0
 15  1  2  0  0  0  0
 16  5  1  0  0  0  0
 17 18  1  0  0  0  0
 17 16  2  0  0  0  0
 18  4  1  0  0  0  0
 19 22  1  0  0  0  0
 20 26  2  0  0  0  0
 21 25  1  0  0  0  0
 21 19  2  0  0  0  0
 22 24  1  0  0  0  0
 23 28  2  0  0  0  0
 23 20  1  0  0  0  0
 24 29  2  0  0  0  0
 25 27  2  0  0  0  0
 26 19  1  0  0  0  0
 27 24  1  0  0  0  0
 28 21  1  0  0  0  0
 31 30  1  0  0  0  0
 32 33  1  6  0  0  0
 32 31  1  0  0  0  0
 32 34  1  0  0  0  0
 34 45  1  6  0  0  0
 34 36  1  0  0  0  0
 35 39  1  0  0  0  0
 36 35  2  0  0  0  0
 36 38  1  0  0  0  0
 37 40  1  0  0  0  0
 38 37  2  0  0  0  0
 39 40  2  0  0  0  0
 40 41  1  0  0  0  0
 41 42  1  0  0  0  0
 41 43  1  0  0  0  0
 44 45  1  0  0  0  0
M  END
>  <MODEL>
6

>  <REMARK>
 VINA RESULT:      -9.8      2.686      4.250
  Name = 
  8 active torsions:
  status: ('A' for Active; 'I' for Inactive)
    1  A    between atoms: C_1  and  C_12
    2  A    between atoms: C_1  and  N_30
    3  A    between atoms: C_9  and  C_12
    4  A    between atoms: C_12  and  C_31
    5  A    between atoms: N_16  and  C_43
    6  A    between atoms: C_17  and  C_28
    7  A    between atoms: C_24  and  C_33
    8  A    between atoms: N_30  and  C_33
                            x       y       z     vdW  Elec       q    Type
                         _______ _______ _______ _____ _____    ______ ____

>  <TORSDO>
F 8

$$$$
=
 OpenBabel10222416463D

 45 51  0  0  1  0  0  0  0  0999 V2000
  187.8810  176.6390  135.2260 O   0  0  0  0  0  0  0  0  0  0  0  0
  187.4680  176.8030  137.6010 C   0  0  2  0  0  3  0  0  0  0  0  0
  186.6560  177.6660  138.2830 C   0  0  2  0  0  3  0  0  0  0  0  0
  192.1540  175.8430  138.8040 O   0  0  0  0  0  0  0  0  0  0  0  0
  191.3510  174.4520  137.0720 C   0  0  0  0  0  3  0  0  0  0  0  0
  188.9770  174.3650  136.4320 C   0  0  0  0  0  1  0  0  0  0  0  0
  188.4810  177.6180  139.3670 C   0  0  0  0  0  0  0  0  0  0  0  0
  188.6550  176.7420  138.3100 C   0  0  2  0  0  3  0  0  0  0  0  0
  189.5240  177.9440  140.2260 C   0  0  0  0  0  3  0  0  0  0  0  0
  185.6790  178.3600  137.3890 C   0  0  0  0  0  3  0  0  0  0  0  0
  190.7770  177.3490  140.0150 C   0  0  0  0  0  0  0  0  0  0  0  0
  192.3910  174.9060  137.8900 C   0  0  0  0  0  0  0  0  0  0  0  0
  187.2710  178.2180  139.3510 N   0  0  0  0  0  2  0  0  0  0  0  0
  186.0850  177.9270  136.0490 N   0  0  0  0  0  0  0  0  0  0  0  0
  187.1860  177.0360  136.1970 C   0  0  0  0  0  0  0  0  0  0  0  0
  190.0830  175.0190  137.1860 C   0  0  0  0  0  0  0  0  0  0  0  0
  189.8790  176.0670  138.1080 C   0  0  0  0  0  0  0  0  0  0  0  0
  190.9620  176.4140  138.9670 C   0  0  0  0  0  0  0  0  0  0  0  0
  196.3310  173.3040  137.6200 C   0  0  0  0  0  0  0  0  0  0  0  0
  194.7810  174.9300  138.4390 N   0  0  0  0  0  0  0  0  0  0  0  0
  195.2820  172.6740  136.9240 C   0  0  0  0  0  0  0  0  0  0  0  0
  197.7420  172.7850  137.5710 C   0  0  0  0  0  2  0  0  0  0  0  0
  193.7470  174.3380  137.7760 C   0  0  0  0  0  0  0  0  0  0  0  0
  197.8890  171.5230  136.7640 C   0  0  0  0  0  0  0  0  0  0  0  0
  195.5330  171.4730  136.1160 C   0  0  0  0  0  3  0  0  0  0  0  0
  196.0500  174.4440  138.3750 C   0  0  0  0  0  3  0  0  0  0  0  0
  196.7490  170.9330  136.0420 C   0  0  0  0  0  3  0  0  0  0  0  0
  193.9890  173.1940  137.0020 C   0  0  0  0  0  3  0  0  0  0  0  0
  199.0120  170.9590  136.7020 O   0  0  0  0  0  0  0  0  0  0  0  0
  191.8930  177.6840  140.9460 C   0  0  0  0  0  2  0  0  0  0  0  0
  191.7100  176.9720  142.2000 N   0  0  0  0  0  2  0  0  0  0  0  0
  190.8630  177.8000  143.0450 C   0  0  2  0  0  3  0  0  0  0  0  0
  191.6570  178.9940  143.5570 C   0  0  0  0  0  1  0  0  0  0  0  0
  190.2510  176.9520  144.1700 C   0  0  2  0  0  3  0  0  0  0  0  0
  188.5420  177.5610  145.8870 C   0  0  0  0  0  3  0  0  0  0  0  0
  188.8510  177.3430  144.5410 C   0  0  0  0  0  0  0  0  0  0  0  0
  186.5550  177.8660  143.9460 C   0  0  0  0  0  3  0  0  0  0  0  0
  187.8490  177.4960  143.5700 C   0  0  0  0  0  3  0  0  0  0  0  0
  187.2490  177.9330  146.2630 C   0  0  0  0  0  3  0  0  0  0  0  0
  186.2440  178.0920  145.2950 C   0  0  0  0  0  0  0  0  0  0  0  0
  184.9130  178.4800  145.6710 N   0  0  0  0  0  0  0  0  0  0  0  0
  184.5820  178.5910  146.9800 O   0  0  0  0  0  1  0  0  0  0  0  0
  183.8810  178.7180  144.6710 C   0  0  0  0  0  1  0  0  0  0  0  0
  191.9830  175.5860  145.1670 O   0  0  0  0  0  1  0  0  0  0  0  0
  191.1650  176.6970  145.3750 C   0  0  0  0  0  2  0  0  0  0  0  0
  1 15  2  0  0  0  0
  2 15  1  6  0  0  0
  2  3  1  0  0  0  0
  2  8  1  0  0  0  0
  3 10  1  6  0  0  0
  3 13  1  0  0  0  0
  4 18  1  0  0  0  0
  5 16  1  0  0  0  0
  5 12  2  0  0  0  0
  6 16  1  0  0  0  0
  7  9  2  0  0  0  0
  8 17  1  6  0  0  0
  8  7  1  0  0  0  0
 11  9  1  0  0  0  0
 11 30  1  0  0  0  0
 12  4  1  0  0  0  0
 13  7  1  0  0  0  0
 14 15  1  0  0  0  0
 14 10  2  0  0  0  0
 16 17  2  0  0  0  0
 17 18  1  0  0  0  0
 18 11  2  0  0  0  0
 19 26  1  0  0  0  0
 21 28  1  0  0  0  0
 21 19  2  0  0  0  0
 22 19  1  0  0  0  0
 23 12  1  0  0  0  0
 23 20  1  0  0  0  0
 24 22  1  0  0  0  0
 25 21  1  0  0  0  0
 26 20  2  0  0  0  0
 27 25  2  0  0  0  0
 27 24  1  0  0  0  0
 28 23  2  0  0  0  0
 29 24  2  0  0  0  0
 30 31  1  0  0  0  0
 31 32  1  0  0  0  0
 32 33  1  1  0  0  0
 32 34  1  0  0  0  0
 34 36  1  0  0  0  0
 34 45  1  1  0  0  0
 35 39  1  0  0  0  0
 36 35  2  0  0  0  0
 37 40  1  0  0  0  0
 38 37  2  0  0  0  0
 38 36  1  0  0  0  0
 40 41  1  0  0  0  0
 40 39  2  0  0  0  0
 41 42  1  0  0  0  0
 43 41  1  0  0  0  0
 44 45  1  0  0  0  0
M  END
>  <MODEL>
7

>  <REMARK>
 VINA RESULT:      -9.5      2.896      9.599
  Name = 
  8 active torsions:
  status: ('A' for Active; 'I' for Inactive)
    1  A    between atoms: C_1  and  C_12
    2  A    between atoms: C_1  and  N_30
    3  A    between atoms: C_9  and  C_12
    4  A    between atoms: C_12  and  C_31
    5  A    between atoms: N_16  and  C_43
    6  A    between atoms: C_17  and  C_28
    7  A    between atoms: C_24  and  C_33
    8  A    between atoms: N_30  and  C_33
                            x       y       z     vdW  Elec       q    Type
                         _______ _______ _______ _____ _____    ______ ____

>  <TORSDO>
F 8

$$$$
=
 OpenBabel10222416463D

 45 51  0  0  1  0  0  0  0  0999 V2000
  188.0690  178.8060  147.9640 O   0  0  0  0  0  0  0  0  0  0  0  0
  189.2020  177.1230  146.6520 C   0  0  2  0  0  3  0  0  0  0  0  0
  190.5290  176.7930  146.6230 C   0  0  2  0  0  3  0  0  0  0  0  0
  186.4430  177.9350  142.6450 O   0  0  0  0  0  0  0  0  0  0  0  0
  185.1760  177.9100  144.6380 C   0  0  0  0  0  3  0  0  0  0  0  0
  186.1100  177.1870  146.7970 C   0  0  0  0  0  1  0  0  0  0  0  0
  189.9170  176.8870  144.5920 C   0  0  0  0  0  0  0  0  0  0  0  0
  188.7820  177.1650  145.3340 C   0  0  0  0  0  0  0  0  0  0  0  0
  189.9270  176.9870  143.2060 C   0  0  0  0  0  3  0  0  0  0  0  0
  191.2800  177.3410  147.7940 C   0  0  0  0  0  3  0  0  0  0  0  0
  188.7440  177.3640  142.5520 C   0  0  0  0  0  0  0  0  0  0  0  0
  185.2750  178.1110  143.2580 C   0  0  0  0  0  0  0  0  0  0  0  0
  191.0060  176.6860  145.3650 N   0  0  0  0  0  2  0  0  0  0  0  0
  190.2830  178.1730  148.4730 N   0  0  0  0  0  0  0  0  0  0  0  0
  189.0630  178.0660  147.7460 C   0  0  0  0  0  0  0  0  0  0  0  0
  186.3120  177.5760  145.3730 C   0  0  0  0  0  0  0  0  0  0  0  0
  187.5540  177.4750  144.7100 C   0  0  0  0  0  0  0  0  0  0  0  0
  187.5600  177.6050  143.2910 C   0  0  2  0  0  3  0  0  0  0  0  0
  181.8230  179.2110  141.0140 C   0  0  0  0  0  0  0  0  0  0  0  0
  182.8900  178.6520  143.0790 N   0  0  0  0  0  0  0  0  0  0  0  0
  183.0520  179.0440  140.3490 C   0  0  0  0  0  0  0  0  0  0  0  0
  180.5700  179.6050  140.2800 C   0  0  0  0  0  2  0  0  0  0  0  0
  184.0930  178.4850  142.4600 C   0  0  0  0  0  0  0  0  0  0  0  0
  180.7860  179.8450  138.8100 C   0  0  0  0  0  0  0  0  0  0  0  0
  183.1550  179.2490  138.8980 C   0  0  0  0  0  3  0  0  0  0  0  0
  181.7690  179.0040  142.3930 C   0  0  0  0  0  3  0  0  0  0  0  0
  182.0970  179.6260  138.1790 C   0  0  0  0  0  3  0  0  0  0  0  0
  184.1870  178.6790  141.0740 C   0  0  0  0  0  3  0  0  0  0  0  0
  179.8230  180.2400  138.1030 O   0  0  0  0  0  0  0  0  0  0  0  0
  188.7480  177.4540  141.0640 C   0  0  0  0  0  2  0  0  0  0  0  0
  190.0940  177.2190  140.5650 N   0  0  0  0  0  2  0  0  0  0  0  0
  190.0940  177.5620  139.1510 C   0  0  2  0  0  3  0  0  0  0  0  0
  189.0580  178.6440  138.8830 C   0  0  0  0  0  1  0  0  0  0  0  0
  189.8820  176.2980  138.3030 C   0  0  2  0  0  3  0  0  0  0  0  0
  191.0880  174.3780  137.2550 C   0  0  0  0  0  3  0  0  0  0  0  0
  191.1540  175.6400  137.8540 C   0  0  0  0  0  0  0  0  0  0  0  0
  193.5670  175.6270  137.5850 C   0  0  0  0  0  3  0  0  0  0  0  0
  192.4010  176.2630  138.0190 C   0  0  0  0  0  3  0  0  0  0  0  0
  192.2540  173.7430  136.8200 C   0  0  0  0  0  3  0  0  0  0  0  0
  193.5040  174.3630  136.9780 C   0  0  0  0  0  0  0  0  0  0  0  0
  194.7080  173.7210  136.5280 N   0  0  0  0  0  0  0  0  0  0  0  0
  195.0850  173.8150  135.2300 O   0  0  0  0  0  1  0  0  0  0  0  0
  195.5240  172.9200  137.4310 C   0  0  0  0  0  1  0  0  0  0  0  0
  187.6970  175.6370  137.4980 O   0  0  0  0  0  1  0  0  0  0  0  0
  188.8200  176.4130  137.2040 C   0  0  0  0  0  2  0  0  0  0  0  0
  2  8  1  6  0  0  0
  2 15  1  0  0  0  0
  3  2  1  0  0  0  0
  3 10  1  1  0  0  0
  4 12  1  0  0  0  0
  4 18  1  0  0  0  0
  5 16  1  0  0  0  0
  7  8  2  0  0  0  0
  7 13  1  0  0  0  0
  9  7  1  0  0  0  0
 10 14  2  0  0  0  0
 11  9  2  0  0  0  0
 12  5  2  0  0  0  0
 13  3  1  0  0  0  0
 15  1  2  0  0  0  0
 15 14  1  0  0  0  0
 16  6  1  0  0  0  0
 17  8  1  0  0  0  0
 17 16  2  0  0  0  0
 18 11  1  6  0  0  0
 18 17  1  0  0  0  0
 19 26  1  0  0  0  0
 21 19  2  0  0  0  0
 21 28  1  0  0  0  0
 22 19  1  0  0  0  0
 23 20  1  0  0  0  0
 23 12  1  0  0  0  0
 24 22  1  0  0  0  0
 25 21  1  0  0  0  0
 26 20  2  0  0  0  0
 27 24  1  0  0  0  0
 27 25  2  0  0  0  0
 28 23  2  0  0  0  0
 29 24  2  0  0  0  0
 30 11  1  0  0  0  0
 31 30  1  0  0  0  0
 32 33  1  1  0  0  0
 32 31  1  0  0  0  0
 34 45  1  6  0  0  0
 34 32  1  0  0  0  0
 35 36  1  0  0  0  0
 36 38  2  0  0  0  0
 36 34  1  0  0  0  0
 37 38  1  0  0  0  0
 39 40  1  0  0  0  0
 39 35  2  0  0  0  0
 40 37  2  0  0  0  0
 41 40  1  0  0  0  0
 41 43  1  0  0  0  0
 42 41  1  0  0  0  0
 45 44  1  0  0  0  0
M  END
>  <MODEL>
8

>  <REMARK>
 VINA RESULT:      -9.3      2.081      7.381
  Name = 
  8 active torsions:
  status: ('A' for Active; 'I' for Inactive)
    1  A    between atoms: C_1  and  C_12
    2  A    between atoms: C_1  and  N_30
    3  A    between atoms: C_9  and  C_12
    4  A    between atoms: C_12  and  C_31
    5  A    between atoms: N_16  and  C_43
    6  A    between atoms: C_17  and  C_28
    7  A    between atoms: C_24  and  C_33
    8  A    between atoms: N_30  and  C_33
                            x       y       z     vdW  Elec       q    Type
                         _______ _______ _______ _____ _____    ______ ____

>  <TORSDO>
F 8

$$$$
=
 OpenBabel10222416463D

 45 51  0  0  1  0  0  0  0  0999 V2000
  181.6130  179.5310  135.6000 O   0  0  0  0  0  0  0  0  0  0  0  0
  181.0970  178.8180  137.8500 C   0  0  2  0  0  3  0  0  0  0  0  0
  180.1370  179.2790  138.7080 C   0  0  2  0  0  3  0  0  0  0  0  0
  185.8310  178.1480  139.0630 O   0  0  0  0  0  0  0  0  0  0  0  0
  185.3160  177.3360  136.9060 C   0  0  0  0  0  3  0  0  0  0  0  0
  183.0080  177.1520  136.0720 C   0  0  0  0  0  1  0  0  0  0  0  0
  181.9090  179.1120  139.8660 C   0  0  0  0  0  0  0  0  0  0  0  0
  182.2540  178.6810  138.5970 C   0  0  2  0  0  3  0  0  0  0  0  0
  182.8580  179.2640  140.8710 C   0  0  0  0  0  3  0  0  0  0  0  0
  179.0960  180.0970  138.0140 C   0  0  0  0  0  3  0  0  0  0  0  0
  184.1950  178.9520  140.5820 C   0  0  0  0  0  0  0  0  0  0  0  0
  186.2440  177.6200  137.9130 C   0  0  0  0  0  0  0  0  0  0  0  0
  180.6210  179.5120  139.9460 N   0  0  0  0  0  2  0  0  0  0  0  0
  179.6110  180.2060  136.6460 N   0  0  0  0  0  0  0  0  0  0  0  0
  180.8320  179.4750  136.5840 C   0  0  0  0  0  0  0  0  0  0  0  0
  183.9720  177.6530  137.0920 C   0  0  0  0  0  0  0  0  0  0  0  0
  183.5740  178.2870  138.2890 C   0  0  0  0  0  0  0  0  0  0  0  0
  184.5590  178.4640  139.3030 C   0  0  0  0  0  0  0  0  0  0  0  0
  190.3700  176.7380  137.3230 C   0  0  0  0  0  0  0  0  0  0  0  0
  188.1310  176.9310  136.5080 N   0  0  0  0  0  0  0  0  0  0  0  0
  189.9260  177.1290  138.6000 C   0  0  0  0  0  0  0  0  0  0  0  0
  191.8150  176.4190  137.0480 C   0  0  0  0  0  2  0  0  0  0  0  0
  187.6750  177.3140  137.7340 C   0  0  0  0  0  0  0  0  0  0  0  0
  192.7100  176.6130  138.2420 C   0  0  0  0  0  0  0  0  0  0  0  0
  190.8680  177.2390  139.7210 C   0  0  0  0  0  3  0  0  0  0  0  0
  189.4420  176.6430  136.2850 C   0  0  0  0  0  3  0  0  0  0  0  0
  192.1690  177.0010  139.5550 C   0  0  0  0  0  3  0  0  0  0  0  0
  188.5750  177.4150  138.8040 C   0  0  0  0  0  3  0  0  0  0  0  0
  193.9500  176.4370  138.1170 O   0  0  0  0  0  0  0  0  0  0  0  0
  185.2120  179.0970  141.6630 C   0  0  0  0  0  2  0  0  0  0  0  0
  184.5800  179.6400  142.8550 N   0  0  0  0  0  2  0  0  0  0  0  0
  184.4430  178.5460  143.8040 C   0  0  2  0  0  3  0  0  0  0  0  0
  183.0430  178.5520  144.3990 C   0  0  0  0  0  1  0  0  0  0  0  0
  185.5520  178.6270  144.8650 C   0  0  2  0  0  3  0  0  0  0  0  0
  187.9690  178.1430  145.2670 C   0  0  0  0  0  3  0  0  0  0  0  0
  186.8410  177.9770  144.4570 C   0  0  0  0  0  0  0  0  0  0  0  0
  188.1510  176.6110  142.9370 C   0  0  0  0  0  3  0  0  0  0  0  0
  186.9380  177.2080  143.2870 C   0  0  0  0  0  3  0  0  0  0  0  0
  189.1820  177.5450  144.9170 C   0  0  0  0  0  3  0  0  0  0  0  0
  189.2830  176.7700  143.7500 C   0  0  0  0  0  0  0  0  0  0  0  0
  190.5250  176.1450  143.3850 N   0  0  0  0  0  0  0  0  0  0  0  0
  190.5630  174.8200  143.1060 O   0  0  0  0  0  1  0  0  0  0  0  0
  191.7720  176.8980  143.3500 C   0  0  0  0  0  1  0  0  0  0  0  0
  185.3250  179.3840  147.1540 O   0  0  0  0  0  1  0  0  0  0  0  0
  185.1170  178.3000  146.2990 C   0  0  0  0  0  2  0  0  0  0  0  0
  1 15  2  0  0  0  0
  2 15  1  6  0  0  0
  2  8  1  0  0  0  0
  2  3  1  0  0  0  0
  3 10  1  6  0  0  0
  3 13  1  0  0  0  0
  4 18  1  0  0  0  0
  5 16  1  0  0  0  0
  5 12  2  0  0  0  0
  6 16  1  0  0  0  0
  7 13  1  0  0  0  0
  7  9  2  0  0  0  0
  8 17  1  6  0  0  0
  8  7  1  0  0  0  0
 11  9  1  0  0  0  0
 11 30  1  0  0  0  0
 12  4  1  0  0  0  0
 14 10  2  0  0  0  0
 15 14  1  0  0  0  0
 16 17  2  0  0  0  0
 17 18  1  0  0  0  0
 18 11  2  0  0  0  0
 19 21  1  0  0  0  0
 20 23  2  0  0  0  0
 21 28  2  0  0  0  0
 21 25  1  0  0  0  0
 22 19  1  0  0  0  0
 22 24  1  0  0  0  0
 23 12  1  0  0  0  0
 23 28  1  0  0  0  0
 24 27  1  0  0  0  0
 26 20  1  0  0  0  0
 26 19  2  0  0  0  0
 27 25  2  0  0  0  0
 29 24  2  0  0  0  0
 30 31  1  0  0  0  0
 31 32  1  0  0  0  0
 32 33  1  1  0  0  0
 32 34  1  0  0  0  0
 34 45  1  1  0  0  0
 36 34  1  0  0  0  0
 36 35  2  0  0  0  0
 37 38  2  0  0  0  0
 37 40  1  0  0  0  0
 38 36  1  0  0  0  0
 39 35  1  0  0  0  0
 40 39  2  0  0  0  0
 41 40  1  0  0  0  0
 42 41  1  0  0  0  0
 43 41  1  0  0  0  0
 45 44  1  0  0  0  0
M  END
>  <MODEL>
9

>  <REMARK>
 VINA RESULT:      -9.3      2.445      6.751
  Name = 
  8 active torsions:
  status: ('A' for Active; 'I' for Inactive)
    1  A    between atoms: C_1  and  C_12
    2  A    between atoms: C_1  and  N_30
    3  A    between atoms: C_9  and  C_12
    4  A    between atoms: C_12  and  C_31
    5  A    between atoms: N_16  and  C_43
    6  A    between atoms: C_17  and  C_28
    7  A    between atoms: C_24  and  C_33
    8  A    between atoms: N_30  and  C_33
                            x       y       z     vdW  Elec       q    Type
                         _______ _______ _______ _____ _____    ______ ____

>  <TORSDO>
F 8

$$$$
