=
 OpenBabel10222419133D

 56 60  0  0  1  0  0  0  0  0999 V2000
  190.9700  177.8590  143.6230 C   0  0  0  0  0  2  0  0  0  0  0  0
  192.0540  177.6270  142.5800 C   0  0  0  0  0  2  0  0  0  0  0  0
  189.8950  176.7610  143.5990 C   0  0  2  0  0  3  0  0  0  0  0  0
  192.4820  177.3990  140.1440 C   0  0  0  0  0  1  0  0  0  0  0  0
  190.2690  176.6730  141.0360 C   0  0  2  0  0  3  0  0  0  0  0  0
  189.8670  175.9170  142.3150 C   0  0  0  0  0  2  0  0  0  0  0  0
  191.4250  177.6720  141.1930 C   0  0  1  0  0  3  0  0  0  0  0  0
  186.9100  178.3840  138.9950 C   0  0  0  0  0  0  0  0  0  0  0  0
  187.6810  177.4210  138.3410 C   0  0  0  0  0  3  0  0  0  0  0  0
  188.7780  176.8560  138.9970 C   0  0  0  0  0  0  0  0  0  0  0  0
  185.7900  178.9640  138.3360 N   0  0  0  0  0  1  0  0  0  0  0  0
  187.2290  178.7680  140.2590 N   0  0  0  0  0  0  0  0  0  0  0  0
  189.0940  177.2630  140.3060 C   0  0  0  0  0  0  0  0  0  0  0  0
  188.2920  178.2360  140.9190 C   0  0  0  0  0  3  0  0  0  0  0  0
  190.2170  175.0490  137.7110 C   0  0  0  0  0  0  0  0  0  0  0  0
  189.5760  175.8760  138.3090 C   0  0  0  0  0  0  0  0  0  0  0  0
  190.9680  174.0300  136.9620 C   0  0  2  0  0  3  0  0  0  0  0  0
  192.1160  174.6610  136.1590 C   0  0  2  0  0  3  0  0  0  0  0  0
  193.7770  176.4550  136.7280 C   0  0  0  0  0  3  0  0  0  0  0  0
  193.3220  173.7200  136.0680 C   0  0  0  0  0  2  0  0  0  0  0  0
  192.5100  176.0090  136.7280 C   0  0  0  0  0  3  0  0  0  0  0  0
  194.9330  175.6060  136.2630 C   0  0  0  0  0  2  0  0  0  0  0  0
  195.5390  173.5560  135.2020 O   0  0  0  0  0  1  0  0  0  0  0  0
  194.4770  174.4410  135.3870 C   0  0  1  0  0  3  0  0  0  0  0  0
  188.0370  171.6110  134.7580 O   0  0  0  0  0  0  0  0  0  0  0  0
  190.3720  172.9670  134.9180 O   0  0  0  0  0  0  0  0  0  0  0  0
  186.5090  171.8990  136.4380 O   0  0  0  0  0  1  0  0  0  0  0  0
  188.7090  172.9350  136.5710 N   0  0  0  0  0  2  0  0  0  0  0  0
  187.7550  172.1290  135.8710 C   0  0  0  0  0  0  0  0  0  0  0  0
  190.0090  173.2900  136.0800 C   0  0  0  0  0  0  0  0  0  0  0  0
  188.5180  177.3400  143.8930 C   0  0  0  0  0  2  0  0  0  0  0  0
  189.2190  177.2930  147.5460 C   0  0  0  0  0  3  0  0  0  0  0  0
  187.9890  177.6280  148.1050 C   0  0  0  0  0  3  0  0  0  0  0  0
  189.3390  177.2200  146.1960 N   0  0  0  0  0  0  0  0  0  0  0  0
  188.2910  177.4720  145.3670 C   0  0  0  0  0  0  0  0  0  0  0  0
  186.9340  177.8790  147.2890 N   0  0  0  0  0  0  0  0  0  0  0  0
  187.0360  177.8190  145.9330 C   0  0  0  0  0  0  0  0  0  0  0  0
  185.3390  179.2610  144.9540 C   0  0  0  0  0  3  0  0  0  0  0  0
  185.8510  178.0920  145.1660 N   0  0  0  0  0  0  0  0  0  0  0  0
  184.1110  179.4090  144.1250 C   0  0  0  0  0  2  0  0  0  0  0  0
  184.3560  178.9480  142.6960 C   0  0  0  0  0  2  0  0  0  0  0  0
  181.7840  179.0120  140.3600 C   0  0  2  0  0  3  0  0  0  0  0  0
  181.9670  179.0070  142.6530 O   0  0  0  0  0  0  0  0  0  0  0  0
  183.0970  178.6650  140.6670 O   0  0  0  0  0  0  0  0  0  0  0  0
  183.0860  178.4130  142.0510 C   0  0  1  0  0  3  0  0  0  0  0  0
  181.0120  179.0310  141.6420 C   0  0  0  0  0  2  0  0  0  0  0  0
  181.1580  178.1250  139.2590 C   0  0  0  0  0  2  0  0  0  0  0  0
  181.7010  176.7610  139.1010 N   0  0  0  0  0  0  0  0  0  0  0  0
  181.3790  177.3740  136.8570 O   0  0  0  0  0  1  0  0  0  0  0  0
  181.9910  176.4360  137.6980 C   0  0  1  0  0  3  0  0  0  0  0  0
  183.4970  176.4480  137.4330 C   0  0  0  0  0  2  0  0  0  0  0  0
  183.3570  174.7310  135.6320 C   0  0  0  0  0  1  0  0  0  0  0  0
  185.4910  175.1200  136.8110 C   0  0  0  0  0  1  0  0  0  0  0  0
  183.9860  175.0850  136.9670 C   0  0  0  0  0  3  0  0  0  0  0  0
  180.7850  175.7800  139.6810 C   0  0  0  0  0  2  0  0  0  0  0  0
  180.5910  174.7270  138.7870 O   0  0  0  0  0  1  0  0  0  0  0  0
  2  1  1  0  0  0  0
  3  1  1  0  0  0  0
  3 31  1  6  0  0  0
  5 13  1  1  0  0  0
  5  7  1  0  0  0  0
  5  6  1  0  0  0  0
  6  3  1  0  0  0  0
  7  4  1  6  0  0  0
  7  2  1  0  0  0  0
  8 12  1  0  0  0  0
  9  8  2  0  0  0  0
  9 10  1  0  0  0  0
 10 13  2  0  0  0  0
 11  8  1  0  0  0  0
 12 14  2  0  0  0  0
 13 14  1  0  0  0  0
 15 16  3  0  0  0  0
 16 10  1  0  0  0  0
 17 15  1  6  0  0  0
 18 21  1  0  0  0  0
 18 17  1  1  0  0  0
 19 21  2  0  0  0  0
 20 18  1  0  0  0  0
 22 19  1  0  0  0  0
 24 23  1  1  0  0  0
 24 20  1  0  0  0  0
 24 22  1  0  0  0  0
 25 29  2  0  0  0  0
 26 30  2  0  0  0  0
 29 27  1  0  0  0  0
 29 28  1  0  0  0  0
 30 28  1  0  0  0  0
 30 17  1  0  0  0  0
 31 35  1  0  0  0  0
 32 33  2  0  0  0  0
 34 32  1  0  0  0  0
 35 37  1  0  0  0  0
 35 34  2  0  0  0  0
 36 33  1  0  0  0  0
 37 36  2  0  0  0  0
 38 39  2  0  0  0  0
 39 37  1  0  0  0  0
 40 38  1  0  0  0  0
 41 40  1  0  0  0  0
 42 47  1  6  0  0  0
 42 44  1  0  0  0  0
 42 46  1  0  0  0  0
 44 45  1  0  0  0  0
 45 43  1  0  0  0  0
 45 41  1  1  0  0  0
 46 43  1  0  0  0  0
 48 47  1  0  0  0  0
 48 55  1  0  0  0  0
 50 49  1  6  0  0  0
 50 48  1  0  0  0  0
 51 50  1  0  0  0  0
 52 54  1  0  0  0  0
 53 54  1  0  0  0  0
 54 51  1  0  0  0  0
 56 55  1  0  0  0  0
M  END
>  <MODEL>
1

>  <REMARK>
 VINA RESULT:      -7.5      0.000      0.000
  Name = 
  17 active torsions:
  status: ('A' for Active; 'I' for Inactive)
    1  A    between atoms: C_2  and  C_31
    2  A    between atoms: C_4  and  C_51
    3  A    between atoms: C_12  and  C_22
    4  A    between atoms: C_12  and  C_43
    5  A    between atoms: C_13  and  C_41
    6  A    between atoms: C_21  and  C_23
    7  A    between atoms: C_21  and  C_45
    8  A    between atoms: C_26  and  C_31
    9  A    between atoms: C_31  and  C_49
   10  A    between atoms: C_32  and  C_33
   11  A    between atoms: C_32  and  C_52
   12  A    between atoms: C_33  and  N_55
   13  A    between atoms: C_35  and  N_55
   14  A    between atoms: C_38  and  C_39
   15  A    between atoms: C_45  and  C_48
   16  A    between atoms: C_47  and  N_54
   17  A    between atoms: C_51  and  N_55
                            x       y       z     vdW  Elec       q    Type
                         _______ _______ _______ _____ _____    ______ ____

>  <TORSDO>
F 17

$$$$
=
 OpenBabel10222419133D

 56 60  0  0  1  0  0  0  0  0999 V2000
  187.5040  176.9900  135.1960 C   0  0  0  0  0  2  0  0  0  0  0  0
  187.4540  178.3200  135.9340 C   0  0  0  0  0  2  0  0  0  0  0  0
  187.5070  175.7910  136.1570 C   0  0  2  0  0  3  0  0  0  0  0  0
  188.6500  179.7580  137.5680 C   0  0  0  0  0  1  0  0  0  0  0  0
  188.8900  177.2840  137.7620 C   0  0  2  0  0  3  0  0  0  0  0  0
  187.8810  176.1310  137.6090 C   0  0  0  0  0  2  0  0  0  0  0  0
  188.7060  178.4590  136.7920 C   0  0  1  0  0  3  0  0  0  0  0  0
  192.9560  175.9330  137.9070 C   0  0  0  0  0  0  0  0  0  0  0  0
  192.3340  176.3380  139.0900 C   0  0  0  0  0  3  0  0  0  0  0  0
  191.0090  176.7790  139.0540 C   0  0  0  0  0  0  0  0  0  0  0  0
  194.3050  175.4800  137.9320 N   0  0  0  0  0  1  0  0  0  0  0  0
  192.2740  175.9720  136.7320 N   0  0  0  0  0  0  0  0  0  0  0  0
  190.3170  176.8120  137.8300 C   0  0  0  0  0  0  0  0  0  0  0  0
  190.9850  176.3990  136.6690 C   0  0  0  0  0  3  0  0  0  0  0  0
  189.8290  177.5520  141.2910 C   0  0  0  0  0  0  0  0  0  0  0  0
  190.3830  177.2090  140.2760 C   0  0  0  0  0  0  0  0  0  0  0  0
  189.1210  177.9550  142.5140 C   0  0  2  0  0  3  0  0  0  0  0  0
  189.5210  177.0720  143.7070 C   0  0  2  0  0  3  0  0  0  0  0  0
  191.7540  176.2910  144.5450 C   0  0  0  0  0  3  0  0  0  0  0  0
  189.4070  177.8340  145.0330 C   0  0  0  0  0  2  0  0  0  0  0  0
  190.9080  176.4910  143.5220 C   0  0  0  0  0  3  0  0  0  0  0  0
  191.4390  176.7300  145.9530 C   0  0  0  0  0  2  0  0  0  0  0  0
  189.7430  177.6070  147.3840 O   0  0  0  0  0  1  0  0  0  0  0  0
  189.9450  176.9650  146.1630 C   0  0  1  0  0  3  0  0  0  0  0  0
  184.8160  178.2650  141.6920 O   0  0  0  0  0  1  0  0  0  0  0  0
  186.9310  177.1160  142.9250 O   0  0  0  0  0  0  0  0  0  0  0  0
  185.2320  179.7070  139.9630 O   0  0  0  0  0  0  0  0  0  0  0  0
  187.0660  178.7540  141.2520 N   0  0  0  0  0  2  0  0  0  0  0  0
  185.6640  178.8800  140.9910 C   0  0  0  0  0  0  0  0  0  0  0  0
  187.6480  177.9000  142.2480 C   0  0  0  0  0  0  0  0  0  0  0  0
  188.3840  174.6660  135.6240 C   0  0  0  0  0  2  0  0  0  0  0  0
  187.7280  171.0070  135.5010 C   0  0  0  0  0  3  0  0  0  0  0  0
  186.3460  170.9420  135.3530 C   0  0  0  0  0  2  0  0  0  0  0  0
  188.3320  172.2190  135.5900 N   0  0  0  0  0  0  0  0  0  0  0  0
  187.6230  173.3800  135.5440 C   0  0  2  0  0  3  0  0  0  0  0  0
  185.6270  172.0920  135.3030 N   0  0  0  0  0  0  0  0  0  0  0  0
  186.2120  173.3170  135.3990 C   0  0  0  0  0  0  0  0  0  0  0  0
  184.0760  174.4750  135.5000 C   0  0  0  0  0  3  0  0  0  0  0  0
  185.3560  174.4700  135.3220 N   0  0  0  0  0  0  0  0  0  0  0  0
  183.3040  175.7450  135.4070 C   0  0  0  0  0  2  0  0  0  0  0  0
  183.9160  176.8230  136.2880 C   0  0  0  0  0  2  0  0  0  0  0  0
  182.0210  178.0380  138.9360 C   0  0  2  0  0  3  0  0  0  0  0  0
  181.6160  177.0550  136.8960 O   0  0  0  0  0  0  0  0  0  0  0  0
  183.2130  178.0740  138.2170 O   0  0  0  0  0  0  0  0  0  0  0  0
  182.8520  177.7190  136.9050 C   0  0  1  0  0  3  0  0  0  0  0  0
  180.9490  177.5660  138.0030 C   0  0  0  0  0  2  0  0  0  0  0  0
  181.6960  179.3710  139.6490 C   0  0  0  0  0  2  0  0  0  0  0  0
  180.7320  180.2730  138.9880 N   0  0  0  0  0  0  0  0  0  0  0  0
  182.7270  181.4650  138.6510 O   0  0  0  0  0  1  0  0  0  0  0  0
  181.3310  181.5690  138.6390 C   0  0  1  0  0  3  0  0  0  0  0  0
  180.8840  182.0210  137.2490 C   0  0  0  0  0  2  0  0  0  0  0  0
  181.5910  184.4110  137.2710 C   0  0  0  0  0  1  0  0  0  0  0  0
  179.5650  183.7290  136.0350 C   0  0  0  0  0  1  0  0  0  0  0  0
  180.4040  183.4650  137.2670 C   0  0  0  0  0  3  0  0  0  0  0  0
  179.5510  180.4590  139.8310 C   0  0  0  0  0  2  0  0  0  0  0  0
  179.6350  179.6320  140.9520 O   0  0  0  0  0  1  0  0  0  0  0  0
  1  2  1  0  0  0  0
  1  3  1  0  0  0  0
  2  7  1  0  0  0  0
  3 31  1  6  0  0  0
  3  6  1  0  0  0  0
  5 13  1  6  0  0  0
  6  5  1  0  0  0  0
  7  4  1  1  0  0  0
  7  5  1  0  0  0  0
  8 11  1  0  0  0  0
  8  9  1  0  0  0  0
 10  9  2  0  0  0  0
 10 16  1  0  0  0  0
 12  8  2  0  0  0  0
 13 10  1  0  0  0  0
 14 12  1  0  0  0  0
 14 13  2  0  0  0  0
 16 15  3  0  0  0  0
 17 15  1  6  0  0  0
 18 17  1  6  0  0  0
 18 20  1  0  0  0  0
 19 22  1  0  0  0  0
 20 24  1  0  0  0  0
 21 18  1  0  0  0  0
 21 19  2  0  0  0  0
 22 24  1  0  0  0  0
 24 23  1  1  0  0  0
 27 29  2  0  0  0  0
 28 30  1  0  0  0  0
 29 28  1  0  0  0  0
 29 25  1  0  0  0  0
 30 17  1  0  0  0  0
 30 26  2  0  0  0  0
 32 34  2  0  0  0  0
 33 32  1  0  0  0  0
 35 34  1  0  0  0  0
 35 31  1  6  0  0  0
 36 33  1  0  0  0  0
 36 37  2  0  0  0  0
 37 35  1  0  0  0  0
 39 37  1  0  0  0  0
 39 38  2  0  0  0  0
 40 38  1  0  0  0  0
 40 41  1  0  0  0  0
 42 47  1  6  0  0  0
 43 45  1  0  0  0  0
 43 46  1  0  0  0  0
 44 42  1  0  0  0  0
 45 41  1  1  0  0  0
 45 44  1  0  0  0  0
 46 42  1  0  0  0  0
 48 47  1  0  0  0  0
 48 55  1  0  0  0  0
 50 49  1  6  0  0  0
 50 48  1  0  0  0  0
 51 54  1  0  0  0  0
 51 50  1  0  0  0  0
 53 54  1  0  0  0  0
 54 52  1  0  0  0  0
 55 56  1  0  0  0  0
M  END
>  <MODEL>
2

>  <REMARK>
 VINA RESULT:      -7.3      3.426      8.202
  Name = 
  17 active torsions:
  status: ('A' for Active; 'I' for Inactive)
    1  A    between atoms: C_2  and  C_31
    2  A    between atoms: C_4  and  C_51
    3  A    between atoms: C_12  and  C_22
    4  A    between atoms: C_12  and  C_43
    5  A    between atoms: C_13  and  C_41
    6  A    between atoms: C_21  and  C_23
    7  A    between atoms: C_21  and  C_45
    8  A    between atoms: C_26  and  C_31
    9  A    between atoms: C_31  and  C_49
   10  A    between atoms: C_32  and  C_33
   11  A    between atoms: C_32  and  C_52
   12  A    between atoms: C_33  and  N_55
   13  A    between atoms: C_35  and  N_55
   14  A    between atoms: C_38  and  C_39
   15  A    between atoms: C_45  and  C_48
   16  A    between atoms: C_47  and  N_54
   17  A    between atoms: C_51  and  N_55
                            x       y       z     vdW  Elec       q    Type
                         _______ _______ _______ _____ _____    ______ ____

>  <TORSDO>
F 17

$$$$
=
 OpenBabel10222419133D

 56 60  0  0  1  0  0  0  0  0999 V2000
  190.8080  178.0370  143.5950 C   0  0  0  0  0  2  0  0  0  0  0  0
  191.9630  177.7840  142.6370 C   0  0  0  0  0  2  0  0  0  0  0  0
  189.7590  176.9150  143.5500 C   0  0  2  0  0  3  0  0  0  0  0  0
  192.5590  177.4570  140.2480 C   0  0  0  0  0  1  0  0  0  0  0  0
  190.3060  176.7210  141.0240 C   0  0  2  0  0  3  0  0  0  0  0  0
  189.8340  176.0140  142.3080 C   0  0  0  0  0  2  0  0  0  0  0  0
  191.4280  177.7520  141.2110 C   0  0  1  0  0  3  0  0  0  0  0  0
  187.0560  178.2580  138.6900 C   0  0  0  0  0  0  0  0  0  0  0  0
  187.9220  177.3260  138.1140 C   0  0  0  0  0  3  0  0  0  0  0  0
  188.9830  176.8180  138.8660 C   0  0  0  0  0  0  0  0  0  0  0  0
  185.9700  178.7810  137.9320 N   0  0  0  0  0  1  0  0  0  0  0  0
  187.2510  178.6680  139.9710 N   0  0  0  0  0  0  0  0  0  0  0  0
  189.1700  177.2500  140.1920 C   0  0  0  0  0  0  0  0  0  0  0  0
  188.2780  178.1910  140.7240 C   0  0  0  0  0  3  0  0  0  0  0  0
  190.6050  175.0660  137.7270 C   0  0  0  0  0  0  0  0  0  0  0  0
  189.8790  175.8690  138.2590 C   0  0  0  0  0  0  0  0  0  0  0  0
  191.4600  174.0780  137.0550 C   0  0  2  0  0  3  0  0  0  0  0  0
  192.4770  174.7590  136.1250 C   0  0  2  0  0  3  0  0  0  0  0  0
  194.0980  176.6380  136.4980 C   0  0  0  0  0  3  0  0  0  0  0  0
  193.7110  173.8780  135.9000 C   0  0  0  0  0  2  0  0  0  0  0  0
  192.8640  176.1300  136.6420 C   0  0  0  0  0  3  0  0  0  0  0  0
  195.2360  175.8450  135.9070 C   0  0  0  0  0  2  0  0  0  0  0  0
  195.8210  173.8200  134.7880 O   0  0  0  0  0  1  0  0  0  0  0  0
  194.7430  174.6520  135.0910 C   0  0  1  0  0  3  0  0  0  0  0  0
  188.6140  171.2460  135.2720 O   0  0  0  0  0  0  0  0  0  0  0  0
  191.1130  172.2300  135.5960 O   0  0  0  0  0  0  0  0  0  0  0  0
  186.8590  172.4880  136.0560 O   0  0  0  0  0  1  0  0  0  0  0  0
  189.1550  173.1980  136.4500 N   0  0  0  0  0  2  0  0  0  0  0  0
  188.2200  172.2680  135.8920 C   0  0  0  0  0  0  0  0  0  0  0  0
  190.5810  173.1170  136.3140 C   0  0  0  0  0  0  0  0  0  0  0  0
  188.3540  177.4750  143.7260 C   0  0  0  0  0  2  0  0  0  0  0  0
  188.6490  177.2240  147.4250 C   0  0  0  0  0  3  0  0  0  0  0  0
  187.4820  177.8350  147.8740 C   0  0  0  0  0  3  0  0  0  0  0  0
  188.8860  177.1390  146.0910 N   0  0  0  0  0  0  0  0  0  0  0  0
  188.0150  177.6410  145.1740 C   0  0  0  0  0  0  0  0  0  0  0  0
  186.6040  178.3370  146.9690 N   0  0  0  0  0  0  0  0  0  0  0  0
  186.8260  178.2690  145.6290 C   0  0  0  0  0  0  0  0  0  0  0  0
  184.6030  178.4080  144.6510 C   0  0  0  0  0  3  0  0  0  0  0  0
  185.8220  178.8240  144.7600 N   0  0  0  0  0  0  0  0  0  0  0  0
  183.6550  179.0810  143.7200 C   0  0  0  0  0  2  0  0  0  0  0  0
  183.8830  178.6290  142.2860 C   0  0  0  0  0  2  0  0  0  0  0  0
  181.1210  179.6260  140.4250 C   0  0  2  0  0  3  0  0  0  0  0  0
  181.4980  178.5810  142.4410 O   0  0  0  0  0  0  0  0  0  0  0  0
  182.4600  179.2430  140.4470 O   0  0  0  0  0  0  0  0  0  0  0  0
  182.5700  178.3850  141.5570 C   0  0  1  0  0  3  0  0  0  0  0  0
  180.4610  179.0170  141.6230 C   0  0  0  0  0  2  0  0  0  0  0  0
  180.4160  179.3100  139.0870 C   0  0  0  0  0  2  0  0  0  0  0  0
  181.1920  178.5640  138.0740 N   0  0  0  0  0  0  0  0  0  0  0  0
  180.8410  178.2970  135.7670 O   0  0  0  0  0  1  0  0  0  0  0  0
  181.1740  179.2250  136.7620 C   0  0  1  0  0  3  0  0  0  0  0  0
  180.1520  180.3610  136.7350 C   0  0  0  0  0  2  0  0  0  0  0  0
  180.3790  182.0800  134.9450 C   0  0  0  0  0  1  0  0  0  0  0  0
  180.3750  182.7570  137.3190 C   0  0  0  0  0  1  0  0  0  0  0  0
  180.8040  181.6800  136.3460 C   0  0  0  0  0  3  0  0  0  0  0  0
  180.7000  177.1910  137.9690 C   0  0  0  0  0  2  0  0  0  0  0  0
  181.5750  176.3240  138.6240 O   0  0  0  0  0  1  0  0  0  0  0  0
  2  1  1  0  0  0  0
  3  1  1  0  0  0  0
  3 31  1  6  0  0  0
  5 13  1  1  0  0  0
  5  7  1  0  0  0  0
  5  6  1  0  0  0  0
  6  3  1  0  0  0  0
  7  4  1  6  0  0  0
  7  2  1  0  0  0  0
  8 12  1  0  0  0  0
  9  8  2  0  0  0  0
  9 10  1  0  0  0  0
 10 13  2  0  0  0  0
 11  8  1  0  0  0  0
 12 14  2  0  0  0  0
 13 14  1  0  0  0  0
 15 16  3  0  0  0  0
 16 10  1  0  0  0  0
 17 15  1  6  0  0  0
 18 21  1  0  0  0  0
 18 17  1  1  0  0  0
 19 21  2  0  0  0  0
 20 18  1  0  0  0  0
 22 19  1  0  0  0  0
 24 23  1  1  0  0  0
 24 20  1  0  0  0  0
 24 22  1  0  0  0  0
 25 29  2  0  0  0  0
 26 30  2  0  0  0  0
 29 27  1  0  0  0  0
 29 28  1  0  0  0  0
 30 28  1  0  0  0  0
 30 17  1  0  0  0  0
 31 35  1  0  0  0  0
 32 33  2  0  0  0  0
 34 32  1  0  0  0  0
 35 37  1  0  0  0  0
 35 34  2  0  0  0  0
 36 33  1  0  0  0  0
 37 36  2  0  0  0  0
 38 39  2  0  0  0  0
 39 37  1  0  0  0  0
 40 38  1  0  0  0  0
 41 40  1  0  0  0  0
 42 47  1  6  0  0  0
 42 44  1  0  0  0  0
 42 46  1  0  0  0  0
 44 45  1  0  0  0  0
 45 41  1  1  0  0  0
 45 43  1  0  0  0  0
 46 43  1  0  0  0  0
 48 47  1  0  0  0  0
 50 49  1  6  0  0  0
 50 48  1  0  0  0  0
 51 50  1  0  0  0  0
 52 54  1  0  0  0  0
 54 51  1  0  0  0  0
 54 53  1  0  0  0  0
 55 48  1  0  0  0  0
 55 56  1  0  0  0  0
M  END
>  <MODEL>
3

>  <REMARK>
 VINA RESULT:      -7.1      1.526      2.197
  Name = 
  17 active torsions:
  status: ('A' for Active; 'I' for Inactive)
    1  A    between atoms: C_2  and  C_31
    2  A    between atoms: C_4  and  C_51
    3  A    between atoms: C_12  and  C_22
    4  A    between atoms: C_12  and  C_43
    5  A    between atoms: C_13  and  C_41
    6  A    between atoms: C_21  and  C_23
    7  A    between atoms: C_21  and  C_45
    8  A    between atoms: C_26  and  C_31
    9  A    between atoms: C_31  and  C_49
   10  A    between atoms: C_32  and  C_33
   11  A    between atoms: C_32  and  C_52
   12  A    between atoms: C_33  and  N_55
   13  A    between atoms: C_35  and  N_55
   14  A    between atoms: C_38  and  C_39
   15  A    between atoms: C_45  and  C_48
   16  A    between atoms: C_47  and  N_54
   17  A    between atoms: C_51  and  N_55
                            x       y       z     vdW  Elec       q    Type
                         _______ _______ _______ _____ _____    ______ ____

>  <TORSDO>
F 17

$$$$
=
 OpenBabel10222419133D

 56 60  0  0  1  0  0  0  0  0999 V2000
  190.6690  178.0410  143.0490 C   0  0  0  0  0  2  0  0  0  0  0  0
  191.9480  177.6310  142.3350 C   0  0  0  0  0  2  0  0  0  0  0  0
  189.5270  177.0380  142.8180 C   0  0  2  0  0  3  0  0  0  0  0  0
  192.9460  177.1590  140.1100 C   0  0  0  0  0  1  0  0  0  0  0  0
  190.5180  176.6990  140.4470 C   0  0  2  0  0  3  0  0  0  0  0  0
  189.7330  176.0920  141.6250 C   0  0  0  0  0  2  0  0  0  0  0  0
  191.6940  177.6080  140.8330 C   0  0  1  0  0  3  0  0  0  0  0  0
  187.9680  178.5020  137.5100 C   0  0  0  0  0  0  0  0  0  0  0  0
  188.7680  177.4190  137.1400 C   0  0  0  0  0  3  0  0  0  0  0  0
  189.6020  176.8230  138.0890 C   0  0  0  0  0  0  0  0  0  0  0  0
  187.1140  179.1150  136.5510 N   0  0  0  0  0  1  0  0  0  0  0  0
  188.0070  178.9710  138.7850 N   0  0  0  0  0  0  0  0  0  0  0  0
  189.6290  177.3200  139.4050 C   0  0  0  0  0  0  0  0  0  0  0  0
  188.8110  178.4120  139.7280 C   0  0  0  0  0  3  0  0  0  0  0  0
  191.1110  174.7870  137.3340 C   0  0  0  0  0  0  0  0  0  0  0  0
  190.4340  175.7180  137.6930 C   0  0  0  0  0  0  0  0  0  0  0  0
  191.9110  173.6450  136.8670 C   0  0  2  0  0  3  0  0  0  0  0  0
  193.1980  174.1140  136.1700 C   0  0  2  0  0  3  0  0  0  0  0  0
  193.7940  176.2540  135.0030 C   0  0  0  0  0  3  0  0  0  0  0  0
  194.2830  174.4880  137.1860 C   0  0  0  0  0  2  0  0  0  0  0  0
  192.9220  175.2550  135.2120 C   0  0  0  0  0  3  0  0  0  0  0  0
  195.0750  176.3870  135.7860 C   0  0  0  0  0  2  0  0  0  0  0  0
  196.5140  175.3140  137.3590 O   0  0  0  0  0  1  0  0  0  0  0  0
  195.4820  175.0750  136.4520 C   0  0  1  0  0  3  0  0  0  0  0  0
  189.1460  171.0970  134.5950 O   0  0  0  0  0  0  0  0  0  0  0  0
  191.6130  172.0860  135.0940 O   0  0  0  0  0  0  0  0  0  0  0  0
  187.3570  172.1180  135.5920 O   0  0  0  0  0  1  0  0  0  0  0  0
  189.6310  172.8170  136.1100 N   0  0  0  0  0  2  0  0  0  0  0  0
  188.7230  171.9760  135.3920 C   0  0  0  0  0  0  0  0  0  0  0  0
  191.0580  172.8090  135.9630 C   0  0  0  0  0  0  0  0  0  0  0  0
  188.1860  177.7530  142.7120 C   0  0  0  0  0  2  0  0  0  0  0  0
  187.6800  177.4520  146.3850 C   0  0  0  0  0  3  0  0  0  0  0  0
  186.3900  177.9420  146.5640 C   0  0  0  0  0  3  0  0  0  0  0  0
  188.2130  177.4180  145.1370 N   0  0  0  0  0  0  0  0  0  0  0  0
  187.5220  177.8560  144.0490 C   0  0  0  0  0  0  0  0  0  0  0  0
  185.6900  178.3800  145.4870 N   0  0  0  0  0  0  0  0  0  0  0  0
  186.2080  178.3620  144.2290 C   0  0  0  0  0  0  0  0  0  0  0  0
  184.5770  178.1180  142.4420 C   0  0  0  0  0  3  0  0  0  0  0  0
  185.3730  178.8400  143.1600 N   0  0  0  0  0  0  0  0  0  0  0  0
  183.7520  178.7400  141.3690 C   0  0  0  0  0  2  0  0  0  0  0  0
  184.1720  178.2390  139.9960 C   0  0  0  0  0  2  0  0  0  0  0  0
  181.7510  176.2100  138.5450 C   0  0  2  0  0  3  0  0  0  0  0  0
  183.4100  177.6260  137.8150 O   0  0  0  0  0  0  0  0  0  0  0  0
  182.1670  176.9580  139.6440 O   0  0  0  0  0  0  0  0  0  0  0  0
  182.9700  177.9770  139.1000 C   0  0  1  0  0  3  0  0  0  0  0  0
  182.4120  176.7880  137.3320 C   0  0  0  0  0  2  0  0  0  0  0  0
  180.2140  176.0920  138.4320 C   0  0  0  0  0  2  0  0  0  0  0  0
  179.4090  176.6810  139.5220 N   0  0  0  0  0  0  0  0  0  0  0  0
  179.3690  178.9530  138.9260 O   0  0  0  0  0  1  0  0  0  0  0  0
  179.8520  178.0380  139.8700 C   0  0  1  0  0  3  0  0  0  0  0  0
  179.3400  178.4420  141.2530 C   0  0  0  0  0  2  0  0  0  0  0  0
  179.2840  180.7980  142.0640 C   0  0  0  0  0  1  0  0  0  0  0  0
  180.7590  179.1470  143.1560 C   0  0  0  0  0  1  0  0  0  0  0  0
  180.1630  179.5820  141.8340 C   0  0  0  0  0  3  0  0  0  0  0  0
  179.4320  175.8110  140.6970 C   0  0  0  0  0  2  0  0  0  0  0  0
  179.2390  174.4850  140.3080 O   0  0  0  0  0  1  0  0  0  0  0  0
  2  1  1  0  0  0  0
  3 31  1  6  0  0  0
  3  1  1  0  0  0  0
  5 13  1  1  0  0  0
  5  7  1  0  0  0  0
  5  6  1  0  0  0  0
  6  3  1  0  0  0  0
  7  4  1  6  0  0  0
  7  2  1  0  0  0  0
  8 12  1  0  0  0  0
  9  8  2  0  0  0  0
  9 10  1  0  0  0  0
 10 13  2  0  0  0  0
 11  8  1  0  0  0  0
 12 14  2  0  0  0  0
 13 14  1  0  0  0  0
 15 16  3  0  0  0  0
 16 10  1  0  0  0  0
 17 15  1  6  0  0  0
 18 17  1  1  0  0  0
 18 20  1  0  0  0  0
 19 21  2  0  0  0  0
 19 22  1  0  0  0  0
 21 18  1  0  0  0  0
 22 24  1  0  0  0  0
 24 20  1  0  0  0  0
 24 23  1  1  0  0  0
 25 29  2  0  0  0  0
 26 30  2  0  0  0  0
 29 27  1  0  0  0  0
 29 28  1  0  0  0  0
 30 28  1  0  0  0  0
 30 17  1  0  0  0  0
 31 35  1  0  0  0  0
 32 33  2  0  0  0  0
 34 32  1  0  0  0  0
 35 37  1  0  0  0  0
 35 34  2  0  0  0  0
 36 33  1  0  0  0  0
 37 36  2  0  0  0  0
 38 39  2  0  0  0  0
 39 37  1  0  0  0  0
 40 38  1  0  0  0  0
 41 40  1  0  0  0  0
 42 47  1  6  0  0  0
 42 44  1  0  0  0  0
 43 45  1  0  0  0  0
 45 44  1  0  0  0  0
 45 41  1  1  0  0  0
 46 43  1  0  0  0  0
 46 42  1  0  0  0  0
 47 48  1  0  0  0  0
 48 50  1  0  0  0  0
 48 55  1  0  0  0  0
 50 49  1  6  0  0  0
 50 51  1  0  0  0  0
 51 54  1  0  0  0  0
 54 52  1  0  0  0  0
 54 53  1  0  0  0  0
 56 55  1  0  0  0  0
M  END
>  <MODEL>
4

>  <REMARK>
 VINA RESULT:      -6.0      1.616      2.974
  Name = 
  17 active torsions:
  status: ('A' for Active; 'I' for Inactive)
    1  A    between atoms: C_2  and  C_31
    2  A    between atoms: C_4  and  C_51
    3  A    between atoms: C_12  and  C_22
    4  A    between atoms: C_12  and  C_43
    5  A    between atoms: C_13  and  C_41
    6  A    between atoms: C_21  and  C_23
    7  A    between atoms: C_21  and  C_45
    8  A    between atoms: C_26  and  C_31
    9  A    between atoms: C_31  and  C_49
   10  A    between atoms: C_32  and  C_33
   11  A    between atoms: C_32  and  C_52
   12  A    between atoms: C_33  and  N_55
   13  A    between atoms: C_35  and  N_55
   14  A    between atoms: C_38  and  C_39
   15  A    between atoms: C_45  and  C_48
   16  A    between atoms: C_47  and  N_54
   17  A    between atoms: C_51  and  N_55
                            x       y       z     vdW  Elec       q    Type
                         _______ _______ _______ _____ _____    ______ ____

>  <TORSDO>
F 17

$$$$
=
 OpenBabel10222419133D

 56 60  0  0  1  0  0  0  0  0999 V2000
  186.1630  179.4500  142.1420 C   0  0  0  0  0  2  0  0  0  0  0  0
  185.8250  179.3470  140.6620 C   0  0  0  0  0  2  0  0  0  0  0  0
  185.6580  178.2370  142.9400 C   0  0  2  0  0  3  0  0  0  0  0  0
  183.9570  179.1780  139.0340 C   0  0  0  0  0  1  0  0  0  0  0  0
  183.6450  178.2020  141.3070 C   0  0  2  0  0  3  0  0  0  0  0  0
  184.5840  177.4000  142.2270 C   0  0  0  0  0  2  0  0  0  0  0  0
  184.3100  179.3260  140.4990 C   0  0  1  0  0  3  0  0  0  0  0  0
  180.0960  179.5220  143.3170 C   0  0  0  0  0  0  0  0  0  0  0  0
  179.9730  178.8000  142.1280 C   0  0  0  0  0  3  0  0  0  0  0  0
  181.1230  178.3640  141.4660 C   0  0  0  0  0  0  0  0  0  0  0  0
  178.9310  179.9700  144.0000 N   0  0  0  0  0  1  0  0  0  0  0  0
  181.3280  179.7990  143.8200 N   0  0  0  0  0  0  0  0  0  0  0  0
  182.3900  178.6580  142.0000 C   0  0  0  0  0  0  0  0  0  0  0  0
  182.4630  179.3890  143.1940 C   0  0  0  0  0  3  0  0  0  0  0  0
  180.9040  177.0180  139.2000 C   0  0  0  0  0  0  0  0  0  0  0  0
  180.9850  177.6340  140.2330 C   0  0  0  0  0  0  0  0  0  0  0  0
  180.8440  176.2660  137.9380 C   0  0  2  0  0  3  0  0  0  0  0  0
  182.1110  175.4190  137.7320 C   0  0  2  0  0  3  0  0  0  0  0  0
  182.6780  173.6220  136.0750 C   0  0  0  0  0  3  0  0  0  0  0  0
  183.2300  176.2340  137.0740 C   0  0  0  0  0  2  0  0  0  0  0  0
  181.8090  174.1600  136.9450 C   0  0  0  0  0  3  0  0  0  0  0  0
  183.9850  174.2860  135.7220 C   0  0  0  0  0  2  0  0  0  0  0  0
  185.4700  176.0720  136.2680 O   0  0  0  0  0  1  0  0  0  0  0  0
  184.4070  175.3180  136.7650 C   0  0  1  0  0  3  0  0  0  0  0  0
  180.0250  179.4020  134.9730 O   0  0  0  0  0  0  0  0  0  0  0  0
  180.2630  176.8060  135.6940 O   0  0  0  0  0  0  0  0  0  0  0  0
  180.8190  180.9950  136.4120 O   0  0  0  0  0  1  0  0  0  0  0  0
  180.8260  178.6420  137.0400 N   0  0  0  0  0  2  0  0  0  0  0  0
  180.5410  179.6740  136.0900 C   0  0  0  0  0  0  0  0  0  0  0  0
  180.6330  177.2380  136.8180 C   0  0  0  0  0  0  0  0  0  0  0  0
  185.1830  178.6550  144.3250 C   0  0  0  0  0  2  0  0  0  0  0  0
  186.7370  178.2830  147.6840 C   0  0  0  0  0  3  0  0  0  0  0  0
  187.9550  177.6740  147.4000 C   0  0  0  0  0  2  0  0  0  0  0  0
  185.8830  178.5710  146.6700 N   0  0  0  0  0  0  0  0  0  0  0  0
  186.1790  178.2740  145.3750 C   0  0  2  0  0  3  0  0  0  0  0  0
  188.2650  177.3750  146.1120 N   0  0  0  0  0  0  0  0  0  0  0  0
  187.4190  177.6470  145.0820 C   0  0  0  0  0  0  0  0  0  0  0  0
  189.0690  177.0340  143.4030 C   0  0  0  0  0  3  0  0  0  0  0  0
  187.8540  177.2980  143.7560 N   0  0  0  0  0  0  0  0  0  0  0  0
  189.3860  176.6710  141.9940 C   0  0  0  0  0  2  0  0  0  0  0  0
  189.5150  177.9130  141.1250 C   0  0  0  0  0  2  0  0  0  0  0  0
  189.7150  177.1840  137.7320 C   0  0  2  0  0  3  0  0  0  0  0  0
  188.9230  178.9080  139.0350 O   0  0  0  0  0  0  0  0  0  0  0  0
  189.6570  176.7180  139.0430 O   0  0  0  0  0  0  0  0  0  0  0  0
  188.9240  177.6950  139.7400 C   0  0  1  0  0  3  0  0  0  0  0  0
  189.0490  178.5250  137.7040 C   0  0  0  0  0  2  0  0  0  0  0  0
  189.1560  176.1790  136.7000 C   0  0  0  0  0  2  0  0  0  0  0  0
  190.1360  175.4070  135.9090 N   0  0  0  0  0  0  0  0  0  0  0  0
  190.1860  173.6740  137.4940 O   0  0  0  0  0  1  0  0  0  0  0  0
  190.0160  173.9600  136.1330 C   0  0  1  0  0  3  0  0  0  0  0  0
  188.6440  173.4500  135.6920 C   0  0  0  0  0  2  0  0  0  0  0  0
  186.8690  172.7470  137.2940 C   0  0  0  0  0  1  0  0  0  0  0  0
  187.8880  171.0940  135.7700 C   0  0  0  0  0  1  0  0  0  0  0  0
  188.1530  172.3320  136.5990 C   0  0  0  0  0  3  0  0  0  0  0  0
  191.4940  175.8650  136.1980 C   0  0  0  0  0  2  0  0  0  0  0  0
  192.2610  175.8380  135.0330 O   0  0  0  0  0  1  0  0  0  0  0  0
  1  3  1  0  0  0  0
  2  1  1  0  0  0  0
  3 31  1  1  0  0  0
  5 13  1  1  0  0  0
  5  6  1  0  0  0  0
  6  3  1  0  0  0  0
  7  4  1  6  0  0  0
  7  2  1  0  0  0  0
  7  5  1  0  0  0  0
  8 12  1  0  0  0  0
  8 11  1  0  0  0  0
  9  8  2  0  0  0  0
 10 13  2  0  0  0  0
 10  9  1  0  0  0  0
 13 14  1  0  0  0  0
 14 12  2  0  0  0  0
 15 16  3  0  0  0  0
 16 10  1  0  0  0  0
 17 15  1  1  0  0  0
 18 17  1  6  0  0  0
 19 21  2  0  0  0  0
 20 18  1  0  0  0  0
 21 18  1  0  0  0  0
 22 19  1  0  0  0  0
 22 24  1  0  0  0  0
 24 23  1  6  0  0  0
 24 20  1  0  0  0  0
 25 29  2  0  0  0  0
 26 30  2  0  0  0  0
 29 27  1  0  0  0  0
 29 28  1  0  0  0  0
 30 28  1  0  0  0  0
 30 17  1  0  0  0  0
 33 32  1  0  0  0  0
 34 32  2  0  0  0  0
 35 31  1  6  0  0  0
 35 34  1  0  0  0  0
 36 33  1  0  0  0  0
 37 35  1  0  0  0  0
 37 36  2  0  0  0  0
 38 39  2  0  0  0  0
 39 37  1  0  0  0  0
 40 38  1  0  0  0  0
 41 40  1  0  0  0  0
 42 47  1  6  0  0  0
 42 44  1  0  0  0  0
 43 45  1  0  0  0  0
 44 45  1  0  0  0  0
 45 41  1  1  0  0  0
 46 42  1  0  0  0  0
 46 43  1  0  0  0  0
 48 50  1  0  0  0  0
 48 55  1  0  0  0  0
 48 47  1  0  0  0  0
 50 49  1  1  0  0  0
 51 50  1  0  0  0  0
 51 54  1  0  0  0  0
 53 54  1  0  0  0  0
 54 52  1  0  0  0  0
 56 55  1  0  0  0  0
M  END
>  <MODEL>
5

>  <REMARK>
 VINA RESULT:      -5.7      2.392      8.047
  Name = 
  17 active torsions:
  status: ('A' for Active; 'I' for Inactive)
    1  A    between atoms: C_2  and  C_31
    2  A    between atoms: C_4  and  C_51
    3  A    between atoms: C_12  and  C_22
    4  A    between atoms: C_12  and  C_43
    5  A    between atoms: C_13  and  C_41
    6  A    between atoms: C_21  and  C_23
    7  A    between atoms: C_21  and  C_45
    8  A    between atoms: C_26  and  C_31
    9  A    between atoms: C_31  and  C_49
   10  A    between atoms: C_32  and  C_33
   11  A    between atoms: C_32  and  C_52
   12  A    between atoms: C_33  and  N_55
   13  A    between atoms: C_35  and  N_55
   14  A    between atoms: C_38  and  C_39
   15  A    between atoms: C_45  and  C_48
   16  A    between atoms: C_47  and  N_54
   17  A    between atoms: C_51  and  N_55
                            x       y       z     vdW  Elec       q    Type
                         _______ _______ _______ _____ _____    ______ ____

>  <TORSDO>
F 17

$$$$
=
 OpenBabel10222419133D

 56 60  0  0  1  0  0  0  0  0999 V2000
  186.3010  179.3610  142.1700 C   0  0  0  0  0  2  0  0  0  0  0  0
  186.0770  179.0300  140.7020 C   0  0  0  0  0  2  0  0  0  0  0  0
  185.7270  178.2850  143.1040 C   0  0  2  0  0  3  0  0  0  0  0  0
  184.3380  178.6040  138.9800 C   0  0  0  0  0  1  0  0  0  0  0  0
  183.8450  177.9890  141.3470 C   0  0  2  0  0  3  0  0  0  0  0  0
  184.7050  177.3430  142.4480 C   0  0  0  0  0  2  0  0  0  0  0  0
  184.5790  178.9770  140.4280 C   0  0  1  0  0  3  0  0  0  0  0  0
  180.1630  179.5890  142.8490 C   0  0  0  0  0  0  0  0  0  0  0  0
  180.1250  178.6870  141.7840 C   0  0  0  0  0  3  0  0  0  0  0  0
  181.3190  178.1590  141.2870 C   0  0  0  0  0  0  0  0  0  0  0  0
  178.9520  180.1320  143.3640 N   0  0  0  0  0  1  0  0  0  0  0  0
  181.3550  179.9500  143.3930 N   0  0  0  0  0  0  0  0  0  0  0  0
  182.5440  178.5410  141.8630 C   0  0  0  0  0  0  0  0  0  0  0  0
  182.5320  179.4520  142.9270 C   0  0  0  0  0  3  0  0  0  0  0  0
  181.2000  176.4900  139.2400 C   0  0  0  0  0  0  0  0  0  0  0  0
  181.2700  177.2420  140.1790 C   0  0  0  0  0  0  0  0  0  0  0  0
  181.0810  175.5880  138.0850 C   0  0  2  0  0  3  0  0  0  0  0  0
  182.4160  174.8900  137.7810 C   0  0  2  0  0  3  0  0  0  0  0  0
  183.1090  173.3060  135.9610 C   0  0  0  0  0  3  0  0  0  0  0  0
  183.4360  175.8630  137.1780 C   0  0  0  0  0  2  0  0  0  0  0  0
  182.2150  173.6800  136.8910 C   0  0  0  0  0  3  0  0  0  0  0  0
  184.3370  174.1220  135.6450 C   0  0  0  0  0  2  0  0  0  0  0  0
  185.6580  175.9900  136.3220 O   0  0  0  0  0  1  0  0  0  0  0  0
  184.6860  175.0960  136.7680 C   0  0  1  0  0  3  0  0  0  0  0  0
  179.5640  178.2720  134.9550 O   0  0  0  0  0  0  0  0  0  0  0  0
  179.8490  175.8210  136.0620 O   0  0  0  0  0  0  0  0  0  0  0  0
  180.8800  179.9690  135.7480 O   0  0  0  0  0  1  0  0  0  0  0  0
  180.9320  177.7690  136.7900 N   0  0  0  0  0  2  0  0  0  0  0  0
  180.4270  178.6580  135.7880 C   0  0  0  0  0  0  0  0  0  0  0  0
  180.5870  176.3820  136.9140 C   0  0  0  0  0  0  0  0  0  0  0  0
  185.1510  178.9090  144.3680 C   0  0  0  0  0  2  0  0  0  0  0  0
  186.3570  178.9240  147.8860 C   0  0  0  0  0  3  0  0  0  0  0  0
  187.5560  178.2220  147.8090 C   0  0  0  0  0  3  0  0  0  0  0  0
  185.6210  179.1120  146.7610 N   0  0  0  0  0  0  0  0  0  0  0  0
  186.0190  178.6270  145.5540 C   0  0  0  0  0  0  0  0  0  0  0  0
  187.9660  177.7360  146.6100 N   0  0  0  0  0  0  0  0  0  0  0  0
  187.2390  177.9060  145.4720 C   0  0  0  0  0  0  0  0  0  0  0  0
  188.8990  176.7330  144.1360 C   0  0  0  0  0  3  0  0  0  0  0  0
  187.7740  177.3580  144.2540 N   0  0  0  0  0  0  0  0  0  0  0  0
  189.3330  176.2000  142.8140 C   0  0  0  0  0  2  0  0  0  0  0  0
  189.8420  177.3160  141.9150 C   0  0  0  0  0  2  0  0  0  0  0  0
  190.7400  177.2020  138.5590 C   0  0  2  0  0  3  0  0  0  0  0  0
  189.0650  178.1540  139.8160 O   0  0  0  0  0  0  0  0  0  0  0  0
  190.7790  176.6070  139.8170 O   0  0  0  0  0  0  0  0  0  0  0  0
  189.5890  177.0150  140.4450 C   0  0  1  0  0  3  0  0  0  0  0  0
  189.5060  178.0490  138.5020 C   0  0  0  0  0  2  0  0  0  0  0  0
  190.8660  176.1890  137.3980 C   0  0  0  0  0  2  0  0  0  0  0  0
  190.9400  174.7580  137.7550 N   0  0  0  0  0  0  0  0  0  0  0  0
  192.1590  173.8670  135.9570 O   0  0  0  0  0  1  0  0  0  0  0  0
  192.2040  174.1430  137.3290 C   0  0  1  0  0  3  0  0  0  0  0  0
  193.3850  175.0730  137.6050 C   0  0  0  0  0  2  0  0  0  0  0  0
  195.5830  174.8950  136.4420 C   0  0  0  0  0  1  0  0  0  0  0  0
  195.4240  174.4540  138.8660 C   0  0  0  0  0  1  0  0  0  0  0  0
  194.7060  174.3210  137.5400 C   0  0  0  0  0  3  0  0  0  0  0  0
  189.7980  174.0360  137.1960 C   0  0  0  0  0  2  0  0  0  0  0  0
  188.6950  174.8860  137.1120 O   0  0  0  0  0  1  0  0  0  0  0  0
  1  3  1  0  0  0  0
  2  1  1  0  0  0  0
  3 31  1  1  0  0  0
  5 13  1  1  0  0  0
  5  6  1  0  0  0  0
  6  3  1  0  0  0  0
  7  4  1  6  0  0  0
  7  2  1  0  0  0  0
  7  5  1  0  0  0  0
  8 11  1  0  0  0  0
  8 12  1  0  0  0  0
  9  8  2  0  0  0  0
 10  9  1  0  0  0  0
 10 13  2  0  0  0  0
 13 14  1  0  0  0  0
 14 12  2  0  0  0  0
 15 16  3  0  0  0  0
 16 10  1  0  0  0  0
 17 15  1  1  0  0  0
 18 17  1  6  0  0  0
 19 21  2  0  0  0  0
 20 18  1  0  0  0  0
 21 18  1  0  0  0  0
 22 19  1  0  0  0  0
 22 24  1  0  0  0  0
 24 23  1  6  0  0  0
 24 20  1  0  0  0  0
 25 29  2  0  0  0  0
 26 30  2  0  0  0  0
 27 29  1  0  0  0  0
 28 30  1  0  0  0  0
 29 28  1  0  0  0  0
 30 17  1  0  0  0  0
 31 35  1  0  0  0  0
 33 32  2  0  0  0  0
 34 32  1  0  0  0  0
 35 34  2  0  0  0  0
 36 33  1  0  0  0  0
 37 35  1  0  0  0  0
 37 36  2  0  0  0  0
 38 39  2  0  0  0  0
 39 37  1  0  0  0  0
 40 38  1  0  0  0  0
 41 40  1  0  0  0  0
 42 47  1  6  0  0  0
 42 44  1  0  0  0  0
 43 45  1  0  0  0  0
 44 45  1  0  0  0  0
 45 41  1  1  0  0  0
 46 42  1  0  0  0  0
 46 43  1  0  0  0  0
 47 48  1  0  0  0  0
 50 49  1  6  0  0  0
 50 51  1  0  0  0  0
 50 48  1  0  0  0  0
 52 54  1  0  0  0  0
 54 51  1  0  0  0  0
 54 53  1  0  0  0  0
 55 48  1  0  0  0  0
 56 55  1  0  0  0  0
M  END
>  <MODEL>
6

>  <REMARK>
 VINA RESULT:      -5.6      2.381      8.296
  Name = 
  17 active torsions:
  status: ('A' for Active; 'I' for Inactive)
    1  A    between atoms: C_2  and  C_31
    2  A    between atoms: C_4  and  C_51
    3  A    between atoms: C_12  and  C_22
    4  A    between atoms: C_12  and  C_43
    5  A    between atoms: C_13  and  C_41
    6  A    between atoms: C_21  and  C_23
    7  A    between atoms: C_21  and  C_45
    8  A    between atoms: C_26  and  C_31
    9  A    between atoms: C_31  and  C_49
   10  A    between atoms: C_32  and  C_33
   11  A    between atoms: C_32  and  C_52
   12  A    between atoms: C_33  and  N_55
   13  A    between atoms: C_35  and  N_55
   14  A    between atoms: C_38  and  C_39
   15  A    between atoms: C_45  and  C_48
   16  A    between atoms: C_47  and  N_54
   17  A    between atoms: C_51  and  N_55
                            x       y       z     vdW  Elec       q    Type
                         _______ _______ _______ _____ _____    ______ ____

>  <TORSDO>
F 17

$$$$
=
 OpenBabel10222419133D

 56 60  0  0  1  0  0  0  0  0999 V2000
  189.3030  179.1310  140.5910 C   0  0  0  0  0  2  0  0  0  0  0  0
  189.5050  178.0770  141.6690 C   0  0  0  0  0  2  0  0  0  0  0  0
  188.5620  178.5760  139.3650 C   0  0  2  0  0  3  0  0  0  0  0  0
  190.5480  175.8770  142.1590 C   0  0  0  0  0  1  0  0  0  0  0  0
  189.7970  176.3450  139.8270 C   0  0  2  0  0  3  0  0  0  0  0  0
  188.5460  177.0420  139.2630 C   0  0  0  0  0  2  0  0  0  0  0  0
  190.3750  176.9570  141.1120 C   0  0  1  0  0  3  0  0  0  0  0  0
  192.8340  175.6650  136.8790 C   0  0  0  0  0  0  0  0  0  0  0  0
  191.6230  174.9770  136.7750 C   0  0  0  0  0  3  0  0  0  0  0  0
  190.6260  175.1920  137.7300 C   0  0  0  0  0  0  0  0  0  0  0  0
  193.8560  175.4540  135.9110 N   0  0  0  0  0  1  0  0  0  0  0  0
  193.0380  176.5330  137.9050 N   0  0  0  0  0  0  0  0  0  0  0  0
  190.8520  176.0950  138.7840 C   0  0  0  0  0  0  0  0  0  0  0  0
  192.0850  176.7580  138.8490 C   0  0  0  0  0  3  0  0  0  0  0  0
  188.3400  173.8820  137.5080 C   0  0  0  0  0  0  0  0  0  0  0  0
  189.3880  174.4670  137.6230 C   0  0  0  0  0  0  0  0  0  0  0  0
  187.0510  173.1950  137.3440 C   0  0  2  0  0  3  0  0  0  0  0  0
  187.0160  172.3760  136.0430 C   0  0  2  0  0  3  0  0  0  0  0  0
  188.4240  170.4680  135.2220 C   0  0  0  0  0  3  0  0  0  0  0  0
  185.8500  171.3810  136.0370 C   0  0  0  0  0  2  0  0  0  0  0  0
  188.3380  171.6780  135.7970 C   0  0  0  0  0  3  0  0  0  0  0  0
  187.2070  169.6500  134.8740 C   0  0  0  0  0  2  0  0  0  0  0  0
  184.8250  169.6710  134.7280 O   0  0  0  0  0  1  0  0  0  0  0  0
  185.9420  170.5020  134.7970 C   0  0  1  0  0  3  0  0  0  0  0  0
  183.5910  175.9000  137.2210 O   0  0  0  0  0  0  0  0  0  0  0  0
  186.2550  175.4360  137.2280 O   0  0  0  0  0  0  0  0  0  0  0  0
  182.1960  174.1700  137.7710 O   0  0  0  0  0  1  0  0  0  0  0  0
  184.5980  173.8140  137.5780 N   0  0  0  0  0  2  0  0  0  0  0  0
  183.4610  174.6830  137.5180 C   0  0  0  0  0  0  0  0  0  0  0  0
  185.9600  174.2220  137.3870 C   0  0  0  0  0  0  0  0  0  0  0  0
  189.0920  179.1950  138.0790 C   0  0  0  0  0  2  0  0  0  0  0  0
  189.0230  177.2620  134.9020 C   0  0  0  0  0  3  0  0  0  0  0  0
  187.6670  177.2150  134.5940 C   0  0  0  0  0  3  0  0  0  0  0  0
  189.4290  177.9000  136.0290 N   0  0  0  0  0  0  0  0  0  0  0  0
  188.5440  178.4940  136.8760 C   0  0  0  0  0  0  0  0  0  0  0  0
  186.7750  177.8070  135.4280 N   0  0  0  0  0  0  0  0  0  0  0  0
  187.1590  178.4440  136.5670 C   0  0  0  0  0  0  0  0  0  0  0  0
  184.9720  178.5310  137.6280 C   0  0  0  0  0  3  0  0  0  0  0  0
  186.1300  179.0460  137.3710 N   0  0  0  0  0  0  0  0  0  0  0  0
  183.9980  179.2550  138.4910 C   0  0  0  0  0  2  0  0  0  0  0  0
  183.5180  178.3720  139.6330 C   0  0  0  0  0  2  0  0  0  0  0  0
  184.6420  178.7220  142.9030 C   0  0  2  0  0  3  0  0  0  0  0  0
  185.2840  179.4590  140.8200 O   0  0  0  0  0  0  0  0  0  0  0  0
  183.9420  177.9680  141.9650 O   0  0  0  0  0  0  0  0  0  0  0  0
  184.5600  178.2610  140.7360 C   0  0  1  0  0  3  0  0  0  0  0  0
  185.6530  179.5380  142.1590 C   0  0  0  0  0  2  0  0  0  0  0  0
  185.2360  177.8730  144.0500 C   0  0  0  0  0  2  0  0  0  0  0  0
  186.1200  178.5620  145.0120 N   0  0  0  0  0  0  0  0  0  0  0  0
  186.4990  176.3400  145.6730 O   0  0  0  0  0  1  0  0  0  0  0  0
  187.0360  177.6340  145.6900 C   0  0  1  0  0  3  0  0  0  0  0  0
  188.3990  177.6090  144.9990 C   0  0  0  0  0  2  0  0  0  0  0  0
  189.0560  177.4510  147.3990 C   0  0  0  0  0  1  0  0  0  0  0  0
  190.6890  176.9080  145.6290 C   0  0  0  0  0  1  0  0  0  0  0  0
  189.5280  177.8050  146.0010 C   0  0  0  0  0  3  0  0  0  0  0  0
  185.3260  179.3100  145.9860 C   0  0  0  0  0  2  0  0  0  0  0  0
  186.0230  179.4060  147.1910 O   0  0  0  0  0  1  0  0  0  0  0  0
  1  2  1  0  0  0  0
  3 31  1  6  0  0  0
  3  1  1  0  0  0  0
  5 13  1  6  0  0  0
  5  7  1  0  0  0  0
  6  3  1  0  0  0  0
  6  5  1  0  0  0  0
  7  2  1  0  0  0  0
  7  4  1  1  0  0  0
  8 12  1  0  0  0  0
  9  8  2  0  0  0  0
  9 10  1  0  0  0  0
 10 13  2  0  0  0  0
 11  8  1  0  0  0  0
 12 14  2  0  0  0  0
 13 14  1  0  0  0  0
 15 16  3  0  0  0  0
 16 10  1  0  0  0  0
 17 30  1  0  0  0  0
 17 15  1  6  0  0  0
 18 17  1  1  0  0  0
 19 21  2  0  0  0  0
 20 18  1  0  0  0  0
 21 18  1  0  0  0  0
 22 19  1  0  0  0  0
 24 23  1  1  0  0  0
 24 22  1  0  0  0  0
 24 20  1  0  0  0  0
 25 29  2  0  0  0  0
 26 30  2  0  0  0  0
 29 28  1  0  0  0  0
 29 27  1  0  0  0  0
 30 28  1  0  0  0  0
 32 34  1  0  0  0  0
 33 32  2  0  0  0  0
 33 36  1  0  0  0  0
 34 35  2  0  0  0  0
 35 31  1  0  0  0  0
 36 37  2  0  0  0  0
 37 35  1  0  0  0  0
 37 39  1  0  0  0  0
 38 40  1  0  0  0  0
 39 38  2  0  0  0  0
 40 41  1  0  0  0  0
 42 47  1  1  0  0  0
 43 46  1  0  0  0  0
 44 42  1  0  0  0  0
 45 41  1  6  0  0  0
 45 43  1  0  0  0  0
 45 44  1  0  0  0  0
 46 42  1  0  0  0  0
 47 48  1  0  0  0  0
 48 50  1  0  0  0  0
 48 55  1  0  0  0  0
 50 49  1  6  0  0  0
 51 50  1  0  0  0  0
 51 54  1  0  0  0  0
 53 54  1  0  0  0  0
 54 52  1  0  0  0  0
 55 56  1  0  0  0  0
M  END
>  <MODEL>
7

>  <REMARK>
 VINA RESULT:      -5.6      2.539      7.298
  Name = 
  17 active torsions:
  status: ('A' for Active; 'I' for Inactive)
    1  A    between atoms: C_2  and  C_31
    2  A    between atoms: C_4  and  C_51
    3  A    between atoms: C_12  and  C_22
    4  A    between atoms: C_12  and  C_43
    5  A    between atoms: C_13  and  C_41
    6  A    between atoms: C_21  and  C_23
    7  A    between atoms: C_21  and  C_45
    8  A    between atoms: C_26  and  C_31
    9  A    between atoms: C_31  and  C_49
   10  A    between atoms: C_32  and  C_33
   11  A    between atoms: C_32  and  C_52
   12  A    between atoms: C_33  and  N_55
   13  A    between atoms: C_35  and  N_55
   14  A    between atoms: C_38  and  C_39
   15  A    between atoms: C_45  and  C_48
   16  A    between atoms: C_47  and  N_54
   17  A    between atoms: C_51  and  N_55
                            x       y       z     vdW  Elec       q    Type
                         _______ _______ _______ _____ _____    ______ ____

>  <TORSDO>
F 17

$$$$
=
 OpenBabel10222419133D

 56 60  0  0  1  0  0  0  0  0999 V2000
  184.5600  177.0080  137.1410 C   0  0  0  0  0  2  0  0  0  0  0  0
  183.5480  177.8290  136.3560 C   0  0  0  0  0  2  0  0  0  0  0  0
  185.0950  175.8160  136.3320 C   0  0  2  0  0  3  0  0  0  0  0  0
  181.3460  177.7440  135.2100 C   0  0  0  0  0  1  0  0  0  0  0  0
  182.7320  175.6720  135.2800 C   0  0  2  0  0  3  0  0  0  0  0  0
  184.2430  175.4310  135.1130 C   0  0  0  0  0  2  0  0  0  0  0  0
  182.3440  176.9540  136.0300 C   0  0  1  0  0  3  0  0  0  0  0  0
  180.6510  172.2000  136.6920 C   0  0  0  0  0  0  0  0  0  0  0  0
  180.6180  173.3670  137.4580 C   0  0  0  0  0  3  0  0  0  0  0  0
  181.2920  174.5040  137.0070 C   0  0  0  0  0  0  0  0  0  0  0  0
  179.9670  171.0360  137.1420 N   0  0  0  0  0  1  0  0  0  0  0  0
  181.3370  172.1740  135.5190 N   0  0  0  0  0  0  0  0  0  0  0  0
  181.9960  174.4620  135.7890 C   0  0  0  0  0  0  0  0  0  0  0  0
  182.0030  173.2660  135.0580 C   0  0  0  0  0  3  0  0  0  0  0  0
  181.2110  176.6890  138.4950 C   0  0  0  0  0  0  0  0  0  0  0  0
  181.2650  175.6980  137.8100 C   0  0  0  0  0  0  0  0  0  0  0  0
  181.1080  177.8880  139.3380 C   0  0  2  0  0  3  0  0  0  0  0  0
  181.0730  179.1680  138.4870 C   0  0  2  0  0  3  0  0  0  0  0  0
  179.3580  180.9850  138.2550 C   0  0  0  0  0  3  0  0  0  0  0  0
  181.9910  180.2520  139.0630 C   0  0  0  0  0  2  0  0  0  0  0  0
  179.6560  179.6770  138.3160 C   0  0  0  0  0  3  0  0  0  0  0  0
  180.3930  182.0620  138.4610 C   0  0  0  0  0  2  0  0  0  0  0  0
  182.7260  182.4950  138.7150 O   0  0  0  0  0  1  0  0  0  0  0  0
  181.8140  181.5390  138.2680 C   0  0  1  0  0  3  0  0  0  0  0  0
  184.3430  178.3310  142.2760 O   0  0  0  0  0  0  0  0  0  0  0  0
  183.3500  177.3750  139.9500 O   0  0  0  0  0  0  0  0  0  0  0  0
  182.8740  179.2240  143.7870 O   0  0  0  0  0  1  0  0  0  0  0  0
  182.1080  178.4950  141.5930 N   0  0  0  0  0  2  0  0  0  0  0  0
  183.1600  178.6650  142.5490 C   0  0  0  0  0  0  0  0  0  0  0  0
  182.2550  177.8890  140.3010 C   0  0  0  0  0  0  0  0  0  0  0  0
  185.3290  174.6080  137.2290 C   0  0  0  0  0  2  0  0  0  0  0  0
  186.2300  171.4740  135.4410 C   0  0  0  0  0  3  0  0  0  0  0  0
  187.6100  171.5800  135.2980 C   0  0  0  0  0  2  0  0  0  0  0  0
  185.5450  172.4690  136.0580 N   0  0  0  0  0  0  0  0  0  0  0  0
  186.1690  173.5780  136.5410 C   0  0  2  0  0  3  0  0  0  0  0  0
  188.2450  172.6800  135.7780 N   0  0  0  0  0  0  0  0  0  0  0  0
  187.5760  173.6930  136.3920 C   0  0  0  0  0  0  0  0  0  0  0  0
  188.8560  175.7460  136.1440 C   0  0  0  0  0  3  0  0  0  0  0  0
  188.3510  174.8050  136.8720 N   0  0  0  0  0  0  0  0  0  0  0  0
  189.6300  176.8550  136.7690 C   0  0  0  0  0  2  0  0  0  0  0  0
  191.0040  176.3790  137.2150 C   0  0  0  0  0  2  0  0  0  0  0  0
  190.3830  177.4580  140.4600 C   0  0  2  0  0  3  0  0  0  0  0  0
  192.2300  176.9670  139.1790 O   0  0  0  0  0  0  0  0  0  0  0  0
  189.9330  176.7790  139.3300 O   0  0  0  0  0  0  0  0  0  0  0  0
  191.0990  176.2710  138.7290 C   0  0  1  0  0  3  0  0  0  0  0  0
  191.8790  177.3960  140.4550 C   0  0  0  0  0  2  0  0  0  0  0  0
  189.7340  176.9610  141.7720 C   0  0  0  0  0  2  0  0  0  0  0  0
  188.9700  177.9470  142.5640 N   0  0  0  0  0  0  0  0  0  0  0  0
  187.9450  175.9330  143.2050 O   0  0  0  0  0  1  0  0  0  0  0  0
  188.0090  177.3070  143.4710 C   0  0  1  0  0  3  0  0  0  0  0  0
  188.4180  177.5060  144.9300 C   0  0  0  0  0  2  0  0  0  0  0  0
  187.5880  177.8770  147.2510 C   0  0  0  0  0  1  0  0  0  0  0  0
  186.0890  178.2490  145.3250 C   0  0  0  0  0  1  0  0  0  0  0  0
  187.2190  177.3950  145.8600 C   0  0  0  0  0  3  0  0  0  0  0  0
  188.2950  178.8950  141.6790 C   0  0  0  0  0  2  0  0  0  0  0  0
  187.2250  178.2680  141.0410 O   0  0  0  0  0  1  0  0  0  0  0  0
  2  1  1  0  0  0  0
  3  1  1  0  0  0  0
  3 31  1  1  0  0  0
  5 13  1  1  0  0  0
  5  7  1  0  0  0  0
  6  5  1  0  0  0  0
  6  3  1  0  0  0  0
  7  4  1  6  0  0  0
  7  2  1  0  0  0  0
  8 11  1  0  0  0  0
  8  9  1  0  0  0  0
 10  9  2  0  0  0  0
 10 16  1  0  0  0  0
 12  8  2  0  0  0  0
 13 10  1  0  0  0  0
 14 12  1  0  0  0  0
 14 13  2  0  0  0  0
 16 15  3  0  0  0  0
 17 15  1  6  0  0  0
 17 30  1  0  0  0  0
 18 20  1  0  0  0  0
 18 17  1  1  0  0  0
 19 21  2  0  0  0  0
 19 22  1  0  0  0  0
 21 18  1  0  0  0  0
 24 22  1  0  0  0  0
 24 23  1  1  0  0  0
 24 20  1  0  0  0  0
 25 29  2  0  0  0  0
 26 30  2  0  0  0  0
 28 29  1  0  0  0  0
 29 27  1  0  0  0  0
 30 28  1  0  0  0  0
 32 34  2  0  0  0  0
 33 32  1  0  0  0  0
 33 36  1  0  0  0  0
 34 35  1  0  0  0  0
 35 31  1  1  0  0  0
 36 37  2  0  0  0  0
 37 35  1  0  0  0  0
 37 39  1  0  0  0  0
 38 40  1  0  0  0  0
 38 39  2  0  0  0  0
 40 41  1  0  0  0  0
 42 47  1  1  0  0  0
 43 46  1  0  0  0  0
 44 42  1  0  0  0  0
 45 41  1  6  0  0  0
 45 43  1  0  0  0  0
 45 44  1  0  0  0  0
 46 42  1  0  0  0  0
 47 48  1  0  0  0  0
 48 50  1  0  0  0  0
 50 49  1  6  0  0  0
 50 51  1  0  0  0  0
 51 54  1  0  0  0  0
 53 54  1  0  0  0  0
 54 52  1  0  0  0  0
 55 48  1  0  0  0  0
 56 55  1  0  0  0  0
M  END
>  <MODEL>
8

>  <REMARK>
 VINA RESULT:      -5.6      2.848     10.612
  Name = 
  17 active torsions:
  status: ('A' for Active; 'I' for Inactive)
    1  A    between atoms: C_2  and  C_31
    2  A    between atoms: C_4  and  C_51
    3  A    between atoms: C_12  and  C_22
    4  A    between atoms: C_12  and  C_43
    5  A    between atoms: C_13  and  C_41
    6  A    between atoms: C_21  and  C_23
    7  A    between atoms: C_21  and  C_45
    8  A    between atoms: C_26  and  C_31
    9  A    between atoms: C_31  and  C_49
   10  A    between atoms: C_32  and  C_33
   11  A    between atoms: C_32  and  C_52
   12  A    between atoms: C_33  and  N_55
   13  A    between atoms: C_35  and  N_55
   14  A    between atoms: C_38  and  C_39
   15  A    between atoms: C_45  and  C_48
   16  A    between atoms: C_47  and  N_54
   17  A    between atoms: C_51  and  N_55
                            x       y       z     vdW  Elec       q    Type
                         _______ _______ _______ _____ _____    ______ ____

>  <TORSDO>
F 17

$$$$
=
 OpenBabel10222419133D

 56 60  0  0  1  0  0  0  0  0999 V2000
  186.2780  178.3460  139.8080 C   0  0  0  0  0  2  0  0  0  0  0  0
  186.1590  177.6200  138.4760 C   0  0  0  0  0  2  0  0  0  0  0  0
  185.0460  178.1300  140.7000 C   0  0  2  0  0  3  0  0  0  0  0  0
  184.8080  177.4380  136.3990 C   0  0  0  0  0  1  0  0  0  0  0  0
  183.6600  178.1050  138.5100 C   0  0  2  0  0  3  0  0  0  0  0  0
  183.7990  177.6150  139.9630 C   0  0  0  0  0  2  0  0  0  0  0  0
  184.9680  178.1810  137.7090 C   0  0  1  0  0  3  0  0  0  0  0  0
  181.3500  181.7010  138.1790 C   0  0  0  0  0  0  0  0  0  0  0  0
  180.7960  180.4970  137.7400 C   0  0  0  0  0  3  0  0  0  0  0  0
  181.5390  179.3190  137.8440 C   0  0  0  0  0  0  0  0  0  0  0  0
  180.6000  182.9060  138.0790 N   0  0  0  0  0  1  0  0  0  0  0  0
  182.6050  181.7220  138.7000 N   0  0  0  0  0  0  0  0  0  0  0  0
  182.8360  179.3580  138.3880 C   0  0  0  0  0  0  0  0  0  0  0  0
  183.3510  180.5910  138.8110 C   0  0  0  0  0  3  0  0  0  0  0  0
  180.4640  177.0520  137.0100 C   0  0  0  0  0  0  0  0  0  0  0  0
  180.9650  178.0860  137.3750 C   0  0  0  0  0  0  0  0  0  0  0  0
  179.8350  175.7880  136.5990 C   0  0  2  0  0  3  0  0  0  0  0  0
  179.1540  175.0910  137.7870 C   0  0  2  0  0  3  0  0  0  0  0  0
  179.6150  172.9130  138.9460 C   0  0  0  0  0  3  0  0  0  0  0  0
  179.5240  175.7570  139.1180 C   0  0  0  0  0  2  0  0  0  0  0  0
  179.4640  173.6080  137.8070 C   0  0  0  0  0  3  0  0  0  0  0  0
  179.5980  173.5700  140.3030 C   0  0  0  0  0  2  0  0  0  0  0  0
  179.1790  175.6070  141.4730 O   0  0  0  0  0  1  0  0  0  0  0  0
  178.9400  174.9480  140.2680 C   0  0  1  0  0  3  0  0  0  0  0  0
  183.2190  173.5770  134.8780 O   0  0  0  0  0  0  0  0  0  0  0  0
  180.6290  174.3560  134.8710 O   0  0  0  0  0  0  0  0  0  0  0  0
  184.4490  173.9510  136.7710 O   0  0  0  0  0  1  0  0  0  0  0  0
  182.1620  174.7680  136.5970 N   0  0  0  0  0  2  0  0  0  0  0  0
  183.2780  174.0690  136.0360 C   0  0  0  0  0  0  0  0  0  0  0  0
  180.8820  174.9220  135.9680 C   0  0  0  0  0  0  0  0  0  0  0  0
  184.7200  179.3870  141.4950 C   0  0  0  0  0  2  0  0  0  0  0  0
  183.2950  179.2730  144.9290 C   0  0  0  0  0  3  0  0  0  0  0  0
  184.2970  178.6440  145.6630 C   0  0  0  0  0  2  0  0  0  0  0  0
  183.4740  179.4820  143.6000 N   0  0  0  0  0  0  0  0  0  0  0  0
  184.6070  179.0880  142.9570 C   0  0  2  0  0  3  0  0  0  0  0  0
  185.4330  178.2490  145.0340 N   0  0  0  0  0  0  0  0  0  0  0  0
  185.6280  178.4420  143.7020 C   0  0  0  0  0  0  0  0  0  0  0  0
  187.5390  176.9480  143.5120 C   0  0  0  0  0  3  0  0  0  0  0  0
  186.8750  177.9940  143.1410 N   0  0  0  0  0  0  0  0  0  0  0  0
  188.8160  176.5850  142.8380 C   0  0  0  0  0  2  0  0  0  0  0  0
  189.2820  177.6980  141.9120 C   0  0  0  0  0  2  0  0  0  0  0  0
  191.0140  176.6360  139.0920 C   0  0  2  0  0  3  0  0  0  0  0  0
  189.5560  178.3340  139.6250 O   0  0  0  0  0  0  0  0  0  0  0  0
  190.4420  176.3180  140.3210 O   0  0  0  0  0  0  0  0  0  0  0  0
  189.3790  177.2280  140.4680 C   0  0  1  0  0  3  0  0  0  0  0  0
  190.2890  177.8310  138.5560 C   0  0  0  0  0  2  0  0  0  0  0  0
  191.0700  175.4400  138.1150 C   0  0  0  0  0  2  0  0  0  0  0  0
  191.3470  175.7390  136.6950 N   0  0  0  0  0  0  0  0  0  0  0  0
  190.1190  173.7440  136.5360 O   0  0  0  0  0  1  0  0  0  0  0  0
  190.7630  174.7400  135.7910 C   0  0  1  0  0  3  0  0  0  0  0  0
  189.7450  175.3830  134.8490 C   0  0  0  0  0  2  0  0  0  0  0  0
  188.2710  177.2990  135.4550 C   0  0  0  0  0  1  0  0  0  0  0  0
  187.2950  175.0730  135.0230 C   0  0  0  0  0  1  0  0  0  0  0  0
  188.4890  175.8040  135.5980 C   0  0  0  0  0  3  0  0  0  0  0  0
  192.7880  175.8590  136.4740 C   0  0  0  0  0  2  0  0  0  0  0  0
  193.0530  175.9240  135.1060 O   0  0  0  0  0  1  0  0  0  0  0  0
  1  3  1  0  0  0  0
  2  1  1  0  0  0  0
  3 31  1  6  0  0  0
  5 13  1  1  0  0  0
  5  6  1  0  0  0  0
  6  3  1  0  0  0  0
  7  4  1  6  0  0  0
  7  2  1  0  0  0  0
  7  5  1  0  0  0  0
  8 12  1  0  0  0  0
  9 10  1  0  0  0  0
  9  8  2  0  0  0  0
 10 13  2  0  0  0  0
 11  8  1  0  0  0  0
 12 14  2  0  0  0  0
 13 14  1  0  0  0  0
 15 16  3  0  0  0  0
 16 10  1  0  0  0  0
 17 15  1  1  0  0  0
 18 17  1  6  0  0  0
 18 21  1  0  0  0  0
 18 20  1  0  0  0  0
 19 22  1  0  0  0  0
 20 24  1  0  0  0  0
 21 19  2  0  0  0  0
 24 22  1  0  0  0  0
 24 23  1  1  0  0  0
 25 29  2  0  0  0  0
 26 30  2  0  0  0  0
 29 28  1  0  0  0  0
 29 27  1  0  0  0  0
 30 28  1  0  0  0  0
 30 17  1  0  0  0  0
 32 33  1  0  0  0  0
 34 32  2  0  0  0  0
 35 31  1  1  0  0  0
 35 34  1  0  0  0  0
 35 37  1  0  0  0  0
 36 33  1  0  0  0  0
 37 36  2  0  0  0  0
 39 38  2  0  0  0  0
 39 37  1  0  0  0  0
 40 38  1  0  0  0  0
 41 40  1  0  0  0  0
 42 47  1  6  0  0  0
 42 44  1  0  0  0  0
 43 45  1  0  0  0  0
 44 45  1  0  0  0  0
 45 41  1  1  0  0  0
 46 42  1  0  0  0  0
 46 43  1  0  0  0  0
 48 47  1  0  0  0  0
 50 49  1  1  0  0  0
 50 48  1  0  0  0  0
 51 54  1  0  0  0  0
 51 50  1  0  0  0  0
 52 54  1  0  0  0  0
 53 54  1  0  0  0  0
 55 48  1  0  0  0  0
 56 55  1  0  0  0  0
M  END
>  <MODEL>
9

>  <REMARK>
 VINA RESULT:      -5.4      2.736      8.743
  Name = 
  17 active torsions:
  status: ('A' for Active; 'I' for Inactive)
    1  A    between atoms: C_2  and  C_31
    2  A    between atoms: C_4  and  C_51
    3  A    between atoms: C_12  and  C_22
    4  A    between atoms: C_12  and  C_43
    5  A    between atoms: C_13  and  C_41
    6  A    between atoms: C_21  and  C_23
    7  A    between atoms: C_21  and  C_45
    8  A    between atoms: C_26  and  C_31
    9  A    between atoms: C_31  and  C_49
   10  A    between atoms: C_32  and  C_33
   11  A    between atoms: C_32  and  C_52
   12  A    between atoms: C_33  and  N_55
   13  A    between atoms: C_35  and  N_55
   14  A    between atoms: C_38  and  C_39
   15  A    between atoms: C_45  and  C_48
   16  A    between atoms: C_47  and  N_54
   17  A    between atoms: C_51  and  N_55
                            x       y       z     vdW  Elec       q    Type
                         _______ _______ _______ _____ _____    ______ ____

>  <TORSDO>
F 17

$$$$
