=
 OpenBabel10222416563D

 28 31  0  0  1  0  0  0  0  0999 V2000
  185.9560  178.6360  141.3400 C   0  0  0  0  0  2  0  0  0  0  0  0
  184.5970  178.5090  143.4380 C   0  0  0  0  0  0  0  0  0  0  0  0
  185.7920  178.1580  144.2190 C   0  0  0  0  0  3  0  0  0  0  0  0
  188.3360  177.4240  145.7690 C   0  0  0  0  0  0  0  0  0  0  0  0
  189.7340  177.1250  146.0340 C   0  0  0  0  0  0  0  0  0  0  0  0
  184.6710  178.7280  142.1210 C   0  0  0  0  0  3  0  0  0  0  0  0
  190.5150  177.2120  144.7490 C   0  0  0  0  0  2  0  0  0  0  0  0
  187.4130  177.4400  146.6250 O   0  0  0  0  0  0  0  0  0  0  0  0
  189.4290  177.5800  143.7760 C   0  0  0  0  0  0  0  0  0  0  0  0
  190.8350  177.6680  141.8770 O   0  0  0  0  0  1  0  0  0  0  0  0
  188.1570  177.7010  144.3910 N   0  0  0  0  0  0  0  0  0  0  0  0
  189.5770  177.7860  142.4630 C   0  0  0  0  0  0  0  0  0  0  0  0
  187.1580  178.2720  142.1840 C   0  0  0  0  0  0  0  0  0  0  0  0
  186.9900  178.0450  143.6410 C   0  0  0  0  0  0  0  0  0  0  0  0
  188.3910  178.1490  141.6310 C   0  0  0  0  0  0  0  0  0  0  0  0
  190.1960  176.8320  147.2160 N   0  0  0  0  0  0  0  0  0  0  0  0
  183.3410  178.6180  144.0950 N   0  0  0  0  0  1  0  0  0  0  0  0
  191.5520  176.5240  147.5760 C   0  0  0  0  0  0  0  0  0  0  0  0
  192.1740  177.3150  148.3290 O   0  0  0  0  0  0  0  0  0  0  0  0
  192.2590  175.3010  147.0950 C   0  0  0  0  0  1  0  0  0  0  0  0
  188.5940  178.3490  140.1590 C   0  0  0  0  0  2  0  0  0  0  0  0
  188.7260  176.9200  138.0240 C   0  0  2  0  0  3  0  0  0  0  0  0
  188.9840  177.0320  139.4940 C   0  0  1  0  0  3  0  0  0  0  0  0
  189.9910  177.2630  138.5390 O   0  0  0  0  0  0  0  0  0  0  0  0
  187.8690  178.0900  135.7140 O   0  0  0  0  0  0  0  0  0  0  0  0
  188.9630  179.7430  137.4140 O   0  0  0  0  0  1  0  0  0  0  0  0
  187.9890  178.3770  137.1920 P   0  0  0  0  0  0  0  0  0  0  0  0
  186.4490  178.6740  137.8270 O   0  0  0  0  0  1  0  0  0  0  0  0
  1  6  1  0  0  0  0
  1 13  1  0  0  0  0
  2 17  1  0  0  0  0
  2  3  1  0  0  0  0
  4  5  1  0  0  0  0
  4  8  2  0  0  0  0
  5 16  2  0  0  0  0
  6  2  2  0  0  0  0
  7  5  1  0  0  0  0
  9 11  1  0  0  0  0
  9  7  1  0  0  0  0
 10 12  1  0  0  0  0
 11  4  1  0  0  0  0
 12  9  2  0  0  0  0
 13 14  1  0  0  0  0
 14  3  2  0  0  0  0
 14 11  1  0  0  0  0
 15 13  2  0  0  0  0
 15 12  1  0  0  0  0
 16 18  1  0  0  0  0
 18 19  2  0  0  0  0
 20 18  1  0  0  0  0
 21 15  1  0  0  0  0
 22 27  1  6  0  0  0
 22 24  1  0  0  0  0
 22 23  1  0  0  0  0
 23 21  1  6  0  0  0
 24 23  1  0  0  0  0
 25 27  2  0  0  0  0
 27 26  1  0  0  0  0
 27 28  1  0  0  0  0
M  END
>  <MODEL>
1

>  <REMARK>
 VINA RESULT:      -9.5      0.000      0.000
  Name = 
  4 active torsions:
  status: ('A' for Active; 'I' for Inactive)
    1  A    between atoms: C_3  and  P_13
    2  A    between atoms: C_8  and  N_26
    3  A    between atoms: C_9  and  C_27
    4  A    between atoms: C_22  and  C_27
                            x       y       z     vdW  Elec       q    Type
                         _______ _______ _______ _____ _____    ______ ____

>  <TORSDO>
F 4

$$$$
=
 OpenBabel10222416563D

 28 31  0  0  1  0  0  0  0  0999 V2000
  186.9860  177.8110  145.6090 C   0  0  0  0  0  3  0  0  0  0  0  0
  184.6920  178.6630  145.0860 C   0  0  0  0  0  0  0  0  0  0  0  0
  184.9970  178.6680  143.6470 C   0  0  0  0  0  3  0  0  0  0  0  0
  185.7200  178.6520  140.6660 C   0  0  0  0  0  0  0  0  0  0  0  0
  186.5000  178.4740  139.4520 C   0  0  0  0  0  0  0  0  0  0  0  0
  185.6010  178.2710  145.9840 C   0  0  0  0  0  3  0  0  0  0  0  0
  187.8710  177.9610  139.8110 C   0  0  0  0  0  2  0  0  0  0  0  0
  184.5330  179.0660  140.7220 O   0  0  0  0  0  0  0  0  0  0  0  0
  187.7650  177.8780  141.3090 C   0  0  0  0  0  0  0  0  0  0  0  0
  189.9590  177.0700  141.6550 O   0  0  0  0  0  1  0  0  0  0  0  0
  186.4970  178.2870  141.7940 N   0  0  0  0  0  0  0  0  0  0  0  0
  188.7220  177.4720  142.1500 C   0  0  0  0  0  0  0  0  0  0  0  0
  187.2540  177.8330  144.1210 C   0  0  0  0  0  0  0  0  0  0  0  0
  186.1890  178.2830  143.1900 C   0  0  1  0  0  3  0  0  0  0  0  0
  188.4550  177.4480  143.6200 C   0  0  0  0  0  0  0  0  0  0  0  0
  186.0450  178.7310  138.2590 N   0  0  0  0  0  0  0  0  0  0  0  0
  183.4080  179.0830  145.5290 N   0  0  0  0  0  1  0  0  0  0  0  0
  186.7350  178.5870  137.0080 C   0  0  0  0  0  0  0  0  0  0  0  0
  187.6550  179.3980  136.7260 O   0  0  0  0  0  0  0  0  0  0  0  0
  186.4090  177.5160  136.0220 C   0  0  0  0  0  1  0  0  0  0  0  0
  189.5610  177.0080  144.5320 C   0  0  0  0  0  2  0  0  0  0  0  0
  191.6160  177.9560  145.7550 C   0  0  2  0  0  3  0  0  0  0  0  0
  190.6160  178.1040  144.6500 C   0  0  1  0  0  3  0  0  0  0  0  0
  191.8940  177.5560  144.4330 O   0  0  0  0  0  0  0  0  0  0  0  0
  192.3140  176.6750  148.0590 O   0  0  0  0  0  1  0  0  0  0  0  0
  191.9990  175.0950  146.0030 O   0  0  0  0  0  0  0  0  0  0  0  0
  191.4670  176.4760  146.8240 P   0  0  0  0  0  0  0  0  0  0  0  0
  189.8530  176.2700  147.2860 O   0  0  0  0  0  1  0  0  0  0  0  0
  1  6  2  0  0  0  0
  2 17  1  0  0  0  0
  2  6  1  0  0  0  0
  3  2  2  0  0  0  0
  4  8  2  0  0  0  0
  4 11  1  0  0  0  0
  5  7  1  0  0  0  0
  5  4  1  0  0  0  0
  7  9  1  0  0  0  0
  9 11  1  0  0  0  0
  9 12  2  0  0  0  0
 10 12  1  0  0  0  0
 11 14  1  0  0  0  0
 12 15  1  0  0  0  0
 13  1  1  0  0  0  0
 14  3  1  1  0  0  0
 14 13  1  0  0  0  0
 15 13  2  0  0  0  0
 15 21  1  0  0  0  0
 16  5  2  0  0  0  0
 18 16  1  0  0  0  0
 19 18  2  0  0  0  0
 20 18  1  0  0  0  0
 22 27  1  1  0  0  0
 23 21  1  1  0  0  0
 23 22  1  0  0  0  0
 24 23  1  0  0  0  0
 24 22  1  0  0  0  0
 26 27  2  0  0  0  0
 27 28  1  0  0  0  0
 27 25  1  0  0  0  0
M  END
>  <MODEL>
2

>  <REMARK>
 VINA RESULT:      -8.4      2.941      7.210
  Name = 
  4 active torsions:
  status: ('A' for Active; 'I' for Inactive)
    1  A    between atoms: C_3  and  P_13
    2  A    between atoms: C_8  and  N_26
    3  A    between atoms: C_9  and  C_27
    4  A    between atoms: C_22  and  C_27
                            x       y       z     vdW  Elec       q    Type
                         _______ _______ _______ _____ _____    ______ ____

>  <TORSDO>
F 4

$$$$
=
 OpenBabel10222416563D

 28 31  0  0  1  0  0  0  0  0999 V2000
  189.7300  177.8300  142.6180 C   0  0  0  0  0  2  0  0  0  0  0  0
  189.3270  177.4970  145.0650 C   0  0  0  0  0  0  0  0  0  0  0  0
  187.8900  177.7550  144.8880 C   0  0  0  0  0  3  0  0  0  0  0  0
  184.9090  178.3120  144.4270 C   0  0  0  0  0  0  0  0  0  0  0  0
  183.6710  178.6260  143.7330 C   0  0  0  0  0  0  0  0  0  0  0  0
  190.1690  177.5310  144.0270 C   0  0  0  0  0  3  0  0  0  0  0  0
  183.9570  178.8190  142.2660 C   0  0  0  0  0  2  0  0  0  0  0  0
  185.0240  178.0910  145.6610 O   0  0  0  0  0  0  0  0  0  0  0  0
  185.4420  178.5850  142.2280 C   0  0  0  0  0  0  0  0  0  0  0  0
  185.6740  178.9230  139.9000 O   0  0  0  0  0  1  0  0  0  0  0  0
  185.9840  178.2890  143.5050 N   0  0  0  0  0  0  0  0  0  0  0  0
  186.2250  178.6350  141.1460 C   0  0  0  0  0  0  0  0  0  0  0  0
  188.2460  178.0900  142.4840 C   0  0  0  0  0  0  0  0  0  0  0  0
  187.3790  178.0330  143.6870 C   0  0  0  0  0  0  0  0  0  0  0  0
  187.6900  178.3750  141.2790 C   0  0  0  0  0  0  0  0  0  0  0  0
  182.5150  178.7160  144.3260 N   0  0  0  0  0  0  0  0  0  0  0  0
  189.8290  177.2050  146.3630 N   0  0  0  0  0  1  0  0  0  0  0  0
  181.2440  179.0190  143.7300 C   0  0  0  0  0  0  0  0  0  0  0  0
  181.1390  180.0500  143.0180 O   0  0  0  0  0  0  0  0  0  0  0  0
  180.0380  178.1610  143.9160 C   0  0  0  0  0  1  0  0  0  0  0  0
  188.5380  178.4620  140.0460 C   0  0  0  0  0  2  0  0  0  0  0  0
  188.9050  176.8030  138.1140 C   0  0  2  0  0  3  0  0  0  0  0  0
  188.9510  177.0660  139.5870 C   0  0  1  0  0  3  0  0  0  0  0  0
  190.0980  177.1530  138.7770 O   0  0  0  0  0  0  0  0  0  0  0  0
  188.8090  177.8940  135.6160 O   0  0  0  0  0  0  0  0  0  0  0  0
  189.0820  179.6370  137.5410 O   0  0  0  0  0  1  0  0  0  0  0  0
  188.3770  178.1850  137.0340 P   0  0  0  0  0  0  0  0  0  0  0  0
  186.6920  178.3300  137.0820 O   0  0  0  0  0  1  0  0  0  0  0  0
  1  6  1  0  0  0  0
  2 17  1  0  0  0  0
  3  2  1  0  0  0  0
  4  8  2  0  0  0  0
  5 16  2  0  0  0  0
  5  4  1  0  0  0  0
  6  2  2  0  0  0  0
  7  5  1  0  0  0  0
  9  7  1  0  0  0  0
  9 11  1  0  0  0  0
 10 12  1  0  0  0  0
 11 14  1  0  0  0  0
 11  4  1  0  0  0  0
 12 15  1  0  0  0  0
 12  9  2  0  0  0  0
 13  1  1  0  0  0  0
 13 14  1  0  0  0  0
 14  3  2  0  0  0  0
 15 13  2  0  0  0  0
 18 20  1  0  0  0  0
 18 16  1  0  0  0  0
 19 18  2  0  0  0  0
 21 15  1  0  0  0  0
 22 27  1  6  0  0  0
 22 24  1  0  0  0  0
 22 23  1  0  0  0  0
 23 21  1  6  0  0  0
 24 23  1  0  0  0  0
 25 27  2  0  0  0  0
 27 28  1  0  0  0  0
 27 26  1  0  0  0  0
M  END
>  <MODEL>
3

>  <REMARK>
 VINA RESULT:      -8.3      2.103      5.503
  Name = 
  4 active torsions:
  status: ('A' for Active; 'I' for Inactive)
    1  A    between atoms: C_3  and  P_13
    2  A    between atoms: C_8  and  N_26
    3  A    between atoms: C_9  and  C_27
    4  A    between atoms: C_22  and  C_27
                            x       y       z     vdW  Elec       q    Type
                         _______ _______ _______ _____ _____    ______ ____

>  <TORSDO>
F 4

$$$$
=
 OpenBabel10222416563D

 28 31  0  0  1  0  0  0  0  0999 V2000
  186.3880  178.3430  141.2260 C   0  0  0  0  0  2  0  0  0  0  0  0
  188.6250  178.2130  140.1130 C   0  0  0  0  0  0  0  0  0  0  0  0
  189.2740  177.9170  141.4000 C   0  0  0  0  0  3  0  0  0  0  0  0
  190.5430  177.3090  144.1250 C   0  0  0  0  0  0  0  0  0  0  0  0
  190.6560  177.0670  145.5540 C   0  0  0  0  0  0  0  0  0  0  0  0
  187.3050  178.4080  140.0330 C   0  0  0  0  0  3  0  0  0  0  0  0
  189.2900  177.1550  146.1850 C   0  0  0  0  0  2  0  0  0  0  0  0
  191.4960  177.3090  143.3020 O   0  0  0  0  0  0  0  0  0  0  0  0
  188.4380  177.4620  144.9840 C   0  0  0  0  0  0  0  0  0  0  0  0
  186.3920  177.5510  146.1650 O   0  0  0  0  0  1  0  0  0  0  0  0
  189.1890  177.5500  143.7850 N   0  0  0  0  0  0  0  0  0  0  0  0
  187.1130  177.6450  144.9780 C   0  0  0  0  0  0  0  0  0  0  0  0
  187.0970  178.0370  142.5260 C   0  0  0  0  0  0  0  0  0  0  0  0
  188.5680  177.8340  142.5290 C   0  0  0  0  0  0  0  0  0  0  0  0
  186.4130  177.9440  143.6940 C   0  0  0  0  0  0  0  0  0  0  0  0
  191.7840  176.8170  146.1560 N   0  0  0  0  0  0  0  0  0  0  0  0
  189.4170  178.2930  138.9350 N   0  0  0  0  0  1  0  0  0  0  0  0
  191.9960  176.5660  147.5540 C   0  0  0  0  0  0  0  0  0  0  0  0
  191.8080  177.5010  148.3730 O   0  0  0  0  0  0  0  0  0  0  0  0
  192.4310  175.2400  148.0810 C   0  0  0  0  0  1  0  0  0  0  0  0
  184.9300  178.1650  143.7320 C   0  0  0  0  0  2  0  0  0  0  0  0
  183.2250  179.9920  144.3430 C   0  0  2  0  0  3  0  0  0  0  0  0
  184.6040  179.4350  144.5140 C   0  0  1  0  0  3  0  0  0  0  0  0
  183.5730  179.1730  145.4340 O   0  0  0  0  0  0  0  0  0  0  0  0
  181.5440  177.8790  143.9650 O   0  0  0  0  0  1  0  0  0  0  0  0
  182.9050  178.5630  141.8430 O   0  0  0  0  0  0  0  0  0  0  0  0
  182.0880  179.0830  143.2320 P   0  0  0  0  0  0  0  0  0  0  0  0
  180.8040  180.0890  142.7860 O   0  0  0  0  0  1  0  0  0  0  0  0
  1 13  1  0  0  0  0
  2  3  1  0  0  0  0
  3 14  2  0  0  0  0
  4  5  1  0  0  0  0
  5 16  2  0  0  0  0
  5  7  1  0  0  0  0
  6  2  2  0  0  0  0
  6  1  1  0  0  0  0
  8  4  2  0  0  0  0
  9  7  1  0  0  0  0
 11  4  1  0  0  0  0
 11  9  1  0  0  0  0
 12  9  2  0  0  0  0
 12 10  1  0  0  0  0
 13 14  1  0  0  0  0
 13 15  2  0  0  0  0
 14 11  1  0  0  0  0
 15 21  1  0  0  0  0
 15 12  1  0  0  0  0
 16 18  1  0  0  0  0
 17  2  1  0  0  0  0
 18 20  1  0  0  0  0
 18 19  2  0  0  0  0
 22 27  1  6  0  0  0
 22 23  1  0  0  0  0
 22 24  1  0  0  0  0
 23 21  1  6  0  0  0
 23 24  1  0  0  0  0
 26 27  2  0  0  0  0
 27 25  1  0  0  0  0
 28 27  1  0  0  0  0
M  END
>  <MODEL>
4

>  <REMARK>
 VINA RESULT:      -8.0      3.263      5.274
  Name = 
  4 active torsions:
  status: ('A' for Active; 'I' for Inactive)
    1  A    between atoms: C_3  and  P_13
    2  A    between atoms: C_8  and  N_26
    3  A    between atoms: C_9  and  C_27
    4  A    between atoms: C_22  and  C_27
                            x       y       z     vdW  Elec       q    Type
                         _______ _______ _______ _____ _____    ______ ____

>  <TORSDO>
F 4

$$$$
=
 OpenBabel10222416563D

 28 31  0  0  1  0  0  0  0  0999 V2000
  188.6500  177.4870  144.1940 C   0  0  0  0  0  2  0  0  0  0  0  0
  187.6780  177.8100  146.4770 C   0  0  0  0  0  0  0  0  0  0  0  0
  186.3690  178.1470  145.8980 C   0  0  0  0  0  3  0  0  0  0  0  0
  183.6760  178.8420  144.6040 C   0  0  0  0  0  0  0  0  0  0  0  0
  182.6800  179.0850  143.5730 C   0  0  0  0  0  0  0  0  0  0  0  0
  188.7220  177.5080  145.6990 C   0  0  0  0  0  3  0  0  0  0  0  0
  183.3040  178.8810  142.2170 C   0  0  0  0  0  2  0  0  0  0  0  0
  183.4850  178.9250  145.8450 O   0  0  0  0  0  0  0  0  0  0  0  0
  184.7110  178.5100  142.6010 C   0  0  0  0  0  0  0  0  0  0  0  0
  185.4930  178.2360  140.3870 O   0  0  0  0  0  1  0  0  0  0  0  0
  184.9110  178.4920  144.0040 N   0  0  0  0  0  0  0  0  0  0  0  0
  185.7100  178.2170  141.7620 C   0  0  0  0  0  0  0  0  0  0  0  0
  187.2870  177.8400  143.6430 C   0  0  0  0  0  0  0  0  0  0  0  0
  186.1790  178.1630  144.5780 C   0  0  0  0  0  0  0  0  0  0  0  0
  187.0560  177.8660  142.3060 C   0  0  0  0  0  0  0  0  0  0  0  0
  181.4490  179.4250  143.8270 N   0  0  0  0  0  0  0  0  0  0  0  0
  187.8360  177.8050  147.8900 N   0  0  0  0  0  1  0  0  0  0  0  0
  180.3980  179.6850  142.8840 C   0  0  0  0  0  0  0  0  0  0  0  0
  180.0540  180.8770  142.6730 O   0  0  0  0  0  0  0  0  0  0  0  0
  179.6920  178.6030  142.1400 C   0  0  0  0  0  1  0  0  0  0  0  0
  188.1560  177.5660  141.3330 C   0  0  0  0  0  2  0  0  0  0  0  0
  189.4300  178.6280  139.3660 C   0  0  2  0  0  3  0  0  0  0  0  0
  188.5070  178.8160  140.5300 C   0  0  1  0  0  3  0  0  0  0  0  0
  188.0310  178.6820  139.2130 O   0  0  0  0  0  0  0  0  0  0  0  0
  191.1630  176.9850  138.0490 O   0  0  0  0  0  0  0  0  0  0  0  0
  188.7720  175.9870  138.3730 O   0  0  0  0  0  1  0  0  0  0  0  0
  190.0170  176.9250  139.0320 P   0  0  0  0  0  0  0  0  0  0  0  0
  190.5550  176.2170  140.4700 O   0  0  0  0  0  1  0  0  0  0  0  0
  1  6  1  0  0  0  0
  2 17  1  0  0  0  0
  3  2  1  0  0  0  0
  4  8  2  0  0  0  0
  5 16  2  0  0  0  0
  5  4  1  0  0  0  0
  6  2  2  0  0  0  0
  7  9  1  0  0  0  0
  7  5  1  0  0  0  0
  9 11  1  0  0  0  0
 10 12  1  0  0  0  0
 11 14  1  0  0  0  0
 11  4  1  0  0  0  0
 12 15  1  0  0  0  0
 12  9  2  0  0  0  0
 13  1  1  0  0  0  0
 13 14  1  0  0  0  0
 14  3  2  0  0  0  0
 15 13  2  0  0  0  0
 18 16  1  0  0  0  0
 19 18  2  0  0  0  0
 20 18  1  0  0  0  0
 21 15  1  0  0  0  0
 22 27  1  1  0  0  0
 22 23  1  0  0  0  0
 23 21  1  1  0  0  0
 24 22  1  0  0  0  0
 24 23  1  0  0  0  0
 25 27  2  0  0  0  0
 26 27  1  0  0  0  0
 27 28  1  0  0  0  0
M  END
>  <MODEL>
5

>  <REMARK>
 VINA RESULT:      -8.0      2.633      6.223
  Name = 
  4 active torsions:
  status: ('A' for Active; 'I' for Inactive)
    1  A    between atoms: C_3  and  P_13
    2  A    between atoms: C_8  and  N_26
    3  A    between atoms: C_9  and  C_27
    4  A    between atoms: C_22  and  C_27
                            x       y       z     vdW  Elec       q    Type
                         _______ _______ _______ _____ _____    ______ ____

>  <TORSDO>
F 4

$$$$
=
 OpenBabel10222416563D

 28 31  0  0  1  0  0  0  0  0999 V2000
  183.4420  179.0580  143.6960 C   0  0  0  0  0  3  0  0  0  0  0  0
  184.8580  178.6310  145.7140 C   0  0  0  0  0  0  0  0  0  0  0  0
  186.0330  178.3790  144.8660 C   0  0  0  0  0  3  0  0  0  0  0  0
  188.4280  177.8640  143.0200 C   0  0  0  0  0  0  0  0  0  0  0  0
  189.2040  177.7210  141.7990 C   0  0  0  0  0  0  0  0  0  0  0  0
  183.6730  178.9420  145.1800 C   0  0  0  0  0  3  0  0  0  0  0  0
  188.3160  177.9860  140.6100 C   0  0  0  0  0  2  0  0  0  0  0  0
  188.8660  177.7110  144.1910 O   0  0  0  0  0  0  0  0  0  0  0  0
  187.0060  178.2800  141.2880 C   0  0  0  0  0  0  0  0  0  0  0  0
  185.7910  178.6610  139.2970 O   0  0  0  0  0  1  0  0  0  0  0  0
  187.0900  178.2040  142.7020 N   0  0  0  0  0  0  0  0  0  0  0  0
  185.8530  178.5870  140.6860 C   0  0  0  0  0  0  0  0  0  0  0  0
  184.6760  178.7900  142.8630 C   0  0  0  0  0  0  0  0  0  0  0  0
  185.9550  178.4510  143.5360 C   0  0  1  0  0  3  0  0  0  0  0  0
  184.6350  178.8550  141.5090 C   0  0  0  0  0  0  0  0  0  0  0  0
  190.4690  177.4110  141.7800 N   0  0  0  0  0  0  0  0  0  0  0  0
  184.9860  178.5430  147.1270 N   0  0  0  0  0  1  0  0  0  0  0  0
  191.3160  177.2490  140.6320 C   0  0  0  0  0  0  0  0  0  0  0  0
  192.4230  177.8450  140.6060 O   0  0  0  0  0  0  0  0  0  0  0  0
  190.9410  176.4010  139.4640 C   0  0  0  0  0  1  0  0  0  0  0  0
  183.3560  179.1730  140.7950 C   0  0  0  0  0  2  0  0  0  0  0  0
  181.1530  177.9900  140.1900 C   0  0  2  0  0  3  0  0  0  0  0  0
  182.6300  177.8870  140.4100 C   0  0  1  0  0  3  0  0  0  0  0  0
  182.0730  178.0240  139.1240 O   0  0  0  0  0  0  0  0  0  0  0  0
  178.9400  179.5700  139.9810 O   0  0  0  0  0  1  0  0  0  0  0  0
  181.1850  180.7850  139.4280 O   0  0  0  0  0  0  0  0  0  0  0  0
  180.3910  179.6440  140.3940 P   0  0  0  0  0  0  0  0  0  0  0  0
  180.4840  180.1160  142.0150 O   0  0  0  0  0  1  0  0  0  0  0  0
  1  6  2  0  0  0  0
  2 17  1  0  0  0  0
  3  2  2  0  0  0  0
  4  8  2  0  0  0  0
  5  4  1  0  0  0  0
  6  2  1  0  0  0  0
  7  9  1  0  0  0  0
  7  5  1  0  0  0  0
  9 11  1  0  0  0  0
 10 12  1  0  0  0  0
 11  4  1  0  0  0  0
 11 14  1  0  0  0  0
 12  9  2  0  0  0  0
 12 15  1  0  0  0  0
 13 14  1  0  0  0  0
 13  1  1  0  0  0  0
 14  3  1  6  0  0  0
 15 13  2  0  0  0  0
 16  5  2  0  0  0  0
 18 16  1  0  0  0  0
 19 18  2  0  0  0  0
 20 18  1  0  0  0  0
 21 15  1  0  0  0  0
 22 27  1  1  0  0  0
 22 23  1  0  0  0  0
 23 21  1  1  0  0  0
 24 22  1  0  0  0  0
 24 23  1  0  0  0  0
 25 27  1  0  0  0  0
 26 27  2  0  0  0  0
 27 28  1  0  0  0  0
M  END
>  <MODEL>
6

>  <REMARK>
 VINA RESULT:      -7.9      3.484      5.591
  Name = 
  4 active torsions:
  status: ('A' for Active; 'I' for Inactive)
    1  A    between atoms: C_3  and  P_13
    2  A    between atoms: C_8  and  N_26
    3  A    between atoms: C_9  and  C_27
    4  A    between atoms: C_22  and  C_27
                            x       y       z     vdW  Elec       q    Type
                         _______ _______ _______ _____ _____    ______ ____

>  <TORSDO>
F 4

$$$$
=
 OpenBabel10222416563D

 28 31  0  0  1  0  0  0  0  0999 V2000
  189.2430  177.6370  145.3050 C   0  0  0  0  0  2  0  0  0  0  0  0
  187.9370  177.7990  147.4330 C   0  0  0  0  0  0  0  0  0  0  0  0
  186.7010  178.0670  146.6820 C   0  0  0  0  0  3  0  0  0  0  0  0
  184.1740  178.6240  145.0350 C   0  0  0  0  0  0  0  0  0  0  0  0
  183.3170  178.8380  143.8800 C   0  0  0  0  0  0  0  0  0  0  0  0
  189.1000  177.6020  146.8040 C   0  0  0  0  0  3  0  0  0  0  0  0
  184.1410  178.7330  142.6220 C   0  0  0  0  0  2  0  0  0  0  0  0
  183.8030  178.6440  146.2380 O   0  0  0  0  0  0  0  0  0  0  0  0
  185.5030  178.4460  143.1920 C   0  0  0  0  0  0  0  0  0  0  0  0
  186.6080  178.3160  141.1070 O   0  0  0  0  0  1  0  0  0  0  0  0
  185.5040  178.3860  144.6090 N   0  0  0  0  0  0  0  0  0  0  0  0
  186.6300  178.2580  142.4980 C   0  0  0  0  0  0  0  0  0  0  0  0
  187.9480  177.9160  144.5740 C   0  0  0  0  0  0  0  0  0  0  0  0
  186.6990  178.1230  145.3490 C   0  0  0  0  0  0  0  0  0  0  0  0
  187.9070  177.9800  143.2190 C   0  0  0  0  0  0  0  0  0  0  0  0
  182.0410  179.0810  143.9640 N   0  0  0  0  0  0  0  0  0  0  0  0
  187.8930  177.7490  148.8530 N   0  0  0  0  0  1  0  0  0  0  0  0
  181.1170  179.3050  142.8870 C   0  0  0  0  0  0  0  0  0  0  0  0
  180.5040  180.4020  142.8330 O   0  0  0  0  0  0  0  0  0  0  0  0
  180.8510  178.2920  141.8260 C   0  0  0  0  0  1  0  0  0  0  0  0
  189.1530  177.7970  142.4060 C   0  0  0  0  0  2  0  0  0  0  0  0
  190.4830  175.8810  141.3190 C   0  0  2  0  0  3  0  0  0  0  0  0
  189.5940  176.3360  142.4350 C   0  0  1  0  0  3  0  0  0  0  0  0
  190.9930  176.2660  142.5740 O   0  0  0  0  0  0  0  0  0  0  0  0
  192.0970  177.9550  140.5900 O   0  0  0  0  0  1  0  0  0  0  0  0
  189.6410  178.1480  139.7240 O   0  0  0  0  0  1  0  0  0  0  0  0
  190.9490  177.1280  140.0610 P   0  0  0  0  0  0  0  0  0  0  0  0
  191.4340  176.3480  138.6410 O   0  0  0  0  0  0  0  0  0  0  0  0
  1  6  1  0  0  0  0
  2 17  1  0  0  0  0
  3  2  1  0  0  0  0
  4  8  2  0  0  0  0
  5 16  2  0  0  0  0
  5  4  1  0  0  0  0
  6  2  2  0  0  0  0
  7  9  1  0  0  0  0
  7  5  1  0  0  0  0
  9 11  1  0  0  0  0
 10 12  1  0  0  0  0
 11  4  1  0  0  0  0
 11 14  1  0  0  0  0
 12  9  2  0  0  0  0
 12 15  1  0  0  0  0
 13  1  1  0  0  0  0
 13 14  1  0  0  0  0
 14  3  2  0  0  0  0
 15 13  2  0  0  0  0
 18 16  1  0  0  0  0
 19 18  2  0  0  0  0
 20 18  1  0  0  0  0
 21 15  1  0  0  0  0
 22 27  1  6  0  0  0
 22 23  1  0  0  0  0
 22 24  1  0  0  0  0
 23 21  1  6  0  0  0
 23 24  1  0  0  0  0
 26 27  1  0  0  0  0
 27 25  1  0  0  0  0
 28 27  2  0  0  0  0
M  END
>  <MODEL>
7

>  <REMARK>
 VINA RESULT:      -7.9      2.637      6.137
  Name = 
  4 active torsions:
  status: ('A' for Active; 'I' for Inactive)
    1  A    between atoms: C_3  and  P_13
    2  A    between atoms: C_8  and  N_26
    3  A    between atoms: C_9  and  C_27
    4  A    between atoms: C_22  and  C_27
                            x       y       z     vdW  Elec       q    Type
                         _______ _______ _______ _____ _____    ______ ____

>  <TORSDO>
F 4

$$$$
=
 OpenBabel10222416563D

 28 31  0  0  1  0  0  0  0  0999 V2000
  184.4820  178.6900  145.2140 C   0  0  0  0  0  3  0  0  0  0  0  0
  186.5280  177.9950  146.4760 C   0  0  0  0  0  0  0  0  0  0  0  0
  187.2830  177.8530  145.2210 C   0  0  0  0  0  3  0  0  0  0  0  0
  188.7770  177.5770  142.5570 C   0  0  0  0  0  0  0  0  0  0  0  0
  189.0280  177.5930  141.1250 C   0  0  0  0  0  0  0  0  0  0  0  0
  185.2480  178.3780  146.4740 C   0  0  0  0  0  3  0  0  0  0  0  0
  187.7740  178.0150  140.4040 C   0  0  0  0  0  2  0  0  0  0  0  0
  189.6140  177.2690  143.4460 O   0  0  0  0  0  0  0  0  0  0  0  0
  186.8330  178.2230  141.5590 C   0  0  0  0  0  0  0  0  0  0  0  0
  184.9800  178.8680  140.2400 O   0  0  0  0  0  1  0  0  0  0  0  0
  187.4380  177.9610  142.8140 N   0  0  0  0  0  0  0  0  0  0  0  0
  185.5560  178.6110  141.4810 C   0  0  0  0  0  0  0  0  0  0  0  0
  185.2960  178.5290  143.9500 C   0  0  0  0  0  0  0  0  0  0  0  0
  186.7150  178.1000  144.0400 C   0  0  1  0  0  3  0  0  0  0  0  0
  184.7530  178.7720  142.7310 C   0  0  0  0  0  0  0  0  0  0  0  0
  190.1740  177.2840  140.5900 N   0  0  0  0  0  0  0  0  0  0  0  0
  187.1740  177.7210  147.7130 N   0  0  0  0  0  1  0  0  0  0  0  0
  190.5170  177.2710  139.1960 C   0  0  0  0  0  0  0  0  0  0  0  0
  190.1780  178.2470  138.4790 O   0  0  0  0  0  0  0  0  0  0  0  0
  191.2620  176.1480  138.5560 C   0  0  0  0  0  1  0  0  0  0  0  0
  183.3180  179.1870  142.6000 C   0  0  0  0  0  2  0  0  0  0  0  0
  181.1820  178.3280  141.4520 C   0  0  2  0  0  3  0  0  0  0  0  0
  182.6700  178.4840  141.4100 C   0  0  1  0  0  3  0  0  0  0  0  0
  181.8070  179.3750  140.7460 O   0  0  0  0  0  0  0  0  0  0  0  0
  178.9310  178.4000  142.9910 O   0  0  0  0  0  1  0  0  0  0  0  0
  180.1680  180.6910  142.7870 O   0  0  0  0  0  0  0  0  0  0  0  0
  180.3110  179.0100  142.9130 P   0  0  0  0  0  0  0  0  0  0  0  0
  181.1700  178.6210  144.3170 O   0  0  0  0  0  1  0  0  0  0  0  0
  1  6  2  0  0  0  0
  2 17  1  0  0  0  0
  3  2  2  0  0  0  0
  4 11  1  0  0  0  0
  4  8  2  0  0  0  0
  5  4  1  0  0  0  0
  6  2  1  0  0  0  0
  7  5  1  0  0  0  0
  7  9  1  0  0  0  0
  9 11  1  0  0  0  0
 10 12  1  0  0  0  0
 11 14  1  0  0  0  0
 12  9  2  0  0  0  0
 12 15  1  0  0  0  0
 13 14  1  0  0  0  0
 13  1  1  0  0  0  0
 14  3  1  6  0  0  0
 15 13  2  0  0  0  0
 16  5  2  0  0  0  0
 18 16  1  0  0  0  0
 19 18  2  0  0  0  0
 20 18  1  0  0  0  0
 21 15  1  0  0  0  0
 22 27  1  1  0  0  0
 23 22  1  0  0  0  0
 23 21  1  1  0  0  0
 24 23  1  0  0  0  0
 24 22  1  0  0  0  0
 26 27  2  0  0  0  0
 27 25  1  0  0  0  0
 27 28  1  0  0  0  0
M  END
>  <MODEL>
8

>  <REMARK>
 VINA RESULT:      -7.5      3.837      6.475
  Name = 
  4 active torsions:
  status: ('A' for Active; 'I' for Inactive)
    1  A    between atoms: C_3  and  P_13
    2  A    between atoms: C_8  and  N_26
    3  A    between atoms: C_9  and  C_27
    4  A    between atoms: C_22  and  C_27
                            x       y       z     vdW  Elec       q    Type
                         _______ _______ _______ _____ _____    ______ ____

>  <TORSDO>
F 4

$$$$
=
 OpenBabel10222416563D

 28 31  0  0  1  0  0  0  0  0999 V2000
  187.2790  178.0540  144.8180 C   0  0  0  0  0  3  0  0  0  0  0  0
  185.0100  178.2610  145.8500 C   0  0  0  0  0  0  0  0  0  0  0  0
  184.4040  178.4890  144.5290 C   0  0  0  0  0  3  0  0  0  0  0  0
  183.2270  178.9620  141.7360 C   0  0  0  0  0  0  0  0  0  0  0  0
  183.1620  179.1300  140.2930 C   0  0  0  0  0  0  0  0  0  0  0  0
  186.3240  178.0620  145.9830 C   0  0  0  0  0  3  0  0  0  0  0  0
  184.5460  178.9990  139.7130 C   0  0  0  0  0  2  0  0  0  0  0  0
  182.2490  179.0130  142.5270 O   0  0  0  0  0  0  0  0  0  0  0  0
  185.3570  178.7480  140.9540 C   0  0  0  0  0  0  0  0  0  0  0  0
  187.4370  178.5720  139.8450 O   0  0  0  0  0  1  0  0  0  0  0  0
  184.5670  178.7300  142.1320 N   0  0  0  0  0  0  0  0  0  0  0  0
  186.6790  178.5550  141.0120 C   0  0  0  0  0  0  0  0  0  0  0  0
  186.6140  178.2930  143.4810 C   0  0  0  0  0  0  0  0  0  0  0  0
  185.1450  178.5060  143.4200 C   0  0  1  0  0  3  0  0  0  0  0  0
  187.3350  178.3160  142.3320 C   0  0  0  0  0  0  0  0  0  0  0  0
  182.0560  179.3580  139.6440 N   0  0  0  0  0  0  0  0  0  0  0  0
  184.1810  178.2530  147.0050 N   0  0  0  0  0  1  0  0  0  0  0  0
  181.8910  179.5360  138.2280 C   0  0  0  0  0  0  0  0  0  0  0  0
  181.7240  180.7000  137.7800 O   0  0  0  0  0  0  0  0  0  0  0  0
  181.9080  178.4010  137.2620 C   0  0  0  0  0  1  0  0  0  0  0  0
  188.8220  178.1260  142.3580 C   0  0  0  0  0  2  0  0  0  0  0  0
  190.2530  176.0030  142.6110 C   0  0  2  0  0  3  0  0  0  0  0  0
  189.1860  176.7320  141.8540 C   0  0  1  0  0  3  0  0  0  0  0  0
  188.8820  175.7770  142.8430 O   0  0  0  0  0  0  0  0  0  0  0  0
  192.0550  175.9770  144.6580 O   0  0  0  0  0  1  0  0  0  0  0  0
  189.8010  177.1670  145.2260 O   0  0  0  0  0  1  0  0  0  0  0  0
  190.9850  176.8580  144.0570 P   0  0  0  0  0  0  0  0  0  0  0  0
  191.6810  178.3170  143.5600 O   0  0  0  0  0  0  0  0  0  0  0  0
  1  6  2  0  0  0  0
  2  6  1  0  0  0  0
  2 17  1  0  0  0  0
  3  2  2  0  0  0  0
  4 11  1  0  0  0  0
  4  8  2  0  0  0  0
  5  4  1  0  0  0  0
  7  5  1  0  0  0  0
  7  9  1  0  0  0  0
  9 12  2  0  0  0  0
  9 11  1  0  0  0  0
 10 12  1  0  0  0  0
 11 14  1  0  0  0  0
 12 15  1  0  0  0  0
 13  1  1  0  0  0  0
 14 13  1  0  0  0  0
 14  3  1  1  0  0  0
 15 21  1  0  0  0  0
 15 13  2  0  0  0  0
 16  5  2  0  0  0  0
 18 16  1  0  0  0  0
 19 18  2  0  0  0  0
 20 18  1  0  0  0  0
 22 24  1  0  0  0  0
 22 27  1  1  0  0  0
 23 21  1  1  0  0  0
 23 22  1  0  0  0  0
 23 24  1  0  0  0  0
 27 25  1  0  0  0  0
 27 26  1  0  0  0  0
 28 27  2  0  0  0  0
M  END
>  <MODEL>
9

>  <REMARK>
 VINA RESULT:      -7.5      3.227      7.260
  Name = 
  4 active torsions:
  status: ('A' for Active; 'I' for Inactive)
    1  A    between atoms: C_3  and  P_13
    2  A    between atoms: C_8  and  N_26
    3  A    between atoms: C_9  and  C_27
    4  A    between atoms: C_22  and  C_27
                            x       y       z     vdW  Elec       q    Type
                         _______ _______ _______ _____ _____    ______ ____

>  <TORSDO>
F 4

$$$$
