=
 OpenBabel10222420373D

 41 43  0  0  1  0  0  0  0  0999 V2000
  190.5960  177.3100  141.6980 C   0  0  0  0  0  0  0  0  0  0  0  0
  191.3820  177.5890  142.6990 N   0  0  0  0  0  0  0  0  0  0  0  0
  191.1450  179.6770  143.7600 O   0  0  0  0  0  0  0  0  0  0  0  0
  191.1030  178.4180  143.8410 C   0  0  0  0  0  0  0  0  0  0  0  0
  189.2150  177.2160  146.8610 C   0  0  0  0  0  3  0  0  0  0  0  0
  191.7250  177.0720  145.7900 N   0  0  0  0  0  0  0  0  0  0  0  0
  191.4450  176.4470  146.9640 C   0  0  0  0  0  0  0  0  0  0  0  0
  189.4810  177.8590  145.6530 C   0  0  0  0  0  3  0  0  0  0  0  0
  192.5100  175.6930  147.6720 C   0  0  0  0  0  1  0  0  0  0  0  0
  190.7700  177.7750  145.1210 C   0  0  0  0  0  0  0  0  0  0  0  0
  190.1980  176.5230  147.4940 N   0  0  0  0  0  0  0  0  0  0  0  0
  191.0950  176.3810  140.6370 C   0  0  0  0  0  2  0  0  0  0  0  0
  191.7410  176.5540  138.2970 C   0  0  0  0  0  0  0  0  0  0  0  0
  191.8090  175.9480  137.1470 C   0  0  0  0  0  3  0  0  0  0  0  0
  191.6230  177.1370  139.4600 C   0  0  0  0  0  3  0  0  0  0  0  0
  190.9160  176.3660  136.0330 C   0  0  0  0  0  2  0  0  0  0  0  0
  184.8760  177.2630  137.5920 C   0  0  0  0  0  2  0  0  0  0  0  0
  188.6360  176.8190  136.6880 N   0  0  0  0  0  0  0  0  0  0  0  0
  186.7120  178.7610  137.3620 O   0  0  0  0  0  0  0  0  0  0  0  0
  183.1980  175.3910  137.7620 N   0  0  0  0  0  1  0  0  0  0  0  0
  186.3160  177.5680  137.3010 C   0  0  0  0  0  0  0  0  0  0  0  0
  189.1340  174.5070  136.0490 C   0  0  0  0  0  2  0  0  0  0  0  0
  187.2630  176.4930  136.9460 C   0  0  0  0  0  0  0  0  0  0  0  0
  184.5340  175.8000  137.4970 C   0  0  0  0  0  0  0  0  0  0  0  0
  185.4440  174.8760  137.1740 C   0  0  0  0  0  3  0  0  0  0  0  0
  187.8000  174.1870  136.5540 N   0  0  0  0  0  0  0  0  0  0  0  0
  186.8520  175.2170  136.8850 C   0  0  0  0  0  0  0  0  0  0  0  0
  189.5150  175.9390  136.3110 C   0  0  0  0  0  0  0  0  0  0  0  0
  187.4210  172.7830  136.5890 C   0  0  0  0  0  1  0  0  0  0  0  0
  189.1920  177.8190  141.6060 C   0  0  0  0  0  2  0  0  0  0  0  0
  188.3150  176.9880  142.4110 N   0  0  0  0  0  2  0  0  0  0  0  0
  187.0830  177.7310  142.5890 C   0  0  0  0  0  2  0  0  0  0  0  0
  186.8370  178.6010  141.3710 C   0  0  0  0  0  2  0  0  0  0  0  0
  184.9280  179.5840  140.3360 O   0  0  0  0  0  1  0  0  0  0  0  0
  185.5740  179.4190  141.5620 C   0  0  1  0  0  3  0  0  0  0  0  0
  184.6560  178.6990  142.5310 C   0  0  0  0  0  2  0  0  0  0  0  0
  184.4690  179.5350  143.7850 C   0  0  0  0  0  2  0  0  0  0  0  0
  184.5050  178.6520  145.0250 C   0  0  2  0  0  3  0  0  0  0  0  0
  183.5370  179.0880  145.9300 O   0  0  0  0  0  1  0  0  0  0  0  0
  185.8760  178.7370  145.6790 C   0  0  0  0  0  2  0  0  0  0  0  0
  185.7460  178.6960  147.1920 C   0  0  0  0  0  1  0  0  0  0  0  0
  1  2  2  0  0  0  0
  2  4  1  0  0  0  0
  3  4  2  0  0  0  0
  4 10  1  0  0  0  0
  5 11  2  0  0  0  0
  6  7  2  0  0  0  0
  7 11  1  0  0  0  0
  7  9  1  0  0  0  0
  8  5  1  0  0  0  0
 10  8  2  0  0  0  0
 10  6  1  0  0  0  0
 12  1  1  0  0  0  0
 13 15  2  0  0  0  0
 14 13  2  0  0  0  0
 15 12  1  0  0  0  0
 16 28  1  0  0  0  0
 16 14  1  0  0  0  0
 18 23  1  0  0  0  0
 21 19  2  0  0  0  0
 21 17  1  0  0  0  0
 22 28  1  0  0  0  0
 22 26  1  0  0  0  0
 23 21  1  0  0  0  0
 24 17  1  0  0  0  0
 24 20  1  0  0  0  0
 25 24  2  0  0  0  0
 26 29  1  0  0  0  0
 26 27  1  0  0  0  0
 27 23  2  0  0  0  0
 27 25  1  0  0  0  0
 28 18  2  0  0  0  0
 30  1  1  0  0  0  0
 30 31  1  0  0  0  0
 31 32  1  0  0  0  0
 33 35  1  0  0  0  0
 33 32  1  0  0  0  0
 35 34  1  6  0  0  0
 35 36  1  0  0  0  0
 36 37  1  0  0  0  0
 37 38  1  0  0  0  0
 38 40  1  0  0  0  0
 38 39  1  1  0  0  0
 40 41  1  0  0  0  0
M  END
>  <MODEL>
1

>  <REMARK>
 VINA RESULT:      -8.0      0.000      0.000
  Name = 
  15 active torsions:
  status: ('A' for Active; 'I' for Inactive)
    1  A    between atoms: C_8  and  C_23
    2  A    between atoms: C_8  and  C_31
    3  A    between atoms: C_9  and  C_41
    4  A    between atoms: C_11  and  C_16
    5  A    between atoms: C_11  and  N_19
    6  A    between atoms: C_14  and  C_25
    7  A    between atoms: C_14  and  C_34
    8  A    between atoms: C_16  and  C_38
    9  A    between atoms: N_19  and  C_36
   10  A    between atoms: C_23  and  C_36
   11  A    between atoms: C_27  and  C_30
   12  A    between atoms: C_28  and  C_34
   13  A    between atoms: C_28  and  C_38
   14  A    between atoms: C_30  and  N_32
   15  A    between atoms: C_39  and  C_41
                            x       y       z     vdW  Elec       q    Type
                         _______ _______ _______ _____ _____    ______ ____

>  <TORSDO>
F 15

$$$$
=
 OpenBabel10222420373D

 41 43  0  0  1  0  0  0  0  0999 V2000
  185.3400  178.4310  139.2400 C   0  0  0  0  0  0  0  0  0  0  0  0
  186.6310  178.6070  139.2370 N   0  0  0  0  0  0  0  0  0  0  0  0
  187.3960  178.9340  137.0360 O   0  0  0  0  0  0  0  0  0  0  0  0
  187.5540  178.3800  138.1590 C   0  0  0  0  0  0  0  0  0  0  0  0
  189.9870  175.5340  137.8260 C   0  0  0  0  0  3  0  0  0  0  0  0
  189.6010  177.7650  139.3550 N   0  0  0  0  0  0  0  0  0  0  0  0
  190.6800  176.9680  139.5700 C   0  0  0  0  0  0  0  0  0  0  0  0
  188.8780  176.3430  137.5860 C   0  0  0  0  0  3  0  0  0  0  0  0
  191.6440  177.3030  140.6470 C   0  0  0  0  0  1  0  0  0  0  0  0
  188.6970  177.4800  138.3790 C   0  0  0  0  0  0  0  0  0  0  0  0
  190.8660  175.8580  138.8100 N   0  0  0  0  0  0  0  0  0  0  0  0
  184.5760  178.7790  140.4780 C   0  0  0  0  0  2  0  0  0  0  0  0
  185.0160  179.2630  142.8230 C   0  0  0  0  0  0  0  0  0  0  0  0
  184.5060  179.6110  143.9690 C   0  0  0  0  0  3  0  0  0  0  0  0
  185.4820  178.8820  141.6640 C   0  0  0  0  0  3  0  0  0  0  0  0
  184.4380  178.6250  145.0810 C   0  0  0  0  0  2  0  0  0  0  0  0
  190.4240  176.7650  144.4270 C   0  0  0  0  0  2  0  0  0  0  0  0
  186.6980  177.8520  144.7230 N   0  0  0  0  0  0  0  0  0  0  0  0
  188.6470  177.0290  142.8650 O   0  0  0  0  0  0  0  0  0  0  0  0
  192.0340  176.5800  146.3560 N   0  0  0  0  0  1  0  0  0  0  0  0
  189.0090  177.1110  144.0680 C   0  0  0  0  0  0  0  0  0  0  0  0
  186.1600  178.5900  146.9960 C   0  0  0  0  0  2  0  0  0  0  0  0
  188.0470  177.5430  145.1000 C   0  0  0  0  0  0  0  0  0  0  0  0
  190.7250  176.8930  145.8970 C   0  0  0  0  0  0  0  0  0  0  0  0
  189.8040  177.2870  146.7810 C   0  0  0  0  0  3  0  0  0  0  0  0
  187.4590  178.0350  147.3740 N   0  0  0  0  0  0  0  0  0  0  0  0
  188.4220  177.6280  146.3850 C   0  0  0  0  0  0  0  0  0  0  0  0
  185.8110  178.2980  145.5610 C   0  0  0  0  0  0  0  0  0  0  0  0
  187.7930  178.0300  148.7900 C   0  0  0  0  0  1  0  0  0  0  0  0
  184.5840  177.9670  138.0350 C   0  0  0  0  0  2  0  0  0  0  0  0
  183.1570  178.0400  138.2930 N   0  0  0  0  0  2  0  0  0  0  0  0
  182.6150  176.7240  138.0150 C   0  0  0  0  0  2  0  0  0  0  0  0
  181.1230  176.8360  137.7650 C   0  0  0  0  0  2  0  0  0  0  0  0
  181.2250  175.4900  139.7300 O   0  0  0  0  0  1  0  0  0  0  0  0
  180.3550  176.2240  138.9210 C   0  0  1  0  0  3  0  0  0  0  0  0
  179.7100  177.3300  139.7330 C   0  0  0  0  0  2  0  0  0  0  0  0
  180.4950  177.5580  141.0120 C   0  0  0  0  0  2  0  0  0  0  0  0
  180.3510  179.0010  141.4770 C   0  0  2  0  0  3  0  0  0  0  0  0
  180.8890  179.8520  140.5120 O   0  0  0  0  0  1  0  0  0  0  0  0
  181.0950  179.1980  142.7890 C   0  0  0  0  0  2  0  0  0  0  0  0
  180.3550  178.5190  143.9280 C   0  0  0  0  0  1  0  0  0  0  0  0
  1 12  1  0  0  0  0
  2  1  2  0  0  0  0
  3  4  2  0  0  0  0
  4 10  1  0  0  0  0
  4  2  1  0  0  0  0
  5 11  2  0  0  0  0
  6  7  2  0  0  0  0
  7  9  1  0  0  0  0
  8  5  1  0  0  0  0
  8 10  2  0  0  0  0
 10  6  1  0  0  0  0
 11  7  1  0  0  0  0
 12 15  1  0  0  0  0
 13 14  2  0  0  0  0
 14 16  1  0  0  0  0
 15 13  2  0  0  0  0
 16 28  1  0  0  0  0
 17 24  1  0  0  0  0
 18 23  1  0  0  0  0
 18 28  2  0  0  0  0
 19 21  2  0  0  0  0
 21 17  1  0  0  0  0
 21 23  1  0  0  0  0
 22 26  1  0  0  0  0
 23 27  2  0  0  0  0
 24 20  1  0  0  0  0
 24 25  2  0  0  0  0
 26 29  1  0  0  0  0
 27 25  1  0  0  0  0
 27 26  1  0  0  0  0
 28 22  1  0  0  0  0
 30 31  1  0  0  0  0
 30  1  1  0  0  0  0
 32 31  1  0  0  0  0
 33 32  1  0  0  0  0
 33 35  1  0  0  0  0
 35 34  1  1  0  0  0
 35 36  1  0  0  0  0
 36 37  1  0  0  0  0
 37 38  1  0  0  0  0
 38 39  1  6  0  0  0
 38 40  1  0  0  0  0
 40 41  1  0  0  0  0
M  END
>  <MODEL>
2

>  <REMARK>
 VINA RESULT:      -7.8      2.709      8.272
  Name = 
  15 active torsions:
  status: ('A' for Active; 'I' for Inactive)
    1  A    between atoms: C_8  and  C_23
    2  A    between atoms: C_8  and  C_31
    3  A    between atoms: C_9  and  C_41
    4  A    between atoms: C_11  and  C_16
    5  A    between atoms: C_11  and  N_19
    6  A    between atoms: C_14  and  C_25
    7  A    between atoms: C_14  and  C_34
    8  A    between atoms: C_16  and  C_38
    9  A    between atoms: N_19  and  C_36
   10  A    between atoms: C_23  and  C_36
   11  A    between atoms: C_27  and  C_30
   12  A    between atoms: C_28  and  C_34
   13  A    between atoms: C_28  and  C_38
   14  A    between atoms: C_30  and  N_32
   15  A    between atoms: C_39  and  C_41
                            x       y       z     vdW  Elec       q    Type
                         _______ _______ _______ _____ _____    ______ ____

>  <TORSDO>
F 15

$$$$
=
 OpenBabel10222420373D

 41 43  0  0  1  0  0  0  0  0999 V2000
  183.8500  178.3920  139.7120 C   0  0  0  0  0  0  0  0  0  0  0  0
  182.6400  178.3860  139.2310 N   0  0  0  0  0  0  0  0  0  0  0  0
  180.9930  176.7560  139.6470 O   0  0  0  0  0  0  0  0  0  0  0  0
  181.4360  177.9180  139.8650 C   0  0  0  0  0  0  0  0  0  0  0  0
  179.5640  180.8730  141.2410 C   0  0  0  0  0  3  0  0  0  0  0  0
  180.4770  178.4310  142.0590 N   0  0  0  0  0  0  0  0  0  0  0  0
  179.7960  179.2300  142.9210 C   0  0  0  0  0  0  0  0  0  0  0  0
  180.2560  180.0650  140.3400 C   0  0  0  0  0  3  0  0  0  0  0  0
  179.5570  178.7790  144.3150 C   0  0  0  0  0  1  0  0  0  0  0  0
  180.7160  178.8200  140.7770 C   0  0  0  0  0  0  0  0  0  0  0  0
  179.3460  180.4430  142.5120 N   0  0  0  0  0  0  0  0  0  0  0  0
  184.9460  178.9740  138.8770 C   0  0  0  0  0  2  0  0  0  0  0  0
  186.5870  177.9930  137.3710 C   0  0  0  0  0  0  0  0  0  0  0  0
  187.8380  177.9510  137.0140 C   0  0  0  0  0  3  0  0  0  0  0  0
  185.3480  178.0380  137.7820 C   0  0  0  0  0  3  0  0  0  0  0  0
  188.6500  176.7360  137.2950 C   0  0  0  0  0  2  0  0  0  0  0  0
  189.4980  177.9200  143.4260 C   0  0  0  0  0  2  0  0  0  0  0  0
  188.8610  177.2490  139.6460 N   0  0  0  0  0  0  0  0  0  0  0  0
  187.5430  177.7900  142.0740 O   0  0  0  0  0  0  0  0  0  0  0  0
  191.7660  178.0030  144.5190 N   0  0  0  0  0  1  0  0  0  0  0  0
  188.7990  177.7150  142.1150 C   0  0  0  0  0  0  0  0  0  0  0  0
  190.9340  176.6580  138.4820 C   0  0  0  0  0  2  0  0  0  0  0  0
  189.5610  177.4260  140.8850 C   0  0  0  0  0  0  0  0  0  0  0  0
  190.9970  177.8160  143.3380 C   0  0  0  0  0  0  0  0  0  0  0  0
  191.6260  177.5550  142.1880 C   0  0  0  0  0  3  0  0  0  0  0  0
  191.6200  177.0840  139.7000 N   0  0  0  0  0  0  0  0  0  0  0  0
  190.9010  177.3490  140.9180 C   0  0  0  0  0  0  0  0  0  0  0  0
  189.4550  176.9320  138.5330 C   0  0  0  0  0  0  0  0  0  0  0  0
  193.0740  177.1070  139.6710 C   0  0  0  0  0  1  0  0  0  0  0  0
  184.1750  177.9120  141.0910 C   0  0  0  0  0  2  0  0  0  0  0  0
  184.2800  179.0450  141.9940 N   0  0  0  0  0  2  0  0  0  0  0  0
  183.9460  178.5570  143.3180 C   0  0  0  0  0  2  0  0  0  0  0  0
  185.1920  178.5470  144.1820 C   0  0  0  0  0  2  0  0  0  0  0  0
  183.4930  179.1380  145.7470 O   0  0  0  0  0  1  0  0  0  0  0  0
  184.8760  179.1080  145.5560 C   0  0  1  0  0  3  0  0  0  0  0  0
  185.5200  178.2310  146.6120 C   0  0  0  0  0  2  0  0  0  0  0  0
  186.9900  178.0290  146.2910 C   0  0  0  0  0  2  0  0  0  0  0  0
  187.7220  177.4440  147.4910 C   0  0  2  0  0  3  0  0  0  0  0  0
  187.9970  178.4610  148.4050 O   0  0  0  0  0  1  0  0  0  0  0  0
  189.0300  176.8110  147.0400 C   0  0  0  0  0  2  0  0  0  0  0  0
  190.2080  177.4710  147.7360 C   0  0  0  0  0  1  0  0  0  0  0  0
  1 30  1  0  0  0  0
  2  1  2  0  0  0  0
  2  4  1  0  0  0  0
  3  4  2  0  0  0  0
  4 10  1  0  0  0  0
  5 11  2  0  0  0  0
  6  7  2  0  0  0  0
  7  9  1  0  0  0  0
  8 10  2  0  0  0  0
  8  5  1  0  0  0  0
 10  6  1  0  0  0  0
 11  7  1  0  0  0  0
 12  1  1  0  0  0  0
 13 15  2  0  0  0  0
 14 16  1  0  0  0  0
 14 13  2  0  0  0  0
 15 12  1  0  0  0  0
 16 28  1  0  0  0  0
 18 23  1  0  0  0  0
 19 21  2  0  0  0  0
 21 17  1  0  0  0  0
 22 28  1  0  0  0  0
 22 26  1  0  0  0  0
 23 27  2  0  0  0  0
 23 21  1  0  0  0  0
 24 17  1  0  0  0  0
 24 20  1  0  0  0  0
 25 24  2  0  0  0  0
 26 27  1  0  0  0  0
 27 25  1  0  0  0  0
 28 18  2  0  0  0  0
 29 26  1  0  0  0  0
 30 31  1  0  0  0  0
 31 32  1  0  0  0  0
 32 33  1  0  0  0  0
 33 35  1  0  0  0  0
 35 34  1  1  0  0  0
 35 36  1  0  0  0  0
 37 36  1  0  0  0  0
 37 38  1  0  0  0  0
 38 39  1  1  0  0  0
 40 38  1  0  0  0  0
 40 41  1  0  0  0  0
M  END
>  <MODEL>
3

>  <REMARK>
 VINA RESULT:      -7.7      3.128      7.565
  Name = 
  15 active torsions:
  status: ('A' for Active; 'I' for Inactive)
    1  A    between atoms: C_8  and  C_23
    2  A    between atoms: C_8  and  C_31
    3  A    between atoms: C_9  and  C_41
    4  A    between atoms: C_11  and  C_16
    5  A    between atoms: C_11  and  N_19
    6  A    between atoms: C_14  and  C_25
    7  A    between atoms: C_14  and  C_34
    8  A    between atoms: C_16  and  C_38
    9  A    between atoms: N_19  and  C_36
   10  A    between atoms: C_23  and  C_36
   11  A    between atoms: C_27  and  C_30
   12  A    between atoms: C_28  and  C_34
   13  A    between atoms: C_28  and  C_38
   14  A    between atoms: C_30  and  N_32
   15  A    between atoms: C_39  and  C_41
                            x       y       z     vdW  Elec       q    Type
                         _______ _______ _______ _____ _____    ______ ____

>  <TORSDO>
F 15

$$$$
=
 OpenBabel10222420373D

 41 43  0  0  1  0  0  0  0  0999 V2000
  186.4380  178.5120  141.7900 C   0  0  0  0  0  0  0  0  0  0  0  0
  186.0000  177.8820  142.8420 N   0  0  0  0  0  0  0  0  0  0  0  0
  187.5060  176.2670  143.6570 O   0  0  0  0  0  0  0  0  0  0  0  0
  186.7670  177.2630  143.8900 C   0  0  0  0  0  0  0  0  0  0  0  0
  185.5210  179.0260  146.9670 C   0  0  0  0  0  3  0  0  0  0  0  0
  187.6830  177.5750  146.1400 N   0  0  0  0  0  0  0  0  0  0  0  0
  187.6210  178.0440  147.4130 C   0  0  0  0  0  0  0  0  0  0  0  0
  185.5620  178.5480  145.6580 C   0  0  0  0  0  3  0  0  0  0  0  0
  188.7380  177.7770  148.3540 C   0  0  0  0  0  1  0  0  0  0  0  0
  186.6770  177.8080  145.2530 C   0  0  0  0  0  0  0  0  0  0  0  0
  186.5460  178.7670  147.8200 N   0  0  0  0  0  0  0  0  0  0  0  0
  185.4410  179.1140  140.8520 C   0  0  0  0  0  2  0  0  0  0  0  0
  183.5660  178.2490  139.5630 C   0  0  0  0  0  0  0  0  0  0  0  0
  182.9260  178.2830  138.4310 C   0  0  0  0  0  3  0  0  0  0  0  0
  184.2570  178.2180  140.6710 C   0  0  0  0  0  3  0  0  0  0  0  0
  182.9750  177.1110  137.5140 C   0  0  0  0  0  2  0  0  0  0  0  0
  189.1080  178.0490  136.4080 C   0  0  0  0  0  2  0  0  0  0  0  0
  185.2950  177.5840  137.0380 N   0  0  0  0  0  0  0  0  0  0  0  0
  187.2700  179.5470  136.6270 O   0  0  0  0  0  0  0  0  0  0  0  0
  190.7800  176.1760  136.2120 N   0  0  0  0  0  1  0  0  0  0  0  0
  187.6540  178.3480  136.6280 C   0  0  0  0  0  0  0  0  0  0  0  0
  184.7420  175.2380  137.4800 C   0  0  0  0  0  2  0  0  0  0  0  0
  186.6790  177.2620  136.8450 C   0  0  0  0  0  0  0  0  0  0  0  0
  189.4330  176.5790  136.4210 C   0  0  0  0  0  0  0  0  0  0  0  0
  188.4990  175.6450  136.6190 C   0  0  0  0  0  3  0  0  0  0  0  0
  186.1030  174.9400  137.0390 N   0  0  0  0  0  0  0  0  0  0  0  0
  187.0780  175.9810  136.8420 C   0  0  0  0  0  0  0  0  0  0  0  0
  184.3870  176.6890  137.2960 C   0  0  0  0  0  0  0  0  0  0  0  0
  186.4740  173.5380  136.9280 C   0  0  0  0  0  1  0  0  0  0  0  0
  187.8950  178.7210  141.5220 C   0  0  0  0  0  2  0  0  0  0  0  0
  188.1640  178.5490  140.1050 N   0  0  0  0  0  2  0  0  0  0  0  0
  189.0440  177.4030  139.9830 C   0  0  0  0  0  2  0  0  0  0  0  0
  189.5780  177.0290  141.3520 C   0  0  0  0  0  2  0  0  0  0  0  0
  191.5600  177.5580  140.1380 O   0  0  0  0  0  1  0  0  0  0  0  0
  191.0940  176.9890  141.3250 C   0  0  1  0  0  3  0  0  0  0  0  0
  191.6350  177.7630  142.5110 C   0  0  0  0  0  2  0  0  0  0  0  0
  190.8930  177.3620  143.7730 C   0  0  0  0  0  2  0  0  0  0  0  0
  191.8070  176.5770  144.7030 C   0  0  2  0  0  3  0  0  0  0  0  0
  191.9460  175.2750  144.2230 O   0  0  0  0  0  1  0  0  0  0  0  0
  191.2060  176.5320  146.1010 C   0  0  0  0  0  2  0  0  0  0  0  0
  192.1390  175.8090  147.0570 C   0  0  0  0  0  1  0  0  0  0  0  0
  1  2  2  0  0  0  0
  2  4  1  0  0  0  0
  3  4  2  0  0  0  0
  4 10  1  0  0  0  0
  5 11  2  0  0  0  0
  6  7  2  0  0  0  0
  7 11  1  0  0  0  0
  7  9  1  0  0  0  0
  8  5  1  0  0  0  0
 10  8  2  0  0  0  0
 10  6  1  0  0  0  0
 12  1  1  0  0  0  0
 13 15  2  0  0  0  0
 14 13  2  0  0  0  0
 15 12  1  0  0  0  0
 16 14  1  0  0  0  0
 17 24  1  0  0  0  0
 17 21  1  0  0  0  0
 18 28  2  0  0  0  0
 19 21  2  0  0  0  0
 20 24  1  0  0  0  0
 21 23  1  0  0  0  0
 23 18  1  0  0  0  0
 24 25  2  0  0  0  0
 25 27  1  0  0  0  0
 26 22  1  0  0  0  0
 27 23  2  0  0  0  0
 27 26  1  0  0  0  0
 28 22  1  0  0  0  0
 28 16  1  0  0  0  0
 29 26  1  0  0  0  0
 30  1  1  0  0  0  0
 31 30  1  0  0  0  0
 32 31  1  0  0  0  0
 32 33  1  0  0  0  0
 35 34  1  6  0  0  0
 35 33  1  0  0  0  0
 35 36  1  0  0  0  0
 36 37  1  0  0  0  0
 37 38  1  0  0  0  0
 38 39  1  6  0  0  0
 38 40  1  0  0  0  0
 40 41  1  0  0  0  0
M  END
>  <MODEL>
4

>  <REMARK>
 VINA RESULT:      -7.7      2.168      5.325
  Name = 
  15 active torsions:
  status: ('A' for Active; 'I' for Inactive)
    1  A    between atoms: C_8  and  C_23
    2  A    between atoms: C_8  and  C_31
    3  A    between atoms: C_9  and  C_41
    4  A    between atoms: C_11  and  C_16
    5  A    between atoms: C_11  and  N_19
    6  A    between atoms: C_14  and  C_25
    7  A    between atoms: C_14  and  C_34
    8  A    between atoms: C_16  and  C_38
    9  A    between atoms: N_19  and  C_36
   10  A    between atoms: C_23  and  C_36
   11  A    between atoms: C_27  and  C_30
   12  A    between atoms: C_28  and  C_34
   13  A    between atoms: C_28  and  C_38
   14  A    between atoms: C_30  and  N_32
   15  A    between atoms: C_39  and  C_41
                            x       y       z     vdW  Elec       q    Type
                         _______ _______ _______ _____ _____    ______ ____

>  <TORSDO>
F 15

$$$$
=
 OpenBabel10222420373D

 41 43  0  0  1  0  0  0  0  0999 V2000
  189.9970  177.5540  141.8260 C   0  0  0  0  0  0  0  0  0  0  0  0
  190.9680  177.7470  142.6720 N   0  0  0  0  0  0  0  0  0  0  0  0
  191.0100  179.7330  143.9360 O   0  0  0  0  0  0  0  0  0  0  0  0
  190.9320  178.4730  143.9130 C   0  0  0  0  0  0  0  0  0  0  0  0
  191.6270  176.1360  146.7750 C   0  0  0  0  0  3  0  0  0  0  0  0
  189.7300  177.9350  145.9790 N   0  0  0  0  0  0  0  0  0  0  0  0
  189.5940  177.2760  147.1590 C   0  0  0  0  0  0  0  0  0  0  0  0
  191.7870  176.8070  145.5630 C   0  0  0  0  0  3  0  0  0  0  0  0
  188.4050  177.5250  148.0120 C   0  0  0  0  0  1  0  0  0  0  0  0
  190.8060  177.7230  145.1730 C   0  0  0  0  0  0  0  0  0  0  0  0
  190.5370  176.3810  147.5500 N   0  0  0  0  0  0  0  0  0  0  0  0
  190.2640  176.7210  140.6130 C   0  0  0  0  0  2  0  0  0  0  0  0
  189.4970  177.1530  138.3430 C   0  0  0  0  0  0  0  0  0  0  0  0
  188.7480  176.7460  137.3600 C   0  0  0  0  0  3  0  0  0  0  0  0
  190.2080  177.5460  139.3660 C   0  0  0  0  0  3  0  0  0  0  0  0
  187.5250  177.5100  136.9920 C   0  0  0  0  0  2  0  0  0  0  0  0
  181.3590  176.3740  137.6310 C   0  0  0  0  0  2  0  0  0  0  0  0
  185.1480  177.1920  137.2860 N   0  0  0  0  0  0  0  0  0  0  0  0
  182.6080  178.3930  137.4650 O   0  0  0  0  0  0  0  0  0  0  0  0
  180.3900  174.0550  137.8040 N   0  0  0  0  0  1  0  0  0  0  0  0
  182.6450  177.1360  137.4960 C   0  0  0  0  0  0  0  0  0  0  0  0
  186.4800  175.1560  136.9970 C   0  0  0  0  0  2  0  0  0  0  0  0
  183.9380  176.4320  137.3990 C   0  0  0  0  0  0  0  0  0  0  0  0
  181.5400  174.8800  137.6680 C   0  0  0  0  0  0  0  0  0  0  0  0
  182.7440  174.3060  137.5790 C   0  0  0  0  0  3  0  0  0  0  0  0
  185.2630  174.4310  137.3590 N   0  0  0  0  0  0  0  0  0  0  0  0
  183.9870  175.0910  137.4380 C   0  0  0  0  0  0  0  0  0  0  0  0
  186.3190  176.6460  137.1340 C   0  0  0  0  0  0  0  0  0  0  0  0
  185.3690  172.9890  137.5120 C   0  0  0  0  0  1  0  0  0  0  0  0
  188.6110  178.0670  142.0550 C   0  0  0  0  0  2  0  0  0  0  0  0
  187.8510  177.0990  142.8280 N   0  0  0  0  0  2  0  0  0  0  0  0
  186.6530  177.7770  143.2840 C   0  0  0  0  0  2  0  0  0  0  0  0
  186.5640  177.6830  144.7950 C   0  0  0  0  0  2  0  0  0  0  0  0
  185.4920  179.3840  146.0760 O   0  0  0  0  0  1  0  0  0  0  0  0
  185.2490  178.2660  145.2760 C   0  0  1  0  0  3  0  0  0  0  0  0
  184.4130  178.6680  144.0760 C   0  0  0  0  0  2  0  0  0  0  0  0
  183.0000  179.0040  144.5170 C   0  0  0  0  0  2  0  0  0  0  0  0
  182.0930  179.1880  143.3090 C   0  0  2  0  0  3  0  0  0  0  0  0
  180.8870  178.5240  143.5320 O   0  0  0  0  0  1  0  0  0  0  0  0
  182.7600  178.6100  142.0690 C   0  0  0  0  0  2  0  0  0  0  0  0
  181.7430  178.4230  140.9570 C   0  0  0  0  0  1  0  0  0  0  0  0
  1 30  1  0  0  0  0
  1  2  2  0  0  0  0
  2  4  1  0  0  0  0
  4  3  2  0  0  0  0
  4 10  1  0  0  0  0
  5 11  2  0  0  0  0
  6  7  2  0  0  0  0
  7 11  1  0  0  0  0
  7  9  1  0  0  0  0
  8  5  1  0  0  0  0
 10  8  2  0  0  0  0
 10  6  1  0  0  0  0
 12  1  1  0  0  0  0
 13 15  2  0  0  0  0
 14 13  2  0  0  0  0
 15 12  1  0  0  0  0
 16 28  1  0  0  0  0
 16 14  1  0  0  0  0
 17 24  1  0  0  0  0
 18 23  1  0  0  0  0
 19 21  2  0  0  0  0
 21 17  1  0  0  0  0
 22 28  1  0  0  0  0
 22 26  1  0  0  0  0
 23 27  2  0  0  0  0
 23 21  1  0  0  0  0
 24 20  1  0  0  0  0
 25 24  2  0  0  0  0
 26 27  1  0  0  0  0
 26 29  1  0  0  0  0
 27 25  1  0  0  0  0
 28 18  2  0  0  0  0
 30 31  1  0  0  0  0
 31 32  1  0  0  0  0
 32 33  1  0  0  0  0
 33 35  1  0  0  0  0
 35 34  1  1  0  0  0
 36 37  1  0  0  0  0
 36 35  1  0  0  0  0
 38 39  1  1  0  0  0
 38 37  1  0  0  0  0
 40 38  1  0  0  0  0
 41 40  1  0  0  0  0
M  END
>  <MODEL>
5

>  <REMARK>
 VINA RESULT:      -7.5      1.863      3.042
  Name = 
  15 active torsions:
  status: ('A' for Active; 'I' for Inactive)
    1  A    between atoms: C_8  and  C_23
    2  A    between atoms: C_8  and  C_31
    3  A    between atoms: C_9  and  C_41
    4  A    between atoms: C_11  and  C_16
    5  A    between atoms: C_11  and  N_19
    6  A    between atoms: C_14  and  C_25
    7  A    between atoms: C_14  and  C_34
    8  A    between atoms: C_16  and  C_38
    9  A    between atoms: N_19  and  C_36
   10  A    between atoms: C_23  and  C_36
   11  A    between atoms: C_27  and  C_30
   12  A    between atoms: C_28  and  C_34
   13  A    between atoms: C_28  and  C_38
   14  A    between atoms: C_30  and  N_32
   15  A    between atoms: C_39  and  C_41
                            x       y       z     vdW  Elec       q    Type
                         _______ _______ _______ _____ _____    ______ ____

>  <TORSDO>
F 15

$$$$
=
 OpenBabel10222420373D

 41 43  0  0  1  0  0  0  0  0999 V2000
  189.7150  177.2310  141.3010 C   0  0  0  0  0  0  0  0  0  0  0  0
  190.8040  177.5010  141.9620 N   0  0  0  0  0  0  0  0  0  0  0  0
  190.7170  179.1160  143.6720 O   0  0  0  0  0  0  0  0  0  0  0  0
  190.9290  177.9190  143.3330 C   0  0  0  0  0  0  0  0  0  0  0  0
  192.0550  174.7310  144.9770 C   0  0  0  0  0  3  0  0  0  0  0  0
  191.3360  177.2770  145.6610 N   0  0  0  0  0  0  0  0  0  0  0  0
  191.7090  176.3910  146.6210 C   0  0  0  0  0  0  0  0  0  0  0  0
  191.6800  175.6280  143.9770 C   0  0  0  0  0  3  0  0  0  0  0  0
  191.7140  176.8040  148.0470 C   0  0  0  0  0  1  0  0  0  0  0  0
  191.3150  176.9250  144.3460 C   0  0  0  0  0  0  0  0  0  0  0  0
  192.0630  175.1260  146.2770 N   0  0  0  0  0  0  0  0  0  0  0  0
  189.8380  176.7690  139.8830 C   0  0  0  0  0  2  0  0  0  0  0  0
  189.5230  177.8230  137.7120 C   0  0  0  0  0  0  0  0  0  0  0  0
  189.0560  177.6920  136.5040 C   0  0  0  0  0  3  0  0  0  0  0  0
  189.9460  177.9280  138.9430 C   0  0  0  0  0  3  0  0  0  0  0  0
  187.8540  178.4620  136.0840 C   0  0  0  0  0  2  0  0  0  0  0  0
  182.8500  178.5180  139.9140 C   0  0  0  0  0  2  0  0  0  0  0  0
  185.9950  178.5740  137.6220 N   0  0  0  0  0  0  0  0  0  0  0  0
  184.5470  180.1270  139.4710 O   0  0  0  0  0  0  0  0  0  0  0  0
  181.2590  176.5780  140.1410 N   0  0  0  0  0  1  0  0  0  0  0  0
  184.0980  178.9780  139.2210 C   0  0  0  0  0  0  0  0  0  0  0  0
  186.1100  176.5720  136.2150 C   0  0  0  0  0  2  0  0  0  0  0  0
  184.7960  178.1070  138.2560 C   0  0  0  0  0  0  0  0  0  0  0  0
  182.4250  177.1240  139.5370 C   0  0  0  0  0  0  0  0  0  0  0  0
  183.1070  176.3850  138.6570 C   0  0  0  0  0  3  0  0  0  0  0  0
  185.0390  176.0420  137.0560 N   0  0  0  0  0  0  0  0  0  0  0  0
  184.3280  176.8780  137.9870 C   0  0  0  0  0  0  0  0  0  0  0  0
  186.6320  177.8910  136.7170 C   0  0  0  0  0  0  0  0  0  0  0  0
  184.6300  174.6660  136.8250 C   0  0  0  0  0  1  0  0  0  0  0  0
  188.3560  177.2910  141.9220 C   0  0  0  0  0  2  0  0  0  0  0  0
  187.4650  178.0700  141.0800 N   0  0  0  0  0  2  0  0  0  0  0  0
  186.7320  178.9610  141.9590 C   0  0  0  0  0  2  0  0  0  0  0  0
  185.5450  178.2240  142.5490 C   0  0  0  0  0  2  0  0  0  0  0  0
  183.6050  179.3950  143.2880 O   0  0  0  0  0  1  0  0  0  0  0  0
  184.9110  179.0570  143.6470 C   0  0  1  0  0  3  0  0  0  0  0  0
  184.8970  178.2570  144.9350 C   0  0  0  0  0  2  0  0  0  0  0  0
  186.3030  178.1570  145.4980 C   0  0  0  0  0  2  0  0  0  0  0  0
  186.2840  178.3160  147.0120 C   0  0  2  0  0  3  0  0  0  0  0  0
  185.6800  179.5290  147.3410 O   0  0  0  0  0  1  0  0  0  0  0  0
  187.7070  178.3050  147.5500 C   0  0  0  0  0  2  0  0  0  0  0  0
  188.1970  176.8780  147.7310 C   0  0  0  0  0  1  0  0  0  0  0  0
  1 30  1  0  0  0  0
  1  2  2  0  0  0  0
  2  4  1  0  0  0  0
  4  3  2  0  0  0  0
  4 10  1  0  0  0  0
  5 11  2  0  0  0  0
  6  7  2  0  0  0  0
  7  9  1  0  0  0  0
  8 10  2  0  0  0  0
  8  5  1  0  0  0  0
 10  6  1  0  0  0  0
 11  7  1  0  0  0  0
 12  1  1  0  0  0  0
 13 15  2  0  0  0  0
 14 13  2  0  0  0  0
 15 12  1  0  0  0  0
 16 14  1  0  0  0  0
 16 28  1  0  0  0  0
 18 23  1  0  0  0  0
 21 19  2  0  0  0  0
 21 17  1  0  0  0  0
 22 28  1  0  0  0  0
 22 26  1  0  0  0  0
 23 21  1  0  0  0  0
 24 17  1  0  0  0  0
 24 20  1  0  0  0  0
 25 24  2  0  0  0  0
 26 27  1  0  0  0  0
 27 23  2  0  0  0  0
 27 25  1  0  0  0  0
 28 18  2  0  0  0  0
 29 26  1  0  0  0  0
 31 30  1  0  0  0  0
 31 32  1  0  0  0  0
 32 33  1  0  0  0  0
 33 35  1  0  0  0  0
 35 34  1  6  0  0  0
 35 36  1  0  0  0  0
 36 37  1  0  0  0  0
 37 38  1  0  0  0  0
 38 39  1  6  0  0  0
 38 40  1  0  0  0  0
 40 41  1  0  0  0  0
M  END
>  <MODEL>
6

>  <REMARK>
 VINA RESULT:      -7.5      1.821      2.687
  Name = 
  15 active torsions:
  status: ('A' for Active; 'I' for Inactive)
    1  A    between atoms: C_8  and  C_23
    2  A    between atoms: C_8  and  C_31
    3  A    between atoms: C_9  and  C_41
    4  A    between atoms: C_11  and  C_16
    5  A    between atoms: C_11  and  N_19
    6  A    between atoms: C_14  and  C_25
    7  A    between atoms: C_14  and  C_34
    8  A    between atoms: C_16  and  C_38
    9  A    between atoms: N_19  and  C_36
   10  A    between atoms: C_23  and  C_36
   11  A    between atoms: C_27  and  C_30
   12  A    between atoms: C_28  and  C_34
   13  A    between atoms: C_28  and  C_38
   14  A    between atoms: C_30  and  N_32
   15  A    between atoms: C_39  and  C_41
                            x       y       z     vdW  Elec       q    Type
                         _______ _______ _______ _____ _____    ______ ____

>  <TORSDO>
F 15

$$$$
=
 OpenBabel10222420373D

 41 43  0  0  1  0  0  0  0  0999 V2000
  190.1640  176.7680  138.0110 C   0  0  0  0  0  0  0  0  0  0  0  0
  190.2440  175.9070  137.0370 N   0  0  0  0  0  0  0  0  0  0  0  0
  189.8360  173.6250  137.4440 O   0  0  0  0  0  0  0  0  0  0  0  0
  190.6490  174.5280  137.1040 C   0  0  0  0  0  0  0  0  0  0  0  0
  193.6950  173.3120  135.2680 C   0  0  0  0  0  3  0  0  0  0  0  0
  193.0290  174.4300  137.6700 N   0  0  0  0  0  0  0  0  0  0  0  0
  194.3260  174.1400  137.3870 C   0  0  0  0  0  0  0  0  0  0  0  0
  192.3590  173.6080  135.5370 C   0  0  0  0  0  3  0  0  0  0  0  0
  195.3830  174.4200  138.3920 C   0  0  0  0  0  1  0  0  0  0  0  0
  192.0390  174.1780  136.7720 C   0  0  0  0  0  0  0  0  0  0  0  0
  194.6520  173.5820  136.1930 N   0  0  0  0  0  0  0  0  0  0  0  0
  189.6720  178.1470  137.7050 C   0  0  0  0  0  2  0  0  0  0  0  0
  187.2740  177.7830  137.5000 C   0  0  0  0  0  0  0  0  0  0  0  0
  186.1680  177.4910  138.1220 C   0  0  0  0  0  3  0  0  0  0  0  0
  188.3990  178.1070  136.9210 C   0  0  0  0  0  3  0  0  0  0  0  0
  185.1190  178.5310  138.2970 C   0  0  0  0  0  2  0  0  0  0  0  0
  186.0240  178.4540  144.5330 C   0  0  0  0  0  2  0  0  0  0  0  0
  185.5740  178.4370  140.6670 N   0  0  0  0  0  0  0  0  0  0  0  0
  187.5180  178.2380  142.6940 O   0  0  0  0  0  0  0  0  0  0  0  0
  184.1540  178.6910  146.2060 N   0  0  0  0  0  1  0  0  0  0  0  0
  186.3260  178.3930  143.0650 C   0  0  0  0  0  0  0  0  0  0  0  0
  183.2620  178.9440  140.0340 C   0  0  0  0  0  2  0  0  0  0  0  0
  185.2510  178.5140  142.0620 C   0  0  0  0  0  0  0  0  0  0  0  0
  184.5610  178.6300  144.8450 C   0  0  0  0  0  0  0  0  0  0  0  0
  183.6360  178.7290  143.8860 C   0  0  0  0  0  3  0  0  0  0  0  0
  182.9440  178.7710  141.4500 N   0  0  0  0  0  0  0  0  0  0  0  0
  183.9750  178.6730  142.4490 C   0  0  0  0  0  0  0  0  0  0  0  0
  184.6940  178.5960  139.7240 C   0  0  0  0  0  0  0  0  0  0  0  0
  181.5410  178.8290  141.8280 C   0  0  0  0  0  1  0  0  0  0  0  0
  190.4700  176.4130  139.4320 C   0  0  0  0  0  2  0  0  0  0  0  0
  189.8680  177.3900  140.3230 N   0  0  0  0  0  2  0  0  0  0  0  0
  190.6250  177.3490  141.5590 C   0  0  0  0  0  2  0  0  0  0  0  0
  190.1560  176.1770  142.4000 C   0  0  0  0  0  2  0  0  0  0  0  0
  192.0660  175.5510  143.6810 O   0  0  0  0  0  1  0  0  0  0  0  0
  190.8350  176.2060  143.7560 C   0  0  1  0  0  3  0  0  0  0  0  0
  191.0470  177.6470  144.1780 C   0  0  0  0  0  2  0  0  0  0  0  0
  189.9890  178.0520  145.1880 C   0  0  0  0  0  2  0  0  0  0  0  0
  189.8050  176.9610  146.2340 C   0  0  2  0  0  3  0  0  0  0  0  0
  188.6000  177.1650  146.9060 O   0  0  0  0  0  1  0  0  0  0  0  0
  190.9500  177.0070  147.2350 C   0  0  0  0  0  2  0  0  0  0  0  0
  191.7000  175.6870  147.2470 C   0  0  0  0  0  1  0  0  0  0  0  0
  1 30  1  0  0  0  0
  2  4  1  0  0  0  0
  2  1  2  0  0  0  0
  4  3  2  0  0  0  0
  5  8  1  0  0  0  0
  5 11  2  0  0  0  0
  7  6  2  0  0  0  0
  7  9  1  0  0  0  0
  8 10  2  0  0  0  0
 10  4  1  0  0  0  0
 10  6  1  0  0  0  0
 11  7  1  0  0  0  0
 12  1  1  0  0  0  0
 13 14  2  0  0  0  0
 14 16  1  0  0  0  0
 15 13  2  0  0  0  0
 15 12  1  0  0  0  0
 16 28  1  0  0  0  0
 17 24  1  0  0  0  0
 18 23  1  0  0  0  0
 19 21  2  0  0  0  0
 21 17  1  0  0  0  0
 22 26  1  0  0  0  0
 23 27  2  0  0  0  0
 23 21  1  0  0  0  0
 24 20  1  0  0  0  0
 25 24  2  0  0  0  0
 26 29  1  0  0  0  0
 26 27  1  0  0  0  0
 27 25  1  0  0  0  0
 28 22  1  0  0  0  0
 28 18  2  0  0  0  0
 30 31  1  0  0  0  0
 31 32  1  0  0  0  0
 32 33  1  0  0  0  0
 33 35  1  0  0  0  0
 35 34  1  6  0  0  0
 35 36  1  0  0  0  0
 36 37  1  0  0  0  0
 37 38  1  0  0  0  0
 38 39  1  1  0  0  0
 38 40  1  0  0  0  0
 40 41  1  0  0  0  0
M  END
>  <MODEL>
7

>  <REMARK>
 VINA RESULT:      -7.5      2.958      7.386
  Name = 
  15 active torsions:
  status: ('A' for Active; 'I' for Inactive)
    1  A    between atoms: C_8  and  C_23
    2  A    between atoms: C_8  and  C_31
    3  A    between atoms: C_9  and  C_41
    4  A    between atoms: C_11  and  C_16
    5  A    between atoms: C_11  and  N_19
    6  A    between atoms: C_14  and  C_25
    7  A    between atoms: C_14  and  C_34
    8  A    between atoms: C_16  and  C_38
    9  A    between atoms: N_19  and  C_36
   10  A    between atoms: C_23  and  C_36
   11  A    between atoms: C_27  and  C_30
   12  A    between atoms: C_28  and  C_34
   13  A    between atoms: C_28  and  C_38
   14  A    between atoms: C_30  and  N_32
   15  A    between atoms: C_39  and  C_41
                            x       y       z     vdW  Elec       q    Type
                         _______ _______ _______ _____ _____    ______ ____

>  <TORSDO>
F 15

$$$$
=
 OpenBabel10222420373D

 41 43  0  0  1  0  0  0  0  0999 V2000
  184.7860  178.4620  138.9700 C   0  0  0  0  0  0  0  0  0  0  0  0
  186.0590  178.6670  138.7850 N   0  0  0  0  0  0  0  0  0  0  0  0
  186.6320  178.2120  136.5480 O   0  0  0  0  0  0  0  0  0  0  0  0
  186.9110  178.1010  137.7730 C   0  0  0  0  0  0  0  0  0  0  0  0
  190.0250  177.0960  139.6240 C   0  0  0  0  0  3  0  0  0  0  0  0
  188.4920  176.2470  137.5280 N   0  0  0  0  0  0  0  0  0  0  0  0
  189.5930  175.5430  137.8990 C   0  0  0  0  0  0  0  0  0  0  0  0
  188.8950  177.8290  139.2630 C   0  0  0  0  0  3  0  0  0  0  0  0
  189.9720  174.3160  137.1540 C   0  0  0  0  0  1  0  0  0  0  0  0
  188.1240  177.3790  138.1880 C   0  0  0  0  0  0  0  0  0  0  0  0
  190.3540  175.9700  138.9390 N   0  0  0  0  0  0  0  0  0  0  0  0
  184.0980  179.2020  140.0720 C   0  0  0  0  0  2  0  0  0  0  0  0
  184.7870  178.0760  142.1180 C   0  0  0  0  0  0  0  0  0  0  0  0
  185.7430  177.8970  142.9830 C   0  0  0  0  0  3  0  0  0  0  0  0
  183.8430  178.3110  141.2460 C   0  0  0  0  0  3  0  0  0  0  0  0
  185.6120  178.4490  144.3590 C   0  0  0  0  0  2  0  0  0  0  0  0
  191.5160  176.4410  145.2650 C   0  0  0  0  0  2  0  0  0  0  0  0
  187.8690  177.6220  144.5920 N   0  0  0  0  0  0  0  0  0  0  0  0
  190.2230  176.7810  143.2960 O   0  0  0  0  0  0  0  0  0  0  0  0
  192.5530  176.1770  147.5460 N   0  0  0  0  0  1  0  0  0  0  0  0
  190.2540  176.8310  144.5530 C   0  0  0  0  0  0  0  0  0  0  0  0
  186.7630  178.3320  146.6590 C   0  0  0  0  0  2  0  0  0  0  0  0
  189.0630  177.2700  145.3040 C   0  0  0  0  0  0  0  0  0  0  0  0
  191.4190  176.5330  146.7650 C   0  0  0  0  0  0  0  0  0  0  0  0
  190.3050  176.9360  147.3840 C   0  0  0  0  0  3  0  0  0  0  0  0
  187.9030  177.7360  147.3540 N   0  0  0  0  0  0  0  0  0  0  0  0
  189.0850  177.3210  146.6450 C   0  0  0  0  0  0  0  0  0  0  0  0
  186.8000  178.0760  145.1770 C   0  0  0  0  0  0  0  0  0  0  0  0
  187.8490  177.6950  148.8060 C   0  0  0  0  0  1  0  0  0  0  0  0
  183.9720  177.5770  138.0800 C   0  0  0  0  0  2  0  0  0  0  0  0
  182.8590  178.3280  137.5270 N   0  0  0  0  0  2  0  0  0  0  0  0
  181.7540  177.3980  137.3920 C   0  0  0  0  0  2  0  0  0  0  0  0
  182.2580  176.1000  136.7910 C   0  0  0  0  0  2  0  0  0  0  0  0
  180.3720  174.8960  135.9670 O   0  0  0  0  0  1  0  0  0  0  0  0
  181.2560  174.9880  137.0440 C   0  0  1  0  0  3  0  0  0  0  0  0
  181.9990  173.6760  137.2110 C   0  0  0  0  0  2  0  0  0  0  0  0
  183.3610  173.7640  136.5460 C   0  0  0  0  0  2  0  0  0  0  0  0
  184.1450  172.4780  136.7660 C   0  0  2  0  0  3  0  0  0  0  0  0
  183.2750  171.4730  137.1890 O   0  0  0  0  0  1  0  0  0  0  0  0
  185.2100  172.6980  137.8310 C   0  0  0  0  0  2  0  0  0  0  0  0
  186.5000  173.1920  137.1990 C   0  0  0  0  0  1  0  0  0  0  0  0
  1 12  1  0  0  0  0
  2  1  2  0  0  0  0
  3  4  2  0  0  0  0
  4 10  1  0  0  0  0
  4  2  1  0  0  0  0
  6  7  2  0  0  0  0
  6 10  1  0  0  0  0
  7 11  1  0  0  0  0
  8  5  1  0  0  0  0
  9  7  1  0  0  0  0
 10  8  2  0  0  0  0
 11  5  2  0  0  0  0
 12 15  1  0  0  0  0
 13 14  2  0  0  0  0
 14 16  1  0  0  0  0
 15 13  2  0  0  0  0
 16 28  1  0  0  0  0
 17 24  1  0  0  0  0
 18 28  2  0  0  0  0
 18 23  1  0  0  0  0
 19 21  2  0  0  0  0
 21 17  1  0  0  0  0
 21 23  1  0  0  0  0
 22 26  1  0  0  0  0
 23 27  2  0  0  0  0
 24 25  2  0  0  0  0
 24 20  1  0  0  0  0
 26 29  1  0  0  0  0
 27 26  1  0  0  0  0
 27 25  1  0  0  0  0
 28 22  1  0  0  0  0
 30  1  1  0  0  0  0
 31 30  1  0  0  0  0
 32 31  1  0  0  0  0
 33 35  1  0  0  0  0
 33 32  1  0  0  0  0
 35 34  1  6  0  0  0
 35 36  1  0  0  0  0
 37 38  1  0  0  0  0
 37 36  1  0  0  0  0
 38 39  1  1  0  0  0
 38 40  1  0  0  0  0
 41 40  1  0  0  0  0
M  END
>  <MODEL>
8

>  <REMARK>
 VINA RESULT:      -7.4      2.650      9.196
  Name = 
  15 active torsions:
  status: ('A' for Active; 'I' for Inactive)
    1  A    between atoms: C_8  and  C_23
    2  A    between atoms: C_8  and  C_31
    3  A    between atoms: C_9  and  C_41
    4  A    between atoms: C_11  and  C_16
    5  A    between atoms: C_11  and  N_19
    6  A    between atoms: C_14  and  C_25
    7  A    between atoms: C_14  and  C_34
    8  A    between atoms: C_16  and  C_38
    9  A    between atoms: N_19  and  C_36
   10  A    between atoms: C_23  and  C_36
   11  A    between atoms: C_27  and  C_30
   12  A    between atoms: C_28  and  C_34
   13  A    between atoms: C_28  and  C_38
   14  A    between atoms: C_30  and  N_32
   15  A    between atoms: C_39  and  C_41
                            x       y       z     vdW  Elec       q    Type
                         _______ _______ _______ _____ _____    ______ ____

>  <TORSDO>
F 15

$$$$
=
 OpenBabel10222420373D

 41 43  0  0  1  0  0  0  0  0999 V2000
  187.0320  178.5060  141.0170 C   0  0  0  0  0  0  0  0  0  0  0  0
  187.1950  178.6720  139.7350 N   0  0  0  0  0  0  0  0  0  0  0  0
  189.4360  178.3810  139.0760 O   0  0  0  0  0  0  0  0  0  0  0  0
  188.2160  178.1130  138.8910 C   0  0  0  0  0  0  0  0  0  0  0  0
  188.3420  175.8520  135.8900 C   0  0  0  0  0  3  0  0  0  0  0  0
  186.5140  176.8590  137.6540 N   0  0  0  0  0  0  0  0  0  0  0  0
  186.1170  176.0160  136.6650 C   0  0  0  0  0  0  0  0  0  0  0  0
  188.7690  176.7110  136.9020 C   0  0  0  0  0  3  0  0  0  0  0  0
  184.6840  175.6510  136.5360 C   0  0  0  0  0  1  0  0  0  0  0  0
  187.8200  177.2170  137.7940 C   0  0  0  0  0  0  0  0  0  0  0  0
  187.0280  175.5200  135.7890 N   0  0  0  0  0  0  0  0  0  0  0  0
  185.8610  179.1600  141.6780 C   0  0  0  0  0  2  0  0  0  0  0  0
  184.2170  178.6500  143.3990 C   0  0  0  0  0  0  0  0  0  0  0  0
  183.2280  179.0990  144.1160 C   0  0  0  0  0  3  0  0  0  0  0  0
  185.1890  178.2280  142.6350 C   0  0  0  0  0  3  0  0  0  0  0  0
  181.8470  178.6020  143.8710 C   0  0  0  0  0  2  0  0  0  0  0  0
  181.7870  178.7720  137.5720 C   0  0  0  0  0  2  0  0  0  0  0  0
  181.9450  178.6250  141.4580 N   0  0  0  0  0  0  0  0  0  0  0  0
  183.1150  177.5590  139.1300 O   0  0  0  0  0  0  0  0  0  0  0  0
  180.2210  180.2300  136.2420 N   0  0  0  0  0  1  0  0  0  0  0  0
  182.1920  178.3980  138.9670 C   0  0  0  0  0  0  0  0  0  0  0  0
  180.1490  179.9450  142.4750 C   0  0  0  0  0  2  0  0  0  0  0  0
  181.5230  178.9960  140.1380 C   0  0  0  0  0  0  0  0  0  0  0  0
  180.6810  179.7910  137.5140 C   0  0  0  0  0  0  0  0  0  0  0  0
  180.1200  180.2970  138.6160 C   0  0  0  0  0  3  0  0  0  0  0  0
  179.9170  180.4770  141.1340 N   0  0  0  0  0  0  0  0  0  0  0  0
  180.5410  179.8950  139.9740 C   0  0  0  0  0  0  0  0  0  0  0  0
  181.3650  179.0610  142.5370 C   0  0  0  0  0  0  0  0  0  0  0  0
  178.9310  181.5370  141.0000 C   0  0  0  0  0  1  0  0  0  0  0  0
  187.9240  177.6300  141.8380 C   0  0  0  0  0  2  0  0  0  0  0  0
  189.0580  178.3980  142.3210 N   0  0  0  0  0  2  0  0  0  0  0  0
  190.1930  177.4960  142.3480 C   0  0  0  0  0  2  0  0  0  0  0  0
  190.0770  176.5750  143.5470 C   0  0  0  0  0  2  0  0  0  0  0  0
  191.7700  178.1190  144.2060 O   0  0  0  0  0  1  0  0  0  0  0  0
  190.9900  177.0540  144.6600 C   0  0  1  0  0  3  0  0  0  0  0  0
  190.1470  177.5030  145.8380 C   0  0  0  0  0  2  0  0  0  0  0  0
  188.6920  177.1410  145.6010 C   0  0  0  0  0  2  0  0  0  0  0  0
  187.7920  177.8730  146.5870 C   0  0  2  0  0  3  0  0  0  0  0  0
  188.0030  177.3650  147.8690 O   0  0  0  0  0  1  0  0  0  0  0  0
  186.3340  177.6720  146.2040 C   0  0  0  0  0  2  0  0  0  0  0  0
  185.4460  178.6490  146.9560 C   0  0  0  0  0  1  0  0  0  0  0  0
  1 12  1  0  0  0  0
  1 30  1  0  0  0  0
  2  1  2  0  0  0  0
  4  3  2  0  0  0  0
  4  2  1  0  0  0  0
  5  8  1  0  0  0  0
  6 10  1  0  0  0  0
  7  6  2  0  0  0  0
  8 10  2  0  0  0  0
  9  7  1  0  0  0  0
 10  4  1  0  0  0  0
 11  5  2  0  0  0  0
 11  7  1  0  0  0  0
 12 15  1  0  0  0  0
 13 14  2  0  0  0  0
 15 13  2  0  0  0  0
 16 14  1  0  0  0  0
 17 21  1  0  0  0  0
 18 28  2  0  0  0  0
 20 24  1  0  0  0  0
 21 19  2  0  0  0  0
 21 23  1  0  0  0  0
 22 28  1  0  0  0  0
 23 18  1  0  0  0  0
 24 17  1  0  0  0  0
 24 25  2  0  0  0  0
 25 27  1  0  0  0  0
 26 22  1  0  0  0  0
 27 23  2  0  0  0  0
 27 26  1  0  0  0  0
 28 16  1  0  0  0  0
 29 26  1  0  0  0  0
 30 31  1  0  0  0  0
 31 32  1  0  0  0  0
 32 33  1  0  0  0  0
 33 35  1  0  0  0  0
 35 34  1  6  0  0  0
 35 36  1  0  0  0  0
 37 36  1  0  0  0  0
 37 38  1  0  0  0  0
 38 39  1  1  0  0  0
 40 38  1  0  0  0  0
 40 41  1  0  0  0  0
M  END
>  <MODEL>
9

>  <REMARK>
 VINA RESULT:      -7.4      3.165      7.903
  Name = 
  15 active torsions:
  status: ('A' for Active; 'I' for Inactive)
    1  A    between atoms: C_8  and  C_23
    2  A    between atoms: C_8  and  C_31
    3  A    between atoms: C_9  and  C_41
    4  A    between atoms: C_11  and  C_16
    5  A    between atoms: C_11  and  N_19
    6  A    between atoms: C_14  and  C_25
    7  A    between atoms: C_14  and  C_34
    8  A    between atoms: C_16  and  C_38
    9  A    between atoms: N_19  and  C_36
   10  A    between atoms: C_23  and  C_36
   11  A    between atoms: C_27  and  C_30
   12  A    between atoms: C_28  and  C_34
   13  A    between atoms: C_28  and  C_38
   14  A    between atoms: C_30  and  N_32
   15  A    between atoms: C_39  and  C_41
                            x       y       z     vdW  Elec       q    Type
                         _______ _______ _______ _____ _____    ______ ____

>  <TORSDO>
F 15

$$$$
