=
 OpenBabel10222420353D

 41 44  0  0  1  0  0  0  0  0999 V2000
  190.1650  177.4040  139.2310 F   0  0  0  0  0  0  0  0  0  0  0  0
  188.2180  178.2770  140.9730 C   0  0  0  0  0  3  0  0  0  0  0  0
  186.3340  178.2030  137.7250 C   0  0  0  0  0  3  0  0  0  0  0  0
  189.0690  178.0200  138.6370 C   0  0  0  0  0  0  0  0  0  0  0  0
  184.8220  178.4840  142.2570 C   0  0  0  0  0  0  0  0  0  0  0  0
  189.4710  179.2080  138.0410 F   0  0  0  0  0  0  0  0  0  0  0  0
  187.9840  178.2990  139.6530 C   0  0  0  0  0  0  0  0  0  0  0  0
  186.7890  177.7910  142.9520 C   0  0  2  0  0  3  0  0  0  0  0  0
  187.2340  177.6120  136.9960 N   0  0  0  0  0  0  0  0  0  0  0  0
  185.3790  177.7790  143.1870 N   0  0  0  0  0  0  0  0  0  0  0  0
  185.5960  178.7410  139.9360 N   0  0  0  0  0  0  0  0  0  0  0  0
  188.4760  177.0790  137.5640 C   0  0  1  0  0  3  0  0  0  0  0  0
  185.8120  179.1130  141.3400 C   0  0  2  0  0  3  0  0  0  0  0  0
  187.0690  178.4980  141.8660 C   0  0  2  0  0  3  0  0  0  0  0  0
  186.5900  178.4550  139.1440 C   0  0  0  0  0  0  0  0  0  0  0  0
  187.7410  176.8680  143.6460 C   0  0  0  0  0  2  0  0  0  0  0  0
  188.1190  177.4300  145.0130 C   0  0  0  0  0  2  0  0  0  0  0  0
  189.5980  177.1860  145.3180 C   0  0  0  0  0  2  0  0  0  0  0  0
  190.4990  177.7890  144.2840 C   0  0  0  0  0  0  0  0  0  0  0  0
  190.5890  179.0820  144.1850 N   0  0  0  0  0  2  0  0  0  0  0  0
  191.7470  177.3280  142.0720 C   0  0  0  0  0  1  0  0  0  0  0  0
  191.3530  176.9230  143.4530 C   0  0  0  0  0  0  0  0  0  0  0  0
  191.7510  175.8150  143.8970 O   0  0  0  0  0  0  0  0  0  0  0  0
  189.4480  176.6970  136.4420 C   0  0  0  0  0  2  0  0  0  0  0  0
  189.5510  175.3020  136.3350 O   0  0  0  0  0  0  0  0  0  0  0  0
  190.8540  174.4600  138.0340 O   0  0  0  0  0  1  0  0  0  0  0  0
  190.8610  174.9980  136.7390 C   0  0  0  0  0  2  0  0  0  0  0  0
  183.3480  178.7100  142.1930 C   0  0  0  0  0  2  0  0  0  0  0  0
  181.9670  179.4130  140.0600 C   0  0  1  0  0  3  0  0  0  0  0  0
  180.6310  178.7820  139.5950 C   0  0  0  0  0  2  0  0  0  0  0  0
  180.7710  177.3460  139.0330 C   0  0  0  0  0  2  0  0  0  0  0  0
  182.7860  178.3990  140.8340 C   0  0  0  0  0  0  0  0  0  0  0  0
  182.8810  177.1500  140.3650 C   0  0  0  0  0  3  0  0  0  0  0  0
  182.2170  176.7990  139.0500 C   0  0  1  0  0  3  0  0  0  0  0  0
  181.0010  174.7340  138.6760 O   0  0  0  0  0  1  0  0  0  0  0  0
  182.2910  175.2840  138.7810 C   0  0  1  0  0  3  0  0  0  0  0  0
  183.5050  176.2030  136.7420 C   0  0  0  0  0  1  0  0  0  0  0  0
  183.0700  174.9600  137.4990 C   0  0  1  0  0  3  0  0  0  0  0  0
  184.2020  174.2050  137.8230 O   0  0  0  0  0  1  0  0  0  0  0  0
  182.6980  179.8420  138.9480 O   0  0  0  0  0  0  0  0  0  0  0  0
  181.9420  180.8750  138.3910 C   0  0  0  0  0  1  0  0  0  0  0  0
  3 15  1  0  0  0  0
  4  1  1  0  0  0  0
  4  7  1  0  0  0  0
  5 10  2  0  0  0  0
  6  4  1  0  0  0  0
  7  2  2  0  0  0  0
  8 10  1  0  0  0  0
  8 16  1  6  0  0  0
  9 12  1  0  0  0  0
  9  3  2  0  0  0  0
 12 24  1  6  0  0  0
 12  4  1  0  0  0  0
 13 11  1  6  0  0  0
 13 14  1  0  0  0  0
 13  5  1  0  0  0  0
 14  2  1  6  0  0  0
 14  8  1  0  0  0  0
 15  7  1  0  0  0  0
 15 11  2  0  0  0  0
 16 17  1  0  0  0  0
 17 18  1  0  0  0  0
 19 18  1  0  0  0  0
 20 19  2  0  0  0  0
 21 22  1  0  0  0  0
 22 23  2  0  0  0  0
 22 19  1  0  0  0  0
 25 24  1  0  0  0  0
 25 27  1  0  0  0  0
 27 26  1  0  0  0  0
 28  5  1  0  0  0  0
 29 40  1  6  0  0  0
 29 32  1  0  0  0  0
 30 29  1  0  0  0  0
 31 34  1  0  0  0  0
 31 30  1  0  0  0  0
 32 28  1  0  0  0  0
 33 32  2  0  0  0  0
 34 36  1  1  0  0  0
 34 33  1  0  0  0  0
 36 35  1  6  0  0  0
 38 37  1  1  0  0  0
 38 39  1  0  0  0  0
 38 36  1  0  0  0  0
 41 40  1  0  0  0  0
M  END
>  <MODEL>
1

>  <REMARK>
 VINA RESULT:      -7.5      0.000      0.000
  Name = 
  13 active torsions:
  status: ('A' for Active; 'I' for Inactive)
    1  A    between atoms: C_1  and  C_5
    2  A    between atoms: C_1  and  C_25
    3  A    between atoms: C_4  and  O_10
    4  A    between atoms: C_5  and  C_40
    5  A    between atoms: C_8  and  O_28
    6  A    between atoms: C_8  and  C_31
    7  A    between atoms: C_13  and  O_28
    8  A    between atoms: C_14  and  C_19
    9  A    between atoms: C_14  and  C_33
   10  A    between atoms: C_18  and  C_23
   11  A    between atoms: C_21  and  C_36
   12  A    between atoms: C_23  and  C_40
   13  A    between atoms: C_36  and  C_39
                            x       y       z     vdW  Elec       q    Type
                         _______ _______ _______ _____ _____    ______ ____

>  <TORSDO>
F 13

$$$$
=
 OpenBabel10222420353D

 41 44  0  0  1  0  0  0  0  0999 V2000
  190.2460  177.4480  139.0240 F   0  0  0  0  0  0  0  0  0  0  0  0
  188.2690  178.3390  140.7220 C   0  0  0  0  0  3  0  0  0  0  0  0
  186.3840  178.0090  137.4900 C   0  0  0  0  0  3  0  0  0  0  0  0
  189.1250  177.9860  138.4010 C   0  0  0  0  0  0  0  0  0  0  0  0
  184.8700  178.4830  142.0060 C   0  0  0  0  0  0  0  0  0  0  0  0
  189.4790  179.1540  137.7380 F   0  0  0  0  0  0  0  0  0  0  0  0
  188.0320  178.2780  139.4040 C   0  0  0  0  0  0  0  0  0  0  0  0
  186.8640  177.9080  142.7300 C   0  0  2  0  0  3  0  0  0  0  0  0
  187.3050  177.4150  136.7920 N   0  0  0  0  0  0  0  0  0  0  0  0
  185.4560  177.8530  142.9710 N   0  0  0  0  0  0  0  0  0  0  0  0
  185.6290  178.6400  139.6710 N   0  0  0  0  0  0  0  0  0  0  0  0
  188.5690  176.9640  137.3840 C   0  0  1  0  0  3  0  0  0  0  0  0
  185.8320  179.0990  141.0510 C   0  0  2  0  0  3  0  0  0  0  0  0
  187.1130  178.5640  141.6050 C   0  0  2  0  0  3  0  0  0  0  0  0
  186.6320  178.3510  138.8930 C   0  0  0  0  0  0  0  0  0  0  0  0
  187.8530  177.0640  143.4710 C   0  0  0  0  0  2  0  0  0  0  0  0
  188.1870  177.7000  144.8170 C   0  0  0  0  0  2  0  0  0  0  0  0
  187.3830  177.0540  145.9460 C   0  0  0  0  0  2  0  0  0  0  0  0
  187.1010  178.0110  147.0640 C   0  0  0  0  0  0  0  0  0  0  0  0
  187.9650  178.1480  148.0250 N   0  0  0  0  0  2  0  0  0  0  0  0
  184.6950  178.4580  146.2430 C   0  0  0  0  0  1  0  0  0  0  0  0
  185.9020  178.8650  147.0210 C   0  0  0  0  0  0  0  0  0  0  0  0
  185.8860  179.9640  147.6320 O   0  0  0  0  0  0  0  0  0  0  0  0
  189.5520  176.5590  136.2810 C   0  0  0  0  0  2  0  0  0  0  0  0
  189.4060  175.2000  135.9660 O   0  0  0  0  0  0  0  0  0  0  0  0
  190.7220  174.2350  137.5880 O   0  0  0  0  0  1  0  0  0  0  0  0
  189.4080  174.5340  137.2030 C   0  0  0  0  0  2  0  0  0  0  0  0
  183.3880  178.6460  141.9350 C   0  0  0  0  0  2  0  0  0  0  0  0
  181.9090  179.2540  139.8390 C   0  0  1  0  0  3  0  0  0  0  0  0
  180.6450  178.4930  139.3680 C   0  0  0  0  0  2  0  0  0  0  0  0
  180.9370  177.0990  138.7590 C   0  0  0  0  0  2  0  0  0  0  0  0
  182.8460  178.3160  140.5730 C   0  0  0  0  0  0  0  0  0  0  0  0
  183.0730  177.0990  140.0650 C   0  0  0  0  0  3  0  0  0  0  0  0
  182.4350  176.7160  138.7460 C   0  0  1  0  0  3  0  0  0  0  0  0
  181.5920  174.6940  137.7050 O   0  0  0  0  0  1  0  0  0  0  0  0
  182.6740  175.2280  138.4290 C   0  0  1  0  0  3  0  0  0  0  0  0
  184.4350  173.5630  137.6520 C   0  0  0  0  0  1  0  0  0  0  0  0
  183.9620  175.0060  137.6240 C   0  0  1  0  0  3  0  0  0  0  0  0
  183.7490  175.3890  136.2950 O   0  0  0  0  0  1  0  0  0  0  0  0
  182.5730  179.7960  138.7340 O   0  0  0  0  0  0  0  0  0  0  0  0
  181.6810  180.7210  138.1900 C   0  0  0  0  0  1  0  0  0  0  0  0
  3 15  1  0  0  0  0
  4  1  1  0  0  0  0
  4  7  1  0  0  0  0
  5 10  2  0  0  0  0
  6  4  1  0  0  0  0
  7  2  2  0  0  0  0
  8 10  1  0  0  0  0
  8 16  1  6  0  0  0
  9 12  1  0  0  0  0
  9  3  2  0  0  0  0
 12 24  1  6  0  0  0
 12  4  1  0  0  0  0
 13 11  1  6  0  0  0
 13 14  1  0  0  0  0
 13  5  1  0  0  0  0
 14  2  1  6  0  0  0
 14  8  1  0  0  0  0
 15  7  1  0  0  0  0
 15 11  2  0  0  0  0
 16 17  1  0  0  0  0
 17 18  1  0  0  0  0
 18 19  1  0  0  0  0
 19 20  2  0  0  0  0
 21 22  1  0  0  0  0
 22 19  1  0  0  0  0
 22 23  2  0  0  0  0
 25 24  1  0  0  0  0
 25 27  1  0  0  0  0
 27 26  1  0  0  0  0
 28  5  1  0  0  0  0
 29 40  1  6  0  0  0
 29 32  1  0  0  0  0
 30 29  1  0  0  0  0
 31 30  1  0  0  0  0
 32 28  1  0  0  0  0
 33 32  2  0  0  0  0
 34 36  1  1  0  0  0
 34 31  1  0  0  0  0
 34 33  1  0  0  0  0
 36 35  1  6  0  0  0
 38 37  1  6  0  0  0
 38 36  1  0  0  0  0
 39 38  1  0  0  0  0
 41 40  1  0  0  0  0
M  END
>  <MODEL>
2

>  <REMARK>
 VINA RESULT:      -7.3      1.821      2.458
  Name = 
  13 active torsions:
  status: ('A' for Active; 'I' for Inactive)
    1  A    between atoms: C_1  and  C_5
    2  A    between atoms: C_1  and  C_25
    3  A    between atoms: C_4  and  O_10
    4  A    between atoms: C_5  and  C_40
    5  A    between atoms: C_8  and  O_28
    6  A    between atoms: C_8  and  C_31
    7  A    between atoms: C_13  and  O_28
    8  A    between atoms: C_14  and  C_19
    9  A    between atoms: C_14  and  C_33
   10  A    between atoms: C_18  and  C_23
   11  A    between atoms: C_21  and  C_36
   12  A    between atoms: C_23  and  C_40
   13  A    between atoms: C_36  and  C_39
                            x       y       z     vdW  Elec       q    Type
                         _______ _______ _______ _____ _____    ______ ____

>  <TORSDO>
F 13

$$$$
=
 OpenBabel10222420353D

 41 44  0  0  1  0  0  0  0  0999 V2000
  188.2290  177.6110  145.7680 F   0  0  0  0  0  0  0  0  0  0  0  0
  187.0930  177.5680  143.2600 C   0  0  0  0  0  3  0  0  0  0  0  0
  184.2690  178.9210  145.3330 C   0  0  0  0  0  3  0  0  0  0  0  0
  186.8390  177.6680  145.7440 C   0  0  0  0  0  0  0  0  0  0  0  0
  184.9710  178.8490  140.5990 C   0  0  0  0  0  0  0  0  0  0  0  0
  186.3180  176.5140  146.3120 F   0  0  0  0  0  0  0  0  0  0  0  0
  186.3250  177.8190  144.3290 C   0  0  0  0  0  0  0  0  0  0  0  0
  187.1040  178.4330  140.9260 C   0  0  2  0  0  3  0  0  0  0  0  0
  184.9160  179.0950  146.4460 N   0  0  0  0  0  0  0  0  0  0  0  0
  186.1390  179.0860  140.0980 N   0  0  0  0  0  0  0  0  0  0  0  0
  184.4200  178.5370  142.9760 N   0  0  0  0  0  0  0  0  0  0  0  0
  186.3660  178.8990  146.5490 C   0  0  1  0  0  3  0  0  0  0  0  0
  185.0230  177.9400  141.7780 C   0  0  2  0  0  3  0  0  0  0  0  0
  186.5030  177.8140  141.9330 C   0  0  2  0  0  3  0  0  0  0  0  0
  184.9660  178.4080  144.1510 C   0  0  0  0  0  0  0  0  0  0  0  0
  188.5740  178.7000  140.8330 C   0  0  0  0  0  2  0  0  0  0  0  0
  189.3270  177.4100  140.5220 C   0  0  0  0  0  2  0  0  0  0  0  0
  190.6840  177.3800  141.2260 C   0  0  0  0  0  2  0  0  0  0  0  0
  190.6020  176.7720  142.5930 C   0  0  0  0  0  0  0  0  0  0  0  0
  190.1810  175.5490  142.7270 N   0  0  0  0  0  2  0  0  0  0  0  0
  190.9500  179.0010  143.8460 C   0  0  0  0  0  1  0  0  0  0  0  0
  191.0920  177.5180  143.7650 C   0  0  0  0  0  0  0  0  0  0  0  0
  191.6540  176.9100  144.7120 O   0  0  0  0  0  0  0  0  0  0  0  0
  186.7960  178.9040  148.0200 C   0  0  0  0  0  2  0  0  0  0  0  0
  187.5200  177.7420  148.3250 O   0  0  0  0  0  0  0  0  0  0  0  0
  189.8120  177.6600  148.1450 O   0  0  0  0  0  1  0  0  0  0  0  0
  188.7340  178.1950  148.8650 C   0  0  0  0  0  2  0  0  0  0  0  0
  183.7120  179.3620  139.9820 C   0  0  0  0  0  2  0  0  0  0  0  0
  181.7700  177.6070  139.6680 C   0  0  1  0  0  3  0  0  0  0  0  0
  181.9420  176.0710  139.5640 C   0  0  0  0  0  2  0  0  0  0  0  0
  182.5870  175.5960  138.2380 C   0  0  0  0  0  2  0  0  0  0  0  0
  183.0140  178.3120  139.1640 C   0  0  0  0  0  0  0  0  0  0  0  0
  183.5900  177.8800  138.0370 C   0  0  0  0  0  3  0  0  0  0  0  0
  182.9550  176.7410  137.2670 C   0  0  1  0  0  3  0  0  0  0  0  0
  183.5660  176.9990  134.9350 O   0  0  0  0  0  1  0  0  0  0  0  0
  183.8610  176.2830  136.1100 C   0  0  1  0  0  3  0  0  0  0  0  0
  186.0790  175.1400  136.6060 C   0  0  0  0  0  1  0  0  0  0  0  0
  185.3500  176.4610  136.4330 C   0  0  1  0  0  3  0  0  0  0  0  0
  185.9640  177.1880  135.4080 O   0  0  0  0  0  1  0  0  0  0  0  0
  180.6710  178.0120  138.9030 O   0  0  0  0  0  0  0  0  0  0  0  0
  179.6290  178.1710  139.8180 C   0  0  0  0  0  1  0  0  0  0  0  0
  2  7  2  0  0  0  0
  3  9  2  0  0  0  0
  4  1  1  0  0  0  0
  4  6  1  0  0  0  0
  4 12  1  0  0  0  0
  7  4  1  0  0  0  0
  8 16  1  1  0  0  0
  8 14  1  0  0  0  0
  9 12  1  0  0  0  0
 10  5  2  0  0  0  0
 10  8  1  0  0  0  0
 11 15  2  0  0  0  0
 12 24  1  1  0  0  0
 13  5  1  6  0  0  0
 13 14  1  0  0  0  0
 13 11  1  0  0  0  0
 14  2  1  1  0  0  0
 15  7  1  0  0  0  0
 15  3  1  0  0  0  0
 17 16  1  0  0  0  0
 17 18  1  0  0  0  0
 18 19  1  0  0  0  0
 19 20  2  0  0  0  0
 19 22  1  0  0  0  0
 22 21  1  0  0  0  0
 22 23  2  0  0  0  0
 24 25  1  0  0  0  0
 25 27  1  0  0  0  0
 26 27  1  0  0  0  0
 28  5  1  0  0  0  0
 29 40  1  6  0  0  0
 30 29  1  0  0  0  0
 31 30  1  0  0  0  0
 32 29  1  0  0  0  0
 32 28  1  0  0  0  0
 33 32  2  0  0  0  0
 34 36  1  6  0  0  0
 34 33  1  0  0  0  0
 34 31  1  0  0  0  0
 36 35  1  6  0  0  0
 36 38  1  0  0  0  0
 38 37  1  6  0  0  0
 39 38  1  0  0  0  0
 40 41  1  0  0  0  0
M  END
>  <MODEL>
3

>  <REMARK>
 VINA RESULT:      -7.1      2.888      5.660
  Name = 
  13 active torsions:
  status: ('A' for Active; 'I' for Inactive)
    1  A    between atoms: C_1  and  C_5
    2  A    between atoms: C_1  and  C_25
    3  A    between atoms: C_4  and  O_10
    4  A    between atoms: C_5  and  C_40
    5  A    between atoms: C_8  and  O_28
    6  A    between atoms: C_8  and  C_31
    7  A    between atoms: C_13  and  O_28
    8  A    between atoms: C_14  and  C_19
    9  A    between atoms: C_14  and  C_33
   10  A    between atoms: C_18  and  C_23
   11  A    between atoms: C_21  and  C_36
   12  A    between atoms: C_23  and  C_40
   13  A    between atoms: C_36  and  C_39
                            x       y       z     vdW  Elec       q    Type
                         _______ _______ _______ _____ _____    ______ ____

>  <TORSDO>
F 13

$$$$
=
 OpenBabel10222420353D

 41 44  0  0  1  0  0  0  0  0999 V2000
  189.5850  178.8940  145.2610 F   0  0  0  0  0  0  0  0  0  0  0  0
  189.2090  178.8370  142.5330 C   0  0  0  0  0  3  0  0  0  0  0  0
  191.5830  175.9680  143.0190 C   0  0  0  0  0  3  0  0  0  0  0  0
  190.5470  178.1930  144.5430 C   0  0  0  0  0  0  0  0  0  0  0  0
  188.8160  177.1960  139.3120 C   0  0  0  0  0  0  0  0  0  0  0  0
  191.7700  178.8420  144.6480 F   0  0  0  0  0  0  0  0  0  0  0  0
  190.1570  178.0680  143.0870 C   0  0  0  0  0  0  0  0  0  0  0  0
  187.6410  178.5060  140.6290 C   0  0  2  0  0  3  0  0  0  0  0  0
  191.5700  175.9280  144.3170 N   0  0  0  0  0  0  0  0  0  0  0  0
  187.6130  177.6310  139.4990 N   0  0  0  0  0  0  0  0  0  0  0  0
  190.5210  176.7860  141.0370 N   0  0  0  0  0  0  0  0  0  0  0  0
  190.6710  176.7640  145.1190 C   0  0  1  0  0  3  0  0  0  0  0  0
  189.7990  177.7970  140.2550 C   0  0  2  0  0  3  0  0  0  0  0  0
  188.8690  178.5790  141.1240 C   0  0  2  0  0  3  0  0  0  0  0  0
  190.7610  176.9480  142.3070 C   0  0  0  0  0  0  0  0  0  0  0  0
  186.4040  178.9870  141.3200 C   0  0  0  0  0  2  0  0  0  0  0  0
  185.7860  177.8600  142.1430 C   0  0  0  0  0  2  0  0  0  0  0  0
  185.0120  178.4130  143.3400 C   0  0  0  0  0  2  0  0  0  0  0  0
  185.6770  178.0940  144.6440 C   0  0  0  0  0  0  0  0  0  0  0  0
  186.7670  177.3850  144.6520 N   0  0  0  0  0  2  0  0  0  0  0  0
  186.0070  178.7350  147.1220 C   0  0  0  0  0  1  0  0  0  0  0  0
  185.1560  178.6630  145.8990 C   0  0  0  0  0  0  0  0  0  0  0  0
  183.9730  179.0850  145.9580 O   0  0  0  0  0  0  0  0  0  0  0  0
  191.0720  176.7030  146.5970 C   0  0  0  0  0  2  0  0  0  0  0  0
  192.4020  176.2750  146.7280 O   0  0  0  0  0  0  0  0  0  0  0  0
  193.2100  176.5190  148.8690 O   0  0  0  0  0  1  0  0  0  0  0  0
  192.4770  175.6940  148.0050 C   0  0  0  0  0  2  0  0  0  0  0  0
  189.1710  176.2670  138.1990 C   0  0  0  0  0  2  0  0  0  0  0  0
  188.0380  177.3350  136.0720 C   0  0  1  0  0  3  0  0  0  0  0  0
  186.5980  177.9010  135.9980 C   0  0  0  0  0  2  0  0  0  0  0  0
  185.4910  176.8190  136.0450 C   0  0  0  0  0  2  0  0  0  0  0  0
  188.1230  176.2460  137.1220 C   0  0  0  0  0  0  0  0  0  0  0  0
  187.1500  175.3300  137.1850 C   0  0  0  0  0  3  0  0  0  0  0  0
  186.0240  175.3740  136.1720 C   0  0  1  0  0  3  0  0  0  0  0  0
  183.6520  174.9470  136.4440 O   0  0  0  0  0  1  0  0  0  0  0  0
  184.9250  174.3540  136.5240 C   0  0  1  0  0  3  0  0  0  0  0  0
  183.6180  172.8570  134.9340 C   0  0  0  0  0  1  0  0  0  0  0  0
  184.9550  173.1270  135.6030 C   0  0  1  0  0  3  0  0  0  0  0  0
  185.9280  173.3120  134.6150 O   0  0  0  0  0  1  0  0  0  0  0  0
  188.4020  176.8050  134.8300 O   0  0  0  0  0  0  0  0  0  0  0  0
  189.7730  177.0410  134.7210 C   0  0  0  0  0  1  0  0  0  0  0  0
  2  7  2  0  0  0  0
  3  9  2  0  0  0  0
  4  6  1  0  0  0  0
  4 12  1  0  0  0  0
  4  1  1  0  0  0  0
  5 10  2  0  0  0  0
  7  4  1  0  0  0  0
  8 14  1  0  0  0  0
  8 16  1  1  0  0  0
  9 12  1  0  0  0  0
 10  8  1  0  0  0  0
 11 15  2  0  0  0  0
 12 24  1  1  0  0  0
 13  5  1  6  0  0  0
 13 11  1  0  0  0  0
 13 14  1  0  0  0  0
 14  2  1  1  0  0  0
 15  3  1  0  0  0  0
 15  7  1  0  0  0  0
 16 17  1  0  0  0  0
 17 18  1  0  0  0  0
 18 19  1  0  0  0  0
 19 20  2  0  0  0  0
 19 22  1  0  0  0  0
 22 23  2  0  0  0  0
 22 21  1  0  0  0  0
 24 25  1  0  0  0  0
 25 27  1  0  0  0  0
 27 26  1  0  0  0  0
 28  5  1  0  0  0  0
 29 40  1  6  0  0  0
 29 32  1  0  0  0  0
 30 31  1  0  0  0  0
 30 29  1  0  0  0  0
 31 34  1  0  0  0  0
 32 33  2  0  0  0  0
 32 28  1  0  0  0  0
 34 36  1  1  0  0  0
 34 33  1  0  0  0  0
 36 35  1  6  0  0  0
 38 37  1  6  0  0  0
 38 36  1  0  0  0  0
 39 38  1  0  0  0  0
 41 40  1  0  0  0  0
M  END
>  <MODEL>
4

>  <REMARK>
 VINA RESULT:      -7.0      3.202      6.518
  Name = 
  13 active torsions:
  status: ('A' for Active; 'I' for Inactive)
    1  A    between atoms: C_1  and  C_5
    2  A    between atoms: C_1  and  C_25
    3  A    between atoms: C_4  and  O_10
    4  A    between atoms: C_5  and  C_40
    5  A    between atoms: C_8  and  O_28
    6  A    between atoms: C_8  and  C_31
    7  A    between atoms: C_13  and  O_28
    8  A    between atoms: C_14  and  C_19
    9  A    between atoms: C_14  and  C_33
   10  A    between atoms: C_18  and  C_23
   11  A    between atoms: C_21  and  C_36
   12  A    between atoms: C_23  and  C_40
   13  A    between atoms: C_36  and  C_39
                            x       y       z     vdW  Elec       q    Type
                         _______ _______ _______ _____ _____    ______ ____

>  <TORSDO>
F 13

$$$$
=
 OpenBabel10222420353D

 41 44  0  0  1  0  0  0  0  0999 V2000
  187.3970  177.6560  142.1030 F   0  0  0  0  0  0  0  0  0  0  0  0
  187.5340  177.9880  139.3730 C   0  0  0  0  0  3  0  0  0  0  0  0
  191.0780  177.0480  140.1880 C   0  0  0  0  0  3  0  0  0  0  0  0
  188.6770  177.8350  141.5900 C   0  0  0  0  0  0  0  0  0  0  0  0
  188.7150  177.1860  136.0280 C   0  0  0  0  0  0  0  0  0  0  0  0
  189.1980  179.0370  142.0490 F   0  0  0  0  0  0  0  0  0  0  0  0
  188.6630  177.8270  140.0770 C   0  0  0  0  0  0  0  0  0  0  0  0
  186.8070  177.2250  137.1180 C   0  0  2  0  0  3  0  0  0  0  0  0
  190.9070  176.7250  141.4350 N   0  0  0  0  0  0  0  0  0  0  0  0
  187.4920  176.7750  135.9460 N   0  0  0  0  0  0  0  0  0  0  0  0
  190.0350  177.4930  138.0810 N   0  0  0  0  0  0  0  0  0  0  0  0
  189.5790  176.6700  142.0560 C   0  0  1  0  0  3  0  0  0  0  0  0
  188.9630  178.0260  137.2320 C   0  0  2  0  0  3  0  0  0  0  0  0
  187.6350  177.8950  137.9060 C   0  0  2  0  0  3  0  0  0  0  0  0
  189.9370  177.4830  139.3800 C   0  0  0  0  0  0  0  0  0  0  0  0
  185.4570  176.7190  137.5190 C   0  0  0  0  0  2  0  0  0  0  0  0
  184.4180  177.8290  137.3970 C   0  0  0  0  0  2  0  0  0  0  0  0
  183.6650  178.0260  138.7130 C   0  0  0  0  0  2  0  0  0  0  0  0
  184.2080  179.1700  139.5130 C   0  0  0  0  0  0  0  0  0  0  0  0
  184.3390  180.3380  138.9580 N   0  0  0  0  0  2  0  0  0  0  0  0
  183.7250  178.0250  141.7750 C   0  0  0  0  0  1  0  0  0  0  0  0
  184.4960  178.9980  140.9480 C   0  0  0  0  0  0  0  0  0  0  0  0
  185.3930  179.6860  141.4990 O   0  0  0  0  0  0  0  0  0  0  0  0
  189.7140  176.5350  143.5770 C   0  0  0  0  0  2  0  0  0  0  0  0
  188.4500  176.5530  144.1850 O   0  0  0  0  0  0  0  0  0  0  0  0
  187.3190  177.7310  145.8070 O   0  0  0  0  0  1  0  0  0  0  0  0
  188.5810  177.4230  145.2810 C   0  0  0  0  0  2  0  0  0  0  0  0
  189.7270  176.9160  134.9630 C   0  0  0  0  0  2  0  0  0  0  0  0
  190.1100  174.4060  135.6730 C   0  0  1  0  0  3  0  0  0  0  0  0
  190.6970  173.9240  137.0230 C   0  0  0  0  0  2  0  0  0  0  0  0
  192.2120  174.2030  137.1880 C   0  0  0  0  0  2  0  0  0  0  0  0
  190.6440  175.7820  135.3280 C   0  0  0  0  0  0  0  0  0  0  0  0
  191.9460  176.0340  135.5020 C   0  0  0  0  0  3  0  0  0  0  0  0
  192.8580  174.9240  135.9830 C   0  0  1  0  0  3  0  0  0  0  0  0
  194.2010  176.7600  136.8240 O   0  0  0  0  0  1  0  0  0  0  0  0
  194.2680  175.4610  136.2860 C   0  0  1  0  0  3  0  0  0  0  0  0
  196.3790  174.1100  136.7280 C   0  0  0  0  0  1  0  0  0  0  0  0
  195.0330  174.5630  137.2670 C   0  0  1  0  0  3  0  0  0  0  0  0
  195.2330  175.2520  138.4680 O   0  0  0  0  0  1  0  0  0  0  0  0
  190.4590  173.5100  134.6580 O   0  0  0  0  0  0  0  0  0  0  0  0
  189.6730  172.3790  134.8840 C   0  0  0  0  0  1  0  0  0  0  0  0
  2  7  2  0  0  0  0
  3  9  2  0  0  0  0
  4  6  1  0  0  0  0
  4 12  1  0  0  0  0
  4  1  1  0  0  0  0
  7  4  1  0  0  0  0
  8 16  1  1  0  0  0
  8 14  1  0  0  0  0
  9 12  1  0  0  0  0
 10  5  2  0  0  0  0
 10  8  1  0  0  0  0
 11 15  2  0  0  0  0
 12 24  1  1  0  0  0
 13  5  1  6  0  0  0
 13 14  1  0  0  0  0
 13 11  1  0  0  0  0
 14  2  1  1  0  0  0
 15  7  1  0  0  0  0
 15  3  1  0  0  0  0
 17 16  1  0  0  0  0
 17 18  1  0  0  0  0
 18 19  1  0  0  0  0
 19 22  1  0  0  0  0
 20 19  2  0  0  0  0
 22 23  2  0  0  0  0
 22 21  1  0  0  0  0
 24 25  1  0  0  0  0
 25 27  1  0  0  0  0
 27 26  1  0  0  0  0
 28 32  1  0  0  0  0
 28  5  1  0  0  0  0
 29 40  1  6  0  0  0
 29 30  1  0  0  0  0
 30 31  1  0  0  0  0
 32 33  2  0  0  0  0
 32 29  1  0  0  0  0
 33 34  1  0  0  0  0
 34 36  1  1  0  0  0
 34 31  1  0  0  0  0
 36 35  1  1  0  0  0
 36 38  1  0  0  0  0
 38 37  1  6  0  0  0
 38 39  1  0  0  0  0
 40 41  1  0  0  0  0
M  END
>  <MODEL>
5

>  <REMARK>
 VINA RESULT:      -6.9      2.779      8.552
  Name = 
  13 active torsions:
  status: ('A' for Active; 'I' for Inactive)
    1  A    between atoms: C_1  and  C_5
    2  A    between atoms: C_1  and  C_25
    3  A    between atoms: C_4  and  O_10
    4  A    between atoms: C_5  and  C_40
    5  A    between atoms: C_8  and  O_28
    6  A    between atoms: C_8  and  C_31
    7  A    between atoms: C_13  and  O_28
    8  A    between atoms: C_14  and  C_19
    9  A    between atoms: C_14  and  C_33
   10  A    between atoms: C_18  and  C_23
   11  A    between atoms: C_21  and  C_36
   12  A    between atoms: C_23  and  C_40
   13  A    between atoms: C_36  and  C_39
                            x       y       z     vdW  Elec       q    Type
                         _______ _______ _______ _____ _____    ______ ____

>  <TORSDO>
F 13

$$$$
=
 OpenBabel10222420353D

 41 44  0  0  1  0  0  0  0  0999 V2000
  189.7100  177.6850  140.6070 F   0  0  0  0  0  0  0  0  0  0  0  0
  187.1210  178.6080  140.7870 C   0  0  0  0  0  3  0  0  0  0  0  0
  187.2240  177.3660  137.2450 C   0  0  0  0  0  3  0  0  0  0  0  0
  189.0760  177.9200  139.3910 C   0  0  0  0  0  0  0  0  0  0  0  0
  183.5530  178.5190  140.0910 C   0  0  0  0  0  0  0  0  0  0  0  0
  189.7060  178.9690  138.7340 F   0  0  0  0  0  0  0  0  0  0  0  0
  187.6140  178.2490  139.5940 C   0  0  0  0  0  0  0  0  0  0  0  0
  184.8760  178.3940  141.8410 C   0  0  2  0  0  3  0  0  0  0  0  0
  188.3840  176.7820  137.2820 N   0  0  0  0  0  0  0  0  0  0  0  0
  183.5530  178.1870  141.3400 N   0  0  0  0  0  0  0  0  0  0  0  0
  185.4240  178.3090  138.5080 N   0  0  0  0  0  0  0  0  0  0  0  0
  189.1540  176.6450  138.5220 C   0  0  1  0  0  3  0  0  0  0  0  0
  184.8640  179.0610  139.6380 C   0  0  2  0  0  3  0  0  0  0  0  0
  185.6700  178.8380  140.8760 C   0  0  2  0  0  3  0  0  0  0  0  0
  186.6910  178.0150  138.4440 C   0  0  0  0  0  0  0  0  0  0  0  0
  185.3410  177.8670  143.1630 C   0  0  0  0  0  2  0  0  0  0  0  0
  184.4480  178.3910  144.2840 C   0  0  0  0  0  2  0  0  0  0  0  0
  185.2390  179.2780  145.2480 C   0  0  0  0  0  2  0  0  0  0  0  0
  185.5710  178.5720  146.5270 C   0  0  0  0  0  0  0  0  0  0  0  0
  184.6180  178.2560  147.3520 N   0  0  0  0  0  2  0  0  0  0  0  0
  187.8490  177.6860  145.6970 C   0  0  0  0  0  1  0  0  0  0  0  0
  186.9550  178.1480  146.7990 C   0  0  0  0  0  0  0  0  0  0  0  0
  187.3990  178.1570  147.9760 O   0  0  0  0  0  0  0  0  0  0  0  0
  190.5780  176.1710  138.2090 C   0  0  0  0  0  2  0  0  0  0  0  0
  190.7450  175.9970  136.8270 O   0  0  0  0  0  0  0  0  0  0  0  0
  190.6420  173.7260  137.1800 O   0  0  0  0  0  1  0  0  0  0  0  0
  191.4290  174.7780  136.6890 C   0  0  0  0  0  2  0  0  0  0  0  0
  182.3270  178.4500  139.2410 C   0  0  0  0  0  2  0  0  0  0  0  0
  180.3460  179.5080  140.6220 C   0  0  1  0  0  3  0  0  0  0  0  0
  178.9430  179.8640  140.0710 C   0  0  0  0  0  2  0  0  0  0  0  0
  178.9310  181.0830  139.1170 C   0  0  0  0  0  2  0  0  0  0  0  0
  181.3820  179.5850  139.5180 C   0  0  0  0  0  0  0  0  0  0  0  0
  181.3510  180.6220  138.6740 C   0  0  0  0  0  3  0  0  0  0  0  0
  180.3210  181.7140  138.8770 C   0  0  1  0  0  3  0  0  0  0  0  0
  181.4360  183.5870  137.8130 O   0  0  0  0  0  1  0  0  0  0  0  0
  180.3380  182.7130  137.7060 C   0  0  1  0  0  3  0  0  0  0  0  0
  179.0260  181.7520  135.7480 C   0  0  0  0  0  1  0  0  0  0  0  0
  180.4000  182.0100  136.3430 C   0  0  1  0  0  3  0  0  0  0  0  0
  181.1430  182.7900  135.4520 O   0  0  0  0  0  1  0  0  0  0  0  0
  180.6930  180.4000  141.6410 O   0  0  0  0  0  0  0  0  0  0  0  0
  180.2250  179.8110  142.8170 C   0  0  0  0  0  1  0  0  0  0  0  0
  3  9  2  0  0  0  0
  3 15  1  0  0  0  0
  4  7  1  0  0  0  0
  4  1  1  0  0  0  0
  5 10  2  0  0  0  0
  6  4  1  0  0  0  0
  7  2  2  0  0  0  0
  8 16  1  6  0  0  0
  9 12  1  0  0  0  0
 10  8  1  0  0  0  0
 12 24  1  6  0  0  0
 12  4  1  0  0  0  0
 13 11  1  6  0  0  0
 13  5  1  0  0  0  0
 13 14  1  0  0  0  0
 14  2  1  6  0  0  0
 14  8  1  0  0  0  0
 15 11  2  0  0  0  0
 15  7  1  0  0  0  0
 16 17  1  0  0  0  0
 17 18  1  0  0  0  0
 18 19  1  0  0  0  0
 19 22  1  0  0  0  0
 19 20  2  0  0  0  0
 21 22  1  0  0  0  0
 22 23  2  0  0  0  0
 25 24  1  0  0  0  0
 27 25  1  0  0  0  0
 27 26  1  0  0  0  0
 28 32  1  0  0  0  0
 28  5  1  0  0  0  0
 29 40  1  1  0  0  0
 30 29  1  0  0  0  0
 31 30  1  0  0  0  0
 32 29  1  0  0  0  0
 33 34  1  0  0  0  0
 33 32  2  0  0  0  0
 34 36  1  6  0  0  0
 34 31  1  0  0  0  0
 36 35  1  1  0  0  0
 38 37  1  6  0  0  0
 38 36  1  0  0  0  0
 39 38  1  0  0  0  0
 40 41  1  0  0  0  0
M  END
>  <MODEL>
6

>  <REMARK>
 VINA RESULT:      -6.7      2.782      4.214
  Name = 
  13 active torsions:
  status: ('A' for Active; 'I' for Inactive)
    1  A    between atoms: C_1  and  C_5
    2  A    between atoms: C_1  and  C_25
    3  A    between atoms: C_4  and  O_10
    4  A    between atoms: C_5  and  C_40
    5  A    between atoms: C_8  and  O_28
    6  A    between atoms: C_8  and  C_31
    7  A    between atoms: C_13  and  O_28
    8  A    between atoms: C_14  and  C_19
    9  A    between atoms: C_14  and  C_33
   10  A    between atoms: C_18  and  C_23
   11  A    between atoms: C_21  and  C_36
   12  A    between atoms: C_23  and  C_40
   13  A    between atoms: C_36  and  C_39
                            x       y       z     vdW  Elec       q    Type
                         _______ _______ _______ _____ _____    ______ ____

>  <TORSDO>
F 13

$$$$
=
 OpenBabel10222420353D

 41 44  0  0  1  0  0  0  0  0999 V2000
  180.6500  178.7730  141.6300 F   0  0  0  0  0  0  0  0  0  0  0  0
  183.3080  178.1160  141.9280 C   0  0  0  0  0  3  0  0  0  0  0  0
  183.3870  180.1190  138.7520 C   0  0  0  0  0  3  0  0  0  0  0  0
  181.4240  178.8920  140.4810 C   0  0  0  0  0  0  0  0  0  0  0  0
  186.8840  178.7440  141.7170 C   0  0  0  0  0  0  0  0  0  0  0  0
  181.0050  177.9610  139.5400 F   0  0  0  0  0  0  0  0  0  0  0  0
  182.8910  178.6840  140.7880 C   0  0  0  0  0  0  0  0  0  0  0  0
  185.3920  178.3220  143.2740 C   0  0  2  0  0  3  0  0  0  0  0  0
  182.1620  180.5510  138.7700 N   0  0  0  0  0  0  0  0  0  0  0  0
  186.7180  178.7780  142.9990 N   0  0  0  0  0  0  0  0  0  0  0  0
  185.1640  179.1090  139.9960 N   0  0  0  0  0  0  0  0  0  0  0  0
  181.2630  180.3160  139.9050 C   0  0  1  0  0  3  0  0  0  0  0  0
  185.7060  178.1830  140.9980 C   0  0  2  0  0  3  0  0  0  0  0  0
  184.7620  178.0280  142.1450 C   0  0  2  0  0  3  0  0  0  0  0  0
  183.8820  179.2730  139.8400 C   0  0  0  0  0  0  0  0  0  0  0  0
  184.7350  178.4790  144.6100 C   0  0  0  0  0  2  0  0  0  0  0  0
  185.7720  178.8390  145.6700 C   0  0  0  0  0  2  0  0  0  0  0  0
  186.3790  177.5820  146.2960 C   0  0  0  0  0  2  0  0  0  0  0  0
  187.6080  177.8830  147.0980 C   0  0  0  0  0  0  0  0  0  0  0  0
  187.4890  178.3670  148.2980 N   0  0  0  0  0  2  0  0  0  0  0  0
  189.3480  177.9410  145.1920 C   0  0  0  0  0  1  0  0  0  0  0  0
  188.9390  177.5380  146.5690 C   0  0  0  0  0  0  0  0  0  0  0  0
  189.7470  176.8800  147.2740 O   0  0  0  0  0  0  0  0  0  0  0  0
  179.8270  180.6940  139.5260 C   0  0  0  0  0  2  0  0  0  0  0  0
  179.5330  181.9980  139.9520 O   0  0  0  0  0  0  0  0  0  0  0  0
  180.0000  183.1730  138.0300 O   0  0  0  0  0  1  0  0  0  0  0  0
  178.9820  182.6370  138.8290 C   0  0  0  0  0  2  0  0  0  0  0  0
  188.1660  179.1360  141.0610 C   0  0  0  0  0  2  0  0  0  0  0  0
  190.0590  177.3380  141.4310 C   0  0  1  0  0  3  0  0  0  0  0  0
  191.3530  177.1960  140.5920 C   0  0  0  0  0  2  0  0  0  0  0  0
  191.1210  176.6590  139.1580 C   0  0  0  0  0  2  0  0  0  0  0  0
  188.9510  177.9430  140.5920 C   0  0  0  0  0  0  0  0  0  0  0  0
  188.7710  177.5020  139.3420 C   0  0  0  0  0  3  0  0  0  0  0  0
  189.6390  176.3760  138.8200 C   0  0  1  0  0  3  0  0  0  0  0  0
  188.3860  175.1820  137.1210 O   0  0  0  0  0  1  0  0  0  0  0  0
  189.3960  176.1420  137.3180 C   0  0  1  0  0  3  0  0  0  0  0  0
  189.4050  177.4290  135.1230 C   0  0  0  0  0  1  0  0  0  0  0  0
  188.9990  177.4310  136.5860 C   0  0  1  0  0  3  0  0  0  0  0  0
  187.6140  177.6050  136.6740 O   0  0  0  0  0  1  0  0  0  0  0  0
  189.6530  176.0800  141.8890 O   0  0  0  0  0  0  0  0  0  0  0  0
  190.5710  175.7430  142.8850 C   0  0  0  0  0  1  0  0  0  0  0  0
  3  9  2  0  0  0  0
  3 15  1  0  0  0  0
  4  7  1  0  0  0  0
  4  1  1  0  0  0  0
  5 10  2  0  0  0  0
  6  4  1  0  0  0  0
  7  2  2  0  0  0  0
  8 16  1  6  0  0  0
  9 12  1  0  0  0  0
 10  8  1  0  0  0  0
 12 24  1  6  0  0  0
 12  4  1  0  0  0  0
 13 11  1  6  0  0  0
 13  5  1  0  0  0  0
 13 14  1  0  0  0  0
 14  2  1  6  0  0  0
 14  8  1  0  0  0  0
 15 11  2  0  0  0  0
 15  7  1  0  0  0  0
 16 17  1  0  0  0  0
 17 18  1  0  0  0  0
 18 19  1  0  0  0  0
 19 20  2  0  0  0  0
 21 22  1  0  0  0  0
 22 19  1  0  0  0  0
 22 23  2  0  0  0  0
 24 25  1  0  0  0  0
 26 27  1  0  0  0  0
 27 25  1  0  0  0  0
 28  5  1  0  0  0  0
 29 40  1  6  0  0  0
 30 29  1  0  0  0  0
 31 30  1  0  0  0  0
 32 28  1  0  0  0  0
 32 29  1  0  0  0  0
 33 32  2  0  0  0  0
 34 36  1  6  0  0  0
 34 31  1  0  0  0  0
 34 33  1  0  0  0  0
 36 35  1  1  0  0  0
 38 37  1  6  0  0  0
 38 39  1  0  0  0  0
 38 36  1  0  0  0  0
 40 41  1  0  0  0  0
M  END
>  <MODEL>
7

>  <REMARK>
 VINA RESULT:      -6.6      3.218      7.140
  Name = 
  13 active torsions:
  status: ('A' for Active; 'I' for Inactive)
    1  A    between atoms: C_1  and  C_5
    2  A    between atoms: C_1  and  C_25
    3  A    between atoms: C_4  and  O_10
    4  A    between atoms: C_5  and  C_40
    5  A    between atoms: C_8  and  O_28
    6  A    between atoms: C_8  and  C_31
    7  A    between atoms: C_13  and  O_28
    8  A    between atoms: C_14  and  C_19
    9  A    between atoms: C_14  and  C_33
   10  A    between atoms: C_18  and  C_23
   11  A    between atoms: C_21  and  C_36
   12  A    between atoms: C_23  and  C_40
   13  A    between atoms: C_36  and  C_39
                            x       y       z     vdW  Elec       q    Type
                         _______ _______ _______ _____ _____    ______ ____

>  <TORSDO>
F 13

$$$$
=
 OpenBabel10222420353D

 41 44  0  0  1  0  0  0  0  0999 V2000
  192.0710  176.3600  142.6560 F   0  0  0  0  0  0  0  0  0  0  0  0
  190.9090  176.2020  140.1640 C   0  0  0  0  0  3  0  0  0  0  0  0
  188.4860  178.4260  141.9770 C   0  0  0  0  0  3  0  0  0  0  0  0
  190.7270  176.7150  142.6030 C   0  0  0  0  0  0  0  0  0  0  0  0
  189.0710  177.5160  137.3140 C   0  0  0  0  0  0  0  0  0  0  0  0
  189.9760  175.7980  143.3260 F   0  0  0  0  0  0  0  0  0  0  0  0
  190.2340  176.7680  141.1750 C   0  0  0  0  0  0  0  0  0  0  0  0
  191.0680  176.6960  137.7300 C   0  0  2  0  0  3  0  0  0  0  0  0
  189.1750  178.6140  143.0620 N   0  0  0  0  0  0  0  0  0  0  0  0
  190.2540  177.4180  136.8020 N   0  0  0  0  0  0  0  0  0  0  0  0
  188.5070  177.6810  139.7040 N   0  0  0  0  0  0  0  0  0  0  0  0
  190.5490  178.1240  143.2130 C   0  0  1  0  0  3  0  0  0  0  0  0
  188.9440  176.7990  138.6130 C   0  0  2  0  0  3  0  0  0  0  0  0
  190.3640  176.3770  138.8070 C   0  0  2  0  0  3  0  0  0  0  0  0
  189.0330  177.6080  140.8930 C   0  0  0  0  0  0  0  0  0  0  0  0
  192.5580  176.6190  137.6210 C   0  0  0  0  0  2  0  0  0  0  0  0
  192.9580  175.6550  136.5090 C   0  0  0  0  0  2  0  0  0  0  0  0
  193.1340  174.2350  137.0480 C   0  0  0  0  0  2  0  0  0  0  0  0
  194.5710  173.8130  137.0810 C   0  0  0  0  0  0  0  0  0  0  0  0
  195.2760  173.8490  135.9900 N   0  0  0  0  0  2  0  0  0  0  0  0
  195.7880  174.5050  139.2490 C   0  0  0  0  0  1  0  0  0  0  0  0
  195.2080  173.4560  138.3610 C   0  0  0  0  0  0  0  0  0  0  0  0
  195.2830  172.2510  138.7150 O   0  0  0  0  0  0  0  0  0  0  0  0
  190.9950  178.2480  144.6740 C   0  0  0  0  0  2  0  0  0  0  0  0
  189.9630  177.8540  145.5390 O   0  0  0  0  0  0  0  0  0  0  0  0
  191.7060  176.4400  146.0460 O   0  0  0  0  0  1  0  0  0  0  0  0
  190.5960  177.1250  146.5600 C   0  0  0  0  0  2  0  0  0  0  0  0
  187.9440  178.1970  136.6110 C   0  0  0  0  0  2  0  0  0  0  0  0
  186.2570  176.3130  135.8650 C   0  0  1  0  0  3  0  0  0  0  0  0
  184.8380  176.5420  135.2870 C   0  0  0  0  0  2  0  0  0  0  0  0
  183.8090  177.0560  136.3240 C   0  0  0  0  0  2  0  0  0  0  0  0
  186.6450  177.4600  136.7780 C   0  0  0  0  0  0  0  0  0  0  0  0
  185.7450  177.9250  137.6500 C   0  0  0  0  0  3  0  0  0  0  0  0
  184.3870  177.2600  137.7420 C   0  0  1  0  0  3  0  0  0  0  0  0
  183.4460  177.5000  139.9640 O   0  0  0  0  0  1  0  0  0  0  0  0
  183.4460  178.0510  138.6700 C   0  0  1  0  0  3  0  0  0  0  0  0
  182.6370  180.4630  138.7200 C   0  0  0  0  0  1  0  0  0  0  0  0
  183.8360  179.5320  138.7660 C   0  0  1  0  0  3  0  0  0  0  0  0
  184.5370  179.7510  139.9560 O   0  0  0  0  0  1  0  0  0  0  0  0
  186.2840  175.1190  136.5920 O   0  0  0  0  0  0  0  0  0  0  0  0
  187.2980  174.3590  136.0070 C   0  0  0  0  0  1  0  0  0  0  0  0
  2  7  2  0  0  0  0
  3  9  2  0  0  0  0
  4  1  1  0  0  0  0
  4 12  1  0  0  0  0
  4  6  1  0  0  0  0
  7  4  1  0  0  0  0
  8 16  1  1  0  0  0
  8 14  1  0  0  0  0
  9 12  1  0  0  0  0
 10  5  2  0  0  0  0
 10  8  1  0  0  0  0
 11 15  2  0  0  0  0
 12 24  1  1  0  0  0
 13  5  1  6  0  0  0
 13 14  1  0  0  0  0
 13 11  1  0  0  0  0
 14  2  1  1  0  0  0
 15  7  1  0  0  0  0
 15  3  1  0  0  0  0
 17 18  1  0  0  0  0
 17 16  1  0  0  0  0
 18 19  1  0  0  0  0
 19 22  1  0  0  0  0
 20 19  2  0  0  0  0
 22 23  2  0  0  0  0
 22 21  1  0  0  0  0
 24 25  1  0  0  0  0
 25 27  1  0  0  0  0
 26 27  1  0  0  0  0
 28 32  1  0  0  0  0
 28  5  1  0  0  0  0
 29 40  1  1  0  0  0
 29 32  1  0  0  0  0
 30 29  1  0  0  0  0
 30 31  1  0  0  0  0
 31 34  1  0  0  0  0
 32 33  2  0  0  0  0
 33 34  1  0  0  0  0
 34 36  1  1  0  0  0
 36 38  1  0  0  0  0
 36 35  1  1  0  0  0
 38 37  1  1  0  0  0
 38 39  1  0  0  0  0
 41 40  1  0  0  0  0
M  END
>  <MODEL>
8

>  <REMARK>
 VINA RESULT:      -6.5      2.915      6.581
  Name = 
  13 active torsions:
  status: ('A' for Active; 'I' for Inactive)
    1  A    between atoms: C_1  and  C_5
    2  A    between atoms: C_1  and  C_25
    3  A    between atoms: C_4  and  O_10
    4  A    between atoms: C_5  and  C_40
    5  A    between atoms: C_8  and  O_28
    6  A    between atoms: C_8  and  C_31
    7  A    between atoms: C_13  and  O_28
    8  A    between atoms: C_14  and  C_19
    9  A    between atoms: C_14  and  C_33
   10  A    between atoms: C_18  and  C_23
   11  A    between atoms: C_21  and  C_36
   12  A    between atoms: C_23  and  C_40
   13  A    between atoms: C_36  and  C_39
                            x       y       z     vdW  Elec       q    Type
                         _______ _______ _______ _____ _____    ______ ____

>  <TORSDO>
F 13

$$$$
=
 OpenBabel10222420353D

 41 44  0  0  1  0  0  0  0  0999 V2000
  189.6980  177.4130  140.4920 F   0  0  0  0  0  0  0  0  0  0  0  0
  187.2700  178.4940  141.2150 C   0  0  0  0  0  3  0  0  0  0  0  0
  186.7000  177.7450  137.5790 C   0  0  0  0  0  3  0  0  0  0  0  0
  188.9090  177.8600  139.4380 C   0  0  0  0  0  0  0  0  0  0  0  0
  183.6450  178.7700  141.1190 C   0  0  0  0  0  0  0  0  0  0  0  0
  189.5270  178.9380  138.8180 F   0  0  0  0  0  0  0  0  0  0  0  0
  187.5340  178.2660  139.9200 C   0  0  0  0  0  0  0  0  0  0  0  0
  185.2070  178.3070  142.5940 C   0  0  2  0  0  3  0  0  0  0  0  0
  187.7900  177.0760  137.3490 N   0  0  0  0  0  0  0  0  0  0  0  0
  183.8090  178.2700  142.3000 N   0  0  0  0  0  0  0  0  0  0  0  0
  185.2180  178.6380  139.2310 N   0  0  0  0  0  0  0  0  0  0  0  0
  188.7270  176.7130  138.4170 C   0  0  1  0  0  3  0  0  0  0  0  0
  184.9160  179.2680  140.5230 C   0  0  2  0  0  3  0  0  0  0  0  0
  185.8790  178.8190  141.5730 C   0  0  2  0  0  3  0  0  0  0  0  0
  186.4250  178.2620  138.9210 C   0  0  0  0  0  0  0  0  0  0  0  0
  185.8190  177.5710  143.7450 C   0  0  0  0  0  2  0  0  0  0  0  0
  186.0370  178.5170  144.9220 C   0  0  0  0  0  2  0  0  0  0  0  0
  186.5440  177.7600  146.1500 C   0  0  0  0  0  2  0  0  0  0  0  0
  188.0370  177.6360  146.1650 C   0  0  0  0  0  0  0  0  0  0  0  0
  188.7120  177.8670  145.0780 N   0  0  0  0  0  2  0  0  0  0  0  0
  188.3210  178.0010  148.7050 C   0  0  0  0  0  1  0  0  0  0  0  0
  188.7430  177.3550  147.4270 C   0  0  0  0  0  0  0  0  0  0  0  0
  189.7270  176.5710  147.4400 O   0  0  0  0  0  0  0  0  0  0  0  0
  190.0320  176.1810  137.8150 C   0  0  0  0  0  2  0  0  0  0  0  0
  190.9870  175.9700  138.8200 O   0  0  0  0  0  0  0  0  0  0  0  0
  192.9850  177.1020  138.9800 O   0  0  0  0  0  1  0  0  0  0  0  0
  192.2280  176.2120  138.2060 C   0  0  0  0  0  2  0  0  0  0  0  0
  182.3020  178.9100  140.4840 C   0  0  0  0  0  2  0  0  0  0  0  0
  182.0870  176.4020  139.7020 C   0  0  1  0  0  3  0  0  0  0  0  0
  183.0470  175.6670  138.7340 C   0  0  0  0  0  2  0  0  0  0  0  0
  182.9410  176.1360  137.2620 C   0  0  0  0  0  2  0  0  0  0  0  0
  182.0750  177.8880  139.4050 C   0  0  0  0  0  0  0  0  0  0  0  0
  182.0170  178.2940  138.1320 C   0  0  0  0  0  3  0  0  0  0  0  0
  181.9070  177.2620  137.0290 C   0  0  1  0  0  3  0  0  0  0  0  0
  183.0300  177.2840  134.8800 O   0  0  0  0  0  1  0  0  0  0  0  0
  182.0330  177.9200  135.6430 C   0  0  1  0  0  3  0  0  0  0  0  0
  180.0300  176.5260  134.9220 C   0  0  0  0  0  1  0  0  0  0  0  0
  180.7140  177.8800  134.8600 C   0  0  1  0  0  3  0  0  0  0  0  0
  179.8450  178.8520  135.3660 O   0  0  0  0  0  1  0  0  0  0  0  0
  180.7920  175.8940  139.5570 O   0  0  0  0  0  0  0  0  0  0  0  0
  180.0640  176.4470  140.6130 C   0  0  0  0  0  1  0  0  0  0  0  0
  3 15  1  0  0  0  0
  4  7  1  0  0  0  0
  4  1  1  0  0  0  0
  5 10  2  0  0  0  0
  6  4  1  0  0  0  0
  7  2  2  0  0  0  0
  8 16  1  6  0  0  0
  9  3  2  0  0  0  0
  9 12  1  0  0  0  0
 10  8  1  0  0  0  0
 12 24  1  6  0  0  0
 12  4  1  0  0  0  0
 13 11  1  6  0  0  0
 13  5  1  0  0  0  0
 13 14  1  0  0  0  0
 14  2  1  6  0  0  0
 14  8  1  0  0  0  0
 15 11  2  0  0  0  0
 15  7  1  0  0  0  0
 16 17  1  0  0  0  0
 17 18  1  0  0  0  0
 18 19  1  0  0  0  0
 19 22  1  0  0  0  0
 20 19  2  0  0  0  0
 22 23  2  0  0  0  0
 22 21  1  0  0  0  0
 24 25  1  0  0  0  0
 27 25  1  0  0  0  0
 27 26  1  0  0  0  0
 28  5  1  0  0  0  0
 29 40  1  6  0  0  0
 30 29  1  0  0  0  0
 31 30  1  0  0  0  0
 32 29  1  0  0  0  0
 32 28  1  0  0  0  0
 33 32  2  0  0  0  0
 34 36  1  6  0  0  0
 34 31  1  0  0  0  0
 34 33  1  0  0  0  0
 36 35  1  6  0  0  0
 38 37  1  1  0  0  0
 38 39  1  0  0  0  0
 38 36  1  0  0  0  0
 40 41  1  0  0  0  0
M  END
>  <MODEL>
9

>  <REMARK>
 VINA RESULT:      -6.5      2.120      3.147
  Name = 
  13 active torsions:
  status: ('A' for Active; 'I' for Inactive)
    1  A    between atoms: C_1  and  C_5
    2  A    between atoms: C_1  and  C_25
    3  A    between atoms: C_4  and  O_10
    4  A    between atoms: C_5  and  C_40
    5  A    between atoms: C_8  and  O_28
    6  A    between atoms: C_8  and  C_31
    7  A    between atoms: C_13  and  O_28
    8  A    between atoms: C_14  and  C_19
    9  A    between atoms: C_14  and  C_33
   10  A    between atoms: C_18  and  C_23
   11  A    between atoms: C_21  and  C_36
   12  A    between atoms: C_23  and  C_40
   13  A    between atoms: C_36  and  C_39
                            x       y       z     vdW  Elec       q    Type
                         _______ _______ _______ _____ _____    ______ ____

>  <TORSDO>
F 13

$$$$
