=
 OpenBabel10222421023D

 38 42  0  0  1  0  0  0  0  0999 V2000
  189.8410  175.9050  135.9950 C   0  0  0  0  0  3  0  0  0  0  0  0
  191.2250  175.1300  137.9160 C   0  0  2  0  0  3  0  0  0  0  0  0
  190.6310  177.3740  141.9440 C   0  0  0  0  0  2  0  0  0  0  0  0
  190.5070  176.9530  140.5090 C   0  0  0  0  0  0  0  0  0  0  0  0
  189.2600  177.7040  142.5560 C   0  0  2  0  0  3  0  0  0  0  0  0
  185.2020  177.3900  136.4080 C   0  0  0  0  0  0  0  0  0  0  0  0
  186.1920  176.8270  135.6590 N   0  0  0  0  0  0  0  0  0  0  0  0
  191.6250  176.7910  139.7870 C   0  0  0  0  0  3  0  0  0  0  0  0
  193.5800  175.7350  137.1550 C   0  0  0  0  0  0  0  0  0  0  0  0
  187.7790  177.2680  137.3720 C   0  0  0  0  0  3  0  0  0  0  0  0
  183.8170  177.4560  135.8750 C   0  0  0  0  0  1  0  0  0  0  0  0
  188.4030  178.1920  140.1490 C   0  0  2  0  0  3  0  0  0  0  0  0
  191.6680  176.5480  138.3040 C   0  0  1  0  0  3  0  0  0  0  0  0
  186.7850  177.8110  138.1800 C   0  0  0  0  0  0  0  0  0  0  0  0
  187.0700  178.2040  139.5310 N   0  0  0  0  0  2  0  0  0  0  0  0
  192.5450  174.2950  136.9680 S   0  0  0  0  0  0  0  0  0  0  0  0
  189.1380  176.8700  139.9040 C   0  0  0  0  0  2  0  0  0  0  0  0
  188.3460  178.5680  141.6550 C   0  0  1  0  0  3  0  0  0  0  0  0
  187.0380  178.5200  142.1460 O   0  0  0  0  0  1  0  0  0  0  0  0
  189.9560  175.1820  137.1180 C   0  0  0  0  0  3  0  0  0  0  0  0
  188.5180  176.0360  135.2870 C   0  0  0  0  0  2  0  0  0  0  0  0
  185.4780  177.8730  137.6920 C   0  0  0  0  0  3  0  0  0  0  0  0
  187.4730  176.7490  136.1110 C   0  0  0  0  0  0  0  0  0  0  0  0
  193.0560  176.7460  137.8160 C   0  0  0  0  0  3  0  0  0  0  0  0
  194.9100  175.8040  136.6430 N   0  0  0  0  0  2  0  0  0  0  0  0
  195.7240  174.6170  136.4370 C   0  0  0  0  0  2  0  0  0  0  0  0
  196.7420  174.4810  137.5550 C   0  0  0  0  0  2  0  0  0  0  0  0
  195.4610  173.0910  139.0070 O   0  0  0  0  0  0  0  0  0  0  0  0
  196.1280  175.0980  139.8930 O   0  0  0  0  0  1  0  0  0  0  0  0
  196.0650  174.1840  138.8500 C   0  0  0  0  0  0  0  0  0  0  0  0
  189.3870  178.2540  143.9080 N   0  0  0  0  0  2  0  0  0  0  0  0
  190.4670  176.8740  145.5220 N   0  0  0  0  0  0  0  0  0  0  0  0
  188.3190  177.7410  146.0420 C   0  0  0  0  0  3  0  0  0  0  0  0
  189.1950  177.2080  144.9110 C   0  0  1  0  0  3  0  0  0  0  0  0
  190.4550  177.1040  146.7860 C   0  0  0  0  0  0  0  0  0  0  0  0
  189.1730  177.6450  147.2980 C   0  0  0  0  0  3  0  0  0  0  0  0
  192.3860  175.7040  147.3860 C   0  0  0  0  0  1  0  0  0  0  0  0
  191.5750  176.8530  147.5780 O   0  0  0  0  0  0  0  0  0  0  0  0
  1 20  2  0  0  0  0
  2 20  1  6  0  0  0
  2 13  1  0  0  0  0
  3  5  1  0  0  0  0
  4  3  1  0  0  0  0
  5 31  1  1  0  0  0
  6 22  1  0  0  0  0
  7 23  1  0  0  0  0
  7  6  2  0  0  0  0
  8  4  2  0  0  0  0
  9 24  2  0  0  0  0
 10 14  1  0  0  0  0
 11  6  1  0  0  0  0
 12 17  1  1  0  0  0
 12 18  1  0  0  0  0
 13 24  1  1  0  0  0
 13  8  1  0  0  0  0
 14 15  1  0  0  0  0
 15 12  1  0  0  0  0
 16  9  1  0  0  0  0
 16  2  1  0  0  0  0
 17  4  1  0  0  0  0
 18 19  1  1  0  0  0
 18  5  1  0  0  0  0
 21  1  1  0  0  0  0
 21 23  1  0  0  0  0
 22 14  2  0  0  0  0
 23 10  2  0  0  0  0
 25  9  1  0  0  0  0
 26 25  1  0  0  0  0
 26 27  1  0  0  0  0
 27 30  1  0  0  0  0
 30 28  2  0  0  0  0
 30 29  1  0  0  0  0
 32 35  2  0  0  0  0
 33 36  2  0  0  0  0
 34 31  1  6  0  0  0
 34 32  1  0  0  0  0
 34 33  1  0  0  0  0
 35 36  1  0  0  0  0
 35 38  1  0  0  0  0
 37 38  1  0  0  0  0
M  END
>  <MODEL>
1

>  <REMARK>
 VINA RESULT:      -9.1      0.000      0.000
  Name = 
  7 active torsions:
  status: ('A' for Active; 'I' for Inactive)
    1  A    between atoms: N_5  and  C_12
    2  A    between atoms: N_5  and  C_24
    3  A    between atoms: C_7  and  N_16
    4  A    between atoms: N_16  and  C_25
    5  A    between atoms: C_24  and  C_30
    6  A    between atoms: C_26  and  O_29
    7  A    between atoms: C_30  and  C_38
                            x       y       z     vdW  Elec       q    Type
                         _______ _______ _______ _____ _____    ______ ____

>  <TORSDO>
F 7

$$$$
=
 OpenBabel10222421023D

 38 42  0  0  1  0  0  0  0  0999 V2000
  191.5090  176.7140  142.8040 C   0  0  0  0  0  3  0  0  0  0  0  0
  190.9940  177.8610  140.6530 C   0  0  2  0  0  3  0  0  0  0  0  0
  186.5010  178.5920  139.7110 C   0  0  0  0  0  2  0  0  0  0  0  0
  187.7690  178.1650  140.3900 C   0  0  0  0  0  0  0  0  0  0  0  0
  185.4890  179.1690  140.7150 C   0  0  2  0  0  3  0  0  0  0  0  0
  189.0380  177.4770  146.9530 C   0  0  0  0  0  0  0  0  0  0  0  0
  190.1980  177.1370  146.3230 N   0  0  0  0  0  0  0  0  0  0  0  0
  188.6850  177.4920  139.6790 C   0  0  0  0  0  3  0  0  0  0  0  0
  191.7670  176.1450  138.9370 C   0  0  0  0  0  0  0  0  0  0  0  0
  189.1000  177.1790  144.2160 C   0  0  0  0  0  3  0  0  0  0  0  0
  189.0140  177.6280  148.4300 C   0  0  0  0  0  1  0  0  0  0  0  0
  186.6760  177.7830  142.5690 C   0  0  2  0  0  3  0  0  0  0  0  0
  189.9170  176.8450  140.2490 C   0  0  1  0  0  3  0  0  0  0  0  0
  187.9100  177.5670  144.8210 C   0  0  0  0  0  0  0  0  0  0  0  0
  186.7620  177.9100  144.0310 N   0  0  0  0  0  2  0  0  0  0  0  0
  192.5590  177.5000  139.7820 S   0  0  0  0  0  0  0  0  0  0  0  0
  187.8980  178.3840  141.8670 C   0  0  0  0  0  2  0  0  0  0  0  0
  185.3380  178.3470  142.0170 C   0  0  1  0  0  3  0  0  0  0  0  0
  184.6740  179.1200  142.9740 O   0  0  0  0  0  1  0  0  0  0  0  0
  191.2000  177.8360  142.1400 C   0  0  0  0  0  3  0  0  0  0  0  0
  191.5840  176.6990  144.3090 C   0  0  0  0  0  2  0  0  0  0  0  0
  187.8770  177.7180  146.2090 C   0  0  0  0  0  3  0  0  0  0  0  0
  190.2590  176.9860  144.9720 C   0  0  0  0  0  0  0  0  0  0  0  0
  190.5020  175.9320  139.2360 C   0  0  0  0  0  3  0  0  0  0  0  0
  192.4370  175.3370  137.9710 N   0  0  0  0  0  2  0  0  0  0  0  0
  193.7770  175.6460  137.4960 C   0  0  0  0  0  2  0  0  0  0  0  0
  194.6030  174.3760  137.4000 C   0  0  0  0  0  2  0  0  0  0  0  0
  195.4520  172.8990  139.0670 O   0  0  0  0  0  0  0  0  0  0  0  0
  195.7490  175.1330  139.4820 O   0  0  0  0  0  1  0  0  0  0  0  0
  195.2800  174.0890  138.6970 C   0  0  0  0  0  0  0  0  0  0  0  0
  184.1970  179.4510  140.0840 N   0  0  0  0  0  2  0  0  0  0  0  0
  182.3070  178.0480  140.4480 N   0  0  0  0  0  0  0  0  0  0  0  0
  183.1070  178.3020  138.2270 C   0  0  0  0  0  3  0  0  0  0  0  0
  183.5330  178.2100  139.6910 C   0  0  1  0  0  3  0  0  0  0  0  0
  181.2800  178.0130  139.6770 C   0  0  0  0  0  0  0  0  0  0  0  0
  181.5930  178.1470  138.2340 C   0  0  0  0  0  3  0  0  0  0  0  0
  179.7350  177.9000  141.5870 C   0  0  0  0  0  1  0  0  0  0  0  0
  179.9920  177.8610  140.1910 O   0  0  0  0  0  0  0  0  0  0  0  0
  1 21  1  0  0  0  0
  2 20  1  1  0  0  0
  3  4  1  0  0  0  0
  3  5  1  0  0  0  0
  4 17  1  0  0  0  0
  5 31  1  6  0  0  0
  5 18  1  0  0  0  0
  6 11  1  0  0  0  0
  7  6  1  0  0  0  0
  8 13  1  0  0  0  0
  8  4  2  0  0  0  0
  9 24  2  0  0  0  0
  9 16  1  0  0  0  0
 10 14  2  0  0  0  0
 10 23  1  0  0  0  0
 12 17  1  6  0  0  0
 12 15  1  0  0  0  0
 13 24  1  6  0  0  0
 13  2  1  0  0  0  0
 14 22  1  0  0  0  0
 15 14  1  0  0  0  0
 16  2  1  0  0  0  0
 18 12  1  0  0  0  0
 18 19  1  1  0  0  0
 20  1  2  0  0  0  0
 21 23  1  0  0  0  0
 22  6  2  0  0  0  0
 23  7  2  0  0  0  0
 25  9  1  0  0  0  0
 26 25  1  0  0  0  0
 27 26  1  0  0  0  0
 27 30  1  0  0  0  0
 30 28  2  0  0  0  0
 30 29  1  0  0  0  0
 33 36  2  0  0  0  0
 33 34  1  0  0  0  0
 34 31  1  1  0  0  0
 34 32  1  0  0  0  0
 35 38  1  0  0  0  0
 35 32  2  0  0  0  0
 36 35  1  0  0  0  0
 38 37  1  0  0  0  0
M  END
>  <MODEL>
2

>  <REMARK>
 VINA RESULT:      -8.4      2.674      7.279
  Name = 
  7 active torsions:
  status: ('A' for Active; 'I' for Inactive)
    1  A    between atoms: N_5  and  C_12
    2  A    between atoms: N_5  and  C_24
    3  A    between atoms: C_7  and  N_16
    4  A    between atoms: N_16  and  C_25
    5  A    between atoms: C_24  and  C_30
    6  A    between atoms: C_26  and  O_29
    7  A    between atoms: C_30  and  C_38
                            x       y       z     vdW  Elec       q    Type
                         _______ _______ _______ _____ _____    ______ ____

>  <TORSDO>
F 7

$$$$
=
 OpenBabel10222421023D

 38 42  0  0  1  0  0  0  0  0999 V2000
  183.7700  178.7060  142.2390 C   0  0  0  0  0  3  0  0  0  0  0  0
  183.4160  178.0640  139.8580 C   0  0  2  0  0  3  0  0  0  0  0  0
  187.1490  178.2080  137.0900 C   0  0  0  0  0  2  0  0  0  0  0  0
  186.2530  178.3050  138.2910 C   0  0  0  0  0  0  0  0  0  0  0  0
  188.5210  177.6170  137.4570 C   0  0  2  0  0  3  0  0  0  0  0  0
  187.7830  177.5800  144.7940 C   0  0  0  0  0  0  0  0  0  0  0  0
  186.4470  177.8500  144.7650 N   0  0  0  0  0  0  0  0  0  0  0  0
  185.0840  178.9520  138.1700 C   0  0  0  0  0  3  0  0  0  0  0  0
  181.8940  179.9290  139.0240 C   0  0  0  0  0  0  0  0  0  0  0  0
  186.5710  178.3610  142.4470 C   0  0  0  0  0  3  0  0  0  0  0  0
  188.4270  177.1650  146.0660 C   0  0  0  0  0  1  0  0  0  0  0  0
  188.1260  178.4430  139.8920 C   0  0  2  0  0  3  0  0  0  0  0  0
  184.1620  179.2880  139.3090 C   0  0  1  0  0  3  0  0  0  0  0  0
  187.9270  178.0540  142.4310 C   0  0  0  0  0  0  0  0  0  0  0  0
  188.6620  178.0390  141.1980 N   0  0  0  0  0  2  0  0  0  0  0  0
  181.6120  178.3380  139.7780 S   0  0  0  0  0  0  0  0  0  0  0  0
  186.7630  177.8030  139.6060 C   0  0  0  0  0  2  0  0  0  0  0  0
  189.1460  178.1990  138.7460 C   0  0  1  0  0  3  0  0  0  0  0  0
  190.1950  177.3740  139.1610 O   0  0  0  0  0  1  0  0  0  0  0  0
  183.8450  177.7850  141.2690 C   0  0  0  0  0  3  0  0  0  0  0  0
  184.3250  178.4340  143.6130 C   0  0  0  0  0  2  0  0  0  0  0  0
  188.5430  177.6570  143.6200 C   0  0  0  0  0  3  0  0  0  0  0  0
  185.8210  178.2340  143.6190 C   0  0  0  0  0  0  0  0  0  0  0  0
  183.1520  180.2730  138.8440 C   0  0  0  0  0  3  0  0  0  0  0  0
  180.8330  180.7890  138.6120 N   0  0  0  0  0  2  0  0  0  0  0  0
  180.9290  181.6250  137.4250 C   0  0  0  0  0  2  0  0  0  0  0  0
  180.5340  183.0530  137.7590 C   0  0  0  0  0  2  0  0  0  0  0  0
  182.3160  184.6210  137.5410 O   0  0  0  0  0  1  0  0  0  0  0  0
  181.0980  184.2370  135.6370 O   0  0  0  0  0  0  0  0  0  0  0  0
  181.3610  184.0210  136.9830 C   0  0  0  0  0  0  0  0  0  0  0  0
  189.4480  177.6540  136.3230 N   0  0  0  0  0  2  0  0  0  0  0  0
  191.0200  175.8690  136.1930 N   0  0  0  0  0  0  0  0  0  0  0  0
  188.7260  175.3280  136.4760 C   0  0  0  0  0  3  0  0  0  0  0  0
  189.6910  176.3070  135.8120 C   0  0  1  0  0  3  0  0  0  0  0  0
  190.9740  174.8170  136.9290 C   0  0  0  0  0  0  0  0  0  0  0  0
  189.6040  174.3220  137.2050 C   0  0  0  0  0  3  0  0  0  0  0  0
  193.3710  174.9200  137.4690 C   0  0  0  0  0  1  0  0  0  0  0  0
  192.1380  174.2190  137.4120 O   0  0  0  0  0  0  0  0  0  0  0  0
  1 21  1  0  0  0  0
  2 20  1  1  0  0  0
  3  5  1  0  0  0  0
  3  4  1  0  0  0  0
  4 17  1  0  0  0  0
  5 31  1  6  0  0  0
  5 18  1  0  0  0  0
  6 11  1  0  0  0  0
  7  6  1  0  0  0  0
  8  4  2  0  0  0  0
  9 16  1  0  0  0  0
 10 23  1  0  0  0  0
 12 17  1  6  0  0  0
 12 15  1  0  0  0  0
 13  8  1  6  0  0  0
 13  2  1  0  0  0  0
 14 10  2  0  0  0  0
 14 22  1  0  0  0  0
 15 14  1  0  0  0  0
 16  2  1  0  0  0  0
 18 19  1  1  0  0  0
 18 12  1  0  0  0  0
 20  1  2  0  0  0  0
 21 23  1  0  0  0  0
 22  6  2  0  0  0  0
 23  7  2  0  0  0  0
 24  9  2  0  0  0  0
 24 13  1  0  0  0  0
 25  9  1  0  0  0  0
 26 27  1  0  0  0  0
 26 25  1  0  0  0  0
 29 30  2  0  0  0  0
 30 28  1  0  0  0  0
 30 27  1  0  0  0  0
 32 35  2  0  0  0  0
 33 36  2  0  0  0  0
 34 32  1  0  0  0  0
 34 31  1  1  0  0  0
 34 33  1  0  0  0  0
 35 36  1  0  0  0  0
 35 38  1  0  0  0  0
 38 37  1  0  0  0  0
M  END
>  <MODEL>
3

>  <REMARK>
 VINA RESULT:      -8.2      4.349     10.190
  Name = 
  7 active torsions:
  status: ('A' for Active; 'I' for Inactive)
    1  A    between atoms: N_5  and  C_12
    2  A    between atoms: N_5  and  C_24
    3  A    between atoms: C_7  and  N_16
    4  A    between atoms: N_16  and  C_25
    5  A    between atoms: C_24  and  C_30
    6  A    between atoms: C_26  and  O_29
    7  A    between atoms: C_30  and  C_38
                            x       y       z     vdW  Elec       q    Type
                         _______ _______ _______ _____ _____    ______ ____

>  <TORSDO>
F 7

$$$$
=
 OpenBabel10222421023D

 38 42  0  0  1  0  0  0  0  0999 V2000
  183.5090  178.7570  144.3540 C   0  0  0  0  0  3  0  0  0  0  0  0
  185.9280  179.3070  144.5850 C   0  0  2  0  0  3  0  0  0  0  0  0
  188.6480  178.2870  140.9560 C   0  0  0  0  0  2  0  0  0  0  0  0
  187.4520  178.4360  141.8510 C   0  0  0  0  0  0  0  0  0  0  0  0
  188.3060  178.6280  139.4960 C   0  0  2  0  0  3  0  0  0  0  0  0
  180.9920  179.2550  140.1930 C   0  0  0  0  0  0  0  0  0  0  0  0
  181.0160  179.2430  141.5560 N   0  0  0  0  0  0  0  0  0  0  0  0
  187.5440  178.0170  143.1210 C   0  0  0  0  0  3  0  0  0  0  0  0
  186.6600  177.7190  146.4370 C   0  0  0  0  0  0  0  0  0  0  0  0
  183.2970  178.5760  141.5380 C   0  0  0  0  0  3  0  0  0  0  0  0
  179.7410  179.6160  139.4780 C   0  0  0  0  0  1  0  0  0  0  0  0
  185.8290  178.0420  140.0340 C   0  0  2  0  0  3  0  0  0  0  0  0
  186.3950  177.9320  144.0880 C   0  0  1  0  0  3  0  0  0  0  0  0
  183.3200  178.6180  140.1480 C   0  0  0  0  0  0  0  0  0  0  0  0
  184.5440  178.4170  139.4270 N   0  0  0  0  0  2  0  0  0  0  0  0
  186.0070  179.3770  146.4090 S   0  0  0  0  0  0  0  0  0  0  0  0
  186.1640  178.9120  141.2500 C   0  0  0  0  0  2  0  0  0  0  0  0
  186.9770  178.0170  138.9890 C   0  0  1  0  0  3  0  0  0  0  0  0
  186.6040  178.6520  137.8010 O   0  0  0  0  0  1  0  0  0  0  0  0
  184.5330  179.5860  144.1080 C   0  0  0  0  0  3  0  0  0  0  0  0
  182.1500  179.0030  143.7540 C   0  0  0  0  0  2  0  0  0  0  0  0
  182.1510  178.9620  139.4650 C   0  0  0  0  0  3  0  0  0  0  0  0
  182.1420  178.9150  142.2460 C   0  0  0  0  0  0  0  0  0  0  0  0
  186.8080  177.1320  145.2680 C   0  0  0  0  0  3  0  0  0  0  0  0
  187.0290  177.0520  147.6430 N   0  0  0  0  0  2  0  0  0  0  0  0
  188.3750  176.5490  147.8710 C   0  0  0  0  0  2  0  0  0  0  0  0
  189.3940  177.6400  147.5950 C   0  0  0  0  0  2  0  0  0  0  0  0
  190.3080  177.0380  145.4770 O   0  0  0  0  0  0  0  0  0  0  0  0
  191.7140  176.7820  147.2700 O   0  0  0  0  0  1  0  0  0  0  0  0
  190.4880  177.1280  146.7200 C   0  0  0  0  0  0  0  0  0  0  0  0
  189.4260  178.3460  138.5950 N   0  0  0  0  0  2  0  0  0  0  0  0
  189.6220  176.3630  137.2890 N   0  0  0  0  0  0  0  0  0  0  0  0
  191.2340  176.7530  138.9880 C   0  0  0  0  0  3  0  0  0  0  0  0
  189.7620  176.9230  138.6190 C   0  0  1  0  0  3  0  0  0  0  0  0
  190.7380  175.8950  136.8570 C   0  0  0  0  0  0  0  0  0  0  0  0
  191.8710  176.0430  137.8030 C   0  0  0  0  0  3  0  0  0  0  0  0
  189.6940  174.8420  134.8950 C   0  0  0  0  0  1  0  0  0  0  0  0
  190.8380  175.3060  135.5970 O   0  0  0  0  0  0  0  0  0  0  0  0
  2 20  1  1  0  0  0
  2 16  1  0  0  0  0
  3  4  1  0  0  0  0
  4  8  2  0  0  0  0
  5 31  1  6  0  0  0
  5  3  1  0  0  0  0
  6  7  1  0  0  0  0
  7 23  2  0  0  0  0
  9 25  1  0  0  0  0
 10 23  1  0  0  0  0
 11  6  1  0  0  0  0
 12 17  1  1  0  0  0
 13  8  1  6  0  0  0
 13  2  1  0  0  0  0
 13 24  1  0  0  0  0
 14 10  2  0  0  0  0
 15 12  1  0  0  0  0
 15 14  1  0  0  0  0
 16  9  1  0  0  0  0
 17  4  1  0  0  0  0
 18 19  1  6  0  0  0
 18  5  1  0  0  0  0
 18 12  1  0  0  0  0
 20  1  2  0  0  0  0
 21  1  1  0  0  0  0
 22 14  1  0  0  0  0
 22  6  2  0  0  0  0
 23 21  1  0  0  0  0
 24  9  2  0  0  0  0
 25 26  1  0  0  0  0
 27 26  1  0  0  0  0
 28 30  2  0  0  0  0
 30 29  1  0  0  0  0
 30 27  1  0  0  0  0
 32 34  1  0  0  0  0
 34 31  1  6  0  0  0
 34 33  1  0  0  0  0
 35 32  2  0  0  0  0
 35 36  1  0  0  0  0
 36 33  2  0  0  0  0
 37 38  1  0  0  0  0
 38 35  1  0  0  0  0
M  END
>  <MODEL>
4

>  <REMARK>
 VINA RESULT:      -8.0      3.936      8.557
  Name = 
  7 active torsions:
  status: ('A' for Active; 'I' for Inactive)
    1  A    between atoms: N_5  and  C_12
    2  A    between atoms: N_5  and  C_24
    3  A    between atoms: C_7  and  N_16
    4  A    between atoms: N_16  and  C_25
    5  A    between atoms: C_24  and  C_30
    6  A    between atoms: C_26  and  O_29
    7  A    between atoms: C_30  and  C_38
                            x       y       z     vdW  Elec       q    Type
                         _______ _______ _______ _____ _____    ______ ____

>  <TORSDO>
F 7

$$$$
=
 OpenBabel10222421023D

 38 42  0  0  1  0  0  0  0  0999 V2000
  188.7110  177.4640  141.5140 C   0  0  0  0  0  3  0  0  0  0  0  0
  188.1880  178.5050  139.3120 C   0  0  2  0  0  3  0  0  0  0  0  0
  183.6860  178.9740  138.2510 C   0  0  0  0  0  2  0  0  0  0  0  0
  184.9590  178.6370  138.9720 C   0  0  0  0  0  0  0  0  0  0  0  0
  182.6250  179.5350  139.2120 C   0  0  2  0  0  3  0  0  0  0  0  0
  186.1140  178.2490  145.5800 C   0  0  0  0  0  0  0  0  0  0  0  0
  187.3030  177.9460  144.9870 N   0  0  0  0  0  0  0  0  0  0  0  0
  185.9220  177.9850  138.3050 C   0  0  0  0  0  3  0  0  0  0  0  0
  189.0830  176.7700  137.6760 C   0  0  0  0  0  0  0  0  0  0  0  0
  186.2520  177.8570  142.8580 C   0  0  0  0  0  3  0  0  0  0  0  0
  186.0490  178.4530  147.0500 C   0  0  0  0  0  1  0  0  0  0  0  0
  183.8380  178.2780  141.1410 C   0  0  2  0  0  3  0  0  0  0  0  0
  187.1720  177.4220  138.9240 C   0  0  1  0  0  3  0  0  0  0  0  0
  185.0300  178.2060  143.4240 C   0  0  0  0  0  0  0  0  0  0  0  0
  183.8850  178.4620  142.5980 N   0  0  0  0  0  2  0  0  0  0  0  0
  189.7880  178.1920  138.4870 S   0  0  0  0  0  0  0  0  0  0  0  0
  185.0430  178.9150  140.4420 C   0  0  0  0  0  2  0  0  0  0  0  0
  182.4860  178.7540  140.5410 C   0  0  1  0  0  3  0  0  0  0  0  0
  181.7640  179.5260  141.4540 O   0  0  0  0  0  1  0  0  0  0  0  0
  188.3620  178.5440  140.8020 C   0  0  0  0  0  3  0  0  0  0  0  0
  188.7540  177.5060  143.0190 C   0  0  0  0  0  2  0  0  0  0  0  0
  184.9590  178.4050  144.8040 C   0  0  0  0  0  3  0  0  0  0  0  0
  187.4020  177.7500  143.6450 C   0  0  0  0  0  0  0  0  0  0  0  0
  187.8250  176.5030  137.9570 C   0  0  0  0  0  3  0  0  0  0  0  0
  189.8150  175.9620  136.7550 N   0  0  0  0  0  2  0  0  0  0  0  0
  191.2410  176.1390  136.5310 C   0  0  0  0  0  2  0  0  0  0  0  0
  192.0330  175.3410  137.5520 C   0  0  0  0  0  2  0  0  0  0  0  0
  194.3470  175.7810  137.1840 O   0  0  0  0  0  0  0  0  0  0  0  0
  193.3780  176.9540  138.8990 O   0  0  0  0  0  1  0  0  0  0  0  0
  193.3200  176.0240  137.8690 C   0  0  0  0  0  0  0  0  0  0  0  0
  181.3350  179.7290  138.5450 N   0  0  0  0  0  2  0  0  0  0  0  0
  181.5830  182.0940  138.4050 N   0  0  0  0  0  0  0  0  0  0  0  0
  179.3990  181.1790  138.2250 C   0  0  0  0  0  3  0  0  0  0  0  0
  180.7530  181.0180  138.9120 C   0  0  1  0  0  3  0  0  0  0  0  0
  180.9360  182.8360  137.5780 C   0  0  0  0  0  0  0  0  0  0  0  0
  179.5320  182.4160  137.3490 C   0  0  0  0  0  3  0  0  0  0  0  0
  180.9910  184.5370  135.8040 C   0  0  0  0  0  1  0  0  0  0  0  0
  181.5390  183.9340  136.9670 O   0  0  0  0  0  0  0  0  0  0  0  0
  1 21  1  0  0  0  0
  2 20  1  1  0  0  0
  3  4  1  0  0  0  0
  3  5  1  0  0  0  0
  4 17  1  0  0  0  0
  5 31  1  6  0  0  0
  5 18  1  0  0  0  0
  6 11  1  0  0  0  0
  7  6  1  0  0  0  0
  8 13  1  0  0  0  0
  8  4  2  0  0  0  0
  9 24  2  0  0  0  0
  9 16  1  0  0  0  0
 10 14  2  0  0  0  0
 10 23  1  0  0  0  0
 12 17  1  6  0  0  0
 12 15  1  0  0  0  0
 13 24  1  6  0  0  0
 13  2  1  0  0  0  0
 14 22  1  0  0  0  0
 15 14  1  0  0  0  0
 16  2  1  0  0  0  0
 18 12  1  0  0  0  0
 18 19  1  1  0  0  0
 20  1  2  0  0  0  0
 21 23  1  0  0  0  0
 22  6  2  0  0  0  0
 23  7  2  0  0  0  0
 25  9  1  0  0  0  0
 26 25  1  0  0  0  0
 26 27  1  0  0  0  0
 27 30  1  0  0  0  0
 28 30  2  0  0  0  0
 30 29  1  0  0  0  0
 32 34  1  0  0  0  0
 33 34  1  0  0  0  0
 34 31  1  6  0  0  0
 35 32  2  0  0  0  0
 36 35  1  0  0  0  0
 36 33  2  0  0  0  0
 37 38  1  0  0  0  0
 38 35  1  0  0  0  0
M  END
>  <MODEL>
5

>  <REMARK>
 VINA RESULT:      -7.9      4.053      8.437
  Name = 
  7 active torsions:
  status: ('A' for Active; 'I' for Inactive)
    1  A    between atoms: N_5  and  C_12
    2  A    between atoms: N_5  and  C_24
    3  A    between atoms: C_7  and  N_16
    4  A    between atoms: N_16  and  C_25
    5  A    between atoms: C_24  and  C_30
    6  A    between atoms: C_26  and  O_29
    7  A    between atoms: C_30  and  C_38
                            x       y       z     vdW  Elec       q    Type
                         _______ _______ _______ _____ _____    ______ ____

>  <TORSDO>
F 7

$$$$
=
 OpenBabel10222421023D

 38 42  0  0  1  0  0  0  0  0999 V2000
  185.2620  177.5880  137.5950 C   0  0  0  0  0  3  0  0  0  0  0  0
  184.9270  179.0830  139.5600 C   0  0  2  0  0  3  0  0  0  0  0  0
  187.9070  178.5710  143.0910 C   0  0  0  0  0  2  0  0  0  0  0  0
  187.2000  178.3970  141.7790 C   0  0  0  0  0  0  0  0  0  0  0  0
  189.4330  178.4730  142.9280 C   0  0  2  0  0  3  0  0  0  0  0  0
  189.6520  176.2720  135.8940 C   0  0  0  0  0  0  0  0  0  0  0  0
  188.3310  176.5220  135.6660 N   0  0  0  0  0  0  0  0  0  0  0  0
  185.8630  178.2910  141.7770 C   0  0  0  0  0  3  0  0  0  0  0  0
  182.6810  178.2850  140.4590 C   0  0  0  0  0  0  0  0  0  0  0  0
  187.9560  176.8210  137.9940 C   0  0  0  0  0  3  0  0  0  0  0  0
  190.5560  175.9710  134.7550 C   0  0  0  0  0  1  0  0  0  0  0  0
  189.0220  177.0660  140.7790 C   0  0  2  0  0  3  0  0  0  0  0  0
  185.0270  177.9390  140.5780 C   0  0  1  0  0  3  0  0  0  0  0  0
  189.3060  176.6120  138.2590 C   0  0  0  0  0  0  0  0  0  0  0  0
  189.8290  176.7820  139.5840 N   0  0  0  0  0  2  0  0  0  0  0  0
  183.1760  179.5140  139.2660 S   0  0  0  0  0  0  0  0  0  0  0  0
  188.0250  178.2050  140.5430 C   0  0  0  0  0  2  0  0  0  0  0  0
  189.9080  177.3050  142.0320 C   0  0  1  0  0  3  0  0  0  0  0  0
  191.2460  177.5090  141.6830 O   0  0  0  0  0  1  0  0  0  0  0  0
  185.5970  178.6940  138.2740 C   0  0  0  0  0  3  0  0  0  0  0  0
  186.0380  177.1610  136.3770 C   0  0  0  0  0  2  0  0  0  0  0  0
  190.1660  176.3330  137.1950 C   0  0  0  0  0  3  0  0  0  0  0  0
  187.4720  176.8000  136.6830 C   0  0  0  0  0  0  0  0  0  0  0  0
  183.6520  177.5990  141.0250 C   0  0  0  0  0  3  0  0  0  0  0  0
  181.3190  178.0540  140.8120 N   0  0  0  0  0  2  0  0  0  0  0  0
  180.4770  179.0950  141.3820 C   0  0  0  0  0  2  0  0  0  0  0  0
  180.8920  179.3740  142.8160 C   0  0  0  0  0  2  0  0  0  0  0  0
  179.1710  179.6500  144.4430 O   0  0  0  0  0  1  0  0  0  0  0  0
  179.6720  177.4830  143.8910 O   0  0  0  0  0  0  0  0  0  0  0  0
  179.8720  178.8510  143.7700 C   0  0  0  0  0  0  0  0  0  0  0  0
  190.1200  178.4960  144.2220 N   0  0  0  0  0  2  0  0  0  0  0  0
  191.1080  176.9400  145.7310 N   0  0  0  0  0  0  0  0  0  0  0  0
  188.7780  177.3570  145.9130 C   0  0  0  0  0  3  0  0  0  0  0  0
  189.9360  177.2290  144.9260 C   0  0  1  0  0  3  0  0  0  0  0  0
  190.8130  176.8640  146.9790 C   0  0  0  0  0  0  0  0  0  0  0  0
  189.3790  177.0890  147.2840 C   0  0  0  0  0  3  0  0  0  0  0  0
  192.8060  175.6280  147.7190 C   0  0  0  0  0  1  0  0  0  0  0  0
  191.7880  176.5920  147.9390 O   0  0  0  0  0  0  0  0  0  0  0  0
  1 20  2  0  0  0  0
  2 20  1  6  0  0  0
  2 13  1  0  0  0  0
  4  3  1  0  0  0  0
  5  3  1  0  0  0  0
  5 31  1  1  0  0  0
  6 22  1  0  0  0  0
  7  6  2  0  0  0  0
  7 23  1  0  0  0  0
  8  4  2  0  0  0  0
  9 25  1  0  0  0  0
  9 24  2  0  0  0  0
 10 14  1  0  0  0  0
 11  6  1  0  0  0  0
 12 17  1  6  0  0  0
 12 18  1  0  0  0  0
 13 24  1  1  0  0  0
 13  8  1  0  0  0  0
 14 15  1  0  0  0  0
 15 12  1  0  0  0  0
 16  2  1  0  0  0  0
 16  9  1  0  0  0  0
 17  4  1  0  0  0  0
 18 19  1  6  0  0  0
 18  5  1  0  0  0  0
 21 23  1  0  0  0  0
 21  1  1  0  0  0  0
 22 14  2  0  0  0  0
 23 10  2  0  0  0  0
 25 26  1  0  0  0  0
 26 27  1  0  0  0  0
 27 30  1  0  0  0  0
 30 29  2  0  0  0  0
 30 28  1  0  0  0  0
 32 35  2  0  0  0  0
 33 36  2  0  0  0  0
 34 31  1  1  0  0  0
 34 32  1  0  0  0  0
 34 33  1  0  0  0  0
 35 36  1  0  0  0  0
 35 38  1  0  0  0  0
 37 38  1  0  0  0  0
M  END
>  <MODEL>
6

>  <REMARK>
 VINA RESULT:      -7.8      3.779      8.067
  Name = 
  7 active torsions:
  status: ('A' for Active; 'I' for Inactive)
    1  A    between atoms: N_5  and  C_12
    2  A    between atoms: N_5  and  C_24
    3  A    between atoms: C_7  and  N_16
    4  A    between atoms: N_16  and  C_25
    5  A    between atoms: C_24  and  C_30
    6  A    between atoms: C_26  and  O_29
    7  A    between atoms: C_30  and  C_38
                            x       y       z     vdW  Elec       q    Type
                         _______ _______ _______ _____ _____    ______ ____

>  <TORSDO>
F 7

$$$$
=
 OpenBabel10222421023D

 38 42  0  0  1  0  0  0  0  0999 V2000
  188.7320  177.5100  141.0430 C   0  0  0  0  0  3  0  0  0  0  0  0
  187.9290  178.6160  138.9600 C   0  0  2  0  0  3  0  0  0  0  0  0
  183.3240  179.0230  138.4660 C   0  0  0  0  0  2  0  0  0  0  0  0
  184.6810  178.6890  139.0160 C   0  0  0  0  0  0  0  0  0  0  0  0
  182.3770  179.5260  139.5680 C   0  0  2  0  0  3  0  0  0  0  0  0
  186.6320  178.0950  145.4180 C   0  0  0  0  0  0  0  0  0  0  0  0
  187.7460  177.8380  144.6760 N   0  0  0  0  0  0  0  0  0  0  0  0
  185.5680  178.0820  138.2140 C   0  0  0  0  0  3  0  0  0  0  0  0
  188.6500  176.9600  137.1650 C   0  0  0  0  0  0  0  0  0  0  0  0
  186.4470  177.8010  142.6860 C   0  0  0  0  0  3  0  0  0  0  0  0
  186.7420  178.2450  146.8920 C   0  0  0  0  0  1  0  0  0  0  0  0
  183.8360  178.2290  141.2880 C   0  0  2  0  0  3  0  0  0  0  0  0
  186.8920  177.5260  138.6570 C   0  0  1  0  0  3  0  0  0  0  0  0
  185.2960  178.1030  143.4070 C   0  0  0  0  0  0  0  0  0  0  0  0
  184.0560  178.3630  142.7350 N   0  0  0  0  0  2  0  0  0  0  0  0
  189.4230  178.3680  137.9380 S   0  0  0  0  0  0  0  0  0  0  0  0
  184.9370  178.9170  140.4740 C   0  0  0  0  0  2  0  0  0  0  0  0
  182.4130  178.6960  140.8740 C   0  0  1  0  0  3  0  0  0  0  0  0
  181.7930  179.4200  141.8960 O   0  0  0  0  0  1  0  0  0  0  0  0
  188.2810  178.6070  140.4190 C   0  0  0  0  0  3  0  0  0  0  0  0
  188.9560  177.5010  142.5330 C   0  0  0  0  0  2  0  0  0  0  0  0
  185.3890  178.2520  144.7930 C   0  0  0  0  0  3  0  0  0  0  0  0
  187.6850  177.6930  143.3250 C   0  0  0  0  0  0  0  0  0  0  0  0
  187.4400  176.6560  137.5850 C   0  0  0  0  0  3  0  0  0  0  0  0
  189.2790  176.2010  136.1330 N   0  0  0  0  0  2  0  0  0  0  0  0
  188.7530  174.9230  135.6800 C   0  0  0  0  0  2  0  0  0  0  0  0
  188.9830  173.8590  136.7380 C   0  0  0  0  0  2  0  0  0  0  0  0
  187.9360  171.7260  136.5430 O   0  0  0  0  0  0  0  0  0  0  0  0
  186.5820  173.4310  137.2590 O   0  0  0  0  0  1  0  0  0  0  0  0
  187.8080  172.9450  136.8290 C   0  0  0  0  0  0  0  0  0  0  0  0
  181.0130  179.7150  139.0680 N   0  0  0  0  0  2  0  0  0  0  0  0
  181.3850  182.0010  138.5140 N   0  0  0  0  0  0  0  0  0  0  0  0
  179.1450  181.2550  138.7610 C   0  0  0  0  0  3  0  0  0  0  0  0
  180.5680  181.0890  139.2900 C   0  0  1  0  0  3  0  0  0  0  0  0
  180.6790  182.6590  137.6650 C   0  0  0  0  0  0  0  0  0  0  0  0
  179.2330  182.3280  137.6850 C   0  0  0  0  0  3  0  0  0  0  0  0
  180.7960  183.7860  135.4820 C   0  0  0  0  0  1  0  0  0  0  0  0
  181.2590  183.5970  136.8110 O   0  0  0  0  0  0  0  0  0  0  0  0
  1 21  1  0  0  0  0
  2 20  1  1  0  0  0
  3  4  1  0  0  0  0
  3  5  1  0  0  0  0
  4 17  1  0  0  0  0
  5 31  1  6  0  0  0
  5 18  1  0  0  0  0
  6 11  1  0  0  0  0
  7  6  2  0  0  0  0
  8 13  1  0  0  0  0
  8  4  2  0  0  0  0
  9 24  2  0  0  0  0
  9 16  1  0  0  0  0
 10 23  2  0  0  0  0
 10 14  1  0  0  0  0
 12 17  1  6  0  0  0
 12 15  1  0  0  0  0
 13 24  1  6  0  0  0
 13  2  1  0  0  0  0
 14 22  2  0  0  0  0
 15 14  1  0  0  0  0
 16  2  1  0  0  0  0
 18 12  1  0  0  0  0
 18 19  1  1  0  0  0
 20  1  2  0  0  0  0
 21 23  1  0  0  0  0
 22  6  1  0  0  0  0
 23  7  1  0  0  0  0
 25  9  1  0  0  0  0
 26 25  1  0  0  0  0
 26 27  1  0  0  0  0
 27 30  1  0  0  0  0
 28 30  2  0  0  0  0
 30 29  1  0  0  0  0
 32 34  1  0  0  0  0
 33 34  1  0  0  0  0
 34 31  1  6  0  0  0
 35 36  1  0  0  0  0
 35 32  2  0  0  0  0
 36 33  2  0  0  0  0
 37 38  1  0  0  0  0
 38 35  1  0  0  0  0
M  END
>  <MODEL>
7

>  <REMARK>
 VINA RESULT:      -7.4      4.461      8.853
  Name = 
  7 active torsions:
  status: ('A' for Active; 'I' for Inactive)
    1  A    between atoms: N_5  and  C_12
    2  A    between atoms: N_5  and  C_24
    3  A    between atoms: C_7  and  N_16
    4  A    between atoms: N_16  and  C_25
    5  A    between atoms: C_24  and  C_30
    6  A    between atoms: C_26  and  O_29
    7  A    between atoms: C_30  and  C_38
                            x       y       z     vdW  Elec       q    Type
                         _______ _______ _______ _____ _____    ______ ____

>  <TORSDO>
F 7

$$$$
=
 OpenBabel10222421023D

 38 42  0  0  1  0  0  0  0  0999 V2000
  185.2190  177.7050  137.6470 C   0  0  0  0  0  3  0  0  0  0  0  0
  184.9230  179.1760  139.6360 C   0  0  2  0  0  3  0  0  0  0  0  0
  187.9410  178.5890  143.1230 C   0  0  0  0  0  2  0  0  0  0  0  0
  187.2160  178.4390  141.8170 C   0  0  0  0  0  0  0  0  0  0  0  0
  189.4640  178.4790  142.9400 C   0  0  2  0  0  3  0  0  0  0  0  0
  189.5750  176.3700  135.8750 C   0  0  0  0  0  0  0  0  0  0  0  0
  188.2550  176.6360  135.6670 N   0  0  0  0  0  0  0  0  0  0  0  0
  185.8790  178.3460  141.8300 C   0  0  0  0  0  3  0  0  0  0  0  0
  182.6810  178.3880  140.5520 C   0  0  0  0  0  0  0  0  0  0  0  0
  187.9110  176.9070  138.0030 C   0  0  0  0  0  3  0  0  0  0  0  0
  190.4630  176.0750  134.7210 C   0  0  0  0  0  1  0  0  0  0  0  0
  189.0130  177.1040  140.7780 C   0  0  2  0  0  3  0  0  0  0  0  0
  185.0240  178.0180  140.6380 C   0  0  1  0  0  3  0  0  0  0  0  0
  189.2620  176.6810  138.2480 C   0  0  0  0  0  0  0  0  0  0  0  0
  189.8020  176.8290  139.5690 N   0  0  0  0  0  2  0  0  0  0  0  0
  183.1730  179.6280  139.3690 S   0  0  0  0  0  0  0  0  0  0  0  0
  188.0240  178.2560  140.5690 C   0  0  0  0  0  2  0  0  0  0  0  0
  189.9170  177.3180  142.0230 C   0  0  1  0  0  3  0  0  0  0  0  0
  191.2520  177.5140  141.6590 O   0  0  0  0  0  1  0  0  0  0  0  0
  185.5730  178.7980  138.3370 C   0  0  0  0  0  3  0  0  0  0  0  0
  185.9760  177.2860  136.4140 C   0  0  0  0  0  2  0  0  0  0  0  0
  190.1060  176.4090  137.1700 C   0  0  0  0  0  3  0  0  0  0  0  0
  187.4100  176.9080  136.6980 C   0  0  0  0  0  0  0  0  0  0  0  0
  183.6520  177.6850  141.0970 C   0  0  0  0  0  3  0  0  0  0  0  0
  181.3200  178.1650  140.9190 N   0  0  0  0  0  2  0  0  0  0  0  0
  180.3740  177.5110  140.0290 C   0  0  0  0  0  2  0  0  0  0  0  0
  180.7800  176.0640  139.8070 C   0  0  0  0  0  2  0  0  0  0  0  0
  181.4110  176.8430  137.6440 O   0  0  0  0  0  0  0  0  0  0  0  0
  181.4690  174.5690  137.9320 O   0  0  0  0  0  1  0  0  0  0  0  0
  181.2260  175.8540  138.4000 C   0  0  0  0  0  0  0  0  0  0  0  0
  190.1670  178.4780  144.2250 N   0  0  0  0  0  2  0  0  0  0  0  0
  191.0620  176.8880  145.7560 N   0  0  0  0  0  0  0  0  0  0  0  0
  188.7670  177.4630  145.9480 C   0  0  0  0  0  3  0  0  0  0  0  0
  189.9060  177.2390  144.9550 C   0  0  1  0  0  3  0  0  0  0  0  0
  190.7750  176.8560  147.0080 C   0  0  0  0  0  0  0  0  0  0  0  0
  189.3620  177.1810  147.3200 C   0  0  0  0  0  3  0  0  0  0  0  0
  192.7930  175.6280  147.6920 C   0  0  0  0  0  1  0  0  0  0  0  0
  191.7380  176.5380  147.9660 O   0  0  0  0  0  0  0  0  0  0  0  0
  1 20  2  0  0  0  0
  2 20  1  6  0  0  0
  2 13  1  0  0  0  0
  4  8  2  0  0  0  0
  4  3  1  0  0  0  0
  5  3  1  0  0  0  0
  5 31  1  1  0  0  0
  6 22  1  0  0  0  0
  7  6  2  0  0  0  0
  7 23  1  0  0  0  0
  9 25  1  0  0  0  0
  9 24  2  0  0  0  0
 10 14  1  0  0  0  0
 11  6  1  0  0  0  0
 12 17  1  6  0  0  0
 12 18  1  0  0  0  0
 13 24  1  1  0  0  0
 13  8  1  0  0  0  0
 14 15  1  0  0  0  0
 15 12  1  0  0  0  0
 16  2  1  0  0  0  0
 16  9  1  0  0  0  0
 17  4  1  0  0  0  0
 18 19  1  6  0  0  0
 18  5  1  0  0  0  0
 21 23  1  0  0  0  0
 21  1  1  0  0  0  0
 22 14  2  0  0  0  0
 23 10  2  0  0  0  0
 26 25  1  0  0  0  0
 27 26  1  0  0  0  0
 28 30  2  0  0  0  0
 29 30  1  0  0  0  0
 30 27  1  0  0  0  0
 32 35  2  0  0  0  0
 33 36  2  0  0  0  0
 34 31  1  1  0  0  0
 34 32  1  0  0  0  0
 34 33  1  0  0  0  0
 35 36  1  0  0  0  0
 35 38  1  0  0  0  0
 37 38  1  0  0  0  0
M  END
>  <MODEL>
8

>  <REMARK>
 VINA RESULT:      -7.3      3.445      7.495
  Name = 
  7 active torsions:
  status: ('A' for Active; 'I' for Inactive)
    1  A    between atoms: N_5  and  C_12
    2  A    between atoms: N_5  and  C_24
    3  A    between atoms: C_7  and  N_16
    4  A    between atoms: N_16  and  C_25
    5  A    between atoms: C_24  and  C_30
    6  A    between atoms: C_26  and  O_29
    7  A    between atoms: C_30  and  C_38
                            x       y       z     vdW  Elec       q    Type
                         _______ _______ _______ _____ _____    ______ ____

>  <TORSDO>
F 7

$$$$
=
 OpenBabel10222421023D

 38 42  0  0  1  0  0  0  0  0999 V2000
  188.9990  177.4360  141.4030 C   0  0  0  0  0  3  0  0  0  0  0  0
  188.3280  178.4740  139.2400 C   0  0  2  0  0  3  0  0  0  0  0  0
  183.7640  178.8330  138.4340 C   0  0  0  0  0  2  0  0  0  0  0  0
  185.0830  178.5250  139.0810 C   0  0  0  0  0  0  0  0  0  0  0  0
  182.7440  179.3620  139.4560 C   0  0  2  0  0  3  0  0  0  0  0  0
  186.6140  178.1350  145.6120 C   0  0  0  0  0  0  0  0  0  0  0  0
  187.7750  177.8650  144.9520 N   0  0  0  0  0  0  0  0  0  0  0  0
  186.0230  177.9010  138.3570 C   0  0  0  0  0  3  0  0  0  0  0  0
  189.1740  176.7690  137.5460 C   0  0  0  0  0  0  0  0  0  0  0  0
  186.6090  177.7590  142.8840 C   0  0  0  0  0  3  0  0  0  0  0  0
  186.6260  178.3300  147.0850 C   0  0  0  0  0  1  0  0  0  0  0  0
  184.0930  178.1270  141.3070 C   0  0  2  0  0  3  0  0  0  0  0  0
  187.3190  177.3670  138.9020 C   0  0  1  0  0  3  0  0  0  0  0  0
  185.4130  178.0750  143.5190 C   0  0  0  0  0  0  0  0  0  0  0  0
  184.2170  178.3060  142.7600 N   0  0  0  0  0  2  0  0  0  0  0  0
  189.8870  178.2050  138.3260 S   0  0  0  0  0  0  0  0  0  0  0  0
  185.2420  178.7980  140.5460 C   0  0  0  0  0  2  0  0  0  0  0  0
  182.6990  178.5710  140.7860 C   0  0  1  0  0  3  0  0  0  0  0  0
  182.0090  179.3210  141.7430 O   0  0  0  0  0  1  0  0  0  0  0  0
  188.5840  178.5100  140.7180 C   0  0  0  0  0  3  0  0  0  0  0  0
  189.1250  177.4720  142.9030 C   0  0  0  0  0  2  0  0  0  0  0  0
  185.4140  178.2660  144.9030 C   0  0  0  0  0  3  0  0  0  0  0  0
  187.8030  177.6790  143.6050 C   0  0  0  0  0  0  0  0  0  0  0  0
  187.9400  176.4700  137.8950 C   0  0  0  0  0  3  0  0  0  0  0  0
  189.8730  175.9850  136.5810 N   0  0  0  0  0  2  0  0  0  0  0  0
  191.2980  176.1420  136.3390 C   0  0  0  0  0  2  0  0  0  0  0  0
  192.0930  175.3940  137.3960 C   0  0  0  0  0  2  0  0  0  0  0  0
  194.3090  176.1460  136.9450 O   0  0  0  0  0  0  0  0  0  0  0  0
  193.4110  176.8510  138.9320 O   0  0  0  0  0  1  0  0  0  0  0  0
  193.3370  176.1380  137.7440 C   0  0  0  0  0  0  0  0  0  0  0  0
  181.4140  179.5260  138.8630 N   0  0  0  0  0  2  0  0  0  0  0  0
  180.7500  177.4020  138.0140 N   0  0  0  0  0  0  0  0  0  0  0  0
  180.2510  179.3330  136.7260 C   0  0  0  0  0  3  0  0  0  0  0  0
  181.2810  178.7050  137.6620 C   0  0  1  0  0  3  0  0  0  0  0  0
  179.6250  177.1810  137.4330 C   0  0  0  0  0  0  0  0  0  0  0  0
  179.1550  178.2890  136.5660 C   0  0  0  0  0  3  0  0  0  0  0  0
  179.1760  175.1530  138.7500 C   0  0  0  0  0  1  0  0  0  0  0  0
  178.9320  175.9870  137.6260 O   0  0  0  0  0  0  0  0  0  0  0  0
  1 21  1  0  0  0  0
  2 20  1  1  0  0  0
  3  4  1  0  0  0  0
  3  5  1  0  0  0  0
  4 17  1  0  0  0  0
  5 31  1  6  0  0  0
  5 18  1  0  0  0  0
  6 11  1  0  0  0  0
  7  6  1  0  0  0  0
  8 13  1  0  0  0  0
  8  4  2  0  0  0  0
  9 24  2  0  0  0  0
  9 16  1  0  0  0  0
 10 14  2  0  0  0  0
 10 23  1  0  0  0  0
 12 17  1  6  0  0  0
 12 15  1  0  0  0  0
 13 24  1  6  0  0  0
 13  2  1  0  0  0  0
 14 22  1  0  0  0  0
 15 14  1  0  0  0  0
 16  2  1  0  0  0  0
 18 12  1  0  0  0  0
 18 19  1  1  0  0  0
 20  1  2  0  0  0  0
 21 23  1  0  0  0  0
 22  6  2  0  0  0  0
 23  7  2  0  0  0  0
 25  9  1  0  0  0  0
 26 25  1  0  0  0  0
 26 27  1  0  0  0  0
 27 30  1  0  0  0  0
 28 30  2  0  0  0  0
 30 29  1  0  0  0  0
 33 34  1  0  0  0  0
 34 32  1  0  0  0  0
 34 31  1  1  0  0  0
 35 38  1  0  0  0  0
 35 32  2  0  0  0  0
 36 33  2  0  0  0  0
 36 35  1  0  0  0  0
 38 37  1  0  0  0  0
M  END
>  <MODEL>
9

>  <REMARK>
 VINA RESULT:      -7.2      3.599      8.220
  Name = 
  7 active torsions:
  status: ('A' for Active; 'I' for Inactive)
    1  A    between atoms: N_5  and  C_12
    2  A    between atoms: N_5  and  C_24
    3  A    between atoms: C_7  and  N_16
    4  A    between atoms: N_16  and  C_25
    5  A    between atoms: C_24  and  C_30
    6  A    between atoms: C_26  and  O_29
    7  A    between atoms: C_30  and  C_38
                            x       y       z     vdW  Elec       q    Type
                         _______ _______ _______ _____ _____    ______ ____

>  <TORSDO>
F 7

$$$$
