=
 OpenBabel10222417593D

 33 38  0  0  1  0  0  0  0  0999 V2000
  182.5390  179.1890  142.9340 C   0  0  2  0  0  3  0  0  0  0  0  0
  185.3250  178.4840  142.3540 N   0  0  0  0  0  0  0  0  0  0  0  0
  183.4720  178.6540  143.9730 C   0  0  0  0  0  0  0  0  0  0  0  0
  184.5950  179.6830  138.9770 N   0  0  1  0  0  0  0  0  0  0  0  0
  181.1630  178.5850  143.1560 C   0  0  0  0  0  1  0  0  0  0  0  0
  186.6760  178.2060  145.3560 C   0  0  0  0  0  3  0  0  0  0  0  0
  184.7660  178.2850  143.6470 C   0  0  0  0  0  0  0  0  0  0  0  0
  183.1530  180.0320  139.0910 C   0  0  2  0  0  3  0  0  0  0  0  0
  185.3940  178.1790  144.8560 C   0  0  0  0  0  0  0  0  0  0  0  0
  185.0730  178.6670  146.9550 N   0  0  0  0  0  2  0  0  0  0  0  0
  184.5580  178.8310  141.3600 C   0  0  0  0  0  0  0  0  0  0  0  0
  185.1400  178.9690  140.0680 N   0  0  0  0  0  2  0  0  0  0  0  0
  184.5160  178.4230  145.7920 N   0  0  0  0  0  0  0  0  0  0  0  0
  182.4650  179.8560  140.4720 C   0  0  2  0  0  3  0  0  0  0  0  0
  183.5570  178.8720  138.2690 C   0  0  2  0  0  3  0  0  0  0  0  0
  183.3350  178.7920  145.3220 N   0  0  0  0  0  0  0  0  0  0  0  0
  186.3990  178.4770  146.7140 C   0  0  0  0  0  0  0  0  0  0  0  0
  187.4440  178.6460  147.7580 C   0  0  0  0  0  1  0  0  0  0  0  0
  183.0500  178.8780  141.4950 C   0  0  2  0  0  3  0  0  0  0  0  0
  180.1390  180.7790  140.3200 O   0  0  0  0  0  1  0  0  0  0  0  0
  180.9920  179.6810  140.2830 C   0  0  0  0  0  0  0  0  0  0  0  0
  180.5170  178.5280  140.1130 O   0  0  0  0  0  0  0  0  0  0  0  0
  183.2470  177.4930  138.8670 C   0  0  0  0  0  2  0  0  0  0  0  0
  184.4960  175.2700  136.2470 O   0  0  0  0  0  0  0  0  0  0  0  0
  183.2510  176.4700  137.8240 N   0  0  0  0  0  0  0  0  0  0  0  0
  185.7250  176.6270  137.6670 N   0  0  0  0  0  1  0  0  0  0  0  0
  184.4880  176.0900  137.2030 C   0  0  0  0  0  0  0  0  0  0  0  0
  180.8390  176.5700  137.9260 N   0  0  0  0  0  2  0  0  0  0  0  0
  179.0070  174.6090  138.1290 O   0  0  0  0  0  0  0  0  0  0  0  0
  180.3430  175.1960  140.1860 O   0  0  0  0  0  0  0  0  0  0  0  0
  181.7450  174.4880  137.9240 C   0  0  0  0  0  2  0  0  0  0  0  0
  181.9980  175.8820  137.3350 C   0  0  2  0  0  3  0  0  0  0  0  0
  180.3030  175.1220  138.6860 S   0  0  0  0  0  0  0  0  0  0  0  0
  1  5  1  1  0  0  0
  1  3  1  0  0  0  0
  2  7  1  0  0  0  0
  3 16  2  0  0  0  0
  4  8  1  0  0  0  0
  4 12  1  1  0  0  0
  6 17  2  0  0  0  0
  7  3  1  0  0  0  0
  7  9  2  0  0  0  0
  8 14  1  0  0  0  0
  9  6  1  0  0  0  0
  9 13  1  0  0  0  0
 11 19  1  0  0  0  0
 11  2  2  0  0  0  0
 12 11  1  0  0  0  0
 13 10  1  0  0  0  0
 14 19  1  0  0  0  0
 15 23  1  0  0  0  0
 15  4  1  0  0  0  0
 15  8  1  0  0  0  0
 16 13  1  0  0  0  0
 17 10  1  0  0  0  0
 17 18  1  0  0  0  0
 19  1  1  0  0  0  0
 21 20  1  0  0  0  0
 21 14  1  0  0  0  0
 22 21  2  0  0  0  0
 24 27  2  0  0  0  0
 25 23  1  0  0  0  0
 27 26  1  0  0  0  0
 27 25  1  0  0  0  0
 28 33  1  0  0  0  0
 29 33  2  0  0  0  0
 31 33  1  0  0  0  0
 32 25  1  0  0  0  0
 32 31  1  0  0  0  0
 32 28  1  0  0  0  0
 33 30  2  0  0  0  0
M  END
>  <MODEL>
1

>  <REMARK>
 VINA RESULT:      -7.2      0.000      0.000
  Name = 
  4 active torsions:
  status: ('A' for Active; 'I' for Inactive)
    1  A    between atoms: C_1  and  N_7
    2  A    between atoms: C_1  and  C_25
    3  A    between atoms: N_7  and  C_24
    4  A    between atoms: C_23  and  C_27
                            x       y       z     vdW  Elec       q    Type
                         _______ _______ _______ _____ _____    ______ ____

>  <TORSDO>
F 4

$$$$
=
 OpenBabel10222417593D

 33 38  0  0  1  0  0  0  0  0999 V2000
  188.3080  178.2330  140.3090 C   0  0  2  0  0  3  0  0  0  0  0  0
  190.4620  176.2570  140.5390 N   0  0  0  0  0  0  0  0  0  0  0  0
  188.7210  177.6330  141.6150 C   0  0  0  0  0  0  0  0  0  0  0  0
  190.8580  176.7360  136.9350 N   0  0  1  0  0  0  0  0  0  0  0  0
  186.7950  178.3720  140.2910 C   0  0  0  0  0  1  0  0  0  0  0  0
  191.0980  176.2040  143.7800 C   0  0  0  0  0  3  0  0  0  0  0  0
  189.7090  176.6650  141.6750 C   0  0  0  0  0  0  0  0  0  0  0  0
  189.7590  177.6970  136.6400 C   0  0  2  0  0  3  0  0  0  0  0  0
  190.0400  176.6120  142.9990 C   0  0  0  0  0  0  0  0  0  0  0  0
  189.7160  177.7150  144.8500 N   0  0  0  0  0  2  0  0  0  0  0  0
  190.0970  176.6350  139.3460 C   0  0  0  0  0  0  0  0  0  0  0  0
  190.8420  176.1650  138.2270 N   0  0  0  0  0  2  0  0  0  0  0  0
  189.2710  177.4480  143.6440 N   0  0  0  0  0  0  0  0  0  0  0  0
  188.8940  178.2020  137.8260 C   0  0  2  0  0  3  0  0  0  0  0  0
  189.6630  176.3080  136.1430 C   0  0  2  0  0  3  0  0  0  0  0  0
  188.4880  178.1610  142.8500 N   0  0  0  0  0  0  0  0  0  0  0  0
  190.8060  176.9100  144.9680 C   0  0  0  0  0  0  0  0  0  0  0  0
  191.6530  176.8690  146.1890 C   0  0  0  0  0  1  0  0  0  0  0  0
  188.7950  177.3690  139.1060 C   0  0  2  0  0  3  0  0  0  0  0  0
  186.4480  177.8180  137.4310 O   0  0  0  0  0  1  0  0  0  0  0  0
  187.5580  178.6470  137.3210 C   0  0  0  0  0  0  0  0  0  0  0  0
  187.4430  179.7740  136.7710 O   0  0  0  0  0  0  0  0  0  0  0  0
  188.6520  175.4100  136.8700 C   0  0  0  0  0  2  0  0  0  0  0  0
  189.2550  172.1100  135.4170 O   0  0  0  0  0  0  0  0  0  0  0  0
  188.4200  174.1830  136.1110 N   0  0  0  0  0  0  0  0  0  0  0  0
  190.5550  173.2430  136.9640 N   0  0  0  0  0  1  0  0  0  0  0  0
  189.4040  173.1370  136.1300 C   0  0  0  0  0  0  0  0  0  0  0  0
  186.4420  175.2710  135.2530 N   0  0  0  0  0  2  0  0  0  0  0  0
  183.9180  174.3750  134.9880 O   0  0  0  0  0  0  0  0  0  0  0  0
  184.7280  174.9610  137.3040 O   0  0  0  0  0  0  0  0  0  0  0  0
  186.1860  173.1050  135.8840 C   0  0  0  0  0  2  0  0  0  0  0  0
  187.2360  174.0330  135.2580 C   0  0  2  0  0  3  0  0  0  0  0  0
  185.0830  174.4640  135.9320 S   0  0  0  0  0  0  0  0  0  0  0  0
  1  5  1  1  0  0  0
  1  3  1  0  0  0  0
  2  7  1  0  0  0  0
  3  7  1  0  0  0  0
  3 16  2  0  0  0  0
  4 12  1  1  0  0  0
  6 17  2  0  0  0  0
  7  9  2  0  0  0  0
  8  4  1  0  0  0  0
  8 14  1  0  0  0  0
  9 13  1  0  0  0  0
  9  6  1  0  0  0  0
 10 17  1  0  0  0  0
 11  2  2  0  0  0  0
 12 11  1  0  0  0  0
 13 10  1  0  0  0  0
 14 19  1  0  0  0  0
 15  8  1  0  0  0  0
 15 23  1  0  0  0  0
 15  4  1  0  0  0  0
 16 13  1  0  0  0  0
 17 18  1  0  0  0  0
 19 11  1  0  0  0  0
 19  1  1  0  0  0  0
 21 20  1  0  0  0  0
 21 14  1  0  0  0  0
 22 21  2  0  0  0  0
 24 27  2  0  0  0  0
 25 27  1  0  0  0  0
 25 23  1  0  0  0  0
 27 26  1  0  0  0  0
 28 32  1  0  0  0  0
 28 33  1  0  0  0  0
 29 33  2  0  0  0  0
 31 33  1  0  0  0  0
 32 31  1  0  0  0  0
 32 25  1  0  0  0  0
 33 30  2  0  0  0  0
M  END
>  <MODEL>
2

>  <REMARK>
 VINA RESULT:      -7.1      4.887      6.132
  Name = 
  4 active torsions:
  status: ('A' for Active; 'I' for Inactive)
    1  A    between atoms: C_1  and  N_7
    2  A    between atoms: C_1  and  C_25
    3  A    between atoms: N_7  and  C_24
    4  A    between atoms: C_23  and  C_27
                            x       y       z     vdW  Elec       q    Type
                         _______ _______ _______ _____ _____    ______ ____

>  <TORSDO>
F 4

$$$$
=
 OpenBabel10222417593D

 33 38  0  0  1  0  0  0  0  0999 V2000
  188.2810  178.2290  140.3320 C   0  0  2  0  0  3  0  0  0  0  0  0
  190.5210  176.3530  140.5770 N   0  0  0  0  0  0  0  0  0  0  0  0
  188.7060  177.6400  141.6400 C   0  0  0  0  0  0  0  0  0  0  0  0
  190.9360  176.8700  136.9800 N   0  0  1  0  0  0  0  0  0  0  0  0
  186.7640  178.2970  140.2970 C   0  0  0  0  0  1  0  0  0  0  0  0
  191.1210  176.3100  143.8250 C   0  0  0  0  0  3  0  0  0  0  0  0
  189.7360  176.7180  141.7060 C   0  0  0  0  0  0  0  0  0  0  0  0
  189.7980  177.7810  136.6780 C   0  0  2  0  0  3  0  0  0  0  0  0
  190.0550  176.6730  143.0330 C   0  0  0  0  0  0  0  0  0  0  0  0
  189.6580  177.7490  144.8860 N   0  0  0  0  0  2  0  0  0  0  0  0
  190.1530  176.7200  139.3820 C   0  0  0  0  0  0  0  0  0  0  0  0
  190.9310  176.2920  138.2690 N   0  0  0  0  0  2  0  0  0  0  0  0
  189.2400  177.4690  143.6730 N   0  0  0  0  0  0  0  0  0  0  0  0
  188.8960  178.2400  137.8560 C   0  0  2  0  0  3  0  0  0  0  0  0
  189.7710  176.3930  136.1720 C   0  0  2  0  0  3  0  0  0  0  0  0
  188.4340  178.1490  142.8740 N   0  0  0  0  0  0  0  0  0  0  0  0
  190.7830  176.9940  145.0130 C   0  0  0  0  0  0  0  0  0  0  0  0
  191.6160  176.9850  146.2440 C   0  0  0  0  0  1  0  0  0  0  0  0
  188.8210  177.3950  139.1300 C   0  0  2  0  0  3  0  0  0  0  0  0
  186.4890  177.7250  137.3790 O   0  0  0  0  0  1  0  0  0  0  0  0
  187.5480  178.6260  137.3380 C   0  0  0  0  0  0  0  0  0  0  0  0
  187.3750  179.7680  136.8380 O   0  0  0  0  0  0  0  0  0  0  0  0
  188.7950  175.4450  136.8820 C   0  0  0  0  0  2  0  0  0  0  0  0
  187.1380  173.1240  134.5940 O   0  0  0  0  0  0  0  0  0  0  0  0
  188.5590  174.2520  136.0720 N   0  0  0  0  0  0  0  0  0  0  0  0
  186.5250  175.2990  135.1050 N   0  0  0  0  0  1  0  0  0  0  0  0
  187.3960  174.1780  135.2330 C   0  0  0  0  0  0  0  0  0  0  0  0
  190.5260  173.3340  137.1330 N   0  0  0  0  0  2  0  0  0  0  0  0
  192.5950  171.9540  136.1060 O   0  0  0  0  0  0  0  0  0  0  0  0
  192.4910  174.4340  135.6610 O   0  0  0  0  0  0  0  0  0  0  0  0
  190.3150  172.9210  134.9110 C   0  0  0  0  0  2  0  0  0  0  0  0
  189.4470  173.0860  136.1650 C   0  0  2  0  0  3  0  0  0  0  0  0
  191.7280  173.1650  135.9150 S   0  0  0  0  0  0  0  0  0  0  0  0
  1  5  1  1  0  0  0
  1  3  1  0  0  0  0
  2  7  1  0  0  0  0
  3  7  1  0  0  0  0
  3 16  2  0  0  0  0
  4 12  1  1  0  0  0
  6 17  2  0  0  0  0
  7  9  2  0  0  0  0
  8  4  1  0  0  0  0
  8 14  1  0  0  0  0
  9 13  1  0  0  0  0
  9  6  1  0  0  0  0
 10 17  1  0  0  0  0
 11  2  2  0  0  0  0
 12 11  1  0  0  0  0
 13 10  1  0  0  0  0
 14 19  1  0  0  0  0
 15  8  1  0  0  0  0
 15 23  1  0  0  0  0
 15  4  1  0  0  0  0
 16 13  1  0  0  0  0
 17 18  1  0  0  0  0
 19 11  1  0  0  0  0
 19  1  1  0  0  0  0
 21 20  1  0  0  0  0
 21 14  1  0  0  0  0
 22 21  2  0  0  0  0
 24 27  2  0  0  0  0
 25 32  1  0  0  0  0
 25 23  1  0  0  0  0
 26 27  1  0  0  0  0
 27 25  1  0  0  0  0
 30 33  2  0  0  0  0
 31 33  1  0  0  0  0
 31 32  1  0  0  0  0
 32 28  1  0  0  0  0
 33 29  2  0  0  0  0
 33 28  1  0  0  0  0
M  END
>  <MODEL>
3

>  <REMARK>
 VINA RESULT:      -7.1      5.493      7.269
  Name = 
  4 active torsions:
  status: ('A' for Active; 'I' for Inactive)
    1  A    between atoms: C_1  and  N_7
    2  A    between atoms: C_1  and  C_25
    3  A    between atoms: N_7  and  C_24
    4  A    between atoms: C_23  and  C_27
                            x       y       z     vdW  Elec       q    Type
                         _______ _______ _______ _____ _____    ______ ____

>  <TORSDO>
F 4

$$$$
=
 OpenBabel10222417593D

 33 38  0  0  1  0  0  0  0  0999 V2000
  182.9660  179.0350  143.3050 C   0  0  2  0  0  3  0  0  0  0  0  0
  185.1860  177.9410  141.7310 N   0  0  0  0  0  0  0  0  0  0  0  0
  184.1670  178.3990  143.9300 C   0  0  0  0  0  0  0  0  0  0  0  0
  183.3160  179.1590  138.8330 N   0  0  1  0  0  0  0  0  0  0  0  0
  181.7320  178.6310  144.0930 C   0  0  0  0  0  1  0  0  0  0  0  0
  187.5790  177.5430  143.9730 C   0  0  0  0  0  3  0  0  0  0  0  0
  185.1700  177.8480  143.1500 C   0  0  0  0  0  0  0  0  0  0  0  0
  182.0900  179.7050  139.4790 C   0  0  2  0  0  3  0  0  0  0  0  0
  186.2100  177.6820  144.0190 C   0  0  0  0  0  0  0  0  0  0  0  0
  186.8140  178.2530  146.0340 N   0  0  0  0  0  2  0  0  0  0  0  0
  184.1320  178.3700  141.0950 C   0  0  0  0  0  0  0  0  0  0  0  0
  184.1630  178.4000  139.6720 N   0  0  0  0  0  2  0  0  0  0  0  0
  185.8140  178.0640  145.2040 N   0  0  0  0  0  0  0  0  0  0  0  0
  181.9960  179.6540  141.0270 C   0  0  2  0  0  3  0  0  0  0  0  0
  181.9930  178.4850  138.6520 C   0  0  2  0  0  3  0  0  0  0  0  0
  184.5970  178.5820  145.2100 N   0  0  0  0  0  0  0  0  0  0  0  0
  187.9010  177.8780  145.3060 C   0  0  0  0  0  0  0  0  0  0  0  0
  189.2870  177.9230  145.8400 C   0  0  0  0  0  1  0  0  0  0  0  0
  182.8210  178.6270  141.8070 C   0  0  2  0  0  3  0  0  0  0  0  0
  179.8510  178.4960  141.6150 O   0  0  0  0  0  0  0  0  0  0  0  0
  180.5600  179.6800  141.4460 C   0  0  0  0  0  0  0  0  0  0  0  0
  179.9820  180.7840  141.6240 O   0  0  0  0  0  1  0  0  0  0  0  0
  181.7880  177.1730  139.4230 C   0  0  0  0  0  2  0  0  0  0  0  0
  179.2510  175.1520  137.7370 O   0  0  0  0  0  0  0  0  0  0  0  0
  181.2000  176.1550  138.5560 N   0  0  0  0  0  0  0  0  0  0  0  0
  178.9310  177.0460  139.0330 N   0  0  0  0  0  1  0  0  0  0  0  0
  179.7740  176.0760  138.4150 C   0  0  0  0  0  0  0  0  0  0  0  0
  183.4340  175.2600  138.3450 N   0  0  0  0  0  2  0  0  0  0  0  0
  184.8420  174.5460  136.1650 O   0  0  0  0  0  0  0  0  0  0  0  0
  184.5510  177.0080  136.6310 O   0  0  0  0  0  0  0  0  0  0  0  0
  182.2690  175.4820  136.4090 C   0  0  0  0  0  2  0  0  0  0  0  0
  182.0390  175.1520  137.8900 C   0  0  2  0  0  3  0  0  0  0  0  0
  183.9790  175.6250  136.7540 S   0  0  0  0  0  0  0  0  0  0  0  0
  1  3  1  0  0  0  0
  1  5  1  1  0  0  0
  2  7  1  0  0  0  0
  3 16  2  0  0  0  0
  4  8  1  0  0  0  0
  4 12  1  1  0  0  0
  6  9  1  0  0  0  0
  6 17  2  0  0  0  0
  7  3  1  0  0  0  0
  7  9  2  0  0  0  0
  8 14  1  0  0  0  0
  9 13  1  0  0  0  0
 11  2  2  0  0  0  0
 11 19  1  0  0  0  0
 12 11  1  0  0  0  0
 13 16  1  0  0  0  0
 13 10  1  0  0  0  0
 14 21  1  0  0  0  0
 14 19  1  0  0  0  0
 15  4  1  0  0  0  0
 15 23  1  0  0  0  0
 15  8  1  0  0  0  0
 17 18  1  0  0  0  0
 17 10  1  0  0  0  0
 19  1  1  0  0  0  0
 21 20  2  0  0  0  0
 21 22  1  0  0  0  0
 24 27  2  0  0  0  0
 25 23  1  0  0  0  0
 27 25  1  0  0  0  0
 27 26  1  0  0  0  0
 29 33  2  0  0  0  0
 30 33  2  0  0  0  0
 31 33  1  0  0  0  0
 31 32  1  0  0  0  0
 32 28  1  0  0  0  0
 32 25  1  0  0  0  0
 33 28  1  0  0  0  0
M  END
>  <MODEL>
4

>  <REMARK>
 VINA RESULT:      -7.0      1.592      2.830
  Name = 
  4 active torsions:
  status: ('A' for Active; 'I' for Inactive)
    1  A    between atoms: C_1  and  N_7
    2  A    between atoms: C_1  and  C_25
    3  A    between atoms: N_7  and  C_24
    4  A    between atoms: C_23  and  C_27
                            x       y       z     vdW  Elec       q    Type
                         _______ _______ _______ _____ _____    ______ ____

>  <TORSDO>
F 4

$$$$
=
 OpenBabel10222417593D

 33 38  0  0  1  0  0  0  0  0999 V2000
  182.6760  179.1780  142.9740 C   0  0  2  0  0  3  0  0  0  0  0  0
  185.4440  178.3590  142.4590 N   0  0  0  0  0  0  0  0  0  0  0  0
  183.5860  178.6780  144.0500 C   0  0  0  0  0  0  0  0  0  0  0  0
  184.7710  179.3800  139.0130 N   0  0  1  0  0  0  0  0  0  0  0  0
  181.2810  178.6280  143.2190 C   0  0  0  0  0  1  0  0  0  0  0  0
  186.7660  178.2180  145.4830 C   0  0  0  0  0  3  0  0  0  0  0  0
  184.8700  178.2520  143.7570 C   0  0  0  0  0  0  0  0  0  0  0  0
  183.3390  179.7770  139.0940 C   0  0  2  0  0  3  0  0  0  0  0  0
  185.4870  178.1990  144.9750 C   0  0  0  0  0  0  0  0  0  0  0  0
  185.1670  178.8170  147.0390 N   0  0  0  0  0  2  0  0  0  0  0  0
  184.6940  178.6700  141.4400 C   0  0  0  0  0  0  0  0  0  0  0  0
  185.2880  178.7150  140.1470 N   0  0  0  0  0  2  0  0  0  0  0  0
  184.6100  178.5220  145.8880 N   0  0  0  0  0  0  0  0  0  0  0  0
  182.6380  179.7010  140.4770 C   0  0  2  0  0  3  0  0  0  0  0  0
  183.7140  178.5600  138.3440 C   0  0  2  0  0  3  0  0  0  0  0  0
  183.4440  178.8980  145.3870 N   0  0  0  0  0  0  0  0  0  0  0  0
  186.4880  178.5750  146.8210 C   0  0  0  0  0  0  0  0  0  0  0  0
  187.5310  178.7750  147.8620 C   0  0  0  0  0  1  0  0  0  0  0  0
  183.1870  178.7680  141.5590 C   0  0  2  0  0  3  0  0  0  0  0  0
  180.6020  178.3210  139.9900 O   0  0  0  0  0  0  0  0  0  0  0  0
  181.1610  179.5590  140.2870 C   0  0  0  0  0  0  0  0  0  0  0  0
  180.4200  180.5740  140.3720 O   0  0  0  0  0  1  0  0  0  0  0  0
  183.3600  177.2270  139.0190 C   0  0  0  0  0  2  0  0  0  0  0  0
  182.0320  174.2260  137.4080 O   0  0  0  0  0  0  0  0  0  0  0  0
  183.1630  176.1820  138.0170 N   0  0  0  0  0  0  0  0  0  0  0  0
  181.2800  175.2530  139.3440 N   0  0  0  0  0  1  0  0  0  0  0  0
  182.1570  175.1790  138.2220 C   0  0  0  0  0  0  0  0  0  0  0  0
  184.0150  174.7230  136.2900 N   0  0  0  0  0  2  0  0  0  0  0  0
  186.5050  174.4220  135.3150 O   0  0  0  0  0  0  0  0  0  0  0  0
  186.0020  173.4580  137.5910 O   0  0  0  0  0  0  0  0  0  0  0  0
  185.5220  176.1440  137.2190 C   0  0  0  0  0  2  0  0  0  0  0  0
  184.0360  176.0870  136.8410 C   0  0  2  0  0  3  0  0  0  0  0  0
  185.7000  174.5250  136.5780 S   0  0  0  0  0  0  0  0  0  0  0  0
  1  5  1  1  0  0  0
  1  3  1  0  0  0  0
  2  7  1  0  0  0  0
  3 16  2  0  0  0  0
  4  8  1  0  0  0  0
  4 12  1  1  0  0  0
  6 17  2  0  0  0  0
  7  3  1  0  0  0  0
  7  9  2  0  0  0  0
  8 14  1  0  0  0  0
  9  6  1  0  0  0  0
  9 13  1  0  0  0  0
 11 19  1  0  0  0  0
 11  2  2  0  0  0  0
 12 11  1  0  0  0  0
 13 10  1  0  0  0  0
 14 19  1  0  0  0  0
 15  4  1  0  0  0  0
 15 23  1  0  0  0  0
 15  8  1  0  0  0  0
 16 13  1  0  0  0  0
 17 10  1  0  0  0  0
 17 18  1  0  0  0  0
 19  1  1  0  0  0  0
 20 21  2  0  0  0  0
 21 22  1  0  0  0  0
 21 14  1  0  0  0  0
 24 27  2  0  0  0  0
 25 27  1  0  0  0  0
 25 23  1  0  0  0  0
 27 26  1  0  0  0  0
 28 33  1  0  0  0  0
 28 32  1  0  0  0  0
 29 33  2  0  0  0  0
 32 31  1  0  0  0  0
 32 25  1  0  0  0  0
 33 31  1  0  0  0  0
 33 30  2  0  0  0  0
M  END
>  <MODEL>
5

>  <REMARK>
 VINA RESULT:      -6.8      1.496      2.641
  Name = 
  4 active torsions:
  status: ('A' for Active; 'I' for Inactive)
    1  A    between atoms: C_1  and  N_7
    2  A    between atoms: C_1  and  C_25
    3  A    between atoms: N_7  and  C_24
    4  A    between atoms: C_23  and  C_27
                            x       y       z     vdW  Elec       q    Type
                         _______ _______ _______ _____ _____    ______ ____

>  <TORSDO>
F 4

$$$$
=
 OpenBabel10222417593D

 33 38  0  0  1  0  0  0  0  0999 V2000
  187.2210  178.4320  140.3620 C   0  0  2  0  0  3  0  0  0  0  0  0
  189.4290  176.7630  141.3290 N   0  0  0  0  0  0  0  0  0  0  0  0
  187.2880  177.9080  141.7610 C   0  0  0  0  0  0  0  0  0  0  0  0
  190.8390  177.2460  137.9890 N   0  0  1  0  0  0  0  0  0  0  0  0
  185.7800  178.3690  139.8840 C   0  0  0  0  0  1  0  0  0  0  0  0
  189.0510  176.8340  144.6090 C   0  0  0  0  0  3  0  0  0  0  0  0
  188.3220  177.0800  142.1640 C   0  0  0  0  0  0  0  0  0  0  0  0
  189.7730  178.0490  137.3290 C   0  0  2  0  0  3  0  0  0  0  0  0
  188.2390  177.0880  143.5270 C   0  0  0  0  0  0  0  0  0  0  0  0
  187.2350  178.1610  145.1360 N   0  0  0  0  0  2  0  0  0  0  0  0
  189.4000  177.0740  140.0630 C   0  0  0  0  0  0  0  0  0  0  0  0
  190.5010  176.6930  139.2450 N   0  0  0  0  0  2  0  0  0  0  0  0
  187.2140  177.8220  143.8670 N   0  0  0  0  0  0  0  0  0  0  0  0
  188.5330  178.4490  138.1730 C   0  0  2  0  0  3  0  0  0  0  0  0
  190.0030  176.6540  136.8980 C   0  0  2  0  0  3  0  0  0  0  0  0
  186.6280  178.4150  142.8400 N   0  0  0  0  0  0  0  0  0  0  0  0
  188.3280  177.5090  145.6170 C   0  0  0  0  0  0  0  0  0  0  0  0
  188.7620  177.5950  147.0360 C   0  0  0  0  0  1  0  0  0  0  0  0
  188.1520  177.6260  139.4060 C   0  0  2  0  0  3  0  0  0  0  0  0
  186.4200  177.7190  137.0390 O   0  0  0  0  0  1  0  0  0  0  0  0
  187.3700  178.7070  137.2690 C   0  0  0  0  0  0  0  0  0  0  0  0
  187.2620  179.8220  136.6930 O   0  0  0  0  0  0  0  0  0  0  0  0
  188.9380  175.6380  137.3340 C   0  0  0  0  0  2  0  0  0  0  0  0
  190.3460  172.6130  135.8410 O   0  0  0  0  0  0  0  0  0  0  0  0
  189.0310  174.4210  136.5310 N   0  0  0  0  0  0  0  0  0  0  0  0
  191.2670  173.9420  137.5010 N   0  0  0  0  0  1  0  0  0  0  0  0
  190.2190  173.6190  136.5890 C   0  0  0  0  0  0  0  0  0  0  0  0
  187.0080  175.1560  135.4320 N   0  0  0  0  0  2  0  0  0  0  0  0
  184.6700  173.8870  135.0260 O   0  0  0  0  0  0  0  0  0  0  0  0
  185.1720  174.7270  137.3520 O   0  0  0  0  0  0  0  0  0  0  0  0
  187.0000  173.0190  136.1990 C   0  0  0  0  0  2  0  0  0  0  0  0
  187.9630  174.0490  135.5950 C   0  0  2  0  0  3  0  0  0  0  0  0
  185.7180  174.2020  136.0540 S   0  0  0  0  0  0  0  0  0  0  0  0
  1  5  1  6  0  0  0
  1  3  1  0  0  0  0
  2  7  1  0  0  0  0
  3  7  1  0  0  0  0
  3 16  2  0  0  0  0
  4 12  1  1  0  0  0
  6 17  2  0  0  0  0
  7  9  2  0  0  0  0
  8  4  1  0  0  0  0
  8 14  1  0  0  0  0
  9 13  1  0  0  0  0
  9  6  1  0  0  0  0
 10 17  1  0  0  0  0
 11  2  2  0  0  0  0
 12 11  1  0  0  0  0
 13 10  1  0  0  0  0
 14 19  1  0  0  0  0
 15  8  1  0  0  0  0
 15 23  1  0  0  0  0
 15  4  1  0  0  0  0
 16 13  1  0  0  0  0
 17 18  1  0  0  0  0
 19 11  1  0  0  0  0
 19  1  1  0  0  0  0
 20 21  1  0  0  0  0
 21 14  1  0  0  0  0
 22 21  2  0  0  0  0
 24 27  2  0  0  0  0
 25 27  1  0  0  0  0
 25 23  1  0  0  0  0
 27 26  1  0  0  0  0
 28 32  1  0  0  0  0
 28 33  1  0  0  0  0
 29 33  2  0  0  0  0
 32 31  1  0  0  0  0
 32 25  1  0  0  0  0
 33 31  1  0  0  0  0
 33 30  2  0  0  0  0
M  END
>  <MODEL>
6

>  <REMARK>
 VINA RESULT:      -6.8      4.304      5.680
  Name = 
  4 active torsions:
  status: ('A' for Active; 'I' for Inactive)
    1  A    between atoms: C_1  and  N_7
    2  A    between atoms: C_1  and  C_25
    3  A    between atoms: N_7  and  C_24
    4  A    between atoms: C_23  and  C_27
                            x       y       z     vdW  Elec       q    Type
                         _______ _______ _______ _____ _____    ______ ____

>  <TORSDO>
F 4

$$$$
=
 OpenBabel10222417593D

 33 38  0  0  1  0  0  0  0  0999 V2000
  187.9220  177.9580  142.3720 C   0  0  2  0  0  3  0  0  0  0  0  0
  190.5650  176.7180  142.0880 N   0  0  0  0  0  0  0  0  0  0  0  0
  188.6280  177.2860  143.5060 C   0  0  0  0  0  0  0  0  0  0  0  0
  190.4160  177.9340  138.6420 N   0  0  1  0  0  0  0  0  0  0  0  0
  186.4410  177.6330  142.4570 C   0  0  0  0  0  1  0  0  0  0  0  0
  191.5330  176.2780  145.2160 C   0  0  0  0  0  3  0  0  0  0  0  0
  189.8530  176.6680  143.3190 C   0  0  0  0  0  0  0  0  0  0  0  0
  189.0630  178.5540  138.6040 C   0  0  2  0  0  3  0  0  0  0  0  0
  190.3260  176.4810  144.5870 C   0  0  0  0  0  0  0  0  0  0  0  0
  189.8990  177.0820  146.6370 N   0  0  0  0  0  2  0  0  0  0  0  0
  189.9800  177.1750  141.0170 C   0  0  0  0  0  0  0  0  0  0  0  0
  190.7030  177.1620  139.7900 N   0  0  0  0  0  2  0  0  0  0  0  0
  189.4230  176.9140  145.4250 N   0  0  0  0  0  0  0  0  0  0  0  0
  188.2220  178.5520  139.9090 C   0  0  2  0  0  3  0  0  0  0  0  0
  189.3160  177.3140  137.8390 C   0  0  2  0  0  3  0  0  0  0  0  0
  188.3880  177.4870  144.8320 N   0  0  0  0  0  0  0  0  0  0  0  0
  191.1810  176.6370  146.5350 C   0  0  0  0  0  0  0  0  0  0  0  0
  192.1300  176.6350  147.6790 C   0  0  0  0  0  1  0  0  0  0  0  0
  188.5040  177.5120  140.9960 C   0  0  2  0  0  3  0  0  0  0  0  0
  185.9020  179.3750  140.3870 O   0  0  0  0  0  1  0  0  0  0  0  0
  186.7680  178.6560  139.5710 C   0  0  0  0  0  0  0  0  0  0  0  0
  186.3210  178.0680  138.5520 O   0  0  0  0  0  0  0  0  0  0  0  0
  188.6900  176.0370  138.4170 C   0  0  0  0  0  2  0  0  0  0  0  0
  190.0830  173.3960  136.3090 O   0  0  0  0  0  0  0  0  0  0  0  0
  188.7510  174.9500  137.4420 N   0  0  0  0  0  0  0  0  0  0  0  0
  191.1480  174.5890  137.9840 N   0  0  0  0  0  1  0  0  0  0  0  0
  189.9970  174.2770  137.2040 C   0  0  0  0  0  0  0  0  0  0  0  0
  187.7030  175.1340  135.2730 N   0  0  0  0  0  2  0  0  0  0  0  0
  185.1520  175.6560  134.5940 O   0  0  0  0  0  0  0  0  0  0  0  0
  186.5670  177.5680  135.4340 O   0  0  0  0  0  0  0  0  0  0  0  0
  186.3240  175.3610  137.0630 C   0  0  0  0  0  2  0  0  0  0  0  0
  187.5800  174.5900  136.6340 C   0  0  2  0  0  3  0  0  0  0  0  0
  186.2880  176.0930  135.4730 S   0  0  0  0  0  0  0  0  0  0  0  0
  1  5  1  6  0  0  0
  1  3  1  0  0  0  0
  2  7  1  0  0  0  0
  3 16  2  0  0  0  0
  4 12  1  1  0  0  0
  6 17  2  0  0  0  0
  7  3  1  0  0  0  0
  7  9  2  0  0  0  0
  8  4  1  0  0  0  0
  8 14  1  0  0  0  0
  9  6  1  0  0  0  0
  9 13  1  0  0  0  0
 11  2  2  0  0  0  0
 12 11  1  0  0  0  0
 13 10  1  0  0  0  0
 14 19  1  0  0  0  0
 15 23  1  0  0  0  0
 15  8  1  0  0  0  0
 15  4  1  0  0  0  0
 16 13  1  0  0  0  0
 17 10  1  0  0  0  0
 17 18  1  0  0  0  0
 19 11  1  0  0  0  0
 19  1  1  0  0  0  0
 21 14  1  0  0  0  0
 21 20  1  0  0  0  0
 22 21  2  0  0  0  0
 24 27  2  0  0  0  0
 25 23  1  0  0  0  0
 27 25  1  0  0  0  0
 27 26  1  0  0  0  0
 28 33  1  0  0  0  0
 28 32  1  0  0  0  0
 29 33  2  0  0  0  0
 30 33  2  0  0  0  0
 32 31  1  0  0  0  0
 32 25  1  0  0  0  0
 33 31  1  0  0  0  0
M  END
>  <MODEL>
7

>  <REMARK>
 VINA RESULT:      -6.6      4.714      5.849
  Name = 
  4 active torsions:
  status: ('A' for Active; 'I' for Inactive)
    1  A    between atoms: C_1  and  N_7
    2  A    between atoms: C_1  and  C_25
    3  A    between atoms: N_7  and  C_24
    4  A    between atoms: C_23  and  C_27
                            x       y       z     vdW  Elec       q    Type
                         _______ _______ _______ _____ _____    ______ ____

>  <TORSDO>
F 4

$$$$
=
 OpenBabel10222417593D

 33 38  0  0  1  0  0  0  0  0999 V2000
  183.6800  176.1110  137.7050 C   0  0  2  0  0  3  0  0  0  0  0  0
  184.3240  178.4760  139.3150 N   0  0  0  0  0  0  0  0  0  0  0  0
  182.8740  176.5260  138.8940 C   0  0  0  0  0  0  0  0  0  0  0  0
  187.0200  178.9970  136.8990 N   0  0  1  0  0  0  0  0  0  0  0  0
  183.7870  174.5960  137.6910 C   0  0  0  0  0  1  0  0  0  0  0  0
  181.5850  178.9430  141.1020 C   0  0  0  0  0  3  0  0  0  0  0  0
  183.2410  177.6200  139.6590 C   0  0  0  0  0  0  0  0  0  0  0  0
  186.8640  177.8070  136.0190 C   0  0  2  0  0  3  0  0  0  0  0  0
  182.1310  177.8860  140.4090 C   0  0  0  0  0  0  0  0  0  0  0  0
  180.0270  177.3330  140.5380 N   0  0  0  0  0  2  0  0  0  0  0  0
  185.1520  178.1300  138.3700 C   0  0  0  0  0  0  0  0  0  0  0  0
  186.2560  178.9840  138.0880 N   0  0  0  0  0  2  0  0  0  0  0  0
  181.2250  176.9880  140.1270 N   0  0  0  0  0  0  0  0  0  0  0  0
  185.6990  176.8250  136.3170 C   0  0  2  0  0  3  0  0  0  0  0  0
  188.0440  177.9060  136.9040 C   0  0  2  0  0  3  0  0  0  0  0  0
  181.5860  176.1660  139.1550 N   0  0  0  0  0  0  0  0  0  0  0  0
  180.2450  178.5060  141.1930 C   0  0  0  0  0  0  0  0  0  0  0  0
  179.1580  179.2870  141.8390 C   0  0  0  0  0  1  0  0  0  0  0  0
  185.0970  176.7620  137.7230 C   0  0  2  0  0  3  0  0  0  0  0  0
  186.7380  174.5530  136.5260 O   0  0  0  0  0  1  0  0  0  0  0  0
  186.0250  175.4740  135.7660 C   0  0  0  0  0  0  0  0  0  0  0  0
  185.6710  175.1740  134.5950 O   0  0  0  0  0  0  0  0  0  0  0  0
  188.0380  176.9760  138.1260 C   0  0  0  0  0  2  0  0  0  0  0  0
  191.3820  175.6190  138.7130 O   0  0  0  0  0  0  0  0  0  0  0  0
  189.3870  176.8420  138.6730 N   0  0  0  0  0  0  0  0  0  0  0  0
  189.8380  174.9580  137.1170 N   0  0  0  0  0  1  0  0  0  0  0  0
  190.2490  175.7980  138.1930 C   0  0  0  0  0  0  0  0  0  0  0  0
  190.4150  176.8910  140.8580 N   0  0  0  0  0  2  0  0  0  0  0  0
  189.7990  178.3140  143.0580 O   0  0  0  0  0  0  0  0  0  0  0  0
  188.3100  176.3700  142.4510 O   0  0  0  0  0  0  0  0  0  0  0  0
  188.6820  178.3240  140.5460 C   0  0  0  0  0  2  0  0  0  0  0  0
  189.8490  177.7010  139.7680 C   0  0  2  0  0  3  0  0  0  0  0  0
  189.2260  177.4570  141.9650 S   0  0  0  0  0  0  0  0  0  0  0  0
  1  5  1  1  0  0  0
  1 19  1  0  0  0  0
  1  3  1  0  0  0  0
  2  7  1  0  0  0  0
  3 16  2  0  0  0  0
  3  7  1  0  0  0  0
  4 15  1  0  0  0  0
  4 12  1  1  0  0  0
  6 17  2  0  0  0  0
  7  9  2  0  0  0  0
  8 14  1  0  0  0  0
  8  4  1  0  0  0  0
  8 15  1  0  0  0  0
  9  6  1  0  0  0  0
 10 17  1  0  0  0  0
 11  2  2  0  0  0  0
 12 11  1  0  0  0  0
 13  9  1  0  0  0  0
 13 10  1  0  0  0  0
 14 19  1  0  0  0  0
 15 23  1  0  0  0  0
 16 13  1  0  0  0  0
 17 18  1  0  0  0  0
 19 11  1  0  0  0  0
 21 14  1  0  0  0  0
 21 20  1  0  0  0  0
 22 21  2  0  0  0  0
 23 25  1  0  0  0  0
 25 32  1  0  0  0  0
 26 27  1  0  0  0  0
 27 25  1  0  0  0  0
 27 24  2  0  0  0  0
 28 33  1  0  0  0  0
 31 33  1  0  0  0  0
 32 31  1  0  0  0  0
 32 28  1  0  0  0  0
 33 30  2  0  0  0  0
 33 29  2  0  0  0  0
M  END
>  <MODEL>
8

>  <REMARK>
 VINA RESULT:      -6.6      4.777      7.083
  Name = 
  4 active torsions:
  status: ('A' for Active; 'I' for Inactive)
    1  A    between atoms: C_1  and  N_7
    2  A    between atoms: C_1  and  C_25
    3  A    between atoms: N_7  and  C_24
    4  A    between atoms: C_23  and  C_27
                            x       y       z     vdW  Elec       q    Type
                         _______ _______ _______ _____ _____    ______ ____

>  <TORSDO>
F 4

$$$$
=
 OpenBabel10222417593D

 33 38  0  0  1  0  0  0  0  0999 V2000
  187.7880  177.9310  142.3170 C   0  0  2  0  0  3  0  0  0  0  0  0
  190.5220  176.9090  142.0260 N   0  0  0  0  0  0  0  0  0  0  0  0
  188.5320  177.2760  143.4370 C   0  0  0  0  0  0  0  0  0  0  0  0
  190.3160  178.2290  138.6220 N   0  0  1  0  0  0  0  0  0  0  0  0
  186.3360  177.4900  142.3710 C   0  0  0  0  0  1  0  0  0  0  0  0
  191.4880  176.4360  145.1500 C   0  0  0  0  0  3  0  0  0  0  0  0
  189.8020  176.7610  143.2450 C   0  0  0  0  0  0  0  0  0  0  0  0
  188.9200  178.7440  138.5860 C   0  0  2  0  0  3  0  0  0  0  0  0
  190.2750  176.5670  144.5120 C   0  0  0  0  0  0  0  0  0  0  0  0
  189.7810  177.0620  146.5750 N   0  0  0  0  0  2  0  0  0  0  0  0
  189.9150  177.3570  140.9630 C   0  0  0  0  0  0  0  0  0  0  0  0
  190.6500  177.4420  139.7470 N   0  0  0  0  0  2  0  0  0  0  0  0
  189.3320  176.9000  145.3520 N   0  0  0  0  0  0  0  0  0  0  0  0
  188.0670  178.6320  139.8790 C   0  0  2  0  0  3  0  0  0  0  0  0
  189.2760  177.5550  137.7840 C   0  0  2  0  0  3  0  0  0  0  0  0
  188.2620  177.4120  144.7650 N   0  0  0  0  0  0  0  0  0  0  0  0
  191.0950  176.7200  146.4760 C   0  0  0  0  0  0  0  0  0  0  0  0
  192.0290  176.7520  147.6320 C   0  0  0  0  0  1  0  0  0  0  0  0
  188.4180  177.5800  140.9340 C   0  0  2  0  0  3  0  0  0  0  0  0
  185.6980  179.3360  140.3030 O   0  0  0  0  0  1  0  0  0  0  0  0
  186.6140  178.6350  139.5260 C   0  0  0  0  0  0  0  0  0  0  0  0
  186.2120  177.9790  138.5290 O   0  0  0  0  0  0  0  0  0  0  0  0
  188.7440  176.2140  138.3090 C   0  0  0  0  0  2  0  0  0  0  0  0
  187.4090  174.2150  135.5550 O   0  0  0  0  0  0  0  0  0  0  0  0
  188.6890  175.2280  137.2320 N   0  0  0  0  0  0  0  0  0  0  0  0
  186.4190  176.0230  136.6110 N   0  0  0  0  0  1  0  0  0  0  0  0
  187.5020  175.1140  136.4310 C   0  0  0  0  0  0  0  0  0  0  0  0
  190.8730  174.5190  137.9800 N   0  0  0  0  0  2  0  0  0  0  0  0
  193.0900  173.8940  136.5870 O   0  0  0  0  0  0  0  0  0  0  0  0
  192.4630  176.3290  136.7810 O   0  0  0  0  0  0  0  0  0  0  0  0
  190.5790  174.6160  135.7310 C   0  0  0  0  0  2  0  0  0  0  0  0
  189.7940  174.2890  137.0070 C   0  0  2  0  0  3  0  0  0  0  0  0
  191.9880  174.9050  136.7280 S   0  0  0  0  0  0  0  0  0  0  0  0
  1  5  1  6  0  0  0
  1  3  1  0  0  0  0
  2  7  1  0  0  0  0
  3 16  2  0  0  0  0
  4 12  1  1  0  0  0
  6 17  2  0  0  0  0
  7  3  1  0  0  0  0
  7  9  2  0  0  0  0
  8  4  1  0  0  0  0
  8 14  1  0  0  0  0
  9  6  1  0  0  0  0
  9 13  1  0  0  0  0
 11  2  2  0  0  0  0
 12 11  1  0  0  0  0
 13 10  1  0  0  0  0
 14 19  1  0  0  0  0
 15 23  1  0  0  0  0
 15  8  1  0  0  0  0
 15  4  1  0  0  0  0
 16 13  1  0  0  0  0
 17 10  1  0  0  0  0
 17 18  1  0  0  0  0
 19 11  1  0  0  0  0
 19  1  1  0  0  0  0
 21 14  1  0  0  0  0
 21 20  1  0  0  0  0
 22 21  2  0  0  0  0
 24 27  2  0  0  0  0
 25 23  1  0  0  0  0
 27 26  1  0  0  0  0
 27 25  1  0  0  0  0
 29 33  2  0  0  0  0
 31 33  1  0  0  0  0
 31 32  1  0  0  0  0
 32 25  1  0  0  0  0
 32 28  1  0  0  0  0
 33 30  2  0  0  0  0
 33 28  1  0  0  0  0
M  END
>  <MODEL>
9

>  <REMARK>
 VINA RESULT:      -6.5      5.152      6.733
  Name = 
  4 active torsions:
  status: ('A' for Active; 'I' for Inactive)
    1  A    between atoms: C_1  and  N_7
    2  A    between atoms: C_1  and  C_25
    3  A    between atoms: N_7  and  C_24
    4  A    between atoms: C_23  and  C_27
                            x       y       z     vdW  Elec       q    Type
                         _______ _______ _______ _____ _____    ______ ____

>  <TORSDO>
F 4

$$$$
