=
 OpenBabel10222416003D

 25 28  0  0  1  0  0  0  0  0999 V2000
  184.5040  178.6020  144.8550 C   0  0  0  0  0  0  0  0  0  0  0  0
  184.2130  178.8310  146.1660 N   0  0  0  0  0  2  0  0  0  0  0  0
  187.9460  177.7890  144.8930 C   0  0  0  0  0  0  0  0  0  0  0  0
  186.4350  178.3920  146.9040 C   0  0  0  0  0  0  0  0  0  0  0  0
  183.4470  178.7260  143.8150 C   0  0  0  0  0  1  0  0  0  0  0  0
  190.2220  177.1800  144.3810 C   0  0  0  0  0  0  0  0  0  0  0  0
  186.3090  177.9830  143.3090 N   0  0  0  0  0  0  0  0  0  0  0  0
  185.1320  178.7310  147.1380 N   0  0  0  0  0  0  0  0  0  0  0  0
  186.7970  178.1440  145.5730 C   0  0  0  0  0  0  0  0  0  0  0  0
  189.8710  177.0950  143.0070 C   0  0  0  0  0  0  0  0  0  0  0  0
  187.6090  177.7040  143.5520 C   0  0  0  0  0  0  0  0  0  0  0  0
  189.2410  177.5280  145.3330 C   0  0  0  0  0  3  0  0  0  0  0  0
  185.8060  178.2540  144.5320 C   0  0  0  0  0  0  0  0  0  0  0  0
  188.5530  177.3550  142.5920 C   0  0  0  0  0  3  0  0  0  0  0  0
  191.8420  177.2370  146.1660 O   0  0  0  0  0  0  0  0  0  0  0  0
  192.0460  175.8940  146.5240 C   0  0  0  0  0  2  0  0  0  0  0  0
  191.6300  176.8700  144.8270 C   0  0  1  0  0  3  0  0  0  0  0  0
  191.8080  175.4060  145.1210 C   0  0  0  0  0  2  0  0  0  0  0  0
  187.3440  178.3170  148.0580 C   0  0  0  0  0  3  0  0  0  0  0  0
  187.9110  177.2540  148.4160 O   0  0  0  0  0  0  0  0  0  0  0  0
  190.8730  176.6950  141.9760 C   0  0  0  0  0  2  0  0  0  0  0  0
  190.1990  176.3960  140.7240 N   0  0  0  0  0  2  0  0  0  0  0  0
  190.8810  177.1550  139.6920 C   0  0  0  0  0  2  0  0  0  0  0  0
  189.1230  178.5230  139.0150 C   0  0  0  0  0  1  0  0  0  0  0  0
  189.9640  177.4170  138.5990 N   0  0  0  0  0  2  0  0  0  0  0  0
  1  2  1  0  0  0  0
  2  8  1  0  0  0  0
  3 12  1  0  0  0  0
  3  9  2  0  0  0  0
  4  8  2  0  0  0  0
  4 19  1  0  0  0  0
  5  1  1  0  0  0  0
  6 12  2  0  0  0  0
  7 11  2  0  0  0  0
  7 13  1  0  0  0  0
  9  4  1  0  0  0  0
 10  6  1  0  0  0  0
 11  3  1  0  0  0  0
 13  1  2  0  0  0  0
 13  9  1  0  0  0  0
 14 10  2  0  0  0  0
 14 11  1  0  0  0  0
 15 16  1  0  0  0  0
 17  6  1  1  0  0  0
 17 18  1  0  0  0  0
 17 15  1  0  0  0  0
 18 16  1  0  0  0  0
 19 20  2  0  0  0  0
 21 10  1  0  0  0  0
 22 21  1  0  0  0  0
 23 22  1  0  0  0  0
 25 24  1  0  0  0  0
 25 23  1  0  0  0  0
M  END
>  <MODEL>
1

>  <REMARK>
 VINA RESULT:      -8.7      0.000      0.000
  Name = 
  6 active torsions:
  status: ('A' for Active; 'I' for Inactive)
    1  A    between atoms: C_6  and  N_11
    2  A    between atoms: C_6  and  C_18
    3  A    between atoms: C_7  and  C_8
    4  A    between atoms: N_11  and  C_16
    5  A    between atoms: C_12  and  C_20
    6  A    between atoms: C_16  and  N_24
                            x       y       z     vdW  Elec       q    Type
                         _______ _______ _______ _____ _____    ______ ____

>  <TORSDO>
F 6

$$$$
=
 OpenBabel10222416003D

 25 28  0  0  1  0  0  0  0  0999 V2000
  184.0900  178.7420  144.8690 C   0  0  0  0  0  0  0  0  0  0  0  0
  184.0370  178.7730  146.2300 N   0  0  0  0  0  2  0  0  0  0  0  0
  187.4680  177.9480  144.1810 C   0  0  0  0  0  0  0  0  0  0  0  0
  186.3440  178.2420  146.4930 C   0  0  0  0  0  0  0  0  0  0  0  0
  182.8700  179.0130  144.0610 C   0  0  0  0  0  1  0  0  0  0  0  0
  189.6050  177.4330  143.1920 C   0  0  0  0  0  0  0  0  0  0  0  0
  185.5830  178.3660  142.9550 N   0  0  0  0  0  0  0  0  0  0  0  0
  185.1100  178.5360  147.0000 N   0  0  0  0  0  0  0  0  0  0  0  0
  186.4630  178.1940  145.0960 C   0  0  0  0  0  0  0  0  0  0  0  0
  189.0180  177.5500  141.9040 C   0  0  0  0  0  0  0  0  0  0  0  0
  186.8990  178.0600  142.9220 C   0  0  0  0  0  0  0  0  0  0  0  0
  188.8130  177.6320  144.3430 C   0  0  0  0  0  3  0  0  0  0  0  0
  185.3070  178.4520  144.2740 C   0  0  0  0  0  0  0  0  0  0  0  0
  187.6530  177.8620  141.7700 C   0  0  0  0  0  3  0  0  0  0  0  0
  191.6050  177.5550  144.5330 O   0  0  0  0  0  0  0  0  0  0  0  0
  191.8250  176.2450  144.9910 C   0  0  0  0  0  2  0  0  0  0  0  0
  191.0620  177.0680  143.3330 C   0  0  1  0  0  3  0  0  0  0  0  0
  191.2360  175.6320  143.7500 C   0  0  0  0  0  2  0  0  0  0  0  0
  187.4390  178.0010  147.4450 C   0  0  0  0  0  3  0  0  0  0  0  0
  187.5030  178.5570  148.5710 O   0  0  0  0  0  0  0  0  0  0  0  0
  189.8150  177.3110  140.6650 C   0  0  0  0  0  2  0  0  0  0  0  0
  188.9280  177.2240  139.5180 N   0  0  0  0  0  2  0  0  0  0  0  0
  189.5250  178.0250  138.4670 C   0  0  0  0  0  2  0  0  0  0  0  0
  187.3210  178.1410  137.7290 C   0  0  0  0  0  1  0  0  0  0  0  0
  188.5280  178.9230  137.9170 N   0  0  0  0  0  2  0  0  0  0  0  0
  1  2  1  0  0  0  0
  2  8  1  0  0  0  0
  3 12  1  0  0  0  0
  3  9  2  0  0  0  0
  4  8  2  0  0  0  0
  4 19  1  0  0  0  0
  5  1  1  0  0  0  0
  6 12  2  0  0  0  0
  7 13  1  0  0  0  0
  9  4  1  0  0  0  0
 10  6  1  0  0  0  0
 11  7  2  0  0  0  0
 11  3  1  0  0  0  0
 13  1  2  0  0  0  0
 13  9  1  0  0  0  0
 14 10  2  0  0  0  0
 14 11  1  0  0  0  0
 15 16  1  0  0  0  0
 17  6  1  1  0  0  0
 17 18  1  0  0  0  0
 17 15  1  0  0  0  0
 18 16  1  0  0  0  0
 19 20  2  0  0  0  0
 21 10  1  0  0  0  0
 22 21  1  0  0  0  0
 23 22  1  0  0  0  0
 24 25  1  0  0  0  0
 25 23  1  0  0  0  0
M  END
>  <MODEL>
2

>  <REMARK>
 VINA RESULT:      -8.2      1.127      1.337
  Name = 
  6 active torsions:
  status: ('A' for Active; 'I' for Inactive)
    1  A    between atoms: C_6  and  N_11
    2  A    between atoms: C_6  and  C_18
    3  A    between atoms: C_7  and  C_8
    4  A    between atoms: N_11  and  C_16
    5  A    between atoms: C_12  and  C_20
    6  A    between atoms: C_16  and  N_24
                            x       y       z     vdW  Elec       q    Type
                         _______ _______ _______ _____ _____    ______ ____

>  <TORSDO>
F 6

$$$$
=
 OpenBabel10222416003D

 25 28  0  0  1  0  0  0  0  0999 V2000
  189.3620  177.8180  140.2020 C   0  0  0  0  0  0  0  0  0  0  0  0
  190.6770  177.4660  140.1660 N   0  0  0  0  0  0  0  0  0  0  0  0
  188.5210  177.5640  143.6280 C   0  0  0  0  0  0  0  0  0  0  0  0
  190.8100  177.0990  142.5150 C   0  0  0  0  0  0  0  0  0  0  0  0
  188.6460  178.1900  138.9500 C   0  0  0  0  0  1  0  0  0  0  0  0
  187.4570  177.5540  145.7910 C   0  0  0  0  0  0  0  0  0  0  0  0
  187.4380  178.1330  141.6960 N   0  0  0  0  0  0  0  0  0  0  0  0
  191.3640  177.1240  141.2660 N   0  0  0  0  0  0  0  0  0  0  0  0
  189.4570  177.4520  142.6180 C   0  0  0  0  0  0  0  0  0  0  0  0
  186.2460  177.9710  145.1770 C   0  0  0  0  0  0  0  0  0  0  0  0
  187.3380  177.9720  143.0340 C   0  0  2  0  0  3  0  0  0  0  0  0
  188.6090  177.3530  145.0000 C   0  0  0  0  0  3  0  0  0  0  0  0
  188.7240  177.8180  141.4320 C   0  0  0  0  0  0  0  0  0  0  0  0
  186.1880  178.1850  143.7890 C   0  0  0  0  0  3  0  0  0  0  0  0
  188.7480  176.7910  147.6790 O   0  0  0  0  0  0  0  0  0  0  0  0
  189.0770  177.9530  148.3970 C   0  0  0  0  0  2  0  0  0  0  0  0
  187.5230  177.3550  147.2850 C   0  0  1  0  0  3  0  0  0  0  0  0
  187.8010  178.6470  148.0040 C   0  0  0  0  0  2  0  0  0  0  0  0
  191.6710  176.7050  143.6410 C   0  0  0  0  0  3  0  0  0  0  0  0
  191.8190  175.5120  144.0070 O   0  0  0  0  0  0  0  0  0  0  0  0
  185.0170  178.2280  145.9850 C   0  0  0  0  0  2  0  0  0  0  0  0
  184.2870  179.3530  145.4270 N   0  0  0  0  0  2  0  0  0  0  0  0
  183.0160  178.8360  144.9590 C   0  0  0  0  0  2  0  0  0  0  0  0
  181.4220  178.9430  143.2660 C   0  0  0  0  0  1  0  0  0  0  0  0
  182.8050  179.2420  143.5830 N   0  0  0  0  0  2  0  0  0  0  0  0
  1 13  1  0  0  0  0
  2  1  2  0  0  0  0
  2  8  1  0  0  0  0
  3 12  1  0  0  0  0
  4  9  1  0  0  0  0
  4 19  1  0  0  0  0
  5  1  1  0  0  0  0
  7 11  1  0  0  0  0
  8  4  2  0  0  0  0
  9  3  2  0  0  0  0
 10  6  1  0  0  0  0
 10 21  1  0  0  0  0
 11  3  1  0  0  0  0
 11 14  1  1  0  0  0
 12  6  2  0  0  0  0
 13  7  2  0  0  0  0
 13  9  1  0  0  0  0
 14 10  2  0  0  0  0
 15 16  1  0  0  0  0
 17  6  1  6  0  0  0
 17 15  1  0  0  0  0
 17 18  1  0  0  0  0
 18 16  1  0  0  0  0
 19 20  2  0  0  0  0
 22 21  1  0  0  0  0
 23 22  1  0  0  0  0
 24 25  1  0  0  0  0
 25 23  1  0  0  0  0
M  END
>  <MODEL>
3

>  <REMARK>
 VINA RESULT:      -7.9      1.464      6.011
  Name = 
  6 active torsions:
  status: ('A' for Active; 'I' for Inactive)
    1  A    between atoms: C_6  and  N_11
    2  A    between atoms: C_6  and  C_18
    3  A    between atoms: C_7  and  C_8
    4  A    between atoms: N_11  and  C_16
    5  A    between atoms: C_12  and  C_20
    6  A    between atoms: C_16  and  N_24
                            x       y       z     vdW  Elec       q    Type
                         _______ _______ _______ _____ _____    ______ ____

>  <TORSDO>
F 6

$$$$
=
 OpenBabel10222416003D

 25 28  0  0  1  0  0  0  0  0999 V2000
  188.0330  177.5240  146.9270 C   0  0  0  0  0  0  0  0  0  0  0  0
  189.1860  177.0820  146.3510 N   0  0  0  0  0  2  0  0  0  0  0  0
  185.9110  178.1600  144.1700 C   0  0  0  0  0  0  0  0  0  0  0  0
  188.3450  177.2840  144.1320 C   0  0  0  0  0  0  0  0  0  0  0  0
  187.9230  177.6310  148.4080 C   0  0  0  0  0  1  0  0  0  0  0  0
  184.1080  178.7350  142.6780 C   0  0  0  0  0  0  0  0  0  0  0  0
  185.7600  178.3170  146.4470 N   0  0  0  0  0  0  0  0  0  0  0  0
  189.3330  176.9700  145.0220 N   0  0  0  0  0  0  0  0  0  0  0  0
  187.1320  177.7440  144.6640 C   0  0  0  0  0  0  0  0  0  0  0  0
  183.3080  179.0730  143.8030 C   0  0  0  0  0  0  0  0  0  0  0  0
  185.1280  178.4900  145.2640 C   0  0  0  0  0  0  0  0  0  0  0  0
  185.4250  178.2700  142.8710 C   0  0  0  0  0  3  0  0  0  0  0  0
  186.9810  177.8640  146.0930 C   0  0  0  0  0  0  0  0  0  0  0  0
  183.8220  178.9450  145.1050 C   0  0  0  0  0  3  0  0  0  0  0  0
  184.4610  179.4300  140.3960 O   0  0  0  0  0  0  0  0  0  0  0  0
  184.5350  178.2400  139.6530 C   0  0  0  0  0  2  0  0  0  0  0  0
  183.5420  178.8450  141.2830 C   0  0  1  0  0  3  0  0  0  0  0  0
  183.5770  177.5230  140.5660 C   0  0  0  0  0  2  0  0  0  0  0  0
  188.6320  177.1150  142.6990 C   0  0  0  0  0  3  0  0  0  0  0  0
  188.7620  178.0830  141.9070 O   0  0  0  0  0  0  0  0  0  0  0  0
  181.8980  179.5350  143.6400 C   0  0  0  0  0  2  0  0  0  0  0  0
  180.9850  178.4700  144.0140 N   0  0  0  0  0  2  0  0  0  0  0  0
  179.7360  178.7270  143.3210 C   0  0  0  0  0  2  0  0  0  0  0  0
  179.7400  178.0220  141.1030 C   0  0  0  0  0  1  0  0  0  0  0  0
  179.4240  177.6060  142.4560 N   0  0  0  0  0  2  0  0  0  0  0  0
  1  5  1  0  0  0  0
  2  1  1  0  0  0  0
  3  9  2  0  0  0  0
  3 11  1  0  0  0  0
  4  9  1  0  0  0  0
  4  8  2  0  0  0  0
  6 12  2  0  0  0  0
  6 10  1  0  0  0  0
  8  2  1  0  0  0  0
  9 13  1  0  0  0  0
 10 14  2  0  0  0  0
 11  7  2  0  0  0  0
 12  3  1  0  0  0  0
 13  7  1  0  0  0  0
 13  1  2  0  0  0  0
 14 11  1  0  0  0  0
 15 17  1  0  0  0  0
 16 15  1  0  0  0  0
 16 18  1  0  0  0  0
 17  6  1  1  0  0  0
 18 17  1  0  0  0  0
 19  4  1  0  0  0  0
 20 19  2  0  0  0  0
 21 10  1  0  0  0  0
 21 22  1  0  0  0  0
 23 22  1  0  0  0  0
 24 25  1  0  0  0  0
 25 23  1  0  0  0  0
M  END
>  <MODEL>
4

>  <REMARK>
 VINA RESULT:      -7.9      3.363      7.213
  Name = 
  6 active torsions:
  status: ('A' for Active; 'I' for Inactive)
    1  A    between atoms: C_6  and  N_11
    2  A    between atoms: C_6  and  C_18
    3  A    between atoms: C_7  and  C_8
    4  A    between atoms: N_11  and  C_16
    5  A    between atoms: C_12  and  C_20
    6  A    between atoms: C_16  and  N_24
                            x       y       z     vdW  Elec       q    Type
                         _______ _______ _______ _____ _____    ______ ____

>  <TORSDO>
F 6

$$$$
=
 OpenBabel10222416003D

 25 28  0  0  1  0  0  0  0  0999 V2000
  188.2280  178.3130  139.2840 C   0  0  0  0  0  0  0  0  0  0  0  0
  187.0000  178.6190  138.7790 N   0  0  0  0  0  0  0  0  0  0  0  0
  187.6420  177.9630  142.7540 C   0  0  0  0  0  0  0  0  0  0  0  0
  185.9290  178.5430  140.9050 C   0  0  0  0  0  0  0  0  0  0  0  0
  189.4080  178.2040  138.3830 C   0  0  0  0  0  1  0  0  0  0  0  0
  187.7760  177.6120  145.1360 C   0  0  0  0  0  0  0  0  0  0  0  0
  189.4430  177.7980  141.3550 N   0  0  0  0  0  0  0  0  0  0  0  0
  185.9090  178.7290  139.5520 N   0  0  0  0  0  0  0  0  0  0  0  0
  187.1650  178.2250  141.4850 C   0  0  0  0  0  0  0  0  0  0  0  0
  189.1680  177.3580  145.0020 C   0  0  0  0  0  0  0  0  0  0  0  0
  188.9990  177.7130  142.6290 C   0  0  2  0  0  3  0  0  0  0  0  0
  187.0070  177.9140  143.9920 C   0  0  0  0  0  3  0  0  0  0  0  0
  188.3350  178.1100  140.6500 C   0  0  0  0  0  0  0  0  0  0  0  0
  189.7810  177.4050  143.7380 C   0  0  0  0  0  3  0  0  0  0  0  0
  187.3920  178.6660  147.2710 O   0  0  0  0  0  0  0  0  0  0  0  0
  186.0340  179.0260  147.2670 C   0  0  0  0  0  2  0  0  0  0  0  0
  187.1160  177.5310  146.4900 C   0  0  1  0  0  3  0  0  0  0  0  0
  185.6480  177.8510  146.4100 C   0  0  0  0  0  2  0  0  0  0  0  0
  184.6620  178.6920  141.6380 C   0  0  0  0  0  3  0  0  0  0  0  0
  183.5380  178.6910  141.0730 O   0  0  0  0  0  0  0  0  0  0  0  0
  190.0060  177.0010  146.1840 C   0  0  0  0  0  2  0  0  0  0  0  0
  191.4130  177.1250  145.8450 N   0  0  0  0  0  2  0  0  0  0  0  0
  192.0570  175.9000  146.2790 C   0  0  0  0  0  2  0  0  0  0  0  0
  192.8190  175.9930  148.4770 C   0  0  0  0  0  1  0  0  0  0  0  0
  191.6860  175.6180  147.6520 N   0  0  0  0  0  2  0  0  0  0  0  0
  1 13  1  0  0  0  0
  2  1  2  0  0  0  0
  2  8  1  0  0  0  0
  3 12  1  0  0  0  0
  4  9  1  0  0  0  0
  4 19  1  0  0  0  0
  5  1  1  0  0  0  0
  7 11  1  0  0  0  0
  8  4  2  0  0  0  0
  9  3  2  0  0  0  0
 10  6  1  0  0  0  0
 10 21  1  0  0  0  0
 11  3  1  0  0  0  0
 11 14  1  6  0  0  0
 12  6  2  0  0  0  0
 13  7  2  0  0  0  0
 13  9  1  0  0  0  0
 14 10  2  0  0  0  0
 16 15  1  0  0  0  0
 17  6  1  6  0  0  0
 17 15  1  0  0  0  0
 18 17  1  0  0  0  0
 18 16  1  0  0  0  0
 20 19  2  0  0  0  0
 22 21  1  0  0  0  0
 22 23  1  0  0  0  0
 23 25  1  0  0  0  0
 25 24  1  0  0  0  0
M  END
>  <MODEL>
5

>  <REMARK>
 VINA RESULT:      -7.7      2.988      6.003
  Name = 
  6 active torsions:
  status: ('A' for Active; 'I' for Inactive)
    1  A    between atoms: C_6  and  N_11
    2  A    between atoms: C_6  and  C_18
    3  A    between atoms: C_7  and  C_8
    4  A    between atoms: N_11  and  C_16
    5  A    between atoms: C_12  and  C_20
    6  A    between atoms: C_16  and  N_24
                            x       y       z     vdW  Elec       q    Type
                         _______ _______ _______ _____ _____    ______ ____

>  <TORSDO>
F 6

$$$$
=
 OpenBabel10222416003D

 25 28  0  0  1  0  0  0  0  0999 V2000
  190.0270  176.8830  146.5810 C   0  0  0  0  0  0  0  0  0  0  0  0
  189.3500  177.0120  147.7570 N   0  0  0  0  0  2  0  0  0  0  0  0
  187.6580  177.8620  144.1430 C   0  0  0  0  0  0  0  0  0  0  0  0
  187.3460  177.7590  146.7090 C   0  0  0  0  0  0  0  0  0  0  0  0
  191.4400  176.4170  146.5720 C   0  0  0  0  0  1  0  0  0  0  0  0
  186.4520  178.4280  142.1340 C   0  0  0  0  0  0  0  0  0  0  0  0
  189.8300  177.1460  144.1480 N   0  0  0  0  0  0  0  0  0  0  0  0
  188.0760  177.4280  147.8160 N   0  0  0  0  0  0  0  0  0  0  0  0
  187.9870  177.6470  145.4670 C   0  0  0  0  0  0  0  0  0  0  0  0
  187.6080  178.1090  141.3720 C   0  0  0  0  0  0  0  0  0  0  0  0
  188.7830  177.5530  143.3950 C   0  0  0  0  0  0  0  0  0  0  0  0
  186.4860  178.3050  143.5390 C   0  0  0  0  0  3  0  0  0  0  0  0
  189.3560  177.1980  145.4110 C   0  0  0  0  0  0  0  0  0  0  0  0
  188.7830  177.6720  142.0090 C   0  0  0  0  0  3  0  0  0  0  0  0
  184.5970  177.9180  140.6810 O   0  0  0  0  0  0  0  0  0  0  0  0
  183.4610  177.9420  141.5080 C   0  0  0  0  0  2  0  0  0  0  0  0
  185.2040  178.9260  141.4490 C   0  0  1  0  0  3  0  0  0  0  0  0
  184.0420  179.0030  142.4030 C   0  0  0  0  0  2  0  0  0  0  0  0
  185.9570  178.2010  146.9090 C   0  0  0  0  0  3  0  0  0  0  0  0
  185.6230  179.4120  146.9580 O   0  0  0  0  0  0  0  0  0  0  0  0
  187.6220  178.2610  139.8870 C   0  0  0  0  0  2  0  0  0  0  0  0
  188.9150  178.7640  139.4560 N   0  0  0  0  0  2  0  0  0  0  0  0
  189.0580  178.4030  138.0580 C   0  0  0  0  0  2  0  0  0  0  0  0
  187.5680  178.6280  136.2840 C   0  0  0  0  0  1  0  0  0  0  0  0
  188.3680  179.3770  137.2340 N   0  0  0  0  0  2  0  0  0  0  0  0
  1  2  1  0  0  0  0
  2  8  1  0  0  0  0
  3  9  2  0  0  0  0
  4 19  1  0  0  0  0
  4  8  2  0  0  0  0
  5  1  1  0  0  0  0
  6 12  2  0  0  0  0
  7 13  1  0  0  0  0
  9  4  1  0  0  0  0
 10 14  2  0  0  0  0
 10  6  1  0  0  0  0
 11  3  1  0  0  0  0
 11  7  2  0  0  0  0
 12  3  1  0  0  0  0
 13  9  1  0  0  0  0
 13  1  2  0  0  0  0
 14 11  1  0  0  0  0
 15 17  1  0  0  0  0
 15 16  1  0  0  0  0
 16 18  1  0  0  0  0
 17  6  1  1  0  0  0
 17 18  1  0  0  0  0
 19 20  2  0  0  0  0
 21 10  1  0  0  0  0
 22 21  1  0  0  0  0
 23 22  1  0  0  0  0
 24 25  1  0  0  0  0
 25 23  1  0  0  0  0
M  END
>  <MODEL>
6

>  <REMARK>
 VINA RESULT:      -7.6      2.725      4.988
  Name = 
  6 active torsions:
  status: ('A' for Active; 'I' for Inactive)
    1  A    between atoms: C_6  and  N_11
    2  A    between atoms: C_6  and  C_18
    3  A    between atoms: C_7  and  C_8
    4  A    between atoms: N_11  and  C_16
    5  A    between atoms: C_12  and  C_20
    6  A    between atoms: C_16  and  N_24
                            x       y       z     vdW  Elec       q    Type
                         _______ _______ _______ _____ _____    ______ ____

>  <TORSDO>
F 6

$$$$
=
 OpenBabel10222416003D

 25 28  0  0  1  0  0  0  0  0999 V2000
  189.0380  177.4420  147.5530 C   0  0  0  0  0  0  0  0  0  0  0  0
  190.3270  177.0170  147.6680 N   0  0  0  0  0  2  0  0  0  0  0  0
  188.5180  177.5960  144.0580 C   0  0  0  0  0  0  0  0  0  0  0  0
  190.6670  176.8940  145.3140 C   0  0  0  0  0  0  0  0  0  0  0  0
  188.2220  177.7150  148.7680 C   0  0  0  0  0  1  0  0  0  0  0  0
  187.6630  177.8620  141.8200 C   0  0  0  0  0  0  0  0  0  0  0  0
  187.2800  178.0110  145.9350 N   0  0  0  0  0  0  0  0  0  0  0  0
  191.1000  176.7580  146.6030 N   0  0  0  0  0  0  0  0  0  0  0  0
  189.3470  177.3280  145.1290 C   0  0  0  0  0  0  0  0  0  0  0  0
  186.4160  178.2740  142.3640 C   0  0  0  0  0  0  0  0  0  0  0  0
  187.3010  177.9980  144.5830 C   0  0  0  0  0  0  0  0  0  0  0  0
  188.7230  177.5160  142.6840 C   0  0  0  0  0  3  0  0  0  0  0  0
  188.5220  177.6060  146.2780 C   0  0  0  0  0  0  0  0  0  0  0  0
  186.2350  178.3370  143.7570 C   0  0  0  0  0  3  0  0  0  0  0  0
  188.2410  178.9940  139.7710 O   0  0  0  0  0  0  0  0  0  0  0  0
  189.4730  178.4440  139.3780 C   0  0  0  0  0  2  0  0  0  0  0  0
  187.8440  177.7650  140.3250 C   0  0  1  0  0  3  0  0  0  0  0  0
  189.1450  177.0990  139.9670 C   0  0  0  0  0  2  0  0  0  0  0  0
  191.6150  176.5770  144.2340 C   0  0  0  0  0  3  0  0  0  0  0  0
  192.0010  175.4080  143.9810 O   0  0  0  0  0  0  0  0  0  0  0  0
  185.2610  178.6130  141.4820 C   0  0  0  0  0  2  0  0  0  0  0  0
  184.0170  178.2650  142.1450 N   0  0  0  0  0  2  0  0  0  0  0  0
  182.9440  178.6290  141.2390 C   0  0  0  0  0  2  0  0  0  0  0  0
  182.4790  179.5320  139.1450 C   0  0  0  0  0  1  0  0  0  0  0  0
  183.4780  178.8030  139.9020 N   0  0  0  0  0  2  0  0  0  0  0  0
  1  2  1  0  0  0  0
  1  5  1  0  0  0  0
  3 11  1  0  0  0  0
  3  9  2  0  0  0  0
  4  8  2  0  0  0  0
  6 10  1  0  0  0  0
  6 12  2  0  0  0  0
  7 13  1  0  0  0  0
  8  2  1  0  0  0  0
  9  4  1  0  0  0  0
  9 13  1  0  0  0  0
 10 14  2  0  0  0  0
 11  7  2  0  0  0  0
 12  3  1  0  0  0  0
 13  1  2  0  0  0  0
 14 11  1  0  0  0  0
 15 17  1  0  0  0  0
 16 15  1  0  0  0  0
 16 18  1  0  0  0  0
 17  6  1  1  0  0  0
 18 17  1  0  0  0  0
 19  4  1  0  0  0  0
 20 19  2  0  0  0  0
 21 22  1  0  0  0  0
 21 10  1  0  0  0  0
 23 22  1  0  0  0  0
 24 25  1  0  0  0  0
 25 23  1  0  0  0  0
M  END
>  <MODEL>
7

>  <REMARK>
 VINA RESULT:      -7.3      3.008      5.514
  Name = 
  6 active torsions:
  status: ('A' for Active; 'I' for Inactive)
    1  A    between atoms: C_6  and  N_11
    2  A    between atoms: C_6  and  C_18
    3  A    between atoms: C_7  and  C_8
    4  A    between atoms: N_11  and  C_16
    5  A    between atoms: C_12  and  C_20
    6  A    between atoms: C_16  and  N_24
                            x       y       z     vdW  Elec       q    Type
                         _______ _______ _______ _____ _____    ______ ____

>  <TORSDO>
F 6

$$$$
=
 OpenBabel10222416003D

 25 28  0  0  1  0  0  0  0  0999 V2000
  181.5650  178.8530  142.9550 C   0  0  0  0  0  0  0  0  0  0  0  0
  181.0530  179.1400  141.7250 N   0  0  0  0  0  0  0  0  0  0  0  0
  185.0250  178.4420  142.3450 C   0  0  0  0  0  0  0  0  0  0  0  0
  183.1680  179.0110  140.6370 C   0  0  0  0  0  0  0  0  0  0  0  0
  180.6740  178.7830  144.1450 C   0  0  0  0  0  1  0  0  0  0  0  0
  187.4040  178.0720  142.4670 C   0  0  0  0  0  0  0  0  0  0  0  0
  183.6410  178.3390  144.1620 N   0  0  0  0  0  0  0  0  0  0  0  0
  181.8170  179.2140  140.6250 N   0  0  0  0  0  0  0  0  0  0  0  0
  183.7550  178.7120  141.8740 C   0  0  0  0  0  0  0  0  0  0  0  0
  187.2800  177.8520  143.8650 C   0  0  0  0  0  0  0  0  0  0  0  0
  184.9100  178.2280  143.7090 C   0  0  2  0  0  3  0  0  0  0  0  0
  186.2570  178.3740  141.7020 C   0  0  0  0  0  3  0  0  0  0  0  0
  182.9290  178.6330  143.0530 C   0  0  0  0  0  0  0  0  0  0  0  0
  186.0230  177.9360  144.4900 C   0  0  0  0  0  3  0  0  0  0  0  0
  189.0710  176.7100  141.3810 O   0  0  0  0  0  0  0  0  0  0  0  0
  189.0710  177.1240  140.0390 C   0  0  0  0  0  2  0  0  0  0  0  0
  188.7590  178.0120  141.8050 C   0  0  1  0  0  3  0  0  0  0  0  0
  188.7110  178.5400  140.3970 C   0  0  0  0  0  2  0  0  0  0  0  0
  183.8910  179.1220  139.3600 C   0  0  0  0  0  3  0  0  0  0  0  0
  184.5550  180.1380  139.0330 O   0  0  0  0  0  0  0  0  0  0  0  0
  188.4750  177.5650  144.7120 C   0  0  0  0  0  2  0  0  0  0  0  0
  188.1840  177.8850  146.0990 N   0  0  0  0  0  2  0  0  0  0  0  0
  189.4270  177.7390  146.8320 C   0  0  0  0  0  2  0  0  0  0  0  0
  187.8030  177.8730  148.4930 C   0  0  0  0  0  1  0  0  0  0  0  0
  189.2120  178.0840  148.2240 N   0  0  0  0  0  2  0  0  0  0  0  0
  1 13  1  0  0  0  0
  1  5  1  0  0  0  0
  2  1  2  0  0  0  0
  3 11  1  0  0  0  0
  4  9  1  0  0  0  0
  6 10  1  0  0  0  0
  8  4  2  0  0  0  0
  8  2  1  0  0  0  0
  9  3  2  0  0  0  0
  9 13  1  0  0  0  0
 10 14  2  0  0  0  0
 10 21  1  0  0  0  0
 11  7  1  0  0  0  0
 11 14  1  1  0  0  0
 12  3  1  0  0  0  0
 12  6  2  0  0  0  0
 13  7  2  0  0  0  0
 15 17  1  0  0  0  0
 16 18  1  0  0  0  0
 16 15  1  0  0  0  0
 17  6  1  6  0  0  0
 18 17  1  0  0  0  0
 19  4  1  0  0  0  0
 20 19  2  0  0  0  0
 21 22  1  0  0  0  0
 22 23  1  0  0  0  0
 23 25  1  0  0  0  0
 25 24  1  0  0  0  0
M  END
>  <MODEL>
8

>  <REMARK>
 VINA RESULT:      -7.2      3.473      6.000
  Name = 
  6 active torsions:
  status: ('A' for Active; 'I' for Inactive)
    1  A    between atoms: C_6  and  N_11
    2  A    between atoms: C_6  and  C_18
    3  A    between atoms: C_7  and  C_8
    4  A    between atoms: N_11  and  C_16
    5  A    between atoms: C_12  and  C_20
    6  A    between atoms: C_16  and  N_24
                            x       y       z     vdW  Elec       q    Type
                         _______ _______ _______ _____ _____    ______ ____

>  <TORSDO>
F 6

$$$$
=
 OpenBabel10222416003D

 25 28  0  0  1  0  0  0  0  0999 V2000
  187.0010  177.9240  146.4610 C   0  0  0  0  0  0  0  0  0  0  0  0
  185.8920  178.3250  147.1430 N   0  0  0  0  0  2  0  0  0  0  0  0
  186.1070  178.3790  143.0690 C   0  0  0  0  0  0  0  0  0  0  0  0
  184.6720  178.8570  145.1680 C   0  0  0  0  0  0  0  0  0  0  0  0
  188.2030  177.4410  147.1940 C   0  0  0  0  0  1  0  0  0  0  0  0
  186.0030  178.5040  140.6640 C   0  0  0  0  0  0  0  0  0  0  0  0
  187.9450  177.6410  144.2120 N   0  0  0  0  0  0  0  0  0  0  0  0
  184.7850  178.7680  146.5260 N   0  0  0  0  0  0  0  0  0  0  0  0
  185.7820  178.4580  144.4090 C   0  0  0  0  0  0  0  0  0  0  0  0
  187.3300  178.0010  140.5980 C   0  0  0  0  0  0  0  0  0  0  0  0
  187.4010  177.8890  143.0000 C   0  0  0  0  0  0  0  0  0  0  0  0
  185.3900  178.6970  141.9200 C   0  0  0  0  0  3  0  0  0  0  0  0
  186.9670  177.9830  145.0770 C   0  0  0  0  0  0  0  0  0  0  0  0
  188.0350  177.6960  141.7760 C   0  0  0  0  0  3  0  0  0  0  0  0
  184.7400  177.7190  138.7660 O   0  0  0  0  0  0  0  0  0  0  0  0
  183.4280  178.1730  138.9810 C   0  0  0  0  0  2  0  0  0  0  0  0
  185.2610  178.8600  139.3990 C   0  0  1  0  0  3  0  0  0  0  0  0
  183.8940  179.4120  139.6960 C   0  0  0  0  0  2  0  0  0  0  0  0
  183.4040  179.3590  144.6150 C   0  0  0  0  0  3  0  0  0  0  0  0
  182.4630  178.6040  144.2610 O   0  0  0  0  0  0  0  0  0  0  0  0
  188.0240  177.8170  139.2890 C   0  0  0  0  0  2  0  0  0  0  0  0
  188.8190  178.9940  138.9850 N   0  0  0  0  0  2  0  0  0  0  0  0
  189.0520  178.9820  137.5530 C   0  0  0  0  0  2  0  0  0  0  0  0
  188.1400  177.8900  135.7110 C   0  0  0  0  0  1  0  0  0  0  0  0
  187.8070  178.7060  136.8620 N   0  0  0  0  0  2  0  0  0  0  0  0
  1  2  1  0  0  0  0
  1  5  1  0  0  0  0
  3  9  2  0  0  0  0
  4  8  2  0  0  0  0
  6 12  2  0  0  0  0
  7 13  1  0  0  0  0
  8  2  1  0  0  0  0
  9 13  1  0  0  0  0
  9  4  1  0  0  0  0
 10  6  1  0  0  0  0
 10 14  2  0  0  0  0
 11  3  1  0  0  0  0
 11  7  2  0  0  0  0
 12  3  1  0  0  0  0
 13  1  2  0  0  0  0
 14 11  1  0  0  0  0
 15 16  1  0  0  0  0
 15 17  1  0  0  0  0
 16 18  1  0  0  0  0
 17 18  1  0  0  0  0
 17  6  1  1  0  0  0
 19  4  1  0  0  0  0
 20 19  2  0  0  0  0
 21 10  1  0  0  0  0
 22 21  1  0  0  0  0
 23 22  1  0  0  0  0
 24 25  1  0  0  0  0
 25 23  1  0  0  0  0
M  END
>  <MODEL>
9

>  <REMARK>
 VINA RESULT:      -7.0      3.323      5.324
  Name = 
  6 active torsions:
  status: ('A' for Active; 'I' for Inactive)
    1  A    between atoms: C_6  and  N_11
    2  A    between atoms: C_6  and  C_18
    3  A    between atoms: C_7  and  C_8
    4  A    between atoms: N_11  and  C_16
    5  A    between atoms: C_12  and  C_20
    6  A    between atoms: C_16  and  N_24
                            x       y       z     vdW  Elec       q    Type
                         _______ _______ _______ _____ _____    ______ ____

>  <TORSDO>
F 6

$$$$
