=
 OpenBabel10222420473D

 39 43  0  0  1  0  0  0  0  0999 V2000
  186.9740  178.2420  142.0130 C   0  0  0  0  0  3  0  0  0  0  0  0
  184.7270  178.4370  142.8850 C   0  0  0  0  0  0  0  0  0  0  0  0
  186.5130  178.4990  140.7130 C   0  0  0  0  0  0  0  0  0  0  0  0
  186.0900  178.2100  143.0920 C   0  0  0  0  0  3  0  0  0  0  0  0
  185.1370  178.7180  140.5040 C   0  0  0  0  0  0  0  0  0  0  0  0
  184.2520  178.6840  141.5960 C   0  0  0  0  0  3  0  0  0  0  0  0
  184.2270  180.3790  138.9600 N   0  0  0  0  0  0  0  0  0  0  0  0
  183.3550  178.2180  138.8460 C   0  0  0  0  0  3  0  0  0  0  0  0
  182.4280  179.1110  138.5550 C   0  0  0  0  0  0  0  0  0  0  0  0
  182.9800  180.4490  138.6320 C   0  0  0  0  0  3  0  0  0  0  0  0
  184.6170  178.9810  139.1180 C   0  0  2  0  0  3  0  0  0  0  0  0
  181.0770  178.7820  138.2350 N   0  0  0  0  0  2  0  0  0  0  0  0
  179.9600  179.2780  139.0230 C   0  0  0  0  0  2  0  0  0  0  0  0
  180.0140  178.7060  140.4300 C   0  0  0  0  0  2  0  0  0  0  0  0
  180.2010  179.7810  141.4470 C   0  0  0  0  0  0  0  0  0  0  0  0
  179.7900  181.0820  141.1810 O   0  0  0  0  0  0  0  0  0  0  0  0
  180.7610  179.5150  142.5430 O   0  0  0  0  0  1  0  0  0  0  0  0
  187.4100  178.5330  139.5890 N   0  0  0  0  0  2  0  0  0  0  0  0
  190.5400  175.8960  138.7040 N   0  0  0  0  0  0  0  0  0  0  0  0
  190.6530  176.7290  139.7720 C   0  0  0  0  0  3  0  0  0  0  0  0
  189.6140  177.6090  140.0690 C   0  0  0  0  0  3  0  0  0  0  0  0
  188.4760  177.6250  139.2650 C   0  0  0  0  0  0  0  0  0  0  0  0
  188.4140  176.7470  138.1780 C   0  0  0  0  0  3  0  0  0  0  0  0
  189.4520  175.9050  137.9300 N   0  0  0  0  0  0  0  0  0  0  0  0
  183.7800  178.3900  144.0330 C   0  0  0  0  0  2  0  0  0  0  0  0
  184.1980  179.3900  145.0930 C   0  0  0  0  0  2  0  0  0  0  0  0
  184.4290  178.6710  146.4060 C   0  0  0  0  0  2  0  0  0  0  0  0
  186.8420  177.9870  146.7350 C   0  0  0  0  0  0  0  0  0  0  0  0
  185.7790  178.9320  146.8840 N   0  0  0  0  0  2  0  0  0  0  0  0
  186.6480  176.8980  146.1300 O   0  0  0  0  0  0  0  0  0  0  0  0
  188.2940  177.7630  148.7520 C   0  0  0  0  0  1  0  0  0  0  0  0
  188.1920  178.2650  147.3200 C   0  0  1  0  0  3  0  0  0  0  0  0
  190.6860  178.4170  144.4960 C   0  0  2  0  0  3  0  0  0  0  0  0
  189.2860  177.9960  144.9820 C   0  0  0  0  0  2  0  0  0  0  0  0
  189.2980  177.7280  146.4580 C   0  0  0  0  0  0  0  0  0  0  0  0
  191.3280  177.3150  143.7870 C   0  0  0  0  0  2  0  0  0  0  0  0
  190.3270  177.0400  146.9670 C   0  0  0  0  0  3  0  0  0  0  0  0
  191.3940  176.5760  146.0230 C   0  0  0  0  0  2  0  0  0  0  0  0
  191.8140  177.6670  145.1320 N   0  0  2  0  0  0  0  0  0  0  0  0
  1  4  1  0  0  0  0
  2  4  2  0  0  0  0
  2 25  1  0  0  0  0
  3  1  2  0  0  0  0
  5  3  1  0  0  0  0
  5  6  2  0  0  0  0
  6  2  1  0  0  0  0
  7 11  1  0  0  0  0
  8 11  1  0  0  0  0
  9 10  1  0  0  0  0
  9  8  2  0  0  0  0
 10  7  2  0  0  0  0
 11  5  1  1  0  0  0
 12  9  1  0  0  0  0
 12 13  1  0  0  0  0
 13 14  1  0  0  0  0
 14 15  1  0  0  0  0
 15 17  1  0  0  0  0
 16 15  2  0  0  0  0
 18  3  1  0  0  0  0
 19 20  1  0  0  0  0
 20 21  2  0  0  0  0
 22 18  1  0  0  0  0
 22 21  1  0  0  0  0
 23 22  2  0  0  0  0
 24 23  1  0  0  0  0
 24 19  2  0  0  0  0
 25 26  1  0  0  0  0
 26 27  1  0  0  0  0
 27 29  1  0  0  0  0
 28 29  1  0  0  0  0
 28 32  1  0  0  0  0
 30 28  2  0  0  0  0
 32 31  1  1  0  0  0
 33 36  1  6  0  0  0
 33 34  1  0  0  0  0
 33 39  1  0  0  0  0
 34 35  1  0  0  0  0
 35 37  2  0  0  0  0
 35 32  1  0  0  0  0
 38 37  1  0  0  0  0
 39 36  1  6  0  0  0
 39 38  1  0  0  0  0
M  END
>  <MODEL>
1

>  <REMARK>
 VINA RESULT:      -8.8      0.000      0.000
  Name = 
  13 active torsions:
  status: ('A' for Active; 'I' for Inactive)
    1  A    between atoms: C_6  and  C_33
    2  A    between atoms: C_7  and  C_31
    3  A    between atoms: C_8  and  C_22
    4  A    between atoms: C_11  and  N_35
    5  A    between atoms: C_13  and  C_31
    6  A    between atoms: N_15  and  C_16
    7  A    between atoms: N_15  and  C_21
    8  A    between atoms: C_18  and  N_25
    9  A    between atoms: C_18  and  C_34
   10  A    between atoms: C_20  and  C_23
   11  A    between atoms: C_22  and  C_34
   12  A    between atoms: C_29  and  C_33
   13  A    between atoms: C_29  and  N_35
                            x       y       z     vdW  Elec       q    Type
                         _______ _______ _______ _____ _____    ______ ____

>  <TORSDO>
F 13

$$$$
=
 OpenBabel10222420473D

 39 43  0  0  1  0  0  0  0  0999 V2000
  187.1050  178.2730  142.1240 C   0  0  0  0  0  3  0  0  0  0  0  0
  184.8130  178.4870  142.8630 C   0  0  0  0  0  0  0  0  0  0  0  0
  186.7240  178.5410  140.8010 C   0  0  0  0  0  0  0  0  0  0  0  0
  186.1580  178.2450  143.1490 C   0  0  0  0  0  3  0  0  0  0  0  0
  185.3650  178.7760  140.5120 C   0  0  0  0  0  0  0  0  0  0  0  0
  184.4170  178.7460  141.5500 C   0  0  0  0  0  3  0  0  0  0  0  0
  183.9980  180.1740  139.0460 N   0  0  0  0  0  0  0  0  0  0  0  0
  184.1520  177.9040  138.5260 C   0  0  0  0  0  3  0  0  0  0  0  0
  182.9690  178.3800  138.1890 C   0  0  0  0  0  0  0  0  0  0  0  0
  182.8840  179.7890  138.5200 C   0  0  0  0  0  3  0  0  0  0  0  0
  184.9300  179.0510  139.0990 C   0  0  2  0  0  3  0  0  0  0  0  0
  181.9310  177.5950  137.6060 N   0  0  0  0  0  2  0  0  0  0  0  0
  181.5830  176.2790  138.1190 C   0  0  0  0  0  2  0  0  0  0  0  0
  180.6060  176.4070  139.2760 C   0  0  0  0  0  2  0  0  0  0  0  0
  180.0760  175.0740  139.6900 C   0  0  0  0  0  0  0  0  0  0  0  0
  180.0320  174.0210  138.7840 O   0  0  0  0  0  0  0  0  0  0  0  0
  179.6410  174.9110  140.8590 O   0  0  0  0  0  1  0  0  0  0  0  0
  187.6860  178.5710  139.7310 N   0  0  0  0  0  2  0  0  0  0  0  0
  190.5090  175.6780  138.6400 N   0  0  0  0  0  0  0  0  0  0  0  0
  189.3970  175.8440  137.8760 C   0  0  0  0  0  3  0  0  0  0  0  0
  188.4540  176.8050  138.2370 C   0  0  0  0  0  3  0  0  0  0  0  0
  188.6630  177.5790  139.3770 C   0  0  0  0  0  0  0  0  0  0  0  0
  189.8260  177.3650  140.1260 C   0  0  0  0  0  3  0  0  0  0  0  0
  190.7160  176.4170  139.7320 N   0  0  0  0  0  0  0  0  0  0  0  0
  183.7990  178.4450  143.9530 C   0  0  0  0  0  2  0  0  0  0  0  0
  184.1620  179.4390  145.0390 C   0  0  0  0  0  2  0  0  0  0  0  0
  184.4050  178.7030  146.3400 C   0  0  0  0  0  2  0  0  0  0  0  0
  186.7960  178.0060  146.7840 C   0  0  0  0  0  0  0  0  0  0  0  0
  185.7490  178.9810  146.8230 N   0  0  0  0  0  2  0  0  0  0  0  0
  186.5920  176.8710  146.2750 O   0  0  0  0  0  0  0  0  0  0  0  0
  188.2200  177.8840  148.8300 C   0  0  0  0  0  1  0  0  0  0  0  0
  188.1380  178.3110  147.3720 C   0  0  1  0  0  3  0  0  0  0  0  0
  190.6820  178.3140  144.5890 C   0  0  2  0  0  3  0  0  0  0  0  0
  189.2710  177.9280  145.0680 C   0  0  0  0  0  2  0  0  0  0  0  0
  189.2550  177.7260  146.5540 C   0  0  0  0  0  0  0  0  0  0  0  0
  191.3270  177.1760  143.9400 C   0  0  0  0  0  2  0  0  0  0  0  0
  190.2680  177.0520  147.1120 C   0  0  0  0  0  3  0  0  0  0  0  0
  191.3460  176.5370  146.2080 C   0  0  0  0  0  2  0  0  0  0  0  0
  191.7920  177.5830  145.2770 N   0  0  2  0  0  0  0  0  0  0  0  0
  1  4  1  0  0  0  0
  2  4  2  0  0  0  0
  2 25  1  0  0  0  0
  3  1  2  0  0  0  0
  5  3  1  0  0  0  0
  5  6  2  0  0  0  0
  6  2  1  0  0  0  0
  7 11  1  0  0  0  0
  8 11  1  0  0  0  0
  9 10  1  0  0  0  0
  9  8  2  0  0  0  0
 10  7  2  0  0  0  0
 11  5  1  1  0  0  0
 12 13  1  0  0  0  0
 12  9  1  0  0  0  0
 13 14  1  0  0  0  0
 14 15  1  0  0  0  0
 15 17  1  0  0  0  0
 16 15  2  0  0  0  0
 18  3  1  0  0  0  0
 19 24  1  0  0  0  0
 20 21  1  0  0  0  0
 20 19  2  0  0  0  0
 21 22  2  0  0  0  0
 22 18  1  0  0  0  0
 22 23  1  0  0  0  0
 24 23  2  0  0  0  0
 25 26  1  0  0  0  0
 26 27  1  0  0  0  0
 27 29  1  0  0  0  0
 28 29  1  0  0  0  0
 28 32  1  0  0  0  0
 30 28  2  0  0  0  0
 32 31  1  1  0  0  0
 33 36  1  6  0  0  0
 33 34  1  0  0  0  0
 33 39  1  0  0  0  0
 34 35  1  0  0  0  0
 35 37  2  0  0  0  0
 35 32  1  0  0  0  0
 38 37  1  0  0  0  0
 39 36  1  6  0  0  0
 39 38  1  0  0  0  0
M  END
>  <MODEL>
2

>  <REMARK>
 VINA RESULT:      -8.5      1.656      1.986
  Name = 
  13 active torsions:
  status: ('A' for Active; 'I' for Inactive)
    1  A    between atoms: C_6  and  C_33
    2  A    between atoms: C_7  and  C_31
    3  A    between atoms: C_8  and  C_22
    4  A    between atoms: C_11  and  N_35
    5  A    between atoms: C_13  and  C_31
    6  A    between atoms: N_15  and  C_16
    7  A    between atoms: N_15  and  C_21
    8  A    between atoms: C_18  and  N_25
    9  A    between atoms: C_18  and  C_34
   10  A    between atoms: C_20  and  C_23
   11  A    between atoms: C_22  and  C_34
   12  A    between atoms: C_29  and  C_33
   13  A    between atoms: C_29  and  N_35
                            x       y       z     vdW  Elec       q    Type
                         _______ _______ _______ _____ _____    ______ ____

>  <TORSDO>
F 13

$$$$
=
 OpenBabel10222420473D

 39 43  0  0  1  0  0  0  0  0999 V2000
  185.0390  179.1290  141.8960 C   0  0  0  0  0  3  0  0  0  0  0  0
  187.2310  178.1760  142.2600 C   0  0  0  0  0  0  0  0  0  0  0  0
  184.7130  178.9480  143.2480 C   0  0  0  0  0  0  0  0  0  0  0  0
  186.2870  178.7460  141.4030 C   0  0  0  0  0  3  0  0  0  0  0  0
  185.6630  178.3650  144.1100 C   0  0  0  0  0  0  0  0  0  0  0  0
  186.9180  177.9820  143.6070 C   0  0  0  0  0  3  0  0  0  0  0  0
  185.3120  179.4140  146.2890 N   0  0  0  0  0  0  0  0  0  0  0  0
  186.3920  177.3450  146.2560 C   0  0  0  0  0  3  0  0  0  0  0  0
  186.8470  178.0920  147.2440 C   0  0  0  0  0  0  0  0  0  0  0  0
  186.1710  179.3750  147.2530 C   0  0  0  0  0  3  0  0  0  0  0  0
  185.3330  178.1480  145.5610 C   0  0  2  0  0  3  0  0  0  0  0  0
  187.8730  177.6830  148.1460 N   0  0  0  0  0  2  0  0  0  0  0  0
  189.2830  177.8800  147.8460 C   0  0  0  0  0  2  0  0  0  0  0  0
  189.7980  176.7450  146.9760 C   0  0  0  0  0  2  0  0  0  0  0  0
  191.2890  176.7560  146.8960 C   0  0  0  0  0  0  0  0  0  0  0  0
  192.0550  176.9390  148.0420 O   0  0  0  0  0  1  0  0  0  0  0  0
  191.8550  176.6250  145.7800 O   0  0  0  0  0  0  0  0  0  0  0  0
  183.4300  179.3340  143.7730 N   0  0  0  0  0  2  0  0  0  0  0  0
  179.6060  178.0640  142.6400 N   0  0  0  0  0  0  0  0  0  0  0  0
  179.8920  178.2170  143.9600 C   0  0  0  0  0  3  0  0  0  0  0  0
  181.1650  178.6370  144.3410 C   0  0  0  0  0  3  0  0  0  0  0  0
  182.1250  178.8930  143.3640 C   0  0  0  0  0  0  0  0  0  0  0  0
  181.7750  178.7190  142.0210 C   0  0  0  0  0  3  0  0  0  0  0  0
  180.5200  178.3080  141.6990 N   0  0  0  0  0  0  0  0  0  0  0  0
  188.5590  177.7550  141.7340 C   0  0  0  0  0  2  0  0  0  0  0  0
  189.4610  177.3340  142.8770 C   0  0  0  0  0  2  0  0  0  0  0  0
  190.5570  176.4280  142.3510 C   0  0  0  0  0  2  0  0  0  0  0  0
  191.4160  177.1160  140.0730 C   0  0  0  0  0  0  0  0  0  0  0  0
  190.5060  176.3810  140.8980 N   0  0  0  0  0  2  0  0  0  0  0  0
  192.3370  177.8010  140.5940 O   0  0  0  0  0  0  0  0  0  0  0  0
  192.0230  175.9400  137.9580 C   0  0  0  0  0  1  0  0  0  0  0  0
  191.2680  177.1040  138.5840 C   0  0  1  0  0  3  0  0  0  0  0  0
  188.2200  178.6230  136.9670 C   0  0  2  0  0  3  0  0  0  0  0  0
  189.0500  178.4090  138.2450 C   0  0  0  0  0  2  0  0  0  0  0  0
  189.8270  177.1280  138.1620 C   0  0  0  0  0  0  0  0  0  0  0  0
  186.8120  178.3340  137.2220 C   0  0  0  0  0  2  0  0  0  0  0  0
  189.2090  176.0440  137.6770 C   0  0  0  0  0  3  0  0  0  0  0  0
  187.7770  176.1850  137.2570 C   0  0  0  0  0  2  0  0  0  0  0  0
  187.5930  177.3780  136.4190 N   0  0  2  0  0  0  0  0  0  0  0  0
  1  3  1  0  0  0  0
  2  6  2  0  0  0  0
  3 18  1  0  0  0  0
  3  5  2  0  0  0  0
  4  1  2  0  0  0  0
  4  2  1  0  0  0  0
  6  5  1  0  0  0  0
  7 10  2  0  0  0  0
  8  9  2  0  0  0  0
  9 10  1  0  0  0  0
  9 12  1  0  0  0  0
 11  5  1  6  0  0  0
 11  8  1  0  0  0  0
 11  7  1  0  0  0  0
 13 12  1  0  0  0  0
 14 13  1  0  0  0  0
 15 14  1  0  0  0  0
 15 16  1  0  0  0  0
 17 15  2  0  0  0  0
 19 20  1  0  0  0  0
 20 21  2  0  0  0  0
 22 18  1  0  0  0  0
 22 21  1  0  0  0  0
 23 22  2  0  0  0  0
 24 23  1  0  0  0  0
 24 19  2  0  0  0  0
 25  2  1  0  0  0  0
 25 26  1  0  0  0  0
 27 26  1  0  0  0  0
 28 30  2  0  0  0  0
 28 29  1  0  0  0  0
 29 27  1  0  0  0  0
 32 31  1  1  0  0  0
 32 28  1  0  0  0  0
 33 36  1  1  0  0  0
 33 34  1  0  0  0  0
 35 34  1  0  0  0  0
 35 32  1  0  0  0  0
 37 35  2  0  0  0  0
 38 37  1  0  0  0  0
 39 33  1  0  0  0  0
 39 36  1  1  0  0  0
 39 38  1  0  0  0  0
M  END
>  <MODEL>
3

>  <REMARK>
 VINA RESULT:      -8.4      3.691      8.834
  Name = 
  13 active torsions:
  status: ('A' for Active; 'I' for Inactive)
    1  A    between atoms: C_6  and  C_33
    2  A    between atoms: C_7  and  C_31
    3  A    between atoms: C_8  and  C_22
    4  A    between atoms: C_11  and  N_35
    5  A    between atoms: C_13  and  C_31
    6  A    between atoms: N_15  and  C_16
    7  A    between atoms: N_15  and  C_21
    8  A    between atoms: C_18  and  N_25
    9  A    between atoms: C_18  and  C_34
   10  A    between atoms: C_20  and  C_23
   11  A    between atoms: C_22  and  C_34
   12  A    between atoms: C_29  and  C_33
   13  A    between atoms: C_29  and  N_35
                            x       y       z     vdW  Elec       q    Type
                         _______ _______ _______ _____ _____    ______ ____

>  <TORSDO>
F 13

$$$$
=
 OpenBabel10222420473D

 39 43  0  0  1  0  0  0  0  0999 V2000
  186.7120  178.5070  141.0560 C   0  0  0  0  0  3  0  0  0  0  0  0
  186.3960  178.1530  143.4270 C   0  0  0  0  0  0  0  0  0  0  0  0
  188.0780  178.2080  141.1730 C   0  0  0  0  0  0  0  0  0  0  0  0
  185.8760  178.4810  142.1730 C   0  0  0  0  0  3  0  0  0  0  0  0
  188.6030  177.8870  142.4400 C   0  0  0  0  0  0  0  0  0  0  0  0
  187.7550  177.8630  143.5600 C   0  0  0  0  0  3  0  0  0  0  0  0
  190.2940  176.1350  142.6530 N   0  0  0  0  0  0  0  0  0  0  0  0
  190.6070  178.0850  143.8960 C   0  0  0  0  0  3  0  0  0  0  0  0
  191.0830  177.0380  144.5430 C   0  0  0  0  0  0  0  0  0  0  0  0
  190.8810  175.8330  143.7630 C   0  0  0  0  0  3  0  0  0  0  0  0
  190.0670  177.5760  142.5930 C   0  0  2  0  0  3  0  0  0  0  0  0
  191.6860  177.1050  145.8340 N   0  0  0  0  0  2  0  0  0  0  0  0
  190.9570  176.7490  147.0410 C   0  0  0  0  0  2  0  0  0  0  0  0
  189.4710  177.0030  146.8520 C   0  0  0  0  0  2  0  0  0  0  0  0
  188.8920  177.7360  148.0160 C   0  0  0  0  0  0  0  0  0  0  0  0
  187.5310  177.6620  148.2890 O   0  0  0  0  0  0  0  0  0  0  0  0
  189.6370  178.4490  148.7390 O   0  0  0  0  0  1  0  0  0  0  0  0
  188.9550  178.2320  140.0320 N   0  0  0  0  0  2  0  0  0  0  0  0
  189.8300  175.1440  137.3450 N   0  0  0  0  0  0  0  0  0  0  0  0
  188.6260  175.7700  137.2700 C   0  0  0  0  0  3  0  0  0  0  0  0
  188.3300  176.7970  138.1640 C   0  0  0  0  0  3  0  0  0  0  0  0
  189.2710  177.1660  139.1230 C   0  0  0  0  0  0  0  0  0  0  0  0
  190.4940  176.4870  139.1540 C   0  0  0  0  0  3  0  0  0  0  0  0
  190.7370  175.4930  138.2600 N   0  0  0  0  0  0  0  0  0  0  0  0
  185.5090  178.1380  144.6220 C   0  0  0  0  0  2  0  0  0  0  0  0
  184.6870  179.4120  144.6760 C   0  0  0  0  0  2  0  0  0  0  0  0
  183.2150  179.0630  144.7420 C   0  0  0  0  0  2  0  0  0  0  0  0
  181.6640  178.9960  142.7440 C   0  0  0  0  0  0  0  0  0  0  0  0
  182.7840  178.4890  143.4760 N   0  0  0  0  0  2  0  0  0  0  0  0
  181.0350  180.0060  143.1600 O   0  0  0  0  0  0  0  0  0  0  0  0
  179.8820  178.8820  141.0010 C   0  0  0  0  0  1  0  0  0  0  0  0
  181.2070  178.3170  141.4910 C   0  0  1  0  0  3  0  0  0  0  0  0
  183.0830  176.9520  138.5180 C   0  0  2  0  0  3  0  0  0  0  0  0
  182.9820  177.0890  140.0490 C   0  0  0  0  0  2  0  0  0  0  0  0
  182.2600  178.3500  140.4190 C   0  0  0  0  0  0  0  0  0  0  0  0
  184.4360  177.2680  138.0690 C   0  0  0  0  0  2  0  0  0  0  0  0
  182.5590  179.4700  139.7500 C   0  0  0  0  0  3  0  0  0  0  0  0
  183.6030  179.3860  138.6790 C   0  0  0  0  0  2  0  0  0  0  0  0
  183.3580  178.2350  137.7980 N   0  0  2  0  0  0  0  0  0  0  0  0
  1  3  2  0  0  0  0
  1  4  1  0  0  0  0
  2  6  1  0  0  0  0
  2 25  1  0  0  0  0
  3  5  1  0  0  0  0
  4  2  2  0  0  0  0
  5  6  2  0  0  0  0
  7 10  2  0  0  0  0
  8  9  2  0  0  0  0
  9 12  1  0  0  0  0
 10  9  1  0  0  0  0
 11  5  1  1  0  0  0
 11  7  1  0  0  0  0
 11  8  1  0  0  0  0
 12 13  1  0  0  0  0
 14 13  1  0  0  0  0
 14 15  1  0  0  0  0
 15 16  2  0  0  0  0
 15 17  1  0  0  0  0
 18  3  1  0  0  0  0
 19 24  1  0  0  0  0
 20 19  2  0  0  0  0
 20 21  1  0  0  0  0
 21 22  2  0  0  0  0
 22 23  1  0  0  0  0
 22 18  1  0  0  0  0
 24 23  2  0  0  0  0
 25 26  1  0  0  0  0
 26 27  1  0  0  0  0
 28 30  2  0  0  0  0
 28 29  1  0  0  0  0
 29 27  1  0  0  0  0
 32 31  1  6  0  0  0
 32 28  1  0  0  0  0
 33 36  1  1  0  0  0
 33 34  1  0  0  0  0
 34 35  1  0  0  0  0
 35 32  1  0  0  0  0
 37 35  2  0  0  0  0
 38 37  1  0  0  0  0
 39 36  1  1  0  0  0
 39 33  1  0  0  0  0
 39 38  1  0  0  0  0
M  END
>  <MODEL>
4

>  <REMARK>
 VINA RESULT:      -8.2      1.711      7.813
  Name = 
  13 active torsions:
  status: ('A' for Active; 'I' for Inactive)
    1  A    between atoms: C_6  and  C_33
    2  A    between atoms: C_7  and  C_31
    3  A    between atoms: C_8  and  C_22
    4  A    between atoms: C_11  and  N_35
    5  A    between atoms: C_13  and  C_31
    6  A    between atoms: N_15  and  C_16
    7  A    between atoms: N_15  and  C_21
    8  A    between atoms: C_18  and  N_25
    9  A    between atoms: C_18  and  C_34
   10  A    between atoms: C_20  and  C_23
   11  A    between atoms: C_22  and  C_34
   12  A    between atoms: C_29  and  C_33
   13  A    between atoms: C_29  and  N_35
                            x       y       z     vdW  Elec       q    Type
                         _______ _______ _______ _____ _____    ______ ____

>  <TORSDO>
F 13

$$$$
=
 OpenBabel10222420473D

 39 43  0  0  1  0  0  0  0  0999 V2000
  188.3410  178.4100  140.6120 C   0  0  0  0  0  3  0  0  0  0  0  0
  190.1860  177.1530  141.5400 C   0  0  0  0  0  0  0  0  0  0  0  0
  188.6910  178.0060  139.3160 C   0  0  0  0  0  0  0  0  0  0  0  0
  189.0820  177.9890  141.7180 C   0  0  0  0  0  3  0  0  0  0  0  0
  189.8110  177.1700  139.1370 C   0  0  0  0  0  0  0  0  0  0  0  0
  190.5520  176.7500  140.2550 C   0  0  0  0  0  3  0  0  0  0  0  0
  189.5620  175.4790  137.3900 N   0  0  0  0  0  0  0  0  0  0  0  0
  191.6780  176.4190  137.6800 C   0  0  0  0  0  3  0  0  0  0  0  0
  191.7760  175.1610  137.2940 C   0  0  0  0  0  0  0  0  0  0  0  0
  190.4560  174.5870  137.1200 C   0  0  0  0  0  3  0  0  0  0  0  0
  190.2140  176.7340  137.7550 C   0  0  2  0  0  3  0  0  0  0  0  0
  193.0140  174.4800  137.1040 N   0  0  0  0  0  2  0  0  0  0  0  0
  194.2500  175.1960  136.8280 C   0  0  0  0  0  2  0  0  0  0  0  0
  195.4480  174.3530  137.2350 C   0  0  0  0  0  2  0  0  0  0  0  0
  195.4580  174.0970  138.7050 C   0  0  0  0  0  0  0  0  0  0  0  0
  195.6760  175.1390  139.6000 O   0  0  0  0  0  1  0  0  0  0  0  0
  195.2970  172.9260  139.1370 O   0  0  0  0  0  0  0  0  0  0  0  0
  187.9400  178.4320  138.1650 N   0  0  0  0  0  2  0  0  0  0  0  0
  184.1210  177.2300  136.9410 N   0  0  0  0  0  0  0  0  0  0  0  0
  185.1990  176.8880  136.1880 C   0  0  0  0  0  3  0  0  0  0  0  0
  186.4720  177.2880  136.5910 C   0  0  0  0  0  3  0  0  0  0  0  0
  186.6200  178.0340  137.7580 C   0  0  0  0  0  0  0  0  0  0  0  0
  185.4750  178.3580  138.4940 C   0  0  0  0  0  3  0  0  0  0  0  0
  184.2550  177.9440  138.0610 N   0  0  0  0  0  0  0  0  0  0  0  0
  190.9860  176.7130  142.7160 C   0  0  0  0  0  2  0  0  0  0  0  0
  191.3820  177.9140  143.5540 C   0  0  0  0  0  2  0  0  0  0  0  0
  191.3970  177.5280  145.0190 C   0  0  0  0  0  2  0  0  0  0  0  0
  189.7540  177.2800  146.9260 C   0  0  0  0  0  0  0  0  0  0  0  0
  190.0530  177.6220  145.5690 N   0  0  0  0  0  2  0  0  0  0  0  0
  190.6730  176.9290  147.7130 O   0  0  0  0  0  0  0  0  0  0  0  0
  188.2360  178.0140  148.7660 C   0  0  0  0  0  1  0  0  0  0  0  0
  188.3410  177.3100  147.4220 C   0  0  1  0  0  3  0  0  0  0  0  0
  186.3210  177.2860  144.2390 C   0  0  2  0  0  3  0  0  0  0  0  0
  187.6390  177.6500  144.9460 C   0  0  0  0  0  2  0  0  0  0  0  0
  187.4030  177.8980  146.4070 C   0  0  0  0  0  0  0  0  0  0  0  0
  185.8350  178.4200  143.4580 C   0  0  0  0  0  2  0  0  0  0  0  0
  186.3310  178.6160  146.7610 C   0  0  0  0  0  3  0  0  0  0  0  0
  185.4420  179.1310  145.6700 C   0  0  0  0  0  2  0  0  0  0  0  0
  185.1320  178.0680  144.7030 N   0  0  2  0  0  0  0  0  0  0  0  0
  1  4  1  0  0  0  0
  2  4  2  0  0  0  0
  2 25  1  0  0  0  0
  3  1  2  0  0  0  0
  5  3  1  0  0  0  0
  5  6  2  0  0  0  0
  6  2  1  0  0  0  0
  7 11  1  0  0  0  0
  8 11  1  0  0  0  0
  9  8  2  0  0  0  0
 10  9  1  0  0  0  0
 10  7  2  0  0  0  0
 11  5  1  1  0  0  0
 12  9  1  0  0  0  0
 13 12  1  0  0  0  0
 13 14  1  0  0  0  0
 14 15  1  0  0  0  0
 15 17  2  0  0  0  0
 15 16  1  0  0  0  0
 18  3  1  0  0  0  0
 19 24  1  0  0  0  0
 20 21  1  0  0  0  0
 20 19  2  0  0  0  0
 21 22  2  0  0  0  0
 22 18  1  0  0  0  0
 22 23  1  0  0  0  0
 24 23  2  0  0  0  0
 25 26  1  0  0  0  0
 26 27  1  0  0  0  0
 27 29  1  0  0  0  0
 28 32  1  0  0  0  0
 28 30  2  0  0  0  0
 29 28  1  0  0  0  0
 32 31  1  1  0  0  0
 33 36  1  6  0  0  0
 33 39  1  0  0  0  0
 33 34  1  0  0  0  0
 34 35  1  0  0  0  0
 35 37  2  0  0  0  0
 35 32  1  0  0  0  0
 38 37  1  0  0  0  0
 39 36  1  6  0  0  0
 39 38  1  0  0  0  0
M  END
>  <MODEL>
5

>  <REMARK>
 VINA RESULT:      -8.1      3.692      8.031
  Name = 
  13 active torsions:
  status: ('A' for Active; 'I' for Inactive)
    1  A    between atoms: C_6  and  C_33
    2  A    between atoms: C_7  and  C_31
    3  A    between atoms: C_8  and  C_22
    4  A    between atoms: C_11  and  N_35
    5  A    between atoms: C_13  and  C_31
    6  A    between atoms: N_15  and  C_16
    7  A    between atoms: N_15  and  C_21
    8  A    between atoms: C_18  and  N_25
    9  A    between atoms: C_18  and  C_34
   10  A    between atoms: C_20  and  C_23
   11  A    between atoms: C_22  and  C_34
   12  A    between atoms: C_29  and  C_33
   13  A    between atoms: C_29  and  N_35
                            x       y       z     vdW  Elec       q    Type
                         _______ _______ _______ _____ _____    ______ ____

>  <TORSDO>
F 13

$$$$
=
 OpenBabel10222420473D

 39 43  0  0  1  0  0  0  0  0999 V2000
  184.8110  178.9000  142.0590 C   0  0  0  0  0  3  0  0  0  0  0  0
  186.7190  177.9020  143.1590 C   0  0  0  0  0  0  0  0  0  0  0  0
  185.5250  178.9880  140.8550 C   0  0  0  0  0  0  0  0  0  0  0  0
  185.4010  178.3620  143.2030 C   0  0  0  0  0  3  0  0  0  0  0  0
  186.8580  178.5310  140.8130 C   0  0  0  0  0  0  0  0  0  0  0  0
  187.4460  177.9910  141.9700 C   0  0  0  0  0  3  0  0  0  0  0  0
  187.1640  177.6710  138.5470 N   0  0  0  0  0  0  0  0  0  0  0  0
  189.0830  178.2420  139.7460 C   0  0  0  0  0  3  0  0  0  0  0  0
  189.3230  177.2260  138.9390 C   0  0  0  0  0  0  0  0  0  0  0  0
  188.1240  176.8790  138.2020 C   0  0  0  0  0  3  0  0  0  0  0  0
  187.6490  178.6280  139.5380 C   0  0  2  0  0  3  0  0  0  0  0  0
  190.5840  176.5670  138.8410 N   0  0  0  0  0  2  0  0  0  0  0  0
  190.9770  175.8340  137.6470 C   0  0  0  0  0  2  0  0  0  0  0  0
  192.2620  175.0640  137.9030 C   0  0  0  0  0  2  0  0  0  0  0  0
  193.4400  175.9770  137.9690 C   0  0  0  0  0  0  0  0  0  0  0  0
  194.2500  176.0020  139.0980 O   0  0  0  0  0  1  0  0  0  0  0  0
  193.6850  176.7510  137.0070 O   0  0  0  0  0  0  0  0  0  0  0  0
  184.9330  179.5410  139.6660 N   0  0  0  0  0  2  0  0  0  0  0  0
  181.4050  178.4380  137.7010 N   0  0  0  0  0  0  0  0  0  0  0  0
  181.5860  179.7350  138.0650 C   0  0  0  0  0  3  0  0  0  0  0  0
  182.7580  180.1060  138.7210 C   0  0  0  0  0  3  0  0  0  0  0  0
  183.7260  179.1420  138.9960 C   0  0  0  0  0  0  0  0  0  0  0  0
  183.4870  177.8220  138.5990 C   0  0  0  0  0  3  0  0  0  0  0  0
  182.3290  177.5090  137.9600 N   0  0  0  0  0  0  0  0  0  0  0  0
  187.3550  177.3400  144.3820 C   0  0  0  0  0  2  0  0  0  0  0  0
  186.4290  177.5020  145.5710 C   0  0  0  0  0  2  0  0  0  0  0  0
  187.2400  177.8430  146.8040 C   0  0  0  0  0  2  0  0  0  0  0  0
  189.5530  176.8960  147.2010 C   0  0  0  0  0  0  0  0  0  0  0  0
  188.6610  177.7670  146.4980 N   0  0  0  0  0  2  0  0  0  0  0  0
  189.1150  176.1170  148.0910 O   0  0  0  0  0  0  0  0  0  0  0  0
  191.6950  175.6250  147.3450 C   0  0  0  0  0  1  0  0  0  0  0  0
  191.0200  176.9170  146.9090 C   0  0  1  0  0  3  0  0  0  0  0  0
  190.7720  176.3640  143.1880 C   0  0  2  0  0  3  0  0  0  0  0  0
  191.5490  176.1240  144.4950 C   0  0  0  0  0  2  0  0  0  0  0  0
  191.3020  177.2380  145.4690 C   0  0  0  0  0  0  0  0  0  0  0  0
  191.6770  176.8170  142.1360 C   0  0  0  0  0  2  0  0  0  0  0  0
  191.3070  178.4940  145.0070 C   0  0  0  0  0  3  0  0  0  0  0  0
  191.5680  178.7010  143.5460 C   0  0  0  0  0  2  0  0  0  0  0  0
  190.7480  177.7900  142.7340 N   0  0  2  0  0  0  0  0  0  0  0  0
  1  4  1  0  0  0  0
  2  4  2  0  0  0  0
  2 25  1  0  0  0  0
  3  1  2  0  0  0  0
  5  3  1  0  0  0  0
  5  6  2  0  0  0  0
  6  2  1  0  0  0  0
  7 11  1  0  0  0  0
  9  8  2  0  0  0  0
 10  7  2  0  0  0  0
 10  9  1  0  0  0  0
 11  8  1  0  0  0  0
 11  5  1  1  0  0  0
 12  9  1  0  0  0  0
 13 14  1  0  0  0  0
 13 12  1  0  0  0  0
 14 15  1  0  0  0  0
 15 16  1  0  0  0  0
 17 15  2  0  0  0  0
 18  3  1  0  0  0  0
 19 24  2  0  0  0  0
 19 20  1  0  0  0  0
 20 21  2  0  0  0  0
 21 22  1  0  0  0  0
 22 18  1  0  0  0  0
 23 22  2  0  0  0  0
 24 23  1  0  0  0  0
 25 26  1  0  0  0  0
 26 27  1  0  0  0  0
 28 30  2  0  0  0  0
 29 27  1  0  0  0  0
 29 28  1  0  0  0  0
 32 28  1  0  0  0  0
 32 31  1  6  0  0  0
 33 36  1  6  0  0  0
 33 34  1  0  0  0  0
 34 35  1  0  0  0  0
 35 32  1  0  0  0  0
 37 35  2  0  0  0  0
 38 37  1  0  0  0  0
 39 36  1  6  0  0  0
 39 33  1  0  0  0  0
 39 38  1  0  0  0  0
M  END
>  <MODEL>
6

>  <REMARK>
 VINA RESULT:      -8.0      3.089      6.620
  Name = 
  13 active torsions:
  status: ('A' for Active; 'I' for Inactive)
    1  A    between atoms: C_6  and  C_33
    2  A    between atoms: C_7  and  C_31
    3  A    between atoms: C_8  and  C_22
    4  A    between atoms: C_11  and  N_35
    5  A    between atoms: C_13  and  C_31
    6  A    between atoms: N_15  and  C_16
    7  A    between atoms: N_15  and  C_21
    8  A    between atoms: C_18  and  N_25
    9  A    between atoms: C_18  and  C_34
   10  A    between atoms: C_20  and  C_23
   11  A    between atoms: C_22  and  C_34
   12  A    between atoms: C_29  and  C_33
   13  A    between atoms: C_29  and  N_35
                            x       y       z     vdW  Elec       q    Type
                         _______ _______ _______ _____ _____    ______ ____

>  <TORSDO>
F 13

$$$$
=
 OpenBabel10222420473D

 39 43  0  0  1  0  0  0  0  0999 V2000
  181.2780  179.1350  141.7800 C   0  0  0  0  0  3  0  0  0  0  0  0
  183.5210  178.6010  142.5060 C   0  0  0  0  0  0  0  0  0  0  0  0
  181.6750  179.0660  140.4360 C   0  0  0  0  0  0  0  0  0  0  0  0
  182.1920  178.9050  142.8080 C   0  0  0  0  0  3  0  0  0  0  0  0
  183.0180  178.7680  140.1320 C   0  0  0  0  0  0  0  0  0  0  0  0
  183.9330  178.5380  141.1740 C   0  0  0  0  0  3  0  0  0  0  0  0
  183.5570  177.3190  138.2400 N   0  0  0  0  0  0  0  0  0  0  0  0
  184.8650  179.2290  138.5350 C   0  0  0  0  0  3  0  0  0  0  0  0
  185.5830  178.2470  138.0250 C   0  0  0  0  0  0  0  0  0  0  0  0
  184.7610  177.0650  137.8480 C   0  0  0  0  0  3  0  0  0  0  0  0
  183.4700  178.7020  138.6990 C   0  0  2  0  0  3  0  0  0  0  0  0
  186.9720  178.3510  137.7200 N   0  0  0  0  0  2  0  0  0  0  0  0
  187.9580  177.4660  138.3200 C   0  0  0  0  0  2  0  0  0  0  0  0
  188.9450  178.2670  139.1540 C   0  0  0  0  0  2  0  0  0  0  0  0
  188.6120  178.1970  140.6070 C   0  0  0  0  0  0  0  0  0  0  0  0
  187.3860  178.6600  141.0720 O   0  0  0  0  0  0  0  0  0  0  0  0
  189.4570  177.7410  141.4200 O   0  0  0  0  0  1  0  0  0  0  0  0
  180.7460  179.3020  139.3630 N   0  0  0  0  0  2  0  0  0  0  0  0
  179.6980  182.9570  137.6100 N   0  0  0  0  0  0  0  0  0  0  0  0
  179.2240  182.6520  138.8470 C   0  0  0  0  0  3  0  0  0  0  0  0
  179.5690  181.4360  139.4330 C   0  0  0  0  0  3  0  0  0  0  0  0
  180.3920  180.5490  138.7420 C   0  0  0  0  0  0  0  0  0  0  0  0
  180.8500  180.9150  137.4720 C   0  0  0  0  0  3  0  0  0  0  0  0
  180.4880  182.1130  136.9430 N   0  0  0  0  0  0  0  0  0  0  0  0
  184.5020  178.3680  143.6020 C   0  0  0  0  0  2  0  0  0  0  0  0
  184.3050  179.3940  144.7020 C   0  0  0  0  0  2  0  0  0  0  0  0
  184.4040  178.7150  146.0520 C   0  0  0  0  0  2  0  0  0  0  0  0
  186.7390  177.9680  146.6770 C   0  0  0  0  0  0  0  0  0  0  0  0
  185.7130  178.9650  146.6370 N   0  0  0  0  0  2  0  0  0  0  0  0
  186.5510  176.8380  146.1520 O   0  0  0  0  0  0  0  0  0  0  0  0
  187.9790  177.8710  148.8400 C   0  0  0  0  0  1  0  0  0  0  0  0
  188.0390  178.2450  147.3670 C   0  0  1  0  0  3  0  0  0  0  0  0
  190.7020  177.9690  144.7120 C   0  0  2  0  0  3  0  0  0  0  0  0
  189.2750  177.6190  145.1720 C   0  0  0  0  0  2  0  0  0  0  0  0
  189.1950  177.5870  146.6690 C   0  0  0  0  0  0  0  0  0  0  0  0
  191.3850  176.7750  144.2250 C   0  0  0  0  0  2  0  0  0  0  0  0
  190.1890  176.9950  147.3420 C   0  0  0  0  0  3  0  0  0  0  0  0
  191.3110  176.3970  146.5500 C   0  0  0  0  0  2  0  0  0  0  0  0
  191.7880  177.3370  145.5250 N   0  0  2  0  0  0  0  0  0  0  0  0
  1  4  1  0  0  0  0
  2  4  2  0  0  0  0
  2 25  1  0  0  0  0
  3  1  2  0  0  0  0
  5  3  1  0  0  0  0
  5  6  2  0  0  0  0
  6  2  1  0  0  0  0
  7 11  1  0  0  0  0
  8 11  1  0  0  0  0
  9  8  2  0  0  0  0
 10  9  1  0  0  0  0
 10  7  2  0  0  0  0
 11  5  1  1  0  0  0
 12  9  1  0  0  0  0
 12 13  1  0  0  0  0
 13 14  1  0  0  0  0
 14 15  1  0  0  0  0
 15 16  2  0  0  0  0
 15 17  1  0  0  0  0
 18  3  1  0  0  0  0
 19 20  1  0  0  0  0
 20 21  2  0  0  0  0
 22 18  1  0  0  0  0
 22 21  1  0  0  0  0
 23 22  2  0  0  0  0
 24 23  1  0  0  0  0
 24 19  2  0  0  0  0
 25 26  1  0  0  0  0
 26 27  1  0  0  0  0
 27 29  1  0  0  0  0
 28 32  1  0  0  0  0
 29 28  1  0  0  0  0
 30 28  2  0  0  0  0
 32 31  1  1  0  0  0
 33 36  1  6  0  0  0
 33 34  1  0  0  0  0
 33 39  1  0  0  0  0
 34 35  1  0  0  0  0
 35 37  2  0  0  0  0
 35 32  1  0  0  0  0
 38 37  1  0  0  0  0
 39 36  1  6  0  0  0
 39 38  1  0  0  0  0
M  END
>  <MODEL>
7

>  <REMARK>
 VINA RESULT:      -7.9      2.243      5.754
  Name = 
  13 active torsions:
  status: ('A' for Active; 'I' for Inactive)
    1  A    between atoms: C_6  and  C_33
    2  A    between atoms: C_7  and  C_31
    3  A    between atoms: C_8  and  C_22
    4  A    between atoms: C_11  and  N_35
    5  A    between atoms: C_13  and  C_31
    6  A    between atoms: N_15  and  C_16
    7  A    between atoms: N_15  and  C_21
    8  A    between atoms: C_18  and  N_25
    9  A    between atoms: C_18  and  C_34
   10  A    between atoms: C_20  and  C_23
   11  A    between atoms: C_22  and  C_34
   12  A    between atoms: C_29  and  C_33
   13  A    between atoms: C_29  and  N_35
                            x       y       z     vdW  Elec       q    Type
                         _______ _______ _______ _____ _____    ______ ____

>  <TORSDO>
F 13

$$$$
=
 OpenBabel10222420473D

 39 43  0  0  1  0  0  0  0  0999 V2000
  181.5450  178.9290  143.1120 C   0  0  0  0  0  3  0  0  0  0  0  0
  183.9310  178.6380  143.3710 C   0  0  0  0  0  0  0  0  0  0  0  0
  181.6720  178.8990  141.7150 C   0  0  0  0  0  0  0  0  0  0  0  0
  182.6640  178.8010  143.9350 C   0  0  0  0  0  3  0  0  0  0  0  0
  182.9520  178.7450  141.1470 C   0  0  0  0  0  0  0  0  0  0  0  0
  184.0750  178.6160  141.9830 C   0  0  0  0  0  3  0  0  0  0  0  0
  182.8540  177.3920  139.1140 N   0  0  0  0  0  0  0  0  0  0  0  0
  184.5320  179.0080  139.2470 C   0  0  0  0  0  3  0  0  0  0  0  0
  184.9450  177.9620  138.5570 C   0  0  0  0  0  0  0  0  0  0  0  0
  183.8960  176.9640  138.4840 C   0  0  0  0  0  3  0  0  0  0  0  0
  183.1160  178.7240  139.6520 C   0  0  2  0  0  3  0  0  0  0  0  0
  186.2500  177.8450  137.9930 N   0  0  0  0  0  2  0  0  0  0  0  0
  186.6070  178.4920  136.7400 C   0  0  0  0  0  2  0  0  0  0  0  0
  187.9990  178.0650  136.3060 C   0  0  0  0  0  2  0  0  0  0  0  0
  189.0390  178.5450  137.2640 C   0  0  0  0  0  0  0  0  0  0  0  0
  189.9770  177.6620  137.7860 O   0  0  0  0  0  1  0  0  0  0  0  0
  189.0480  179.7510  137.6230 O   0  0  0  0  0  0  0  0  0  0  0  0
  180.5290  179.0330  140.8520 N   0  0  0  0  0  2  0  0  0  0  0  0
  179.1010  182.4340  138.8730 N   0  0  0  0  0  0  0  0  0  0  0  0
  179.7290  181.4630  138.1580 C   0  0  0  0  0  3  0  0  0  0  0  0
  180.2070  180.3300  138.8130 C   0  0  0  0  0  3  0  0  0  0  0  0
  180.0380  180.2110  140.1920 C   0  0  0  0  0  0  0  0  0  0  0  0
  179.3840  181.2410  140.8760 C   0  0  0  0  0  3  0  0  0  0  0  0
  178.9330  182.3250  140.1930 N   0  0  0  0  0  0  0  0  0  0  0  0
  185.1280  178.5140  144.2470 C   0  0  0  0  0  2  0  0  0  0  0  0
  184.7920  178.9680  145.6550 C   0  0  0  0  0  2  0  0  0  0  0  0
  185.6520  178.2160  146.6490 C   0  0  0  0  0  2  0  0  0  0  0  0
  188.1140  177.7340  146.9740 C   0  0  0  0  0  0  0  0  0  0  0  0
  187.0100  178.0970  146.1400 N   0  0  0  0  0  2  0  0  0  0  0  0
  187.9300  177.4540  148.1900 O   0  0  0  0  0  0  0  0  0  0  0  0
  190.3980  176.7530  147.2010 C   0  0  0  0  0  1  0  0  0  0  0  0
  189.5050  177.7080  146.4220 C   0  0  1  0  0  3  0  0  0  0  0  0
  191.1170  176.6840  143.1710 C   0  0  2  0  0  3  0  0  0  0  0  0
  190.7010  177.8220  144.1210 C   0  0  0  0  0  2  0  0  0  0  0  0
  189.5190  177.4130  144.9500 C   0  0  0  0  0  0  0  0  0  0  0  0
  190.6890  176.9800  141.8080 C   0  0  0  0  0  2  0  0  0  0  0  0
  188.5190  176.7590  144.3450 C   0  0  0  0  0  3  0  0  0  0  0  0
  188.6480  176.4890  142.8770 C   0  0  0  0  0  2  0  0  0  0  0  0
  189.9730  175.9370  142.5610 N   0  0  2  0  0  0  0  0  0  0  0  0
  1  4  1  0  0  0  0
  2  4  2  0  0  0  0
  2 25  1  0  0  0  0
  3  1  2  0  0  0  0
  5  3  1  0  0  0  0
  5  6  2  0  0  0  0
  6  2  1  0  0  0  0
  7 11  1  0  0  0  0
  8 11  1  0  0  0  0
  9  8  2  0  0  0  0
 10  9  1  0  0  0  0
 10  7  2  0  0  0  0
 11  5  1  1  0  0  0
 12  9  1  0  0  0  0
 13 12  1  0  0  0  0
 14 13  1  0  0  0  0
 14 15  1  0  0  0  0
 15 17  2  0  0  0  0
 15 16  1  0  0  0  0
 18  3  1  0  0  0  0
 19 24  1  0  0  0  0
 20 21  1  0  0  0  0
 20 19  2  0  0  0  0
 21 22  2  0  0  0  0
 22 18  1  0  0  0  0
 22 23  1  0  0  0  0
 24 23  2  0  0  0  0
 25 26  1  0  0  0  0
 26 27  1  0  0  0  0
 28 30  2  0  0  0  0
 29 27  1  0  0  0  0
 29 28  1  0  0  0  0
 32 28  1  0  0  0  0
 32 31  1  1  0  0  0
 33 36  1  6  0  0  0
 33 34  1  0  0  0  0
 34 35  1  0  0  0  0
 35 32  1  0  0  0  0
 37 35  2  0  0  0  0
 38 37  1  0  0  0  0
 39 36  1  6  0  0  0
 39 38  1  0  0  0  0
 39 33  1  0  0  0  0
M  END
>  <MODEL>
8

>  <REMARK>
 VINA RESULT:      -7.8      2.866      6.155
  Name = 
  13 active torsions:
  status: ('A' for Active; 'I' for Inactive)
    1  A    between atoms: C_6  and  C_33
    2  A    between atoms: C_7  and  C_31
    3  A    between atoms: C_8  and  C_22
    4  A    between atoms: C_11  and  N_35
    5  A    between atoms: C_13  and  C_31
    6  A    between atoms: N_15  and  C_16
    7  A    between atoms: N_15  and  C_21
    8  A    between atoms: C_18  and  N_25
    9  A    between atoms: C_18  and  C_34
   10  A    between atoms: C_20  and  C_23
   11  A    between atoms: C_22  and  C_34
   12  A    between atoms: C_29  and  C_33
   13  A    between atoms: C_29  and  N_35
                            x       y       z     vdW  Elec       q    Type
                         _______ _______ _______ _____ _____    ______ ____

>  <TORSDO>
F 13

$$$$
=
 OpenBabel10222420473D

 39 43  0  0  1  0  0  0  0  0999 V2000
  186.1480  179.0030  141.4860 C   0  0  0  0  0  3  0  0  0  0  0  0
  184.5310  178.4650  143.2020 C   0  0  0  0  0  0  0  0  0  0  0  0
  185.1790  178.8250  140.4880 C   0  0  0  0  0  0  0  0  0  0  0  0
  185.8290  178.8240  142.8330 C   0  0  0  0  0  3  0  0  0  0  0  0
  183.8710  178.4530  140.8600 C   0  0  0  0  0  0  0  0  0  0  0  0
  183.5580  178.2750  142.2190 C   0  0  0  0  0  3  0  0  0  0  0  0
  181.5340  178.7920  140.2330 N   0  0  0  0  0  0  0  0  0  0  0  0
  182.5370  176.7860  139.5900 C   0  0  0  0  0  3  0  0  0  0  0  0
  181.2550  176.6050  139.8430 C   0  0  0  0  0  0  0  0  0  0  0  0
  180.6430  177.8570  140.2450 C   0  0  0  0  0  3  0  0  0  0  0  0
  182.8180  178.2430  139.8080 C   0  0  2  0  0  3  0  0  0  0  0  0
  180.5940  175.3450  139.7510 N   0  0  0  0  0  2  0  0  0  0  0  0
  179.5570  175.0920  138.7640 C   0  0  0  0  0  2  0  0  0  0  0  0
  180.1810  174.7720  137.4160 C   0  0  0  0  0  2  0  0  0  0  0  0
  180.8350  173.4300  137.4240 C   0  0  0  0  0  0  0  0  0  0  0  0
  180.1190  172.3000  137.8020 O   0  0  0  0  0  1  0  0  0  0  0  0
  182.0500  173.3250  137.1140 O   0  0  0  0  0  0  0  0  0  0  0  0
  185.4900  179.0020  139.0950 N   0  0  0  0  0  2  0  0  0  0  0  0
  187.4410  176.3850  136.4740 N   0  0  0  0  0  0  0  0  0  0  0  0
  186.0980  176.5620  136.3600 C   0  0  0  0  0  3  0  0  0  0  0  0
  185.4450  177.4300  137.2320 C   0  0  0  0  0  3  0  0  0  0  0  0
  186.1770  178.1030  138.2090 C   0  0  0  0  0  0  0  0  0  0  0  0
  187.5570  177.8830  138.2790 C   0  0  0  0  0  3  0  0  0  0  0  0
  188.1490  177.0270  137.4060 N   0  0  0  0  0  0  0  0  0  0  0  0
  184.1920  178.2610  144.6370 C   0  0  0  0  0  2  0  0  0  0  0  0
  184.9000  179.2950  145.4900 C   0  0  0  0  0  2  0  0  0  0  0  0
  185.6960  178.5990  146.5750 C   0  0  0  0  0  2  0  0  0  0  0  0
  188.0780  177.8540  146.9870 C   0  0  0  0  0  0  0  0  0  0  0  0
  187.0700  178.4080  146.1360 N   0  0  0  0  0  2  0  0  0  0  0  0
  187.7870  177.4620  148.1490 O   0  0  0  0  0  0  0  0  0  0  0  0
  190.2890  176.7520  147.3410 C   0  0  0  0  0  1  0  0  0  0  0  0
  189.4970  177.7570  146.5190 C   0  0  1  0  0  3  0  0  0  0  0  0
  191.2890  176.8550  143.3270 C   0  0  2  0  0  3  0  0  0  0  0  0
  190.7640  177.9590  144.2630 C   0  0  0  0  0  2  0  0  0  0  0  0
  189.5830  177.4690  145.0470 C   0  0  0  0  0  0  0  0  0  0  0  0
  190.8920  177.1270  141.9490 C   0  0  0  0  0  2  0  0  0  0  0  0
  188.6520  176.7520  144.4060 C   0  0  0  0  0  3  0  0  0  0  0  0
  188.8510  176.4960  142.9430 C   0  0  0  0  0  2  0  0  0  0  0  0
  190.2200  176.0350  142.6750 N   0  0  2  0  0  0  0  0  0  0  0  0
  1  4  1  0  0  0  0
  2 25  1  0  0  0  0
  3  5  1  0  0  0  0
  3  1  2  0  0  0  0
  4  2  2  0  0  0  0
  5  6  2  0  0  0  0
  6  2  1  0  0  0  0
  7 10  2  0  0  0  0
  8 11  1  0  0  0  0
  8  9  2  0  0  0  0
  9 10  1  0  0  0  0
 11  7  1  0  0  0  0
 11  5  1  1  0  0  0
 12  9  1  0  0  0  0
 13 12  1  0  0  0  0
 14 15  1  0  0  0  0
 14 13  1  0  0  0  0
 15 16  1  0  0  0  0
 17 15  2  0  0  0  0
 18  3  1  0  0  0  0
 19 24  1  0  0  0  0
 20 19  2  0  0  0  0
 20 21  1  0  0  0  0
 21 22  2  0  0  0  0
 22 23  1  0  0  0  0
 22 18  1  0  0  0  0
 24 23  2  0  0  0  0
 25 26  1  0  0  0  0
 26 27  1  0  0  0  0
 28 30  2  0  0  0  0
 29 27  1  0  0  0  0
 29 28  1  0  0  0  0
 32 28  1  0  0  0  0
 32 31  1  1  0  0  0
 33 36  1  6  0  0  0
 33 34  1  0  0  0  0
 34 35  1  0  0  0  0
 35 32  1  0  0  0  0
 37 35  2  0  0  0  0
 38 37  1  0  0  0  0
 39 36  1  6  0  0  0
 39 38  1  0  0  0  0
 39 33  1  0  0  0  0
M  END
>  <MODEL>
9

>  <REMARK>
 VINA RESULT:      -7.8      2.861      3.515
  Name = 
  13 active torsions:
  status: ('A' for Active; 'I' for Inactive)
    1  A    between atoms: C_6  and  C_33
    2  A    between atoms: C_7  and  C_31
    3  A    between atoms: C_8  and  C_22
    4  A    between atoms: C_11  and  N_35
    5  A    between atoms: C_13  and  C_31
    6  A    between atoms: N_15  and  C_16
    7  A    between atoms: N_15  and  C_21
    8  A    between atoms: C_18  and  N_25
    9  A    between atoms: C_18  and  C_34
   10  A    between atoms: C_20  and  C_23
   11  A    between atoms: C_22  and  C_34
   12  A    between atoms: C_29  and  C_33
   13  A    between atoms: C_29  and  N_35
                            x       y       z     vdW  Elec       q    Type
                         _______ _______ _______ _____ _____    ______ ____

>  <TORSDO>
F 13

$$$$
